drugbank_target|P22983 Pyruvate, phosphate dikinase (DB02522)
 OpenBabel12092120013D

  0  0  0     0  0            999 V3000
M  V30 BEGIN CTAB
M  V30 COUNTS 13463 13587 0 0 0
M  V30 BEGIN ATOM
M  V30 1 H -0.908 1.98254 -0.117106 0
M  V30 2 N 0 1.576 0 0
M  V30 3 C 0.933 2.03868 1.02534 0
M  V30 4 C 1.911 0.928543 1.3348 0
M  V30 5 O 3.095 1.19667 1.45644 0
M  V30 6 C 0.222 2.43627 2.35294 0
M  V30 7 C -0.732 3.65373 2.2001 0
M  V30 8 S 0.101 5.13292 1.52614 0
M  V30 9 C 1.257 5.56322 2.86805 0
M  V30 10 H 1.49 2.90518 0.631377 0
M  V30 11 H -0.977 1.52953 0.210867 0
M  V30 12 H 0.981 2.67203 3.11629 0
M  V30 13 H -0.358 1.57376 2.7183 0
M  V30 14 H -1.165 3.90944 3.18086 0
M  V30 15 H -1.563 3.418 1.51819 0
M  V30 16 H 0.729 5.58782 3.83104 0
M  V30 17 H 1.672 6.56266 2.65933 0
M  V30 18 H 2.08 4.83886 2.90714 0
M  V30 19 N 1.4781 -0.272755 1.55222 0
M  V30 20 C 2.4411 -1.32041 1.87344 0
M  V30 21 C 3.4411 -1.42342 0.74803 0
M  V30 22 O 4.6311 -1.41488 1.0162 0
M  V30 23 C 1.7631 -2.70173 2.07893 0
M  V30 24 H 2.9561 -1.04789 2.80997 0
M  V30 25 H 0.5091 -0.51083 1.47717 0
M  V30 26 H 1.2441 -3.02605 1.16622 0
M  V30 27 H 1.0291 -2.64082 2.89833 0
M  V30 28 H 2.5191 -3.45869 2.34017 0
M  V30 29 N 2.9562 -1.48159 -0.537278 0
M  V30 30 C 3.9032 -1.62138 -1.64256 0
M  V30 31 C 4.8732 -0.463668 -1.59497 0
M  V30 32 O 6.0582 -0.686241 -1.78032 0
M  V30 33 C 3.1982 -1.66028 -3.02537 0
M  V30 34 C 2.3112 -2.92855 -3.17585 0
M  V30 35 C 1.4462 -2.87952 -4.46382 0
M  V30 36 C 0.4852 -4.09516 -4.54932 0
M  V30 37 N -0.3778 -4.02733 -5.75109 0
M  V30 38 H 4.4622 -2.56529 -1.51647 0
M  V30 39 H 1.9992 -1.27224 -0.738414 0
M  V30 40 H 3.9572 -1.66265 -3.82638 0
M  V30 41 H 2.5872 -0.751331 -3.13934 0
M  V30 42 H 1.6392 -3.02395 -2.30784 0
M  V30 43 H 2.9512 -3.82822 -3.19764 0
M  V30 44 H 2.1052 -2.8655 -5.34765 0
M  V30 45 H 0.8442 -1.95702 -4.46712 0
M  V30 46 H -0.1508 -4.11201 -3.64957 0
M  V30 47 H 1.0742 -5.02917 -4.56346 0
M  V30 48 H -0.9798 -3.13299 -5.76351 0
M  V30 49 H -1.0628 -4.86397 -5.78752 0
M  V30 50 H 0.2052 -4.05379 -6.65799 0
M  V30 51 N 4.4343 0.785586 -1.36625 0
M  V30 52 C 5.6803 1.5452 -1.32269 0
M  V30 53 C 6.0353 1.92159 0.0962266 0
M  V30 54 O 5.3283 1.60158 1.05167 0
M  V30 55 C 5.5223 2.83007 -2.1827 0
M  V30 56 C 5.3513 2.57925 -3.68382 0
M  V30 57 C 4.1213 2.52752 -4.37544 0
M  V30 58 C 6.3193 2.26861 -4.61561 0
M  V30 59 N 4.3013 2.19608 -5.73276 0
M  V30 60 C 5.6723 2.03738 -5.85569 0
M  V30 61 C 7.7273 2.129 -4.50087 0
M  V30 62 C 6.4303 1.68065 -6.9939 0
M  V30 63 C 8.4563 1.78626 -5.63779 0
M  V30 64 C 7.8183 1.56353 -6.86828 0
M  V30 65 H 3.9173 0.566301 -0.539283 0
M  V30 66 H 6.5013 0.917736 -1.71714 0
M  V30 67 H 4.6723 3.43614 -1.81063 0
M  V30 68 H 6.4043 3.48775 -2.05275 0
M  V30 69 H 3.1593 2.6813 -3.90389 0
M  V30 70 H 3.5833 2.05771 -6.44971 0
M  V30 71 H 8.2253 2.28808 -3.55537 0
M  V30 72 H 5.9433 1.50895 -7.93887 0
M  V30 73 H 9.5293 1.68502 -5.56865 0
M  V30 74 H 8.4093 1.30223 -7.73312 0
M  V30 75 N 5.9124 1.20967 1.01018 0
M  V30 76 C 7.1584 1.02526 1.74975 0
M  V30 77 C 7.4914 -0.4408 1.89131 0
M  V30 78 O 6.7664 -1.32718 1.42184 0
M  V30 79 C 7.0494 1.71699 3.1653 0
M  V30 80 C 6.9024 3.25791 3.10129 0
M  V30 81 C 8.2214 1.45531 4.15342 0
M  V30 82 H 5.3404 0.373863 0.635134 0
M  V30 83 H 7.9824 1.49071 1.17805 0
M  V30 84 H 6.1324 1.32128 3.65341 0
M  V30 85 H 7.8044 3.74697 2.69072 0
M  V30 86 H 6.0474 3.56363 2.47362 0
M  V30 87 H 6.7184 3.69353 4.10222 0
M  V30 88 H 9.1944 1.79872 3.75213 0
M  V30 89 H 8.0704 1.96453 5.1254 0
M  V30 90 H 8.3314 0.384237 4.40427 0
M  V30 91 N 7.3905 -1.2043 1.01659 0
M  V30 92 C 8.6205 -1.93496 0.724081 0
M  V30 93 C 9.0285 -1.74998 -0.71918 0
M  V30 94 O 8.3715 -1.06118 -1.49949 0
M  V30 95 C 8.4335 -3.45886 0.97994 0
M  V30 96 C 8.0975 -3.88145 2.41232 0
M  V30 97 C 9.0945 -3.93907 3.39313 0
M  V30 98 C 6.7795 -4.20134 2.75305 0
M  V30 99 C 8.7735 -4.31069 4.6953 0
M  V30 100 C 6.4605 -4.56971 4.05735 0
M  V30 101 C 7.4585 -4.62411 5.02658 0
M  V30 102 O 7.1465 -4.98403 6.30754 0
M  V30 103 H 6.8785 -0.621824 0.265162 0
M  V30 104 H 9.4325 -1.53867 1.36066 0
M  V30 105 H 7.6625 -3.85639 0.286198 0
M  V30 106 H 9.3515 -4.0018 0.679021 0
M  V30 107 H 10.1175 -3.69357 3.14325 0
M  V30 108 H 5.9965 -4.1509 2.00551 0
M  V30 109 H 9.5405 -4.3523 5.45179 0
M  V30 110 H 5.4375 -4.80977 4.30502 0
M  V30 111 H 6.2055 -5.16395 6.35042 0
M  V30 112 N 8.8686 -0.792821 -1.36206 0
M  V30 113 C 9.8156 -0.191653 -2.30003 0
M  V30 114 C 10.7856 0.666453 -1.52143 0
M  V30 115 O 11.9706 0.61442 -1.80636 0
M  V30 116 C 9.1106 0.664848 -3.38635 0
M  V30 117 C 8.2236 -0.212175 -4.31479 0
M  V30 118 C 7.3586 0.651022 -5.27196 0
M  V30 119 C 6.3976 -0.227247 -6.11678 0
M  V30 120 N 5.5346 0.595127 -6.99573 0
M  V30 121 H 10.3746 -0.996978 -2.80828 0
M  V30 122 H 7.9116 -0.503206 -1.38225 0
M  V30 123 H 9.8696 1.17645 -4.00269 0
M  V30 124 H 8.4996 1.43557 -2.89122 0
M  V30 125 H 7.5516 -0.841777 -3.70969 0
M  V30 126 H 8.8636 -0.888751 -4.90818 0
M  V30 127 H 8.0176 1.2283 -5.94136 0
M  V30 128 H 6.7566 1.36121 -4.68319 0
M  V30 129 H 5.7616 -0.816904 -5.43697 0
M  V30 130 H 6.9866 -0.93509 -6.72631 0
M  V30 131 H 4.9326 1.28955 -6.432 0
M  V30 132 H 4.8496 -0.0236952 -7.55996 0
M  V30 133 H 6.1176 1.15613 -7.70879 0
M  V30 134 N 10.3467 1.47872 -0.545128 0
M  V30 135 C 11.5937 2.02493 -0.0165858 0
M  V30 136 C 11.9217 1.42073 1.32836 0
M  V30 137 O 11.1767 0.561459 1.87473 0
M  V30 138 C 11.4757 3.57131 0.13867 0
M  V30 139 C 11.1417 4.36411 -1.13384 0
M  V30 140 C 9.8037 4.57792 -1.48256 0
M  V30 141 C 12.1557 4.82223 -1.97764 0
M  V30 142 C 9.4837 5.22233 -2.67376 0
M  V30 143 C 11.8357 5.47977 -3.16076 0
M  V30 144 C 10.4997 5.67593 -3.51275 0
M  V30 145 H 9.7697 0.740975 -0.00606918 0
M  V30 146 H 12.4167 1.77683 -0.714207 0
M  V30 147 H 10.7217 3.80865 0.919172 0
M  V30 148 H 12.4187 3.97031 0.562782 0
M  V30 149 H 9.0087 4.2004 -0.852297 0
M  V30 150 H 13.1927 4.65493 -1.72132 0
M  V30 151 H 8.4487 5.35616 -2.94831 0
M  V30 152 H 12.6227 5.8244 -3.81755 0
M  V30 153 H 10.2497 6.17298 -4.43675 0
M  V30 154 N 11.8248 0.280983 1.55075 0
M  V30 155 C 12.7348 -0.61388 2.26426 0
M  V30 156 C 13.7508 -1.16521 1.29224 0
M  V30 157 O 14.9268 -1.19426 1.62171 0
M  V30 158 C 11.9918 -1.7788 2.9759 0
M  V30 159 C 11.0528 -1.26355 4.10284 0
M  V30 160 C 10.2858 -2.37295 4.78045 0
M  V30 161 O 10.5088 -3.56777 4.45047 0
M  V30 162 O 9.4428 -2.05119 5.65871 0
M  V30 163 H 13.2688 -0.0356932 3.03679 0
M  V30 164 H 10.8538 0.0481686 1.49322 0
M  V30 165 H 12.7358 -2.45791 3.42293 0
M  V30 166 H 11.4108 -2.34397 2.23249 0
M  V30 167 H 10.3178 -0.550735 3.70024 0
M  V30 168 H 11.6508 -0.744065 4.86543 0
M  V30 169 N 13.3029 -1.57598 0.00835791 0
M  V30 170 C 14.2129 -2.12385 -0.996487 0
M  V30 171 C 15.2289 -1.07108 -1.37127 0
M  V30 172 O 16.4049 -1.39055 -1.4569 0
M  V30 173 C 13.4699 -2.62314 -2.26699 0
M  V30 174 C 12.5309 -3.82225 -1.95456 0
M  V30 175 C 11.7639 -4.29763 -3.16449 0
M  V30 176 O 11.9869 -3.76584 -4.28416 0
M  V30 177 O 10.9209 -5.21832 -2.99958 0
M  V30 178 H 14.7469 -2.98479 -0.560725 0
M  V30 179 H 12.3319 -1.47903 -0.210987 0
M  V30 180 H 14.2139 -2.94589 -3.01322 0
M  V30 181 H 12.8889 -1.79313 -2.69497 0
M  V30 182 H 11.7959 -3.54909 -1.18282 0
M  V30 183 H 13.1289 -4.66324 -1.57489 0
M  V30 184 N 14.781 0.264519 -1.55364 0
M  V30 185 C 16.029 0.993021 -1.76021 0
M  V30 186 C 16.35 1.86511 -0.569099 0
M  V30 187 O 15.62 1.91438 0.415735 0
M  V30 188 H 14.2 0.369639 -0.649135 0
M  V30 189 H 16.862 0.286707 -1.9278 0
M  V30 190 H 15.958 1.62502 -2.66457 0
M  V30 191 N 16.2591 1.48442 0.529413 0
M  V30 192 C 17.2071 1.63452 1.65487 0
M  V30 193 C 18.2011 0.500955 1.61823 0
M  V30 194 O 19.4071 0.679695 1.66674 0
M  V30 195 H 15.7821 0.514905 0.548066 0
M  V30 196 H 17.7531 2.57975 1.49971 0
M  V30 197 C 16.5021 1.69196 3.03756 0
M  V30 198 H 15.8251 2.55784 3.07269 0
M  V30 199 H 17.2651 1.83743 3.82119 0
M  V30 200 C 15.7241 0.430765 3.34135 0
M  V30 201 O 16.2541 -0.4561 3.99102 0
M  V30 202 N 14.4601 0.302293 2.89023 0
M  V30 203 H 14.0071 1.02496 2.36331 0
M  V30 204 H 13.9651 -0.540546 3.09718 0
M  V30 205 N 17.7372 -0.778329 1.37039 0
M  V30 206 C 18.7002 -1.87301 1.32102 0
M  V30 207 C 19.7002 -1.59198 0.226405 0
M  V30 208 O 20.8902 -1.67403 0.481861 0
M  V30 209 C 18.0222 -3.24309 1.05055 0
M  V30 210 H 19.2152 -1.93093 2.29467 0
M  V30 211 H 16.7682 -0.977358 1.21973 0
M  V30 212 H 17.5032 -3.24196 0.0819373 0
M  V30 213 H 17.2882 -3.46098 1.84279 0
M  V30 214 H 18.7782 -4.04382 1.04234 0
M  V30 215 N 19.2153 -1.21501 -1.00376 0
M  V30 216 C 20.4403 -1.05977 -1.78279 0
M  V30 217 C 20.8653 0.385994 -1.84097 0
M  V30 218 O 20.2233 1.27849 -1.28547 0
M  V30 219 C 20.2713 -1.66302 -3.19963 0
M  V30 220 O 19.3753 -0.909333 -4.0225 0
M  V30 221 H 18.7163 -0.372906 -0.549397 0
M  V30 222 H 21.2463 -1.6107 -1.26165 0
M  V30 223 H 21.2563 -1.70574 -3.70632 0
M  V30 224 H 19.9313 -2.71515 -3.15043 0
M  V30 225 H 18.5083 -0.941795 -3.60811 0
M  V30 226 N 20.6934 1.19889 -1.02296 0
M  V30 227 C 21.6264 2.21639 -0.543282 0
M  V30 228 C 22.6044 1.57275 0.412698 0
M  V30 229 O 23.7884 1.85568 0.331198 0
M  V30 230 C 20.9154 3.38057 0.208571 0
M  V30 231 C 19.9614 4.20751 -0.697933 0
M  V30 232 S 20.7944 4.89529 -2.17075 0
M  V30 233 C 21.9504 6.09363 -1.42923 0
M  V30 234 H 22.1834 2.61984 -1.40541 0
M  V30 235 H 19.7164 1.30041 -0.832387 0
M  V30 236 H 21.6744 4.05539 0.63624 0
M  V30 237 H 20.3354 2.96159 1.04635 0
M  V30 238 H 19.5284 5.03862 -0.117831 0
M  V30 239 H 19.1304 3.58556 -1.06366 0
M  V30 240 H 21.4224 6.73742 -0.712637 0
M  V30 241 H 22.3654 6.71845 -2.23673 0
M  V30 242 H 22.7734 5.56798 -0.929327 0
M  V30 243 N 22.1715 0.800033 1.35784 0
M  V30 244 C 23.5875 0.482977 1.52117 0
M  V30 245 C 23.7875 -0.996948 1.75109 0
M  V30 246 O 22.8435 -1.78216 1.78872 0
M  V30 247 C 24.1565 1.32264 2.70049 0
M  V30 248 C 25.7045 1.31742 2.83924 0
M  V30 249 C 26.1795 2.14106 4.04874 0
M  V30 250 N 27.6705 2.11607 4.12039 0
M  V30 251 C 28.4055 2.72099 5.04727 0
M  V30 252 N 27.9015 3.41492 6.02789 0
M  V30 253 N 29.6945 2.61776 4.97423 0
M  V30 254 H 21.8455 1.75856 1.19115 0
M  V30 255 H 24.1085 0.748122 0.582252 0
M  V30 256 H 23.8145 2.37261 2.59616 0
M  V30 257 H 23.6885 0.971303 3.6448 0
M  V30 258 H 26.0755 0.275333 2.93813 0
M  V30 259 H 26.1565 1.70859 1.9037 0
M  V30 260 H 25.8005 3.18351 3.95746 0
M  V30 261 H 25.7305 1.72353 4.97596 0
M  V30 262 H 28.2215 1.61112 3.41835 0
M  V30 263 H 28.5345 3.84953 6.70098 0
M  V30 264 H 26.8795 3.45596 6.02983 0
M  V30 265 H 30.0705 2.07157 4.19766 0
M  V30 266 H 30.2435 3.0921 5.69468 0
M  V30 267 N 23.6496 -1.47581 0.552962 0
M  V30 268 C 24.5976 -2.31648 -0.21023 0
M  V30 269 C 25.5916 -1.42663 -0.913432 0
M  V30 270 O 26.7976 -1.5945 -0.835201 0
M  V30 271 H 23.1726 -0.746989 -0.0866676 0
M  V30 272 H 25.1436 -2.93869 0.518051 0
M  V30 273 C 23.8926 -3.25226 -1.22976 0
M  V30 274 H 23.2156 -3.93658 -0.698077 0
M  V30 275 H 24.6556 -3.86889 -1.73473 0
M  V30 276 C 23.1146 -2.48448 -2.27542 0
M  V30 277 O 23.6446 -2.22585 -3.34393 0
M  V30 278 N 21.8506 -2.09532 -2.01357 0
M  V30 279 H 21.3976 -2.30765 -1.14478 0
M  V30 280 H 21.3556 -1.58476 -2.71538 0
M  V30 281 N 25.1277 -0.289203 -1.54924 0
M  V30 282 C 26.0577 0.58549 -2.2604 0
M  V30 283 C 27.0387 1.14753 -1.25562 0
M  V30 284 O 28.2237 1.17906 -1.54311 0
M  V30 285 C 25.3537 1.76305 -2.99222 0
M  V30 286 C 24.3077 1.33191 -4.06748 0
M  V30 287 C 23.6337 2.5937 -4.6758 0
M  V30 288 C 24.9337 0.471775 -5.20165 0
M  V30 289 H 26.6277 -0.00763532 -2.99399 0
M  V30 290 H 24.1737 -0.00511229 -1.43999 0
M  V30 291 H 26.1267 2.38097 -3.47689 0
M  V30 292 H 24.8507 2.38223 -2.23422 0
M  V30 293 H 23.5097 0.737121 -3.59113 0
M  V30 294 H 23.1577 3.19576 -3.88433 0
M  V30 295 H 22.8577 2.31228 -5.40192 0
M  V30 296 H 24.3817 3.21985 -5.18804 0
M  V30 297 H 25.7957 0.995056 -5.64599 0
M  V30 298 H 24.1927 0.284639 -5.99425 0
M  V30 299 H 25.2627 -0.506041 -4.82252 0
M  V30 300 N 26.6058 1.57591 -0.0167156 0
M  V30 301 C 27.5358 2.12496 0.967858 0
M  V30 302 C 28.5168 1.03807 1.34752 0
M  V30 303 O 29.7018 1.31577 1.42833 0
M  V30 304 C 26.8318 2.64194 2.25431 0
M  V30 305 C 25.7858 3.77559 2.01576 0
M  V30 306 C 25.1118 4.15636 3.36379 0
M  V30 307 C 26.4118 5.04151 1.36489 0
M  V30 308 H 28.1058 2.95013 0.510643 0
M  V30 309 H 25.6518 1.41915 0.244181 0
M  V30 310 H 27.6048 3.01236 2.94678 0
M  V30 311 H 26.3288 1.78821 2.73296 0
M  V30 312 H 24.9878 3.40937 1.34751 0
M  V30 313 H 24.6358 3.27263 3.81979 0
M  V30 314 H 24.3358 4.92022 3.21229 0
M  V30 315 H 25.8598 4.5525 4.06915 0
M  V30 316 H 27.2738 5.38857 1.95718 0
M  V30 317 H 25.6708 5.85453 1.31776 0
M  V30 318 H 26.7408 4.83733 0.336219 0
M  V30 319 N 28.0839 -0.256276 1.55502 0
M  V30 320 C 29.3319 -0.983672 1.76545 0
M  V30 321 C 29.6529 -1.86206 0.578982 0
M  V30 322 O 28.9229 -1.91656 -0.405577 0
M  V30 323 H 27.5029 -0.366191 0.651086 0
M  V30 324 H 30.1649 -0.276479 1.92929 0
M  V30 325 H 29.2609 -1.61087 2.67315 0
M  V30 326 N 29.562 -1.4872 -0.521534 0
M  V30 327 C 30.81 -1.56857 -1.27437 0
M  V30 328 C 31.131 -0.247982 -1.93417 0
M  V30 329 O 30.401 0.731151 -1.81744 0
M  V30 330 H 28.981 -0.577885 -0.473347 0
M  V30 331 H 31.643 -1.85233 -0.606205 0
M  V30 332 H 30.739 -2.35402 -2.0492 0
M  V30 333 N 31.0401 0.771051 -1.3745 0
M  V30 334 C 31.9871 1.88435 -1.3327 0
M  V30 335 C 32.9571 1.64914 -0.198136 0
M  V30 336 O 34.1421 1.86821 -0.387606 0
M  V30 337 C 31.2821 3.25509 -1.14622 0
M  V30 338 C 30.3951 3.60979 -2.37314 0
M  V30 339 C 29.5301 4.87265 -2.11533 0
M  V30 340 C 28.5691 5.15469 -3.30088 0
M  V30 341 N 27.7061 6.32944 -3.03853 0
M  V30 342 H 32.5461 1.91344 -2.28455 0
M  V30 343 H 30.0831 0.935466 -1.13523 0
M  V30 344 H 32.0411 4.04582 -1.01831 0
M  V30 345 H 30.6711 3.21974 -0.230837 0
M  V30 346 H 29.7231 2.76885 -2.60842 0
M  V30 347 H 31.0351 3.77759 -3.25729 0
M  V30 348 H 30.1891 5.74244 -1.95777 0
M  V30 349 H 28.9281 4.7259 -1.20457 0
M  V30 350 H 27.9331 4.26966 -3.46382 0
M  V30 351 H 29.1581 5.32052 -4.22016 0
M  V30 352 H 27.1041 6.19625 -2.15407 0
M  V30 353 H 27.0211 6.50143 -3.85812 0
M  V30 354 H 28.2891 7.22857 -2.91716 0
M  V30 355 N 32.5182 1.22032 0.997298 0
M  V30 356 C 33.7662 1.04016 1.73278 0
M  V30 357 C 34.0872 -0.426255 1.90284 0
M  V30 358 O 33.3572 -1.30694 1.45931 0
M  V30 359 H 31.9372 0.381897 0.642 0
M  V30 360 H 34.5992 1.5347 1.20137 0
M  V30 361 H 33.6952 1.51441 2.72896 0
M  V30 362 N 33.9963 -1.19345 1.0293 0
M  V30 363 C 35.2363 -1.90738 0.734727 0
M  V30 364 C 35.6003 -1.7785 -0.723414 0
M  V30 365 O 36.8013 -2.43844 -1.13108 0
M  V30 366 C 35.0723 -3.37569 1.17396 0
M  V30 367 S 36.6313 -4.27176 1.00329 0
M  V30 368 H 33.4493 -0.658771 0.267474 0
M  V30 369 H 36.0513 -1.4428 1.31922 0
M  V30 370 H 34.7553 -3.44475 2.23081 0
M  V30 371 H 34.2863 -3.8906 0.582772 0
M  V30 372 H 36.3013 -4.96126 -0.0859152 0
M  V30 373 N 35.4744 -0.807222 -1.35358 0
M  V30 374 C 36.4224 -0.20614 -2.31685 0
M  V30 375 C 37.4164 0.644445 -1.56663 0
M  V30 376 O 38.6224 0.537538 -1.71786 0
M  V30 377 H 34.9974 -0.0479006 -0.750473 0
M  V30 378 H 36.9684 -1.03369 -2.79924 0
M  V30 379 C 35.7174 0.630212 -3.41941 0
M  V30 380 H 35.0404 -0.0149558 -3.99797 0
M  V30 381 H 36.4804 1.01716 -4.11619 0
M  V30 382 C 34.9394 1.79601 -2.85035 0
M  V30 383 O 35.4694 2.89351 -2.78637 0
M  V30 384 N 33.6754 1.60774 -2.42074 0
M  V30 385 H 33.2224 0.715009 -2.47478 0
M  V30 386 H 33.1804 2.38933 -2.04349 0
M  V30 387 N 36.9525 1.47285 -0.560781 0
M  V30 388 C 37.8825 2.32857 0.173105 0
M  V30 389 C 38.8635 1.44009 0.905281 0
M  V30 390 O 40.0485 1.7286 0.885046 0
M  V30 391 C 37.1785 3.25861 1.20133 0
M  V30 392 C 36.1325 4.23978 0.585388 0
M  V30 393 C 35.4585 5.06332 1.7185 0
M  V30 394 C 36.7585 5.20242 -0.463178 0
M  V30 395 H 38.4525 2.94466 -0.541307 0
M  V30 396 H 35.9985 1.41601 -0.261764 0
M  V30 397 H 37.9515 3.84569 1.72293 0
M  V30 398 H 36.6755 2.62315 1.94573 0
M  V30 399 H 35.3345 3.66501 0.085054 0
M  V30 400 H 34.9825 4.39186 2.45203 0
M  V30 401 H 34.6825 5.72762 1.31213 0
M  V30 402 H 36.2065 5.67899 2.24329 0
M  V30 403 H 37.6205 5.73293 -0.027502 0
M  V30 404 H 36.0175 5.94896 -0.788627 0
M  V30 405 H 37.0875 4.65504 -1.35773 0
M  V30 406 N 38.4306 0.297415 1.54768 0
M  V30 407 C 39.3936 -0.567375 2.22066 0
M  V30 408 C 40.3936 -1.06409 1.20556 0
M  V30 409 O 41.5836 -0.960691 1.45315 0
M  V30 410 C 38.7156 -1.78517 2.90421 0
M  V30 411 H 39.9086 0.0205534 2.99893 0
M  V30 412 H 37.4616 0.0482163 1.56226 0
M  V30 413 H 38.1966 -2.41303 2.16664 0
M  V30 414 H 37.9816 -1.43669 3.64831 0
M  V30 415 H 39.4716 -2.39964 3.41771 0
M  V30 416 N 39.9087 -1.5758 0.0250728 0
M  V30 417 C 40.8187 -2.1343 -0.973905 0
M  V30 418 C 41.8347 -1.08556 -1.35984 0
M  V30 419 O 43.0107 -1.40592 -1.44207 0
M  V30 420 C 40.0757 -2.64703 -2.23904 0
M  V30 421 C 39.1367 -3.84276 -1.91391 0
M  V30 422 C 38.3697 -4.33095 -3.11873 0
M  V30 423 O 38.5927 -3.81107 -4.24398 0
M  V30 424 O 37.5267 -5.24984 -2.94406 0
M  V30 425 H 41.3527 -2.99057 -0.529036 0
M  V30 426 H 38.9377 -1.48118 -0.195288 0
M  V30 427 H 40.8197 -2.97769 -2.98181 0
M  V30 428 H 39.4947 -1.82161 -2.6758 0
M  V30 429 H 38.4017 -3.56143 -1.14511 0
M  V30 430 H 39.7347 -4.67968 -1.52534 0
M  V30 431 N 41.3868 0.248026 -1.55636 0
M  V30 432 C 42.3198 1.3334 -1.85191 0
M  V30 433 C 43.2978 1.46429 -0.706906 0
M  V30 434 O 44.4818 1.62662 -0.952544 0
M  V30 435 C 41.6088 2.70703 -2.03562 0
M  V30 436 C 40.6548 2.7477 -3.26196 0
M  V30 437 S 41.4878 2.31493 -4.82878 0
M  V30 438 C 42.6438 3.70783 -5.04253 0
M  V30 439 H 42.8768 1.08072 -2.76962 0
M  V30 440 H 40.4098 0.448952 -1.47729 0
M  V30 441 H 42.3678 3.49798 -2.1483 0
M  V30 442 H 41.0288 2.9321 -1.12635 0
M  V30 443 H 40.2218 3.75648 -3.36013 0
M  V30 444 H 39.8238 2.03719 -3.13647 0
M  V30 445 H 42.1158 4.6627 -4.91527 0
M  V30 446 H 43.0588 3.65901 -6.06236 0
M  V30 447 H 43.4668 3.63244 -4.32105 0
M  V30 448 N 42.8649 1.48995 0.513639 0
M  V30 449 C 44.0929 1.61531 1.29288 0
M  V30 450 C 44.5079 0.281801 1.86685 0
M  V30 451 O 43.8649 -0.731111 1.67215 0
M  V30 452 C 43.9159 2.67449 2.43215 0
M  V30 453 O 43.6369 3.95626 1.88179 0
M  V30 454 C 45.1379 2.90575 3.34785 0
M  V30 455 H 42.3579 0.544165 0.392588 0
M  V30 456 H 44.9019 1.9494 0.617956 0
M  V30 457 H 43.0569 2.36853 3.0656 0
M  V30 458 H 43.4709 4.53868 2.62876 0
M  V30 459 H 44.9449 3.68449 4.11035 0
M  V30 460 H 45.4219 2.00011 3.91015 0
M  V30 461 H 46.0279 3.22538 2.77218 0
M  V30 462 N 44.343 -0.763751 1.37857 0
M  V30 463 C 45.592 -1.51789 1.32827 0
M  V30 464 C 45.905 -1.95426 -0.0823719 0
M  V30 465 O 47.111 -2.70298 -0.255172 0
M  V30 466 C 45.567 -2.74133 2.33193 0
M  V30 467 C 45.175 -2.37562 3.79827 0
M  V30 468 C 46.919 -3.52054 2.37188 0
M  V30 469 C 44.826 -3.56456 4.71904 0
M  V30 470 H 43.756 -0.569896 0.493695 0
M  V30 471 H 46.407 -0.835822 1.63359 0
M  V30 472 H 44.789 -3.4427 1.9569 0
M  V30 473 H 45.963 -1.75157 4.26212 0
M  V30 474 H 44.278 -1.72798 3.78853 0
M  V30 475 H 46.875 -4.40437 3.03182 0
M  V30 476 H 47.218 -3.92486 1.38782 0
M  V30 477 H 47.751 -2.88921 2.7344 0
M  V30 478 H 44.49 -3.21099 5.71468 0
M  V30 479 H 44.01 -4.17938 4.30218 0
M  V30 480 H 45.689 -4.23168 4.89426 0
M  V30 481 N 45.8211 -1.22559 -0.990812 0
M  V30 482 C 46.7511 -1.0218 -2.09956 0
M  V30 483 C 47.7321 0.0579394 -1.70001 0
M  V30 484 O 48.9171 -0.104684 -1.93918 0
M  V30 485 C 46.0471 -0.601023 -3.4206 0
M  V30 486 C 45.0011 -1.62694 -3.95872 0
M  V30 487 C 44.3271 -1.06193 -5.24049 0
M  V30 488 C 45.6271 -3.01743 -4.2632 0
M  V30 489 H 47.3211 -1.94916 -2.27262 0
M  V30 490 H 44.8671 -0.938566 -1.09211 0
M  V30 491 H 46.8201 -0.445561 -4.19038 0
M  V30 492 H 45.5441 0.362005 -3.24588 0
M  V30 493 H 44.2031 -1.77021 -3.21028 0
M  V30 494 H 43.8511 -0.0901903 -5.02919 0
M  V30 495 H 43.5511 -1.74732 -5.61019 0
M  V30 496 H 45.0751 -0.918092 -6.03658 0
M  V30 497 H 46.4891 -2.90777 -4.94087 0
M  V30 498 H 44.8861 -3.67425 -4.74467 0
M  V30 499 H 45.9561 -3.51518 -3.34011 0
M  V30 500 N 47.2992 1.18797 -1.03562 0
M  V30 501 C 48.5472 1.88278 -0.734569 0
M  V30 502 C 48.8682 1.8043 0.739586 0
M  V30 503 O 48.1382 1.21925 1.53333 0
M  V30 504 H 46.7182 0.696991 -0.268725 0
M  V30 505 H 49.3802 1.44192 -1.31129 0
M  V30 506 H 48.4762 2.94443 -1.03489 0
M  V30 507 N 48.7773 0.814389 1.34928 0
M  V30 508 C 49.7103 0.175641 2.27523 0
M  V30 509 C 50.6883 -0.662953 1.48471 0
M  V30 510 O 51.8723 -0.628545 1.77712 0
M  V30 511 C 48.9993 -0.755516 3.30166 0
M  V30 512 C 48.0453 0.00445305 4.265 0
M  V30 513 S 48.8783 1.34582 5.18313 0
M  V30 514 C 50.0343 0.419315 6.24494 0
M  V30 515 H 50.2673 0.960691 2.8135 0
M  V30 516 H 47.8003 0.609846 1.41846 0
M  V30 517 H 49.7583 -1.28723 3.89796 0
M  V30 518 H 48.4193 -1.51402 2.75202 0
M  V30 519 H 47.6123 -0.703077 4.99072 0
M  V30 520 H 47.2143 0.466447 3.7108 0
M  V30 521 H 49.5063 -0.392432 6.76362 0
M  V30 522 H 50.4493 1.11446 6.99275 0
M  V30 523 H 50.8573 0.0115389 5.64499 0
M  V30 524 N 50.2554 -1.46986 0.568584 0
M  V30 525 C 51.6664 -1.86188 0.138219 0
M  V30 526 C 52.0174 -1.47388 -1.29504 0
M  V30 527 O 51.1424 -0.88219 -1.97602 0
M  V30 528 C 51.7374 -3.3792 0.244065 0
M  V30 529 C 50.2964 -3.76171 -0.131335 0
M  V30 530 C 49.4434 -2.71027 0.586465 0
M  V30 531 H 52.3944 -1.38342 0.777645 0
M  V30 532 H 52.4154 -3.76729 -0.534351 0
M  V30 533 H 51.9274 -3.66128 1.28731 0
M  V30 534 H 50.0284 -3.5358 -1.17526 0
M  V30 535 H 50.1414 -4.78523 0.235146 0
M  V30 536 H 48.5054 -2.54684 0.0282722 0
M  V30 537 H 49.2884 -3.02077 1.63109 0
M  V30 538 N 51.7335 -0.305618 -1.54608 0
M  V30 539 C 52.9825 0.303098 -1.9941 0
M  V30 540 C 53.2955 1.54648 -1.19764 0
M  V30 541 O 54.5015 2.23007 -1.54855 0
M  V30 542 C 52.9575 0.590588 -3.55021 0
M  V30 543 C 52.5655 -0.634719 -4.43481 0
M  V30 544 C 54.3095 1.16025 -4.08336 0
M  V30 545 C 52.2165 -0.320126 -5.90533 0
M  V30 546 H 51.1465 0.117031 -0.744862 0
M  V30 547 H 53.7975 -0.415045 -1.78745 0
M  V30 548 H 52.1795 1.36845 -3.71604 0
M  V30 549 H 53.3535 -1.41079 -4.38672 0
M  V30 550 H 51.6685 -1.12333 -4.00962 0
M  V30 551 H 54.2655 1.40994 -5.15776 0
M  V30 552 H 54.6085 2.10397 -3.5922 0
M  V30 553 H 55.1415 0.443985 -3.95315 0
M  V30 554 H 51.8805 -1.23254 -6.43808 0
M  V30 555 H 51.4005 0.418579 -5.98338 0
M  V30 556 H 53.0795 0.0766241 -6.46955 0
M  V30 557 N 53.2116 1.57565 -0.0334293 0
M  V30 558 C 54.6226 1.79746 0.504798 0
M  V30 559 C 54.9736 0.944091 1.71992 0
M  V30 560 O 54.0986 0.155694 2.15839 0
M  V30 561 C 54.6936 3.25997 0.922567 0
M  V30 562 C 53.2526 3.49159 1.40588 0
M  V30 563 C 52.3996 2.74785 0.372633 0
M  V30 564 H 55.3506 1.56565 -0.259436 0
M  V30 565 H 55.3716 3.35945 1.78666 0
M  V30 566 H 54.8836 3.88081 0.0379825 0
M  V30 567 H 52.9846 2.92332 2.31025 0
M  V30 568 H 53.0976 4.57873 1.41028 0
M  V30 569 H 51.4616 2.40391 0.841672 0
M  V30 570 H 52.2446 3.39587 -0.503559 0
M  V30 571 N 54.6897 -0.239769 1.55765 0
M  V30 572 C 55.6217 -1.32001 1.87372 0
M  V30 573 C 56.6347 -1.43944 0.760522 0
M  V30 574 O 57.8237 -1.45167 1.0387 0
M  V30 575 C 54.9237 -2.69779 2.05115 0
M  V30 576 C 54.0967 -2.80014 3.36022 0
M  V30 577 C 53.1557 -3.98684 3.4342 0
M  V30 578 O 52.1817 -3.87877 4.16582 0
M  V30 579 N 53.3837 -5.12176 2.73232 0
M  V30 580 H 56.1487 -1.0522 2.80622 0
M  V30 581 H 53.7097 -0.429857 1.56089 0
M  V30 582 H 55.7017 -3.47517 2.07399 0
M  V30 583 H 54.2717 -2.89237 1.18577 0
M  V30 584 H 53.4917 -1.88896 3.45994 0
M  V30 585 H 54.7797 -2.83808 4.22292 0
M  V30 586 H 54.1777 -5.2385 2.13536 0
M  V30 587 H 52.7347 -5.88022 2.81199 0
M  V30 588 N 56.1678 -1.49265 -0.50573 0
M  V30 589 C 57.4158 -1.582 -1.25766 0
M  V30 590 C 57.7368 -0.268482 -1.93143 0
M  V30 591 O 57.0068 0.711833 -1.8251 0
M  V30 592 H 55.5868 -0.582873 -0.467191 0
M  V30 593 H 58.2488 -1.85865 -0.586525 0
M  V30 594 H 57.3448 -2.37563 -2.02412 0
M  V30 595 N 57.6459 0.756429 -1.3826 0
M  V30 596 C 58.8929 1.51547 -1.34312 0
M  V30 597 C 59.2209 1.94382 0.0677144 0
M  V30 598 O 58.4759 1.65514 1.04421 0
M  V30 599 C 58.7749 2.78313 -2.24224 0
M  V30 600 C 58.4409 2.54455 -3.72241 0
M  V30 601 C 57.1029 2.47657 -4.12576 0
M  V30 602 C 59.4549 2.3354 -4.65949 0
M  V30 603 C 56.7829 2.17956 -5.44713 0
M  V30 604 C 59.1349 2.05359 -5.9834 0
M  V30 605 C 57.7989 1.97016 -6.37762 0
M  V30 606 H 57.0689 0.55455 -0.491482 0
M  V30 607 H 59.7159 0.870039 -1.70595 0
M  V30 608 H 58.0209 3.47492 -1.80987 0
M  V30 609 H 59.7179 3.36259 -2.18474 0
M  V30 610 H 56.3079 2.60616 -3.40261 0
M  V30 611 H 60.4919 2.37772 -4.35635 0
M  V30 612 H 55.7479 2.10003 -5.74203 0
M  V30 613 H 59.9219 1.88179 -6.70494 0
M  V30 614 H 57.5489 1.73766 -7.40074 0
M  V30 615 N 59.124 1.23083 0.984299 0
M  V30 616 C 60.352 1.08714 1.76037 0
M  V30 617 C 60.767 -0.361691 1.85303 0
M  V30 618 O 60.124 -1.25034 1.32939 0
M  V30 619 C 60.175 1.70206 3.18923 0
M  V30 620 O 59.896 3.09423 3.10144 0
M  V30 621 C 61.397 1.61227 4.12941 0
M  V30 622 H 58.617 0.380664 0.552572 0
M  V30 623 H 61.161 1.62853 1.23689 0
M  V30 624 H 59.316 1.20109 3.6831 0
M  V30 625 H 59.73 3.39188 4.00065 0
M  V30 626 H 61.204 2.08962 5.10919 0
M  V30 627 H 61.681 0.570375 4.35481 0
M  V30 628 H 62.287 2.10671 3.69456 0
M  V30 629 N 60.6021 -1.18246 1.0419 0
M  V30 630 C 61.8481 -1.88536 0.747122 0
M  V30 631 C 62.1811 -1.80223 -0.723409 0
M  V30 632 O 61.4561 -1.20337 -1.52804 0
M  V30 633 C 61.7391 -3.38968 1.21544 0
M  V30 634 C 61.5921 -3.56084 2.74816 0
M  V30 635 C 62.9111 -4.32648 0.806482 0
M  V30 636 H 60.0301 -0.684619 0.272883 0
M  V30 637 H 62.6721 -1.39113 1.29413 0
M  V30 638 H 60.8221 -3.8119 0.750081 0
M  V30 639 H 62.4941 -3.22946 3.29399 0
M  V30 640 H 60.7371 -2.98699 3.14582 0
M  V30 641 H 61.4081 -4.61639 3.02644 0
M  V30 642 H 63.8841 -3.98211 1.20695 0
M  V30 643 H 62.7601 -5.36462 1.1619 0
M  V30 644 H 63.0211 -4.41146 -0.29029 0
M  V30 645 N 62.0802 -0.821533 -1.34494 0
M  V30 646 C 63.3082 -0.421884 -2.02553 0
M  V30 647 C 63.7232 0.971745 -1.61872 0
M  V30 648 O 63.0802 1.62864 -0.823496 0
M  V30 649 C 63.1312 -0.51285 -3.57844 0
M  V30 650 O 62.8522 -1.85155 -3.97051 0
M  V30 651 C 64.3532 -0.107921 -4.43169 0
M  V30 652 H 61.5732 -0.169482 -0.649243 0
M  V30 653 H 64.1172 -1.1093 -1.71798 0
M  V30 654 H 62.2722 0.126474 -3.87193 0
M  V30 655 H 62.6862 -1.82482 -4.91732 0
M  V30 656 H 64.1602 -0.222657 -5.51551 0
M  V30 657 H 64.6372 0.948401 -4.28838 0
M  V30 658 H 65.2432 -0.720989 -4.19144 0
M  V30 659 N 63.5583 1.46682 -0.576371 0
M  V30 660 C 64.7863 2.06798 -0.0649635 0
M  V30 661 C 65.2013 1.42612 1.23723 0
M  V30 662 O 64.5583 0.529203 1.74659 0
M  V30 663 C 64.6093 3.6132 0.114202 0
M  V30 664 O 64.3303 4.23104 -1.13644 0
M  V30 665 C 65.8313 4.38349 0.66069 0
M  V30 666 H 63.0513 0.668778 -0.0545616 0
M  V30 667 H 65.5953 1.88404 -0.795237 0
M  V30 668 H 63.7503 3.79162 0.794673 0
M  V30 669 H 64.1643 5.15894 -0.946253 0
M  V30 670 H 65.6383 5.47081 0.73526 0
M  V30 671 H 66.1153 4.05953 1.67627 0
M  V30 672 H 66.7213 4.25297 0.0152951 0
M  V30 673 N 65.0364 0.313813 1.54444 0
M  V30 674 C 65.9464 -0.565714 2.27677 0
M  V30 675 C 66.9624 -1.13754 1.31666 0
M  V30 676 O 68.1384 -1.15959 1.64668 0
M  V30 677 C 65.2034 -1.71528 3.01296 0
M  V30 678 C 64.2644 -1.17624 4.12872 0
M  V30 679 C 63.4974 -2.27102 4.8297 0
M  V30 680 O 63.7204 -3.47256 4.52514 0
M  V30 681 O 62.6544 -1.9307 5.70094 0
M  V30 682 H 66.4804 0.0287296 3.03686 0
M  V30 683 H 64.0654 0.0798312 1.49187 0
M  V30 684 H 65.9474 -2.38476 3.4743 0
M  V30 685 H 64.6224 -2.29608 2.2817 0
M  V30 686 H 63.5294 -0.472124 3.71109 0
M  V30 687 H 64.8624 -0.640695 4.88012 0
M  V30 688 N 66.5145 -1.57545 0.0417849 0
M  V30 689 C 67.4775 -2.09885 -0.92093 0
M  V30 690 C 68.4775 -1.01648 -1.24596 0
M  V30 691 O 69.6675 -1.27759 -1.1842 0
M  V30 692 C 66.7995 -2.57527 -2.23367 0
M  V30 693 H 67.9925 -2.96236 -0.467382 0
M  V30 694 H 65.5455 -1.5493 -0.206467 0
M  V30 695 H 66.2805 -1.74542 -2.73323 0
M  V30 696 H 66.0655 -3.36613 -2.01083 0
M  V30 697 H 67.5555 -2.98201 -2.92346 0
M  V30 698 N 67.9926 0.231505 -1.5589 0
M  V30 699 C 69.2326 0.964533 -1.80211 0
M  V30 700 C 69.5966 1.81926 -0.613744 0
M  V30 701 O 70.7976 2.58526 -0.736045 0
M  V30 702 C 69.0686 1.78956 -3.09369 0
M  V30 703 S 70.6276 2.57959 -3.54969 0
M  V30 704 H 67.4456 0.324173 -0.632798 0
M  V30 705 H 70.0476 0.230985 -1.94131 0
M  V30 706 H 68.7516 1.15161 -3.93911 0
M  V30 707 H 68.2826 2.56559 -2.9823 0
M  V30 708 H 70.2976 3.81309 -3.17519 0
M  V30 709 N 69.4707 1.49531 0.497807 0
M  V30 710 C 70.6987 1.62893 1.27567 0
M  V30 711 C 71.1137 0.301585 1.86376 0
M  V30 712 O 70.4707 -0.713335 1.67982 0
M  V30 713 C 70.5217 2.70013 2.40364 0
M  V30 714 O 70.2427 3.976 1.83972 0
M  V30 715 C 71.7437 2.94109 3.31685 0
M  V30 716 H 68.9637 0.548298 0.386794 0
M  V30 717 H 71.5077 1.95584 0.597245 0
M  V30 718 H 69.6627 2.40092 3.04031 0
M  V30 719 H 70.0767 4.56631 2.58047 0
M  V30 720 H 71.5507 3.72788 4.07104 0
M  V30 721 H 72.0277 2.04147 3.88871 0
M  V30 722 H 72.6337 3.2546 2.73781 0
M  V30 723 N 70.9488 -0.749086 1.3866 0
M  V30 724 C 71.8588 -1.89358 1.38494 0
M  V30 725 C 72.8748 -1.71708 0.281476 0
M  V30 726 O 74.0508 -1.94554 0.520643 0
M  V30 727 C 71.1158 -3.24782 1.21316 0
M  V30 728 C 70.1768 -3.54926 2.41508 0
M  V30 729 C 69.4098 -4.83888 2.2514 0
M  V30 730 O 69.6328 -5.56592 1.24746 0
M  V30 731 O 68.5668 -5.13612 3.13826 0
M  V30 732 H 72.3928 -1.92452 2.34938 0
M  V30 733 H 69.9778 -0.894981 1.19626 0
M  V30 734 H 71.8598 -4.05739 1.13814 0
M  V30 735 H 70.5348 -3.2249 0.279592 0
M  V30 736 H 69.4418 -2.74112 2.54585 0
M  V30 737 H 70.7748 -3.61983 3.3351 0
M  V30 738 N 72.4269 -1.23603 -0.977757 0
M  V30 739 C 73.6569 -1.09487 -1.75203 0
M  V30 740 C 74.0649 0.356321 -1.85814 0
M  V30 741 O 73.4079 1.25816 -1.33851 0
M  V30 742 C 73.4699 -1.64905 -3.19447 0
M  V30 743 C 73.1339 -3.13688 -3.32338 0
M  V30 744 C 74.1309 -4.10953 -3.18455 0
M  V30 745 C 71.8159 -3.53449 -3.56902 0
M  V30 746 C 73.8099 -5.45962 -3.28944 0
M  V30 747 C 71.4969 -4.88602 -3.6703 0
M  V30 748 C 72.4949 -5.84668 -3.53062 0
M  V30 749 O 72.1829 -7.17365 -3.62826 0
M  V30 750 H 71.9149 -0.38367 -0.556573 0
M  V30 751 H 74.4689 -1.6398 -1.23693 0
M  V30 752 H 72.6989 -1.04835 -3.72218 0
M  V30 753 H 74.3879 -1.46226 -3.78646 0
M  V30 754 H 75.1539 -3.81577 -2.99372 0
M  V30 755 H 71.0329 -2.79188 -3.66844 0
M  V30 756 H 74.5769 -6.20925 -3.17958 0
M  V30 757 H 70.4739 -5.17653 -3.85623 0
M  V30 758 H 71.2419 -7.2515 -3.79605 0
M  V30 759 N 73.905 1.17692 -1.04816 0
M  V30 760 C 75.135 1.91508 -0.775128 0
M  V30 761 C 75.543 1.76844 0.67253 0
M  V30 762 O 74.886 1.10057 1.47082 0
M  V30 763 C 74.948 3.43167 -1.0713 0
M  V30 764 C 74.612 3.81612 -2.51438 0
M  V30 765 C 75.609 3.84772 -3.49638 0
M  V30 766 C 73.294 4.12687 -2.86348 0
M  V30 767 C 75.288 4.18469 -4.80794 0
M  V30 768 C 72.975 4.46053 -4.17708 0
M  V30 769 C 73.973 4.48921 -5.14741 0
M  V30 770 O 73.661 4.81504 -6.43746 0
M  V30 771 H 73.393 0.614575 -0.281555 0
M  V30 772 H 75.947 1.50206 -1.40098 0
M  V30 773 H 74.177 3.84745 -0.388342 0
M  V30 774 H 75.866 3.98239 -0.784883 0
M  V30 775 H 76.632 3.60893 -3.24008 0
M  V30 776 H 72.511 4.09627 -2.11486 0
M  V30 777 H 76.055 4.20623 -5.56527 0
M  V30 778 H 71.952 4.69393 -4.43103 0
M  V30 779 H 72.72 4.99377 -6.4851 0
M  V30 780 N 75.3831 0.828654 1.34056 0
M  V30 781 C 76.3311 0.242973 2.31327 0
M  V30 782 C 77.3251 -0.61944 1.57668 0
M  V30 783 O 78.5311 -0.51014 1.7262 0
M  V30 784 H 74.9061 0.059834 0.749616 0
M  V30 785 H 76.8771 1.07809 2.78244 0
M  V30 786 C 75.6261 -0.575733 3.429 0
M  V30 787 H 74.9491 0.0785582 3.99723 0
M  V30 788 H 76.3891 -0.951547 4.13185 0
M  V30 789 C 74.8481 -1.75044 2.87856 0
M  V30 790 O 75.3781 -2.84882 2.83205 0
M  V30 791 N 73.5841 -1.56903 2.44602 0
M  V30 792 H 73.1311 -0.675547 2.48584 0
M  V30 793 H 73.0891 -2.35652 2.08124 0
M  V30 794 N 76.8612 -1.46375 0.584142 0
M  V30 795 C 78.0862 -2.07268 0.0740405 0
M  V30 796 C 78.5112 -1.42979 -1.22223 0
M  V30 797 O 77.8692 -0.514092 -1.73859 0
M  V30 798 C 77.9172 -3.60518 -0.0767769 0
M  V30 799 O 77.0212 -3.96533 -1.13292 0
M  V30 800 H 76.3622 -0.660961 0.0634524 0
M  V30 801 H 78.8922 -1.87991 0.807492 0
M  V30 802 H 78.9022 -4.07021 -0.282489 0
M  V30 803 H 77.5772 -4.06702 0.86986 0
M  V30 804 H 76.1542 -3.61738 -0.905553 0
M  V30 805 N 78.3393 -0.321999 -1.54275 0
M  V30 806 C 79.5873 0.280489 -2.00144 0
M  V30 807 C 79.9083 1.52777 -1.21178 0
M  V30 808 O 79.1783 1.9338 -0.313187 0
M  V30 809 H 77.7583 0.106632 -0.73935 0
M  V30 810 H 80.4203 -0.438184 -1.8991 0
M  V30 811 H 79.5163 0.537972 -3.07428 0
M  V30 812 N 79.8174 1.5752 -0.0501392 0
M  V30 813 C 80.7644 2.1147 0.924603 0
M  V30 814 C 81.7344 1.02182 1.30951 0
M  V30 815 O 82.9194 1.29723 1.39916 0
M  V30 816 C 80.0594 2.66337 2.19451 0
M  V30 817 C 79.1724 3.89708 1.86418 0
M  V30 818 C 78.3074 4.32893 3.07859 0
M  V30 819 C 77.3464 5.48967 2.70742 0
M  V30 820 N 76.4834 5.87211 3.84874 0
M  V30 821 H 81.3234 2.94465 0.457639 0
M  V30 822 H 78.8604 1.45531 0.214266 0
M  V30 823 H 80.8184 2.96247 2.93758 0
M  V30 824 H 79.4484 1.86141 2.63726 0
M  V30 825 H 78.5004 3.66396 1.02264 0
M  V30 826 H 79.8124 4.74074 1.55096 0
M  V30 827 H 78.9664 4.6435 3.90466 0
M  V30 828 H 77.7054 3.47336 3.42358 0
M  V30 829 H 76.7104 5.17183 1.86551 0
M  V30 830 H 77.9354 6.3624 2.37436 0
M  V30 831 H 75.8814 5.04607 4.19175 0
M  V30 832 H 75.7984 6.66266 3.57247 0
M  V30 833 H 77.0664 6.23282 4.68123 0
M  V30 834 N 81.2955 -0.223234 1.56011 0
M  V30 835 C 82.2275 -1.30006 1.88762 0
M  V30 836 C 83.2405 -1.43129 0.775746 0
M  V30 837 O 84.4295 -1.44057 1.05403 0
M  V30 838 C 81.5295 -2.67589 2.07965 0
M  V30 839 C 80.7025 -2.76434 3.38973 0
M  V30 840 C 79.7615 -3.95019 3.47629 0
M  V30 841 O 78.7875 -3.83436 4.20672 0
M  V30 842 N 79.9895 -5.09249 2.78649 0
M  V30 843 H 82.7545 -1.02238 2.81722 0
M  V30 844 H 80.3155 -0.413278 1.56536 0
M  V30 845 H 82.3075 -3.45297 2.11073 0
M  V30 846 H 80.8775 -2.87964 1.21638 0
M  V30 847 H 80.0975 -1.85216 3.47978 0
M  V30 848 H 81.3855 -2.79313 4.25278 0
M  V30 849 H 80.7835 -5.21556 2.19081 0
M  V30 850 H 79.3405 -5.85007 2.8742 0
M  V30 851 N 82.7736 -1.49793 -0.48987 0
M  V30 852 C 84.0226 -1.59085 -1.23995 0
M  V30 853 C 84.3356 -0.287907 -1.9347 0
M  V30 854 O 85.5416 -0.259506 -2.70257 0
M  V30 855 C 83.9976 -2.80736 -2.252 0
M  V30 856 C 83.6056 -4.17833 -1.61614 0
M  V30 857 C 85.3496 -2.99364 -3.00967 0
M  V30 858 C 83.2566 -5.30693 -2.60996 0
M  V30 859 H 82.1866 -0.592372 -0.466488 0
M  V30 860 H 84.8376 -1.76197 -0.51252 0
M  V30 861 H 83.2196 -2.57142 -3.01154 0
M  V30 862 H 84.3936 -4.51608 -0.915774 0
M  V30 863 H 82.7086 -4.04656 -0.981977 0
M  V30 864 H 85.3056 -3.80851 -3.75308 0
M  V30 865 H 85.6486 -2.10356 -3.59244 0
M  V30 866 H 86.1816 -3.2305 -2.32128 0
M  V30 867 H 82.9206 -6.21796 -2.07485 0
M  V30 868 H 82.4406 -5.01359 -3.2924 0
M  V30 869 H 84.1196 -5.6049 -3.23202 0
M  V30 870 N 84.2517 0.741722 -1.39055 0
M  V30 871 C 85.4797 1.53098 -1.39171 0
M  V30 872 C 85.8947 1.88794 0.0155099 0
M  V30 873 O 85.2517 1.53626 0.985159 0
M  V30 874 C 85.3027 2.82274 -2.2584 0
M  V30 875 O 85.0237 2.48097 -3.61081 0
M  V30 876 C 86.5247 3.76343 -2.34266 0
M  V30 877 H 83.7447 0.473335 -0.4756 0
M  V30 878 H 86.2887 0.917045 -1.82785 0
M  V30 879 H 84.4437 3.40015 -1.85656 0
M  V30 880 H 84.8577 3.31029 -4.06842 0
M  V30 881 H 86.3317 4.63898 -2.9917 0
M  V30 882 H 86.8087 4.17619 -1.35982 0
M  V30 883 H 87.4147 3.24523 -2.74891 0
M  V30 884 N 85.7298 1.2412 0.971189 0
M  V30 885 C 86.6618 0.988349 2.06795 0
M  V30 886 C 87.6748 -0.0409541 1.62748 0
M  V30 887 O 88.8638 0.195673 1.77424 0
M  V30 888 C 85.9638 0.469023 3.35639 0
M  V30 889 C 85.1368 1.56065 4.08611 0
M  V30 890 C 84.1958 1.04458 5.15728 0
M  V30 891 O 83.2218 1.73553 5.42096 0
M  V30 892 N 84.4238 -0.122817 5.8037 0
M  V30 893 H 87.1888 1.93265 2.29061 0
M  V30 894 H 84.7498 1.15102 1.13856 0
M  V30 895 H 86.7418 0.108613 4.04554 0
M  V30 896 H 85.3118 -0.380919 3.1027 0
M  V30 897 H 84.5318 2.09341 3.34021 0
M  V30 898 H 85.8198 2.29449 4.54126 0
M  V30 899 H 85.2178 -0.700563 5.61345 0
M  V30 900 H 83.7748 -0.424404 6.50417 0
M  V30 901 N 87.2079 -1.17134 1.05439 0
M  V30 902 C 88.1179 -2.24878 0.668365 0
M  V30 903 C 89.1339 -1.71186 -0.311687 0
M  V30 904 O 90.3099 -2.00738 -0.163161 0
M  V30 905 C 87.3749 -3.46662 0.051648 0
M  V30 906 C 86.4359 -4.15429 1.08246 0
M  V30 907 C 85.6689 -5.31399 0.495082 0
M  V30 908 O 85.8919 -5.66153 -0.694743 0
M  V30 909 O 84.8259 -5.89187 1.23056 0
M  V30 910 H 88.6519 -2.60189 1.56637 0
M  V30 911 H 86.2369 -1.24482 0.826104 0
M  V30 912 H 88.1189 -4.20394 -0.290966 0
M  V30 913 H 86.7939 -3.13142 -0.819971 0
M  V30 914 H 85.7009 -3.43704 1.47711 0
M  V30 915 H 87.0339 -4.52982 1.92532 0
M  V30 916 N 88.686 -0.835752 -1.33615 0
M  V30 917 C 89.935 -0.426289 -1.97144 0
M  V30 918 C 90.248 1.01912 -1.66953 0
M  V30 919 O 91.454 1.53311 -2.24072 0
M  V30 920 C 89.91 -0.711321 -3.52801 0
M  V30 921 C 89.518 -2.1712 -3.91871 0
M  V30 922 C 91.262 -0.368654 -4.22896 0
M  V30 923 C 89.169 -2.40044 -5.40493 0
M  V30 924 H 88.099 -0.15567 -0.737755 0
M  V30 925 H 90.75 -1.0239 -1.52278 0
M  V30 926 H 89.132 -0.0433766 -3.95976 0
M  V30 927 H 90.306 -2.87936 -3.59763 0
M  V30 928 H 88.621 -2.47654 -3.34749 0
M  V30 929 H 91.218 -0.517601 -5.32189 0
M  V30 930 H 91.561 0.688078 -4.10574 0
M  V30 931 H 92.094 -0.991702 -3.8524 0
M  V30 932 H 88.833 -3.44271 -5.57815 0
M  V30 933 H 88.353 -1.73785 -5.74072 0
M  V30 934 H 90.032 -2.23042 -6.0734 0
M  V30 935 N 90.1641 1.46063 -0.591896 0
M  V30 936 C 91.0961 2.28539 0.174001 0
M  V30 937 C 92.1091 1.39047 0.846753 0
M  V30 938 O 93.2981 1.63564 0.714774 0
M  V30 939 C 90.3981 3.14347 1.26645 0
M  V30 940 C 89.5711 4.32021 0.683856 0
M  V30 941 C 88.6301 4.99157 1.66518 0
M  V30 942 O 87.6561 5.56458 1.19763 0
M  V30 943 N 88.8581 4.97005 2.99943 0
M  V30 944 H 91.6231 2.94911 -0.533633 0
M  V30 945 H 89.1841 1.56077 -0.430294 0
M  V30 946 H 91.1761 3.56125 1.92242 0
M  V30 947 H 89.7461 2.49988 1.87682 0
M  V30 948 H 88.9661 3.93915 -0.1498 0
M  V30 949 H 90.2541 5.08059 0.274567 0
M  V30 950 H 89.6521 4.51714 3.40545 0
M  V30 951 H 88.2091 5.42696 3.61004 0
M  V30 952 N 91.6422 0.330177 1.54103 0
M  V30 953 C 92.9192 -0.325007 1.92881 0
M  V30 954 C 93.2992 -1.6934 1.26045 0
M  V30 955 O 92.6472 -2.24855 0.406526 0
M  V30 956 C 92.8572 -0.410634 3.46576 0
M  V30 957 C 94.2052 -0.667801 4.19316 0
M  V30 958 O 95.2292 -0.49329 3.52768 0
M  V30 959 O 94.0882 -1.00491 5.37181 0
M  V30 960 H 91.1822 -0.186873 0.80561 0
M  V30 961 H 93.7282 0.380376 1.65382 0
M  V30 962 H 92.5002 0.550164 3.87413 0
M  V30 963 H 92.1232 -1.16333 3.802 0
M  V30 964 N 93.1203 -1.57491 0.0584922 0
M  V30 965 C 94.0523 -2.08916 -0.942694 0
M  V30 966 C 95.0653 -1.0185 -1.27006 0
M  V30 967 O 96.2543 -1.29398 -1.22957 0
M  V30 968 C 93.3543 -2.52341 -2.26224 0
M  V30 969 C 92.5273 -3.82827 -2.1157 0
M  V30 970 C 91.5863 -4.12487 -3.26712 0
M  V30 971 O 90.6123 -4.82295 -3.02292 0
M  V30 972 N 91.8143 -3.64978 -4.5141 0
M  V30 973 H 94.5793 -2.95437 -0.503722 0
M  V30 974 H 92.1403 -1.61397 -0.12757 0
M  V30 975 H 94.1323 -2.69254 -3.02133 0
M  V30 976 H 92.7023 -1.7103 -2.61663 0
M  V30 977 H 91.9223 -3.75425 -1.20208 0
M  V30 978 H 93.2103 -4.68263 -1.99015 0
M  V30 979 H 92.6083 -3.08558 -4.7414 0
M  V30 980 H 91.1653 -3.87115 -5.2439 0
M  V30 981 N 94.5984 0.214957 -1.56127 0
M  V30 982 C 95.8474 0.936451 -1.78643 0
M  V30 983 C 96.1604 1.85237 -0.628229 0
M  V30 984 O 97.3664 2.613 -0.737186 0
M  V30 985 C 95.8224 1.7154 -3.16389 0
M  V30 986 C 95.4304 0.845299 -4.39953 0
M  V30 987 C 97.1744 2.42772 -3.48227 0
M  V30 988 C 95.0814 1.62198 -5.68723 0
M  V30 989 H 94.0114 0.353401 -0.666051 0
M  V30 990 H 96.6624 0.190169 -1.82512 0
M  V30 991 H 95.0444 2.50484 -3.06715 0
M  V30 992 H 96.2184 0.0959353 -4.607 0
M  V30 993 H 94.5334 0.244789 -4.1568 0
M  V30 994 H 97.1304 3.01394 -4.41663 0
M  V30 995 H 97.4734 3.15984 -2.71035 0
M  V30 996 H 98.0064 1.70813 -3.5926 0
M  V30 997 H 94.7454 0.933011 -6.48826 0
M  V30 998 H 94.2654 2.34579 -5.52026 0
M  V30 999 H 95.9444 2.18095 -6.09133 0
M  V30 1000 N 96.0765 1.50051 0.48192 0
M  V30 1001 C 97.3235 1.60498 1.23477 0
M  V30 1002 C 97.6515 0.300331 1.92167 0
M  V30 1003 O 96.9065 -0.713094 1.82246 0
M  V30 1004 C 97.2055 2.72717 2.30998 0
M  V30 1005 C 96.8715 4.13572 1.79636 0
M  V30 1006 C 95.5335 4.519 1.65348 0
M  V30 1007 C 97.8855 5.01649 1.41412 0
M  V30 1008 C 95.2135 5.76057 1.11244 0
M  V30 1009 C 97.5655 6.26343 0.887538 0
M  V30 1010 C 96.2295 6.63483 0.731207 0
M  V30 1011 H 95.4995 0.587303 0.451836 0
M  V30 1012 H 98.1465 1.83948 0.532468 0
M  V30 1013 H 96.4515 2.43312 3.07094 0
M  V30 1014 H 98.1485 2.78006 2.88988 0
M  V30 1015 H 94.7385 3.83329 1.91721 0
M  V30 1016 H 98.9225 4.72679 1.51289 0
M  V30 1017 H 94.1785 6.03516 0.978686 0
M  V30 1018 H 98.3525 6.93958 0.582654 0
M  V30 1019 H 95.9795 7.59568 0.309806 0
M  V30 1020 N 97.5546 -0.734337 1.39446 0
M  V30 1021 C 98.4646 -1.87879 1.40495 0
M  V30 1022 C 99.4806 -1.714 0.299672 0
M  V30 1023 O 100.657 -1.93991 0.541249 0
M  V30 1024 C 97.7216 -3.23477 1.24754 0
M  V30 1025 C 96.7826 -3.52344 2.45259 0
M  V30 1026 C 96.0156 -4.81473 2.30259 0
M  V30 1027 O 96.2386 -5.55237 1.30643 0
M  V30 1028 O 95.1726 -5.10254 3.19256 0
M  V30 1029 H 98.9986 -1.89949 2.36966 0
M  V30 1030 H 96.5836 -0.882243 1.20569 0
M  V30 1031 H 98.4656 -4.04509 1.18111 0
M  V30 1032 H 97.1406 -3.22176 0.313781 0
M  V30 1033 H 96.0476 -2.71396 2.57478 0
M  V30 1034 H 97.3806 -3.58426 3.37331 0
M  V30 1035 N 99.0327 -1.24633 -0.964593 0
M  V30 1036 C 99.9957 -1.0424 -2.04124 0
M  V30 1037 C 100.996 0.00137563 -1.608 0
M  V30 1038 O 102.186 -0.239883 -1.7254 0
M  V30 1039 C 99.3177 -0.580588 -3.3592 0
M  V30 1040 H 100.511 -1.99803 -2.23649 0
M  V30 1041 H 98.0637 -1.06899 -1.14027 0
M  V30 1042 H 98.7987 0.3781 -3.22088 0
M  V30 1043 H 98.5837 -1.33398 -3.6871 0
M  V30 1044 H 100.074 -0.459034 -4.15069 0
M  V30 1045 N 100.511 1.16574 -1.06058 0
M  V30 1046 C 101.76 1.86385 -0.770944 0
M  V30 1047 C 102.073 1.82448 0.705129 0
M  V30 1048 O 103.279 2.47815 1.10905 0
M  V30 1049 C 101.735 3.34466 -1.32893 0
M  V30 1050 C 101.343 3.46883 -2.83507 0
M  V30 1051 C 103.087 4.09548 -1.11672 0
M  V30 1052 C 100.994 4.89036 -3.32562 0
M  V30 1053 H 99.9238 0.698181 -0.284709 0
M  V30 1054 H 102.575 1.31583 -1.27899 0
M  V30 1055 H 100.957 3.88859 -0.748662 0
M  V30 1056 H 102.131 3.02663 -3.47465 0
M  V30 1057 H 100.446 2.85232 -3.03368 0
M  V30 1058 H 103.043 5.14434 -1.45814 0
M  V30 1059 H 103.386 4.16264 -0.0549535 0
M  V30 1060 H 103.919 3.61387 -1.66265 0
M  V30 1061 H 100.658 4.87499 -4.38207 0
M  V30 1062 H 100.178 5.3389 -2.73351 0
M  V30 1063 H 101.857 5.57843 -3.2775 0
M  V30 1064 N 101.989 0.842826 1.3317 0
M  V30 1065 C 103.217 0.454055 2.01856 0
M  V30 1066 C 103.632 -0.94587 1.63397 0
M  V30 1067 O 102.989 -1.61534 0.849302 0
M  V30 1068 C 103.04 0.569715 3.56982 0
M  V30 1069 O 102.761 1.91448 3.94055 0
M  V30 1070 C 104.262 0.178412 4.42941 0
M  V30 1071 H 101.482 0.17979 0.646465 0
M  V30 1072 H 104.026 1.1365 1.70012 0
M  V30 1073 H 102.181 -0.0648587 3.87346 0
M  V30 1074 H 102.595 1.90282 4.88767 0
M  V30 1075 H 104.069 0.310376 5.51127 0
M  V30 1076 H 104.546 -0.880056 4.30293 0
M  V30 1077 H 105.152 0.787579 4.17944 0
M  V30 1078 N 103.467 -1.45747 0.599634 0
M  V30 1079 C 104.713 -2.03153 0.100263 0
M  V30 1080 C 105.068 -1.46073 -1.25221 0
M  V30 1081 O 104.361 -0.622878 -1.81193 0
M  V30 1082 C 104.555 -3.57399 -0.00602758 0
M  V30 1083 C 104.384 -4.2944 1.3346 0
M  V30 1084 C 103.154 -4.6768 1.91321 0
M  V30 1085 C 105.352 -4.61905 2.2616 0
M  V30 1086 N 103.334 -5.24544 3.18946 0
M  V30 1087 C 104.705 -5.19518 3.3838 0
M  V30 1088 C 106.76 -4.43841 2.25631 0
M  V30 1089 C 105.463 -5.60972 4.50226 0
M  V30 1090 C 107.489 -4.86322 3.36518 0
M  V30 1091 C 106.851 -5.44021 4.4746 0
M  V30 1092 H 102.95 -0.777911 0.0798696 0
M  V30 1093 H 105.534 -1.77674 0.796244 0
M  V30 1094 H 103.705 -3.82556 -0.671212 0
M  V30 1095 H 105.437 -4.01457 -0.51133 0
M  V30 1096 H 102.192 -4.5098 1.44617 0
M  V30 1097 H 102.616 -5.57483 3.84112 0
M  V30 1098 H 107.258 -3.98552 1.41123 0
M  V30 1099 H 104.976 -6.0523 5.35464 0
M  V30 1100 H 108.562 -4.74084 3.37247 0
M  V30 1101 H 107.442 -5.76289 5.31846 0
M  V30 1102 N 104.945 -0.338344 -1.53925 0
M  V30 1103 C 105.875 0.51328 -2.27789 0
M  V30 1104 C 106.856 1.107 -1.29149 0
M  V30 1105 O 108.041 1.12937 -1.57984 0
M  V30 1106 C 105.171 1.66697 -3.04679 0
M  V30 1107 C 104.125 1.20183 -4.1078 0
M  V30 1108 C 103.451 2.44363 -4.75595 0
M  V30 1109 C 104.751 0.30605 -5.21403 0
M  V30 1110 H 106.445 -0.102883 -2.99223 0
M  V30 1111 H 103.991 -0.0509219 -1.4391 0
M  V30 1112 H 105.944 2.26915 -3.55088 0
M  V30 1113 H 104.668 2.30995 -2.30887 0
M  V30 1114 H 103.327 0.622499 -3.61276 0
M  V30 1115 H 102.975 3.07057 -3.98403 0
M  V30 1116 H 102.675 2.13925 -5.47275 0
M  V30 1117 H 104.199 3.05317 -5.28786 0
M  V30 1118 H 105.613 0.814929 -5.67478 0
M  V30 1119 H 104.01 0.0937929 -6.00027 0
M  V30 1120 H 105.08 -0.65921 -4.80398 0
M  V30 1121 N 106.423 1.57458 -0.0668435 0
M  V30 1122 C 107.333 2.15937 0.916975 0
M  V30 1123 C 108.349 1.12123 1.33058 0
M  V30 1124 O 109.525 1.44366 1.40429 0
M  V30 1125 C 106.59 2.70547 2.16807 0
M  V30 1126 C 105.651 3.89215 1.81135 0
M  V30 1127 C 104.884 4.41211 3.0028 0
M  V30 1128 O 105.107 3.92225 4.14144 0
M  V30 1129 O 104.041 5.32605 2.80384 0
M  V30 1130 H 107.867 3.00354 0.449561 0
M  V30 1131 H 105.452 1.48584 0.155949 0
M  V30 1132 H 107.334 3.0557 2.90181 0
M  V30 1133 H 106.009 1.89192 2.62656 0
M  V30 1134 H 104.916 3.59054 1.05028 0
M  V30 1135 H 106.249 4.71848 1.40073 0
M  V30 1136 N 107.901 -0.206675 1.56239 0
M  V30 1137 C 108.811 -1.27686 1.96808 0
M  V30 1138 C 109.827 -1.50455 0.874035 0
M  V30 1139 O 111.003 -1.63295 1.17884 0
M  V30 1140 C 108.068 -2.60358 2.28942 0
M  V30 1141 C 107.129 -2.45762 3.51994 0
M  V30 1142 C 106.362 -3.72108 3.82585 0
M  V30 1143 O 106.585 -4.75776 3.14631 0
M  V30 1144 O 105.519 -3.6833 4.76043 0
M  V30 1145 H 109.345 -0.962593 2.88041 0
M  V30 1146 H 106.93 -0.410746 1.43643 0
M  V30 1147 H 108.812 -3.38687 2.50737 0
M  V30 1148 H 107.487 -2.91435 1.4088 0
M  V30 1149 H 106.394 -1.65584 3.35459 0
M  V30 1150 H 107.727 -2.19621 4.40486 0
M  V30 1151 N 109.379 -1.50304 -0.473955 0
M  V30 1152 C 110.309 -1.71886 -1.58042 0
M  V30 1153 C 111.29 -0.567799 -1.60344 0
M  V30 1154 O 112.475 -0.806623 -1.76656 0
M  V30 1155 C 109.605 -1.81036 -2.96384 0
M  V30 1156 C 108.559 -2.962 -3.08949 0
M  V30 1157 C 107.885 -2.9049 -4.48909 0
M  V30 1158 C 109.185 -4.36752 -2.86434 0
M  V30 1159 H 110.879 -2.64527 -1.40234 0
M  V30 1160 H 108.425 -1.27295 -0.673201 0
M  V30 1161 H 110.378 -1.94719 -3.73714 0
M  V30 1162 H 109.102 -0.850147 -3.15341 0
M  V30 1163 H 107.761 -2.82164 -2.3405 0
M  V30 1164 H 107.409 -1.92321 -4.64781 0
M  V30 1165 H 107.109 -3.67802 -4.58253 0
M  V30 1166 H 108.633 -3.06218 -5.28264 0
M  V30 1167 H 110.047 -4.5133 -3.53517 0
M  V30 1168 H 108.444 -5.15493 -3.07225 0
M  V30 1169 H 109.514 -4.49321 -1.82316 0
M  V30 1170 N 110.857 0.726932 -1.39834 0
M  V30 1171 C 111.805 1.86235 -1.39353 0
M  V30 1172 C 112.799 1.67144 -0.275555 0
M  V30 1173 O 114.005 1.74387 -0.44601 0
M  V30 1174 H 110.38 0.613174 -0.43534 0
M  V30 1175 H 112.351 1.83756 -2.35109 0
M  V30 1176 C 111.1 3.23995 -1.26185 0
M  V30 1177 H 110.423 3.39285 -2.11484 0
M  V30 1178 H 111.863 4.03609 -1.29907 0
M  V30 1179 C 110.322 3.36888 0.0290018 0
M  V30 1180 O 110.852 3.89152 0.99619 0
M  V30 1181 N 109.058 2.90446 0.0947437 0
M  V30 1182 H 108.605 2.48102 -0.693035 0
M  V30 1183 H 108.563 2.99451 0.957932 0
M  V30 1184 N 112.336 1.25143 0.95797 0
M  V30 1185 C 113.584 1.09476 1.69881 0
M  V30 1186 C 113.905 -0.365502 1.91544 0
M  V30 1187 O 113.175 -1.25985 1.50015 0
M  V30 1188 H 111.755 0.402128 0.629525 0
M  V30 1189 H 114.417 1.57214 1.15194 0
M  V30 1190 H 113.513 1.60046 2.6794 0
M  V30 1191 N 113.814 -1.1601 1.06675 0
M  V30 1192 C 114.761 -2.20525 0.680967 0
M  V30 1193 C 115.731 -1.62904 -0.324283 0
M  V30 1194 O 116.916 -1.89615 -0.212294 0
M  V30 1195 C 114.056 -3.45013 0.0776551 0
M  V30 1196 C 113.169 -4.16863 1.13355 0
M  V30 1197 C 112.304 -5.2888 0.49597 0
M  V30 1198 C 111.343 -5.92537 1.53513 0
M  V30 1199 N 110.48 -6.96038 0.920631 0
M  V30 1200 H 115.32 -2.52876 1.57663 0
M  V30 1201 H 112.857 -1.24199 0.788223 0
M  V30 1202 H 114.815 -4.16193 -0.289704 0
M  V30 1203 H 113.445 -3.132 -0.781393 0
M  V30 1204 H 112.497 -3.44248 1.61857 0
M  V30 1205 H 113.809 -4.60294 1.92174 0
M  V30 1206 H 112.963 -6.06653 0.0758604 0
M  V30 1207 H 111.702 -4.86622 -0.324062 0
M  V30 1208 H 110.707 -5.13482 1.9651 0
M  V30 1209 H 111.932 -6.36873 2.35733 0
M  V30 1210 H 109.878 -6.55888 0.12138 0
M  V30 1211 H 109.795 -7.3786 1.64616 0
M  V30 1212 H 111.063 -7.77725 0.525795 0
M  V30 1213 N 115.292 -0.849877 -1.32721 0
M  V30 1214 C 116.239 -0.289033 -2.28983 0
M  V30 1215 C 117.209 0.601324 -1.54833 0
M  V30 1216 O 118.394 0.537253 -1.8308 0
M  V30 1217 C 115.534 0.520623 -3.4115 0
M  V30 1218 C 114.647 -0.394989 -4.3019 0
M  V30 1219 C 113.782 0.426834 -5.29482 0
M  V30 1220 C 112.821 -0.486476 -6.10164 0
M  V30 1221 N 111.958 0.297879 -7.01468 0
M  V30 1222 H 116.798 -1.11519 -2.76347 0
M  V30 1223 H 114.335 -0.56138 -1.35967 0
M  V30 1224 H 116.293 1.00563 -4.04899 0
M  V30 1225 H 114.923 1.31165 -2.9495 0
M  V30 1226 H 113.975 -0.99836 -3.67065 0
M  V30 1227 H 115.287 -1.09612 -4.86607 0
M  V30 1228 H 114.441 0.975205 -5.98811 0
M  V30 1229 H 113.18 1.16136 -4.73671 0
M  V30 1230 H 112.185 -1.04677 -5.39743 0
M  V30 1231 H 113.41 -1.21953 -6.6806 0
M  V30 1232 H 111.356 1.01558 -6.48091 0
M  V30 1233 H 111.273 -0.344318 -7.55216 0
M  V30 1234 H 112.541 0.828131 -7.75089 0
M  V30 1235 N 116.77 1.45427 -0.607355 0
M  V30 1236 C 118.017 2.02241 -0.102455 0
M  V30 1237 C 118.345 1.4758 1.26691 0
M  V30 1238 O 117.6 0.640468 1.84923 0
M  V30 1239 C 117.899 3.57398 -0.0129263 0
M  V30 1240 C 117.565 4.3121 -1.31792 0
M  V30 1241 C 116.227 4.51092 -1.67539 0
M  V30 1242 C 118.579 4.73401 -2.18039 0
M  V30 1243 C 115.907 5.10422 -2.89285 0
M  V30 1244 C 118.259 5.34078 -3.39034 0
M  V30 1245 C 116.923 5.52184 -3.75033 0
M  V30 1246 H 116.193 0.740051 -0.037491 0
M  V30 1247 H 118.84 1.74494 -0.788926 0
M  V30 1248 H 117.145 3.84421 0.756806 0
M  V30 1249 H 118.842 3.99061 0.393881 0
M  V30 1250 H 115.432 4.16047 -1.02968 0
M  V30 1251 H 119.616 4.57774 -1.91721 0
M  V30 1252 H 114.872 5.22629 -3.17283 0
M  V30 1253 H 119.046 5.65724 -4.06115 0
M  V30 1254 H 116.673 5.97925 -4.69457 0
M  V30 1255 N 118.248 0.346503 1.53744 0
M  V30 1256 C 119.496 -0.248612 2.00565 0
M  V30 1257 C 119.817 -1.5083 1.23593 0
M  V30 1258 O 119.087 -1.92858 0.343912 0
M  V30 1259 H 117.667 -0.0948564 0.740953 0
M  V30 1260 H 120.329 0.468341 1.89189 0
M  V30 1261 H 119.425 -0.488994 3.08245 0
M  V30 1262 N 119.726 -1.57421 0.075193 0
M  V30 1263 C 121.003 -1.85029 -0.634329 0
M  V30 1264 C 121.383 -0.968305 -1.87582 0
M  V30 1265 O 120.731 -0.0354749 -2.28472 0
M  V30 1266 C 120.941 -3.35286 -0.968742 0
M  V30 1267 C 122.289 -4.02875 -1.34077 0
M  V30 1268 O 123.313 -3.40051 -1.06037 0
M  V30 1269 O 122.172 -5.13691 -1.86506 0
M  V30 1270 H 119.266 -0.7645 -0.315387 0
M  V30 1271 H 121.812 -1.69366 0.106382 0
M  V30 1272 H 120.584 -3.91203 -0.0871376 0
M  V30 1273 H 120.207 -3.56223 -1.7661 0
M  V30 1274 N 121.204 0.198386 -1.56346 0
M  V30 1275 C 122.432 0.935572 -1.84539 0
M  V30 1276 C 122.847 1.76989 -0.657281 0
M  V30 1277 O 122.204 1.78626 0.374043 0
M  V30 1278 C 122.255 1.8344 -3.11499 0
M  V30 1279 O 121.976 1.03377 -4.25728 0
M  V30 1280 C 123.477 2.68355 -3.52846 0
M  V30 1281 H 120.697 0.273126 -0.612897 0
M  V30 1282 H 123.241 0.20663 -2.03453 0
M  V30 1283 H 121.396 2.51701 -2.94492 0
M  V30 1284 H 121.81 1.64599 -4.98003 0
M  V30 1285 H 123.284 3.27085 -4.44657 0
M  V30 1286 H 123.761 3.41901 -2.75681 0
M  V30 1287 H 124.367 2.05471 -3.72373 0
M  V30 1288 N 122.682 1.50554 0.465978 0
M  V30 1289 C 123.592 1.72585 1.58907 0
M  V30 1290 C 124.608 0.60911 1.6299 0
M  V30 1291 O 125.784 0.88804 1.80765 0
M  V30 1292 C 122.849 1.81995 2.95091 0
M  V30 1293 C 121.91 3.05751 3.01355 0
M  V30 1294 C 121.143 3.14702 4.31043 0
M  V30 1295 O 121.366 2.30313 5.21835 0
M  V30 1296 O 120.3 4.07468 4.43005 0
M  V30 1297 H 124.126 2.67799 1.43239 0
M  V30 1298 H 121.711 1.34711 0.646013 0
M  V30 1299 H 123.593 1.90335 3.75966 0
M  V30 1300 H 122.268 0.899659 3.10947 0
M  V30 1301 H 121.175 3.02908 2.19539 0
M  V30 1302 H 122.508 3.97375 2.90437 0
M  V30 1303 N 124.16 -0.719506 1.40217 0
M  V30 1304 C 125.437 -1.47221 1.28784 0
M  V30 1305 C 125.817 -2.10883 -0.0956067 0
M  V30 1306 O 125.165 -1.99833 -1.10811 0
M  V30 1307 C 125.375 -2.5111 2.42373 0
M  V30 1308 C 126.723 -3.17053 2.82423 0
M  V30 1309 O 127.747 -2.61429 2.41937 0
M  V30 1310 O 126.606 -4.17742 3.52355 0
M  V30 1311 H 123.7 -0.654491 0.50554 0
M  V30 1312 H 126.246 -0.752014 1.52128 0
M  V30 1313 H 125.018 -2.02556 3.34793 0
M  V30 1314 H 124.641 -3.3067 2.20778 0
M  V30 1315 N 125.638 -1.25649 -0.95132 0
M  V30 1316 C 127.049 -1.09654 -1.51106 0
M  V30 1317 C 127.4 0.326615 -1.93462 0
M  V30 1318 O 126.525 1.21697 -1.78938 0
M  V30 1319 C 127.12 -1.98437 -2.74605 0
M  V30 1320 C 125.679 -1.86618 -3.2688 0
M  V30 1321 C 124.826 -1.9239 -1.99703 0
M  V30 1322 H 127.777 -1.38887 -0.767865 0
M  V30 1323 H 127.798 -1.5263 -3.48546 0
M  V30 1324 H 127.31 -3.02009 -2.43746 0
M  V30 1325 H 125.411 -0.859421 -3.62553 0
M  V30 1326 H 125.524 -2.71607 -3.94673 0
M  V30 1327 H 123.888 -1.36317 -2.15151 0
M  V30 1328 H 124.671 -2.97573 -1.71188 0
M  V30 1329 N 127.117 1.15442 -1.07289 0
M  V30 1330 C 128.047 2.22312 -0.714107 0
M  V30 1331 C 129.028 1.67467 0.298155 0
M  V30 1332 O 130.213 1.93445 0.171048 0
M  V30 1333 C 127.343 3.47124 -0.110448 0
M  V30 1334 C 126.297 4.14926 -1.04979 0
M  V30 1335 C 125.623 5.33807 -0.308924 0
M  V30 1336 C 126.923 4.64762 -2.38314 0
M  V30 1337 H 128.617 2.5258 -1.6076 0
M  V30 1338 H 126.163 1.21404 -0.77441 0
M  V30 1339 H 128.116 4.21124 0.152482 0
M  V30 1340 H 126.84 3.16187 0.81812 0
M  V30 1341 H 125.499 3.42866 -1.29764 0
M  V30 1342 H 125.147 4.99126 0.623084 0
M  V30 1343 H 124.847 5.80113 -0.935036 0
M  V30 1344 H 126.371 6.10576 -0.0537771 0
M  V30 1345 H 127.785 5.30292 -2.1786 0
M  V30 1346 H 126.182 5.21728 -2.96514 0
M  V30 1347 H 127.252 3.80434 -3.00663 0
M  V30 1348 N 128.595 0.856903 1.32268 0
M  V30 1349 C 129.525 0.31858 2.31316 0
M  V30 1350 C 130.506 -0.583487 1.59779 0
M  V30 1351 O 131.691 -0.503259 1.87566 0
M  V30 1352 C 128.821 -0.491979 3.43798 0
M  V30 1353 C 127.775 0.315849 4.26833 0
M  V30 1354 C 127.101 -0.619586 5.31098 0
M  V30 1355 C 128.401 1.54282 4.98993 0
M  V30 1356 H 130.095 1.14621 2.76591 0
M  V30 1357 H 127.641 0.552613 1.32974 0
M  V30 1358 H 129.594 -0.879012 4.1213 0
M  V30 1359 H 128.318 -1.35299 2.97257 0
M  V30 1360 H 126.977 0.684664 3.6015 0
M  V30 1361 H 126.625 -1.47751 4.8081 0
M  V30 1362 H 126.325 -0.0830621 5.87541 0
M  V30 1363 H 127.849 -1.00375 6.02293 0
M  V30 1364 H 129.263 1.22796 5.59995 0
M  V30 1365 H 127.66 2.01745 5.65172 0
M  V30 1366 H 128.73 2.30285 4.26728 0
M  V30 1367 N 130.073 -1.45103 0.615059 0
M  V30 1368 C 131.319 -2.02483 0.113347 0
M  V30 1369 C 131.652 -1.48146 -1.25564 0
M  V30 1370 O 130.927 -0.659104 -1.82992 0
M  V30 1371 C 131.21 -3.60005 0.0825278 0
M  V30 1372 C 131.063 -4.2466 1.48271 0
M  V30 1373 C 132.382 -4.35972 -0.601401 0
M  V30 1374 H 129.501 -0.735764 0.0426632 0
M  V30 1375 H 132.143 -1.72868 0.788461 0
M  V30 1376 H 130.293 -3.85367 -0.492378 0
M  V30 1377 H 131.965 -4.10458 2.10527 0
M  V30 1378 H 130.208 -3.82772 2.04127 0
M  V30 1379 H 130.879 -5.336 1.41332 0
M  V30 1380 H 133.355 -4.15947 -0.112666 0
M  V30 1381 H 132.231 -5.45697 -0.592097 0
M  V30 1382 H 132.492 -4.09391 -1.66887 0
M  V30 1383 N 131.551 -0.354651 -1.53558 0
M  V30 1384 C 132.776 0.242153 -2.05981 0
M  V30 1385 C 133.201 1.42553 -1.2272 0
M  V30 1386 O 132.559 1.79656 -0.243604 0
M  V30 1387 C 132.607 0.624367 -3.55154 0
M  V30 1388 O 131.711 1.72301 -3.74681 0
M  V30 1389 H 131.052 0.0378432 -0.662921 0
M  V30 1390 H 133.582 -0.512087 -1.98088 0
M  V30 1391 H 133.592 0.898433 -3.97985 0
M  V30 1392 H 132.267 -0.240989 -4.15201 0
M  V30 1393 H 130.844 1.44535 -3.4375 0
M  V30 1394 N 133.029 1.57378 -0.0835403 0
M  V30 1395 C 134.275 1.94217 0.583733 0
M  V30 1396 C 134.608 0.964653 1.68547 0
M  V30 1397 O 133.883 -0.00422258 1.945 0
M  V30 1398 C 134.166 3.41253 1.14972 0
M  V30 1399 C 134.019 4.49768 0.0538277 0
M  V30 1400 C 135.338 3.89352 2.05166 0
M  V30 1401 H 132.457 0.706233 0.210724 0
M  V30 1402 H 135.099 1.89392 -0.1519 0
M  V30 1403 H 133.249 3.45496 1.77665 0
M  V30 1404 H 134.921 4.57641 -0.579851 0
M  V30 1405 H 133.164 4.29432 -0.614068 0
M  V30 1406 H 133.835 5.49817 0.490452 0
M  V30 1407 H 136.311 3.87189 1.52393 0
M  V30 1408 H 135.187 4.92822 2.41698 0
M  V30 1409 H 135.448 3.27973 2.96456 0
M  V30 1410 N 134.507 -0.190092 1.56449 0
M  V30 1411 C 135.923 -0.54113 1.50146 0
M  V30 1412 C 136.123 -1.85603 0.784465 0
M  V30 1413 O 135.179 -2.5024 0.337051 0
M  V30 1414 C 136.492 -0.591241 2.9483 0
M  V30 1415 C 138.04 -0.679732 3.0553 0
M  V30 1416 C 138.515 -0.760908 4.51635 0
M  V30 1417 N 140.006 -0.824302 4.55806 0
M  V30 1418 C 140.741 -0.907365 5.66175 0
M  V30 1419 N 140.237 -0.952422 6.86222 0
M  V30 1420 N 142.03 -0.94494 5.541 0
M  V30 1421 H 134.181 0.67235 2.01478 0
M  V30 1422 H 136.444 0.240127 0.917084 0
M  V30 1423 H 136.15 0.305905 3.50367 0
M  V30 1424 H 136.024 -1.44422 3.48457 0
M  V30 1425 H 138.411 -1.56731 2.50039 0
M  V30 1426 H 138.492 0.199549 2.5502 0
M  V30 1427 H 138.136 0.122336 5.07753 0
M  V30 1428 H 138.066 -1.65606 4.99882 0
M  V30 1429 H 140.557 -0.798526 3.69367 0
M  V30 1430 H 140.87 -1.01645 7.66086 0
M  V30 1431 H 139.215 -0.921014 6.8887 0
M  V30 1432 H 142.406 -0.906612 4.59236 0
M  V30 1433 H 142.579 -1.00622 6.4014 0
M  V30 1434 N 135.985 -1.50799 -0.457987 0
M  V30 1435 C 137.21 -1.66496 -1.23668 0
M  V30 1436 C 137.635 -0.353288 -1.84752 0
M  V30 1437 O 136.993 0.684346 -1.67888 0
M  V30 1438 C 137.041 -2.76763 -2.3116 0
M  V30 1439 O 136.145 -2.38928 -3.36136 0
M  V30 1440 H 135.486 -0.555828 -0.363252 0
M  V30 1441 H 138.016 -1.9725 -0.543474 0
M  V30 1442 H 138.026 -3.00232 -2.76269 0
M  V30 1443 H 136.701 -3.71954 -1.86073 0
M  V30 1444 H 135.278 -2.25953 -2.96647 0
M  V30 1445 N 137.463 0.71206 -1.40597 0
M  V30 1446 C 138.711 1.46907 -1.38791 0
M  V30 1447 C 139.032 1.94998 0.00780391 0
M  V30 1448 O 138.302 1.70587 0.963174 0
M  V30 1449 H 136.882 0.545043 -0.51082 0
M  V30 1450 H 139.544 0.843882 -1.75683 0
M  V30 1451 H 138.64 2.34021 -2.06496 0
M  V30 1452 N 138.941 1.26152 0.944643 0
M  V30 1453 C 139.904 1.07474 2.0244 0
M  V30 1454 C 140.904 0.0242064 1.60782 0
M  V30 1455 O 142.094 0.267302 1.72137 0
M  V30 1456 C 139.226 0.633956 3.34953 0
M  V30 1457 H 140.419 2.03336 2.20442 0
M  V30 1458 H 137.972 1.087 1.12312 0
M  V30 1459 H 138.707 -0.326811 3.22649 0
M  V30 1460 H 138.492 1.39247 3.66542 0
M  V30 1461 H 139.982 0.52501 4.14287 0
M  V30 1462 N 140.419 -1.14872 1.07899 0
M  V30 1463 C 141.835 -1.37776 0.805606 0
M  V30 1464 C 142.035 -1.92743 -0.587555 0
M  V30 1465 O 141.091 -2.13678 -1.34528 0
M  V30 1466 C 142.404 -2.34361 1.88402 0
M  V30 1467 C 143.952 -2.48012 1.90942 0
M  V30 1468 C 144.427 -3.47893 2.97883 0
M  V30 1469 N 145.918 -3.55433 2.97021 0
M  V30 1470 C 146.653 -4.32553 3.76412 0
M  V30 1471 N 146.149 -5.12959 4.65666 0
M  V30 1472 N 147.942 -4.27697 3.64735 0
M  V30 1473 H 140.093 -0.775365 1.97742 0
M  V30 1474 H 142.356 -0.403521 0.857831 0
M  V30 1475 H 142.062 -2.01098 2.88535 0
M  V30 1476 H 141.936 -3.34206 1.74889 0
M  V30 1477 H 144.323 -2.8057 0.914579 0
M  V30 1478 H 144.404 -1.48147 2.08534 0
M  V30 1479 H 144.048 -3.16069 3.97571 0
M  V30 1480 H 143.978 -4.47527 2.77538 0
M  V30 1481 H 146.469 -2.98048 2.32326 0
M  V30 1482 H 146.782 -5.69065 5.22862 0
M  V30 1483 H 145.127 -5.12245 4.69712 0
M  V30 1484 H 148.318 -3.63949 2.94378 0
M  V30 1485 H 148.491 -4.8755 4.26848 0
M  V30 1486 N 141.898 -0.863906 -1.31812 0
M  V30 1487 C 142.861 -0.320212 -2.26952 0
M  V30 1488 C 143.861 0.525369 -1.51975 0
M  V30 1489 O 145.051 0.335547 -1.70938 0
M  V30 1490 C 142.183 0.545919 -3.365 0
M  V30 1491 H 143.376 -1.16004 -2.76556 0
M  V30 1492 H 140.929 -0.638995 -1.42641 0
M  V30 1493 H 141.664 1.40718 -2.92179 0
M  V30 1494 H 141.449 -0.0594674 -3.92055 0
M  V30 1495 H 142.939 0.918796 -4.07367 0
M  V30 1496 N 143.376 1.44774 -0.622745 0
M  V30 1497 C 144.601 2.06999 -0.128968 0
M  V30 1498 C 145.026 1.4617 1.1839 0
M  V30 1499 O 144.384 0.560007 1.72434 0
M  V30 1500 C 144.432 3.60595 -0.0188351 0
M  V30 1501 O 143.536 3.99398 1.02739 0
M  V30 1502 H 142.877 0.659047 -0.0809544 0
M  V30 1503 H 145.407 1.85784 -0.85705 0
M  V30 1504 H 145.417 4.07627 0.174476 0
M  V30 1505 H 144.092 4.04252 -0.977384 0
M  V30 1506 H 142.669 3.64011 0.809326 0
M  V30 1507 N 144.854 0.36279 1.53368 0
M  V30 1508 C 145.787 -0.528507 2.21996 0
M  V30 1509 C 146.765 -1.0852 1.21087 0
M  V30 1510 O 147.949 -1.14186 1.4998 0
M  V30 1511 C 145.076 -1.72893 2.91249 0
M  V30 1512 C 144.122 -1.29994 4.06207 0
M  V30 1513 S 144.955 -0.303575 5.34639 0
M  V30 1514 C 146.111 -1.51039 6.07403 0
M  V30 1515 H 146.344 0.0543423 2.9725 0
M  V30 1516 H 143.877 0.146889 1.537 0
M  V30 1517 H 145.835 -2.41751 3.31763 0
M  V30 1518 H 144.496 -2.28303 2.15724 0
M  V30 1519 H 143.689 -2.19549 4.53667 0
M  V30 1520 H 143.291 -0.690608 3.67569 0
M  V30 1521 H 145.583 -2.44186 6.31965 0
M  V30 1522 H 146.526 -1.07721 6.99858 0
M  V30 1523 H 146.934 -1.71518 5.37812 0
M  V30 1524 N 146.332 -1.57332 0.0918853 0
M  V30 1525 C 147.743 -1.81496 -0.437739 0
M  V30 1526 C 148.094 -1.00727 -1.6837 0
M  V30 1527 O 147.219 -0.235694 -2.15113 0
M  V30 1528 C 147.814 -3.29197 -0.800939 0
M  V30 1529 C 146.373 -3.54136 -1.27532 0
M  V30 1530 C 145.52 -2.75979 -0.270392 0
M  V30 1531 H 148.471 -1.55494 0.317366 0
M  V30 1532 H 148.492 -3.42344 -1.66074 0
M  V30 1533 H 148.004 -3.87955 0.106078 0
M  V30 1534 H 146.105 -3.00705 -2.20016 0
M  V30 1535 H 146.218 -4.62792 -1.23938 0
M  V30 1536 H 144.582 -2.43349 -0.751872 0
M  V30 1537 H 145.365 -3.37484 0.629248 0
M  V30 1538 N 147.81 0.181792 -1.56548 0
M  V30 1539 C 149.058 0.89832 -1.81038 0
M  V30 1540 C 149.379 1.83232 -0.667164 0
M  V30 1541 O 148.649 1.93372 0.313673 0
M  V30 1542 H 147.229 0.33471 -0.667816 0
M  V30 1543 H 149.891 0.184116 -1.94028 0
M  V30 1544 H 148.987 1.4815 -2.74696 0
M  V30 1545 N 149.288 1.51039 0.449983 0
M  V30 1546 C 150.221 1.66105 1.56474 0
M  V30 1547 C 151.199 0.508776 1.54435 0
M  V30 1548 O 152.383 0.731005 1.73749 0
M  V30 1549 C 149.51 1.66304 2.9506 0
M  V30 1550 C 148.556 2.87346 3.15174 0
M  V30 1551 S 149.389 4.4835 2.92818 0
M  V30 1552 C 150.545 4.51274 4.33708 0
M  V30 1553 H 150.778 2.60397 1.43459 0
M  V30 1554 H 148.311 1.40565 0.638805 0
M  V30 1555 H 150.269 1.67103 3.74949 0
M  V30 1556 H 148.93 0.732108 3.05449 0
M  V30 1557 H 148.123 2.83849 4.16468 0
M  V30 1558 H 147.725 2.84223 2.43091 0
M  V30 1559 H 150.017 4.26136 5.26701 0
M  V30 1560 H 150.96 5.53017 4.42242 0
M  V30 1561 H 151.368 3.80738 4.16772 0
M  V30 1562 N 150.766 -0.704594 1.40972 0
M  V30 1563 C 151.699 -1.82861 1.36518 0
M  V30 1564 C 152.677 -1.6091 0.23382 0
M  V30 1565 O 153.861 -1.83778 0.419271 0
M  V30 1566 C 150.988 -3.1939 1.12729 0
M  V30 1567 C 150.034 -3.60148 2.28463 0
M  V30 1568 S 150.867 -3.65994 3.90907 0
M  V30 1569 C 152.023 -5.05264 3.69403 0
M  V30 1570 H 152.256 -1.86361 2.3164 0
M  V30 1571 H 149.789 -0.872439 1.27389 0
M  V30 1572 H 151.747 -3.98211 0.996893 0
M  V30 1573 H 150.408 -3.1351 0.192427 0
M  V30 1574 H 149.601 -4.59309 2.07489 0
M  V30 1575 H 149.203 -2.88612 2.37863 0
M  V30 1576 H 151.495 -5.92504 3.28551 0
M  V30 1577 H 152.438 -5.31278 4.68134 0
M  V30 1578 H 152.846 -4.76377 3.02862 0
M  V30 1579 N 152.244 -1.26651 -0.937939 0
M  V30 1580 C 153.521 -1.0313 -1.66204 0
M  V30 1581 C 153.901 0.437256 -2.06522 0
M  V30 1582 O 153.249 1.41831 -1.79154 0
M  V30 1583 C 153.459 -1.98314 -2.87181 0
M  V30 1584 C 154.807 -2.27107 -3.58758 0
M  V30 1585 O 155.831 -1.96205 -2.97291 0
M  V30 1586 O 154.69 -2.79736 -4.69479 0
M  V30 1587 H 151.784 -0.392384 -0.727986 0
M  V30 1588 H 154.33 -1.37874 -0.989382 0
M  V30 1589 H 153.102 -2.97399 -2.54302 0
M  V30 1590 H 152.725 -1.64068 -3.6217 0
M  V30 1591 N 153.722 1.14298 -1.08507 0
M  V30 1592 C 154.95 1.89219 -0.836876 0
M  V30 1593 C 155.365 1.78638 0.611054 0
M  V30 1594 O 154.722 1.14643 1.41998 0
M  V30 1595 C 154.773 3.39158 -1.25116 0
M  V30 1596 O 154.494 3.49449 -2.64229 0
M  V30 1597 C 155.995 4.31073 -1.03398 0
M  V30 1598 H 153.215 0.599328 -0.301739 0
M  V30 1599 H 155.759 1.44746 -1.44461 0
M  V30 1600 H 153.914 3.81251 -0.687514 0
M  V30 1601 H 154.328 4.42589 -2.81452 0
M  V30 1602 H 155.802 5.34646 -1.37323 0
M  V30 1603 H 156.279 4.3919 0.0289259 0
M  V30 1604 H 156.885 3.94738 -1.58311 0
M  V30 1605 N 155.201 0.870884 1.31352 0
M  V30 1606 C 156.45 0.478408 1.95944 0
M  V30 1607 C 156.763 -0.974493 1.69597 0
M  V30 1608 O 157.969 -1.47316 2.28058 0
M  V30 1609 C 156.425 0.804609 3.50791 0
M  V30 1610 C 156.033 2.27433 3.85977 0
M  V30 1611 C 157.777 0.480648 4.2177 0
M  V30 1612 C 155.684 2.5429 5.33939 0
M  V30 1613 H 154.614 0.175175 0.733369 0
M  V30 1614 H 157.265 1.06391 1.4951 0
M  V30 1615 H 155.647 0.148347 3.95722 0
M  V30 1616 H 156.821 2.97373 3.52002 0
M  V30 1617 H 155.136 2.56442 3.28065 0
M  V30 1618 H 157.733 0.658519 5.30629 0
M  V30 1619 H 158.076 -0.578979 4.12254 0
M  V30 1620 H 158.609 1.09349 3.82476 0
M  V30 1621 H 155.348 3.58939 5.48491 0
M  V30 1622 H 154.868 1.88945 5.69263 0
M  V30 1623 H 156.547 2.39066 6.01212 0
M  V30 1624 N 156.679 -1.44442 0.630414 0
M  V30 1625 C 157.609 -2.33418 -0.0618083 0
M  V30 1626 C 158.59 -1.48165 -0.835541 0
M  V30 1627 O 159.775 -1.76886 -0.801564 0
M  V30 1628 C 156.905 -3.31222 -1.04449 0
M  V30 1629 C 155.859 -4.26288 -0.382436 0
M  V30 1630 C 155.185 -5.13954 -1.47497 0
M  V30 1631 C 156.485 -5.1744 0.710865 0
M  V30 1632 H 158.179 -2.91548 0.681184 0
M  V30 1633 H 155.725 -1.40191 0.329026 0
M  V30 1634 H 157.678 -3.92351 -1.53748 0
M  V30 1635 H 156.402 -2.71299 -1.81836 0
M  V30 1636 H 155.061 -3.6649 0.0899054 0
M  V30 1637 H 154.709 -4.50385 -2.2397 0
M  V30 1638 H 154.409 -5.7837 -1.03737 0
M  V30 1639 H 155.933 -5.77955 -1.96979 0
M  V30 1640 H 157.347 -5.72509 0.300996 0
M  V30 1641 H 155.744 -5.90455 1.07156 0
M  V30 1642 H 156.814 -4.58496 1.57829 0
M  V30 1643 N 158.157 -0.370918 -1.53173 0
M  V30 1644 C 159.105 0.488101 -2.27421 0
M  V30 1645 C 160.099 1.07884 -1.30604 0
M  V30 1646 O 161.305 1.02143 -1.48212 0
M  V30 1647 H 157.68 0.176134 -0.731082 0
M  V30 1648 H 159.651 -0.159815 -2.97972 0
M  V30 1649 C 158.4 1.61306 -3.08019 0
M  V30 1650 H 157.723 1.1678 -3.82364 0
M  V30 1651 H 159.163 2.18872 -3.63141 0
M  V30 1652 C 157.622 2.55848 -2.19188 0
M  V30 1653 O 158.152 3.58799 -1.80626 0
M  V30 1654 N 156.358 2.2516 -1.83715 0
M  V30 1655 H 155.905 1.41476 -2.15273 0
M  V30 1656 H 155.863 2.8867 -1.24567 0
M  V30 1657 N 159.635 1.57281 -0.100228 0
M  V30 1658 C 160.565 2.17328 0.853857 0
M  V30 1659 C 161.546 1.10804 1.2906 0
M  V30 1660 O 162.731 1.38963 1.35657 0
M  V30 1661 C 159.861 2.75772 2.11109 0
M  V30 1662 C 158.815 3.87713 1.81279 0
M  V30 1663 C 158.141 4.32882 3.13874 0
M  V30 1664 C 159.441 5.10677 1.09574 0
M  V30 1665 H 161.135 2.97305 0.353545 0
M  V30 1666 H 158.681 1.43009 0.168612 0
M  V30 1667 H 160.634 3.16433 2.78296 0
M  V30 1668 H 159.358 1.93057 2.63432 0
M  V30 1669 H 158.017 3.476 1.16489 0
M  V30 1670 H 157.665 3.47051 3.64095 0
M  V30 1671 H 157.365 5.08358 2.94696 0
M  V30 1672 H 158.889 4.7618 3.82211 0
M  V30 1673 H 160.303 5.48474 1.66879 0
M  V30 1674 H 158.7 5.91615 1.00557 0
M  V30 1675 H 159.77 4.84835 0.0793299 0
M  V30 1676 N 161.113 -0.173488 1.56642 0
M  V30 1677 C 162.361 -0.888706 1.81512 0
M  V30 1678 C 162.682 -1.82875 0.676872 0
M  V30 1679 O 161.952 -1.93536 -0.303414 0
M  V30 1680 H 160.532 -0.331164 0.669582 0
M  V30 1681 H 163.194 -0.173823 1.94123 0
M  V30 1682 H 162.29 -1.46691 2.75478 0
M  V30 1683 N 162.591 -1.51276 -0.441967 0
M  V30 1684 C 163.521 -1.752 -1.54361 0
M  V30 1685 C 164.502 -0.601682 -1.59103 0
M  V30 1686 O 165.687 -0.843913 -1.74905 0
M  V30 1687 C 162.817 -1.87282 -2.92477 0
M  V30 1688 C 161.771 -3.02687 -3.02596 0
M  V30 1689 C 161.097 -2.99947 -4.42647 0
M  V30 1690 C 162.397 -4.4273 -2.77106 0
M  V30 1691 H 164.091 -2.67442 -1.34592 0
M  V30 1692 H 161.637 -1.28694 -0.646048 0
M  V30 1693 H 163.59 -2.02602 -3.695 0
M  V30 1694 H 162.314 -0.916844 -3.13467 0
M  V30 1695 H 160.973 -2.87065 -2.28012 0
M  V30 1696 H 160.621 -2.02136 -4.60597 0
M  V30 1697 H 160.321 -3.77439 -4.50348 0
M  V30 1698 H 161.845 -3.17354 -5.2165 0
M  V30 1699 H 163.259 -4.58727 -3.43864 0
M  V30 1700 H 161.656 -5.21893 -2.96222 0
M  V30 1701 H 162.726 -4.53087 -1.72744 0
M  V30 1702 N 164.069 0.697108 -1.41344 0
M  V30 1703 C 165.017 1.83237 -1.43272 0
M  V30 1704 C 166.011 1.66522 -0.310947 0
M  V30 1705 O 167.217 1.73402 -0.482899 0
M  V30 1706 H 163.592 0.603802 -0.448249 0
M  V30 1707 H 165.563 1.78727 -2.38954 0
M  V30 1708 C 164.312 3.21245 -1.33029 0
M  V30 1709 H 163.635 3.34723 -2.18633 0
M  V30 1710 H 165.075 4.00763 -1.38439 0
M  V30 1711 C 163.534 3.36873 -0.0424635 0
M  V30 1712 O 164.064 3.91177 0.913421 0
M  V30 1713 N 162.27 2.90581 0.0331145 0
M  V30 1714 H 161.817 2.46577 -0.745506 0
M  V30 1715 H 161.775 3.01416 0.894199 0
M  V30 1716 N 165.547 1.27147 0.931209 0
M  V30 1717 C 166.824 1.0401 1.65654 0
M  V30 1718 C 167.204 -0.426297 2.06751 0
M  V30 1719 O 166.552 -1.40879 1.79904 0
M  V30 1720 C 166.762 1.99834 2.86125 0
M  V30 1721 C 168.11 2.29007 3.57549 0
M  V30 1722 O 169.134 1.97779 2.96246 0
M  V30 1723 O 167.993 2.82222 4.67989 0
M  V30 1724 H 165.087 0.396239 0.725895 0
M  V30 1725 H 167.633 1.38397 0.982056 0
M  V30 1726 H 166.405 2.98744 2.52721 0
M  V30 1727 H 166.028 1.65987 3.61295 0
M  V30 1728 N 167.025 -1.13721 1.09112 0
M  V30 1729 C 168.271 -1.85198 0.826414 0
M  V30 1730 C 168.604 -1.83129 -0.646319 0
M  V30 1731 O 167.879 -1.2671 -1.47563 0
M  V30 1732 C 168.162 -3.33507 1.35812 0
M  V30 1733 C 168.015 -3.44108 2.89672 0
M  V30 1734 C 169.334 -4.28838 0.989256 0
M  V30 1735 H 166.453 -0.67243 0.301675 0
M  V30 1736 H 169.095 -1.33499 1.35197 0
M  V30 1737 H 167.245 -3.77666 0.911082 0
M  V30 1738 H 168.917 -3.08684 3.428 0
M  V30 1739 H 167.16 -2.85087 3.26967 0
M  V30 1740 H 167.831 -4.48388 3.21951 0
M  V30 1741 H 170.307 -3.92734 1.37475 0
M  V30 1742 H 169.183 -5.31051 1.38838 0
M  V30 1743 H 169.444 -4.4198 -0.102924 0
M  V30 1744 N 168.503 -0.877838 -1.30888 0
M  V30 1745 C 169.466 -0.344265 -2.266 0
M  V30 1746 C 170.466 0.50922 -1.52524 0
M  V30 1747 O 171.656 0.317398 -1.71284 0
M  V30 1748 C 168.788 0.510198 -3.37061 0
M  V30 1749 H 169.981 -1.1893 -2.7531 0
M  V30 1750 H 167.534 -0.654088 -1.41956 0
M  V30 1751 H 168.269 1.37612 -2.93655 0
M  V30 1752 H 168.054 -0.101047 -3.9197 0
M  V30 1753 H 169.544 0.875537 -4.08319 0
M  V30 1754 N 169.982 1.44106 -0.638065 0
M  V30 1755 C 171.228 2.02277 -0.145546 0
M  V30 1756 C 171.561 1.50125 1.23191 0
M  V30 1757 O 170.836 0.688133 1.8192 0
M  V30 1758 C 171.119 3.59829 -0.139791 0
M  V30 1759 C 170.972 4.22247 -1.55008 0
M  V30 1760 C 172.291 4.36873 0.531966 0
M  V30 1761 H 169.41 0.734992 -0.0543632 0
M  V30 1762 H 172.052 1.71592 -0.815863 0
M  V30 1763 H 170.202 3.86102 0.431007 0
M  V30 1764 H 171.874 4.07057 -2.1703 0
M  V30 1765 H 170.117 3.79476 -2.10191 0
M  V30 1766 H 170.788 5.31284 -1.49804 0
M  V30 1767 H 173.264 4.16074 0.0464781 0
M  V30 1768 H 172.14 5.4657 0.505206 0
M  V30 1769 H 172.401 4.11995 1.60352 0
M  V30 1770 N 171.46 0.379036 1.52974 0
M  V30 1771 C 172.37 -0.468639 2.29872 0
M  V30 1772 C 173.386 -1.08067 1.36373 0
M  V30 1773 O 174.562 -1.08871 1.69438 0
M  V30 1774 C 171.627 -1.58594 3.083 0
M  V30 1775 C 170.688 -1.00007 4.17489 0
M  V30 1776 C 169.921 -2.06413 4.92168 0
M  V30 1777 O 170.144 -3.27751 4.66835 0
M  V30 1778 O 169.078 -1.68717 5.7777 0
M  V30 1779 H 172.904 0.157508 3.03291 0
M  V30 1780 H 170.489 0.143035 1.48714 0
M  V30 1781 H 172.371 -2.23525 3.57232 0
M  V30 1782 H 171.046 -2.19724 2.37703 0
M  V30 1783 H 169.953 -0.314299 3.72777 0
M  V30 1784 H 171.286 -0.433135 4.90291 0
M  V30 1785 N 172.938 -1.57226 0.108567 0
M  V30 1786 C 174.186 -1.94448 -0.550853 0
M  V30 1787 C 174.507 -0.992074 -1.67878 0
M  V30 1788 O 173.777 -0.0465 -1.95845 0
M  V30 1789 H 172.357 -0.717897 -0.206479 0
M  V30 1790 H 175.019 -1.94112 0.175062 0
M  V30 1791 H 174.115 -2.97218 -0.952259 0
M  V30 1792 N 174.416 0.165178 -1.56732 0
M  V30 1793 C 175.663 0.880807 -1.8234 0
M  V30 1794 C 175.991 1.81977 -0.686621 0
M  V30 1795 O 175.246 1.92971 0.325697 0
M  V30 1796 C 175.545 1.70405 -3.1416 0
M  V30 1797 C 175.211 0.913475 -4.4155 0
M  V30 1798 C 173.873 0.695303 -4.7615 0
M  V30 1799 C 176.225 0.359349 -5.1996 0
M  V30 1800 C 173.553 -0.0879947 -5.86634 0
M  V30 1801 C 175.905 -0.410893 -6.31264 0
M  V30 1802 C 174.569 -0.639808 -6.64427 0
M  V30 1803 H 173.839 0.32231 -0.667231 0
M  V30 1804 H 176.486 0.145402 -1.90947 0
M  V30 1805 H 174.791 2.50903 -3.00923 0
M  V30 1806 H 176.488 2.26091 -3.31186 0
M  V30 1807 H 173.078 1.09357 -4.14414 0
M  V30 1808 H 177.262 0.515228 -4.93618 0
M  V30 1809 H 172.518 -0.27503 -6.10781 0
M  V30 1810 H 176.692 -0.847494 -6.91224 0
M  V30 1811 H 174.319 -1.24864 -7.49875 0
M  V30 1812 N 175.894 1.51508 0.433938 0
M  V30 1813 C 176.857 1.72473 1.50949 0
M  V30 1814 C 177.857 0.594725 1.49398 0
M  V30 1815 O 179.047 0.862315 1.5136 0
M  V30 1816 C 176.179 1.78431 2.90474 0
M  V30 1817 H 177.372 2.68467 1.33662 0
M  V30 1818 H 174.925 1.41549 0.662836 0
M  V30 1819 H 175.66 0.842645 3.13161 0
M  V30 1820 H 175.445 2.60558 2.93005 0
M  V30 1821 H 176.935 1.96479 3.68491 0
M  V30 1822 N 177.372 -0.689602 1.41712 0
M  V30 1823 C 178.319 -1.80345 1.44029 0
M  V30 1824 C 179.289 -1.63478 0.293948 0
M  V30 1825 O 180.474 -1.84244 0.495869 0
M  V30 1826 C 177.614 -3.18272 1.33405 0
M  V30 1827 C 176.727 -3.46529 2.57956 0
M  V30 1828 C 175.862 -4.74103 2.39582 0
M  V30 1829 C 174.901 -4.95347 3.5958 0
M  V30 1830 N 174.038 -6.14151 3.40239 0
M  V30 1831 H 178.878 -1.77698 2.39222 0
M  V30 1832 H 176.415 -0.867688 1.18784 0
M  V30 1833 H 178.373 -3.97956 1.25246 0
M  V30 1834 H 177.003 -3.2008 0.418164 0
M  V30 1835 H 176.055 -2.61207 2.76542 0
M  V30 1836 H 177.367 -3.58126 3.47199 0
M  V30 1837 H 176.521 -5.61853 2.28924 0
M  V30 1838 H 175.26 -4.64763 1.47805 0
M  V30 1839 H 174.265 -4.06044 3.70686 0
M  V30 1840 H 175.49 -5.06542 4.52318 0
M  V30 1841 H 173.436 -6.06013 2.51167 0
M  V30 1842 H 173.353 -6.26543 4.23061 0
M  V30 1843 H 174.621 -7.04619 3.33365 0
M  V30 1844 N 178.85 -1.27639 -0.924453 0
M  V30 1845 C 179.797 -1.10644 -2.0255 0
M  V30 1846 C 180.767 -0.00658438 -1.66099 0
M  V30 1847 O 181.952 -0.16952 -1.90045 0
M  V30 1848 C 179.092 -0.76309 -3.36557 0
M  V30 1849 C 178.205 -1.94091 -3.85944 0
M  V30 1850 C 177.34 -1.53914 -5.08413 0
M  V30 1851 C 176.379 -2.68425 -5.50104 0
M  V30 1852 N 175.516 -2.28815 -6.63768 0
M  V30 1853 H 180.356 -2.04858 -2.16419 0
M  V30 1854 H 177.893 -1.01974 -1.06017 0
M  V30 1855 H 179.851 -0.544822 -4.13627 0
M  V30 1856 H 178.481 0.142102 -3.22487 0
M  V30 1857 H 177.533 -2.27162 -3.05125 0
M  V30 1858 H 178.845 -2.7998 -4.12811 0
M  V30 1859 H 177.999 -1.28231 -5.92994 0
M  V30 1860 H 176.738 -0.651391 -4.8333 0
M  V30 1861 H 175.743 -2.94819 -4.64071 0
M  V30 1862 H 176.968 -3.57826 -5.7718 0
M  V30 1863 H 174.914 -1.42495 -6.40337 0
M  V30 1864 H 174.831 -3.08242 -6.90306 0
M  V30 1865 H 176.099 -2.06387 -7.51681 0
M  V30 1866 N 180.328 1.1314 -1.09713 0
M  V30 1867 C 181.556 1.88321 -0.856898 0
M  V30 1868 C 181.971 1.79276 0.592073 0
M  V30 1869 O 181.328 1.16142 1.40774 0
M  V30 1870 C 181.379 3.37812 -1.28706 0
M  V30 1871 O 181.1 3.46627 -2.67921 0
M  V30 1872 C 182.601 4.29952 -1.07964 0
M  V30 1873 H 179.821 0.596094 -0.308079 0
M  V30 1874 H 182.365 1.43205 -1.45988 0
M  V30 1875 H 180.52 3.805 -0.727912 0
M  V30 1876 H 180.934 4.39579 -2.8613 0
M  V30 1877 H 182.408 5.33159 -1.42986 0
M  V30 1878 H 182.885 4.39196 -0.0176577 0
M  V30 1879 H 183.491 3.93036 -1.62489 0
M  V30 1880 N 181.806 0.884767 1.30421 0
M  V30 1881 C 183.054 0.502112 1.95763 0
M  V30 1882 C 183.375 -0.951815 1.70192 0
M  V30 1883 O 182.645 -1.6692 1.0254 0
M  V30 1884 H 181.225 0.182694 0.724315 0
M  V30 1885 H 183.887 1.1278 1.58955 0
M  V30 1886 H 182.983 0.672188 3.04775 0
M  V30 1887 N 183.284 -1.43765 0.645699 0
M  V30 1888 C 184.232 -2.32516 -0.0624849 0
M  V30 1889 C 185.226 -1.48183 -0.820855 0
M  V30 1890 O 186.432 -1.64439 -0.732106 0
M  V30 1891 H 182.807 -0.750989 -0.0389864 0
M  V30 1892 H 184.778 -2.89979 0.703892 0
M  V30 1893 C 183.527 -3.32389 -1.02044 0
M  V30 1894 H 182.85 -3.97301 -0.446312 0
M  V30 1895 H 184.29 -3.97138 -1.48517 0
M  V30 1896 C 182.749 -2.62416 -2.11281 0
M  V30 1897 O 183.279 -2.434 -3.19561 0
M  V30 1898 N 181.485 -2.21913 -1.87624 0
M  V30 1899 H 181.032 -2.37578 -0.995703 0
M  V30 1900 H 180.99 -1.75424 -2.6091 0
M  V30 1901 N 184.763 -0.387143 -1.52771 0
M  V30 1902 C 186.174 0.0873634 -1.86495 0
M  V30 1903 C 186.525 1.46336 -1.30691 0
M  V30 1904 O 185.65 2.068 -0.637409 0
M  V30 1905 C 186.245 0.165305 -3.38396 0
M  V30 1906 C 184.804 0.584101 -3.7184 0
M  V30 1907 C 183.951 -0.255279 -2.76122 0
M  V30 1908 H 186.902 -0.605104 -1.46711 0
M  V30 1909 H 186.923 0.984848 -3.67534 0
M  V30 1910 H 186.435 -0.836301 -3.78982 0
M  V30 1911 H 184.536 1.59315 -3.36823 0
M  V30 1912 H 184.649 0.343749 -4.77865 0
M  V30 1913 H 183.013 0.279126 -2.53166 0
M  V30 1914 H 183.796 -1.25482 -3.19545 0
M  V30 1915 N 186.241 1.57166 -0.116904 0
M  V30 1916 C 187.657 1.5779 0.239693 0
M  V30 1917 C 187.857 1.1295 1.66867 0
M  V30 1918 O 186.913 0.81592 2.38954 0
M  V30 1919 C 188.226 3.00699 0.00828202 0
M  V30 1920 C 189.774 3.12912 0.0743438 0
M  V30 1921 C 190.249 4.57817 -0.129348 0
M  V30 1922 N 191.74 4.63139 -0.075247 0
M  V30 1923 C 192.475 5.73023 -0.207788 0
M  V30 1924 N 191.971 6.91665 -0.396382 0
M  V30 1925 N 193.764 5.61906 -0.14751 0
M  V30 1926 H 185.915 1.84615 -1.05029 0
M  V30 1927 H 188.178 0.85311 -0.41341 0
M  V30 1928 H 187.884 3.37784 -0.979531 0
M  V30 1929 H 187.758 3.69848 0.741077 0
M  V30 1930 H 190.145 2.75686 1.05268 0
M  V30 1931 H 190.226 2.4631 -0.690297 0
M  V30 1932 H 189.87 4.95742 -1.10465 0
M  V30 1933 H 189.8 5.22507 0.655253 0
M  V30 1934 H 192.291 3.7784 0.0670898 0
M  V30 1935 H 192.604 7.71255 -0.488437 0
M  V30 1936 H 190.949 6.93654 -0.432329 0
M  V30 1937 H 194.14 4.681 -0.00115036 0
M  V30 1938 H 194.313 6.47501 -0.254247 0
M  V30 1939 N 187.719 -0.156864 1.56817 0
M  V30 1940 C 188.966 -0.871125 1.82805 0
M  V30 1941 C 189.294 -1.81611 0.696262 0
M  V30 1942 O 188.549 -1.93141 -0.315459 0
M  V30 1943 C 188.848 -1.68737 3.1506 0
M  V30 1944 C 188.514 -0.890045 4.42028 0
M  V30 1945 C 187.176 -0.670042 4.76512 0
M  V30 1946 C 189.528 -0.331769 5.20143 0
M  V30 1947 C 186.856 0.119104 5.86579 0
M  V30 1948 C 189.208 0.444365 6.31037 0
M  V30 1949 C 187.872 0.675035 6.64078 0
M  V30 1950 H 187.142 -0.318767 0.668931 0
M  V30 1951 H 189.789 -0.135274 1.91022 0
M  V30 1952 H 188.094 -2.49304 3.0225 0
M  V30 1953 H 189.791 -2.24331 3.3238 0
M  V30 1954 H 186.381 -1.07157 4.14988 0
M  V30 1955 H 190.565 -0.489043 4.93885 0
M  V30 1956 H 185.821 0.307417 6.10627 0
M  V30 1957 H 189.995 0.884139 6.90765 0
M  V30 1958 H 187.622 1.28839 7.49203 0
M  V30 1959 N 189.197 -1.51736 -0.425897 0
M  V30 1960 C 190.16 -1.73271 -1.50032 0
M  V30 1961 C 191.16 -0.602639 -1.4908 0
M  V30 1962 O 192.35 -0.87033 -1.509 0
M  V30 1963 C 189.482 -1.79969 -2.89523 0
M  V30 1964 H 190.675 -2.69172 -1.32237 0
M  V30 1965 H 188.228 -1.41899 -0.65532 0
M  V30 1966 H 188.963 -0.859241 -3.1271 0
M  V30 1967 H 188.748 -2.62109 -2.91619 0
M  V30 1968 H 190.238 -1.9843 -3.67444 0
M  V30 1969 N 190.675 0.682077 -1.42076 0
M  V30 1970 C 191.905 1.46844 -1.45329 0
M  V30 1971 C 192.313 1.89102 -0.0609328 0
M  V30 1972 O 191.656 1.58238 0.933082 0
M  V30 1973 C 191.718 2.75375 -2.31104 0
M  V30 1974 C 191.382 2.55238 -3.79081 0
M  V30 1975 C 192.379 2.20309 -4.70914 0
M  V30 1976 C 190.064 2.70459 -4.2327 0
M  V30 1977 C 192.058 2.00859 -6.04925 0
M  V30 1978 C 189.745 2.50624 -5.57343 0
M  V30 1979 C 190.743 2.15876 -6.47986 0
M  V30 1980 O 190.431 1.96227 -7.79583 0
M  V30 1981 H 190.163 0.4586 -0.496651 0
M  V30 1982 H 192.717 0.846131 -1.87162 0
M  V30 1983 H 190.947 3.40061 -1.84107 0
M  V30 1984 H 192.636 3.37231 -2.25898 0
M  V30 1985 H 193.402 2.08153 -4.38061 0
M  V30 1986 H 189.281 2.96485 -3.53012 0
M  V30 1987 H 192.825 1.7366 -6.75639 0
M  V30 1988 H 188.722 2.62375 -5.89771 0
M  V30 1989 H 189.49 2.10883 -7.90867 0
M  V30 1990 N 192.153 1.28127 0.917671 0
M  V30 1991 C 193.43 1.05761 1.64542 0
M  V30 1992 C 193.81 -0.404344 2.07191 0
M  V30 1993 O 193.158 -1.38963 1.81388 0
M  V30 1994 C 193.368 2.02857 2.83989 0
M  V30 1995 C 194.716 2.32786 3.551 0
M  V30 1996 O 195.74 2.0091 2.94132 0
M  V30 1997 O 194.599 2.87169 4.64969 0
M  V30 1998 H 191.693 0.403916 0.721652 0
M  V30 1999 H 194.239 1.39431 0.967322 0
M  V30 2000 H 193.011 3.01407 2.49538 0
M  V30 2001 H 192.634 1.69809 3.59514 0
M  V30 2002 N 193.631 -1.12557 1.10312 0
M  V30 2003 C 194.856 -1.88405 0.867085 0
M  V30 2004 C 195.281 -1.79038 -0.576817 0
M  V30 2005 O 194.639 -1.14439 -1.40618 0
M  V30 2006 C 194.687 -3.3563 1.31851 0
M  V30 2007 O 193.791 -4.09565 0.482734 0
M  V30 2008 H 193.132 -0.585455 0.313271 0
M  V30 2009 H 195.662 -1.42352 1.4696 0
M  V30 2010 H 195.672 -3.86469 1.3079 0
M  V30 2011 H 194.347 -3.41765 2.37001 0
M  V30 2012 H 192.924 -3.68695 0.558448 0
M  V30 2013 N 195.109 -0.891671 -1.2995 0
M  V30 2014 C 196.339 -0.527893 -1.99742 0
M  V30 2015 C 196.747 0.88979 -1.66971 0
M  V30 2016 O 196.09 1.59766 -0.906667 0
M  V30 2017 C 196.152 -0.630804 -3.53922 0
M  V30 2018 C 195.816 -2.01401 -4.10228 0
M  V30 2019 C 196.813 -2.98422 -4.25724 0
M  V30 2020 C 194.498 -2.32121 -4.45449 0
M  V30 2021 C 196.492 -4.24293 -4.75662 0
M  V30 2022 C 194.179 -3.58237 -4.95086 0
M  V30 2023 C 195.177 -4.54137 -5.10146 0
M  V30 2024 O 194.865 -5.78014 -5.58708 0
M  V30 2025 H 194.597 -0.201953 -0.645129 0
M  V30 2026 H 197.151 -1.20076 -1.66646 0
M  V30 2027 H 195.381 0.0990616 -3.86573 0
M  V30 2028 H 197.07 -0.277338 -4.04951 0
M  V30 2029 H 197.836 -2.76001 -3.98809 0
M  V30 2030 H 193.715 -1.5824 -4.32991 0
M  V30 2031 H 197.259 -4.99153 -4.87332 0
M  V30 2032 H 193.156 -3.80491 -5.21437 0
M  V30 2033 H 193.924 -5.8049 -5.77039 0
M  V30 2034 N 196.587 1.43421 -0.653314 0
M  V30 2035 C 198.003 1.56341 -0.320886 0
M  V30 2036 C 198.203 1.63696 1.17499 0
M  V30 2037 O 197.259 1.59208 1.95982 0
M  V30 2038 C 198.572 2.82424 -1.03233 0
M  V30 2039 C 200.12 2.96168 -1.01259 0
M  V30 2040 C 200.595 4.25084 -1.70492 0
M  V30 2041 N 202.086 4.31948 -1.67257 0
M  V30 2042 C 202.821 5.30466 -2.17701 0
M  V30 2043 N 202.317 6.35261 -2.76434 0
M  V30 2044 N 204.11 5.2212 -2.082 0
M  V30 2045 H 196.261 1.3689 -1.62403 0
M  V30 2046 H 198.524 0.657455 -0.682977 0
M  V30 2047 H 198.23 2.83053 -2.08744 0
M  V30 2048 H 198.104 3.72653 -0.583948 0
M  V30 2049 H 200.491 2.9508 0.0341235 0
M  V30 2050 H 200.572 2.07229 -1.49966 0
M  V30 2051 H 200.216 4.26932 -2.7512 0
M  V30 2052 H 200.146 5.1292 -1.19251 0
M  V30 2053 H 202.637 3.56838 -1.24398 0
M  V30 2054 H 202.95 7.06754 -3.12601 0
M  V30 2055 H 201.295 6.35884 -2.80495 0
M  V30 2056 H 204.486 4.39166 -1.62021 0
M  V30 2057 H 204.659 5.98739 -2.47822 0
M  V30 2058 N 198.065 0.39524 1.52563 0
M  V30 2059 C 199.481 0.0454682 1.59535 0
M  V30 2060 C 199.681 -1.44056 1.4089 0
M  V30 2061 O 198.737 -2.20579 1.22888 0
M  V30 2062 C 200.05 0.527963 2.96029 0
M  V30 2063 C 201.598 0.484733 3.09224 0
M  V30 2064 C 202.073 0.943512 4.48176 0
M  V30 2065 N 203.564 0.899765 4.54377 0
M  V30 2066 C 204.299 1.22609 5.60138 0
M  V30 2067 N 203.795 1.62319 6.73516 0
M  V30 2068 N 205.588 1.14696 5.50274 0
M  V30 2069 H 197.739 1.36261 1.62931 0
M  V30 2070 H 200.002 0.558887 0.765735 0
M  V30 2071 H 199.708 1.56607 3.14908 0
M  V30 2072 H 199.582 -0.0698056 3.77135 0
M  V30 2073 H 201.969 -0.544298 2.90037 0
M  V30 2074 H 202.05 1.11838 2.30056 0
M  V30 2075 H 201.694 1.9708 4.68104 0
M  V30 2076 H 201.624 0.286817 5.25818 0
M  V30 2077 H 204.115 0.607632 3.72983 0
M  V30 2078 H 204.428 1.85567 7.5019 0
M  V30 2079 H 202.773 1.66211 6.74833 0
M  V30 2080 H 205.964 0.835701 4.6058 0
M  V30 2081 H 206.137 1.40459 6.32594 0
M  V30 2082 N 199.544 -1.57102 0.125237 0
M  V30 2083 C 200.791 -1.95407 -0.531248 0
M  V30 2084 C 201.119 -1.0089 -1.66287 0
M  V30 2085 O 200.374 -0.0339431 -1.95671 0
M  V30 2086 C 200.673 -3.40096 -1.09862 0
M  V30 2087 C 200.339 -4.50815 -0.0876989 0
M  V30 2088 C 199.001 -4.80824 0.19026 0
M  V30 2089 C 201.353 -5.17724 0.600902 0
M  V30 2090 C 198.681 -5.75058 1.163 0
M  V30 2091 C 201.033 -6.13005 1.56231 0
M  V30 2092 C 199.697 -6.41403 1.8482 0
M  V30 2093 H 198.967 -0.715046 -0.194397 0
M  V30 2094 H 201.614 -1.90373 0.207463 0
M  V30 2095 H 199.919 -3.41855 -1.91422 0
M  V30 2096 H 201.616 -3.6705 -1.61478 0
M  V30 2097 H 198.206 -4.27444 -0.314528 0
M  V30 2098 H 202.39 -4.94691 0.399333 0
M  V30 2099 H 197.646 -5.95362 1.39117 0
M  V30 2100 H 201.82 -6.63934 2.10153 0
M  V30 2101 H 199.447 -7.14229 2.60349 0
M  V30 2102 N 201.022 0.148545 -1.56898 0
M  V30 2103 C 202.271 0.85984 -1.82454 0
M  V30 2104 C 202.584 1.82406 -0.706229 0
M  V30 2105 O 203.79 2.57938 -0.847349 0
M  V30 2106 C 202.246 1.57967 -3.2338 0
M  V30 2107 C 201.854 0.65794 -4.43142 0
M  V30 2108 C 203.598 2.27784 -3.58211 0
M  V30 2109 C 201.505 1.3793 -5.75091 0
M  V30 2110 H 200.435 0.324834 -0.68044 0
M  V30 2111 H 203.086 0.112588 -1.83154 0
M  V30 2112 H 201.468 2.37249 -3.17063 0
M  V30 2113 H 202.642 -0.0995497 -4.60692 0
M  V30 2114 H 200.957 0.0682643 -4.16344 0
M  V30 2115 H 203.554 2.8239 -4.54048 0
M  V30 2116 H 203.897 3.04204 -2.84193 0
M  V30 2117 H 204.43 1.55421 -3.66182 0
M  V30 2118 H 201.169 0.656982 -6.52199 0
M  V30 2119 H 200.689 2.10954 -5.61479 0
M  V30 2120 H 202.368 1.92063 -6.17835 0
M  V30 2121 N 202.5 1.5196 0.417844 0
M  V30 2122 C 203.432 1.70895 1.52733 0
M  V30 2123 C 204.445 0.589405 1.51756 0
M  V30 2124 O 205.634 0.864312 1.56179 0
M  V30 2125 C 202.734 1.72627 2.91639 0
M  V30 2126 C 201.907 3.01479 3.16905 0
M  V30 2127 C 200.966 2.95139 4.35637 0
M  V30 2128 O 199.992 3.69059 4.3334 0
M  V30 2129 N 201.194 2.12328 5.40275 0
M  V30 2130 H 203.959 2.66612 1.36888 0
M  V30 2131 H 201.52 1.50089 0.607037 0
M  V30 2132 H 203.512 1.65928 3.6912 0
M  V30 2133 H 202.082 0.844216 3.00985 0
M  V30 2134 H 201.302 3.21895 2.27546 0
M  V30 2135 H 202.59 3.86736 3.30625 0
M  V30 2136 H 201.988 1.51685 5.44985 0
M  V30 2137 H 200.545 2.11494 6.16534 0
M  V30 2138 N 203.978 -0.674533 1.42435 0
M  V30 2139 C 204.911 -1.79924 1.40366 0
M  V30 2140 C 205.889 -1.60378 0.267899 0
M  V30 2141 O 207.073 -1.82847 0.458159 0
M  V30 2142 C 204.2 -3.16927 1.19478 0
M  V30 2143 C 203.246 -3.55221 2.36051 0
M  V30 2144 S 204.079 -3.5762 3.98583 0
M  V30 2145 C 205.235 -4.97315 3.80038 0
M  V30 2146 H 205.468 -1.81405 2.35541 0
M  V30 2147 H 203.001 -0.845221 1.29211 0
M  V30 2148 H 204.959 -3.96007 1.08114 0
M  V30 2149 H 203.62 -3.13031 0.258883 0
M  V30 2150 H 202.813 -4.54804 2.17185 0
M  V30 2151 H 202.415 -2.83502 2.43932 0
M  V30 2152 H 204.707 -5.85401 3.41045 0
M  V30 2153 H 205.65 -5.21228 4.79298 0
M  V30 2154 H 206.058 -4.69845 3.12899 0
M  V30 2155 N 205.456 -1.28612 -0.910864 0
M  V30 2156 C 206.686 -1.1862 -1.69153 0
M  V30 2157 C 207.094 0.257324 -1.87442 0
M  V30 2158 O 206.437 1.18543 -1.40332 0
M  V30 2159 C 206.499 -1.81606 -3.10257 0
M  V30 2160 C 206.163 -3.30864 -3.15243 0
M  V30 2161 C 207.16 -4.27256 -2.96223 0
M  V30 2162 C 204.845 -3.71871 -3.37664 0
M  V30 2163 C 206.839 -5.62631 -2.99541 0
M  V30 2164 C 204.526 -5.07371 -3.40614 0
M  V30 2165 C 205.524 -6.02561 -3.21573 0
M  V30 2166 O 205.212 -7.35589 -3.2429 0
M  V30 2167 H 204.944 -0.412633 -0.535453 0
M  V30 2168 H 207.498 -1.70306 -1.14827 0
M  V30 2169 H 205.728 -1.24418 -3.66138 0
M  V30 2170 H 207.417 -1.66092 -3.70362 0
M  V30 2171 H 208.183 -3.9691 -2.78725 0
M  V30 2172 H 204.062 -2.98241 -3.5153 0
M  V30 2173 H 207.606 -6.36907 -2.84597 0
M  V30 2174 H 203.503 -5.37366 -3.57642 0
M  V30 2175 H 204.271 -7.44252 -3.40633 0
M  V30 2176 N 206.934 1.1197 -1.10907 0
M  V30 2177 C 208.159 1.87942 -0.877064 0
M  V30 2178 C 208.584 1.79341 0.567314 0
M  V30 2179 O 207.942 1.15184 1.40009 0
M  V30 2180 C 207.99 3.34926 -1.33629 0
M  V30 2181 O 207.094 4.09303 -0.504447 0
M  V30 2182 H 206.435 0.583785 -0.316371 0
M  V30 2183 H 208.965 1.4157 -1.47712 0
M  V30 2184 H 208.975 3.8577 -1.32837 0
M  V30 2185 H 207.65 3.40504 -2.3881 0
M  V30 2186 H 206.227 3.68393 -0.577993 0
M  V30 2187 N 208.412 0.89855 1.29475 0
M  V30 2188 C 209.689 0.443416 1.90508 0
M  V30 2189 C 210.069 -1.07685 1.81569 0
M  V30 2190 O 209.417 -1.9182 1.24166 0
M  V30 2191 C 209.627 0.956708 3.35631 0
M  V30 2192 C 210.975 0.999728 4.12663 0
M  V30 2193 O 211.999 0.904299 3.4453 0
M  V30 2194 O 210.858 1.14289 5.34416 0
M  V30 2195 H 207.952 0.138025 0.815401 0
M  V30 2196 H 210.498 0.98834 1.37949 0
M  V30 2197 H 209.27 2.00067 3.36287 0
M  V30 2198 H 208.893 0.391728 3.95666 0
M  V30 2199 N 209.89 -1.43072 0.660911 0
M  V30 2200 C 211.136 -2.0202 0.177708 0
M  V30 2201 C 211.469 -1.52066 -1.20787 0
M  V30 2202 O 210.744 -0.716987 -1.80802 0
M  V30 2203 C 211.027 -3.59561 0.197019 0
M  V30 2204 C 210.88 -4.19727 1.61706 0
M  V30 2205 C 212.199 -4.37664 -0.462396 0
M  V30 2206 H 209.318 -0.734034 0.0660494 0
M  V30 2207 H 211.96 -1.70272 0.843058 0
M  V30 2208 H 210.11 -3.86739 -0.369527 0
M  V30 2209 H 211.782 -4.03553 2.23479 0
M  V30 2210 H 210.025 -3.76084 2.16201 0
M  V30 2211 H 210.696 -5.28834 1.58237 0
M  V30 2212 H 213.172 -4.16095 0.0197215 0
M  V30 2213 H 212.048 -5.47305 -0.418188 0
M  V30 2214 H 212.309 -4.14493 -1.53778 0
M  V30 2215 N 211.368 -0.403325 -1.52352 0
M  V30 2216 C 212.614 0.174605 -2.02047 0
M  V30 2217 C 212.947 1.45282 -1.28867 0
M  V30 2218 O 212.222 1.90483 -0.393257 0
M  V30 2219 C 212.505 0.428238 -3.57545 0
M  V30 2220 C 212.358 -0.866248 -4.4138 0
M  V30 2221 C 213.677 1.21287 -4.23057 0
M  V30 2222 H 210.796 0.0619851 -0.734389 0
M  V30 2223 H 213.438 -0.53565 -1.82293 0
M  V30 2224 H 211.588 1.03327 -3.74507 0
M  V30 2225 H 213.26 -1.50265 -4.3614 0
M  V30 2226 H 211.503 -1.47851 -4.07827 0
M  V30 2227 H 212.174 -0.643249 -5.48239 0
M  V30 2228 H 214.65 0.700703 -4.10158 0
M  V30 2229 H 213.526 1.35909 -5.31808 0
M  V30 2230 H 213.787 2.23193 -3.81625 0
M  V30 2231 N 212.846 1.57033 -0.133567 0
M  V30 2232 C 213.779 2.11824 0.848872 0
M  V30 2233 C 214.757 1.03833 1.2513 0
M  V30 2234 O 215.941 1.31579 1.34978 0
M  V30 2235 C 213.068 2.62692 2.138 0
M  V30 2236 C 212.114 3.82705 1.88253 0
M  V30 2237 S 212.947 5.2438 1.08563 0
M  V30 2238 C 214.103 5.78627 2.38624 0
M  V30 2239 H 214.336 2.94824 0.38289 0
M  V30 2240 H 211.869 1.5419 0.0804796 0
M  V30 2241 H 213.827 2.92652 2.87863 0
M  V30 2242 H 212.488 1.79847 2.57515 0
M  V30 2243 H 211.681 4.16496 2.83809 0
M  V30 2244 H 211.283 3.53437 1.22305 0
M  V30 2245 H 213.575 5.8924 3.34369 0
M  V30 2246 H 214.518 6.76443 2.09358 0
M  V30 2247 H 214.926 5.06783 2.48658 0
M  V30 2248 N 214.325 -0.140222 1.56975 0
M  V30 2249 C 215.235 -1.19223 2.02047 0
M  V30 2250 C 216.251 -1.46612 0.937062 0
M  V30 2251 O 217.427 -1.58148 1.24704 0
M  V30 2252 C 214.492 -2.50414 2.39778 0
M  V30 2253 C 213.553 -2.30612 3.621 0
M  V30 2254 C 212.786 -3.55547 3.98023 0
M  V30 2255 O 213.009 -4.62004 3.34528 0
M  V30 2256 O 211.943 -3.47808 4.91237 0
M  V30 2257 H 215.769 -0.839559 2.91865 0
M  V30 2258 H 213.354 -0.349453 1.45256 0
M  V30 2259 H 215.236 -3.27747 2.64877 0
M  V30 2260 H 213.911 -2.85198 1.53114 0
M  V30 2261 H 212.818 -1.51207 3.4218 0
M  V30 2262 H 214.151 -2.00741 4.49404 0
M  V30 2263 N 215.803 -1.52179 -0.40978 0
M  V30 2264 C 217.049 -1.66453 -1.15851 0
M  V30 2265 C 217.382 -0.392972 -1.90182 0
M  V30 2266 O 216.657 0.608579 -1.84734 0
M  V30 2267 C 216.94 -2.88612 -2.15349 0
M  V30 2268 C 216.793 -4.25815 -1.44918 0
M  V30 2269 C 218.112 -3.06294 -3.16026 0
M  V30 2270 H 215.231 -0.60575 -0.419805 0
M  V30 2271 H 217.873 -1.84732 -0.444314 0
M  V30 2272 H 216.023 -2.73158 -2.76255 0
M  V30 2273 H 217.695 -4.52995 -0.871365 0
M  V30 2274 H 215.938 -4.27247 -0.751159 0
M  V30 2275 H 216.609 -5.07337 -2.17516 0
M  V30 2276 H 219.085 -3.20641 -2.65195 0
M  V30 2277 H 217.961 -3.93283 -3.8291 0
M  V30 2278 H 218.222 -2.19579 -3.83715 0
M  V30 2279 N 217.281 0.66697 -1.42791 0
M  V30 2280 C 218.692 1.2478 -1.38877 0
M  V30 2281 C 219.043 1.96012 -0.0859426 0
M  V30 2282 O 218.168 2.00463 0.815081 0
M  V30 2283 C 218.763 2.26938 -2.51564 0
M  V30 2284 C 217.322 2.80529 -2.50959 0
M  V30 2285 C 216.469 1.54965 -2.29959 0
M  V30 2286 H 219.42 0.459853 -1.51892 0
M  V30 2287 H 219.441 3.08834 -2.22265 0
M  V30 2288 H 218.953 1.75065 -3.46372 0
M  V30 2289 H 217.054 3.36502 -1.59991 0
M  V30 2290 H 217.167 3.29012 -3.48265 0
M  V30 2291 H 215.531 1.81817 -1.78366 0
M  V30 2292 H 216.314 1.05047 -3.26833 0
M  V30 2293 N 218.759 1.29093 0.90403 0
M  V30 2294 C 219.706 1.13853 2.00764 0
M  V30 2295 C 220.676 0.0330084 1.66067 0
M  V30 2296 O 221.861 0.199733 1.89752 0
M  V30 2297 C 219.001 0.816537 3.35301 0
M  V30 2298 C 218.114 2.00206 3.82807 0
M  V30 2299 C 217.249 1.61983 5.059 0
M  V30 2300 C 216.288 2.77143 5.45764 0
M  V30 2301 N 215.425 2.39346 6.60044 0
M  V30 2302 H 220.265 2.08276 2.13132 0
M  V30 2303 H 217.802 1.03648 1.04381 0
M  V30 2304 H 219.76 0.610557 4.12708 0
M  V30 2305 H 218.39 -0.090779 3.22672 0
M  V30 2306 H 217.442 2.31988 3.01473 0
M  V30 2307 H 218.754 2.86512 4.08304 0
M  V30 2308 H 217.908 1.37649 5.90879 0
M  V30 2309 H 216.647 0.728202 4.82233 0
M  V30 2310 H 215.652 3.02165 4.59322 0
M  V30 2311 H 216.877 3.66964 5.71414 0
M  V30 2312 H 214.823 1.52665 6.37989 0
M  V30 2313 H 214.74 3.19185 6.85315 0
M  V30 2314 H 216.008 2.1832 7.48303 0
M  V30 2315 N 220.237 -1.11381 1.11499 0
M  V30 2316 C 221.462 -1.87475 0.887019 0
M  V30 2317 C 221.887 -1.79639 -0.557796 0
M  V30 2318 O 221.245 -1.15924 -1.39396 0
M  V30 2319 C 221.293 -3.34213 1.35403 0
M  V30 2320 O 220.397 -4.0903 0.526146 0
M  V30 2321 H 219.738 -0.582099 0.319463 0
M  V30 2322 H 222.268 -1.40785 1.48461 0
M  V30 2323 H 222.278 -3.8506 1.34881 0
M  V30 2324 H 220.953 -3.39232 2.40612 0
M  V30 2325 H 219.53 -3.68082 0.597522 0
M  V30 2326 N 221.715 -0.905404 -1.28997 0
M  V30 2327 C 222.665 -0.358713 -2.25161 0
M  V30 2328 C 223.649 0.524449 -1.52113 0
M  V30 2329 O 224.841 0.365534 -1.73184 0
M  V30 2330 C 221.97 0.407609 -3.40872 0
M  V30 2331 C 221.056 -0.490797 -4.21251 0
M  V30 2332 N 221.447 -1.60061 -4.79806 0
M  V30 2333 C 219.745 -0.289636 -4.45059 0
M  V30 2334 C 220.446 -2.15757 -5.40207 0
M  V30 2335 N 219.422 -1.44988 -5.23908 0
M  V30 2336 H 223.224 -1.20642 -2.67998 0
M  V30 2337 H 220.738 -0.757103 -1.43672 0
M  V30 2338 H 222.735 0.816046 -4.08835 0
M  V30 2339 H 221.395 1.25251 -2.9957 0
M  V30 2340 H 222.406 -1.98329 -4.7842 0
M  V30 2341 H 219.083 0.51643 -4.14294 0
M  V30 2342 H 220.473 -3.09069 -5.96595 0
M  V30 2343 N 223.193 1.4272 -0.668489 0
M  V30 2344 C 224.44 2.01624 -0.18814 0
M  V30 2345 C 224.768 1.5282 1.20317 0
M  V30 2346 O 224.023 0.718323 1.8204 0
M  V30 2347 C 224.322 3.57021 -0.164499 0
M  V30 2348 C 223.988 4.25232 -1.49962 0
M  V30 2349 C 222.65 4.4358 -1.8652 0
M  V30 2350 C 225.002 4.63727 -2.37921 0
M  V30 2351 C 222.33 4.97694 -3.10674 0
M  V30 2352 C 224.682 5.19218 -3.6138 0
M  V30 2353 C 223.346 5.3578 -3.98115 0
M  V30 2354 H 222.616 0.737795 -0.0688454 0
M  V30 2355 H 225.263 1.70991 -0.862225 0
M  V30 2356 H 223.568 3.87285 0.593079 0
M  V30 2357 H 225.265 4.00372 0.224271 0
M  V30 2358 H 221.855 4.11306 -1.20522 0
M  V30 2359 H 226.039 4.4923 -2.10964 0
M  V30 2360 H 221.295 5.08702 -3.39164 0
M  V30 2361 H 225.469 5.4799 -4.29743 0
M  V30 2362 H 223.096 5.77475 -4.94395 0
M  V30 2363 N 224.671 0.411399 1.52136 0
M  V30 2364 C 225.581 -0.419774 2.30814 0
M  V30 2365 C 226.597 -1.0515 1.38634 0
M  V30 2366 O 227.773 -1.05252 1.71709 0
M  V30 2367 C 224.838 -1.52019 3.11594 0
M  V30 2368 C 223.899 -0.91129 4.19516 0
M  V30 2369 C 223.132 -1.95927 4.96436 0
M  V30 2370 O 223.355 -3.17775 4.73683 0
M  V30 2371 O 222.289 -1.56423 5.81219 0
M  V30 2372 H 226.115 0.221805 3.02889 0
M  V30 2373 H 223.7 0.174547 1.48377 0
M  V30 2374 H 225.582 -2.15898 3.61892 0
M  V30 2375 H 224.257 -2.14633 2.42311 0
M  V30 2376 H 223.164 -0.235157 3.7336 0
M  V30 2377 H 224.497 -0.32904 4.91099 0
M  V30 2378 N 226.149 -1.5696 0.141893 0
M  V30 2379 C 227.096 -2.16501 -0.799737 0
M  V30 2380 C 228.066 -1.09643 -1.24771 0
M  V30 2381 O 229.251 -1.3766 -1.32115 0
M  V30 2382 C 226.391 -2.78679 -2.03549 0
M  V30 2383 C 225.504 -3.99914 -1.6338 0
M  V30 2384 C 224.639 -4.50106 -2.82096 0
M  V30 2385 C 223.678 -5.63819 -2.38275 0
M  V30 2386 N 222.815 -6.08651 -3.49983 0
M  V30 2387 H 227.655 -2.96632 -0.285179 0
M  V30 2388 H 225.192 -1.46533 -0.129053 0
M  V30 2389 H 227.15 -3.1287 -2.75986 0
M  V30 2390 H 225.78 -2.012 -2.52425 0
M  V30 2391 H 224.832 -3.71735 -0.807279 0
M  V30 2392 H 226.144 -4.82311 -1.27192 0
M  V30 2393 H 225.298 -4.86325 -3.62729 0
M  V30 2394 H 224.037 -3.66706 -3.21525 0
M  V30 2395 H 223.042 -5.2718 -1.56081 0
M  V30 2396 H 224.267 -6.49 -1.99938 0
M  V30 2397 H 222.213 -5.28188 -3.89042 0
M  V30 2398 H 222.13 -6.85961 -3.17794 0
M  V30 2399 H 223.398 -6.49515 -4.30988 0
M  V30 2400 N 227.627 0.131896 -1.57047 0
M  V30 2401 C 228.876 0.84044 -1.83356 0
M  V30 2402 C 229.189 1.81646 -0.725535 0
M  V30 2403 O 230.395 2.57025 -0.874659 0
M  V30 2404 C 228.851 1.54528 -3.25037 0
M  V30 2405 C 228.459 0.610902 -4.43815 0
M  V30 2406 C 230.203 2.23972 -3.60606 0
M  V30 2407 C 228.11 1.31823 -5.76521 0
M  V30 2408 H 227.04 0.317599 -0.683847 0
M  V30 2409 H 229.691 0.0931561 -1.83263 0
M  V30 2410 H 228.073 2.33873 -3.19561 0
M  V30 2411 H 229.247 -0.148407 -4.60561 0
M  V30 2412 H 227.562 0.0241016 -4.16393 0
M  V30 2413 H 230.159 2.77558 -4.57018 0
M  V30 2414 H 230.502 3.01173 -2.87403 0
M  V30 2415 H 231.035 1.51529 -3.6781 0
M  V30 2416 H 227.774 0.587771 -6.52859 0
M  V30 2417 H 227.294 2.04987 -5.63685 0
M  V30 2418 H 228.973 1.855 -6.19838 0
M  V30 2419 N 229.106 1.52395 0.401703 0
M  V30 2420 C 230.355 1.66044 1.14509 0
M  V30 2421 C 230.668 0.400216 1.91462 0
M  V30 2422 O 231.874 0.416632 2.68284 0
M  V30 2423 C 230.33 2.93388 2.0845 0
M  V30 2424 C 229.938 4.26545 1.36978 0
M  V30 2425 C 231.682 3.16402 2.83001 0
M  V30 2426 C 229.589 5.45007 2.29611 0
M  V30 2427 H 228.519 0.618562 0.431158 0
M  V30 2428 H 231.17 1.78886 0.40892 0
M  V30 2429 H 229.552 2.74263 2.8565 0
M  V30 2430 H 230.726 4.56179 0.650916 0
M  V30 2431 H 229.041 4.09692 0.74438 0
M  V30 2432 H 231.638 4.02085 3.52465 0
M  V30 2433 H 231.981 2.30943 3.46368 0
M  V30 2434 H 232.514 3.36034 2.12898 0
M  V30 2435 H 229.253 6.32835 1.70879 0
M  V30 2436 H 228.773 5.19702 2.9945 0
M  V30 2437 H 230.452 5.7838 2.89974 0
M  V30 2438 N 230.584 -0.659388 1.43143 0
M  V30 2439 C 231.861 -1.41627 1.34912 0
M  V30 2440 C 232.241 -2.11099 -0.00607785 0
M  V30 2441 O 231.589 -2.04353 -1.02236 0
M  V30 2442 C 231.799 -2.40604 2.52805 0
M  V30 2443 C 233.147 -3.04789 2.95616 0
M  V30 2444 O 234.171 -2.50932 2.52807 0
M  V30 2445 O 233.03 -4.02421 3.69756 0
M  V30 2446 H 230.124 -0.63246 0.532844 0
M  V30 2447 H 232.67 -0.686814 1.5518 0
M  V30 2448 H 231.442 -1.88174 3.43083 0
M  V30 2449 H 231.065 -3.21009 2.34604 0
M  V30 2450 N 232.062 -1.29571 -0.897171 0
M  V30 2451 C 233.025 -1.14913 -1.98312 0
M  V30 2452 C 234.025 -0.0838629 -1.60581 0
M  V30 2453 O 235.215 -0.331006 -1.71026 0
M  V30 2454 C 232.347 -0.757835 -3.3237 0
M  V30 2455 H 233.54 -2.11377 -2.12743 0
M  V30 2456 H 231.093 -1.12793 -1.08201 0
M  V30 2457 H 231.828 0.206837 -3.2364 0
M  V30 2458 H 231.613 -1.52755 -3.61121 0
M  V30 2459 H 233.103 -0.678408 -4.12053 0
M  V30 2460 N 233.54 1.10788 -1.12088 0
M  V30 2461 C 234.473 2.16237 -0.729168 0
M  V30 2462 C 235.451 1.60207 0.277921 0
M  V30 2463 O 236.635 1.87707 0.172737 0
M  V30 2464 C 233.762 3.38609 -0.0786848 0
M  V30 2465 C 232.808 4.13322 -1.05201 0
M  V30 2466 S 233.641 4.69371 -2.57781 0
M  V30 2467 C 234.797 5.95058 -1.94053 0
M  V30 2468 H 235.03 2.4913 -1.62239 0
M  V30 2469 H 232.563 1.22519 -0.939603 0
M  V30 2470 H 234.521 4.09473 0.290254 0
M  V30 2471 H 233.182 3.03962 0.791593 0
M  V30 2472 H 232.375 5.01051 -0.544433 0
M  V30 2473 H 231.977 3.48251 -1.36371 0
M  V30 2474 H 234.269 6.65278 -1.28107 0
M  V30 2475 H 235.212 6.50472 -2.79807 0
M  V30 2476 H 235.62 5.46918 -1.39787 0
M  V30 2477 N 235.018 0.912232 1.28515 0
M  V30 2478 C 235.965 0.397954 2.27343 0
M  V30 2479 C 236.935 -0.526766 1.57526 0
M  V30 2480 O 238.12 -0.449292 1.85435 0
M  V30 2481 C 235.26 -0.357263 3.43246 0
M  V30 2482 C 234.373 0.599788 4.27816 0
M  V30 2483 C 233.508 -0.173725 5.30916 0
M  V30 2484 C 232.547 0.777039 6.07148 0
M  V30 2485 N 231.684 0.0371398 7.0209 0
M  V30 2486 H 236.524 1.24577 2.70711 0
M  V30 2487 H 234.061 0.625612 1.33133 0
M  V30 2488 H 236.019 -0.8113 4.09236 0
M  V30 2489 H 234.649 -1.16943 3.00872 0
M  V30 2490 H 233.701 1.17235 3.61884 0
M  V30 2491 H 235.013 1.32704 4.80823 0
M  V30 2492 H 234.167 -0.688394 6.02782 0
M  V30 2493 H 232.906 -0.934041 4.78672 0
M  V30 2494 H 231.911 1.3031 5.34134 0
M  V30 2495 H 233.136 1.53689 6.61481 0
M  V30 2496 H 231.082 -0.705213 6.52198 0
M  V30 2497 H 230.999 0.704249 7.52713 0
M  V30 2498 H 232.267 -0.457383 7.78157 0
M  V30 2499 N 236.496 -1.42363 0.676048 0
M  V30 2500 C 237.406 -2.346 -0.00153389 0
M  V30 2501 C 238.422 -1.5516 -0.787485 0
M  V30 2502 O 239.598 -1.87723 -0.729521 0
M  V30 2503 C 236.663 -3.33705 -0.940298 0
M  V30 2504 C 235.724 -4.29042 -0.148739 0
M  V30 2505 C 234.957 -5.23413 -1.04279 0
M  V30 2506 O 235.18 -5.22749 -2.28232 0
M  V30 2507 O 234.114 -5.99795 -0.502925 0
M  V30 2508 H 237.94 -2.94082 0.758268 0
M  V30 2509 H 235.525 -1.42888 0.436289 0
M  V30 2510 H 237.407 -3.94586 -1.47917 0
M  V30 2511 H 236.082 -2.76695 -1.67993 0
M  V30 2512 H 234.989 -3.71571 0.43427 0
M  V30 2513 H 236.322 -4.89097 0.551805 0
M  V30 2514 N 237.974 -0.419461 -1.51915 0
M  V30 2515 C 238.884 0.407528 -2.31033 0
M  V30 2516 C 239.9 1.04413 -1.3919 0
M  V30 2517 O 241.076 1.0434 -1.72265 0
M  V30 2518 C 238.141 1.50365 -3.12396 0
M  V30 2519 C 237.202 0.889029 -4.19994 0
M  V30 2520 C 236.435 1.93291 -4.97468 0
M  V30 2521 O 236.658 3.15259 -4.75361 0
M  V30 2522 O 235.592 1.53339 -5.8204 0
M  V30 2523 H 239.418 -0.237865 -3.02767 0
M  V30 2524 H 237.003 -0.182413 -1.48282 0
M  V30 2525 H 238.885 2.13975 -3.63032 0
M  V30 2526 H 237.56 2.13345 -2.43445 0
M  V30 2527 H 236.467 0.215353 -3.7348 0
M  V30 2528 H 237.8 0.302991 -4.91267 0
M  V30 2529 N 239.452 1.56882 -0.150215 0
M  V30 2530 C 240.399 2.16922 0.788244 0
M  V30 2531 C 241.369 1.10303 1.24187 0
M  V30 2532 O 242.554 1.38359 1.31383 0
M  V30 2533 C 239.694 2.79754 2.02068 0
M  V30 2534 C 238.807 4.00775 1.61257 0
M  V30 2535 C 237.942 4.51595 2.79705 0
M  V30 2536 C 236.981 5.65074 2.35282 0
M  V30 2537 N 236.118 6.10499 3.4675 0
M  V30 2538 H 240.958 2.96779 0.269444 0
M  V30 2539 H 238.495 1.46599 0.12128 0
M  V30 2540 H 240.453 3.14329 2.74323 0
M  V30 2541 H 239.083 2.02536 2.51354 0
M  V30 2542 H 238.135 3.72158 0.787553 0
M  V30 2543 H 239.447 4.82978 1.24633 0
M  V30 2544 H 238.601 4.88242 3.60145 0
M  V30 2545 H 237.34 3.68406 3.19576 0
M  V30 2546 H 236.345 5.28 1.53283 0
M  V30 2547 H 237.57 6.50052 1.96493 0
M  V30 2548 H 235.516 5.30243 3.86236 0
M  V30 2549 H 235.433 6.87637 3.14152 0
M  V30 2550 H 236.701 6.51791 4.27537 0
M  V30 2551 N 240.93 -0.123565 1.57115 0
M  V30 2552 C 242.178 -0.83051 1.84247 0
M  V30 2553 C 242.499 -1.80629 0.73471 0
M  V30 2554 O 241.769 -1.94403 -0.241688 0
M  V30 2555 H 240.349 -0.309694 0.679778 0
M  V30 2556 H 243.011 -0.111976 1.94578 0
M  V30 2557 H 242.107 -1.37852 2.80006 0
M  V30 2558 N 242.408 -1.52605 -0.393616 0
M  V30 2559 C 243.654 -1.67672 -1.14079 0
M  V30 2560 C 243.987 -0.413121 -1.89755 0
M  V30 2561 O 243.262 0.588952 -1.85369 0
M  V30 2562 C 243.545 -2.9088 -2.12276 0
M  V30 2563 C 243.398 -4.27329 -1.40394 0
M  V30 2564 C 244.717 -3.09628 -3.12759 0
M  V30 2565 H 241.836 -0.610168 -0.413356 0
M  V30 2566 H 244.478 -1.85193 -0.424696 0
M  V30 2567 H 242.628 -2.76073 -2.73342 0
M  V30 2568 H 244.3 -4.53894 -0.82327 0
M  V30 2569 H 242.543 -4.2802 -0.705801 0
M  V30 2570 H 243.214 -5.09615 -2.12123 0
M  V30 2571 H 245.69 -3.23436 -2.61779 0
M  V30 2572 H 244.566 -3.97322 -3.78717 0
M  V30 2573 H 244.827 -2.23637 -3.81365 0
M  V30 2574 N 243.887 0.651787 -1.4349 0
M  V30 2575 C 244.837 1.75783 -1.45205 0
M  V30 2576 C 245.821 1.57679 -0.320328 0
M  V30 2577 O 247.013 1.67767 -0.564211 0
M  V30 2578 C 244.142 3.14377 -1.3792 0
M  V30 2579 C 243.228 3.38023 -2.56127 0
M  V30 2580 N 243.619 3.32135 -3.81471 0
M  V30 2581 C 241.917 3.68747 -2.50882 0
M  V30 2582 C 242.618 3.55902 -4.60118 0
M  V30 2583 N 241.594 3.77783 -3.90872 0
M  V30 2584 H 245.396 1.69657 -2.39987 0
M  V30 2585 H 242.91 0.853508 -1.38163 0
M  V30 2586 H 244.907 3.93666 -1.37231 0
M  V30 2587 H 243.567 3.21683 -0.441596 0
M  V30 2588 H 244.578 3.11515 -4.13738 0
M  V30 2589 H 241.255 3.8316 -1.65816 0
M  V30 2590 H 242.645 3.57116 -5.69138 0
M  V30 2591 N 245.365 1.30045 0.890287 0
M  V30 2592 C 246.612 1.18561 1.64163 0
M  V30 2593 C 246.94 -0.260852 1.92743 0
M  V30 2594 O 246.195 -1.20376 1.54299 0
M  V30 2595 C 246.494 1.95409 2.99249 0
M  V30 2596 C 246.16 3.45066 2.90242 0
M  V30 2597 C 244.822 3.85878 2.87492 0
M  V30 2598 C 247.174 4.4039 2.78758 0
M  V30 2599 C 244.502 5.20314 2.7109 0
M  V30 2600 C 246.854 5.74928 2.63894 0
M  V30 2601 C 245.518 6.14986 2.59516 0
M  V30 2602 H 244.788 0.433846 0.600715 0
M  V30 2603 H 247.435 1.61088 1.03552 0
M  V30 2604 H 245.74 1.45501 3.63781 0
M  V30 2605 H 247.437 1.8392 3.56334 0
M  V30 2606 H 244.027 3.12631 2.93189 0
M  V30 2607 H 248.211 4.09806 2.79952 0
M  V30 2608 H 243.467 5.50449 2.66112 0
M  V30 2609 H 247.641 6.48434 2.53981 0
M  V30 2610 H 245.268 7.19104 2.46565 0
M  V30 2611 N 246.843 -1.10192 1.12674 0
M  V30 2612 C 248.12 -1.78717 0.794965 0
M  V30 2613 C 248.5 -1.98628 -0.714853 0
M  V30 2614 O 247.848 -1.58135 -1.64941 0
M  V30 2615 C 248.058 -3.11546 1.5729 0
M  V30 2616 C 249.406 -3.86382 1.76052 0
M  V30 2617 O 250.43 -3.21274 1.53823 0
M  V30 2618 O 249.289 -5.03246 2.13087 0
M  V30 2619 H 246.383 -0.774702 0.289423 0
M  V30 2620 H 248.929 -1.16819 1.23091 0
M  V30 2621 H 247.701 -2.92489 2.59935 0
M  V30 2622 H 247.324 -3.81164 1.13137 0
M  V30 2623 N 248.321 -0.919034 -1.28029 0
M  V30 2624 C 249.549 -0.570971 -1.98866 0
M  V30 2625 C 249.964 0.848996 -1.68634 0
M  V30 2626 O 249.321 1.56307 -0.942036 0
M  V30 2627 C 249.372 -0.776876 -3.53054 0
M  V30 2628 O 249.093 -2.14097 -3.82222 0
M  V30 2629 C 250.594 -0.436356 -4.41147 0
M  V30 2630 H 247.814 -0.217175 -0.634883 0
M  V30 2631 H 250.358 -1.23368 -1.63097 0
M  V30 2632 H 248.513 -0.161085 -3.87065 0
M  V30 2633 H 248.927 -2.18455 -4.76841 0
M  V30 2634 H 250.401 -0.63117 -5.4838 0
M  V30 2635 H 250.878 0.627686 -4.34692 0
M  V30 2636 H 251.484 -1.02991 -4.12641 0
M  V30 2637 N 249.799 1.42003 -0.683588 0
M  V30 2638 C 251.076 1.95112 -0.138075 0
M  V30 2639 C 251.456 1.62359 1.34918 0
M  V30 2640 O 250.804 0.924311 2.08971 0
M  V30 2641 C 251.014 3.46505 -0.416581 0
M  V30 2642 C 252.362 4.23254 -0.337834 0
M  V30 2643 O 253.386 3.54468 -0.35082 0
M  V30 2644 O 252.245 5.45743 -0.287596 0
M  V30 2645 H 249.339 0.826961 -0.00797996 0
M  V30 2646 H 251.885 1.51784 -0.758924 0
M  V30 2647 H 250.657 3.63582 -1.4465 0
M  V30 2648 H 250.28 3.969 0.235839 0
M  V30 2649 N 251.277 0.427512 1.51691 0
M  V30 2650 C 252.207 -0.3796 2.30394 0
M  V30 2651 C 253.188 -1.02982 1.35384 0
M  V30 2652 O 254.373 -1.03534 1.643 0
M  V30 2653 C 251.503 -1.48649 3.1388 0
M  V30 2654 C 250.457 -0.960294 4.17088 0
M  V30 2655 C 249.783 -2.16219 4.89033 0
M  V30 2656 C 251.083 -0.00153679 5.223 0
M  V30 2657 H 252.777 0.277164 2.98114 0
M  V30 2658 H 250.323 0.134739 1.43368 0
M  V30 2659 H 252.276 -2.05826 3.67714 0
M  V30 2660 H 251 -2.1714 2.43962 0
M  V30 2661 H 249.659 -0.410806 3.64291 0
M  V30 2662 H 249.307 -2.83307 4.15628 0
M  V30 2663 H 249.007 -1.81654 5.58816 0
M  V30 2664 H 250.531 -2.73968 5.45687 0
M  V30 2665 H 251.945 -0.482687 5.71264 0
M  V30 2666 H 250.342 0.256199 5.99553 0
M  V30 2667 H 251.412 0.938174 4.75738 0
M  V30 2668 N 252.755 -1.56801 0.158532 0
M  V30 2669 C 253.983 -2.00859 -0.496303 0
M  V30 2670 C 254.398 -1.03871 -1.57659 0
M  V30 2671 O 253.755 -0.0375165 -1.82461 0
M  V30 2672 C 253.806 -3.4479 -1.08638 0
M  V30 2673 O 253.527 -4.38072 -0.0492322 0
M  V30 2674 C 255.028 -4.04185 -1.8207 0
M  V30 2675 H 252.248 -0.65864 -0.128199 0
M  V30 2676 H 254.792 -2.02885 0.256506 0
M  V30 2677 H 252.947 -3.43579 -1.78975 0
M  V30 2678 H 253.361 -5.2227 -0.483102 0
M  V30 2679 H 254.835 -5.06857 -2.18633 0
M  V30 2680 H 255.312 -3.45549 -2.71095 0
M  V30 2681 H 255.918 -4.0906 -1.16405 0
M  V30 2682 N 254.233 0.115231 -1.57178 0
M  V30 2683 C 255.196 1.12526 -1.99676 0
M  V30 2684 C 256.196 1.34095 -0.88742 0
M  V30 2685 O 257.386 1.30548 -1.15337 0
M  V30 2686 C 254.518 2.4789 -2.34015 0
M  V30 2687 H 255.711 0.759912 -2.90113 0
M  V30 2688 H 253.264 0.359648 -1.52106 0
M  V30 2689 H 253.999 2.89339 -1.4647 0
M  V30 2690 H 253.784 2.33588 -3.14927 0
M  V30 2691 H 255.274 3.20575 -2.67622 0
M  V30 2692 N 255.711 1.52812 0.385517 0
M  V30 2693 C 256.988 1.5861 1.14465 0
M  V30 2694 C 257.368 0.381402 2.07626 0
M  V30 2695 O 256.716 -0.629999 2.19643 0
M  V30 2696 C 256.926 2.92664 1.90128 0
M  V30 2697 C 258.274 3.46526 2.45367 0
M  V30 2698 O 259.298 2.94562 2.0028 0
M  V30 2699 O 258.157 4.37323 3.27736 0
M  V30 2700 H 255.251 0.639855 0.523941 0
M  V30 2701 H 257.797 1.65149 0.390389 0
M  V30 2702 H 256.569 3.71788 1.22022 0
M  V30 2703 H 256.192 2.89527 2.72507 0
M  V30 2704 N 257.189 -0.644168 1.43834 0
M  V30 2705 C 258.466 -1.40188 1.36406 0
M  V30 2706 C 258.846 -2.11094 0.0163124 0
M  V30 2707 O 258.194 -2.05426 -1.00062 0
M  V30 2708 C 258.404 -2.3791 2.55343 0
M  V30 2709 C 259.752 -3.01637 2.98832 0
M  V30 2710 O 260.776 -2.48237 2.55455 0
M  V30 2711 O 259.635 -3.98477 3.74003 0
M  V30 2712 H 256.729 -0.626773 0.539523 0
M  V30 2713 H 259.275 -0.670317 1.559 0
M  V30 2714 H 258.047 -1.84525 3.4506 0
M  V30 2715 H 257.67 -3.18503 2.37995 0
M  V30 2716 N 258.668 -1.30515 -0.883378 0
M  V30 2717 C 259.598 -1.19607 -2.00541 0
M  V30 2718 C 260.579 -0.086346 -1.69881 0
M  V30 2719 O 261.764 -0.268654 -1.92333 0
M  V30 2720 C 258.894 -0.888758 -3.35736 0
M  V30 2721 C 257.848 -1.95659 -3.8066 0
M  V30 2722 C 257.174 -1.50224 -5.13164 0
M  V30 2723 C 258.474 -3.36788 -3.99213 0
M  V30 2724 H 260.168 -2.13476 -2.09925 0
M  V30 2725 H 257.714 -1.02775 -1.00863 0
M  V30 2726 H 259.667 -0.799094 -4.13754 0
M  V30 2727 H 258.391 0.0856125 -3.26488 0
M  V30 2728 H 257.05 -2.03591 -3.04871 0
M  V30 2729 H 256.698 -0.516092 -5.00345 0
M  V30 2730 H 256.398 -2.2165 -5.44192 0
M  V30 2731 H 257.922 -1.42639 -5.93706 0
M  V30 2732 H 259.336 -3.31605 -4.67665 0
M  V30 2733 H 257.733 -4.06314 -4.41621 0
M  V30 2734 H 258.803 -3.78561 -3.03017 0
M  V30 2735 N 260.146 1.09593 -1.13257 0
M  V30 2736 C 261.093 2.1618 -0.808381 0
M  V30 2737 C 262.063 1.64517 0.228754 0
M  V30 2738 O 263.248 1.9053 0.101381 0
M  V30 2739 C 260.388 3.43973 -0.278675 0
M  V30 2740 C 259.501 4.09545 -1.37466 0
M  V30 2741 C 258.636 5.25088 -0.803479 0
M  V30 2742 C 257.675 5.82579 -1.87799 0
M  V30 2743 N 256.812 6.89486 -1.32488 0
M  V30 2744 H 261.652 2.43254 -1.72138 0
M  V30 2745 H 259.189 1.19392 -0.859294 0
M  V30 2746 H 261.147 4.17174 0.0465583 0
M  V30 2747 H 259.777 3.17223 0.597459 0
M  V30 2748 H 258.829 3.34226 -1.81652 0
M  V30 2749 H 260.141 4.48307 -2.18684 0
M  V30 2750 H 259.295 6.05178 -0.429427 0
M  V30 2751 H 258.034 4.87684 0.0397956 0
M  V30 2752 H 257.039 5.01152 -2.26113 0
M  V30 2753 H 258.264 6.22045 -2.72463 0
M  V30 2754 H 256.21 6.54064 -0.503575 0
M  V30 2755 H 256.127 7.27007 -2.07355 0
M  V30 2756 H 257.395 7.73336 -0.978336 0
M  V30 2757 N 261.624 0.925811 1.2754 0
M  V30 2758 C 262.534 0.428993 2.30644 0
M  V30 2759 C 263.55 -0.489387 1.66976 0
M  V30 2760 O 264.726 -0.372653 1.97922 0
M  V30 2761 C 261.791 -0.311967 3.45294 0
M  V30 2762 C 260.852 0.641098 4.24486 0
M  V30 2763 C 260.085 -0.0645955 5.33661 0
M  V30 2764 O 260.308 -1.28429 5.55754 0
M  V30 2765 O 259.242 0.606265 5.98839 0
M  V30 2766 H 263.068 1.28504 2.75173 0
M  V30 2767 H 260.653 0.691086 1.32455 0
M  V30 2768 H 262.535 -0.729972 4.15029 0
M  V30 2769 H 261.21 -1.14365 3.02824 0
M  V30 2770 H 260.117 1.10874 3.57292 0
M  V30 2771 H 261.45 1.43995 4.70666 0
M  V30 2772 N 263.102 -1.41638 0.69111 0
M  V30 2773 C 264.032 -2.3347 0.037248 0
M  V30 2774 C 265.013 -1.51575 -0.771947 0
M  V30 2775 O 266.198 -1.80126 -0.72582 0
M  V30 2776 C 263.328 -3.35354 -0.903064 0
M  V30 2777 C 262.282 -4.27526 -0.201288 0
M  V30 2778 C 261.608 -5.19747 -1.25565 0
M  V30 2779 C 262.908 -5.13959 0.929689 0
M  V30 2780 H 264.602 -2.88397 0.804227 0
M  V30 2781 H 262.148 -1.38669 0.388189 0
M  V30 2782 H 264.101 -3.98519 -1.36969 0
M  V30 2783 H 262.825 -2.78767 -1.70166 0
M  V30 2784 H 261.484 -3.65779 0.245265 0
M  V30 2785 H 261.132 -4.59479 -2.04666 0
M  V30 2786 H 260.832 -5.8225 -0.791128 0
M  V30 2787 H 262.356 -5.85789 -1.72288 0
M  V30 2788 H 263.77 -5.70718 0.543546 0
M  V30 2789 H 262.167 -5.85379 1.32103 0
M  V30 2790 H 263.237 -4.51389 1.77133 0
M  V30 2791 N 264.58 -0.43555 -1.51462 0
M  V30 2792 C 265.543 0.365137 -2.26273 0
M  V30 2793 C 266.543 0.951227 -1.29647 0
M  V30 2794 O 267.733 0.825958 -1.53374 0
M  V30 2795 C 264.865 1.51645 -3.05314 0
M  V30 2796 H 266.058 -0.290474 -2.9849 0
M  V30 2797 H 263.611 -0.188676 -1.55157 0
M  V30 2798 H 264.346 2.20816 -2.3751 0
M  V30 2799 H 264.131 1.10238 -3.76284 0
M  V30 2800 H 265.621 2.08218 -3.61987 0
M  V30 2801 N 266.058 1.56714 -0.166846 0
M  V30 2802 C 266.968 2.21331 0.777791 0
M  V30 2803 C 267.984 1.20358 1.25658 0
M  V30 2804 O 269.16 1.53005 1.30964 0
M  V30 2805 C 266.225 2.83787 1.99163 0
M  V30 2806 C 265.286 3.99947 1.56016 0
M  V30 2807 C 264.519 4.59415 2.71613 0
M  V30 2808 O 264.742 4.17769 3.88362 0
M  V30 2809 O 263.676 5.49359 2.45945 0
M  V30 2810 H 267.502 3.02605 0.257636 0
M  V30 2811 H 265.087 1.49275 0.0611393 0
M  V30 2812 H 266.969 3.23405 2.70161 0
M  V30 2813 H 265.644 2.05513 2.50092 0
M  V30 2814 H 264.551 3.65007 0.819809 0
M  V30 2815 H 265.884 4.79801 1.09782 0
M  V30 2816 N 267.536 -0.106894 1.57237 0
M  V30 2817 C 268.483 -1.13049 2.01217 0
M  V30 2818 C 269.453 -1.40471 0.886403 0
M  V30 2819 O 270.638 -1.52133 1.15153 0
M  V30 2820 C 267.778 -2.4487 2.43172 0
M  V30 2821 C 266.891 -2.24281 3.69218 0
M  V30 2822 C 266.026 -3.49417 4.00101 0
M  V30 2823 C 265.065 -3.24038 5.19294 0
M  V30 2824 N 264.202 -4.41409 5.45988 0
M  V30 2825 H 269.042 -0.748456 2.88448 0
M  V30 2826 H 266.579 -0.358054 1.42676 0
M  V30 2827 H 268.537 -3.21786 2.65537 0
M  V30 2828 H 267.167 -2.80944 1.58967 0
M  V30 2829 H 266.219 -1.38224 3.54398 0
M  V30 2830 H 267.531 -2.01512 4.56283 0
M  V30 2831 H 266.685 -4.34746 4.2318 0
M  V30 2832 H 265.424 -3.75229 3.11535 0
M  V30 2833 H 264.429 -2.37102 4.96047 0
M  V30 2834 H 265.654 -2.99584 6.09447 0
M  V30 2835 H 263.6 -4.67319 4.60379 0
M  V30 2836 H 263.517 -4.21788 6.274 0
M  V30 2837 H 264.785 -5.27836 5.73593 0
M  V30 2838 N 269.014 -1.53014 -0.377408 0
M  V30 2839 C 270.261 -1.68623 -1.12128 0
M  V30 2840 C 270.589 -0.431997 -1.89642 0
M  V30 2841 O 269.844 0.585855 -1.86725 0
M  V30 2842 C 270.143 -2.87982 -2.11663 0
M  V30 2843 C 269.809 -4.24964 -1.50719 0
M  V30 2844 C 268.471 -4.62217 -1.33825 0
M  V30 2845 C 270.823 -5.10199 -1.06519 0
M  V30 2846 C 268.151 -5.82352 -0.712963 0
M  V30 2847 C 270.503 -6.30969 -0.453955 0
M  V30 2848 C 269.167 -6.66944 -0.272411 0
M  V30 2849 H 268.437 -0.617034 -0.410305 0
M  V30 2850 H 271.084 -1.8718 -0.404484 0
M  V30 2851 H 269.389 -2.63889 -2.89603 0
M  V30 2852 H 271.086 -2.97253 -2.6915 0
M  V30 2853 H 267.676 -3.95626 -1.64858 0
M  V30 2854 H 271.86 -4.81978 -1.18368 0
M  V30 2855 H 267.116 -6.08824 -0.560611 0
M  V30 2856 H 271.29 -6.96324 -0.103217 0
M  V30 2857 H 268.917 -7.59898 0.214181 0
M  V30 2858 N 270.492 0.636531 -1.44174 0
M  V30 2859 C 271.439 1.74875 -1.50624 0
M  V30 2860 C 272.409 1.62275 -0.35442 0
M  V30 2861 O 273.594 1.82276 -0.563908 0
M  V30 2862 C 270.734 3.13102 -1.45125 0
M  V30 2863 C 269.847 3.36717 -2.7064 0
M  V30 2864 C 268.982 4.64885 -2.57013 0
M  V30 2865 C 268.021 4.8166 -3.77717 0
M  V30 2866 N 267.158 6.01101 -3.62798 0
M  V30 2867 H 271.998 1.68697 -2.45653 0
M  V30 2868 H 269.535 0.823004 -1.21922 0
M  V30 2869 H 271.493 3.93034 -1.39929 0
M  V30 2870 H 270.123 3.18308 -0.536671 0
M  V30 2871 H 269.175 2.50763 -2.86046 0
M  V30 2872 H 270.487 3.44993 -3.60252 0
M  V30 2873 H 269.641 5.52969 -2.49619 0
M  V30 2874 H 268.38 4.58957 -1.64953 0
M  V30 2875 H 267.385 3.92007 -3.85501 0
M  V30 2876 H 268.61 4.89406 -4.70807 0
M  V30 2877 H 266.556 5.96273 -2.73486 0
M  V30 2878 H 266.473 6.10409 -4.46023 0
M  V30 2879 H 267.741 6.91761 -3.59286 0
M  V30 2880 N 271.97 1.30982 0.876444 0
M  V30 2881 C 272.933 1.18054 1.96459 0
M  V30 2882 C 273.933 0.109399 1.60427 0
M  V30 2883 O 275.123 0.358173 1.70478 0
M  V30 2884 C 272.255 0.810616 3.31122 0
M  V30 2885 H 273.448 2.14735 2.09354 0
M  V30 2886 H 271.001 1.145 1.06392 0
M  V30 2887 H 271.736 -0.155322 3.23928 0
M  V30 2888 H 271.521 1.58481 3.58645 0
M  V30 2889 H 273.011 0.743876 4.10921 0
M  V30 2890 N 273.449 -1.08991 1.13837 0
M  V30 2891 C 274.695 -1.81526 0.90422 0
M  V30 2892 C 275.028 -1.85706 -0.568066 0
M  V30 2893 O 274.303 -1.32855 -1.42056 0
M  V30 2894 C 274.586 -3.27447 1.49835 0
M  V30 2895 C 274.439 -3.31512 3.04006 0
M  V30 2896 C 275.758 -4.24256 1.17025 0
M  V30 2897 H 272.877 -0.659029 0.329923 0
M  V30 2898 H 275.519 -1.27644 1.40737 0
M  V30 2899 H 273.669 -3.73462 1.07044 0
M  V30 2900 H 275.341 -2.93867 3.55584 0
M  V30 2901 H 273.584 -2.70963 3.38765 0
M  V30 2902 H 274.255 -4.34329 3.40679 0
M  V30 2903 H 276.731 -3.86549 1.54009 0
M  V30 2904 H 275.607 -5.24684 1.61237 0
M  V30 2905 H 275.868 -4.42019 0.0846274 0
M  V30 2906 N 274.927 -0.932562 -1.27047 0
M  V30 2907 C 276.157 -0.591173 -1.97961 0
M  V30 2908 C 276.565 0.836219 -1.69717 0
M  V30 2909 O 275.908 1.56801 -0.957036 0
M  V30 2910 C 275.97 -0.743082 -3.51736 0
M  V30 2911 C 275.634 -2.1435 -4.03613 0
M  V30 2912 C 276.631 -3.11815 -4.16014 0
M  V30 2913 C 274.316 -2.46175 -4.37839 0
M  V30 2914 C 276.31 -4.39211 -4.61923 0
M  V30 2915 C 273.997 -3.73806 -4.83438 0
M  V30 2916 C 274.995 -4.70137 -4.95439 0
M  V30 2917 O 274.683 -5.95496 -5.40037 0
M  V30 2918 H 274.415 -0.222375 -0.638377 0
M  V30 2919 H 276.969 -1.25317 -1.62742 0
M  V30 2920 H 275.199 -0.0239739 -3.86693 0
M  V30 2921 H 276.888 -0.40603 -4.03864 0
M  V30 2922 H 277.654 -2.88549 -3.89826 0
M  V30 2923 H 273.533 -1.71936 -4.27737 0
M  V30 2924 H 277.077 -5.14404 -4.71205 0
M  V30 2925 H 272.974 -3.96888 -5.09068 0
M  V30 2926 H 273.742 -5.98554 -5.58279 0
M  V30 2927 N 276.405 1.4127 -0.698611 0
M  V30 2928 C 277.352 2.30773 -0.0352094 0
M  V30 2929 C 278.322 1.47273 0.768111 0
M  V30 2930 O 279.507 1.76053 0.735524 0
M  V30 2931 C 276.647 3.33346 0.893 0
M  V30 2932 C 275.76 4.31924 0.0809695 0
M  V30 2933 C 274.895 5.21566 1.0071 0
M  V30 2934 C 273.934 6.11811 0.188155 0
M  V30 2935 N 273.071 6.93926 1.06825 0
M  V30 2936 H 277.911 2.86943 -0.804207 0
M  V30 2937 H 275.448 1.4132 -0.408294 0
M  V30 2938 H 277.406 3.91368 1.44523 0
M  V30 2939 H 276.036 2.78719 1.62836 0
M  V30 2940 H 275.088 3.75825 -0.588224 0
M  V30 2941 H 276.4 4.95716 -0.553801 0
M  V30 2942 H 275.554 5.84437 1.62845 0
M  V30 2943 H 274.293 4.58008 1.67572 0
M  V30 2944 H 273.298 5.47986 -0.446254 0
M  V30 2945 H 274.523 6.77425 -0.476716 0
M  V30 2946 H 272.469 6.32973 1.72283 0
M  V30 2947 H 272.386 7.54416 0.489123 0
M  V30 2948 H 273.654 7.61262 1.67632 0
M  V30 2949 N 277.883 0.443576 1.51229 0
M  V30 2950 C 278.793 -0.370721 2.31652 0
M  V30 2951 C 279.809 -1.02186 1.40833 0
M  V30 2952 O 280.985 -1.01586 1.73903 0
M  V30 2953 C 278.05 -1.45376 3.14749 0
M  V30 2954 C 277.111 -0.822099 4.21355 0
M  V30 2955 C 276.344 -1.85353 5.0048 0
M  V30 2956 O 276.567 -3.07656 4.80316 0
M  V30 2957 O 275.501 -1.4406 5.84406 0
M  V30 2958 H 279.327 0.286002 3.0235 0
M  V30 2959 H 276.912 0.20598 1.47973 0
M  V30 2960 H 278.794 -2.08173 3.66391 0
M  V30 2961 H 277.469 -2.09445 2.46809 0
M  V30 2962 H 276.376 -0.155909 3.73775 0
M  V30 2963 H 277.709 -0.224797 4.91686 0
M  V30 2964 N 279.361 -1.56624 0.175154 0
M  V30 2965 C 280.324 -2.16934 -0.739738 0
M  V30 2966 C 281.324 -1.11842 -1.15533 0
M  V30 2967 O 282.514 -1.37335 -1.07167 0
M  V30 2968 C 279.646 -2.75531 -2.00738 0
M  V30 2969 H 280.839 -2.99131 -0.214639 0
M  V30 2970 H 278.392 -1.56123 -0.0744197 0
M  V30 2971 H 279.127 -1.97078 -2.57548 0
M  V30 2972 H 278.912 -3.52444 -1.71831 0
M  V30 2973 H 280.402 -3.21904 -2.66021 0
M  V30 2974 N 280.839 0.0985539 -1.57292 0
M  V30 2975 C 281.772 1.15082 -1.97057 0
M  V30 2976 C 282.75 1.39025 -0.843255 0
M  V30 2977 O 283.934 1.52842 -1.10325 0
M  V30 2978 C 281.061 2.50069 -2.28437 0
M  V30 2979 C 280.107 2.42428 -3.509 0
M  V30 2980 S 280.94 1.84414 -5.02744 0
M  V30 2981 C 282.096 3.21032 -5.37298 0
M  V30 2982 H 282.329 0.811815 -2.86002 0
M  V30 2983 H 279.862 0.306102 -1.51335 0
M  V30 2984 H 281.82 3.27729 -2.47192 0
M  V30 2985 H 280.481 2.8114 -1.40069 0
M  V30 2986 H 279.674 3.41911 -3.70288 0
M  V30 2987 H 279.276 1.72896 -3.31637 0
M  V30 2988 H 281.568 4.17297 -5.33731 0
M  V30 2989 H 282.511 3.06452 -6.38352 0
M  V30 2990 H 282.919 3.20404 -4.64759 0
M  V30 2991 N 282.317 1.53212 0.369288 0
M  V30 2992 C 283.265 1.80054 1.47253 0
M  V30 2993 C 284.259 0.669456 1.55611 0
M  V30 2994 O 285.465 0.852328 1.58541 0
M  V30 2995 H 281.84 0.570034 0.490475 0
M  V30 2996 H 283.811 2.72403 1.21817 0
M  V30 2997 C 282.56 2.00403 2.84137 0
M  V30 2998 H 281.883 2.86876 2.78464 0
M  V30 2999 H 283.323 2.23164 3.60519 0
M  V30 3000 C 281.782 0.782081 3.27697 0
M  V30 3001 O 282.312 -0.0310205 4.01688 0
M  V30 3002 N 280.518 0.606573 2.84199 0
M  V30 3003 H 280.065 1.26939 2.24152 0
M  V30 3004 H 280.023 -0.20962 3.137 0
M  V30 3005 N 283.795 -0.628877 1.44509 0
M  V30 3006 C 285.043 -1.38565 1.4712 0
M  V30 3007 C 285.364 -1.94712 0.105899 0
M  V30 3008 O 284.634 -1.75912 -0.862079 0
M  V30 3009 H 283.214 -0.514333 0.541729 0
M  V30 3010 H 285.876 -0.740018 1.80305 0
M  V30 3011 H 284.972 -2.21583 2.19789 0
M  V30 3012 N 285.273 -1.31445 -0.869486 0
M  V30 3013 C 286.183 -1.21097 -2.0093 0
M  V30 3014 C 287.199 -0.127584 -1.73532 0
M  V30 3015 O 288.375 -0.345477 -1.98415 0
M  V30 3016 C 285.44 -0.919378 -3.34288 0
M  V30 3017 C 284.501 -2.08971 -3.75006 0
M  V30 3018 C 283.734 -1.81194 -5.02001 0
M  V30 3019 O 283.957 -0.747296 -5.65484 0
M  V30 3020 O 282.891 -2.66883 -5.39497 0
M  V30 3021 H 286.717 -2.16883 -2.12592 0
M  V30 3022 H 284.302 -1.11189 -0.997868 0
M  V30 3023 H 286.184 -0.772625 -4.14257 0
M  V30 3024 H 284.859 0.00844772 -3.23699 0
M  V30 3025 H 283.766 -2.29187 -2.95676 0
M  V30 3026 H 285.099 -2.9998 -3.90221 0
M  V30 3027 N 286.751 1.08385 -1.14413 0
M  V30 3028 C 287.661 2.18856 -0.844951 0
M  V30 3029 C 288.677 1.73121 0.174668 0
M  V30 3030 O 289.853 2.014 0.00312857 0
M  V30 3031 C 286.918 3.45155 -0.32696 0
M  V30 3032 C 285.979 4.05513 -1.40916 0
M  V30 3033 C 285.212 5.25784 -0.915793 0
M  V30 3034 O 285.435 5.69884 0.242651 0
M  V30 3035 O 284.369 5.77545 -1.69487 0
M  V30 3036 H 288.195 2.46919 -1.76818 0
M  V30 3037 H 285.78 1.17524 -0.922411 0
M  V30 3038 H 287.662 4.21377 -0.0440211 0
M  V30 3039 H 286.337 3.18668 0.568539 0
M  V30 3040 H 285.244 3.30879 -1.74556 0
M  V30 3041 H 286.577 4.3625 -2.27919 0
M  V30 3042 N 288.23 0.939286 1.26551 0
M  V30 3043 C 289.477 0.585847 1.9384 0
M  V30 3044 C 289.805 -0.874784 1.73718 0
M  V30 3045 O 289.06 -1.64092 1.06642 0
M  V30 3046 C 289.359 0.872106 3.46596 0
M  V30 3047 C 289.025 2.31632 3.86856 0
M  V30 3048 C 287.687 2.71111 3.97558 0
M  V30 3049 C 290.039 3.25494 4.07066 0
M  V30 3050 C 287.367 4.03553 4.25866 0
M  V30 3051 C 289.719 4.57531 4.36862 0
M  V30 3052 C 288.383 4.96828 4.45778 0
M  V30 3053 H 287.653 0.214377 0.709312 0
M  V30 3054 H 290.3 1.18544 1.50398 0
M  V30 3055 H 288.605 0.18996 3.91339 0
M  V30 3056 H 290.302 0.577442 3.96821 0
M  V30 3057 H 286.892 2.00008 3.79071 0
M  V30 3058 H 291.076 2.9619 3.98227 0
M  V30 3059 H 286.332 4.33665 4.30981 0
M  V30 3060 H 290.506 5.30254 4.51446 0
M  V30 3061 H 288.133 5.99482 4.67468 0
M  V30 3062 N 289.708 -1.40897 0.706093 0
M  V30 3063 C 291.119 -1.84023 0.315052 0
M  V30 3064 C 291.47 -1.5906 -1.14866 0
M  V30 3065 O 290.595 -1.06651 -1.88293 0
M  V30 3066 C 291.19 -3.34055 0.565038 0
M  V30 3067 C 289.749 -3.7571 0.227806 0
M  V30 3068 C 288.896 -2.64204 0.842122 0
M  V30 3069 H 291.847 -1.303 0.905963 0
M  V30 3070 H 291.868 -3.80107 -0.172843 0
M  V30 3071 H 291.38 -3.52192 1.63042 0
M  V30 3072 H 289.481 -3.63172 -0.832895 0
M  V30 3073 H 289.594 -4.74103 0.690174 0
M  V30 3074 H 287.958 -2.53255 0.270893 0
M  V30 3075 H 288.741 -2.85155 1.91158 0
M  V30 3076 N 291.186 -0.45159 -1.50991 0
M  V30 3077 C 292.118 0.388634 -2.25881 0
M  V30 3078 C 293.131 0.974041 -1.30446 0
M  V30 3079 O 294.32 0.865758 -1.56099 0
M  V30 3080 C 291.42 1.5571 -3.01011 0
M  V30 3081 C 290.593 1.08801 -4.23652 0
M  V30 3082 C 289.652 2.12825 -4.8124 0
M  V30 3083 O 288.678 1.71678 -5.42693 0
M  V30 3084 N 289.88 3.45453 -4.66522 0
M  V30 3085 H 292.645 -0.25329 -2.98628 0
M  V30 3086 H 290.206 -0.281268 -1.59438 0
M  V30 3087 H 292.198 2.24952 -3.3642 0
M  V30 3088 H 290.768 2.10409 -2.31186 0
M  V30 3089 H 289.988 0.22215 -3.93574 0
M  V30 3090 H 291.276 0.752213 -5.03209 0
M  V30 3091 H 290.674 3.81605 -4.17605 0
M  V30 3092 H 289.231 4.10549 -5.06254 0
M  V30 3093 N 292.664 1.56529 -0.183458 0
M  V30 3094 C 293.574 2.22144 0.754272 0
M  V30 3095 C 294.59 1.21684 1.24374 0
M  V30 3096 O 295.766 1.54385 1.29333 0
M  V30 3097 C 292.831 2.85884 1.96141 0
M  V30 3098 C 291.892 4.01579 1.51765 0
M  V30 3099 C 291.125 4.6227 2.66725 0
M  V30 3100 O 291.348 4.21865 3.83909 0
M  V30 3101 O 290.282 5.51936 2.40104 0
M  V30 3102 H 294.108 3.02861 0.225527 0
M  V30 3103 H 291.693 1.49331 0.0453032 0
M  V30 3104 H 293.575 3.26253 2.66715 0
M  V30 3105 H 292.25 2.08154 2.47899 0
M  V30 3106 H 291.157 3.65856 0.781049 0
M  V30 3107 H 292.49 4.80938 1.04686 0
M  V30 3108 N 294.142 -0.090211 1.57342 0
M  V30 3109 C 295.553 -0.644173 1.75235 0
M  V30 3110 C 295.904 -1.78865 0.806335 0
M  V30 3111 O 295.029 -2.16395 -0.0140128 0
M  V30 3112 C 295.624 -1.17532 3.1776 0
M  V30 3113 C 294.183 -1.67531 3.37061 0
M  V30 3114 C 293.33 -0.58693 2.71017 0
M  V30 3115 H 296.281 0.135884 1.58117 0
M  V30 3116 H 296.302 -2.04455 3.20902 0
M  V30 3117 H 295.814 -0.342138 3.86589 0
M  V30 3118 H 293.915 -2.53234 2.73319 0
M  V30 3119 H 294.028 -1.76493 4.45406 0
M  V30 3120 H 292.392 -1.02756 2.33052 0
M  V30 3121 H 293.175 0.235758 3.4249 0
M  V30 3122 N 295.62 -1.53406 -0.361157 0
M  V30 3123 C 296.567 -1.80156 -1.44265 0
M  V30 3124 C 297.537 -0.646183 -1.53015 0
M  V30 3125 O 298.722 -0.888818 -1.68833 0
M  V30 3126 C 295.862 -2.00116 -2.81154 0
M  V30 3127 C 294.975 -3.27833 -2.81335 0
M  V30 3128 C 294.11 -3.37957 -4.09828 0
M  V30 3129 C 293.149 -4.59689 -4.04168 0
M  V30 3130 N 292.286 -4.66942 -5.24318 0
M  V30 3131 H 297.126 -2.72438 -1.20754 0
M  V30 3132 H 294.663 -1.34954 -0.585296 0
M  V30 3133 H 296.621 -2.09677 -3.60682 0
M  V30 3134 H 295.251 -1.11167 -3.03054 0
M  V30 3135 H 294.303 -3.27204 -1.94014 0
M  V30 3136 H 295.615 -4.17442 -2.73027 0
M  V30 3137 H 294.769 -3.46853 -4.97773 0
M  V30 3138 H 293.508 -2.46372 -4.20894 0
M  V30 3139 H 292.513 -4.50889 -3.14609 0
M  V30 3140 H 293.738 -5.5262 -3.947 0
M  V30 3141 H 291.684 -3.7826 -5.35962 0
M  V30 3142 H 291.601 -5.50462 -5.18197 0
M  V30 3143 H 292.869 -4.80127 -6.14084 0
M  V30 3144 N 297.098 0.621204 -1.44841 0
M  V30 3145 C 298.375 1.38 -1.38619 0
M  V30 3146 C 298.755 2.11041 -0.0498935 0
M  V30 3147 O 298.103 2.06992 0.967816 0
M  V30 3148 C 298.313 2.33817 -2.59096 0
M  V30 3149 C 299.661 2.96844 -3.03593 0
M  V30 3150 O 300.685 2.44141 -2.59371 0
M  V30 3151 O 299.544 3.92476 -3.80296 0
M  V30 3152 H 296.638 0.61811 -0.549426 0
M  V30 3153 H 299.184 0.645429 -1.56947 0
M  V30 3154 H 297.956 1.79012 -3.47952 0
M  V30 3155 H 297.579 3.14676 -2.43032 0
M  V30 3156 N 298.576 1.31904 0.862503 0
M  V30 3157 C 299.508 1.16005 1.97675 0
M  V30 3158 C 300.521 0.0971234 1.6251 0
M  V30 3159 O 301.71 0.345337 1.75128 0
M  V30 3160 C 298.81 0.751791 3.30456 0
M  V30 3161 C 297.983 1.90133 3.93914 0
M  V30 3162 C 297.042 1.4779 5.05019 0
M  V30 3163 O 296.068 2.18872 5.25437 0
M  V30 3164 N 297.27 0.369491 5.79323 0
M  V30 3165 H 300.035 2.11982 2.11857 0
M  V30 3166 H 297.596 1.24337 1.03691 0
M  V30 3167 H 299.588 0.451084 4.02178 0
M  V30 3168 H 298.158 -0.116593 3.12382 0
M  V30 3169 H 297.378 2.36896 3.15078 0
M  V30 3170 H 298.666 2.67111 4.33047 0
M  V30 3171 H 298.064 -0.222299 5.65263 0
M  V30 3172 H 296.621 0.128354 6.51674 0
M  V30 3173 N 300.054 -1.07777 1.14986 0
M  V30 3174 C 300.984 -2.16865 0.865557 0
M  V30 3175 C 301.965 -1.69123 -0.182083 0
M  V30 3176 O 303.15 -1.94164 -0.0373815 0
M  V30 3177 C 300.28 -3.45539 0.349313 0
M  V30 3178 C 299.234 -4.06708 1.33313 0
M  V30 3179 C 298.56 -5.30411 0.675918 0
M  V30 3180 C 299.86 -4.47241 2.69764 0
M  V30 3181 H 301.554 -2.40905 1.77778 0
M  V30 3182 H 299.1 -1.15781 0.856203 0
M  V30 3183 H 301.053 -4.21174 0.137983 0
M  V30 3184 H 299.777 -3.21072 -0.598362 0
M  V30 3185 H 298.436 -3.33112 1.53075 0
M  V30 3186 H 298.084 -5.02232 -0.277767 0
M  V30 3187 H 297.784 -5.72293 1.33244 0
M  V30 3188 H 299.308 -6.08755 0.474262 0
M  V30 3189 H 300.722 -5.14025 2.53873 0
M  V30 3190 H 299.119 -5.00062 3.3175 0
M  V30 3191 H 300.189 -3.58818 3.26156 0
M  V30 3192 N 301.532 -0.945985 -1.26051 0
M  V30 3193 C 302.465 -0.403619 -2.24602 0
M  V30 3194 C 303.443 0.510241 -1.54387 0
M  V30 3195 O 304.627 0.446593 -1.83133 0
M  V30 3196 C 301.754 0.419564 -3.36091 0
M  V30 3197 C 300.8 -0.433454 -4.24292 0
M  V30 3198 S 301.633 -1.86037 -5.02146 0
M  V30 3199 C 302.789 -1.04538 -6.17108 0
M  V30 3200 H 303.022 -1.23883 -2.7026 0
M  V30 3201 H 300.555 -0.749438 -1.34992 0
M  V30 3202 H 302.513 0.888595 -4.00767 0
M  V30 3203 H 301.174 1.22951 -2.89036 0
M  V30 3204 H 300.367 0.197486 -5.03613 0
M  V30 3205 H 299.969 -0.837357 -3.64506 0
M  V30 3206 H 302.261 -0.289923 -6.76879 0
M  V30 3207 H 303.204 -1.81222 -6.84518 0
M  V30 3208 H 303.612 -0.579319 -5.61519 0
M  V30 3209 N 303.011 1.40521 -0.713556 0
M  V30 3210 C 304.259 2.00527 -0.251692 0
M  V30 3211 C 304.58 1.56857 1.15848 0
M  V30 3212 O 303.85 0.807127 1.785 0
M  V30 3213 H 302.43 0.741551 -0.0900646 0
M  V30 3214 H 305.092 1.71887 -0.918733 0
M  V30 3215 H 304.188 3.10813 -0.283192 0
M  V30 3216 N 304.489 0.459591 1.5075 0
M  V30 3217 C 305.452 -0.329093 2.26825 0
M  V30 3218 C 306.452 -0.930481 1.31144 0
M  V30 3219 O 307.642 -0.801453 1.54669 0
M  V30 3220 C 304.774 -1.46768 3.07688 0
M  V30 3221 H 305.967 0.337924 2.9799 0
M  V30 3222 H 303.52 0.213336 1.54837 0
M  V30 3223 H 304.255 -2.17009 2.40993 0
M  V30 3224 H 304.04 -1.04238 3.77991 0
M  V30 3225 H 305.53 -2.02433 3.65254 0
M  V30 3226 N 305.967 -1.56429 0.191757 0
M  V30 3227 C 307.213 -1.97777 -0.448554 0
M  V30 3228 C 307.546 -1.07847 -1.61501 0
M  V30 3229 O 306.821 -0.129774 -1.94067 0
M  V30 3230 C 307.104 -3.48362 -0.911906 0
M  V30 3231 C 306.957 -4.4907 0.256136 0
M  V30 3232 C 308.276 -4.02561 -1.77857 0
M  V30 3233 H 305.395 -0.719071 -0.161572 0
M  V30 3234 H 308.037 -1.87896 0.282007 0
M  V30 3235 H 306.187 -3.56914 -1.53442 0
M  V30 3236 H 307.859 -4.5256 0.893733 0
M  V30 3237 H 306.102 -4.24181 0.908436 0
M  V30 3238 H 306.773 -5.51889 -0.11053 0
M  V30 3239 H 309.249 -3.96767 -1.25359 0
M  V30 3240 H 308.125 -5.08301 -2.07174 0
M  V30 3241 H 308.386 -3.47616 -2.73158 0
M  V30 3242 N 307.445 0.0818655 -1.57387 0
M  V30 3243 C 308.392 1.09834 -2.0299 0
M  V30 3244 C 309.362 1.39043 -0.908639 0
M  V30 3245 O 310.547 1.50282 -1.17559 0
M  V30 3246 C 307.687 2.40971 -2.47037 0
M  V30 3247 C 306.8 2.18379 -3.7274 0
M  V30 3248 C 305.935 3.43008 -4.0561 0
M  V30 3249 C 304.974 3.15736 -5.24383 0
M  V30 3250 N 304.111 4.32667 -5.52941 0
M  V30 3251 H 308.951 0.702472 -2.89602 0
M  V30 3252 H 306.488 0.33531 -1.43227 0
M  V30 3253 H 308.446 3.1752 -2.70623 0
M  V30 3254 H 307.076 2.78379 -1.63417 0
M  V30 3255 H 306.128 1.32569 -3.56552 0
M  V30 3256 H 307.44 1.94227 -4.59431 0
M  V30 3257 H 306.594 4.27958 -4.30043 0
M  V30 3258 H 305.333 3.70225 -3.17466 0
M  V30 3259 H 304.338 2.2918 -4.99757 0
M  V30 3260 H 305.563 2.8985 -6.14136 0
M  V30 3261 H 303.509 4.59935 -4.67756 0
M  V30 3262 H 303.426 4.11753 -6.34031 0
M  V30 3263 H 304.694 5.18644 -5.81918 0
M  V30 3264 N 308.923 1.53595 0.353017 0
M  V30 3265 C 309.886 1.80232 1.41594 0
M  V30 3266 C 310.886 0.673081 1.46035 0
M  V30 3267 O 312.076 0.941335 1.46576 0
M  V30 3268 C 309.208 1.93578 2.80607 0
M  V30 3269 H 310.401 2.75174 1.19244 0
M  V30 3270 H 307.954 1.44864 0.586872 0
M  V30 3271 H 308.689 1.00746 3.08254 0
M  V30 3272 H 308.474 2.75724 2.78781 0
M  V30 3273 H 309.964 2.15735 3.57558 0
M  V30 3274 N 310.401 -0.613514 1.45168 0
M  V30 3275 C 311.647 -1.37471 1.49096 0
M  V30 3276 C 311.98 -1.93765 0.129901 0
M  V30 3277 O 311.255 -1.74707 -0.854858 0
M  V30 3278 C 311.538 -2.52701 2.56542 0
M  V30 3279 C 311.391 -2.01643 4.0207 0
M  V30 3280 C 312.71 -3.54849 2.60327 0
M  V30 3281 H 309.829 -0.498502 0.54283 0
M  V30 3282 H 312.471 -0.692125 1.76945 0
M  V30 3283 H 310.621 -3.10931 2.32926 0
M  V30 3284 H 312.293 -1.48108 4.36877 0
M  V30 3285 H 310.536 -1.32688 4.13009 0
M  V30 3286 H 311.207 -2.84681 4.72928 0
M  V30 3287 H 313.683 -3.0645 2.81474 0
M  V30 3288 H 312.559 -4.32973 3.37381 0
M  V30 3289 H 312.82 -4.10079 1.6519 0
M  V30 3290 N 311.879 -1.3236 -0.855495 0
M  V30 3291 C 313.126 -1.22872 -1.60962 0
M  V30 3292 C 313.454 0.209658 -1.93367 0
M  V30 3293 O 312.709 1.16243 -1.57436 0
M  V30 3294 C 313.008 -2.03275 -2.93963 0
M  V30 3295 C 312.674 -3.5264 -2.80991 0
M  V30 3296 C 311.336 -3.93364 -2.7716 0
M  V30 3297 C 313.688 -4.47626 -2.66983 0
M  V30 3298 C 311.016 -5.27319 -2.572 0
M  V30 3299 C 313.368 -5.81723 -2.48558 0
M  V30 3300 C 312.032 -6.2165 -2.4312 0
M  V30 3301 H 311.302 -0.44962 -0.589001 0
M  V30 3302 H 313.949 -1.63777 -0.992442 0
M  V30 3303 H 312.254 -1.55095 -3.59795 0
M  V30 3304 H 313.951 -1.93303 -3.51333 0
M  V30 3305 H 310.541 -3.20295 -2.84797 0
M  V30 3306 H 314.725 -4.17084 -2.68988 0
M  V30 3307 H 309.981 -5.57311 -2.51424 0
M  V30 3308 H 314.155 -6.5494 -2.36699 0
M  V30 3309 H 311.782 -7.25388 -2.27412 0
M  V30 3310 N 313.357 1.07166 -1.15556 0
M  V30 3311 C 314.773 1.31899 -0.898603 0
M  V30 3312 C 314.973 1.96333 0.453383 0
M  V30 3313 O 314.029 2.22438 1.19489 0
M  V30 3314 C 315.342 2.20826 -2.04099 0
M  V30 3315 C 316.89 2.34269 -2.07574 0
M  V30 3316 C 317.365 3.26546 -3.21141 0
M  V30 3317 N 318.856 3.34127 -3.20801 0
M  V30 3318 C 319.591 4.05595 -4.05315 0
M  V30 3319 N 319.087 4.79661 -4.99897 0
M  V30 3320 N 320.88 4.01555 -3.93332 0
M  V30 3321 H 313.031 0.637302 -2.02613 0
M  V30 3322 H 315.294 0.343468 -0.883591 0
M  V30 3323 H 315 1.80744 -3.01703 0
M  V30 3324 H 314.874 3.21364 -1.97496 0
M  V30 3325 H 317.261 2.73603 -1.10568 0
M  V30 3326 H 317.342 1.33429 -2.18244 0
M  V30 3327 H 316.986 2.87931 -4.184 0
M  V30 3328 H 316.916 4.27345 -3.07708 0
M  V30 3329 H 319.407 2.81336 -2.52306 0
M  V30 3330 H 319.72 5.31694 -5.60822 0
M  V30 3331 H 318.065 4.78671 -5.03884 0
M  V30 3332 H 321.256 3.42806 -3.18751 0
M  V30 3333 H 321.429 4.56987 -4.5942 0
M  V30 3334 N 314.835 0.952656 1.25548 0
M  V30 3335 C 316.06 0.623025 1.97821 0
M  V30 3336 C 316.485 -0.7976 1.70352 0
M  V30 3337 O 315.843 -1.53905 0.958283 0
M  V30 3338 C 315.891 0.885532 3.49558 0
M  V30 3339 O 314.995 -0.0366641 4.12384 0
M  V30 3340 H 314.336 0.237082 0.620232 0
M  V30 3341 H 316.866 1.27871 1.59719 0
M  V30 3342 H 316.876 0.811009 3.99858 0
M  V30 3343 H 315.551 1.92094 3.6888 0
M  V30 3344 H 314.128 0.0898954 3.72792 0
M  V30 3345 N 316.313 -1.40141 0.720998 0
M  V30 3346 C 317.559 -2.01572 0.272075 0
M  V30 3347 C 317.914 -1.5616 -1.12391 0
M  V30 3348 O 317.207 -0.774198 -1.75262 0
M  V30 3349 C 317.401 -3.56165 0.296892 0
M  V30 3350 C 317.23 -4.16584 1.69375 0
M  V30 3351 C 316 -4.49783 2.30269 0
M  V30 3352 C 318.198 -4.41076 2.64493 0
M  V30 3353 N 316.18 -4.95626 3.62254 0
M  V30 3354 C 317.551 -4.88971 3.81192 0
M  V30 3355 C 319.606 -4.23122 2.62435 0
M  V30 3356 C 318.309 -5.20796 4.96149 0
M  V30 3357 C 320.335 -4.56052 3.76524 0
M  V30 3358 C 319.697 -5.04141 4.91956 0
M  V30 3359 H 315.796 -0.768343 0.145511 0
M  V30 3360 H 318.38 -1.70287 0.943959 0
M  V30 3361 H 316.551 -3.86868 -0.344578 0
M  V30 3362 H 318.283 -4.04346 -0.169254 0
M  V30 3363 H 315.038 -4.37101 1.82318 0
M  V30 3364 H 315.462 -5.22923 4.29977 0
M  V30 3365 H 320.104 -3.85158 1.74393 0
M  V30 3366 H 317.822 -5.57672 5.84831 0
M  V30 3367 H 321.408 -4.43796 3.76213 0
M  V30 3368 H 320.288 -5.29142 5.78774 0
M  V30 3369 N 317.792 -0.46758 -1.50504 0
M  V30 3370 C 319.069 0.15003 -1.95024 0
M  V30 3371 C 319.449 1.57304 -1.40779 0
M  V30 3372 O 318.797 2.20281 -0.607319 0
M  V30 3373 C 319.007 0.0969324 -3.48865 0
M  V30 3374 C 320.355 0.287565 -4.23625 0
M  V30 3375 O 321.379 0.173678 -3.55776 0
M  V30 3376 O 320.238 0.517186 -5.44047 0
M  V30 3377 H 317.332 0.113582 -0.819163 0
M  V30 3378 H 319.878 -0.52773 -1.61286 0
M  V30 3379 H 318.65 -0.896732 -3.80886 0
M  V30 3380 H 318.273 0.816303 -3.8913 0
M  V30 3381 N 319.27 1.56325 -0.20005 0
M  V30 3382 C 320.218 2.20666 0.735482 0
M  V30 3383 C 321.212 1.17934 1.21605 0
M  V30 3384 O 322.418 1.36068 1.17837 0
M  V30 3385 H 318.793 0.70725 0.255542 0
M  V30 3386 H 320.764 2.9792 0.169166 0
M  V30 3387 C 319.513 2.88391 1.94232 0
M  V30 3388 H 318.836 3.67185 1.58161 0
M  V30 3389 H 320.276 3.3684 2.57517 0
M  V30 3390 C 318.735 1.89692 2.78421 0
M  V30 3391 O 319.265 1.40032 3.76502 0
M  V30 3392 N 317.471 1.57813 2.44015 0
M  V30 3393 H 317.018 1.9839 1.64314 0
M  V30 3394 H 316.976 0.920325 3.00628 0
M  V30 3395 N 320.748 -0.0735177 1.57428 0
M  V30 3396 C 322.159 -0.625551 1.75908 0
M  V30 3397 C 322.51 -1.78 0.825261 0
M  V30 3398 O 321.635 -2.16398 0.00893964 0
M  V30 3399 C 322.23 -1.14155 3.18989 0
M  V30 3400 C 320.789 -1.63946 3.38819 0
M  V30 3401 C 319.936 -0.558151 2.71625 0
M  V30 3402 H 322.887 0.152647 1.57964 0
M  V30 3403 H 322.908 -2.0104 3.23053 0
M  V30 3404 H 322.42 -0.301116 3.8693 0
M  V30 3405 H 320.521 -2.50321 2.7599 0
M  V30 3406 H 320.634 -1.71759 4.47253 0
M  V30 3407 H 318.998 -1.00278 2.34129 0
M  V30 3408 H 319.781 0.272071 3.4222 0
M  V30 3409 N 322.226 -1.5378 -0.344866 0
M  V30 3410 C 323.642 -1.44015 -0.687888 0
M  V30 3411 C 323.842 -0.595834 -1.92489 0
M  V30 3412 O 322.898 -0.0863064 -2.52352 0
M  V30 3413 C 324.211 -2.87481 -0.881758 0
M  V30 3414 C 325.759 -2.97247 -0.980459 0
M  V30 3415 C 326.234 -4.41819 -1.20665 0
M  V30 3416 N 327.725 -4.45339 -1.27389 0
M  V30 3417 C 328.46 -5.54333 -1.46639 0
M  V30 3418 N 327.956 -6.73335 -1.63071 0
M  V30 3419 N 329.749 -5.41944 -1.49176 0
M  V30 3420 H 321.9 -2.07169 0.468475 0
M  V30 3421 H 324.163 -0.93643 0.147655 0
M  V30 3422 H 323.869 -3.51672 -0.0443444 0
M  V30 3423 H 323.743 -3.32352 -1.78388 0
M  V30 3424 H 326.13 -2.33197 -1.8084 0
M  V30 3425 H 326.211 -2.5574 -0.0552713 0
M  V30 3426 H 325.855 -5.06449 -0.383652 0
M  V30 3427 H 325.785 -4.80917 -2.14539 0
M  V30 3428 H 328.276 -3.59585 -1.1622 0
M  V30 3429 H 328.589 -7.52165 -1.77391 0
M  V30 3430 H 326.934 -6.76282 -1.60209 0
M  V30 3431 H 330.125 -4.47932 -1.3592 0
M  V30 3432 H 330.298 -6.26946 -1.63837 0
M  V30 3433 N 323.704 0.605807 -1.45491 0
M  V30 3434 C 324.667 1.69836 -1.5391 0
M  V30 3435 C 325.667 1.55261 -0.418424 0
M  V30 3436 O 326.857 1.60296 -0.681965 0
M  V30 3437 C 323.989 3.09117 -1.43734 0
M  V30 3438 H 325.182 1.63738 -2.51257 0
M  V30 3439 H 322.735 0.821689 -1.32959 0
M  V30 3440 H 323.47 3.20791 -0.475788 0
M  V30 3441 H 323.255 3.21104 -2.25021 0
M  V30 3442 H 324.745 3.88696 -1.52661 0
M  V30 3443 N 325.182 1.32811 0.848464 0
M  V30 3444 C 326.431 1.23075 1.59798 0
M  V30 3445 C 326.744 -0.204419 1.94529 0
M  V30 3446 O 327.95 -0.423701 2.68173 0
M  V30 3447 C 326.406 2.15594 2.88179 0
M  V30 3448 C 326.014 3.64228 2.60849 0
M  V30 3449 C 327.758 2.14709 3.66197 0
M  V30 3450 C 325.665 4.48689 3.85269 0
M  V30 3451 H 324.595 0.457091 0.599653 0
M  V30 3452 H 327.246 1.57813 0.936342 0
M  V30 3453 H 325.628 1.73778 3.55833 0
M  V30 3454 H 326.802 4.14424 2.01467 0
M  V30 3455 H 325.117 3.67306 1.96151 0
M  V30 3456 H 327.714 2.75046 4.58534 0
M  V30 3457 H 328.057 1.13966 4.00397 0
M  V30 3458 H 328.59 2.54837 3.05455 0
M  V30 3459 H 325.329 5.5027 3.56207 0
M  V30 3460 H 324.849 4.03241 4.44024 0
M  V30 3461 H 326.528 4.62006 4.52946 0
M  V30 3462 N 326.66 -1.06551 1.16123 0
M  V30 3463 C 327.906 -1.79567 0.94252 0
M  V30 3464 C 328.239 -1.86869 -0.528547 0
M  V30 3465 O 327.514 -1.35838 -1.39206 0
M  V30 3466 C 327.797 -3.24195 1.56747 0
M  V30 3467 C 327.65 -3.24989 3.10969 0
M  V30 3468 C 328.969 -4.21678 1.25998 0
M  V30 3469 H 326.088 -0.651883 0.343828 0
M  V30 3470 H 328.73 -1.2463 1.43413 0
M  V30 3471 H 326.88 -3.71107 1.14942 0
M  V30 3472 H 328.552 -2.86258 3.61737 0
M  V30 3473 H 326.795 -2.63716 3.44436 0
M  V30 3474 H 327.466 -4.27005 3.49815 0
M  V30 3475 H 329.942 -3.83196 1.62174 0
M  V30 3476 H 328.818 -5.21146 1.7233 0
M  V30 3477 H 329.079 -4.4174 0.178367 0
M  V30 3478 N 328.138 -0.959301 -1.25041 0
M  V30 3479 C 329.368 -0.63303 -1.96663 0
M  V30 3480 C 329.776 0.800031 -1.71453 0
M  V30 3481 O 329.119 1.54736 -0.99008 0
M  V30 3482 C 329.181 -0.817523 -3.50081 0
M  V30 3483 C 328.845 -2.22863 -3.98975 0
M  V30 3484 C 329.842 -3.20569 -4.09306 0
M  V30 3485 C 327.527 -2.55407 -4.32519 0
M  V30 3486 C 329.521 -4.4891 -4.52503 0
M  V30 3487 C 327.208 -3.83976 -4.754 0
M  V30 3488 C 328.206 -4.8054 -4.85356 0
M  V30 3489 O 327.894 -6.06817 -5.27284 0
M  V30 3490 H 327.626 -0.235866 -0.633516 0
M  V30 3491 H 330.18 -1.2874 -1.60047 0
M  V30 3492 H 328.41 -0.105992 -3.86555 0
M  V30 3493 H 330.099 -0.491604 -4.02912 0
M  V30 3494 H 330.865 -2.96753 -3.83618 0
M  V30 3495 H 326.744 -1.8097 -4.23994 0
M  V30 3496 H 330.288 -5.24283 -4.60188 0
M  V30 3497 H 326.185 -4.07596 -5.00535 0
M  V30 3498 H 326.953 -6.10262 -5.45457 0
M  V30 3499 N 329.616 1.39756 -0.72842 0
M  V30 3500 C 331.032 1.5442 -0.403308 0
M  V30 3501 C 331.232 1.69694 1.08656 0
M  V30 3502 O 330.288 1.69373 1.87267 0
M  V30 3503 C 331.601 2.76555 -1.18058 0
M  V30 3504 C 333.149 2.90384 -1.16815 0
M  V30 3505 C 333.624 4.15449 -1.92785 0
M  V30 3506 N 335.115 4.22475 -1.89918 0
M  V30 3507 C 335.85 5.1818 -2.45514 0
M  V30 3508 N 335.346 6.19714 -3.09719 0
M  V30 3509 N 337.139 5.1035 -2.35584 0
M  V30 3510 H 329.29 1.28089 -1.69431 0
M  V30 3511 H 331.553 0.620327 -0.716867 0
M  V30 3512 H 331.259 2.7159 -2.23455 0
M  V30 3513 H 331.133 3.69033 -0.780662 0
M  V30 3514 H 333.52 2.94846 -0.12234 0
M  V30 3515 H 333.601 1.98988 -1.6074 0
M  V30 3516 H 333.245 4.11749 -2.97364 0
M  V30 3517 H 333.175 5.05877 -1.46272 0
M  V30 3518 H 335.666 3.49743 -1.43138 0
M  V30 3519 H 335.979 6.8919 -3.49625 0
M  V30 3520 H 334.324 6.20121 -3.13807 0
M  V30 3521 H 337.515 4.2996 -1.85072 0
M  V30 3522 H 337.688 5.84761 -2.79211 0
M  V30 3523 N 331.094 0.475555 1.50254 0
M  V30 3524 C 332.51 0.12997 1.5907 0
M  V30 3525 C 332.71 -1.36385 1.48328 0
M  V30 3526 O 331.766 -2.13754 1.34407 0
M  V30 3527 C 333.079 0.684139 2.92814 0
M  V30 3528 C 334.627 0.647965 3.0622 0
M  V30 3529 C 335.102 1.17975 4.42545 0
M  V30 3530 N 336.593 1.13936 4.48969 0
M  V30 3531 C 337.328 1.52129 5.52851 0
M  V30 3532 N 336.824 1.97793 6.63965 0
M  V30 3533 N 338.617 1.43704 5.4342 0
M  V30 3534 H 330.768 1.44706 1.55479 0
M  V30 3535 H 333.031 0.598691 0.735033 0
M  V30 3536 H 332.737 1.73079 3.06164 0
M  V30 3537 H 332.611 0.130204 3.76975 0
M  V30 3538 H 334.998 -0.38979 2.92514 0
M  V30 3539 H 335.079 1.23876 2.23805 0
M  V30 3540 H 334.723 2.21616 4.57 0
M  V30 3541 H 334.653 0.565138 5.23559 0
M  V30 3542 H 337.144 0.804488 3.69238 0
M  V30 3543 H 337.457 2.25072 7.39299 0
M  V30 3544 H 335.802 2.01749 6.65073 0
M  V30 3545 H 338.993 1.07867 4.55502 0
M  V30 3546 H 339.166 1.73794 6.24259 0
M  V30 3547 N 332.573 -1.56217 0.208337 0
M  V30 3548 C 333.506 -2.15633 -0.746842 0
M  V30 3549 C 334.484 -1.09685 -1.20034 0
M  V30 3550 O 335.668 -1.3787 -1.28547 0
M  V30 3551 C 332.795 -2.72594 -2.01023 0
M  V30 3552 C 331.841 -3.91251 -1.69779 0
M  V30 3553 S 332.674 -5.28962 -0.834209 0
M  V30 3554 C 333.83 -5.89353 -2.10745 0
M  V30 3555 H 334.063 -2.96315 -0.241789 0
M  V30 3556 H 331.596 -1.54398 -0.00682183 0
M  V30 3557 H 333.554 -3.06053 -2.73572 0
M  V30 3558 H 332.215 -1.91929 -2.48641 0
M  V30 3559 H 331.408 -4.29562 -2.63614 0
M  V30 3560 H 331.01 -3.58869 -1.05303 0
M  V30 3561 H 333.302 -6.04522 -3.05875 0
M  V30 3562 H 334.245 -6.85661 -1.76845 0
M  V30 3563 H 334.653 -5.1807 -2.24196 0
M  V30 3564 N 334.051 0.0651679 -1.57465 0
M  V30 3565 C 334.999 1.09542 -2.05191 0
M  V30 3566 C 335.993 1.39675 -0.958509 0
M  V30 3567 O 337.199 1.39003 -1.14359 0
M  V30 3568 H 333.574 0.370623 -0.654326 0
M  V30 3569 H 335.545 0.666802 -2.90854 0
M  V30 3570 C 334.294 2.39881 -2.51699 0
M  V30 3571 H 333.617 2.17547 -3.3543 0
M  V30 3572 H 335.057 3.104 -2.88839 0
M  V30 3573 C 333.516 3.0631 -1.40271 0
M  V30 3574 O 334.046 3.94664 -0.748523 0
M  V30 3575 N 332.252 2.67041 -1.14618 0
M  V30 3576 H 331.799 1.95281 -1.67997 0
M  V30 3577 H 331.757 3.1181 -0.402688 0
M  V30 3578 N 335.529 1.53961 0.336706 0
M  V30 3579 C 336.806 1.62171 1.09361 0
M  V30 3580 C 337.186 0.447263 2.06307 0
M  V30 3581 O 336.534 -0.559802 2.21537 0
M  V30 3582 C 336.744 2.98565 1.80721 0
M  V30 3583 C 338.092 3.54157 2.34218 0
M  V30 3584 O 339.116 3.00784 1.90807 0
M  V30 3585 O 337.975 4.47528 3.13657 0
M  V30 3586 H 335.069 0.6562 0.503319 0
M  V30 3587 H 337.615 1.66307 0.33765 0
M  V30 3588 H 336.387 3.75482 1.10132 0
M  V30 3589 H 336.01 2.9805 2.63158 0
M  V30 3590 N 337.007 -0.598083 1.45811 0
M  V30 3591 C 338.256 -1.35295 1.49594 0
M  V30 3592 C 338.569 -1.95057 0.145679 0
M  V30 3593 O 339.775 -2.71431 0.0612099 0
M  V30 3594 C 338.231 -2.45124 2.63519 0
M  V30 3595 C 337.839 -1.91732 4.04899 0
M  V30 3596 C 339.583 -3.2205 2.76558 0
M  V30 3597 C 337.49 -2.991 5.1019 0
M  V30 3598 H 336.42 -0.508552 0.556679 0
M  V30 3599 H 339.071 -0.639977 1.71978 0
M  V30 3600 H 337.453 -3.19149 2.34435 0
M  V30 3601 H 338.627 -1.24352 4.43704 0
M  V30 3602 H 336.942 -1.27522 3.96393 0
M  V30 3603 H 339.539 -4.0215 3.52391 0
M  V30 3604 H 339.882 -3.73663 1.83526 0
M  V30 3605 H 340.415 -2.55127 3.05213 0
M  V30 3606 H 337.154 -2.52393 6.04961 0
M  V30 3607 H 336.674 -3.65017 4.75944 0
M  V30 3608 H 338.353 -3.63318 5.35359 0
M  V30 3609 N 338.485 -1.33259 -0.841409 0
M  V30 3610 C 339.896 -1.22066 -1.41269 0
M  V30 3611 C 340.247 0.161479 -1.95534 0
M  V30 3612 O 339.372 1.06094 -1.88608 0
M  V30 3613 C 339.967 -2.20996 -2.568 0
M  V30 3614 C 338.526 -2.13649 -3.09888 0
M  V30 3615 C 337.673 -2.08623 -1.82679 0
M  V30 3616 H 340.624 -1.44895 -0.647395 0
M  V30 3617 H 340.645 -1.81621 -3.34356 0
M  V30 3618 H 340.157 -3.2158 -2.17274 0
M  V30 3619 H 338.258 -1.16359 -3.53965 0
M  V30 3620 H 338.371 -3.04079 -3.70234 0
M  V30 3621 H 336.735 -1.54061 -2.02824 0
M  V30 3622 H 337.518 -3.1101 -1.45353 0
M  V30 3623 N 339.963 1.05934 -1.16686 0
M  V30 3624 C 341.211 1.78447 -0.948744 0
M  V30 3625 C 341.532 1.87813 0.524523 0
M  V30 3626 O 340.802 1.38945 1.38098 0
M  V30 3627 H 339.382 0.660971 -0.348033 0
M  V30 3628 H 342.044 1.27947 -1.47022 0
M  V30 3629 H 341.14 2.80394 -1.37061 0
M  V30 3630 N 341.441 0.965919 1.2453 0
M  V30 3631 C 342.718 0.543777 1.87889 0
M  V30 3632 C 343.098 -0.97909 1.87021 0
M  V30 3633 O 342.446 -1.84969 1.3416 0
M  V30 3634 C 342.656 1.13327 3.30088 0
M  V30 3635 C 344.004 1.21707 4.06783 0
M  V30 3636 O 345.028 1.08566 3.39252 0
M  V30 3637 O 343.887 1.42456 5.27606 0
M  V30 3638 H 340.981 0.181054 0.806938 0
M  V30 3639 H 343.527 1.06007 1.32516 0
M  V30 3640 H 342.299 2.17612 3.25209 0
M  V30 3641 H 341.922 0.600911 3.93033 0
M  V30 3642 N 342.919 -1.39368 0.735821 0
M  V30 3643 C 344.165 -2.01272 0.293439 0
M  V30 3644 C 344.52 -1.57344 -1.10728 0
M  V30 3645 O 343.813 -0.792744 -1.74431 0
M  V30 3646 C 344.007 -3.5583 0.334651 0
M  V30 3647 C 343.836 -4.14764 1.73784 0
M  V30 3648 C 342.606 -4.47315 2.35026 0
M  V30 3649 C 344.804 -4.38246 2.69157 0
M  V30 3650 N 342.786 -4.91756 3.6749 0
M  V30 3651 C 344.157 -4.849 3.86357 0
M  V30 3652 C 346.212 -4.20315 2.66908 0
M  V30 3653 C 344.915 -5.15505 5.01645 0
M  V30 3654 C 346.941 -4.52033 3.8134 0
M  V30 3655 C 346.303 -4.98895 4.97276 0
M  V30 3656 H 342.402 -0.766756 0.153652 0
M  V30 3657 H 344.986 -1.69276 0.961967 0
M  V30 3658 H 343.157 -3.87212 -0.303527 0
M  V30 3659 H 344.889 -4.04503 -0.126358 0
M  V30 3660 H 341.644 -4.35143 1.86943 0
M  V30 3661 H 342.068 -5.18333 4.35499 0
M  V30 3662 H 346.71 -3.83287 1.78468 0
M  V30 3663 H 344.428 -5.51437 5.90713 0
M  V30 3664 H 348.014 -4.39781 3.80899 0
M  V30 3665 H 346.894 -5.22973 5.84353 0
M  V30 3666 N 344.397 -0.483516 -1.5 0
M  V30 3667 C 345.645 0.067027 -2.01989 0
M  V30 3668 C 345.966 1.3909 -1.36671 0
M  V30 3669 O 345.236 1.88978 -0.516152 0
M  V30 3670 H 343.816 0.0277606 -0.746484 0
M  V30 3671 H 346.478 -0.636773 -1.84204 0
M  V30 3672 H 345.574 0.209484 -3.11396 0
M  V30 3673 N 345.875 1.56104 -0.216619 0
M  V30 3674 C 347.103 2.02563 0.421413 0
M  V30 3675 C 347.518 1.0965 1.53695 0
M  V30 3676 O 346.875 0.10521 1.82196 0
M  V30 3677 C 346.926 3.48584 0.957665 0
M  V30 3678 O 346.647 4.37953 -0.113389 0
M  V30 3679 C 348.148 4.10664 1.66943 0
M  V30 3680 H 345.368 0.662944 0.103665 0
M  V30 3681 H 347.912 2.01793 -0.331629 0
M  V30 3682 H 346.067 3.49985 1.661 0
M  V30 3683 H 346.481 5.23704 0.288932 0
M  V30 3684 H 347.955 5.14622 1.99671 0
M  V30 3685 H 348.432 3.55373 2.58083 0
M  V30 3686 H 349.038 4.13098 1.01142 0
M  V30 3687 N 347.353 -0.0568162 1.57498 0
M  V30 3688 C 348.316 -1.05038 2.03715 0
M  V30 3689 C 349.316 -1.30709 0.936577 0
M  V30 3690 O 350.506 -1.26178 1.20103 0
M  V30 3691 C 347.638 -2.39034 2.43055 0
M  V30 3692 H 348.831 -0.651715 2.92733 0
M  V30 3693 H 346.384 -0.302947 1.53336 0
M  V30 3694 H 347.119 -2.83703 1.57108 0
M  V30 3695 H 346.904 -2.21739 3.2338 0
M  V30 3696 H 348.394 -3.10421 2.79336 0
M  V30 3697 N 348.832 -1.54138 -0.328536 0
M  V30 3698 C 350.078 -1.7236 -1.06865 0
M  V30 3699 C 350.411 -0.493231 -1.87832 0
M  V30 3700 O 349.686 0.5098 -1.877 0
M  V30 3701 C 349.969 -2.99621 -1.99747 0
M  V30 3702 C 349.822 -4.32899 -1.22143 0
M  V30 3703 C 351.141 -3.22615 -2.99345 0
M  V30 3704 H 348.26 -0.627151 -0.387105 0
M  V30 3705 H 350.902 -1.86827 -0.345767 0
M  V30 3706 H 349.052 -2.87418 -2.61387 0
M  V30 3707 H 350.724 -4.56978 -0.630017 0
M  V30 3708 H 348.967 -4.30628 -0.523628 0
M  V30 3709 H 349.638 -5.18154 -1.90318 0
M  V30 3710 H 352.114 -3.34248 -2.47826 0
M  V30 3711 H 350.99 -4.13027 -3.61524 0
M  V30 3712 H 351.251 -2.3961 -3.71536 0
M  V30 3713 N 350.31 0.590341 -1.46126 0
M  V30 3714 C 351.258 1.72105 -1.5647 0
M  V30 3715 C 352.252 1.63756 -0.433612 0
M  V30 3716 O 353.458 1.69342 -0.610194 0
M  V30 3717 H 349.833 0.568889 -0.491802 0
M  V30 3718 H 351.804 1.6051 -2.51553 0
M  V30 3719 C 350.553 3.10493 -1.56491 0
M  V30 3720 H 349.876 3.17583 -2.4286 0
M  V30 3721 H 351.316 3.8939 -1.67785 0
M  V30 3722 C 349.775 3.3563 -0.292231 0
M  V30 3723 O 350.305 3.96875 0.620739 0
M  V30 3724 N 348.511 2.90026 -0.182523 0
M  V30 3725 H 348.058 2.40367 -0.926356 0
M  V30 3726 H 348.016 3.07218 0.668152 0
M  V30 3727 N 351.788 1.33704 0.83433 0
M  V30 3728 C 353.034 1.25603 1.59222 0
M  V30 3729 C 353.367 -0.176659 1.93395 0
M  V30 3730 O 352.642 -1.11915 1.59076 0
M  V30 3731 C 352.925 2.13576 2.89926 0
M  V30 3732 C 352.778 3.65326 2.62406 0
M  V30 3733 C 354.097 2.01238 3.91397 0
M  V30 3734 H 351.216 0.457613 0.577719 0
M  V30 3735 H 353.858 1.63848 0.961972 0
M  V30 3736 H 352.008 1.8109 3.43713 0
M  V30 3737 H 353.68 4.08124 2.15017 0
M  V30 3738 H 351.923 3.8698 1.96033 0
M  V30 3739 H 352.594 4.22232 3.55562 0
M  V30 3740 H 355.07 2.29738 3.46929 0
M  V30 3741 H 353.946 2.65036 4.80673 0
M  V30 3742 H 354.207 0.985951 4.30966 0
M  V30 3743 N 353.266 -1.05314 1.17247 0
M  V30 3744 C 354.198 -2.13023 0.845812 0
M  V30 3745 C 355.211 -1.62096 -0.151246 0
M  V30 3746 O 356.4 -1.78343 0.0748818 0
M  V30 3747 C 353.5 -3.38047 0.240292 0
M  V30 3748 C 352.673 -4.18255 1.27991 0
M  V30 3749 C 351.732 -5.21625 0.692375 0
M  V30 3750 O 350.758 -5.52619 1.36385 0
M  V30 3751 N 351.96 -5.78201 -0.516178 0
M  V30 3752 H 354.725 -2.41642 1.77283 0
M  V30 3753 H 352.286 -1.21401 1.07115 0
M  V30 3754 H 354.278 -4.04359 -0.16603 0
M  V30 3755 H 352.848 -3.06972 -0.590487 0
M  V30 3756 H 352.068 -3.47451 1.86203 0
M  V30 3757 H 353.356 -4.68643 1.98119 0
M  V30 3758 H 352.754 -5.55301 -1.07969 0
M  V30 3759 H 351.311 -6.4604 -0.86458 0
M  V30 3760 N 354.744 -0.972509 -1.24016 0
M  V30 3761 C 355.972 -0.654803 -1.96265 0
M  V30 3762 C 356.387 0.776708 -1.72083 0
M  V30 3763 O 355.744 1.52171 -1.00748 0
M  V30 3764 C 355.795 -0.92592 -3.49441 0
M  V30 3765 O 355.516 -2.30116 -3.72798 0
M  V30 3766 C 357.017 -0.623068 -4.38899 0
M  V30 3767 H 354.237 -0.243907 -0.6251 0
M  V30 3768 H 356.781 -1.30175 -1.57717 0
M  V30 3769 H 354.936 -0.325108 -3.86033 0
M  V30 3770 H 355.35 -2.38483 -4.67147 0
M  V30 3771 H 356.824 -0.863189 -5.45209 0
M  V30 3772 H 357.301 0.442754 -4.36963 0
M  V30 3773 H 357.907 -1.204 -4.07902 0
M  V30 3774 N 356.222 1.38976 -0.743202 0
M  V30 3775 C 357.155 2.28128 -0.0572165 0
M  V30 3776 C 358.133 1.44827 0.739182 0
M  V30 3777 O 359.317 1.74207 0.720009 0
M  V30 3778 C 356.444 3.25796 0.926001 0
M  V30 3779 C 355.49 4.25947 0.217099 0
M  V30 3780 S 356.323 5.24604 -1.07477 0
M  V30 3781 C 357.479 6.25829 -0.0943545 0
M  V30 3782 H 357.712 2.85961 -0.813246 0
M  V30 3783 H 355.245 1.44822 -0.535341 0
M  V30 3784 H 357.203 3.82583 1.48797 0
M  V30 3785 H 355.864 2.66966 1.65493 0
M  V30 3786 H 355.057 4.94746 0.961372 0
M  V30 3787 H 354.659 3.73002 -0.273059 0
M  V30 3788 H 356.951 6.73411 0.743239 0
M  V30 3789 H 357.894 7.0412 -0.749713 0
M  V30 3790 H 358.302 5.63797 0.281706 0
M  V30 3791 N 357.7 0.491464 1.49741 0
M  V30 3792 C 358.946 -0.0565092 2.02721 0
M  V30 3793 C 359.279 -1.37522 1.37118 0
M  V30 3794 O 358.554 -1.87866 0.503645 0
M  V30 3795 C 358.837 -0.219051 3.59433 0
M  V30 3796 C 358.69 1.12211 4.35579 0
M  V30 3797 C 360.009 -0.964157 4.29409 0
M  V30 3798 H 357.128 -0.0190627 0.736753 0
M  V30 3799 H 359.77 0.641021 1.7886 0
M  V30 3800 H 357.92 -0.813165 3.79895 0
M  V30 3801 H 359.592 1.75437 4.26637 0
M  V30 3802 H 357.835 1.71377 3.98513 0
M  V30 3803 H 358.506 0.961794 5.43556 0
M  V30 3804 H 360.982 -0.460378 4.13545 0
M  V30 3805 H 359.858 -1.04671 5.38828 0
M  V30 3806 H 360.119 -2.00563 3.93988 0
M  V30 3807 N 359.178 -1.55987 0.224894 0
M  V30 3808 C 360.425 -1.9839 -0.4059 0
M  V30 3809 C 360.753 -1.11261 -1.59535 0
M  V30 3810 O 360.008 -0.158314 -1.95059 0
M  V30 3811 C 360.307 -3.46394 -0.880106 0
M  V30 3812 C 359.973 -4.5046 0.19918 0
M  V30 3813 C 358.635 -4.7864 0.495661 0
M  V30 3814 C 360.987 -5.12855 0.928939 0
M  V30 3815 C 358.315 -5.66497 1.52636 0
M  V30 3816 C 360.667 -6.01828 1.949 0
M  V30 3817 C 359.331 -6.28351 2.25236 0
M  V30 3818 H 358.601 -0.725961 -0.148529 0
M  V30 3819 H 361.248 -1.88668 0.328113 0
M  V30 3820 H 359.553 -3.53337 -1.69294 0
M  V30 3821 H 361.25 -3.76577 -1.37808 0
M  V30 3822 H 357.84 -4.28579 -0.0420526 0
M  V30 3823 H 362.024 -4.9115 0.713129 0
M  V30 3824 H 357.28 -5.8531 1.76698 0
M  V30 3825 H 361.454 -6.49225 2.51951 0
M  V30 3826 H 359.081 -6.96226 3.05244 0
M  V30 3827 N 360.656 0.0484629 -1.57525 0
M  V30 3828 C 361.904 0.741657 -1.88 0
M  V30 3829 C 362.225 1.76918 -0.820054 0
M  V30 3830 O 361.495 1.95335 0.148661 0
M  V30 3831 H 360.075 0.276908 -0.69378 0
M  V30 3832 H 362.737 0.019013 -1.94891 0
M  V30 3833 H 361.833 1.24336 -2.86264 0
M  V30 3834 N 362.134 1.5431 0.320358 0
M  V30 3835 C 363.082 1.84647 1.4145 0
M  V30 3836 C 364.076 0.718624 1.53402 0
M  V30 3837 O 365.282 0.902335 1.5575 0
M  V30 3838 H 361.657 0.585349 0.472091 0
M  V30 3839 H 363.628 2.7614 1.13089 0
M  V30 3840 C 362.377 2.09341 2.77617 0
M  V30 3841 H 361.7 2.9559 2.69196 0
M  V30 3842 H 363.14 2.3452 3.53237 0
M  V30 3843 C 361.599 0.885939 3.25043 0
M  V30 3844 O 362.129 0.0967891 4.01583 0
M  V30 3845 N 360.335 0.696682 2.82125 0
M  V30 3846 H 359.882 1.34006 2.2 0
M  V30 3847 H 359.84 -0.109712 3.14209 0
M  V30 3848 N 363.613 -0.582584 1.46437 0
M  V30 3849 C 364.56 -1.69164 1.5701 0
M  V30 3850 C 365.53 -1.60847 0.414403 0
M  V30 3851 O 366.715 -1.80058 0.631171 0
M  V30 3852 C 363.855 -3.075 1.56646 0
M  V30 3853 C 362.968 -3.2644 2.82951 0
M  V30 3854 C 362.103 -4.55026 2.7409 0
M  V30 3855 C 361.142 -4.6731 3.95333 0
M  V30 3856 N 360.279 -5.87221 3.84858 0
M  V30 3857 H 365.119 -1.59464 2.51744 0
M  V30 3858 H 362.656 -0.777186 1.24893 0
M  V30 3859 H 364.614 -3.8757 1.5442 0
M  V30 3860 H 363.244 -3.16096 0.654439 0
M  V30 3861 H 362.296 -2.39974 2.95155 0
M  V30 3862 H 363.608 -3.31385 3.72808 0
M  V30 3863 H 362.762 -5.43324 2.6997 0
M  V30 3864 H 361.501 -4.52519 1.81873 0
M  V30 3865 H 360.506 -3.77429 3.99784 0
M  V30 3866 H 361.731 -4.71595 4.88646 0
M  V30 3867 H 359.677 -5.85712 2.95427 0
M  V30 3868 H 359.594 -5.93435 4.6837 0
M  V30 3869 H 360.862 -6.7795 3.84713 0
M  V30 3870 N 365.091 -1.34144 -0.827227 0
M  V30 3871 C 366.339 -1.26009 -1.58007 0
M  V30 3872 C 366.66 0.170971 -1.94249 0
M  V30 3873 O 365.93 1.10256 -1.61927 0
M  V30 3874 H 364.51 -0.463414 -0.585881 0
M  V30 3875 H 367.172 -1.68005 -0.987951 0
M  V30 3876 H 366.268 -1.86187 -2.50481 0
M  V30 3877 N 366.569 1.04691 -1.17803 0
M  V30 3878 C 367.479 2.16057 -0.914151 0
M  V30 3879 C 368.495 1.73589 0.119503 0
M  V30 3880 O 369.671 2.01308 -0.0609468 0
M  V30 3881 C 366.736 3.4394 -0.436603 0
M  V30 3882 C 365.797 4.00825 -1.53746 0
M  V30 3883 C 365.03 5.22604 -1.0826 0
M  V30 3884 O 365.253 5.70367 0.0612244 0
M  V30 3885 O 364.187 5.7186 -1.87775 0
M  V30 3886 H 368.013 2.41169 -1.84584 0
M  V30 3887 H 365.598 1.1453 -0.959334 0
M  V30 3888 H 367.48 4.21024 -0.178057 0
M  V30 3889 H 366.155 3.20316 0.466869 0
M  V30 3890 H 365.062 3.25158 -1.84995 0
M  V30 3891 H 366.395 4.28778 -2.41683 0
M  V30 3892 N 368.047 0.979072 1.23499 0
M  V30 3893 C 369.275 0.665202 1.95915 0
M  V30 3894 C 369.69 -0.767571 1.72493 0
M  V30 3895 O 369.047 -1.51635 1.01554 0
M  V30 3896 C 369.098 0.944438 3.48945 0
M  V30 3897 O 368.819 2.3209 3.71572 0
M  V30 3898 C 370.32 0.646336 4.38563 0
M  V30 3899 H 367.54 0.247218 0.623798 0
M  V30 3900 H 370.084 1.31009 1.57025 0
M  V30 3901 H 368.239 0.345575 3.85856 0
M  V30 3902 H 368.653 2.40957 4.65876 0
M  V30 3903 H 370.127 0.892091 5.44744 0
M  V30 3904 H 370.604 -0.419575 4.37191 0
M  V30 3905 H 371.21 1.22562 4.07258 0
M  V30 3906 N 369.525 -1.3858 0.750561 0
M  V30 3907 C 370.75 -2.04997 0.314812 0
M  V30 3908 C 371.175 -1.56235 -1.04749 0
M  V30 3909 O 370.533 -0.712981 -1.66692 0
M  V30 3910 C 370.581 -3.58961 0.343415 0
M  V30 3911 O 369.685 -4.07025 -0.663628 0
M  V30 3912 H 369.026 -0.649081 0.139962 0
M  V30 3913 H 371.556 -1.77313 1.02084 0
M  V30 3914 H 371.566 -4.07542 0.193233 0
M  V30 3915 H 370.241 -3.93811 1.33738 0
M  V30 3916 H 368.818 -3.6982 -0.478307 0
M  V30 3917 N 371.003 -0.499398 -1.49478 0
M  V30 3918 C 372.251 0.0455996 -2.02049 0
M  V30 3919 C 372.572 1.37633 -1.38138 0
M  V30 3920 O 371.842 1.8842 -0.536166 0
M  V30 3921 H 370.422 0.0198416 -0.746736 0
M  V30 3922 H 373.084 -0.656274 -1.83519 0
M  V30 3923 H 372.18 0.176445 -3.11601 0
M  V30 3924 N 372.481 1.55866 -0.233164 0
M  V30 3925 C 373.709 2.02998 0.399905 0
M  V30 3926 C 374.124 1.11274 1.52524 0
M  V30 3927 O 373.481 0.124528 1.82075 0
M  V30 3928 C 373.532 3.4958 0.920639 0
M  V30 3929 O 373.253 4.37808 -0.159834 0
M  V30 3930 C 374.754 4.12411 1.62578 0
M  V30 3931 H 371.974 0.664006 0.0966281 0
M  V30 3932 H 374.518 2.0143 -0.353013 0
M  V30 3933 H 372.673 3.51727 1.62379 0
M  V30 3934 H 373.087 5.23981 0.23337 0
M  V30 3935 H 374.561 5.16711 1.94201 0
M  V30 3936 H 375.038 3.5809 2.54299 0
M  V30 3937 H 375.644 4.14148 0.967553 0
M  V30 3938 N 373.959 -0.0401083 1.57549 0
M  V30 3939 C 375.207 -0.731677 1.8839 0
M  V30 3940 C 375.528 -1.76481 0.829425 0
M  V30 3941 O 374.798 -1.95411 -0.1383 0
M  V30 3942 H 373.378 -0.273225 0.695239 0
M  V30 3943 H 376.04 -0.00867725 1.94898 0
M  V30 3944 H 375.136 -1.22816 2.86919 0
M  V30 3945 N 375.437 -1.54477 -0.31217 0
M  V30 3946 C 376.683 -1.73483 -1.0503 0
M  V30 3947 C 377.016 -0.513125 -1.87298 0
M  V30 3948 O 376.291 0.489864 -1.8823 0
M  V30 3949 C 376.574 -3.01723 -1.96558 0
M  V30 3950 C 376.427 -4.3417 -1.17545 0
M  V30 3951 C 377.746 -3.25772 -2.95907 0
M  V30 3952 H 374.865 -0.631222 -0.380432 0
M  V30 3953 H 377.507 -1.87184 -0.325932 0
M  V30 3954 H 375.657 -2.90174 -2.58324 0
M  V30 3955 H 377.329 -4.5762 -0.581513 0
M  V30 3956 H 375.572 -4.31159 -0.477925 0
M  V30 3957 H 376.243 -5.20143 -1.84811 0
M  V30 3958 H 378.719 -3.36857 -2.44267 0
M  V30 3959 H 377.595 -4.16838 -3.57123 0
M  V30 3960 H 377.856 -2.43537 -3.68974 0
M  V30 3961 N 376.915 0.57481 -1.46744 0
M  V30 3962 C 377.878 1.66533 -1.57478 0
M  V30 3963 C 378.878 1.54338 -0.451263 0
M  V30 3964 O 380.068 1.58814 -0.715813 0
M  V30 3965 C 377.2 3.05999 -1.50259 0
M  V30 3966 H 378.393 1.58372 -2.54673 0
M  V30 3967 H 375.946 0.793301 -1.34672 0
M  V30 3968 H 376.681 3.19709 -0.543725 0
M  V30 3969 H 376.466 3.16259 -2.31781 0
M  V30 3970 H 377.956 3.8537 -1.60872 0
M  V30 3971 N 378.394 1.34581 0.820102 0
M  V30 3972 C 379.641 1.27096 1.57648 0
M  V30 3973 C 379.969 -0.158317 1.93855 0
M  V30 3974 O 379.224 -1.12028 1.60463 0
M  V30 3975 C 379.523 2.10997 2.8847 0
M  V30 3976 C 379.189 3.59966 2.71543 0
M  V30 3977 C 377.851 4.00575 2.66634 0
M  V30 3978 C 380.203 4.54548 2.55021 0
M  V30 3979 C 377.531 5.33953 2.43128 0
M  V30 3980 C 379.883 5.88109 2.33047 0
M  V30 3981 C 378.547 6.27878 2.26552 0
M  V30 3982 H 377.817 0.465078 0.576874 0
M  V30 3983 H 380.464 1.6635 0.948671 0
M  V30 3984 H 378.769 1.6458 3.55557 0
M  V30 3985 H 380.466 2.0255 3.46084 0
M  V30 3986 H 377.056 3.27733 2.76205 0
M  V30 3987 H 381.24 4.24069 2.57835 0
M  V30 3988 H 376.496 5.63781 2.3656 0
M  V30 3989 H 380.67 6.60985 2.19251 0
M  V30 3990 H 378.297 7.31162 2.081 0
M  V30 3991 N 379.872 -1.04064 1.18357 0
M  V30 3992 C 381.1 -1.80916 1.00384 0
M  V30 3993 C 381.515 -1.83414 -0.447738 0
M  V30 3994 O 380.872 -1.26962 -1.31099 0
M  V30 3995 C 380.923 -3.26516 1.55144 0
M  V30 3996 O 380.644 -3.2424 2.94618 0
M  V30 3997 C 382.145 -4.20013 1.41789 0
M  V30 3998 H 379.365 -0.569728 0.354474 0
M  V30 3999 H 381.909 -1.31151 1.56906 0
M  V30 4000 H 380.064 -3.73512 1.02798 0
M  V30 4001 H 380.478 -4.15452 3.20156 0
M  V30 4002 H 381.952 -5.20111 1.84901 0
M  V30 4003 H 382.429 -4.37667 0.36661 0
M  V30 4004 H 383.035 -3.78881 1.93207 0
M  V30 4005 N 381.35 -0.985608 -1.22978 0
M  V30 4006 C 382.766 -0.695104 -1.43668 0
M  V30 4007 C 382.966 0.736866 -1.87543 0
M  V30 4008 O 382.022 1.50868 -2.02473 0
M  V30 4009 C 383.335 -1.69447 -2.48412 0
M  V30 4010 C 384.883 -1.70909 -2.62219 0
M  V30 4011 C 385.358 -2.6969 -3.70178 0
M  V30 4012 N 386.849 -2.6824 -3.77626 0
M  V30 4013 C 387.584 -3.41339 -4.60733 0
M  V30 4014 N 387.08 -4.24015 -5.4789 0
M  V30 4015 N 388.873 -3.30079 -4.54977 0
M  V30 4016 H 381.024 -1.91054 -0.928016 0
M  V30 4017 H 383.287 -0.823553 -0.469536 0
M  V30 4018 H 382.993 -2.7188 -2.23102 0
M  V30 4019 H 382.867 -1.48147 -3.46889 0
M  V30 4020 H 385.254 -0.691785 -2.86877 0
M  V30 4021 H 385.335 -1.96276 -1.6404 0
M  V30 4022 H 384.979 -3.71566 -3.46268 0
M  V30 4023 H 384.909 -2.41595 -4.67909 0
M  V30 4024 H 387.4 -2.08243 -3.15346 0
M  V30 4025 H 387.713 -4.76636 -6.08308 0
M  V30 4026 H 386.058 -4.28104 -5.47496 0
M  V30 4027 H 389.249 -2.64937 -3.85909 0
M  V30 4028 H 389.422 -3.87308 -5.19516 0
M  V30 4029 N 382.828 1.3818 -0.7579 0
M  V30 4030 C 383.776 2.32277 -0.122482 0
M  V30 4031 C 384.77 1.54238 0.700505 0
M  V30 4032 O 385.976 1.69737 0.599119 0
M  V30 4033 H 382.351 0.751712 -0.0208143 0
M  V30 4034 H 384.322 2.83469 -0.932099 0
M  V30 4035 C 383.071 3.39447 0.753076 0
M  V30 4036 H 382.394 3.99591 0.129184 0
M  V30 4037 H 383.834 4.07684 1.16489 0
M  V30 4038 C 382.293 2.78375 1.8976 0
M  V30 4039 O 382.823 2.68025 2.99208 0
M  V30 4040 N 381.029 2.36121 1.69397 0
M  V30 4041 H 380.576 2.4474 0.803762 0
M  V30 4042 H 380.534 1.95602 2.46145 0
M  V30 4043 N 384.306 0.507319 1.49211 0
M  V30 4044 C 385.717 0.0611118 1.866 0
M  V30 4045 C 386.068 -1.35488 1.41907 0
M  V30 4046 O 385.193 -2.0108 0.799726 0
M  V30 4047 C 385.788 0.104125 3.3864 0
M  V30 4048 C 384.347 -0.28677 3.75306 0
M  V30 4049 C 383.494 0.473893 2.73221 0
M  V30 4050 H 386.445 0.719775 1.41439 0
M  V30 4051 H 386.466 -0.689672 3.74198 0
M  V30 4052 H 385.978 1.13482 3.71138 0
M  V30 4053 H 384.079 -1.32046 3.48417 0
M  V30 4054 H 384.192 0.0370745 4.79086 0
M  V30 4055 H 382.556 -0.0770644 2.54583 0
M  V30 4056 H 383.339 1.50478 3.08563 0
M  V30 4057 N 385.784 -1.5574 0.241426 0
M  V30 4058 C 387.009 -2.0366 -0.392111 0
M  V30 4059 C 387.434 -1.11969 -1.51144 0
M  V30 4060 O 386.792 -0.111594 -1.80956 0
M  V30 4061 C 386.84 -3.49638 -0.882371 0
M  V30 4062 O 385.944 -3.6108 -1.99235 0
M  V30 4063 H 385.285 -0.658379 -0.0862122 0
M  V30 4064 H 387.815 -2.01302 0.365881 0
M  V30 4065 H 387.825 -3.90351 -1.18702 0
M  V30 4066 H 386.5 -4.15852 -0.0632361 0
M  V30 4067 H 385.077 -3.32262 -1.69282 0
M  V30 4068 N 387.262 0.0317525 -1.57568 0
M  V30 4069 C 388.49 0.734949 -1.93407 0
M  V30 4070 C 388.905 1.69036 -0.84096 0
M  V30 4071 O 388.262 1.81582 0.182836 0
M  V30 4072 C 388.313 1.49432 -3.29169 0
M  V30 4073 O 388.034 0.577261 -4.3428 0
M  V30 4074 C 389.535 2.29492 -3.79273 0
M  V30 4075 H 386.755 0.206706 -0.638368 0
M  V30 4076 H 389.299 -0.00992046 -2.04498 0
M  V30 4077 H 387.454 2.1911 -3.19483 0
M  V30 4078 H 387.868 1.10952 -5.1263 0
M  V30 4079 H 389.342 2.78172 -4.76785 0
M  V30 4080 H 389.819 3.10794 -3.10328 0
M  V30 4081 H 390.425 1.64894 -3.92033 0
M  V30 4082 N 388.74 1.54641 0.303973 0
M  V30 4083 C 389.988 1.73437 1.0375 0
M  V30 4084 C 390.309 0.521449 1.87899 0
M  V30 4085 O 389.579 -0.46432 1.90318 0
M  V30 4086 H 388.159 0.639518 0.386039 0
M  V30 4087 H 390.821 1.91988 0.335675 0
M  V30 4088 H 389.917 2.62235 1.69231 0
M  V30 4089 N 390.218 -0.567019 1.47046 0
M  V30 4090 C 391.128 -1.70247 1.6141 0
M  V30 4091 C 392.144 -1.66746 0.497157 0
M  V30 4092 O 393.32 -1.86371 0.763389 0
M  V30 4093 C 390.385 -3.06756 1.61561 0
M  V30 4094 C 389.446 -3.21399 2.84607 0
M  V30 4095 C 388.679 -4.51396 2.84741 0
M  V30 4096 O 388.902 -5.36255 1.94388 0
M  V30 4097 O 387.836 -4.69621 3.76483 0
M  V30 4098 H 391.662 -1.61073 2.57467 0
M  V30 4099 H 389.247 -0.735894 1.30019 0
M  V30 4100 H 391.129 -3.8801 1.64396 0
M  V30 4101 H 389.804 -3.16333 0.686684 0
M  V30 4102 H 388.711 -2.39579 2.8732 0
M  V30 4103 H 390.044 -3.16721 3.76761 0
M  V30 4104 N 391.696 -1.35014 -0.812953 0
M  V30 4105 C 392.643 -1.27412 -1.92444 0
M  V30 4106 C 393.613 -0.14733 -1.65445 0
M  V30 4107 O 394.798 -0.329974 -1.87925 0
M  V30 4108 C 391.938 -1.04558 -3.28879 0
M  V30 4109 C 391.051 -2.26101 -3.68106 0
M  V30 4110 C 390.186 -1.96449 -4.9354 0
M  V30 4111 C 389.225 -3.14081 -5.25376 0
M  V30 4112 N 388.362 -2.84246 -6.41988 0
M  V30 4113 H 393.202 -2.22463 -1.98278 0
M  V30 4114 H 390.739 -1.10593 -0.969933 0
M  V30 4115 H 392.697 -0.893413 -4.07522 0
M  V30 4116 H 391.327 -0.131719 -3.22531 0
M  V30 4117 H 390.379 -2.52204 -2.84775 0
M  V30 4118 H 391.691 -3.13959 -3.87597 0
M  V30 4119 H 390.845 -1.78026 -5.79993 0
M  V30 4120 H 389.584 -1.05867 -4.76071 0
M  V30 4121 H 388.589 -3.33089 -4.37415 0
M  V30 4122 H 389.814 -4.05455 -5.44778 0
M  V30 4123 H 387.76 -1.96252 -6.25956 0
M  V30 4124 H 387.677 -3.65637 -6.61699 0
M  V30 4125 H 388.945 -2.6935 -7.31485 0
M  V30 4126 N 393.175 1.03435 -1.18907 0
M  V30 4127 C 394.423 1.76394 -0.986382 0
M  V30 4128 C 394.744 1.88883 0.484567 0
M  V30 4129 O 394.014 1.41843 1.3512 0
M  V30 4130 H 392.594 0.65344 -0.361975 0
M  V30 4131 H 395.256 1.248 -1.49703 0
M  V30 4132 H 394.352 2.77424 -1.42978 0
M  V30 4133 N 394.653 0.992116 1.22453 0
M  V30 4134 C 395.902 0.662992 1.90492 0
M  V30 4135 C 396.215 -0.808407 1.78113 0
M  V30 4136 O 397.421 -1.24908 2.41061 0
M  V30 4137 C 395.877 1.1353 3.41524 0
M  V30 4138 C 395.485 2.63187 3.62542 0
M  V30 4139 C 397.229 0.880465 4.15269 0
M  V30 4140 C 395.136 3.04024 5.0727 0
M  V30 4141 H 394.066 0.244278 0.713333 0
M  V30 4142 H 396.717 1.20157 1.38688 0
M  V30 4143 H 395.099 0.52485 3.92506 0
M  V30 4144 H 396.273 3.2957 3.22056 0
M  V30 4145 H 394.588 2.86543 3.02129 0
M  V30 4146 H 397.185 1.16128 5.21937 0
M  V30 4147 H 397.528 -0.183408 4.15896 0
M  V30 4148 H 398.061 1.45307 3.70312 0
M  V30 4149 H 394.8 4.09584 5.11782 0
M  V30 4150 H 394.32 2.42343 5.48662 0
M  V30 4151 H 395.999 2.95282 5.75689 0
M  V30 4152 N 396.131 -1.37776 0.765217 0
M  V30 4153 C 397.361 -2.03828 0.337277 0
M  V30 4154 C 397.769 -1.57841 -1.04321 0
M  V30 4155 O 397.112 -0.752043 -1.67601 0
M  V30 4156 C 397.174 -3.58292 0.294407 0
M  V30 4157 C 396.838 -4.27384 1.61838 0
M  V30 4158 C 397.835 -4.51956 2.56967 0
M  V30 4159 C 395.52 -4.65345 1.89102 0
M  V30 4160 C 397.514 -5.13536 3.77571 0
M  V30 4161 C 395.201 -5.26647 3.09978 0
M  V30 4162 C 396.199 -5.50679 4.04032 0
M  V30 4163 O 395.887 -6.10702 5.2278 0
M  V30 4164 H 395.619 -0.661292 0.140248 0
M  V30 4165 H 398.173 -1.77222 1.03834 0
M  V30 4166 H 396.403 -3.83918 -0.462983 0
M  V30 4167 H 398.092 -4.05763 -0.105581 0
M  V30 4168 H 398.858 -4.23048 2.37183 0
M  V30 4169 H 394.737 -4.45978 1.16725 0
M  V30 4170 H 398.281 -5.3221 4.50997 0
M  V30 4171 H 394.178 -5.54979 3.29649 0
M  V30 4172 H 394.946 -6.29183 5.23517 0
M  V30 4173 N 397.609 -0.515225 -1.4894 0
M  V30 4174 C 398.857 0.0241671 -2.02086 0
M  V30 4175 C 399.178 1.3616 -1.3959 0
M  V30 4176 O 398.448 1.87841 -0.556121 0
M  V30 4177 H 397.028 0.0119203 -0.746905 0
M  V30 4178 H 399.69 -0.675702 -1.82812 0
M  V30 4179 H 398.786 0.143385 -3.1177 0
M  V30 4180 N 399.087 1.5561 -0.249682 0
M  V30 4181 C 399.997 2.25143 0.659375 0
M  V30 4182 C 401.013 1.2685 1.19101 0
M  V30 4183 O 402.189 1.59732 1.22669 0
M  V30 4184 C 399.254 2.93945 1.8384 0
M  V30 4185 C 398.315 4.07655 1.34596 0
M  V30 4186 C 397.548 4.73167 2.46878 0
M  V30 4187 O 397.771 4.37768 3.65671 0
M  V30 4188 O 396.705 5.61623 2.16478 0
M  V30 4189 H 400.531 3.03545 0.0968698 0
M  V30 4190 H 398.116 1.49389 -0.018074 0
M  V30 4191 H 399.998 3.37271 2.52638 0
M  V30 4192 H 398.673 2.18481 2.38847 0
M  V30 4193 H 397.58 3.68839 0.625174 0
M  V30 4194 H 398.913 4.84946 0.841941 0
M  V30 4195 N 400.565 -0.0233959 1.57583 0
M  V30 4196 C 401.795 -0.723631 1.93513 0
M  V30 4197 C 402.203 -1.69115 0.848333 0
M  V30 4198 O 401.546 -1.82781 -0.183484 0
M  V30 4199 C 401.608 -1.53075 3.25282 0
M  V30 4200 C 401.272 -0.727388 4.51174 0
M  V30 4201 C 402.269 -0.0251924 5.19894 0
M  V30 4202 C 399.954 -0.680256 4.97672 0
M  V30 4203 C 401.948 0.713374 6.33395 0
M  V30 4204 C 399.635 0.0620523 6.11068 0
M  V30 4205 C 400.633 0.757622 6.78785 0
M  V30 4206 O 400.321 1.48787 7.90011 0
M  V30 4207 H 400.053 -0.208051 0.643188 0
M  V30 4208 H 402.607 0.0167489 2.05393 0
M  V30 4209 H 400.837 -2.31508 3.09744 0
M  V30 4210 H 402.526 -2.11413 3.46496 0
M  V30 4211 H 403.292 -0.0526003 4.84971 0
M  V30 4212 H 399.171 -1.21116 4.44805 0
M  V30 4213 H 402.715 1.25683 6.86185 0
M  V30 4214 H 398.612 0.0913634 6.45435 0
M  V30 4215 H 399.38 1.40213 8.06401 0
M  V30 4216 N 402.043 -1.548 -0.295768 0
M  V30 4217 C 402.973 -1.89115 -1.36959 0
M  V30 4218 C 403.954 -0.75059 -1.52644 0
M  V30 4219 O 405.139 -1.00678 -1.66065 0
M  V30 4220 C 402.269 -2.14307 -2.73295 0
M  V30 4221 C 401.223 -3.30151 -2.72368 0
M  V30 4222 C 400.549 -3.40772 -4.12042 0
M  V30 4223 C 401.849 -4.67126 -2.33646 0
M  V30 4224 H 403.543 -2.79053 -1.08488 0
M  V30 4225 H 401.089 -1.34266 -0.520443 0
M  V30 4226 H 403.042 -2.36898 -3.48507 0
M  V30 4227 H 401.766 -1.21145 -3.03301 0
M  V30 4228 H 400.425 -3.0749 -1.99613 0
M  V30 4229 H 400.073 -2.45117 -4.39234 0
M  V30 4230 H 399.773 -4.18645 -4.12322 0
M  V30 4231 H 401.297 -3.6563 -4.89027 0
M  V30 4232 H 402.711 -4.89414 -2.98575 0
M  V30 4233 H 401.108 -5.47751 -2.45129 0
M  V30 4234 H 402.178 -4.67489 -1.28772 0
M  V30 4235 N 403.521 0.559213 -1.47345 0
M  V30 4236 C 404.77 1.31281 -1.53128 0
M  V30 4237 C 405.083 1.94602 -0.197344 0
M  V30 4238 O 406.289 2.71173 -0.133154 0
M  V30 4239 C 404.745 2.38051 -2.69925 0
M  V30 4240 C 404.353 1.8093 -4.0984 0
M  V30 4241 C 406.097 3.14604 -2.84999 0
M  V30 4242 C 404.004 2.85468 -5.1794 0
M  V30 4243 H 402.934 0.493614 -0.569966 0
M  V30 4244 H 405.585 0.594155 -1.73615 0
M  V30 4245 H 403.967 3.12822 -2.42814 0
M  V30 4246 H 405.141 1.12544 -4.46845 0
M  V30 4247 H 403.456 1.16967 -3.99634 0
M  V30 4248 H 406.053 3.92666 -3.62929 0
M  V30 4249 H 406.396 3.68665 -1.93369 0
M  V30 4250 H 406.929 2.46945 -3.1187 0
M  V30 4251 H 403.668 2.36264 -6.1144 0
M  V30 4252 H 403.188 3.52269 -4.85455 0
M  V30 4253 H 404.867 3.48996 -5.44803 0
M  V30 4254 N 404.999 1.35443 0.805782 0
M  V30 4255 C 405.947 1.28465 1.93906 0
M  V30 4256 C 406.941 0.17943 1.68447 0
M  V30 4257 O 408.147 0.345459 1.76654 0
M  V30 4258 H 404.522 0.399528 0.637088 0
M  V30 4259 H 406.493 2.24206 1.96912 0
M  V30 4260 C 405.242 1.07432 3.30687 0
M  V30 4261 H 404.565 1.91716 3.50835 0
M  V30 4262 H 406.005 1.06591 4.10383 0
M  V30 4263 C 404.464 -0.22179 3.36169 0
M  V30 4264 O 404.994 -1.21731 3.82811 0
M  V30 4265 N 403.2 -0.260841 2.89427 0
M  V30 4266 H 402.747 0.549884 2.51663 0
M  V30 4267 H 402.705 -1.12777 2.93477 0
M  V30 4268 N 406.477 -1.02803 1.19454 0
M  V30 4269 C 407.44 -2.09264 0.934955 0
M  V30 4270 C 408.44 -1.60576 -0.0849015 0
M  V30 4271 O 409.63 -1.73554 0.149933 0
M  V30 4272 C 406.762 -3.38482 0.40531 0
M  V30 4273 H 407.955 -2.33726 1.87916 0
M  V30 4274 H 405.508 -1.19426 1.00832 0
M  V30 4275 H 406.243 -3.19689 -0.544899 0
M  V30 4276 H 406.028 -3.75142 1.14065 0
M  V30 4277 H 407.518 -4.16894 0.242806 0
M  V30 4278 N 407.956 -0.998596 -1.21925 0
M  V30 4279 C 408.888 -0.511879 -2.23411 0
M  V30 4280 C 409.901 0.396094 -1.57908 0
M  V30 4281 O 411.09 0.197316 -1.77406 0
M  V30 4282 C 408.19 0.276802 -3.37768 0
M  V30 4283 C 407.363 -0.628687 -4.32858 0
M  V30 4284 C 406.422 0.109272 -5.26087 0
M  V30 4285 O 405.448 -0.507237 -5.66935 0
M  V30 4286 N 406.65 1.38983 -5.63617 0
M  V30 4287 H 409.415 -1.38457 -2.658 0
M  V30 4288 H 406.976 -0.873981 -1.36283 0
M  V30 4289 H 408.968 0.77928 -3.97126 0
M  V30 4290 H 407.538 1.05063 -2.94415 0
M  V30 4291 H 406.758 -1.31175 -3.71735 0
M  V30 4292 H 408.046 -1.24514 -4.93329 0
M  V30 4293 H 407.444 1.91194 -5.32411 0
M  V30 4294 H 406.001 1.83739 -6.25367 0
M  V30 4295 N 409.434 1.37368 -0.772513 0
M  V30 4296 C 410.682 1.99279 -0.336516 0
M  V30 4297 C 411.003 1.6163 1.09091 0
M  V30 4298 O 410.273 0.882109 1.74916 0
M  V30 4299 H 408.853 0.737063 -0.121435 0
M  V30 4300 H 411.515 1.67836 -0.990809 0
M  V30 4301 H 410.611 3.09332 -0.414763 0
M  V30 4302 N 410.912 0.523116 1.48665 0
M  V30 4303 C 411.822 -0.247406 2.33292 0
M  V30 4304 C 412.838 -0.945769 1.46052 0
M  V30 4305 O 414.014 -0.922253 1.79043 0
M  V30 4306 C 411.079 -1.28487 3.22012 0
M  V30 4307 C 410.14 -0.597592 4.2512 0
M  V30 4308 C 409.373 -1.58563 5.09601 0
M  V30 4309 O 409.596 -2.81763 4.95949 0
M  V30 4310 O 408.53 -1.12879 5.91221 0
M  V30 4311 H 412.356 0.445869 3.00409 0
M  V30 4312 H 409.941 0.284128 1.46673 0
M  V30 4313 H 411.823 -1.88459 3.7691 0
M  V30 4314 H 410.498 -1.96068 2.57564 0
M  V30 4315 H 409.405 0.0424407 3.74076 0
M  V30 4316 H 410.738 0.0361517 4.92187 0
M  V30 4317 N 412.39 -1.55475 0.257931 0
M  V30 4318 C 413.667 -1.91155 -0.414629 0
M  V30 4319 C 414.047 -1.18008 -1.75035 0
M  V30 4320 O 413.395 -0.301193 -2.26506 0
M  V30 4321 C 413.605 -3.44283 -0.571859 0
M  V30 4322 C 414.953 -4.15744 -0.862678 0
M  V30 4323 O 415.977 -3.50083 -0.657314 0
M  V30 4324 O 414.836 -5.31909 -1.2544 0
M  V30 4325 H 411.93 -0.796016 -0.22425 0
M  V30 4326 H 414.476 -1.66976 0.302814 0
M  V30 4327 H 413.248 -3.89558 0.368844 0
M  V30 4328 H 412.871 -3.7436 -1.33943 0
M  V30 4329 N 413.868 0.0150385 -1.57593 0
M  V30 4330 C 415.114 0.704043 -1.90187 0
M  V30 4331 C 415.447 1.74249 -0.857366 0
M  V30 4332 O 414.722 1.94092 0.125843 0
M  V30 4333 C 415.005 1.36087 -3.33395 0
M  V30 4334 C 414.858 0.334981 -4.48551 0
M  V30 4335 C 416.177 2.29112 -3.7576 0
M  V30 4336 H 413.296 0.254475 -0.691673 0
M  V30 4337 H 415.938 -0.0331678 -1.89971 0
M  V30 4338 H 414.088 1.98922 -3.3371 0
M  V30 4339 H 415.76 -0.292534 -4.60372 0
M  V30 4340 H 414.003 -0.344325 -4.32431 0
M  V30 4341 H 414.674 0.833316 -5.45674 0
M  V30 4342 H 417.15 1.76308 -3.76902 0
M  V30 4343 H 416.026 2.72043 -4.76743 0
M  V30 4344 H 416.287 3.16385 -3.08793 0
M  V30 4345 N 415.346 1.54954 0.287554 0
M  V30 4346 C 416.592 1.75132 1.02257 0
M  V30 4347 C 416.925 0.542858 1.86458 0
M  V30 4348 O 416.2 -0.459856 1.88986 0
M  V30 4349 C 416.483 3.04812 1.91733 0
M  V30 4350 C 416.336 4.35985 1.10622 0
M  V30 4351 C 417.655 3.30438 2.90687 0
M  V30 4352 H 414.774 0.637194 0.370341 0
M  V30 4353 H 417.416 1.87678 0.296111 0
M  V30 4354 H 415.566 2.94247 2.53675 0
M  V30 4355 H 417.238 4.58487 0.508636 0
M  V30 4356 H 415.481 4.31865 0.409271 0
M  V30 4357 H 416.152 5.23017 1.76513 0
M  V30 4358 H 418.628 3.40701 2.38877 0
M  V30 4359 H 417.504 4.22467 3.50447 0
M  V30 4360 H 417.765 2.49377 3.65053 0
M  V30 4361 N 416.824 -0.551391 1.4764 0
M  V30 4362 C 417.787 -1.64007 1.60107 0
M  V30 4363 C 418.787 -1.53601 0.47576 0
M  V30 4364 O 419.977 -1.57655 0.740988 0
M  V30 4365 C 417.109 -3.03569 1.55108 0
M  V30 4366 H 418.302 -1.543 2.57161 0
M  V30 4367 H 415.855 -0.771776 1.35917 0
M  V30 4368 H 416.59 -3.18804 0.594519 0
M  V30 4369 H 416.375 -3.12532 2.36783 0
M  V30 4370 H 417.865 -3.82762 1.66982 0
M  V30 4371 N 418.302 -1.35869 -0.798587 0
M  V30 4372 C 419.55 -1.29332 -1.55298 0
M  V30 4373 C 419.871 0.129729 -1.94568 0
M  V30 4374 O 419.141 1.06796 -1.6423 0
M  V30 4375 H 417.721 -0.475737 -0.57592 0
M  V30 4376 H 420.383 -1.70062 -0.952093 0
M  V30 4377 H 419.479 -1.91458 -2.46476 0
M  V30 4378 N 419.78 1.02168 -1.19998 0
M  V30 4379 C 421.026 1.75945 -1.00852 0
M  V30 4380 C 421.359 1.88702 0.458828 0
M  V30 4381 O 420.634 1.40911 1.34069 0
M  V30 4382 C 420.917 3.18154 -1.68671 0
M  V30 4383 C 420.77 3.13224 -3.22817 0
M  V30 4384 C 422.089 4.16711 -1.41561 0
M  V30 4385 H 419.208 0.638673 -0.367785 0
M  V30 4386 H 421.85 1.19222 -1.4794 0
M  V30 4387 H 420 3.66586 -1.28636 0
M  V30 4388 H 421.672 2.72635 -3.72112 0
M  V30 4389 H 419.915 2.50751 -3.53986 0
M  V30 4390 H 420.586 4.13728 -3.65422 0
M  V30 4391 H 423.062 3.76913 -1.76284 0
M  V30 4392 H 421.938 5.14391 -1.91553 0
M  V30 4393 H 422.199 4.40774 -0.342193 0
M  V30 4394 N 421.258 1.00505 1.21394 0
M  V30 4395 C 422.674 0.717873 1.42544 0
M  V30 4396 C 422.874 -0.706936 1.88692 0
M  V30 4397 O 421.93 -1.47627 2.04847 0
M  V30 4398 C 423.243 1.73377 2.45684 0
M  V30 4399 C 424.791 1.75059 2.59467 0
M  V30 4400 C 425.266 2.75545 3.6584 0
M  V30 4401 N 426.757 2.74213 3.73311 0
M  V30 4402 C 427.492 3.48626 4.55245 0
M  V30 4403 N 426.988 4.32678 5.41075 0
M  V30 4404 N 428.781 3.37276 4.49668 0
M  V30 4405 H 420.932 1.92506 0.897503 0
M  V30 4406 H 423.195 0.830919 0.456375 0
M  V30 4407 H 422.901 2.75395 2.18748 0
M  V30 4408 H 422.775 1.53647 3.44489 0
M  V30 4409 H 425.162 0.737337 2.8574 0
M  V30 4410 H 425.243 1.98861 1.60897 0
M  V30 4411 H 424.887 3.77028 3.40313 0
M  V30 4412 H 424.817 2.49009 4.64007 0
M  V30 4413 H 427.308 2.13234 3.11993 0
M  V30 4414 H 427.621 4.86253 6.00648 0
M  V30 4415 H 425.966 4.3676 5.40616 0
M  V30 4416 H 429.157 2.71043 3.81646 0
M  V30 4417 H 429.33 3.95524 5.13288 0
M  V30 4418 N 422.737 -1.36956 0.779787 0
M  V30 4419 C 423.965 -2.03755 0.359398 0
M  V30 4420 C 424.38 -1.58807 -1.02106 0
M  V30 4421 O 423.737 -0.773024 -1.6532 0
M  V30 4422 C 423.788 -3.59251 0.402568 0
M  V30 4423 O 423.509 -4.02557 1.72858 0
M  V30 4424 C 425.01 -4.43291 -0.0284068 0
M  V30 4425 H 422.23 -0.654148 0.149437 0
M  V30 4426 H 424.774 -1.75128 1.05595 0
M  V30 4427 H 422.929 -3.86621 -0.245478 0
M  V30 4428 H 423.343 -4.97111 1.67275 0
M  V30 4429 H 424.817 -5.51975 0.0529466 0
M  V30 4430 H 425.294 -4.25719 -1.07982 0
M  V30 4431 H 425.9 -4.21163 0.591758 0
M  V30 4432 N 424.215 -0.530993 -1.48385 0
M  V30 4433 C 425.626 -0.0907905 -1.86479 0
M  V30 4434 C 425.977 1.33213 -1.44044 0
M  V30 4435 O 425.102 1.99783 -0.831615 0
M  V30 4436 C 425.697 -0.157987 -3.38431 0
M  V30 4437 C 424.256 0.227026 -3.75715 0
M  V30 4438 C 423.403 -0.5173 -2.72432 0
M  V30 4439 H 426.354 -0.742186 -1.40276 0
M  V30 4440 H 426.375 0.630053 -3.75247 0
M  V30 4441 H 425.887 -1.19372 -3.69286 0
M  V30 4442 H 423.988 1.26486 -3.50474 0
M  V30 4443 H 424.101 -0.113288 -4.78966 0
M  V30 4444 H 422.465 0.0365527 -2.54674 0
M  V30 4445 H 423.248 -1.55368 -3.0613 0
M  V30 4446 N 425.693 1.55336 -0.266172 0
M  V30 4447 C 426.625 2.19544 0.658247 0
M  V30 4448 C 427.638 1.17746 1.12427 0
M  V30 4449 O 428.827 1.44517 1.04772 0
M  V30 4450 C 425.927 2.80032 1.9088 0
M  V30 4451 C 425.1 4.07436 1.59106 0
M  V30 4452 C 424.159 4.52056 2.69317 0
M  V30 4453 O 423.185 5.18023 2.35883 0
M  V30 4454 N 424.387 4.21448 3.99201 0
M  V30 4455 H 427.152 2.99503 0.108754 0
M  V30 4456 H 424.713 1.61667 -0.0869059 0
M  V30 4457 H 426.705 3.06831 2.63888 0
M  V30 4458 H 425.275 2.04119 2.36758 0
M  V30 4459 H 424.495 3.88021 0.695243 0
M  V30 4460 H 425.783 4.90462 1.35367 0
M  V30 4461 H 425.181 3.68528 4.29189 0
M  V30 4462 H 423.738 4.53039 4.68614 0
M  V30 4463 N 427.171 -0.0066808 1.57599 0
M  V30 4464 C 428.582 -0.550379 1.78403 0
M  V30 4465 C 428.933 -1.74339 0.900014 0
M  V30 4466 O 428.058 -2.16166 0.100713 0
M  V30 4467 C 428.653 -1.00523 3.23544 0
M  V30 4468 C 427.212 -1.49428 3.45468 0
M  V30 4469 C 426.359 -0.442444 2.73748 0
M  V30 4470 H 429.31 0.219508 1.57175 0
M  V30 4471 H 429.331 -1.87157 3.31289 0
M  V30 4472 H 428.843 -0.136735 3.87859 0
M  V30 4473 H 426.944 -2.3839 2.86358 0
M  V30 4474 H 427.057 -1.52635 4.54136 0
M  V30 4475 H 425.421 -0.902578 2.38171 0
M  V30 4476 H 426.204 0.416973 3.40758 0
M  V30 4477 N 428.649 -1.55105 -0.279332 0
M  V30 4478 C 429.898 -1.74618 -1.00952 0
M  V30 4479 C 430.211 -0.551096 -1.87676 0
M  V30 4480 O 431.417 -0.628507 -2.64125 0
M  V30 4481 C 429.873 -3.09025 -1.84476 0
M  V30 4482 C 429.481 -4.36081 -1.0265 0
M  V30 4483 C 431.225 -3.37891 -2.56963 0
M  V30 4484 C 429.132 -5.6153 -1.85576 0
M  V30 4485 H 428.062 -0.650868 -0.38064 0
M  V30 4486 H 430.713 -1.81569 -0.265475 0
M  V30 4487 H 429.095 -2.96095 -2.62952 0
M  V30 4488 H 430.269 -4.59909 -0.286354 0
M  V30 4489 H 428.584 -4.14312 -0.416464 0
M  V30 4490 H 431.181 -4.28822 -3.19399 0
M  V30 4491 H 431.524 -2.57737 -3.26921 0
M  V30 4492 H 432.057 -3.5189 -1.85522 0
M  V30 4493 H 428.796 -6.44413 -1.2005 0
M  V30 4494 H 428.316 -5.41854 -2.57204 0
M  V30 4495 H 429.995 -5.99594 -2.43096 0
M  V30 4496 N 430.127 0.543554 -1.4793 0
M  V30 4497 C 431.355 1.32516 -1.58894 0
M  V30 4498 C 431.77 1.87215 -0.244131 0
M  V30 4499 O 431.127 1.65709 0.764652 0
M  V30 4500 C 431.178 2.48554 -2.62494 0
M  V30 4501 O 430.899 1.96112 -3.91755 0
M  V30 4502 C 432.4 3.40572 -2.8377 0
M  V30 4503 H 429.62 0.403472 -0.536145 0
M  V30 4504 H 432.164 0.657106 -1.93655 0
M  V30 4505 H 430.319 3.1127 -2.30629 0
M  V30 4506 H 430.733 2.71967 -4.4848 0
M  V30 4507 H 432.207 4.18375 -3.60093 0
M  V30 4508 H 432.684 3.94965 -1.92092 0
M  V30 4509 H 433.29 2.8366 -3.16887 0
M  V30 4510 N 431.605 1.3629 0.791371 0
M  V30 4511 C 432.537 1.26321 1.91248 0
M  V30 4512 C 433.55 0.18313 1.61767 0
M  V30 4513 O 434.739 0.437682 1.73051 0
M  V30 4514 C 431.839 0.925901 3.26007 0
M  V30 4515 C 431.012 2.10746 3.83281 0
M  V30 4516 C 430.071 1.74352 4.96475 0
M  V30 4517 O 429.097 2.46416 5.13096 0
M  V30 4518 N 430.299 0.676058 5.7655 0
M  V30 4519 H 433.064 2.22915 2.00323 0
M  V30 4520 H 430.625 1.29659 0.969546 0
M  V30 4521 H 432.617 0.663636 3.99222 0
M  V30 4522 H 431.187 0.0491581 3.12561 0
M  V30 4523 H 430.407 2.53264 3.02077 0
M  V30 4524 H 431.695 2.8969 4.18279 0
M  V30 4525 H 431.093 0.0776467 5.65647 0
M  V30 4526 H 429.65 0.473612 6.50077 0
M  V30 4527 N 433.083 -1.0153 1.20538 0
M  V30 4528 C 434.013 -2.11972 0.979295 0
M  V30 4529 C 434.994 -1.6985 -0.0921787 0
M  V30 4530 O 436.179 -1.94089 0.0655932 0
M  V30 4531 C 433.309 -3.43201 0.531984 0
M  V30 4532 C 432.263 -3.9907 1.54685 0
M  V30 4533 C 431.589 -5.26082 0.956127 0
M  V30 4534 C 432.889 -4.32313 2.93092 0
M  V30 4535 H 434.583 -2.31143 1.90298 0
M  V30 4536 H 432.129 -1.11079 0.916372 0
M  V30 4537 H 434.082 -4.1985 0.361044 0
M  V30 4538 H 432.806 -3.23792 -0.427327 0
M  V30 4539 H 431.465 -3.2453 1.70517 0
M  V30 4540 H 431.113 -5.02999 -0.0111538 0
M  V30 4541 H 430.813 -5.64426 1.63393 0
M  V30 4542 H 432.337 -6.05386 0.796284 0
M  V30 4543 H 433.751 -4.99845 2.80763 0
M  V30 4544 H 432.148 -4.81774 3.57791 0
M  V30 4545 H 433.218 -3.41025 3.44717 0
M  V30 4546 N 434.561 -1.01147 -1.20859 0
M  V30 4547 C 435.471 -0.58686 -2.27141 0
M  V30 4548 C 436.487 0.373198 -1.69951 0
M  V30 4549 O 437.663 0.235423 -2.00019 0
M  V30 4550 C 434.728 0.0733602 -3.46622 0
M  V30 4551 C 433.789 -0.931995 -4.19061 0
M  V30 4552 C 433.022 -0.303186 -5.32838 0
M  V30 4553 O 433.245 0.898395 -5.63281 0
M  V30 4554 O 432.179 -1.01735 -5.9324 0
M  V30 4555 H 436.005 -1.47155 -2.65667 0
M  V30 4556 H 433.59 -0.780689 -1.2738 0
M  V30 4557 H 435.472 0.442333 -4.19072 0
M  V30 4558 H 434.147 0.932329 -3.09983 0
M  V30 4559 H 433.054 -1.35224 -3.48805 0
M  V30 4560 H 434.387 -1.76076 -4.59628 0
M  V30 4561 N 436.039 1.36541 -0.78704 0
M  V30 4562 C 436.987 2.31965 -0.171724 0
M  V30 4563 C 437.981 1.55689 0.667631 0
M  V30 4564 O 439.187 1.70969 0.562981 0
M  V30 4565 H 435.562 0.751101 -0.0367545 0
M  V30 4566 H 437.533 2.81428 -0.992017 0
M  V30 4567 C 436.282 3.40968 0.680904 0
M  V30 4568 H 435.605 3.99775 0.0443961 0
M  V30 4569 H 437.045 4.10063 1.07815 0
M  V30 4570 C 435.504 2.82338 1.83813 0
M  V30 4571 O 436.034 2.74311 2.93456 0
M  V30 4572 N 434.24 2.39661 1.6435 0
M  V30 4573 H 433.787 2.46389 0.751668 0
M  V30 4574 H 433.745 2.00779 2.4194 0
M  V30 4575 N 437.518 0.538854 1.48102 0
M  V30 4576 C 438.795 -0.0568108 1.95517 0
M  V30 4577 C 439.175 -1.50408 1.48124 0
M  V30 4578 O 438.523 -2.17133 0.711727 0
M  V30 4579 C 438.733 0.0696262 3.48931 0
M  V30 4580 C 440.081 -0.0851202 4.24515 0
M  V30 4581 O 441.105 -0.0037347 3.562 0
M  V30 4582 O 439.964 -0.257025 5.45895 0
M  V30 4583 H 437.058 -0.0743695 0.823649 0
M  V30 4584 H 439.604 0.604081 1.58584 0
M  V30 4585 H 438.376 1.07744 3.76174 0
M  V30 4586 H 437.999 -0.629714 3.92582 0
M  V30 4587 N 438.996 -1.55193 0.274407 0
M  V30 4588 C 439.929 -2.18606 -0.654712 0
M  V30 4589 C 440.907 -1.14677 -1.15273 0
M  V30 4590 O 442.091 -1.43198 -1.22583 0
M  V30 4591 C 439.218 -2.80875 -1.89281 0
M  V30 4592 C 438.264 -3.981 -1.53032 0
M  V30 4593 S 439.097 -5.32025 -0.609107 0
M  V30 4594 C 440.253 -5.97761 -1.85559 0
M  V30 4595 H 440.486 -2.97074 -0.115894 0
M  V30 4596 H 438.019 -1.54288 0.05867 0
M  V30 4597 H 439.977 -3.17381 -2.60345 0
M  V30 4598 H 438.638 -2.02302 -2.40277 0
M  V30 4599 H 437.831 -4.40356 -2.45158 0
M  V30 4600 H 437.433 -3.63013 -0.899874 0
M  V30 4601 H 439.725 -6.16951 -2.7996 0
M  V30 4602 H 440.668 -6.92545 -1.47605 0
M  V30 4603 H 441.076 -5.27113 -2.02021 0
M  V30 4604 N 440.474 -0.00167713 -1.576 0
M  V30 4605 C 441.885 0.54091 -1.78693 0
M  V30 4606 C 442.236 1.7386 -0.909247 0
M  V30 4607 O 441.361 2.16109 -0.112176 0
M  V30 4608 C 441.956 0.98806 -3.24072 0
M  V30 4609 C 440.515 1.47594 -3.46256 0
M  V30 4610 C 439.662 0.42792 -2.73978 0
M  V30 4611 H 442.613 -0.22784 -1.57056 0
M  V30 4612 H 442.634 1.85398 -3.32277 0
M  V30 4613 H 442.146 0.116164 -3.87926 0
M  V30 4614 H 440.247 2.36868 -2.87618 0
M  V30 4615 H 440.36 1.50225 -4.54939 0
M  V30 4616 H 438.724 0.889934 -2.38647 0
M  V30 4617 H 439.507 -0.435038 -3.40532 0
M  V30 4618 N 441.952 1.55251 0.271103 0
M  V30 4619 C 443.229 1.66664 1.02384 0
M  V30 4620 C 443.609 0.534363 2.04225 0
M  V30 4621 O 442.957 -0.465337 2.23712 0
M  V30 4622 C 443.167 3.05961 1.67895 0
M  V30 4623 C 444.515 3.63772 2.18986 0
M  V30 4624 O 445.539 3.08606 1.77878 0
M  V30 4625 O 444.398 4.60429 2.94393 0
M  V30 4626 H 441.492 0.676957 0.475035 0
M  V30 4627 H 444.038 1.67589 0.26681 0
M  V30 4628 H 442.81 3.79815 0.941071 0
M  V30 4629 H 442.433 3.08943 2.5028 0
M  V30 4630 N 443.43 -0.535701 1.48216 0
M  V30 4631 C 444.67 -1.30238 1.57536 0
M  V30 4632 C 445.034 -1.90479 0.241229 0
M  V30 4633 O 446.235 -2.67983 0.20938 0
M  V30 4634 C 444.506 -2.3669 2.67792 0
M  V30 4635 S 446.065 -3.23159 2.9684 0
M  V30 4636 H 442.883 -0.443093 0.556048 0
M  V30 4637 H 445.485 -0.610937 1.85709 0
M  V30 4638 H 444.189 -1.90905 3.63296 0
M  V30 4639 H 443.72 -3.10548 2.41502 0
M  V30 4640 H 445.735 -4.36647 2.35699 0
M  V30 4641 N 444.908 -1.36708 -0.784132 0
M  V30 4642 C 446.138 -1.34203 -1.57077 0
M  V30 4643 C 446.546 0.0774945 -1.89041 0
M  V30 4644 O 445.889 1.04628 -1.50992 0
M  V30 4645 C 445.951 -2.10351 -2.91535 0
M  V30 4646 C 445.615 -3.59405 -2.82272 0
M  V30 4647 C 446.612 -4.53545 -2.54151 0
M  V30 4648 C 444.297 -4.02362 -3.00683 0
M  V30 4649 C 446.291 -5.8862 -2.44551 0
M  V30 4650 C 443.978 -5.37526 -2.90704 0
M  V30 4651 C 444.976 -6.30468 -2.62677 0
M  V30 4652 O 444.664 -7.63149 -2.52702 0
M  V30 4653 H 444.396 -0.461791 -0.493685 0
M  V30 4654 H 446.95 -1.80475 -0.980712 0
M  V30 4655 H 445.18 -1.5875 -3.52612 0
M  V30 4656 H 446.869 -2.00636 -3.52845 0
M  V30 4657 H 447.635 -4.21669 -2.39625 0
M  V30 4658 H 443.514 -3.30389 -3.21503 0
M  V30 4659 H 447.058 -6.61133 -2.22596 0
M  V30 4660 H 442.955 -5.69008 -3.04795 0
M  V30 4661 H 443.723 -7.73331 -2.68144 0
M  V30 4662 N 446.386 1.0089 -1.21074 0
M  V30 4663 C 447.333 2.09588 -0.966512 0
M  V30 4664 C 448.303 1.65761 0.106089 0
M  V30 4665 O 449.488 1.90758 -0.0402287 0
M  V30 4666 C 446.628 3.40958 -0.533058 0
M  V30 4667 C 445.741 3.9822 -1.67467 0
M  V30 4668 C 444.876 5.17682 -1.19076 0
M  V30 4669 C 443.915 5.67043 -2.30496 0
M  V30 4670 N 443.052 6.77759 -1.83267 0
M  V30 4671 H 447.892 2.29815 -1.89708 0
M  V30 4672 H 445.429 1.12689 -0.945489 0
M  V30 4673 H 447.387 4.1637 -0.263019 0
M  V30 4674 H 446.017 3.20781 0.360505 0
M  V30 4675 H 445.069 3.1983 -2.05944 0
M  V30 4676 H 446.381 4.3085 -2.51336 0
M  V30 4677 H 445.535 6.00326 -0.877151 0
M  V30 4678 H 444.274 4.86635 -0.322066 0
M  V30 4679 H 443.279 4.82999 -2.62664 0
M  V30 4680 H 444.504 6.00121 -3.17855 0
M  V30 4681 H 442.45 6.48527 -0.987356 0
M  V30 4682 H 442.367 7.09624 -2.60711 0
M  V30 4683 H 443.635 7.63949 -1.54928 0
M  V30 4684 N 447.864 1.01787 1.20321 0
M  V30 4685 C 448.796 0.547357 2.22568 0
M  V30 4686 C 449.809 -0.370922 1.58518 0
M  V30 4687 O 450.998 -0.169067 1.77698 0
M  V30 4688 C 448.098 -0.223031 3.38165 0
M  V30 4689 C 447.271 0.697472 4.31803 0
M  V30 4690 C 446.33 -0.025562 5.26194 0
M  V30 4691 O 445.356 0.597367 5.66057 0
M  V30 4692 N 446.558 -1.29999 5.65757 0
M  V30 4693 H 449.323 1.42668 2.63564 0
M  V30 4694 H 446.884 0.895552 1.34876 0
M  V30 4695 H 448.876 -0.716002 3.98316 0
M  V30 4696 H 447.446 -1.00366 2.9605 0
M  V30 4697 H 446.666 1.37073 3.69601 0
M  V30 4698 H 447.954 1.32347 4.91286 0
M  V30 4699 H 447.352 -1.827 5.35385 0
M  V30 4700 H 445.909 -1.73766 6.28211 0
M  V30 4701 N 449.342 -1.36122 0.79427 0
M  V30 4702 C 450.589 -1.99111 0.368905 0
M  V30 4703 C 450.917 -1.63032 -1.0607 0
M  V30 4704 O 450.172 -0.879303 -1.74833 0
M  V30 4705 C 450.471 -3.5409 0.48527 0
M  V30 4706 C 450.137 -4.10003 1.87638 0
M  V30 4707 C 448.799 -4.24986 2.257 0
M  V30 4708 C 451.151 -4.40423 2.78706 0
M  V30 4709 C 448.479 -4.67701 3.54221 0
M  V30 4710 C 450.831 -4.84573 4.0666 0
M  V30 4711 C 449.495 -4.97761 4.44737 0
M  V30 4712 H 448.765 -0.7286 0.134992 0
M  V30 4713 H 451.412 -1.62534 1.01267 0
M  V30 4714 H 449.717 -3.91052 -0.241984 0
M  V30 4715 H 451.414 -4.00766 0.137109 0
M  V30 4716 H 448.004 -3.98784 1.57064 0
M  V30 4717 H 452.188 -4.28412 2.50553 0
M  V30 4718 H 447.444 -4.761 3.83587 0
M  V30 4719 H 451.618 -5.07074 4.77336 0
M  V30 4720 H 449.245 -5.30618 5.44379 0
M  V30 4721 N 450.82 -0.546701 -1.47814 0
M  V30 4722 C 451.753 0.254472 -2.26777 0
M  V30 4723 C 452.731 0.929809 -1.33392 0
M  V30 4724 O 453.915 0.950889 -1.62759 0
M  V30 4725 C 451.042 1.36171 -3.10121 0
M  V30 4726 C 450.088 0.796038 -4.19005 0
M  V30 4727 S 450.921 -0.349191 -5.3436 0
M  V30 4728 C 452.077 0.760122 -6.21267 0
M  V30 4729 H 452.31 -0.415612 -2.94381 0
M  V30 4730 H 449.843 -0.332809 -1.5077 0
M  V30 4731 H 451.801 1.99588 -3.58713 0
M  V30 4732 H 450.462 2.00359 -2.41899 0
M  V30 4733 H 449.655 1.62719 -4.7701 0
M  V30 4734 H 449.257 0.238246 -3.7324 0
M  V30 4735 H 451.549 1.65479 -6.5698 0
M  V30 4736 H 452.492 0.217673 -7.07765 0
M  V30 4737 H 452.9 1.04806 -5.54685 0
M  V30 4738 N 452.299 1.55045 -0.282633 0
M  V30 4739 C 453.576 1.9179 0.384166 0
M  V30 4740 C 453.956 1.20778 1.73136 0
M  V30 4741 O 453.304 0.33719 2.25998 0
M  V30 4742 C 453.514 3.45149 0.517014 0
M  V30 4743 C 454.862 4.17064 0.796427 0
M  V30 4744 O 455.886 3.51084 0.601535 0
M  V30 4745 O 454.745 5.33837 1.16962 0
M  V30 4746 H 451.839 0.799483 0.211558 0
M  V30 4747 H 454.385 1.66474 -0.32934 0
M  V30 4748 H 453.157 3.88922 -0.430772 0
M  V30 4749 H 452.78 3.76443 1.2797 0
M  V30 4750 N 453.777 0.010035 1.57597 0
M  V30 4751 C 454.707 -0.976857 2.12084 0
M  V30 4752 C 455.688 -1.35191 1.03235 0
M  V30 4753 O 456.873 -1.43389 1.3097 0
M  V30 4754 C 454.003 -2.26548 2.63236 0
M  V30 4755 C 452.957 -2.03175 3.76701 0
M  V30 4756 C 452.283 -3.38138 4.14206 0
M  V30 4757 C 453.583 -1.38625 5.03568 0
M  V30 4758 H 455.277 -0.523145 2.94794 0
M  V30 4759 H 452.823 -0.250195 1.4181 0
M  V30 4760 H 454.776 -2.95952 2.99984 0
M  V30 4761 H 453.5 -2.74051 1.77661 0
M  V30 4762 H 452.159 -1.36195 3.40362 0
M  V30 4763 H 451.807 -3.83363 3.25641 0
M  V30 4764 H 451.507 -3.23312 4.90656 0
M  V30 4765 H 453.031 -4.08841 4.53521 0
M  V30 4766 H 454.445 -1.98 5.38023 0
M  V30 4767 H 452.842 -1.34256 5.84889 0
M  V30 4768 H 453.912 -0.356722 4.83586 0
M  V30 4769 N 455.255 -1.55392 -0.262866 0
M  V30 4770 C 456.218 -1.88181 -1.30846 0
M  V30 4771 C 457.218 -0.757079 -1.41862 0
M  V30 4772 O 458.408 -1.02519 -1.40838 0
M  V30 4773 C 455.54 -2.09609 -2.68844 0
M  V30 4774 H 456.733 -2.81659 -1.02997 0
M  V30 4775 H 454.286 -1.48039 -0.501414 0
M  V30 4776 H 455.021 -1.18547 -3.01856 0
M  V30 4777 H 454.806 -2.91508 -2.62231 0
M  V30 4778 H 456.296 -2.36215 -3.44372 0
M  V30 4779 N 456.733 0.527833 -1.48498 0
M  V30 4780 C 457.666 1.64892 -1.57753 0
M  V30 4781 C 458.644 1.5687 -0.427867 0
M  V30 4782 O 459.828 1.77311 -0.639764 0
M  V30 4783 C 456.955 3.03301 -1.50752 0
M  V30 4784 C 456.001 3.29675 -2.70586 0
M  V30 4785 S 456.834 3.15712 -4.32535 0
M  V30 4786 C 457.99 4.56564 -4.28136 0
M  V30 4787 H 458.223 1.56792 -2.52594 0
M  V30 4788 H 455.756 0.710959 -1.37057 0
M  V30 4789 H 457.714 3.83123 -1.474 0
M  V30 4790 H 456.375 3.08839 -0.572454 0
M  V30 4791 H 455.568 4.3065 -2.61833 0
M  V30 4792 H 455.17 2.57526 -2.71212 0
M  V30 4793 H 457.462 5.48126 -3.98201 0
M  V30 4794 H 458.405 4.70371 -5.29298 0
M  V30 4795 H 458.813 4.35987 -3.58574 0
M  V30 4796 N 458.211 1.37122 0.776871 0
M  V30 4797 C 459.158 1.3247 1.88998 0
M  V30 4798 C 460.128 0.191143 1.64997 0
M  V30 4799 O 461.313 0.379683 1.86984 0
M  V30 4800 C 458.453 1.13241 3.25992 0
M  V30 4801 C 457.566 2.35782 3.61982 0
M  V30 4802 C 456.701 2.09465 4.88158 0
M  V30 4803 C 455.74 3.279 5.16864 0
M  V30 4804 N 454.877 3.01167 6.34226 0
M  V30 4805 H 459.717 2.27642 1.9231 0
M  V30 4806 H 457.254 1.13125 0.94027 0
M  V30 4807 H 459.212 1.00115 4.0501 0
M  V30 4808 H 457.842 0.217186 3.22069 0
M  V30 4809 H 456.894 2.59666 2.77989 0
M  V30 4810 H 458.206 3.24125 3.79137 0
M  V30 4811 H 457.36 1.93341 5.75069 0
M  V30 4812 H 456.099 1.18452 4.73097 0
M  V30 4813 H 455.104 3.44569 4.2843 0
M  V30 4814 H 456.329 4.19757 5.33836 0
M  V30 4815 H 454.275 2.12779 6.20533 0
M  V30 4816 H 454.192 3.83052 6.51772 0
M  V30 4817 H 455.46 2.88649 7.24087 0
M  V30 4818 N 459.689 -1.00246 1.21608 0
M  V30 4819 C 460.619 -2.10921 1.00172 0
M  V30 4820 C 461.6 -1.69938 -0.0741587 0
M  V30 4821 O 462.785 -1.94009 0.0861753 0
M  V30 4822 C 459.915 -3.42618 0.568355 0
M  V30 4823 C 458.869 -3.97407 1.58909 0
M  V30 4824 C 458.195 -5.25038 1.01187 0
M  V30 4825 C 459.495 -4.2918 2.97661 0
M  V30 4826 H 461.189 -2.29112 1.92739 0
M  V30 4827 H 458.735 -1.10101 0.928102 0
M  V30 4828 H 460.688 -4.19444 0.405555 0
M  V30 4829 H 459.412 -3.24227 -0.392961 0
M  V30 4830 H 458.071 -3.22703 1.73949 0
M  V30 4831 H 457.719 -5.02982 0.0421965 0
M  V30 4832 H 457.419 -5.62661 1.6937 0
M  V30 4833 H 458.943 -6.04507 0.860448 0
M  V30 4834 H 460.357 -4.96839 2.86049 0
M  V30 4835 H 458.754 -4.77952 3.6288 0
M  V30 4836 H 459.824 -3.3735 3.48315 0
M  V30 4837 N 461.167 -1.02423 -1.1978 0
M  V30 4838 C 462.077 -0.610919 -2.26506 0
M  V30 4839 C 463.093 0.355152 -1.70337 0
M  V30 4840 O 464.269 0.214195 -2.00258 0
M  V30 4841 C 461.334 0.0365921 -3.46681 0
M  V30 4842 C 460.395 -0.976389 -4.18049 0
M  V30 4843 C 459.628 -0.359683 -5.32487 0
M  V30 4844 O 459.851 0.838601 -5.64202 0
M  V30 4845 O 458.785 -1.08022 -5.92127 0
M  V30 4846 H 462.611 -1.49965 -2.64091 0
M  V30 4847 H 460.196 -0.794156 -1.26545 0
M  V30 4848 H 462.078 0.39786 -4.19518 0
M  V30 4849 H 460.753 0.899398 -3.10954 0
M  V30 4850 H 459.66 -1.38916 -3.47352 0
M  V30 4851 H 460.993 -1.80941 -4.57735 0
M  V30 4852 N 462.645 1.35699 -0.801477 0
M  V30 4853 C 463.592 2.29876 -0.206294 0
M  V30 4854 C 464.562 1.52565 0.656752 0
M  V30 4855 O 465.747 1.81024 0.602906 0
M  V30 4856 C 462.887 3.39052 0.643272 0
M  V30 4857 C 462 4.31335 -0.239644 0
M  V30 4858 C 461.135 5.27599 0.61744 0
M  V30 4859 C 460.174 6.11521 -0.26619 0
M  V30 4860 N 459.311 6.99938 0.550571 0
M  V30 4861 H 464.151 2.80187 -1.01484 0
M  V30 4862 H 461.688 1.37902 -0.511997 0
M  V30 4863 H 463.646 4.0101 1.15094 0
M  V30 4864 H 462.276 2.9003 1.41713 0
M  V30 4865 H 461.328 3.70426 -0.865381 0
M  V30 4866 H 462.64 4.90243 -0.919985 0
M  V30 4867 H 461.794 5.94906 1.19045 0
M  V30 4868 H 460.533 4.69176 1.33137 0
M  V30 4869 H 459.538 5.43166 -0.851507 0
M  V30 4870 H 460.763 6.72022 -0.9779 0
M  V30 4871 H 458.709 6.44008 1.24856 0
M  V30 4872 H 458.626 7.55966 -0.071832 0
M  V30 4873 H 459.894 7.71599 1.10702 0
M  V30 4874 N 464.123 0.554532 1.47522 0
M  V30 4875 C 465.073 -0.215008 2.26984 0
M  V30 4876 C 466.057 -0.88774 1.34194 0
M  V30 4877 O 467.249 -0.786489 1.58567 0
M  V30 4878 C 464.378 -1.24604 3.19889 0
M  V30 4879 C 463.464 -0.576857 4.20159 0
M  V30 4880 N 463.855 0.351541 5.04577 0
M  V30 4881 C 462.153 -0.831104 4.38188 0
M  V30 4882 C 462.854 0.739995 5.76974 0
M  V30 4883 N 461.83 0.0954407 5.43516 0
M  V30 4884 H 465.632 0.498843 2.89636 0
M  V30 4885 H 463.146 0.374279 1.58028 0
M  V30 4886 H 465.143 -1.81128 3.75498 0
M  V30 4887 H 463.803 -1.96101 2.58794 0
M  V30 4888 H 464.814 0.725556 5.12792 0
M  V30 4889 H 461.491 -1.53479 3.88266 0
M  V30 4890 H 462.881 1.50271 6.5488 0
M  V30 4891 N 465.601 -1.54893 0.290851 0
M  V30 4892 C 466.848 -1.99933 -0.321391 0
M  V30 4893 C 467.176 -1.17927 -1.54672 0
M  V30 4894 O 466.431 -0.240902 -1.94212 0
M  V30 4895 C 466.73 -3.49815 -0.732397 0
M  V30 4896 C 466.396 -4.4921 0.390056 0
M  V30 4897 C 465.058 -4.76107 0.698223 0
M  V30 4898 C 467.41 -5.08453 1.14562 0
M  V30 4899 C 464.738 -5.59514 1.76526 0
M  V30 4900 C 467.09 -5.9302 2.2025 0
M  V30 4901 C 465.754 -6.18232 2.51684 0
M  V30 4902 H 465.024 -0.731608 -0.117605 0
M  V30 4903 H 467.671 -1.87107 0.407839 0
M  V30 4904 H 465.976 -3.60199 -1.54155 0
M  V30 4905 H 467.673 -3.82083 -1.21712 0
M  V30 4906 H 464.263 -4.28372 0.13976 0
M  V30 4907 H 468.447 -4.87683 0.920801 0
M  V30 4908 H 463.703 -5.77289 2.01364 0
M  V30 4909 H 467.877 -6.37955 2.7926 0
M  V30 4910 H 465.504 -6.82653 3.34499 0
M  V30 4911 N 467.08 -0.0183926 -1.57589 0
M  V30 4912 C 468.496 0.337897 -1.55982 0
M  V30 4913 C 468.696 1.73604 -1.02294 0
M  V30 4914 O 467.752 2.43589 -0.664895 0
M  V30 4915 C 469.065 0.196305 -3.00059 0
M  V30 4916 C 470.613 0.269875 -3.11834 0
M  V30 4917 C 471.088 0.157197 -4.5773 0
M  V30 4918 N 472.579 0.214521 -4.62703 0
M  V30 4919 C 473.314 0.150955 -5.73201 0
M  V30 4920 N 472.81 0.0369212 -6.9279 0
M  V30 4921 N 474.603 0.204162 -5.61729 0
M  V30 4922 H 466.754 -0.93279 -1.90821 0
M  V30 4923 H 469.017 -0.359253 -0.877292 0
M  V30 4924 H 468.723 -0.766383 -3.43248 0
M  V30 4925 H 468.597 0.970908 -3.6449 0
M  V30 4926 H 470.984 1.22302 -2.68563 0
M  V30 4927 H 471.065 -0.534918 -2.50144 0
M  V30 4928 H 470.709 -0.792479 -5.01679 0
M  V30 4929 H 470.639 0.980717 -5.17387 0
M  V30 4930 H 473.13 0.303238 -3.76681 0
M  V30 4931 H 473.443 -0.00518321 -7.728 0
M  V30 4932 H 471.788 0.0022886 -6.95 0
M  V30 4933 H 474.979 0.291575 -4.67191 0
M  V30 4934 H 475.152 0.15116 -6.47824 0
M  V30 4935 N 468.558 1.5553 0.254621 0
M  V30 4936 C 469.835 1.6774 1.00611 0
M  V30 4937 C 470.215 0.555993 2.03647 0
M  V30 4938 O 469.563 -0.441583 2.24193 0
M  V30 4939 C 469.773 3.07725 1.6464 0
M  V30 4940 C 471.121 3.66074 2.15116 0
M  V30 4941 O 472.145 3.10476 1.74595 0
M  V30 4942 O 471.004 4.63526 2.89493 0
M  V30 4943 H 468.098 0.681958 0.467828 0
M  V30 4944 H 470.644 1.67863 0.24902 0
M  V30 4945 H 469.416 3.80792 0.900734 0
M  V30 4946 H 469.039 3.1158 2.46989 0
M  V30 4947 N 470.036 -0.519951 1.48776 0
M  V30 4948 C 470.969 -1.64053 1.58625 0
M  V30 4949 C 471.947 -1.5664 0.43618 0
M  V30 4950 O 473.131 -1.76969 0.649159 0
M  V30 4951 C 470.258 -3.02497 1.52359 0
M  V30 4952 C 469.304 -3.28235 2.72331 0
M  V30 4953 S 470.137 -3.13414 4.34203 0
M  V30 4954 C 471.293 -4.54287 4.30551 0
M  V30 4955 H 471.526 -1.5545 2.53422 0
M  V30 4956 H 469.059 -0.703681 1.37433 0
M  V30 4957 H 471.017 -3.82336 1.4943 0
M  V30 4958 H 469.678 -3.08531 0.588824 0
M  V30 4959 H 468.871 -4.29256 2.64113 0
M  V30 4960 H 468.473 -2.56085 2.72574 0
M  V30 4961 H 470.765 -5.46006 4.01103 0
M  V30 4962 H 471.708 -4.67558 5.31785 0
M  V30 4963 H 472.116 -4.34079 3.60881 0
M  V30 4964 N 471.514 -1.37532 -0.769588 0
M  V30 4965 C 472.446 -1.29347 -1.89214 0
M  V30 4966 C 473.459 -0.208842 -1.61455 0
M  V30 4967 O 474.648 -0.465158 -1.72333 0
M  V30 4968 C 471.748 -0.977649 -3.24492 0
M  V30 4969 C 470.921 -2.16817 -3.7988 0
M  V30 4970 C 469.98 -1.82229 -4.93639 0
M  V30 4971 O 469.006 -2.54548 -5.09111 0
M  V30 4972 N 470.208 -0.767696 -5.75401 0
M  V30 4973 H 472.973 -2.26073 -1.96751 0
M  V30 4974 H 470.534 -1.31185 -0.948795 0
M  V30 4975 H 472.526 -0.727065 -3.98115 0
M  V30 4976 H 471.096 -0.0988777 -3.12444 0
M  V30 4977 H 470.316 -2.58038 -2.9801 0
M  V30 4978 H 471.604 -2.96308 -4.13617 0
M  V30 4979 H 471.002 -0.167626 -5.65452 0
M  V30 4980 H 469.559 -0.576973 -6.49241 0
M  V30 4981 N 472.992 0.995999 -1.22138 0
M  V30 4982 C 474.269 1.70834 -0.952642 0
M  V30 4983 C 474.649 2.04257 0.533119 0
M  V30 4984 O 473.997 1.72343 1.50034 0
M  V30 4985 C 474.207 2.96119 -1.84701 0
M  V30 4986 C 475.555 3.68962 -2.10124 0
M  V30 4987 O 476.579 3.0612 -1.82124 0
M  V30 4988 O 475.438 4.82017 -2.57531 0
M  V30 4989 H 472.532 0.745498 -0.357997 0
M  V30 4990 H 475.078 1.05262 -1.33109 0
M  V30 4991 H 473.85 2.67898 -2.85213 0
M  V30 4992 H 473.473 3.6943 -1.46995 0
M  V30 4993 N 474.47 1.03057 1.19235 0
M  V30 4994 C 475.403 0.557384 2.21288 0
M  V30 4995 C 476.381 -0.402675 1.57535 0
M  V30 4996 O 477.565 -0.319376 1.85775 0
M  V30 4997 C 474.692 -0.187041 3.38183 0
M  V30 4998 C 473.738 0.72471 4.20298 0
M  V30 4999 S 474.571 2.20187 4.88137 0
M  V30 5000 C 475.727 1.46801 6.08441 0
M  V30 5001 H 475.96 1.42207 2.61083 0
M  V30 5002 H 473.493 0.840651 1.29508 0
M  V30 5003 H 475.451 -0.610405 4.05936 0
M  V30 5004 H 474.112 -1.02748 2.96819 0
M  V30 5005 H 473.305 0.149911 5.03777 0
M  V30 5006 H 472.907 1.08647 3.57871 0
M  V30 5007 H 475.199 0.755522 6.73274 0
M  V30 5008 H 476.142 2.27946 6.70407 0
M  V30 5009 H 476.55 0.964762 5.56195 0
M  V30 5010 N 475.948 -1.35272 0.808662 0
M  V30 5011 C 476.858 -2.33546 0.222079 0
M  V30 5012 C 477.874 -1.6196 -0.636011 0
M  V30 5013 O 479.05 -1.93822 -0.547274 0
M  V30 5014 C 476.115 -3.41148 -0.61795 0
M  V30 5015 C 475.176 -4.28507 0.260875 0
M  V30 5016 C 474.409 -5.3097 -0.539156 0
M  V30 5017 O 474.632 -5.42123 -1.77367 0
M  V30 5018 O 473.566 -6.01858 0.0710526 0
M  V30 5019 H 477.392 -2.85515 1.03512 0
M  V30 5020 H 474.977 -1.38079 0.570495 0
M  V30 5021 H 476.859 -4.06889 -1.09634 0
M  V30 5022 H 475.534 -2.91447 -1.40855 0
M  V30 5023 H 474.441 -3.6574 0.786451 0
M  V30 5024 H 475.774 -4.81611 1.01547 0
M  V30 5025 N 477.426 -0.562348 -1.47226 0
M  V30 5026 C 478.673 -0.0402165 -2.0246 0
M  V30 5027 C 479.001 1.31169 -1.43614 0
M  V30 5028 O 478.256 1.86805 -0.5833 0
M  V30 5029 C 478.555 0.0969817 -3.57268 0
M  V30 5030 C 478.221 -1.1847 -4.35058 0
M  V30 5031 C 476.883 -1.53588 -4.56031 0
M  V30 5032 C 479.235 -2.03378 -4.79882 0
M  V30 5033 C 476.563 -2.73452 -5.19077 0
M  V30 5034 C 478.915 -3.2245 -5.44251 0
M  V30 5035 C 477.579 -3.57876 -5.63455 0
M  V30 5036 H 476.849 -0.0147163 -0.740854 0
M  V30 5037 H 479.496 -0.734895 -1.76838 0
M  V30 5038 H 477.801 0.87466 -3.81912 0
M  V30 5039 H 479.498 0.516408 -3.97661 0
M  V30 5040 H 476.088 -0.90126 -4.19017 0
M  V30 5041 H 480.272 -1.77553 -4.63453 0
M  V30 5042 H 475.528 -3.01062 -5.32139 0
M  V30 5043 H 479.702 -3.88526 -5.77945 0
M  V30 5044 H 477.329 -4.50849 -6.12078 0
M  V30 5045 N 478.904 1.54736 -0.299062 0
M  V30 5046 C 480.132 2.04512 0.313447 0
M  V30 5047 C 480.547 1.17643 1.47667 0
M  V30 5048 O 479.904 0.20164 1.81383 0
M  V30 5049 C 479.955 3.53171 0.771542 0
M  V30 5050 O 479.676 4.36736 -0.345379 0
M  V30 5051 C 481.177 4.18936 1.4494 0
M  V30 5052 H 478.397 0.667507 0.0683784 0
M  V30 5053 H 480.941 1.99752 -0.438129 0
M  V30 5054 H 479.096 3.58298 1.47314 0
M  V30 5055 H 479.51 5.24499 0.0109219 0
M  V30 5056 H 480.984 5.24482 1.72111 0
M  V30 5057 H 481.461 3.68554 2.38883 0
M  V30 5058 H 482.067 4.17879 0.791028 0
M  V30 5059 N 480.382 0.0267497 1.57577 0
M  V30 5060 C 481.631 -0.651736 1.9088 0
M  V30 5061 C 481.944 -1.73427 0.904576 0
M  V30 5062 O 483.15 -2.46923 1.12877 0
M  V30 5063 C 481.606 -1.21048 3.38933 0
M  V30 5064 C 481.214 -0.161362 4.47709 0
M  V30 5065 C 482.958 -1.86562 3.81307 0
M  V30 5066 C 480.865 -0.731611 5.86857 0
M  V30 5067 H 479.795 -0.247198 0.712326 0
M  V30 5068 H 482.446 0.0916641 1.83271 0
M  V30 5069 H 480.828 -2.00542 3.41466 0
M  V30 5070 H 482.002 0.61094 4.56732 0
M  V30 5071 H 480.317 0.394877 4.14523 0
M  V30 5072 H 482.914 -2.30178 4.8262 0
M  V30 5073 H 483.257 -2.70735 3.16241 0
M  V30 5074 H 483.79 -1.13762 3.81186 0
M  V30 5075 H 480.529 0.0719329 6.55461 0
M  V30 5076 H 480.049 -1.47245 5.81445 0
M  V30 5077 H 481.728 -1.22208 6.35354 0
M  V30 5078 N 481.861 -1.55662 -0.24637 0
M  V30 5079 C 482.771 -1.93495 -1.32653 0
M  V30 5080 C 483.787 -0.835462 -1.5263 0
M  V30 5081 O 484.963 -1.1369 -1.66242 0
M  V30 5082 C 482.028 -2.22242 -2.66101 0
M  V30 5083 C 481.089 -3.45625 -2.54641 0
M  V30 5084 C 480.322 -3.72991 -3.81724 0
M  V30 5085 O 480.545 -3.02421 -4.8363 0
M  V30 5086 O 479.479 -4.66515 -3.80325 0
M  V30 5087 H 483.305 -2.85498 -1.03559 0
M  V30 5088 H 480.89 -1.42551 -0.44717 0
M  V30 5089 H 482.772 -2.42037 -3.44958 0
M  V30 5090 H 481.447 -1.33417 -2.94926 0
M  V30 5091 H 480.354 -3.31136 -1.74067 0
M  V30 5092 H 481.687 -4.34754 -2.3076 0
M  V30 5093 N 483.339 0.512053 -1.4905 0
M  V30 5094 C 484.249 1.64139 -1.67617 0
M  V30 5095 C 485.265 1.64786 -0.558701 0
M  V30 5096 O 486.441 1.8341 -0.832034 0
M  V30 5097 C 483.506 3.00548 -1.72835 0
M  V30 5098 C 482.567 3.10615 -2.96339 0
M  V30 5099 C 481.8 4.40517 -3.01298 0
M  V30 5100 O 482.023 5.28671 -2.14157 0
M  V30 5101 O 480.957 4.55325 -3.93653 0
M  V30 5102 H 484.783 1.51407 -2.63267 0
M  V30 5103 H 482.368 0.687131 -1.32661 0
M  V30 5104 H 484.25 3.81641 -1.78683 0
M  V30 5105 H 482.925 3.13566 -0.803616 0
M  V30 5106 H 481.832 2.2875 -2.96014 0
M  V30 5107 H 483.165 3.0252 -3.88256 0
M  V30 5108 N 484.817 1.37938 0.762283 0
M  V30 5109 C 486.065 1.33404 1.51815 0
M  V30 5110 C 486.386 -0.0780975 1.94844 0
M  V30 5111 O 485.656 -1.02405 1.67003 0
M  V30 5112 H 484.236 0.490839 0.563104 0
M  V30 5113 H 486.898 1.72527 0.906669 0
M  V30 5114 H 485.994 1.97926 2.41313 0
M  V30 5115 N 486.295 -0.989507 1.22664 0
M  V30 5116 C 487.242 -2.08024 0.999733 0
M  V30 5117 C 488.212 -1.65909 -0.0797047 0
M  V30 5118 O 489.397 -1.90669 0.0705715 0
M  V30 5119 C 486.537 -3.40067 0.587234 0
M  V30 5120 C 485.65 -3.95505 1.73781 0
M  V30 5121 C 484.785 -5.15722 1.27297 0
M  V30 5122 C 483.824 -5.63305 2.39488 0
M  V30 5123 N 482.961 -6.74758 1.94026 0
M  V30 5124 H 487.801 -2.26768 1.9334 0
M  V30 5125 H 485.338 -1.11171 0.963297 0
M  V30 5126 H 487.296 -4.15899 0.329227 0
M  V30 5127 H 485.926 -3.21314 -0.309426 0
M  V30 5128 H 484.978 -3.16513 2.11006 0
M  V30 5129 H 486.29 -4.26797 2.58158 0
M  V30 5130 H 485.444 -5.98854 0.972546 0
M  V30 5131 H 484.183 -4.86061 0.399445 0
M  V30 5132 H 483.188 -4.78759 2.70315 0
M  V30 5133 H 484.413 -5.94988 3.27362 0
M  V30 5134 H 482.359 -6.46874 1.09041 0
M  V30 5135 H 482.276 -7.05386 2.71968 0
M  V30 5136 H 483.544 -7.61387 1.67062 0
M  V30 5137 N 487.773 -1.03688 -1.18687 0
M  V30 5138 C 488.703 -0.645407 -2.24403 0
M  V30 5139 C 489.684 0.349511 -1.66471 0
M  V30 5140 O 490.869 0.230453 -1.92828 0
M  V30 5141 C 487.999 -0.00365337 -3.473 0
M  V30 5142 C 486.953 -0.921705 -4.17958 0
M  V30 5143 C 486.279 -0.144629 -5.34504 0
M  V30 5144 C 487.579 -2.23909 -4.71871 0
M  V30 5145 H 489.273 -1.52917 -2.57404 0
M  V30 5146 H 486.819 -0.736711 -1.23728 0
M  V30 5147 H 488.772 0.281908 -4.20456 0
M  V30 5148 H 487.496 0.914963 -3.13522 0
M  V30 5149 H 486.155 -1.19159 -3.46694 0
M  V30 5150 H 485.803 0.776274 -4.96974 0
M  V30 5151 H 485.503 -0.756206 -5.82714 0
M  V30 5152 H 487.027 0.134004 -6.10453 0
M  V30 5153 H 488.441 -2.0145 -5.36741 0
M  V30 5154 H 486.838 -2.8033 -5.30599 0
M  V30 5155 H 487.908 -2.88822 -3.895 0
M  V30 5156 N 489.251 1.34841 -0.815825 0
M  V30 5157 C 490.481 2.02436 -0.412695 0
M  V30 5158 C 490.889 1.61604 0.983906 0
M  V30 5159 O 490.232 0.813729 1.64694 0
M  V30 5160 C 490.294 3.56953 -0.427182 0
M  V30 5161 C 489.958 4.21083 -1.77589 0
M  V30 5162 C 490.955 4.42107 -2.73564 0
M  V30 5163 C 488.64 4.58006 -2.06243 0
M  V30 5164 C 490.634 4.99169 -3.9637 0
M  V30 5165 C 488.321 5.1478 -3.2931 0
M  V30 5166 C 489.319 5.35304 -4.24191 0
M  V30 5167 O 489.007 5.90878 -5.45086 0
M  V30 5168 H 488.739 0.655631 -0.164695 0
M  V30 5169 H 491.293 1.73246 -1.1034 0
M  V30 5170 H 489.523 3.85372 0.320175 0
M  V30 5171 H 491.212 4.05875 -0.0450875 0
M  V30 5172 H 491.978 4.13953 -2.52721 0
M  V30 5173 H 487.857 4.41339 -1.33196 0
M  V30 5174 H 491.401 5.15105 -4.70439 0
M  V30 5175 H 487.298 5.42362 -3.5002 0
M  V30 5176 H 488.066 6.0932 -5.46508 0
M  V30 5177 N 490.729 0.570148 1.46925 0
M  V30 5178 C 491.976 0.0509529 2.02436 0
M  V30 5179 C 492.304 -1.30405 1.44308 0
M  V30 5180 O 491.559 -1.86493 0.593198 0
M  V30 5181 C 491.858 -0.0780336 3.57315 0
M  V30 5182 C 491.524 1.20775 4.34424 0
M  V30 5183 C 490.186 1.56004 4.5521 0
M  V30 5184 C 492.538 2.0592 4.78797 0
M  V30 5185 C 489.866 2.76201 5.17619 0
M  V30 5186 C 492.218 3.25332 5.42533 0
M  V30 5187 C 490.882 3.60859 5.61549 0
M  V30 5188 H 490.152 0.018645 0.740765 0
M  V30 5189 H 492.799 0.744262 1.76445 0
M  V30 5190 H 491.104 -0.854394 3.82371 0
M  V30 5191 H 492.801 -0.495312 3.97929 0
M  V30 5192 H 489.391 0.923469 4.18533 0
M  V30 5193 H 493.575 1.80008 4.62505 0
M  V30 5194 H 488.831 3.0388 5.30535 0
M  V30 5195 H 493.005 3.91586 5.75876 0
M  V30 5196 H 490.632 4.54088 6.09678 0
M  V30 5197 N 492.207 -1.54576 0.307264 0
M  V30 5198 C 493.137 -2.26708 -0.55907 0
M  V30 5199 C 494.118 -1.26893 -1.1328 0
M  V30 5200 O 495.303 -1.55677 -1.16097 0
M  V30 5201 C 492.433 -3.01259 -1.72801 0
M  V30 5202 C 491.387 -4.08275 -1.28435 0
M  V30 5203 C 490.713 -4.70575 -2.53895 0
M  V30 5204 C 492.013 -5.2068 -0.411038 0
M  V30 5205 H 493.707 -2.9937 0.042576 0
M  V30 5206 H 491.253 -1.43983 0.0219173 0
M  V30 5207 H 493.206 -3.50444 -2.34023 0
M  V30 5208 H 491.93 -2.26187 -2.356 0
M  V30 5209 H 490.589 -3.59949 -0.695161 0
M  V30 5210 H 490.237 -3.92136 -3.15021 0
M  V30 5211 H 489.937 -5.42854 -2.24908 0
M  V30 5212 H 491.461 -5.22527 -3.15908 0
M  V30 5213 H 492.875 -5.65721 -0.929097 0
M  V30 5214 H 491.272 -5.99716 -0.214664 0
M  V30 5215 H 492.342 -4.81629 0.562287 0
M  V30 5216 N 493.685 -0.035106 -1.57561 0
M  V30 5217 C 494.617 0.973604 -2.07494 0
M  V30 5218 C 495.63 1.28504 -0.999534 0
M  V30 5219 O 496.819 1.24864 -1.27559 0
M  V30 5220 C 493.919 2.29945 -2.48955 0
M  V30 5221 C 493.092 2.1723 -3.79644 0
M  V30 5222 C 492.151 3.328 -4.07592 0
M  V30 5223 O 491.177 3.09418 -4.77754 0
M  V30 5224 N 492.379 4.56779 -3.58236 0
M  V30 5225 H 495.144 0.547525 -2.94656 0
M  V30 5226 H 492.705 0.151515 -1.61189 0
M  V30 5227 H 494.697 3.06097 -2.64739 0
M  V30 5228 H 493.267 2.64173 -1.67126 0
M  V30 5229 H 492.487 1.25768 -3.73599 0
M  V30 5230 H 493.775 2.05945 -4.65257 0
M  V30 5231 H 493.173 4.78668 -3.01485 0
M  V30 5232 H 491.73 5.30079 -3.79288 0
M  V30 5233 N 495.163 1.55791 0.238111 0
M  V30 5234 C 496.391 1.82098 0.982233 0
M  V30 5235 C 496.806 0.612025 1.78605 0
M  V30 5236 O 496.163 -0.419381 1.77616 0
M  V30 5237 C 496.214 3.0673 1.91309 0
M  V30 5238 O 495.935 4.2296 1.14179 0
M  V30 5239 C 497.436 3.45903 2.77248 0
M  V30 5240 H 494.656 0.605748 0.288635 0
M  V30 5241 H 497.2 2.02862 0.258341 0
M  V30 5242 H 495.355 2.87991 2.59114 0
M  V30 5243 H 495.769 4.93653 1.7722 0
M  V30 5244 H 497.243 4.36189 3.38295 0
M  V30 5245 H 497.72 2.66891 3.48806 0
M  V30 5246 H 498.326 3.67024 2.14881 0
M  V30 5247 N 496.642 -0.504142 1.49319 0
M  V30 5248 C 498.058 -0.835039 1.36012 0
M  V30 5249 C 498.258 -1.97674 0.390808 0
M  V30 5250 O 497.314 -2.51867 -0.178655 0
M  V30 5251 C 498.627 -1.17821 2.76656 0
M  V30 5252 C 500.175 -1.2866 2.85334 0
M  V30 5253 C 500.65 -1.66307 4.26739 0
M  V30 5254 N 502.141 -1.73362 4.29534 0
M  V30 5255 C 502.876 -2.0393 5.35911 0
M  V30 5256 N 502.372 -2.32744 6.52535 0
M  V30 5257 N 504.165 -2.05155 5.23324 0
M  V30 5258 H 496.316 0.248764 2.10938 0
M  V30 5259 H 498.579 0.0486962 0.946748 0
M  V30 5260 H 498.285 -0.412682 3.4927 0
M  V30 5261 H 498.159 -2.12239 3.11825 0
M  V30 5262 H 500.546 -2.04285 2.1296 0
M  V30 5263 H 500.627 -0.323004 2.53752 0
M  V30 5264 H 500.271 -0.91234 4.99639 0
M  V30 5265 H 500.201 -2.63761 4.55782 0
M  V30 5266 H 502.692 -1.53268 3.45424 0
M  V30 5267 H 503.005 -2.55248 7.2943 0
M  V30 5268 H 501.35 -2.30207 6.55767 0
M  V30 5269 H 504.541 -1.82119 4.3122 0
M  V30 5270 H 504.714 -2.28644 6.06322 0
M  V30 5271 N 498.12 -1.38341 -0.754957 0
M  V30 5272 C 499.068 -1.35573 -1.89005 0
M  V30 5273 C 500.062 -0.241824 -1.67665 0
M  V30 5274 O 501.268 -0.410785 -1.7525 0
M  V30 5275 H 497.643 -0.422898 -0.621821 0
M  V30 5276 H 499.614 -2.31359 -1.88455 0
M  V30 5277 C 498.363 -1.19631 -3.26471 0
M  V30 5278 H 497.686 -2.04605 -3.43477 0
M  V30 5279 H 499.126 -1.21748 -4.06144 0
M  V30 5280 C 497.585 0.0968705 -3.36761 0
M  V30 5281 O 498.115 1.07439 -3.87066 0
M  V30 5282 N 496.321 0.153242 -2.90196 0
M  V30 5283 H 495.868 -0.642908 -2.49448 0
M  V30 5284 H 495.826 1.01807 -2.9746 0
M  V30 5285 N 499.598 0.982988 -1.23187 0
M  V30 5286 C 500.846 1.72052 -1.06031 0
M  V30 5287 C 501.167 1.90769 0.404019 0
M  V30 5288 O 500.437 1.47446 1.28982 0
M  V30 5289 H 499.017 0.637499 -0.389363 0
M  V30 5290 H 501.679 1.18338 -1.54862 0
M  V30 5291 H 500.775 2.7111 -1.54615 0
M  V30 5292 N 501.076 1.04316 1.18135 0
M  V30 5293 C 502.023 0.636398 2.21853 0
M  V30 5294 C 502.993 -0.357039 1.62217 0
M  V30 5295 O 504.178 -0.250453 1.89149 0
M  V30 5296 C 501.318 0.00812779 3.45099 0
M  V30 5297 C 500.431 1.04933 4.19062 0
M  V30 5298 C 499.566 0.389313 5.29771 0
M  V30 5299 C 498.605 1.41544 5.9551 0
M  V30 5300 N 497.742 0.78021 6.97751 0
M  V30 5301 H 502.582 1.52536 2.56002 0
M  V30 5302 H 500.119 0.76304 1.25762 0
M  V30 5303 H 502.077 -0.373497 4.15525 0
M  V30 5304 H 500.707 -0.844336 3.11562 0
M  V30 5305 H 499.759 1.54888 3.47439 0
M  V30 5306 H 501.071 1.82862 4.64072 0
M  V30 5307 H 500.225 -0.0463805 6.06682 0
M  V30 5308 H 498.964 -0.422038 4.8587 0
M  V30 5309 H 497.969 1.86124 5.17337 0
M  V30 5310 H 499.194 2.22854 6.41493 0
M  V30 5311 H 497.14 -0.0107899 6.55999 0
M  V30 5312 H 497.057 1.49716 7.41027 0
M  V30 5313 H 498.325 0.368996 7.78626 0
M  V30 5314 N 502.554 -1.34406 0.822964 0
M  V30 5315 C 503.97 -1.51275 0.508727 0
M  V30 5316 C 504.17 -1.76776 -0.967083 0
M  V30 5317 O 503.226 -1.81871 -1.75155 0
M  V30 5318 C 504.539 -2.67765 1.36829 0
M  V30 5319 C 506.087 -2.81647 1.36542 0
M  V30 5320 C 506.562 -4.01181 2.20947 0
M  V30 5321 N 508.053 -4.08388 2.18571 0
M  V30 5322 C 508.788 -5.00036 2.80627 0
M  V30 5323 N 508.284 -5.96906 3.51674 0
M  V30 5324 N 510.077 -4.92908 2.70181 0
M  V30 5325 H 502.228 -1.16113 1.77852 0
M  V30 5326 H 504.491 -0.56947 0.757897 0
M  V30 5327 H 504.197 -2.55551 2.41633 0
M  V30 5328 H 504.071 -3.62779 1.03303 0
M  V30 5329 H 506.458 -2.93303 0.325163 0
M  V30 5330 H 506.539 -1.87443 1.74066 0
M  V30 5331 H 506.183 -3.90286 3.25022 0
M  V30 5332 H 506.113 -4.94599 1.80774 0
M  V30 5333 H 508.604 -3.39051 1.66891 0
M  V30 5334 H 508.917 -6.63468 3.96271 0
M  V30 5335 H 507.262 -5.9703 3.5578 0
M  V30 5336 H 510.453 -4.1619 2.14251 0
M  V30 5337 H 510.626 -5.64137 3.18831 0
M  V30 5338 N 504.032 -0.577932 -1.46621 0
M  V30 5339 C 505.26 -0.0671642 -2.06791 0
M  V30 5340 C 505.675 1.23571 -1.42743 0
M  V30 5341 O 505.032 1.74602 -0.531062 0
M  V30 5342 C 505.083 0.110357 -3.61332 0
M  V30 5343 O 504.804 -1.14095 -4.22982 0
M  V30 5344 C 506.305 0.656025 -4.38419 0
M  V30 5345 H 503.525 -0.0552732 -0.66872 0
M  V30 5346 H 506.069 -0.797242 -1.8832 0
M  V30 5347 H 504.224 0.790637 -3.79246 0
M  V30 5348 H 504.638 -0.951742 -5.15793 0
M  V30 5349 H 506.112 0.729438 -5.47159 0
M  V30 5350 H 506.589 1.67195 -4.06131 0
M  V30 5351 H 507.195 0.0107692 -4.25299 0
M  V30 5352 N 505.51 1.54411 -0.315457 0
M  V30 5353 C 506.473 2.22713 0.54142 0
M  V30 5354 C 507.473 1.2179 1.04995 0
M  V30 5355 O 508.663 1.46426 0.943667 0
M  V30 5356 C 505.795 2.92485 1.75116 0
M  V30 5357 H 506.988 2.99849 -0.0555508 0
M  V30 5358 H 504.541 1.56159 -0.0664453 0
M  V30 5359 H 505.276 2.19466 2.38758 0
M  V30 5360 H 505.061 3.66483 1.39401 0
M  V30 5361 H 506.551 3.44548 2.35959 0
M  V30 5362 N 506.988 0.0434614 1.5754 0
M  V30 5363 C 508.399 -0.493343 1.80064 0
M  V30 5364 C 508.75 -1.71388 0.955023 0
M  V30 5365 O 507.875 -2.15736 0.169434 0
M  V30 5366 C 508.47 -0.90179 3.26578 0
M  V30 5367 C 507.029 -1.38362 3.50047 0
M  V30 5368 C 506.176 -0.355129 2.75017 0
M  V30 5369 H 509.127 0.2694 1.56397 0
M  V30 5370 H 509.148 -1.76523 3.37075 0
M  V30 5371 H 508.66 -0.013271 3.88098 0
M  V30 5372 H 506.761 -2.29159 2.93798 0
M  V30 5373 H 506.874 -1.3811 4.58762 0
M  V30 5374 H 505.238 -0.826348 2.40922 0
M  V30 5375 H 506.021 0.525172 3.39259 0
M  V30 5376 N 508.466 -1.55915 -0.229846 0
M  V30 5377 C 509.429 -1.90914 -1.26824 0
M  V30 5378 C 510.429 -0.786999 -1.40225 0
M  V30 5379 O 511.619 -1.05484 -1.38632 0
M  V30 5380 C 508.751 -2.15264 -2.64337 0
M  V30 5381 H 509.944 -2.8378 -0.969998 0
M  V30 5382 H 507.497 -1.49069 -0.4699 0
M  V30 5383 H 508.232 -1.24923 -2.99274 0
M  V30 5384 H 508.017 -2.97005 -2.55989 0
M  V30 5385 H 509.507 -2.43467 -3.39284 0
M  V30 5386 N 509.944 0.496216 -1.49584 0
M  V30 5387 C 510.907 1.57952 -1.66084 0
M  V30 5388 C 511.907 1.51729 -0.53244 0
M  V30 5389 O 513.097 1.54796 -0.79899 0
M  V30 5390 C 510.229 2.97604 -1.66268 0
M  V30 5391 H 511.422 1.44649 -2.6271 0
M  V30 5392 H 508.975 0.7208 -1.38687 0
M  V30 5393 H 509.71 3.16378 -0.712432 0
M  V30 5394 H 509.495 3.03528 -2.4822 0
M  V30 5395 H 510.985 3.76301 -1.81073 0
M  V30 5396 N 511.423 1.38739 0.74761 0
M  V30 5397 C 512.353 1.39173 1.87492 0
M  V30 5398 C 513.334 0.256794 1.6815 0
M  V30 5399 O 514.519 0.460762 1.88655 0
M  V30 5400 C 511.649 1.22197 3.25093 0
M  V30 5401 C 510.603 2.32957 3.59047 0
M  V30 5402 C 509.929 2.01082 4.95449 0
M  V30 5403 C 511.229 3.75237 3.6331 0
M  V30 5404 H 512.923 2.3351 1.87386 0
M  V30 5405 H 510.469 1.12399 0.900134 0
M  V30 5406 H 512.422 1.21124 4.03617 0
M  V30 5407 H 511.146 0.243241 3.25693 0
M  V30 5408 H 509.805 2.33226 2.82845 0
M  V30 5409 H 509.453 1.01678 4.92616 0
M  V30 5410 H 509.153 2.75267 5.19136 0
M  V30 5411 H 510.677 2.01638 5.76346 0
M  V30 5412 H 512.091 3.76966 4.31937 0
M  V30 5413 H 510.488 4.48677 3.98509 0
M  V30 5414 H 511.558 4.07122 2.634 0
M  V30 5415 N 512.901 -0.976442 1.23707 0
M  V30 5416 C 513.833 -2.07212 0.979574 0
M  V30 5417 C 514.846 -1.6273 -0.0478528 0
M  V30 5418 O 516.035 -1.77506 0.18815 0
M  V30 5419 C 513.135 -3.35835 0.45479 0
M  V30 5420 C 512.308 -4.09268 1.54331 0
M  V30 5421 C 511.367 -5.16166 1.02271 0
M  V30 5422 O 510.393 -5.42827 1.71254 0
M  V30 5423 N 511.595 -5.80313 -0.147419 0
M  V30 5424 H 514.36 -2.29878 1.92292 0
M  V30 5425 H 511.921 -1.14343 1.14618 0
M  V30 5426 H 513.913 -4.04597 0.0914631 0
M  V30 5427 H 512.483 -3.10106 -0.394068 0
M  V30 5428 H 511.703 -3.34906 2.07923 0
M  V30 5429 H 512.991 -4.55095 2.27522 0
M  V30 5430 H 512.389 -5.61043 -0.724353 0
M  V30 5431 H 510.946 -6.50231 -0.451972 0
M  V30 5432 N 514.379 -1.04941 -1.1758 0
M  V30 5433 C 515.628 -0.753124 -1.87112 0
M  V30 5434 C 515.941 0.722507 -1.81767 0
M  V30 5435 O 517.147 1.13265 -2.46746 0
M  V30 5436 C 515.603 -1.29695 -3.35719 0
M  V30 5437 C 515.211 -2.80184 -3.49572 0
M  V30 5438 C 516.955 -1.07759 -4.10595 0
M  V30 5439 C 514.862 -3.2788 -4.92187 0
M  V30 5440 H 513.792 -0.278034 -0.700866 0
M  V30 5441 H 516.443 -1.26637 -1.32798 0
M  V30 5442 H 514.825 -0.711522 -3.89555 0
M  V30 5443 H 515.999 -3.44561 -3.05965 0
M  V30 5444 H 514.314 -3.00632 -2.88113 0
M  V30 5445 H 516.911 -1.40899 -5.15802 0
M  V30 5446 H 517.254 -0.0152302 -4.16297 0
M  V30 5447 H 517.787 -1.62809 -3.62957 0
M  V30 5448 H 514.526 -4.33535 -4.91658 0
M  V30 5449 H 514.046 -2.68245 -5.36475 0
M  V30 5450 H 515.725 -3.22412 -5.60945 0
M  V30 5451 N 515.857 1.33968 -0.830081 0
M  V30 5452 C 516.82 2.27694 -0.26235 0
M  V30 5453 C 517.82 1.50589 0.563876 0
M  V30 5454 O 519.01 1.70028 0.378941 0
M  V30 5455 C 516.142 3.35002 0.63138 0
M  V30 5456 H 517.335 2.79419 -1.08928 0
M  V30 5457 H 514.888 1.44221 -0.602486 0
M  V30 5458 H 515.623 2.88504 1.48109 0
M  V30 5459 H 515.408 3.92079 0.0403276 0
M  V30 5460 H 516.898 4.04897 1.02217 0
M  V30 5461 N 517.335 0.585699 1.46312 0
M  V30 5462 C 518.575 0.0751432 2.04262 0
M  V30 5463 C 518.939 -1.26201 1.44697 0
M  V30 5464 O 520.14 -1.86198 1.93865 0
M  V30 5465 C 518.411 0.013478 3.57397 0
M  V30 5466 S 519.97 -0.439068 4.36598 0
M  V30 5467 H 516.788 0.0389228 0.709934 0
M  V30 5468 H 519.39 0.778871 1.79315 0
M  V30 5469 H 518.094 0.990558 3.98266 0
M  V30 5470 H 517.625 -0.712927 3.86886 0
M  V30 5471 H 519.64 -1.6932 4.66417 0
M  V30 5472 N 518.813 -1.54241 0.323641 0
M  V30 5473 C 520.09 -1.92741 -0.333181 0
M  V30 5474 C 520.47 -1.25326 -1.69872 0
M  V30 5475 O 519.818 -0.396991 -2.25025 0
M  V30 5476 C 520.028 -3.46399 -0.425322 0
M  V30 5477 C 521.376 -4.19029 -0.68557 0
M  V30 5478 O 522.4 -3.52555 -0.50824 0
M  V30 5479 O 521.259 -5.36751 -1.02767 0
M  V30 5480 H 518.353 -0.804811 -0.190286 0
M  V30 5481 H 520.899 -1.65542 0.373361 0
M  V30 5482 H 519.671 -3.87643 0.533737 0
M  V30 5483 H 519.294 -3.79704 -1.17944 0
M  V30 5484 N 520.291 -0.0518155 -1.57515 0
M  V30 5485 C 521.221 0.920283 -2.146 0
M  V30 5486 C 522.202 1.32406 -1.06783 0
M  V30 5487 O 523.387 1.39866 -1.34726 0
M  V30 5488 C 520.517 2.1949 -2.6915 0
M  V30 5489 C 519.471 1.93116 -3.81956 0
M  V30 5490 C 518.797 3.27037 -4.23026 0
M  V30 5491 C 520.097 1.25225 -5.07066 0
M  V30 5492 H 521.791 0.444801 -2.96077 0
M  V30 5493 H 519.337 0.212508 -1.42423 0
M  V30 5494 H 521.29 2.87894 -3.07725 0
M  V30 5495 H 520.014 2.69244 -1.84865 0
M  V30 5496 H 518.673 1.27123 -3.43854 0
M  V30 5497 H 518.321 3.74595 -3.3569 0
M  V30 5498 H 518.021 3.10189 -4.99056 0
M  V30 5499 H 519.545 3.96673 -4.64202 0
M  V30 5500 H 520.959 1.83666 -5.43083 0
M  V30 5501 H 519.356 1.18702 -5.88243 0
M  V30 5502 H 520.426 0.228382 -4.84362 0
M  V30 5503 N 521.769 1.56035 0.221574 0
M  V30 5504 C 523.015 1.79312 0.947372 0
M  V30 5505 C 523.348 0.621453 1.83988 0
M  V30 5506 O 522.623 -0.379287 1.90766 0
M  V30 5507 C 522.906 3.1267 1.78633 0
M  V30 5508 C 522.759 4.40284 0.920312 0
M  V30 5509 C 524.078 3.4247 2.7641 0
M  V30 5510 H 521.197 0.652328 0.342982 0
M  V30 5511 H 523.839 1.88765 0.216244 0
M  V30 5512 H 521.989 3.04741 2.40967 0
M  V30 5513 H 523.661 4.60232 0.313718 0
M  V30 5514 H 521.904 4.33212 0.225734 0
M  V30 5515 H 522.575 5.30033 1.54171 0
M  V30 5516 H 525.051 3.50526 2.24211 0
M  V30 5517 H 523.927 4.3695 3.32213 0
M  V30 5518 H 524.188 2.64635 3.54148 0
M  V30 5519 N 523.247 -0.488276 1.49845 0
M  V30 5520 C 524.524 -1.24959 1.50481 0
M  V30 5521 C 524.904 -2.09735 0.239698 0
M  V30 5522 O 524.252 -2.14865 -0.777524 0
M  V30 5523 C 524.462 -2.0954 2.79095 0
M  V30 5524 C 525.81 -2.68305 3.29086 0
M  V30 5525 O 526.834 -2.19797 2.80299 0
M  V30 5526 O 525.693 -3.56643 4.14087 0
M  V30 5527 H 522.787 -0.566133 0.602845 0
M  V30 5528 H 525.333 -0.501504 1.6212 0
M  V30 5529 H 524.105 -1.46958 3.62656 0
M  V30 5530 H 523.728 -2.91517 2.70377 0
M  V30 5531 N 524.725 -1.39134 -0.740242 0
M  V30 5532 C 525.635 -1.39697 -1.88473 0
M  V30 5533 C 526.651 -0.292403 -1.71526 0
M  V30 5534 O 527.827 -0.533021 -1.94219 0
M  V30 5535 C 524.892 -1.23382 -3.24003 0
M  V30 5536 C 523.953 -2.43763 -3.53381 0
M  V30 5537 C 523.186 -2.28216 -4.82445 0
M  V30 5538 O 523.409 -1.28288 -5.55786 0
M  V30 5539 O 522.343 -3.1709 -5.11603 0
M  V30 5540 H 526.169 -2.36159 -1.90952 0
M  V30 5541 H 523.754 -1.20194 -0.887346 0
M  V30 5542 H 525.636 -1.16395 -4.05006 0
M  V30 5543 H 524.311 -0.300121 -3.22306 0
M  V30 5544 H 523.218 -2.56325 -2.72485 0
M  V30 5545 H 524.551 -3.35808 -3.59852 0
M  V30 5546 N 526.204 0.969867 -1.24223 0
M  V30 5547 C 527.452 1.70918 -1.0785 0
M  V30 5548 C 527.773 1.91186 0.383763 0
M  V30 5549 O 527.043 1.48806 1.27411 0
M  V30 5550 H 525.623 0.633334 -0.396103 0
M  V30 5551 H 528.285 1.16689 -1.56108 0
M  V30 5552 H 527.381 2.69455 -1.57482 0
M  V30 5553 N 527.682 1.05563 1.17022 0
M  V30 5554 C 528.615 0.604197 2.20056 0
M  V30 5555 C 529.593 -0.369169 1.58354 0
M  V30 5556 O 530.777 -0.279898 1.8641 0
M  V30 5557 C 527.904 -0.115265 3.38504 0
M  V30 5558 C 526.95 0.813698 4.18666 0
M  V30 5559 S 527.783 2.30492 4.83357 0
M  V30 5560 C 528.939 1.59674 6.0519 0
M  V30 5561 H 529.172 1.47713 2.58008 0
M  V30 5562 H 526.705 0.867932 1.27696 0
M  V30 5563 H 528.663 -0.524162 4.0714 0
M  V30 5564 H 527.324 -0.964284 2.98932 0
M  V30 5565 H 526.517 0.256736 5.03346 0
M  V30 5566 H 526.119 1.16213 3.55486 0
M  V30 5567 H 528.411 0.898164 6.7152 0
M  V30 5568 H 529.354 2.42115 6.65422 0
M  V30 5569 H 529.762 1.08252 5.54023 0
M  V30 5570 N 529.16 -1.33526 0.837174 0
M  V30 5571 C 530.409 -1.97098 0.428387 0
M  V30 5572 C 530.722 -1.67062 -1.01734 0
M  V30 5573 O 531.928 -2.24235 -1.53072 0
M  V30 5574 C 530.384 -3.52725 0.715075 0
M  V30 5575 C 529.992 -3.9164 2.17537 0
M  V30 5576 C 531.736 -4.22857 0.373154 0
M  V30 5577 C 529.643 -5.40237 2.40619 0
M  V30 5578 H 528.573 -0.737589 0.156455 0
M  V30 5579 H 531.224 -1.52169 1.02552 0
M  V30 5580 H 529.606 -3.95971 0.0475904 0
M  V30 5581 H 530.78 -3.59456 2.88319 0
M  V30 5582 H 529.095 -3.34485 2.4801 0
M  V30 5583 H 531.692 -5.32133 0.523264 0
M  V30 5584 H 532.035 -4.10647 -0.683708 0
M  V30 5585 H 532.568 -3.85135 0.995801 0
M  V30 5586 H 529.307 -5.57449 3.44864 0
M  V30 5587 H 528.827 -5.73887 1.74396 0
M  V30 5588 H 530.506 -6.07102 2.23688 0
M  V30 5589 N 530.638 -0.59345 -1.46 0
M  V30 5590 C 531.866 -0.0890934 -2.06708 0
M  V30 5591 C 532.281 1.2205 -1.44046 0
M  V30 5592 O 531.638 1.74029 -0.549551 0
M  V30 5593 C 531.689 0.0720263 -3.61428 0
M  V30 5594 O 531.41 -1.18574 -4.21748 0
M  V30 5595 C 532.911 0.609487 -4.3909 0
M  V30 5596 H 530.131 -0.0623628 -0.668096 0
M  V30 5597 H 532.675 -0.817171 -1.87464 0
M  V30 5598 H 530.83 0.750369 -3.80063 0
M  V30 5599 H 531.244 -1.0064 -5.14754 0
M  V30 5600 H 532.718 0.671363 -5.47902 0
M  V30 5601 H 533.195 1.62878 -4.07882 0
M  V30 5602 H 533.801 -0.03434 -4.25286 0
M  V30 5603 N 532.116 1.54067 -0.331816 0
M  V30 5604 C 533.026 2.28322 0.539104 0
M  V30 5605 C 534.042 1.32985 1.1221 0
M  V30 5606 O 535.218 1.6601 1.1403 0
M  V30 5607 C 532.283 3.03277 1.68 0
M  V30 5608 C 531.344 4.14216 1.12798 0
M  V30 5609 C 530.577 4.85588 2.2145 0
M  V30 5610 O 530.8 4.56536 3.41952 0
M  V30 5611 O 529.734 5.72309 1.86404 0
M  V30 5612 H 533.56 3.03632 -0.0641692 0
M  V30 5613 H 531.145 1.49083 -0.0972365 0
M  V30 5614 H 533.027 3.50189 2.34405 0
M  V30 5615 H 531.702 2.30834 2.2693 0
M  V30 5616 H 530.609 3.71635 0.428782 0
M  V30 5617 H 531.942 4.88727 0.583698 0
M  V30 5618 N 533.594 0.0601682 1.57485 0
M  V30 5619 C 534.504 -0.926121 2.15546 0
M  V30 5620 C 535.52 -1.33532 1.11558 0
M  V30 5621 O 536.696 -1.4104 1.4377 0
M  V30 5622 C 533.761 -2.17952 2.69625 0
M  V30 5623 C 532.822 -1.82783 3.88444 0
M  V30 5624 C 532.055 -3.02148 4.39935 0
M  V30 5625 O 532.278 -4.15803 3.90466 0
M  V30 5626 O 531.212 -2.82639 5.31412 0
M  V30 5627 H 535.038 -0.462289 3.00161 0
M  V30 5628 H 532.623 -0.162246 1.48516 0
M  V30 5629 H 534.505 -2.91474 3.04337 0
M  V30 5630 H 533.18 -2.63456 1.88077 0
M  V30 5631 H 532.087 -1.06549 3.58606 0
M  V30 5632 H 533.42 -1.42072 4.7125 0
M  V30 5633 N 535.072 -1.5615 -0.213296 0
M  V30 5634 C 535.982 -1.96265 -1.28519 0
M  V30 5635 C 536.998 -0.86765 -1.50824 0
M  V30 5636 O 538.174 -1.17191 -1.63793 0
M  V30 5637 C 535.239 -2.27836 -2.61327 0
M  V30 5638 C 534.3 -3.50949 -2.47252 0
M  V30 5639 C 533.533 -3.81004 -3.73727 0
M  V30 5640 O 533.756 -3.12612 -4.77106 0
M  V30 5641 O 532.69 -4.74477 -3.70344 0
M  V30 5642 H 536.516 -2.87631 -0.974795 0
M  V30 5643 H 534.101 -1.43467 -0.416832 0
M  V30 5644 H 535.983 -2.49299 -3.39747 0
M  V30 5645 H 534.658 -1.39643 -2.9203 0
M  V30 5646 H 533.565 -3.34754 -1.67004 0
M  V30 5647 H 534.898 -4.39551 -2.21486 0
M  V30 5648 N 536.55 0.480323 -1.50102 0
M  V30 5649 C 537.513 1.56181 -1.6775 0
M  V30 5650 C 538.513 1.51156 -0.548503 0
M  V30 5651 O 539.703 1.5394 -0.815363 0
M  V30 5652 C 536.835 2.95823 -1.69415 0
M  V30 5653 H 538.028 1.41855 -2.6423 0
M  V30 5654 H 535.581 0.70605 -1.39444 0
M  V30 5655 H 536.316 3.15604 -0.745948 0
M  V30 5656 H 536.101 3.00878 -2.51425 0
M  V30 5657 H 537.591 3.74359 -1.85054 0
M  V30 5658 N 538.028 1.39524 0.732853 0
M  V30 5659 C 539.274 1.37068 1.49467 0
M  V30 5660 C 539.607 -0.0327166 1.94172 0
M  V30 5661 O 538.882 -0.998071 1.66939 0
M  V30 5662 C 539.165 2.34494 2.73285 0
M  V30 5663 C 539.018 3.83784 2.34585 0
M  V30 5664 C 540.337 2.29717 3.75391 0
M  V30 5665 H 537.456 0.499206 0.542183 0
M  V30 5666 H 540.098 1.70532 0.837783 0
M  V30 5667 H 538.248 2.06087 3.29333 0
M  V30 5668 H 539.92 4.22949 1.84151 0
M  V30 5669 H 538.163 4.00455 1.66787 0
M  V30 5670 H 538.834 4.47444 3.23262 0
M  V30 5671 H 541.31 2.54839 3.28932 0
M  V30 5672 H 540.186 2.99962 4.59689 0
M  V30 5673 H 540.447 1.30291 4.22465 0
M  V30 5674 N 539.506 -0.963266 1.24736 0
M  V30 5675 C 540.752 -1.70933 1.09131 0
M  V30 5676 C 541.085 -1.90676 -0.368273 0
M  V30 5677 O 540.36 -1.47147 -1.27193 0
M  V30 5678 C 540.643 -3.09744 1.83658 0
M  V30 5679 C 540.496 -2.97465 3.37394 0
M  V30 5680 C 541.815 -4.09483 1.61282 0
M  V30 5681 H 538.934 -0.620398 0.397838 0
M  V30 5682 H 541.576 -1.12028 1.53459 0
M  V30 5683 H 539.726 -3.60031 1.4598 0
M  V30 5684 H 541.398 -2.54571 3.84696 0
M  V30 5685 H 539.641 -2.33576 3.65547 0
M  V30 5686 H 540.312 -3.95822 3.84745 0
M  V30 5687 H 542.788 -3.68073 1.94066 0
M  V30 5688 H 541.664 -5.04666 2.15878 0
M  V30 5689 H 541.925 -4.38639 0.552102 0
M  V30 5690 N 540.985 -1.06182 -1.16461 0
M  V30 5691 C 542.401 -0.785065 -1.38956 0
M  V30 5692 C 542.601 0.616103 -1.9185 0
M  V30 5693 O 541.657 1.37686 -2.11657 0
M  V30 5694 C 542.97 -1.84902 -2.37132 0
M  V30 5695 C 544.518 -1.8724 -2.50819 0
M  V30 5696 C 544.993 -2.92686 -3.52277 0
M  V30 5697 N 546.484 -2.91712 -3.59803 0
M  V30 5698 C 547.219 -3.69949 -4.38093 0
M  V30 5699 N 546.715 -4.58 -5.19815 0
M  V30 5700 N 548.508 -3.58346 -4.33064 0
M  V30 5701 H 540.659 -1.96569 -0.804634 0
M  V30 5702 H 542.922 -0.851747 -0.416211 0
M  V30 5703 H 542.628 -2.85518 -2.0536 0
M  V30 5704 H 542.502 -1.69908 -3.36766 0
M  V30 5705 H 544.889 -0.872827 -2.81897 0
M  V30 5706 H 544.97 -2.06311 -1.51226 0
M  V30 5707 H 544.614 -3.92835 -3.21937 0
M  V30 5708 H 544.544 -2.70864 -4.51598 0
M  V30 5709 H 547.035 -2.27876 -3.01464 0
M  V30 5710 H 547.348 -5.14357 -5.76764 0
M  V30 5711 H 545.693 -4.62056 -5.19162 0
M  V30 5712 H 548.884 -2.88943 -3.68279 0
M  V30 5713 H 549.057 -4.19563 -4.93833 0
M  V30 5714 N 542.463 1.3308 -0.844243 0
M  V30 5715 C 543.712 1.96868 -0.438833 0
M  V30 5716 C 544.025 1.67599 1.00846 0
M  V30 5717 O 545.231 2.25043 1.51881 0
M  V30 5718 C 543.687 3.5234 -0.73377 0
M  V30 5719 C 543.295 3.90481 -2.1961 0
M  V30 5720 C 545.039 4.22653 -0.395574 0
M  V30 5721 C 542.946 5.38954 -2.43481 0
M  V30 5722 H 541.876 0.736749 -0.160364 0
M  V30 5723 H 544.527 1.51623 -1.03358 0
M  V30 5724 H 542.909 3.95941 -0.068589 0
M  V30 5725 H 544.083 3.57922 -2.90221 0
M  V30 5726 H 542.398 3.33165 -2.4978 0
M  V30 5727 H 544.995 5.31848 -0.551477 0
M  V30 5728 H 545.338 4.11004 0.661921 0
M  V30 5729 H 545.871 3.84601 -1.01621 0
M  V30 5730 H 542.61 5.55612 -3.47816 0
M  V30 5731 H 542.13 5.72954 -1.77437 0
M  V30 5732 H 543.809 6.05907 -2.26905 0
M  V30 5733 N 543.941 0.601185 1.45683 0
M  V30 5734 C 544.851 -0.123395 2.34275 0
M  V30 5735 C 545.867 -0.86702 1.5086 0
M  V30 5736 O 547.043 -0.826049 1.8368 0
M  V30 5737 C 544.108 -1.11237 3.2837 0
M  V30 5738 C 543.169 -0.371405 4.2769 0
M  V30 5739 C 542.402 -1.31327 5.1729 0
M  V30 5740 O 542.625 -2.55078 5.10188 0
M  V30 5741 O 541.559 -0.813811 5.96373 0
M  V30 5742 H 545.385 0.604483 2.97623 0
M  V30 5743 H 542.97 0.361477 1.44961 0
M  V30 5744 H 544.852 -1.68214 3.8637 0
M  V30 5745 H 543.527 -1.82139 2.67595 0
M  V30 5746 H 542.434 0.24067 3.73325 0
M  V30 5747 H 543.767 0.296998 4.91303 0
M  V30 5748 N 545.419 -1.53889 0.339982 0
M  V30 5749 C 546.382 -2.23547 -0.50592 0
M  V30 5750 C 547.382 -1.23445 -1.03044 0
M  V30 5751 O 548.572 -1.47909 -0.920253 0
M  V30 5752 C 545.704 -2.95234 -1.7044 0
M  V30 5753 H 546.897 -2.99722 0.103247 0
M  V30 5754 H 544.45 -1.56033 0.0912804 0
M  V30 5755 H 545.185 -2.23236 -2.35236 0
M  V30 5756 H 544.97 -3.68654 -1.33553 0
M  V30 5757 H 546.46 -3.48258 -2.30447 0
M  V30 5758 N 546.897 -0.0685191 -1.57451 0
M  V30 5759 C 547.844 0.899861 -2.12535 0
M  V30 5760 C 548.814 1.29749 -1.03703 0
M  V30 5761 O 549.999 1.38392 -1.31348 0
M  V30 5762 C 547.139 2.16328 -2.6888 0
M  V30 5763 C 546.252 1.81857 -3.91857 0
M  V30 5764 C 545.387 3.02786 -4.36457 0
M  V30 5765 C 544.426 2.64317 -5.5209 0
M  V30 5766 N 543.563 3.77994 -5.91663 0
M  V30 5767 H 548.403 0.423243 -2.94979 0
M  V30 5768 H 545.94 0.197268 -1.45771 0
M  V30 5769 H 547.898 2.90281 -2.99655 0
M  V30 5770 H 546.528 2.61536 -1.89206 0
M  V30 5771 H 545.58 0.979808 -3.67565 0
M  V30 5772 H 546.892 1.49553 -4.75852 0
M  V30 5773 H 546.046 3.85021 -4.68875 0
M  V30 5774 H 544.785 3.38281 -3.51308 0
M  V30 5775 H 543.79 1.80503 -5.19325 0
M  V30 5776 H 545.015 2.29995 -6.38967 0
M  V30 5777 H 542.961 4.13258 -5.09464 0
M  V30 5778 H 542.878 3.49447 -6.7039 0
M  V30 5779 H 544.146 4.60818 -6.28703 0
M  V30 5780 N 548.375 1.56261 0.205012 0
M  V30 5781 C 549.6 1.84491 0.947512 0
M  V30 5782 C 550.025 0.650894 1.76479 0
M  V30 5783 O 549.383 -0.40035 1.76824 0
M  V30 5784 C 549.431 3.10863 1.82747 0
M  V30 5785 O 548.535 2.90719 2.925 0
M  V30 5786 H 547.876 0.607783 0.267386 0
M  V30 5787 H 550.406 2.03485 0.213323 0
M  V30 5788 H 550.416 3.41399 2.23407 0
M  V30 5789 H 549.091 3.97392 1.2269 0
M  V30 5790 H 547.668 2.71457 2.55667 0
M  V30 5791 N 549.853 -0.472356 1.50355 0
M  V30 5792 C 550.783 -1.57859 1.72055 0
M  V30 5793 C 551.764 -1.60283 0.569505 0
M  V30 5794 O 552.949 -1.7657 0.808503 0
M  V30 5795 C 550.079 -2.96191 1.81351 0
M  V30 5796 C 549.033 -3.08633 2.96529 0
M  V30 5797 C 548.359 -4.486 2.90968 0
M  V30 5798 C 549.659 -2.85969 4.37057 0
M  V30 5799 H 551.353 -1.39953 2.64676 0
M  V30 5800 H 548.899 -0.671846 1.27367 0
M  V30 5801 H 550.852 -3.73507 1.95117 0
M  V30 5802 H 549.576 -3.15251 0.853502 0
M  V30 5803 H 548.235 -2.33749 2.82413 0
M  V30 5804 H 547.883 -4.64577 1.92815 0
M  V30 5805 H 547.583 -4.57861 3.68289 0
M  V30 5806 H 549.107 -5.27938 3.0678 0
M  V30 5807 H 550.521 -3.53036 4.51706 0
M  V30 5808 H 548.918 -3.06677 5.15819 0
M  V30 5809 H 549.988 -1.81838 4.49514 0
M  V30 5810 N 551.331 -1.39911 -0.725443 0
M  V30 5811 C 552.608 -1.28158 -1.47766 0
M  V30 5812 C 552.988 0.104545 -2.10841 0
M  V30 5813 O 552.336 1.11657 -1.99361 0
M  V30 5814 C 552.546 -2.41306 -2.52135 0
M  V30 5815 C 553.894 -2.81076 -3.18247 0
M  V30 5816 O 554.918 -2.40827 -2.62452 0
M  V30 5817 O 553.777 -3.50581 -4.19231 0
M  V30 5818 H 550.871 -0.502761 -0.656628 0
M  V30 5819 H 553.417 -1.51808 -0.758456 0
M  V30 5820 H 552.189 -3.33932 -2.03974 0
M  V30 5821 H 551.812 -2.19374 -3.31603 0
M  V30 5822 N 552.809 0.956637 -1.25245 0
M  V30 5823 C 553.741 2.05628 -1.01242 0
M  V30 5824 C 554.754 1.62785 0.0219579 0
M  V30 5825 O 555.943 1.77184 -0.216365 0
M  V30 5826 C 553.043 3.35069 -0.508161 0
M  V30 5827 C 552.216 4.06761 -1.60823 0
M  V30 5828 C 551.275 5.14473 -1.1047 0
M  V30 5829 O 550.301 5.40033 -1.79868 0
M  V30 5830 N 551.503 5.80474 0.0550773 0
M  V30 5831 H 554.268 2.2679 -1.95925 0
M  V30 5832 H 551.829 1.12505 -1.16423 0
M  V30 5833 H 553.821 4.044 -0.155819 0
M  V30 5834 H 552.391 3.10694 0.344683 0
M  V30 5835 H 551.611 3.31555 -2.13224 0
M  V30 5836 H 552.899 4.51418 -2.34733 0
M  V30 5837 H 552.297 5.62125 0.635004 0
M  V30 5838 H 550.854 6.50868 0.348469 0
M  V30 5839 N 554.287 1.06798 1.15896 0
M  V30 5840 C 555.217 0.704677 2.22613 0
M  V30 5841 C 556.198 -0.305252 1.67339 0
M  V30 5842 O 557.383 -0.179247 1.93371 0
M  V30 5843 C 554.513 0.0957325 3.47168 0
M  V30 5844 C 553.467 1.0322 4.15367 0
M  V30 5845 C 552.793 0.286293 5.33933 0
M  V30 5846 C 554.093 2.36341 4.65768 0
M  V30 5847 H 555.787 1.59688 2.53259 0
M  V30 5848 H 553.333 0.769257 1.21731 0
M  V30 5849 H 555.286 -0.170333 4.21056 0
M  V30 5850 H 554.01 -0.831516 3.15838 0
M  V30 5851 H 552.669 1.28309 3.43413 0
M  V30 5852 H 552.317 -0.644237 4.98857 0
M  V30 5853 H 552.017 0.910436 5.80504 0
M  V30 5854 H 553.541 0.0278938 6.10594 0
M  V30 5855 H 554.955 2.1561 5.31211 0
M  V30 5856 H 553.352 2.94299 5.2298 0
M  V30 5857 H 554.422 2.99047 3.81705 0
M  V30 5858 N 555.766 -1.3263 0.851289 0
M  V30 5859 C 556.696 -2.31449 0.308771 0
M  V30 5860 C 557.677 -1.59531 -0.590255 0
M  V30 5861 O 558.862 -1.87351 -0.511205 0
M  V30 5862 C 555.992 -3.43586 -0.506548 0
M  V30 5863 C 554.946 -4.26963 0.297753 0
M  V30 5864 C 554.272 -5.30831 -0.642094 0
M  V30 5865 C 555.572 -4.99643 1.52166 0
M  V30 5866 H 557.266 -2.77074 1.13447 0
M  V30 5867 H 554.812 -1.33207 0.546971 0
M  V30 5868 H 556.765 -4.11754 -0.896474 0
M  V30 5869 H 555.489 -2.96681 -1.36558 0
M  V30 5870 H 554.148 -3.60437 0.669391 0
M  V30 5871 H 553.796 -4.8018 -1.49788 0
M  V30 5872 H 553.496 -5.87501 -0.107968 0
M  V30 5873 H 555.02 -6.01862 -1.02927 0
M  V30 5874 H 556.434 -5.6051 1.20421 0
M  V30 5875 H 554.831 -5.66022 1.99347 0
M  V30 5876 H 555.901 -4.27701 2.28474 0
M  V30 5877 N 557.244 -0.608902 -1.45362 0
M  V30 5878 C 558.194 0.130616 -2.27626 0
M  V30 5879 C 559.178 0.837323 -1.37396 0
M  V30 5880 O 560.37 0.727096 -1.61376 0
M  V30 5881 C 557.499 1.12646 -3.24293 0
M  V30 5882 C 556.585 0.42052 -4.2201 0
M  V30 5883 N 556.976 -0.538569 -5.02925 0
M  V30 5884 C 555.274 0.667901 -4.40971 0
M  V30 5885 C 555.975 -0.953625 -5.7383 0
M  V30 5886 N 554.951 -0.297097 -5.42788 0
M  V30 5887 H 558.753 -0.605996 -2.87585 0
M  V30 5888 H 556.267 -0.432672 -1.5653 0
M  V30 5889 H 558.264 1.67066 -3.81961 0
M  V30 5890 H 556.924 1.86361 -2.65894 0
M  V30 5891 H 557.935 -0.915375 -5.09746 0
M  V30 5892 H 554.612 1.38963 -3.93695 0
M  V30 5893 H 556.002 -1.74473 -6.48852 0
M  V30 5894 N 558.722 1.53707 -0.348139 0
M  V30 5895 C 560.133 1.86213 0.134797 0
M  V30 5896 C 560.484 1.26925 1.49614 0
M  V30 5897 O 559.609 0.584573 2.08355 0
M  V30 5898 C 560.204 3.37866 0.251371 0
M  V30 5899 C 558.763 3.70233 0.678543 0
M  V30 5900 C 557.91 2.76683 -0.184925 0
M  V30 5901 H 560.861 1.48204 -0.567571 0
M  V30 5902 H 560.882 3.64908 1.07806 0
M  V30 5903 H 560.394 3.80988 -0.739581 0
M  V30 5904 H 558.495 3.32659 1.67835 0
M  V30 5905 H 558.608 4.76836 0.465251 0
M  V30 5906 H 556.972 2.52374 0.343465 0
M  V30 5907 H 557.755 3.22635 -1.1731 0
M  V30 5908 N 560.2 0.0768682 1.57412 0
M  V30 5909 C 561.428 -0.59997 1.9801 0
M  V30 5910 C 561.843 -1.62842 0.955408 0
M  V30 5911 O 561.2 -1.8241 -0.057314 0
M  V30 5912 C 561.251 -1.26401 3.38681 0
M  V30 5913 O 560.972 -0.276723 4.37225 0
M  V30 5914 C 562.473 -2.0282 3.94182 0
M  V30 5915 H 559.693 -0.162239 0.651091 0
M  V30 5916 H 562.237 0.150771 2.03943 0
M  V30 5917 H 560.392 -1.96581 3.33819 0
M  V30 5918 H 560.806 -0.753744 5.19056 0
M  V30 5919 H 562.28 -2.44667 4.94815 0
M  V30 5920 H 562.757 -2.88678 3.31001 0
M  V30 5921 H 563.363 -1.37496 4.02461 0
M  V30 5922 N 561.678 -1.56367 -0.196722 0
M  V30 5923 C 562.925 -1.80529 -0.917366 0
M  V30 5924 C 563.253 -0.649817 -1.83324 0
M  V30 5925 O 562.508 0.36451 -1.92275 0
M  V30 5926 C 562.807 -3.10663 -1.767 0
M  V30 5927 C 562.473 -4.3962 -1.00225 0
M  V30 5928 C 561.135 -4.74653 -0.791095 0
M  V30 5929 C 563.487 -5.1913 -0.464035 0
M  V30 5930 C 560.815 -5.86692 -0.0302155 0
M  V30 5931 C 563.167 -6.31964 0.283625 0
M  V30 5932 C 561.831 -6.65581 0.505813 0
M  V30 5933 H 561.101 -0.660602 -0.335688 0
M  V30 5934 H 563.748 -1.90615 -0.183844 0
M  V30 5935 H 562.053 -2.95807 -2.56915 0
M  V30 5936 H 563.75 -3.26563 -2.32718 0
M  V30 5937 H 560.34 -4.12127 -1.17684 0
M  V30 5938 H 564.524 -4.9248 -0.614575 0
M  V30 5939 H 559.78 -6.11211 0.151917 0
M  V30 5940 H 563.954 -6.92791 0.708057 0
M  V30 5941 H 561.581 -7.52239 1.0973 0
M  V30 5942 N 563.156 0.464375 -1.50603 0
M  V30 5943 C 564.104 1.58224 -1.70493 0
M  V30 5944 C 565.098 1.59492 -0.570836 0
M  V30 5945 O 566.304 1.63561 -0.751517 0
M  V30 5946 H 562.679 0.525161 -0.538247 0
M  V30 5947 H 564.65 1.38613 -2.64252 0
M  V30 5948 C 563.399 2.96113 -1.82243 0
M  V30 5949 H 562.722 2.95858 -2.68901 0
M  V30 5950 H 564.162 3.73769 -2.00182 0
M  V30 5951 C 562.621 3.31946 -0.575628 0
M  V30 5952 O 563.151 4.00708 0.282152 0
M  V30 5953 N 561.357 2.87436 -0.427665 0
M  V30 5954 H 560.904 2.31652 -1.12674 0
M  V30 5955 H 560.862 3.11776 0.405379 0
M  V30 5956 N 564.634 1.40294 0.718013 0
M  V30 5957 C 566.045 1.34289 1.29705 0
M  V30 5958 C 566.396 0.0152228 1.96194 0
M  V30 5959 O 565.521 -0.88682 1.97394 0
M  V30 5960 C 566.116 2.43219 2.3586 0
M  V30 5961 C 564.675 2.40682 2.89394 0
M  V30 5962 C 563.822 2.24223 1.63154 0
M  V30 5963 H 566.773 1.50135 0.514312 0
M  V30 5964 H 566.794 2.10986 3.16647 0
M  V30 5965 H 566.306 3.39836 1.87439 0
M  V30 5966 H 564.407 1.47756 3.42051 0
M  V30 5967 H 564.52 3.36177 3.41353 0
M  V30 5968 H 562.884 1.71696 1.88129 0
M  V30 5969 H 563.667 3.22834 1.16761 0
M  V30 5970 N 566.112 -0.949982 1.2575 0
M  V30 5971 C 567.075 -2.02894 1.06615 0
M  V30 5972 C 568.075 -1.60791 0.0173905 0
M  V30 5973 O 569.265 -1.72249 0.260003 0
M  V30 5974 C 566.397 -3.35219 0.619751 0
M  V30 5975 H 567.59 -2.21302 2.02399 0
M  V30 5976 H 565.143 -1.12772 1.08223 0
M  V30 5977 H 565.878 -3.22508 -0.340486 0
M  V30 5978 H 565.663 -3.67129 1.37692 0
M  V30 5979 H 567.153 -4.14505 0.507443 0
M  V30 5980 N 567.59 -1.07411 -1.15328 0
M  V30 5981 C 568.553 -0.698914 -2.18284 0
M  V30 5982 C 569.553 0.261149 -1.58665 0
M  V30 5983 O 570.743 0.0420277 -1.74149 0
M  V30 5984 C 567.875 -0.0302427 -3.40887 0
M  V30 5985 H 569.068 -1.61045 -2.52991 0
M  V30 5986 H 566.621 -0.870724 -1.298 0
M  V30 5987 H 567.356 0.893505 -3.11748 0
M  V30 5988 H 567.141 -0.720759 -3.85419 0
M  V30 5989 H 568.631 0.21759 -4.17033 0
M  V30 5990 N 569.068 1.32177 -0.85831 0
M  V30 5991 C 569.998 2.31282 -0.321041 0
M  V30 5992 C 570.979 1.59841 0.581786 0
M  V30 5993 O 572.164 1.87619 0.501262 0
M  V30 5994 C 569.294 3.4385 0.48832 0
M  V30 5995 C 568.248 4.26799 -0.320391 0
M  V30 5996 C 567.574 5.31164 0.613934 0
M  V30 5997 C 568.874 4.98829 -1.54813 0
M  V30 5998 H 570.568 2.76469 -1.14915 0
M  V30 5999 H 568.114 1.32916 -0.554028 0
M  V30 6000 H 570.067 4.12224 0.874626 0
M  V30 6001 H 568.791 2.97401 1.34983 0
M  V30 6002 H 567.45 3.60077 -0.688497 0
M  V30 6003 H 567.098 4.80967 1.47239 0
M  V30 6004 H 566.798 5.8755 0.0768097 0
M  V30 6005 H 568.322 6.024 0.997336 0
M  V30 6006 H 569.736 5.59864 -1.23392 0
M  V30 6007 H 568.133 5.64957 -2.02346 0
M  V30 6008 H 569.203 4.26483 -2.30739 0
M  V30 6009 N 570.547 0.616602 1.45037 0
M  V30 6010 C 571.494 -0.0969439 2.30596 0
M  V30 6011 C 572.464 -0.851151 1.42635 0
M  V30 6012 O 573.649 -0.835092 1.71554 0
M  V30 6013 C 570.789 -1.08234 3.27688 0
M  V30 6014 C 569.902 -0.328072 4.30752 0
M  V30 6015 C 569.037 -1.30399 5.14946 0
M  V30 6016 C 568.076 -0.538049 6.09731 0
M  V30 6017 N 567.213 -1.46371 6.86673 0
M  V30 6018 H 572.053 0.63864 2.91076 0
M  V30 6019 H 569.59 0.326733 1.43425 0
M  V30 6020 H 571.548 -1.66688 3.82454 0
M  V30 6021 H 570.178 -1.78523 2.68941 0
M  V30 6022 H 569.23 0.372136 3.78575 0
M  V30 6023 H 570.542 0.269142 4.98073 0
M  V30 6024 H 569.696 -1.96032 5.74157 0
M  V30 6025 H 568.435 -1.93514 4.47665 0
M  V30 6026 H 567.44 0.131852 5.49642 0
M  V30 6027 H 568.665 0.0881732 6.79043 0
M  V30 6028 H 566.611 -2.08233 6.22073 0
M  V30 6029 H 566.528 -0.920152 7.50379 0
M  V30 6030 H 567.796 -2.10932 7.50418 0
M  V30 6031 N 572.025 -1.5352 0.356285 0
M  V30 6032 C 572.988 -2.24071 -0.482182 0
M  V30 6033 C 573.988 -1.24531 -1.01729 0
M  V30 6034 O 575.178 -1.48876 -0.904513 0
M  V30 6035 C 572.31 -2.97025 -1.67299 0
M  V30 6036 H 573.503 -2.99596 0.135031 0
M  V30 6037 H 571.056 -1.55928 0.107825 0
M  V30 6038 H 571.791 -2.25719 -2.32855 0
M  V30 6039 H 571.576 -3.7005 -1.29636 0
M  V30 6040 H 573.066 -3.50683 -2.26741 0
M  V30 6041 N 573.503 -0.0852151 -1.57369 0
M  V30 6042 C 574.751 0.579658 -1.93609 0
M  V30 6043 C 575.072 1.69332 -0.967043 0
M  V30 6044 O 574.342 1.95892 -0.0174215 0
M  V30 6045 H 572.922 0.217113 -0.714752 0
M  V30 6046 H 575.584 -0.146226 -1.94351 0
M  V30 6047 H 574.68 0.996276 -2.95771 0
M  V30 6048 N 574.981 1.5647 0.188427 0
M  V30 6049 C 575.891 1.98285 1.2538 0
M  V30 6050 C 576.907 0.891535 1.49424 0
M  V30 6051 O 578.083 1.19782 1.61908 0
M  V30 6052 C 575.148 2.31965 2.57669 0
M  V30 6053 C 574.209 3.54838 2.41638 0
M  V30 6054 C 573.442 3.86901 3.67618 0
M  V30 6055 O 573.665 3.20163 4.72072 0
M  V30 6056 O 572.599 4.80309 3.62749 0
M  V30 6057 H 576.425 2.89145 0.928912 0
M  V30 6058 H 574.01 1.44112 0.393955 0
M  V30 6059 H 575.892 2.54673 3.35737 0
M  V30 6060 H 574.567 1.44271 2.89771 0
M  V30 6061 H 573.474 3.37369 1.61658 0
M  V30 6062 H 574.807 4.43019 2.14465 0
M  V30 6063 N 576.459 -0.456382 1.50847 0
M  V30 6064 C 577.705 -1.20914 1.62811 0
M  V30 6065 C 578.038 -1.91301 0.334304 0
M  V30 6066 O 577.313 -1.82775 -0.665098 0
M  V30 6067 C 577.596 -2.24122 2.81853 0
M  V30 6068 C 577.449 -1.57944 4.21158 0
M  V30 6069 C 578.768 -3.25295 2.96431 0
M  V30 6070 H 575.887 -0.438233 0.592554 0
M  V30 6071 H 578.529 -0.50091 1.83278 0
M  V30 6072 H 576.679 -2.84524 2.64534 0
M  V30 6073 H 578.351 -1.01025 4.50102 0
M  V30 6074 H 576.594 -0.882185 4.24735 0
M  V30 6075 H 577.265 -2.33014 5.00408 0
M  V30 6076 H 579.741 -2.7493 3.12335 0
M  V30 6077 H 578.617 -3.94822 3.81322 0
M  V30 6078 H 578.878 -3.90286 2.07676 0
M  V30 6079 N 577.937 -1.40673 -0.710563 0
M  V30 6080 C 579.186 -1.38525 -1.46607 0
M  V30 6081 C 579.499 0.0077024 -1.95598 0
M  V30 6082 O 580.705 0.151792 -2.71075 0
M  V30 6083 C 579.161 -2.43489 -2.6503 0
M  V30 6084 C 578.769 -3.88619 -2.22888 0
M  V30 6085 C 580.513 -2.50456 -3.42742 0
M  V30 6086 C 578.42 -4.85168 -3.3818 0
M  V30 6087 H 577.35 -0.515092 -0.550632 0
M  V30 6088 H 580.001 -1.66431 -0.772846 0
M  V30 6089 H 578.383 -2.0869 -3.36548 0
M  V30 6090 H 579.557 -4.32588 -1.58758 0
M  V30 6091 H 577.872 -3.85174 -1.58208 0
M  V30 6092 H 580.469 -3.19776 -4.28541 0
M  V30 6093 H 580.812 -1.53665 -3.86902 0
M  V30 6094 H 581.345 -2.84271 -2.78271 0
M  V30 6095 H 578.084 -5.8331 -2.99047 0
M  V30 6096 H 577.604 -4.4586 -4.01209 0
M  V30 6097 H 579.283 -5.05225 -4.04174 0
M  V30 6098 N 579.415 0.9433 -1.26252 0
M  V30 6099 C 580.663 1.68592 -1.11451 0
M  V30 6100 C 580.984 1.91957 0.343123 0
M  V30 6101 O 580.254 1.51475 1.24226 0
M  V30 6102 H 578.834 0.624789 -0.409448 0
M  V30 6103 H 581.496 1.13351 -1.58548 0
M  V30 6104 H 580.592 2.66054 -1.63162 0
M  V30 6105 N 580.893 1.08022 1.14757 0
M  V30 6106 C 582.118 0.82895 1.90114 0
M  V30 6107 C 582.543 -0.612772 1.77839 0
M  V30 6108 O 581.901 -1.42895 1.11583 0
M  V30 6109 C 581.949 1.25062 3.38219 0
M  V30 6110 O 581.053 0.400119 4.10454 0
M  V30 6111 H 580.394 0.301412 0.591648 0
M  V30 6112 H 582.924 1.44062 1.45284 0
M  V30 6113 H 582.934 1.22977 3.89025 0
M  V30 6114 H 581.609 2.30067 3.46471 0
M  V30 6115 H 580.186 0.484052 3.69745 0
M  V30 6116 N 582.371 -1.3172 0.865308 0
M  V30 6117 C 583.334 -2.26918 0.322627 0
M  V30 6118 C 584.334 -1.52031 -0.523751 0
M  V30 6119 O 585.524 -1.70973 -0.333727 0
M  V30 6120 C 582.656 -3.36558 -0.542338 0
M  V30 6121 H 583.849 -2.76432 1.16298 0
M  V30 6122 H 581.402 -1.42573 0.640512 0
M  V30 6123 H 582.137 -2.92329 -1.40407 0
M  V30 6124 H 581.922 -3.92048 0.0636395 0
M  V30 6125 H 583.412 -4.07465 -0.91446 0
M  V30 6126 N 583.85 -0.624285 -1.44708 0
M  V30 6127 C 584.779 0.0717025 -2.3339 0
M  V30 6128 C 585.76 0.841814 -1.47809 0
M  V30 6129 O 586.946 0.809056 -1.76544 0
M  V30 6130 C 584.076 1.05852 -3.30776 0
M  V30 6131 C 583.029 0.400503 -4.26122 0
M  V30 6132 C 582.356 1.49674 -5.13324 0
M  V30 6133 C 583.656 -0.688924 -5.17737 0
M  V30 6134 H 585.35 -0.668819 -2.91834 0
M  V30 6135 H 582.896 -0.32308 -1.40329 0
M  V30 6136 H 584.849 1.5541 -3.91696 0
M  V30 6137 H 583.572 1.82984 -2.70526 0
M  V30 6138 H 582.231 -0.0743687 -3.66525 0
M  V30 6139 H 581.88 2.25877 -4.49431 0
M  V30 6140 H 581.58 1.06188 -5.77926 0
M  V30 6141 H 583.104 1.99427 -5.77115 0
M  V30 6142 H 584.518 -0.276724 -5.72632 0
M  V30 6143 H 582.915 -1.04652 -5.90904 0
M  V30 6144 H 583.985 -1.55884 -4.5916 0
M  V30 6145 N 585.328 1.53329 -0.364422 0
M  V30 6146 C 586.739 1.86345 0.115039 0
M  V30 6147 C 587.09 1.28505 1.4826 0
M  V30 6148 O 586.215 0.606639 2.07723 0
M  V30 6149 C 586.81 3.38114 0.215522 0
M  V30 6150 C 585.369 3.70932 0.639237 0
M  V30 6151 C 584.516 2.76471 -0.214261 0
M  V30 6152 H 587.467 1.47593 -0.583258 0
M  V30 6153 H 587.488 3.66031 1.0393 0
M  V30 6154 H 587 3.80182 -0.779948 0
M  V30 6155 H 585.101 3.3442 1.64298 0
M  V30 6156 H 585.214 4.77302 0.41465 0
M  V30 6157 H 583.578 2.52724 0.316678 0
M  V30 6158 H 584.361 3.21373 -1.20725 0
M  V30 6159 N 586.806 0.0935595 1.57322 0
M  V30 6160 C 587.769 -0.851426 2.12799 0
M  V30 6161 C 588.769 -1.21187 1.0569 0
M  V30 6162 O 589.959 -1.14156 1.31583 0
M  V30 6163 C 587.091 -2.14779 2.64731 0
M  V30 6164 H 588.284 -0.369733 2.97612 0
M  V30 6165 H 585.837 -0.155417 1.55525 0
M  V30 6166 H 586.572 -2.67437 1.83434 0
M  V30 6167 H 586.357 -1.89907 3.43042 0
M  V30 6168 H 587.847 -2.82383 3.07651 0
M  V30 6169 N 588.284 -1.56567 -0.180126 0
M  V30 6170 C 589.509 -1.85975 -0.918041 0
M  V30 6171 C 589.934 -0.678888 -1.75422 0
M  V30 6172 O 589.292 0.372168 -1.77439 0
M  V30 6173 C 589.34 -3.13731 -1.77779 0
M  V30 6174 O 588.444 -2.95335 -2.87838 0
M  V30 6175 H 587.785 -0.61196 -0.257683 0
M  V30 6176 H 590.315 -2.03798 -0.180923 0
M  V30 6177 H 590.325 -3.4491 -2.17948 0
M  V30 6178 H 589 -3.99293 -1.16352 0
M  V30 6179 H 587.577 -2.7549 -2.51316 0
M  V30 6180 N 589.762 0.448376 -1.51087 0
M  V30 6181 C 591.173 1.0286 -1.5581 0
M  V30 6182 C 591.524 1.92583 -0.374989 0
M  V30 6183 O 590.649 2.10316 0.509533 0
M  V30 6184 C 591.244 1.87223 -2.8237 0
M  V30 6185 C 589.803 2.40314 -2.897 0
M  V30 6186 C 588.95 1.19238 -2.50355 0
M  V30 6187 H 591.901 0.230075 -1.57023 0
M  V30 6188 H 591.922 2.72553 -2.6551 0
M  V30 6189 H 591.434 1.21894 -3.68461 0
M  V30 6190 H 589.535 3.09129 -2.08014 0
M  V30 6191 H 589.648 2.73866 -3.93108 0
M  V30 6192 H 588.012 1.53428 -2.03303 0
M  V30 6193 H 588.795 0.555367 -3.38778 0
M  V30 6194 N 591.24 1.41047 0.703093 0
M  V30 6195 C 592.488 1.39723 1.4602 0
M  V30 6196 C 592.809 0.00461257 1.94999 0
M  V30 6197 O 592.079 -0.952292 1.71196 0
M  V30 6198 H 590.659 0.514281 0.541779 0
M  V30 6199 H 593.321 1.76217 0.832678 0
M  V30 6200 H 592.417 2.07982 2.32701 0
M  V30 6201 N 592.718 -0.936591 1.26751 0
M  V30 6202 C 593.681 -2.01752 1.08761 0
M  V30 6203 C 594.681 -1.60763 0.0344435 0
M  V30 6204 O 595.871 -1.71963 0.278258 0
M  V30 6205 C 593.003 -3.34543 0.655271 0
M  V30 6206 H 594.196 -2.19143 2.04735 0
M  V30 6207 H 591.749 -1.11618 1.09413 0
M  V30 6208 H 592.484 -3.22851 -0.30626 0
M  V30 6209 H 592.269 -3.65647 1.41578 0
M  V30 6210 H 593.759 -4.13944 0.551378 0
M  V30 6211 N 594.196 -1.08629 -1.14182 0
M  V30 6212 C 595.159 -0.722027 -2.1753 0
M  V30 6213 C 596.159 0.244305 -1.58933 0
M  V30 6214 O 597.349 0.0235545 -1.74184 0
M  V30 6215 C 594.481 -0.0663966 -3.40835 0
M  V30 6216 H 595.674 -1.63719 -2.51269 0
M  V30 6217 H 593.227 -0.884442 -1.28869 0
M  V30 6218 H 593.962 0.860389 -3.12678 0
M  V30 6219 H 593.747 -0.761598 -3.84632 0
M  V30 6220 H 595.237 0.173346 -4.1724 0
M  V30 6221 N 595.674 1.31259 -0.872281 0
M  V30 6222 C 596.637 2.26744 -0.334656 0
M  V30 6223 C 597.637 1.52307 0.515681 0
M  V30 6224 O 598.827 1.71148 0.324656 0
M  V30 6225 C 595.959 3.36841 0.524482 0
M  V30 6226 H 597.152 2.75812 -1.17762 0
M  V30 6227 H 594.705 1.42232 -0.648064 0
M  V30 6228 H 595.44 2.93069 1.38855 0
M  V30 6229 H 595.225 3.92009 -0.0844299 0
M  V30 6230 H 596.715 4.07944 0.892838 0
M  V30 6231 N 597.152 0.631951 1.44375 0
M  V30 6232 C 598.4 0.136497 2.01639 0
M  V30 6233 C 598.721 -1.24637 1.49969 0
M  V30 6234 O 597.991 -1.82827 0.70363 0
M  V30 6235 H 596.571 0.0474703 0.74549 0
M  V30 6236 H 599.233 0.818837 1.76865 0
M  V30 6237 H 598.329 0.104817 3.11924 0
M  V30 6238 N 598.631 -1.53133 0.372548 0
M  V30 6239 C 599.578 -2.25951 -0.470631 0
M  V30 6240 C 600.548 -1.26895 -1.07176 0
M  V30 6241 O 601.733 -1.55691 -1.10294 0
M  V30 6242 C 598.873 -3.05726 -1.6008 0
M  V30 6243 C 597.986 -4.19684 -1.02416 0
M  V30 6244 C 597.121 -4.86888 -2.124 0
M  V30 6245 C 596.16 -5.92866 -1.52238 0
M  V30 6246 N 595.297 -6.53732 -2.56084 0
M  V30 6247 H 600.137 -2.97587 0.156816 0
M  V30 6248 H 597.674 -1.4683 0.0891571 0
M  V30 6249 H 599.632 -3.50258 -2.26661 0
M  V30 6250 H 598.262 -2.36331 -2.1988 0
M  V30 6251 H 597.314 -3.79588 -0.248426 0
M  V30 6252 H 598.626 -4.95821 -0.544366 0
M  V30 6253 H 597.78 -5.34638 -2.86787 0
M  V30 6254 H 596.519 -4.10239 -2.63734 0
M  V30 6255 H 595.524 -5.4447 -0.763685 0
M  V30 6256 H 596.749 -6.71439 -1.0172 0
M  V30 6257 H 594.695 -5.79932 -3.06618 0
M  V30 6258 H 594.612 -7.25429 -2.12811 0
M  V30 6259 H 595.88 -7.0613 -3.30152 0
M  V30 6260 N 600.109 -0.101901 -1.5727 0
M  V30 6261 C 601.355 0.561027 -1.94885 0
M  V30 6262 C 601.688 1.6741 -0.984258 0
M  V30 6263 O 600.963 1.94491 -0.0184767 0
M  V30 6264 C 601.246 1.10982 -3.42571 0
M  V30 6265 C 601.099 0.00133418 -4.498 0
M  V30 6266 C 602.418 2.00608 -3.9172 0
M  V30 6267 H 599.537 0.202467 -0.708644 0
M  V30 6268 H 602.179 -0.173992 -1.89202 0
M  V30 6269 H 600.329 1.73621 -3.47546 0
M  V30 6270 H 602.001 -0.63322 -4.56933 0
M  V30 6271 H 600.244 -0.664143 -4.28686 0
M  V30 6272 H 600.915 0.426253 -5.50352 0
M  V30 6273 H 603.391 1.47864 -3.88941 0
M  V30 6274 H 602.267 2.3593 -4.95609 0
M  V30 6275 H 602.528 2.92608 -3.3141 0
M  V30 6276 N 601.587 1.56661 0.17182 0
M  V30 6277 C 602.817 1.85831 0.902804 0
M  V30 6278 C 603.225 0.685157 1.76358 0
M  V30 6279 O 602.568 -0.354947 1.80238 0
M  V30 6280 C 602.63 3.09406 1.83053 0
M  V30 6281 C 602.294 4.4231 1.1494 0
M  V30 6282 C 603.291 5.17342 0.515104 0
M  V30 6283 C 600.976 4.89045 1.14631 0
M  V30 6284 C 602.97 6.37299 -0.113194 0
M  V30 6285 C 600.657 6.08933 0.514184 0
M  V30 6286 C 601.655 6.82904 -0.114463 0
M  V30 6287 O 601.343 8.00518 -0.736622 0
M  V30 6288 H 601.075 0.620715 0.267748 0
M  V30 6289 H 603.629 2.04637 0.176918 0
M  V30 6290 H 601.859 2.86544 2.59672 0
M  V30 6291 H 603.548 3.25027 2.4313 0
M  V30 6292 H 604.314 4.82317 0.509474 0
M  V30 6293 H 600.193 4.31409 1.62502 0
M  V30 6294 H 603.737 6.94976 -0.604477 0
M  V30 6295 H 599.634 6.43423 0.517395 0
M  V30 6296 H 600.402 8.16027 -0.635822 0
M  V30 6297 N 603.065 -0.440357 1.51323 0
M  V30 6298 C 604.312 -1.19004 1.63842 0
M  V30 6299 C 604.64 -1.91266 0.35321 0
M  V30 6300 O 603.895 -1.84143 -0.662565 0
M  V30 6301 C 604.194 -2.2339 2.78984 0
M  V30 6302 C 603.86 -1.68162 4.18369 0
M  V30 6303 C 602.522 -1.52823 4.56288 0
M  V30 6304 C 604.874 -1.27524 5.05358 0
M  V30 6305 C 602.202 -0.953157 5.78906 0
M  V30 6306 C 604.554 -0.714474 6.28552 0
M  V30 6307 C 603.218 -0.547961 6.65247 0
M  V30 6308 H 602.488 -0.435468 0.59954 0
M  V30 6309 H 605.135 -0.481538 1.85347 0
M  V30 6310 H 603.44 -3.00267 2.51688 0
M  V30 6311 H 605.137 -2.81211 2.85869 0
M  V30 6312 H 601.727 -1.81077 3.8847 0
M  V30 6313 H 605.911 -1.38197 4.76671 0
M  V30 6314 H 601.167 -0.811882 6.05986 0
M  V30 6315 H 605.341 -0.391059 6.95301 0
M  V30 6316 H 602.968 -0.100222 7.60134 0
M  V30 6317 N 604.543 -1.41418 -0.695603 0
M  V30 6318 C 605.771 -1.4413 -1.48439 0
M  V30 6319 C 606.186 -0.0465698 -1.88743 0
M  V30 6320 O 605.543 0.934117 -1.56782 0
M  V30 6321 C 605.594 -2.34998 -2.74696 0
M  V30 6322 O 605.315 -3.69043 -2.36091 0
M  V30 6323 C 606.816 -2.46513 -3.68438 0
M  V30 6324 H 604.036 -0.490905 -0.457442 0
M  V30 6325 H 606.58 -1.85702 -0.856454 0
M  V30 6326 H 604.735 -1.96735 -3.33728 0
M  V30 6327 H 605.149 -4.17505 -3.17474 0
M  V30 6328 H 606.623 -3.1426 -4.53811 0
M  V30 6329 H 607.1 -1.49638 -4.12922 0
M  V30 6330 H 607.706 -2.85412 -3.1531 0
M  V30 6331 N 606.021 0.929856 -1.27246 0
M  V30 6332 C 606.984 2.01172 -1.09829 0
M  V30 6333 C 607.984 1.60743 -0.0429687 0
M  V30 6334 O 609.174 1.71813 -0.287373 0
M  V30 6335 C 606.306 3.34191 -0.673003 0
M  V30 6336 H 607.499 2.18054 -2.05895 0
M  V30 6337 H 605.052 1.11036 -1.10003 0
M  V30 6338 H 605.787 3.23009 0.289134 0
M  V30 6339 H 605.572 3.64892 -1.43515 0
M  V30 6340 H 607.062 4.13646 -0.573323 0
M  V30 6341 N 607.499 1.09233 1.13605 0
M  V30 6342 C 608.776 0.739633 1.81077 0
M  V30 6343 C 609.156 -0.775595 1.96336 0
M  V30 6344 O 608.504 -1.69726 1.52988 0
M  V30 6345 C 608.714 1.47636 3.16235 0
M  V30 6346 C 610.062 1.64087 3.91613 0
M  V30 6347 O 611.086 1.43871 3.25852 0
M  V30 6348 O 609.945 1.97511 5.0956 0
M  V30 6349 H 607.039 0.265464 0.783236 0
M  V30 6350 H 609.585 1.19441 1.20549 0
M  V30 6351 H 608.357 2.50818 3.00344 0
M  V30 6352 H 607.98 1.01362 3.84462 0
M  V30 6353 N 608.977 -1.30795 0.87923 0
M  V30 6354 C 609.887 -2.32041 0.345565 0
M  V30 6355 C 610.903 -1.65103 -0.549265 0
M  V30 6356 O 612.079 -1.9645 -0.443763 0
M  V30 6357 C 609.144 -3.43944 -0.436245 0
M  V30 6358 C 608.205 -4.26521 0.48765 0
M  V30 6359 C 607.438 -5.33081 -0.256943 0
M  V30 6360 O 607.661 -5.50762 -1.48381 0
M  V30 6361 O 606.595 -6.00635 0.389985 0
M  V30 6362 H 610.421 -2.79627 1.18501 0
M  V30 6363 H 608.006 -1.3486 0.642885 0
M  V30 6364 H 609.888 -4.12128 -0.879119 0
M  V30 6365 H 608.563 -2.98504 -1.25208 0
M  V30 6366 H 607.47 -3.61057 0.979216 0
M  V30 6367 H 608.803 -4.75551 1.26933 0
M  V30 6368 N 610.455 -0.639598 -1.44038 0
M  V30 6369 C 611.418 0.0506628 -2.29144 0
M  V30 6370 C 612.418 0.764001 -1.41491 0
M  V30 6371 O 613.608 0.607309 -1.63271 0
M  V30 6372 C 610.74 1.0824 -3.2326 0
M  V30 6373 H 611.933 -0.697987 -2.91664 0
M  V30 6374 H 609.486 -0.400146 -1.51091 0
M  V30 6375 H 610.221 1.86075 -2.65606 0
M  V30 6376 H 610.006 0.574725 -3.87865 0
M  V30 6377 H 611.496 1.56487 -3.87171 0
M  V30 6378 N 611.933 1.52934 -0.380664 0
M  V30 6379 C 612.88 2.26197 0.458641 0
M  V30 6380 C 613.85 1.27462 1.06502 0
M  V30 6381 O 615.035 1.56274 1.09467 0
M  V30 6382 C 612.175 3.06571 1.58456 0
M  V30 6383 C 611.288 4.20222 1.00189 0
M  V30 6384 C 610.423 4.88007 2.09815 0
M  V30 6385 C 609.462 5.93665 1.49092 0
M  V30 6386 N 608.599 6.55081 2.52613 0
M  V30 6387 H 613.439 2.975 -0.172595 0
M  V30 6388 H 610.976 1.4678 -0.0969426 0
M  V30 6389 H 612.934 3.51455 2.24801 0
M  V30 6390 H 611.564 2.37494 2.18624 0
M  V30 6391 H 610.616 3.79714 0.228292 0
M  V30 6392 H 611.928 4.96102 0.518064 0
M  V30 6393 H 611.082 5.36151 2.83948 0
M  V30 6394 H 609.821 4.11632 2.61555 0
M  V30 6395 H 608.826 5.44868 0.7348 0
M  V30 6396 H 610.051 6.71969 0.981582 0
M  V30 6397 H 607.997 5.8155 3.03538 0
M  V30 6398 H 607.914 7.26548 2.08961 0
M  V30 6399 H 609.182 7.07871 3.26402 0
M  V30 6400 N 613.412 0.11024 1.57214 0
M  V30 6401 C 614.375 -0.828808 2.1369 0
M  V30 6402 C 615.375 -1.20059 1.06969 0
M  V30 6403 O 616.565 -1.12754 1.32786 0
M  V30 6404 C 613.697 -2.11959 2.66994 0
M  V30 6405 H 614.89 -0.338146 2.97988 0
M  V30 6406 H 612.443 -0.138913 1.55681 0
M  V30 6407 H 613.178 -2.65476 1.8626 0
M  V30 6408 H 612.963 -1.86258 3.45037 0
M  V30 6409 H 614.453 -2.79105 3.10629 0
M  V30 6410 N 614.89 -1.56749 -0.16351 0
M  V30 6411 C 615.853 -1.96121 -1.18613 0
M  V30 6412 C 616.853 -0.845765 -1.36761 0
M  V30 6413 O 618.043 -1.11268 -1.34033 0
M  V30 6414 C 615.175 -2.26282 -2.54969 0
M  V30 6415 H 616.368 -2.87639 -0.848764 0
M  V30 6416 H 613.921 -1.50928 -0.406251 0
M  V30 6417 H 614.656 -1.37504 -2.93706 0
M  V30 6418 H 614.441 -3.07595 -2.43162 0
M  V30 6419 H 615.931 -2.57638 -3.28653 0
M  V30 6420 N 616.368 0.432326 -1.51554 0
M  V30 6421 C 617.318 1.52366 -1.69614 0
M  V30 6422 C 618.302 1.51205 -0.550083 0
M  V30 6423 O 619.494 1.57573 -0.806206 0
M  V30 6424 C 616.623 2.90513 -1.82913 0
M  V30 6425 C 615.709 2.9641 -3.03318 0
M  V30 6426 N 616.1 2.72043 -4.26411 0
M  V30 6427 C 614.398 3.27572 -3.02675 0
M  V30 6428 C 615.099 2.83912 -5.07709 0
M  V30 6429 N 614.075 3.15798 -4.42462 0
M  V30 6430 H 617.877 1.32285 -2.62446 0
M  V30 6431 H 615.391 0.639708 -1.4927 0
M  V30 6432 H 617.388 3.69032 -1.93962 0
M  V30 6433 H 616.048 3.1161 -0.912655 0
M  V30 6434 H 617.059 2.46876 -4.55272 0
M  V30 6435 H 613.736 3.54411 -2.20678 0
M  V30 6436 H 615.126 2.68984 -6.15709 0
M  V30 6437 N 617.846 1.41785 0.688094 0
M  V30 6438 C 618.756 1.46596 1.83158 0
M  V30 6439 C 619.772 0.355862 1.70322 0
M  V30 6440 O 620.948 0.604737 1.92106 0
M  V30 6441 C 618.013 1.35322 3.192 0
M  V30 6442 C 617.074 2.56711 3.4409 0
M  V30 6443 C 616.307 2.45965 4.73642 0
M  V30 6444 O 616.53 1.48827 5.50642 0
M  V30 6445 O 615.464 3.35859 4.99482 0
M  V30 6446 H 619.29 2.43083 1.82056 0
M  V30 6447 H 616.875 1.23404 0.842126 0
M  V30 6448 H 618.757 1.31347 4.00407 0
M  V30 6449 H 617.432 0.419536 3.2097 0
M  V30 6450 H 616.339 2.66262 2.62784 0
M  V30 6451 H 617.672 3.48933 3.47141 0
M  V30 6452 N 619.324 -0.923095 1.27737 0
M  V30 6453 C 620.271 -2.02432 1.1086 0
M  V30 6454 C 621.241 -1.66098 0.00835195 0
M  V30 6455 O 622.426 -1.90027 0.171542 0
M  V30 6456 C 619.566 -3.36476 0.766671 0
M  V30 6457 C 618.679 -3.85737 1.94501 0
M  V30 6458 C 617.814 -5.08249 1.54455 0
M  V30 6459 C 616.853 -5.49818 2.6901 0
M  V30 6460 N 615.99 -6.63524 2.29521 0
M  V30 6461 H 620.83 -2.16201 2.05089 0
M  V30 6462 H 618.367 -1.05909 1.02087 0
M  V30 6463 H 620.325 -4.13569 0.549223 0
M  V30 6464 H 618.955 -3.22502 -0.13867 0
M  V30 6465 H 618.007 -3.04883 2.27487 0
M  V30 6466 H 619.319 -4.12513 2.80419 0
M  V30 6467 H 618.473 -5.92857 1.28862 0
M  V30 6468 H 617.212 -4.83261 0.656534 0
M  V30 6469 H 616.217 -4.63757 2.95313 0
M  V30 6470 H 617.442 -5.76799 3.5844 0
M  V30 6471 H 615.388 -6.40185 1.43177 0
M  V30 6472 H 615.305 -6.89978 3.08977 0
M  V30 6473 H 616.573 -7.51461 2.07187 0
M  V30 6474 N 620.802 -1.09834 -1.13024 0
M  V30 6475 C 622.05 -0.835297 -1.8403 0
M  V30 6476 C 622.371 0.640944 -1.84165 0
M  V30 6477 O 621.641 1.46517 -1.30037 0
M  V30 6478 H 620.221 -0.306018 -0.681441 0
M  V30 6479 H 622.883 -1.38734 -1.36891 0
M  V30 6480 H 621.979 -1.19258 -2.88416 0
M  V30 6481 N 622.28 1.30327 -0.886154 0
M  V30 6482 C 623.19 2.31854 -0.357866 0
M  V30 6483 C 624.206 1.65392 0.540502 0
M  V30 6484 O 625.382 1.96683 0.433339 0
M  V30 6485 C 622.447 3.44171 0.417999 0
M  V30 6486 C 621.508 4.26257 -0.510263 0
M  V30 6487 C 620.741 5.3321 0.228669 0
M  V30 6488 O 620.964 5.51542 1.45458 0
M  V30 6489 O 619.898 6.0042 -0.421832 0
M  V30 6490 H 623.724 2.78995 -1.19982 0
M  V30 6491 H 621.309 1.34518 -0.650028 0
M  V30 6492 H 623.191 4.12588 0.857251 0
M  V30 6493 H 621.866 2.99164 1.23623 0
M  V30 6494 H 620.773 3.60533 -0.99835 0
M  V30 6495 H 622.106 4.74871 -1.29454 0
M  V30 6496 N 623.758 0.647228 1.43697 0
M  V30 6497 C 625.174 0.314256 1.56476 0
M  V30 6498 C 625.374 -1.18191 1.63196 0
M  V30 6499 O 624.43 -1.96655 1.58376 0
M  V30 6500 C 625.743 1.02034 2.82859 0
M  V30 6501 C 627.291 1.00002 2.96595 0
M  V30 6502 C 627.766 1.68689 4.25803 0
M  V30 6503 N 629.257 1.65424 4.32654 0
M  V30 6504 C 629.992 2.1545 5.31384 0
M  V30 6505 N 629.488 2.73738 6.36427 0
M  V30 6506 N 631.281 2.05985 5.22998 0
M  V30 6507 H 623.432 1.61821 1.37578 0
M  V30 6508 H 625.695 0.680184 0.660344 0
M  V30 6509 H 625.401 2.07542 2.83935 0
M  V30 6510 H 625.275 0.568146 3.72897 0
M  V30 6511 H 627.662 -0.0466319 2.95063 0
M  V30 6512 H 627.743 1.49086 2.07863 0
M  V30 6513 H 627.387 2.73308 4.28095 0
M  V30 6514 H 627.317 1.17076 5.13421 0
M  V30 6515 H 629.808 1.22884 3.57363 0
M  V30 6516 H 630.121 3.09602 7.08072 0
M  V30 6517 H 628.466 2.77796 6.37067 0
M  V30 6518 H 631.657 1.60157 4.39849 0
M  V30 6519 H 631.83 2.45281 5.99784 0
M  V30 6520 N 625.236 -1.5273 0.388769 0
M  V30 6521 C 626.482 -2.01871 -0.193877 0
M  V30 6522 C 626.815 -1.27475 -1.46505 0
M  V30 6523 O 626.09 -0.375063 -1.90849 0
M  V30 6524 C 626.373 -3.5712 -0.462336 0
M  V30 6525 C 626.226 -4.42186 0.824091 0
M  V30 6526 C 627.545 -4.21881 -1.25319 0
M  V30 6527 H 624.664 -0.733764 -0.0689899 0
M  V30 6528 H 627.306 -1.82796 0.518231 0
M  V30 6529 H 625.456 -3.73504 -1.06896 0
M  V30 6530 H 627.128 -4.37554 1.46096 0
M  V30 6531 H 625.371 -4.09219 1.43952 0
M  V30 6532 H 626.042 -5.48828 0.590905 0
M  V30 6533 H 628.518 -4.0947 -0.73981 0
M  V30 6534 H 627.394 -5.30487 -1.40977 0
M  V30 6535 H 627.655 -3.79478 -2.26824 0
M  V30 6536 N 626.714 -0.118576 -1.57153 0
M  V30 6537 C 627.963 0.539339 -1.94355 0
M  V30 6538 C 628.276 1.67858 -1.00415 0
M  V30 6539 O 629.482 2.39922 -1.27081 0
M  V30 6540 C 627.938 1.01082 -3.45414 0
M  V30 6541 C 627.546 -0.0999402 -4.47889 0
M  V30 6542 C 629.29 1.64013 -3.91535 0
M  V30 6543 C 627.197 0.388212 -5.90124 0
M  V30 6544 H 626.127 0.205247 -0.725527 0
M  V30 6545 H 628.778 -0.19836 -1.82425 0
M  V30 6546 H 627.16 1.80292 -3.52577 0
M  V30 6547 H 628.334 -0.876189 -4.52393 0
M  V30 6548 H 626.649 -0.635885 -4.11516 0
M  V30 6549 H 629.246 2.01649 -4.95219 0
M  V30 6550 H 629.589 2.51836 -3.31488 0
M  V30 6551 H 630.122 0.913439 -3.87171 0
M  V30 6552 H 626.861 -0.453963 -6.53926 0
M  V30 6553 H 626.381 1.13095 -5.89041 0
M  V30 6554 H 628.06 0.849574 -6.41398 0
M  V30 6555 N 628.193 1.56834 0.155195 0
M  V30 6556 C 629.123 2.00678 1.19376 0
M  V30 6557 C 630.104 0.884973 1.45266 0
M  V30 6558 O 631.289 1.1522 1.56326 0
M  V30 6559 C 628.419 2.38042 2.5289 0
M  V30 6560 C 627.373 3.53332 2.41538 0
M  V30 6561 C 626.699 3.76485 3.79688 0
M  V30 6562 C 627.999 4.86265 1.9064 0
M  V30 6563 H 629.693 2.87688 0.829232 0
M  V30 6564 H 627.239 1.38407 0.397445 0
M  V30 6565 H 629.192 2.67314 3.25763 0
M  V30 6566 H 627.916 1.4796 2.91162 0
M  V30 6567 H 626.575 3.24213 1.71117 0
M  V30 6568 H 626.223 2.83667 4.15382 0
M  V30 6569 H 625.923 4.54068 3.72956 0
M  V30 6570 H 627.447 4.08174 4.54122 0
M  V30 6571 H 628.861 5.14308 2.53299 0
M  V30 6572 H 627.258 5.67597 1.94818 0
M  V30 6573 H 628.328 4.77184 0.861596 0
M  V30 6574 N 629.671 -0.424282 1.51781 0
M  V30 6575 C 630.917 -1.17434 1.6534 0
M  V30 6576 C 631.25 -1.90549 0.374806 0
M  V30 6577 O 630.525 -1.84145 -0.626179 0
M  V30 6578 C 630.808 -2.18093 2.86544 0
M  V30 6579 C 630.661 -1.48975 4.24413 0
M  V30 6580 C 631.98 -3.18934 3.03264 0
M  V30 6581 H 629.099 -0.425566 0.601716 0
M  V30 6582 H 631.741 -0.461921 1.84299 0
M  V30 6583 H 629.891 -2.78849 2.7051 0
M  V30 6584 H 631.563 -0.914551 4.52143 0
M  V30 6585 H 629.806 -0.791893 4.26511 0
M  V30 6586 H 630.477 -2.22347 5.05238 0
M  V30 6587 H 632.953 -2.68243 3.18096 0
M  V30 6588 H 631.829 -3.86645 3.89611 0
M  V30 6589 H 632.09 -3.85793 2.15908 0
M  V30 6590 N 631.149 -1.42148 -0.680565 0
M  V30 6591 C 632.565 -1.24947 -0.992995 0
M  V30 6592 C 632.765 -0.149527 -2.00944 0
M  V30 6593 O 631.821 0.481145 -2.47873 0
M  V30 6594 C 633.134 -2.60426 -1.5033 0
M  V30 6595 C 634.682 -2.67733 -1.62137 0
M  V30 6596 C 635.157 -4.03564 -2.16565 0
M  V30 6597 N 636.648 -4.05488 -2.23905 0
M  V30 6598 C 637.383 -5.07401 -2.67081 0
M  V30 6599 N 636.879 -6.19698 -3.09751 0
M  V30 6600 N 638.672 -4.94758 -2.66778 0
M  V30 6601 H 630.823 -2.12399 -0.0074788 0
M  V30 6602 H 633.086 -0.94571 -0.0658529 0
M  V30 6603 H 632.792 -3.41743 -0.830947 0
M  V30 6604 H 632.666 -2.83949 -2.483 0
M  V30 6605 H 635.053 -1.86765 -2.2848 0
M  V30 6606 H 635.134 -2.48004 -0.626713 0
M  V30 6607 H 634.778 -4.84987 -1.50833 0
M  V30 6608 H 634.708 -4.20641 -3.1681 0
M  V30 6609 H 637.199 -3.24415 -1.93812 0
M  V30 6610 H 637.512 -6.93318 -3.41365 0
M  V30 6611 H 635.857 -6.23212 -3.07623 0
M  V30 6612 H 639.048 -4.06105 -2.32801 0
M  V30 6613 H 639.221 -5.74317 -3.00107 0
M  V30 6614 N 632.627 0.916307 -1.28225 0
M  V30 6615 C 633.557 2.0352 -1.14464 0
M  V30 6616 C 634.538 1.70045 -0.0430844 0
M  V30 6617 O 635.723 1.92954 -0.219619 0
M  V30 6618 C 632.853 3.37889 -0.803027 0
M  V30 6619 C 631.807 3.85516 -1.85908 0
M  V30 6620 C 631.133 5.1682 -1.37116 0
M  V30 6621 C 632.433 4.07655 -3.26519 0
M  V30 6622 H 634.127 2.1529 -2.08064 0
M  V30 6623 H 631.673 1.03446 -1.00174 0
M  V30 6624 H 633.626 4.15654 -0.693537 0
M  V30 6625 H 632.35 3.26164 0.168674 0
M  V30 6626 H 631.009 3.09953 -1.95767 0
M  V30 6627 H 630.657 5.01497 -0.38859 0
M  V30 6628 H 630.357 5.49657 -2.07728 0
M  V30 6629 H 631.881 5.97143 -1.27484 0
M  V30 6630 H 633.295 4.75953 -3.19596 0
M  V30 6631 H 631.692 4.51818 -3.94943 0
M  V30 6632 H 632.762 3.12553 -3.70727 0
M  V30 6633 N 634.105 1.10431 1.1244 0
M  V30 6634 C 635.015 0.765502 2.21759 0
M  V30 6635 C 636.031 -0.236966 1.72379 0
M  V30 6636 O 637.207 -0.0757329 2.01258 0
M  V30 6637 C 634.272 0.202316 3.46109 0
M  V30 6638 C 633.333 1.26205 4.1033 0
M  V30 6639 C 632.566 0.725648 5.28744 0
M  V30 6640 O 632.789 -0.447942 5.68638 0
M  V30 6641 O 631.723 1.48555 5.83279 0
M  V30 6642 H 635.549 1.67801 2.53133 0
M  V30 6643 H 633.134 0.879443 1.20773 0
M  V30 6644 H 635.016 -0.107918 4.21262 0
M  V30 6645 H 633.691 -0.683052 3.16411 0
M  V30 6646 H 632.598 1.62514 3.36957 0
M  V30 6647 H 633.931 2.12044 4.44183 0
M  V30 6648 N 635.583 -1.29855 0.893053 0
M  V30 6649 C 636.811 -1.99976 0.530788 0
M  V30 6650 C 637.226 -1.66889 -0.882799 0
M  V30 6651 O 636.583 -0.910352 -1.58173 0
M  V30 6652 C 636.634 -3.54547 0.705587 0
M  V30 6653 O 636.355 -3.86458 2.06353 0
M  V30 6654 C 637.856 -4.41937 0.347387 0
M  V30 6655 H 635.076 -0.639129 0.204339 0
M  V30 6656 H 637.62 -1.65549 1.20057 0
M  V30 6657 H 635.775 -3.87311 0.0830685 0
M  V30 6658 H 636.189 -4.81146 2.08803 0
M  V30 6659 H 637.663 -5.4954 0.520557 0
M  V30 6660 H 638.14 -4.33339 -0.715139 0
M  V30 6661 H 638.746 -4.14633 0.946567 0
M  V30 6662 N 637.061 -0.65484 -1.43351 0
M  V30 6663 C 638.286 -0.175046 -2.0666 0
M  V30 6664 C 638.711 1.15104 -1.4877 0
M  V30 6665 O 638.069 1.71144 -0.598279 0
M  V30 6666 C 638.117 -0.0991544 -3.60464 0
M  V30 6667 O 637.221 0.938169 -4.01587 0
M  V30 6668 H 636.562 -0.0956148 -0.65708 0
M  V30 6669 H 639.092 -0.898222 -1.83829 0
M  V30 6670 H 639.102 0.083632 -4.07914 0
M  V30 6671 H 637.777 -1.06719 -4.01975 0
M  V30 6672 H 636.354 0.72804 -3.65724 0
M  V30 6673 N 638.539 1.52521 -0.396863 0
M  V30 6674 C 639.95 1.86547 0.0754868 0
M  V30 6675 C 640.301 1.31621 1.45501 0
M  V30 6676 O 639.426 0.650563 2.0639 0
M  V30 6677 C 640.021 3.38495 0.143754 0
M  V30 6678 C 638.58 3.72205 0.560413 0
M  V30 6679 C 637.727 2.75954 -0.272856 0
M  V30 6680 H 640.678 1.46323 -0.614434 0
M  V30 6681 H 640.699 3.68153 0.961425 0
M  V30 6682 H 640.211 3.78442 -0.860415 0
M  V30 6683 H 638.312 3.3783 1.57167 0
M  V30 6684 H 638.425 4.78074 0.313314 0
M  V30 6685 H 636.789 2.53339 0.263 0
M  V30 6686 H 637.572 3.1874 -1.27515 0
M  V30 6687 N 640.017 0.126909 1.57088 0
M  V30 6688 C 640.927 -0.833867 2.1928 0
M  V30 6689 C 641.943 -1.2868 1.17122 0
M  V30 6690 O 643.119 -1.34815 1.49622 0
M  V30 6691 C 640.184 -2.0632 2.78627 0
M  V30 6692 C 639.245 -1.66143 3.95847 0
M  V30 6693 C 638.478 -2.83217 4.52354 0
M  V30 6694 O 638.701 -3.98868 4.0775 0
M  V30 6695 O 637.635 -2.59846 5.42922 0
M  V30 6696 H 641.461 -0.334564 3.01852 0
M  V30 6697 H 639.046 -0.0991091 1.49071 0
M  V30 6698 H 640.928 -2.78304 3.16425 0
M  V30 6699 H 639.603 -2.55242 1.99082 0
M  V30 6700 H 638.51 -0.912435 3.62802 0
M  V30 6701 H 639.843 -1.21957 4.76852 0
M  V30 6702 N 641.495 -1.56914 -0.146875 0
M  V30 6703 C 642.772 -1.74273 -0.888165 0
M  V30 6704 C 643.152 -0.69496 -1.99333 0
M  V30 6705 O 642.5 0.286093 -2.26702 0
M  V30 6706 C 642.71 -3.18336 -1.43051 0
M  V30 6707 C 644.058 -3.80024 -1.89387 0
M  V30 6708 O 645.082 -3.21765 -1.52792 0
M  V30 6709 O 643.941 -4.82367 -2.56874 0
M  V30 6710 H 641.035 -0.712565 -0.419738 0
M  V30 6711 H 643.581 -1.6918 -0.132791 0
M  V30 6712 H 642.353 -3.86092 -0.636274 0
M  V30 6713 H 641.976 -3.27854 -2.24938 0
M  V30 6714 N 642.974 0.416227 -1.52004 0
M  V30 6715 C 644.223 1.16088 -1.64944 0
M  V30 6716 C 644.536 1.91835 -0.381928 0
M  V30 6717 O 645.742 2.6867 -0.391013 0
M  V30 6718 C 644.198 2.1124 -2.91386 0
M  V30 6719 C 643.806 1.41042 -4.25219 0
M  V30 6720 C 645.55 2.86008 -3.13688 0
M  V30 6721 C 643.457 2.34801 -5.42791 0
M  V30 6722 H 642.387 0.437041 -0.61442 0
M  V30 6723 H 645.038 0.425971 -1.78487 0
M  V30 6724 H 643.42 2.88254 -2.71525 0
M  V30 6725 H 644.594 0.694416 -4.55538 0
M  V30 6726 H 642.909 0.78344 -4.08964 0
M  V30 6727 H 645.506 3.56286 -3.98703 0
M  V30 6728 H 645.849 3.48556 -2.27628 0
M  V30 6729 H 646.382 2.16095 -3.33988 0
M  V30 6730 H 643.121 1.7691 -6.31176 0
M  V30 6731 H 642.641 3.04395 -5.16821 0
M  V30 6732 H 644.32 2.9548 -5.75587 0
M  V30 6733 N 644.452 1.42507 0.673017 0
M  V30 6734 C 645.362 1.4853 1.81593 0
M  V30 6735 C 646.378 0.373907 1.69935 0
M  V30 6736 O 647.554 0.625078 1.91454 0
M  V30 6737 C 644.619 1.387 3.17747 0
M  V30 6738 C 643.68 2.60346 3.41348 0
M  V30 6739 C 642.913 2.50975 4.71007 0
M  V30 6740 O 643.136 1.54659 5.49033 0
M  V30 6741 O 642.07 3.41138 4.95892 0
M  V30 6742 H 645.896 2.45001 1.79467 0
M  V30 6743 H 643.481 1.2429 0.82899 0
M  V30 6744 H 645.363 1.35586 3.98992 0
M  V30 6745 H 644.038 0.453555 3.20507 0
M  V30 6746 H 642.945 2.69034 2.59945 0
M  V30 6747 H 644.278 3.52595 3.43421 0
M  V30 6748 N 645.93 -0.909495 1.28709 0
M  V30 6749 C 647.178 -1.65577 1.15882 0
M  V30 6750 C 647.499 -1.928 -0.292108 0
M  V30 6751 O 646.769 -1.54716 -1.20166 0
M  V30 6752 H 645.349 -0.613714 0.425869 0
M  V30 6753 H 648.011 -1.09108 1.61498 0
M  V30 6754 H 647.107 -2.61634 1.70159 0
M  V30 6755 N 647.408 -1.11026 -1.11852 0
M  V30 6756 C 648.341 -0.708501 -2.16923 0
M  V30 6757 C 649.319 0.293196 -1.59935 0
M  V30 6758 O 650.503 0.190641 -1.87533 0
M  V30 6759 C 647.63 -0.0463705 -3.38668 0
M  V30 6760 C 646.676 -1.01252 -4.14307 0
M  V30 6761 S 647.509 -2.53291 -4.71809 0
M  V30 6762 C 648.665 -1.88366 -5.96883 0
M  V30 6763 H 648.898 -1.59854 -2.50667 0
M  V30 6764 H 646.431 -0.927869 -1.2341 0
M  V30 6765 H 648.389 0.329314 -4.09177 0
M  V30 6766 H 647.05 0.820562 -3.03192 0
M  V30 6767 H 646.243 -0.496596 -5.01548 0
M  V30 6768 H 645.845 -1.33042 -3.49537 0
M  V30 6769 H 648.137 -1.21753 -6.6647 0
M  V30 6770 H 649.08 -2.73588 -6.53112 0
M  V30 6771 H 649.488 -1.34562 -5.48227 0
M  V30 6772 N 648.886 1.2938 -0.899927 0
M  V30 6773 C 649.836 2.25311 -0.349165 0
M  V30 6774 C 650.82 1.51889 0.530892 0
M  V30 6775 O 652.012 1.73028 0.372872 0
M  V30 6776 C 649.141 3.40696 0.422055 0
M  V30 6777 C 648.227 4.21455 -0.472935 0
M  V30 6778 N 648.618 4.8048 -1.58026 0
M  V30 6779 C 646.916 4.45177 -0.270767 0
M  V30 6780 C 647.617 5.41117 -2.13465 0
M  V30 6781 N 646.593 5.24518 -1.42766 0
M  V30 6782 H 650.395 2.68507 -1.19505 0
M  V30 6783 H 647.909 1.43992 -0.751006 0
M  V30 6784 H 649.906 4.08486 0.833369 0
M  V30 6785 H 648.566 2.99037 1.2652 0
M  V30 6786 H 649.577 4.79257 -1.96299 0
M  V30 6787 H 646.254 4.14071 0.533988 0
M  V30 6788 H 647.644 5.979 -3.06537 0
M  V30 6789 N 650.364 0.662433 1.43002 0
M  V30 6790 C 651.327 -0.0142016 2.29196 0
M  V30 6791 C 652.327 -0.741394 1.42688 0
M  V30 6792 O 653.517 -0.581257 1.64216 0
M  V30 6793 C 650.649 -1.03084 3.24941 0
M  V30 6794 H 651.842 0.7443 2.90517 0
M  V30 6795 H 649.395 0.424133 1.50435 0
M  V30 6796 H 650.13 -1.81826 2.68533 0
M  V30 6797 H 649.915 -0.512946 3.8873 0
M  V30 6798 H 651.405 -1.50308 3.89612 0
M  V30 6799 N 651.842 -1.52309 0.404946 0
M  V30 6800 C 652.805 -2.25491 -0.410651 0
M  V30 6801 C 653.805 -1.27704 -0.977154 0
M  V30 6802 O 654.995 -1.51679 -0.856691 0
M  V30 6803 C 652.127 -3.02197 -1.57765 0
M  V30 6804 H 653.32 -2.99015 0.230277 0
M  V30 6805 H 650.873 -1.55506 0.157377 0
M  V30 6806 H 651.608 -2.33013 -2.25556 0
M  V30 6807 H 651.393 -3.73987 -1.17797 0
M  V30 6808 H 652.883 -3.57719 -2.15469 0
M  V30 6809 N 653.32 -0.135238 -1.57019 0
M  V30 6810 C 654.23 0.822226 -2.19719 0
M  V30 6811 C 655.246 1.28057 -1.17802 0
M  V30 6812 O 656.422 1.3402 -1.50335 0
M  V30 6813 C 653.487 2.0484 -2.79717 0
M  V30 6814 C 652.548 1.64042 -3.96723 0
M  V30 6815 C 651.781 2.80814 -4.53849 0
M  V30 6816 O 652.004 3.967 -4.0986 0
M  V30 6817 O 650.938 2.56963 -5.44292 0
M  V30 6818 H 654.764 0.318552 -3.02025 0
M  V30 6819 H 652.349 0.0912021 -1.49121 0
M  V30 6820 H 654.231 2.76622 -3.17897 0
M  V30 6821 H 652.906 2.54182 -2.00432 0
M  V30 6822 H 651.813 0.893182 -3.63281 0
M  V30 6823 H 653.146 1.19426 -4.77492 0
M  V30 6824 N 654.798 1.5699 0.138552 0
M  V30 6825 C 656.046 1.83446 0.848053 0
M  V30 6826 C 656.367 0.71744 1.81322 0
M  V30 6827 O 655.637 -0.260228 1.94164 0
M  V30 6828 H 654.217 0.676792 0.316166 0
M  V30 6829 H 656.879 1.94462 0.130538 0
M  V30 6830 H 655.975 2.78677 1.40518 0
M  V30 6831 N 656.276 -0.40816 1.52223 0
M  V30 6832 C 657.525 -1.15212 1.65557 0
M  V30 6833 C 657.838 -1.9163 0.392096 0
M  V30 6834 O 659.044 -2.68458 0.405256 0
M  V30 6835 C 657.5 -2.09691 2.92502 0
M  V30 6836 C 657.108 -1.38785 4.25961 0
M  V30 6837 C 658.852 -2.8434 3.152 0
M  V30 6838 C 656.759 -2.31919 5.44029 0
M  V30 6839 H 655.689 -0.433776 0.616729 0
M  V30 6840 H 658.34 -0.4165 1.78711 0
M  V30 6841 H 656.722 -2.8681 2.7305 0
M  V30 6842 H 657.896 -0.670248 4.55899 0
M  V30 6843 H 656.211 -0.761741 4.09373 0
M  V30 6844 H 658.808 -3.54166 4.00587 0
M  V30 6845 H 659.151 -3.47344 2.29473 0
M  V30 6846 H 659.684 -2.14321 3.35129 0
M  V30 6847 H 656.423 -1.7356 6.32105 0
M  V30 6848 H 655.943 -3.0165 5.18428 0
M  V30 6849 H 657.622 -2.92424 5.77146 0
M  V30 6850 N 657.755 -1.42862 -0.66545 0
M  V30 6851 C 658.685 -1.49867 -1.79059 0
M  V30 6852 C 659.666 -0.354394 -1.66367 0
M  V30 6853 O 660.851 -0.569969 -1.85647 0
M  V30 6854 C 657.981 -1.40943 -3.17415 0
M  V30 6855 C 656.935 -2.53495 -3.44854 0
M  V30 6856 C 656.261 -2.29626 -4.82883 0
M  V30 6857 C 657.561 -3.95781 -3.40815 0
M  V30 6858 H 659.255 -2.44037 -1.73453 0
M  V30 6859 H 656.801 -1.17456 -0.833071 0
M  V30 6860 H 658.754 -1.4445 -3.95869 0
M  V30 6861 H 657.478 -0.432716 -3.23721 0
M  V30 6862 H 656.137 -2.4932 -2.68766 0
M  V30 6863 H 655.785 -1.30226 -4.8585 0
M  V30 6864 H 655.485 -3.05065 -5.02204 0
M  V30 6865 H 657.009 -2.34897 -5.63609 0
M  V30 6866 H 658.423 -4.01508 -4.09224 0
M  V30 6867 H 656.82 -4.71148 -3.71672 0
M  V30 6868 H 657.89 -4.21786 -2.39216 0
M  V30 6869 N 659.233 0.902656 -1.29189 0
M  V30 6870 C 660.461 1.68639 -1.19869 0
M  V30 6871 C 660.876 1.87254 0.241121 0
M  V30 6872 O 660.233 1.40745 1.16177 0
M  V30 6873 C 660.284 3.07251 -1.90471 0
M  V30 6874 O 660.005 2.89488 -3.28829 0
M  V30 6875 C 661.506 4.01653 -1.8759 0
M  V30 6876 H 658.726 0.526802 -0.415596 0
M  V30 6877 H 661.27 1.12901 -1.7051 0
M  V30 6878 H 659.425 3.59774 -1.43672 0
M  V30 6879 H 659.839 3.77296 -3.64346 0
M  V30 6880 H 661.313 4.96339 -2.4156 0
M  V30 6881 H 661.79 4.30881 -0.850756 0
M  V30 6882 H 662.396 3.55061 -2.34119 0
M  V30 6883 N 660.711 1.11618 1.11262 0
M  V30 6884 C 661.957 0.867463 1.83311 0
M  V30 6885 C 662.29 -0.605366 1.84524 0
M  V30 6886 O 661.565 -1.44704 1.29965 0
M  V30 6887 C 661.848 1.43207 3.30399 0
M  V30 6888 C 661.701 2.97265 3.3757 0
M  V30 6889 C 663.02 1.08454 4.26528 0
M  V30 6890 H 660.139 0.316578 0.665543 0
M  V30 6891 H 662.781 1.38137 1.30454 0
M  V30 6892 H 660.931 0.994982 3.75543 0
M  V30 6893 H 662.603 3.49591 3.00971 0
M  V30 6894 H 660.846 3.33237 2.77733 0
M  V30 6895 H 661.517 3.31859 4.41105 0
M  V30 6896 H 663.993 1.4619 3.89574 0
M  V30 6897 H 662.869 1.50633 5.27826 0
M  V30 6898 H 663.13 -0.00444568 4.421 0
M  V30 6899 N 662.189 -1.289 0.906776 0
M  V30 6900 C 663.605 -1.47733 0.603902 0
M  V30 6901 C 663.805 -1.82568 -0.852702 0
M  V30 6902 O 662.861 -1.92642 -1.63234 0
M  V30 6903 C 664.174 -2.58522 1.53581 0
M  V30 6904 C 665.722 -2.72394 1.54177 0
M  V30 6905 C 666.197 -3.86318 2.46013 0
M  V30 6906 N 667.688 -3.93661 2.441 0
M  V30 6907 C 668.423 -4.81177 3.11859 0
M  V30 6908 N 667.919 -5.73333 3.88923 0
M  V30 6909 N 669.712 -4.74728 3.00981 0
M  V30 6910 H 661.863 -1.04567 1.84877 0
M  V30 6911 H 664.126 -0.520118 0.792579 0
M  V30 6912 H 663.832 -2.39667 2.57396 0
M  V30 6913 H 663.706 -3.55475 1.26165 0
M  V30 6914 H 666.093 -2.90641 0.511034 0
M  V30 6915 H 666.174 -1.75993 1.85634 0
M  V30 6916 H 665.818 -3.68826 3.49185 0
M  V30 6917 H 665.748 -4.82102 2.11862 0
M  V30 6918 H 668.239 -3.27751 1.88115 0
M  V30 6919 H 668.552 -6.36923 4.37663 0
M  V30 6920 H 666.897 -5.73196 3.93029 0
M  V30 6921 H 670.088 -4.01722 2.40286 0
M  V30 6922 H 670.261 -5.42719 3.54062 0
M  V30 6923 N 663.667 -0.670007 -1.42649 0
M  V30 6924 C 664.915 -0.18991 -2.01206 0
M  V30 6925 C 665.236 1.20617 -1.53221 0
M  V30 6926 O 664.506 1.80898 -0.751856 0
M  V30 6927 H 663.086 -0.0672189 -0.743969 0
M  V30 6928 H 665.748 -0.865442 -1.74631 0
M  V30 6929 H 664.844 -0.187481 -3.11536 0
M  V30 6930 N 665.145 1.52092 -0.413018 0
M  V30 6931 C 666.393 2.01456 0.161178 0
M  V30 6932 C 666.714 1.30034 1.45314 0
M  V30 6933 O 665.984 0.427435 1.9118 0
M  V30 6934 H 664.564 0.744376 0.0625526 0
M  V30 6935 H 667.226 1.86974 -0.550151 0
M  V30 6936 H 666.322 3.1008 0.354517 0
M  V30 6937 N 666.623 0.143563 1.56945 0
M  V30 6938 C 667.556 -0.835367 2.1236 0
M  V30 6939 C 668.534 -1.24466 1.04627 0
M  V30 6940 O 669.718 -1.34138 1.32436 0
M  V30 6941 C 666.845 -2.12123 2.64048 0
M  V30 6942 C 665.891 -1.85812 3.83896 0
M  V30 6943 S 666.724 -1.05222 5.25061 0
M  V30 6944 C 667.88 -2.34935 5.80135 0
M  V30 6945 H 668.113 -0.364109 2.95062 0
M  V30 6946 H 665.646 -0.0706601 1.54238 0
M  V30 6947 H 667.604 -2.85993 2.94479 0
M  V30 6948 H 666.265 -2.56364 1.81483 0
M  V30 6949 H 665.458 -2.81151 4.18294 0
M  V30 6950 H 665.06 -1.20052 3.54208 0
M  V30 6951 H 667.352 -3.3061 5.91357 0
M  V30 6952 H 668.295 -2.05046 6.77762 0
M  V30 6953 H 668.703 -2.45426 5.08356 0
M  V30 6954 N 668.101 -1.57061 -0.130224 0
M  V30 6955 C 669.329 -1.88432 -0.854456 0
M  V30 6956 C 669.744 -0.733608 -1.73964 0
M  V30 6957 O 669.101 0.296029 -1.80083 0
M  V30 6958 C 669.152 -3.1918 -1.69724 0
M  V30 6959 O 668.873 -4.2982 -0.847705 0
M  V30 6960 C 670.374 -3.6418 -2.5276 0
M  V30 6961 H 667.594 -0.624193 -0.246221 0
M  V30 6962 H 670.138 -2.04159 -0.11798 0
M  V30 6963 H 668.293 -3.05156 -2.3866 0
M  V30 6964 H 668.707 -5.04689 -1.42792 0
M  V30 6965 H 670.181 -4.58457 -3.07443 0
M  V30 6966 H 670.658 -2.90285 -3.29592 0
M  V30 6967 H 671.264 -3.80954 -1.89087 0
M  V30 6968 N 669.579 0.400081 -1.52437 0
M  V30 6969 C 670.804 1.17221 -1.71096 0
M  V30 6970 C 671.229 1.83269 -0.423565 0
M  V30 6971 O 670.587 1.70378 0.619751 0
M  V30 6972 C 670.635 2.20425 -2.85386 0
M  V30 6973 O 669.739 3.26769 -2.51586 0
M  V30 6974 H 669.08 0.341766 -0.569291 0
M  V30 6975 H 671.61 0.467772 -1.99181 0
M  V30 6976 H 671.62 2.64605 -3.10561 0
M  V30 6977 H 670.295 1.71737 -3.78786 0
M  V30 6978 H 668.872 2.87804 -2.37114 0
M  V30 6979 N 671.057 1.43213 0.657864 0
M  V30 6980 C 672.007 1.44459 1.76396 0
M  V30 6981 C 672.991 0.313641 1.57814 0
M  V30 6982 O 674.183 0.557094 1.68004 0
M  V30 6983 C 671.312 1.36586 3.14959 0
M  V30 6984 C 670.398 2.54692 3.39106 0
M  V30 6985 N 670.789 3.80059 3.33749 0
M  V30 6986 C 669.087 2.49316 3.69807 0
M  V30 6987 C 669.788 4.58606 3.57849 0
M  V30 6988 N 668.764 3.89267 3.79437 0
M  V30 6989 H 672.566 2.39265 1.70673 0
M  V30 6990 H 670.08 1.378 0.859357 0
M  V30 6991 H 672.077 1.35561 3.94245 0
M  V30 6992 H 670.737 0.427956 3.21867 0
M  V30 6993 H 671.748 4.12414 3.13266 0
M  V30 6994 H 668.425 1.6419 3.83859 0
M  V30 6995 H 669.815 5.67619 3.59525 0
M  V30 6996 N 672.536 -0.895792 1.29666 0
M  V30 6997 C 673.499 -1.98189 1.15124 0
M  V30 6998 C 674.499 -1.60572 0.0855717 0
M  V30 6999 O 675.689 -1.70991 0.332826 0
M  V30 7000 C 672.821 -3.32289 0.761372 0
M  V30 7001 H 674.014 -2.12518 2.11603 0
M  V30 7002 H 671.567 -1.0808 1.12908 0
M  V30 7003 H 672.302 -3.23662 -0.203393 0
M  V30 7004 H 672.087 -3.60958 1.53139 0
M  V30 7005 H 673.577 -4.1198 0.682792 0
M  V30 7006 N 674.014 -1.12206 -1.10668 0
M  V30 7007 C 674.977 -0.790867 -2.15123 0
M  V30 7008 C 675.977 0.193618 -1.5963 0
M  V30 7009 O 677.167 -0.0318728 -1.74171 0
M  V30 7010 C 674.299 -0.174797 -3.40452 0
M  V30 7011 H 675.492 -1.7163 -2.45933 0
M  V30 7012 H 673.045 -0.924993 -1.2599 0
M  V30 7013 H 673.78 0.760478 -3.15257 0
M  V30 7014 H 673.565 -0.88358 -3.82015 0
M  V30 7015 H 675.055 0.0405162 -4.1758 0
M  V30 7016 N 675.492 1.28418 -0.913599 0
M  V30 7017 C 676.738 1.9527 -0.547484 0
M  V30 7018 C 677.071 1.71745 0.906486 0
M  V30 7019 O 676.346 1.03834 1.64465 0
M  V30 7020 C 676.629 3.49748 -0.857205 0
M  V30 7021 C 676.482 3.82675 -2.3639 0
M  V30 7022 C 677.801 4.3868 -0.353258 0
M  V30 7023 H 674.92 0.709236 -0.200381 0
M  V30 7024 H 677.562 1.51789 -1.14281 0
M  V30 7025 H 675.712 3.86915 -0.350548 0
M  V30 7026 H 677.384 3.55378 -2.94116 0
M  V30 7027 H 675.627 3.29724 -2.81894 0
M  V30 7028 H 676.298 4.90547 -2.53115 0
M  V30 7029 H 678.774 4.08584 -0.787288 0
M  V30 7030 H 677.65 5.45621 -0.599049 0
M  V30 7031 H 677.911 4.35753 0.746413 0
M  V30 7032 N 676.97 0.677563 1.42291 0
M  V30 7033 C 678.216 0.201272 2.01799 0
M  V30 7034 C 678.549 -1.19004 1.53465 0
M  V30 7035 O 677.824 -1.79953 0.738039 0
M  V30 7036 C 678.107 0.238968 3.59306 0
M  V30 7037 C 677.96 1.66594 4.17812 0
M  V30 7038 C 679.279 -0.411287 4.38174 0
M  V30 7039 H 676.398 0.0746114 0.733214 0
M  V30 7040 H 679.04 0.862872 1.69276 0
M  V30 7041 H 677.19 -0.324368 3.87144 0
M  V30 7042 H 678.862 2.28173 4.00917 0
M  V30 7043 H 677.105 2.20576 3.73536 0
M  V30 7044 H 677.776 1.64398 5.26951 0
M  V30 7045 H 680.252 0.0682804 4.16044 0
M  V30 7046 H 679.128 -0.354286 5.47755 0
M  V30 7047 H 679.389 -1.4893 4.1626 0
M  V30 7048 N 678.448 -1.51871 0.421078 0
M  V30 7049 C 679.411 -2.25914 -0.386712 0
M  V30 7050 C 680.411 -1.28733 -0.963555 0
M  V30 7051 O 681.601 -1.52579 -0.840556 0
M  V30 7052 C 678.733 -3.03853 -1.54551 0
M  V30 7053 H 679.926 -2.98754 0.261978 0
M  V30 7054 H 677.479 -1.5533 0.173862 0
M  V30 7055 H 678.214 -2.35392 -2.23072 0
M  V30 7056 H 677.999 -3.75215 -1.13824 0
M  V30 7057 H 679.489 -3.59984 -2.11663 0
M  V30 7058 N 679.926 -0.151884 -1.56866 0
M  V30 7059 C 681.342 0.204486 -1.58285 0
M  V30 7060 C 681.542 1.6431 -1.16639 0
M  V30 7061 O 680.598 2.37077 -0.868946 0
M  V30 7062 C 681.911 -0.0587019 -3.00643 0
M  V30 7063 C 683.459 0.00462303 -3.13 0
M  V30 7064 C 683.934 -0.231297 -4.57416 0
M  V30 7065 N 685.425 -0.178394 -4.62856 0
M  V30 7066 C 686.16 -0.335379 -5.72418 0
M  V30 7067 N 685.656 -0.550355 -6.90611 0
M  V30 7068 N 687.449 -0.272641 -5.61438 0
M  V30 7069 H 679.6 -1.09116 -1.82229 0
M  V30 7070 H 681.863 -0.432311 -0.843689 0
M  V30 7071 H 681.569 -1.05453 -3.35518 0
M  V30 7072 H 681.443 0.658508 -3.71407 0
M  V30 7073 H 683.83 0.991009 -2.77962 0
M  V30 7074 H 683.911 -0.744992 -2.44711 0
M  V30 7075 H 683.555 -1.2148 -4.93158 0
M  V30 7076 H 683.485 0.5387 -5.23837 0
M  V30 7077 H 685.976 -0.0170923 -3.77896 0
M  V30 7078 H 686.289 -0.660116 -7.69976 0
M  V30 7079 H 684.634 -0.586736 -6.92519 0
M  V30 7080 H 687.825 -0.105421 -4.67981 0
M  V30 7081 H 687.998 -0.398418 -6.46774 0
M  V30 7082 N 681.404 1.57128 0.121893 0
M  V30 7083 C 682.652 1.84335 0.828548 0
M  V30 7084 C 682.973 0.736632 1.80551 0
M  V30 7085 O 682.243 -0.23962 1.94429 0
M  V30 7086 H 680.823 0.680108 0.30897 0
M  V30 7087 H 683.485 1.9459 0.109906 0
M  V30 7088 H 682.581 2.80152 1.37554 0
M  V30 7089 N 682.882 -0.391992 1.52647 0
M  V30 7090 C 683.815 -1.50019 1.71958 0
M  V30 7091 C 684.793 -1.5238 0.567365 0
M  V30 7092 O 685.977 -1.70831 0.796806 0
M  V30 7093 C 683.104 -2.88496 1.77447 0
M  V30 7094 C 682.15 -3.03974 2.99169 0
M  V30 7095 S 682.983 -2.75487 4.59203 0
M  V30 7096 C 684.139 -4.16163 4.67503 0
M  V30 7097 H 684.372 -1.33413 2.65685 0
M  V30 7098 H 681.905 -0.584674 1.42902 0
M  V30 7099 H 683.863 -3.68296 1.81296 0
M  V30 7100 H 682.524 -3.02431 0.848188 0
M  V30 7101 H 681.717 -4.05328 2.99542 0
M  V30 7102 H 681.319 -2.32062 2.93297 0
M  V30 7103 H 683.611 -5.10048 4.45934 0
M  V30 7104 H 684.554 -4.20806 5.69498 0
M  V30 7105 H 684.962 -4.01933 3.96371 0
M  V30 7106 N 684.36 -1.4356 -0.65026 0
M  V30 7107 C 685.608 -1.45046 -1.40734 0
M  V30 7108 C 685.929 -0.0769822 -1.94848 0
M  V30 7109 O 685.199 0.888098 -1.74613 0
M  V30 7110 H 683.779 -0.534034 -0.522318 0
M  V30 7111 H 686.441 -1.79186 -0.766703 0
M  V30 7112 H 685.537 -2.16476 -2.24822 0
M  V30 7113 N 685.838 0.888903 -1.30139 0
M  V30 7114 C 687.066 1.67358 -1.21651 0
M  V30 7115 C 687.481 1.87499 0.221246 0
M  V30 7116 O 686.838 1.41969 1.14677 0
M  V30 7117 C 686.889 3.05213 -1.93719 0
M  V30 7118 O 686.61 2.85984 -3.31881 0
M  V30 7119 C 688.111 3.9964 -1.9184 0
M  V30 7120 H 685.331 0.522365 -0.42116 0
M  V30 7121 H 687.875 1.11086 -1.71698 0
M  V30 7122 H 686.03 3.5823 -1.4748 0
M  V30 7123 H 686.444 3.73411 -3.68327 0
M  V30 7124 H 687.918 4.93749 -2.46811 0
M  V30 7125 H 688.395 4.29955 -0.896409 0
M  V30 7126 H 689.001 3.52558 -2.37872 0
M  V30 7127 N 687.317 1.12792 1.10072 0
M  V30 7128 C 688.557 0.895691 1.8373 0
M  V30 7129 C 688.921 -0.568131 1.83402 0
M  V30 7130 O 690.122 -0.917666 2.52651 0
M  V30 7131 C 688.393 1.4593 3.2625 0
M  V30 7132 S 689.952 1.36615 4.16991 0
M  V30 7133 H 686.77 0.323017 0.633389 0
M  V30 7134 H 689.372 1.43816 1.32428 0
M  V30 7135 H 688.076 2.51818 3.24062 0
M  V30 7136 H 687.607 0.914478 3.82624 0
M  V30 7137 H 689.622 0.340131 4.95033 0
M  V30 7138 N 688.795 -1.27931 0.920396 0
M  V30 7139 C 690.035 -1.96459 0.564198 0
M  V30 7140 C 690.399 -1.70802 -0.876967 0
M  V30 7141 O 691.6 -2.32956 -1.34107 0
M  V30 7142 C 689.871 -3.46583 0.872641 0
M  V30 7143 S 691.43 -4.34343 0.623859 0
M  V30 7144 H 688.248 -0.679735 0.208523 0
M  V30 7145 H 690.85 -1.55319 1.18727 0
M  V30 7146 H 689.554 -3.62753 1.91933 0
M  V30 7147 H 689.085 -3.92677 0.238479 0
M  V30 7148 H 691.1 -4.93449 -0.521744 0
M  V30 7149 N 690.273 -0.685099 -1.4193 0
M  V30 7150 C 691.519 -0.211971 -2.01689 0
M  V30 7151 C 691.852 1.18189 -1.54094 0
M  V30 7152 O 691.127 1.79559 -0.747572 0
M  V30 7153 C 691.41 -0.258019 -3.59174 0
M  V30 7154 C 691.263 -1.68807 -4.16922 0
M  V30 7155 C 692.582 0.388044 -4.38386 0
M  V30 7156 H 689.701 -0.0784987 -0.732808 0
M  V30 7157 H 692.343 -0.871837 -1.68816 0
M  V30 7158 H 690.493 0.303832 -3.8731 0
M  V30 7159 H 692.165 -2.30296 -3.99702 0
M  V30 7160 H 690.408 -2.22553 -3.72361 0
M  V30 7161 H 691.079 -1.6719 -5.26072 0
M  V30 7162 H 693.555 -0.0903432 -4.16002 0
M  V30 7163 H 692.431 0.325232 -5.47936 0
M  V30 7164 H 692.692 1.4672 -4.17044 0
M  V30 7165 N 691.751 1.51645 -0.429126 0
M  V30 7166 C 692.976 2.06917 0.141399 0
M  V30 7167 C 693.401 1.29527 1.36398 0
M  V30 7168 O 692.759 0.33094 1.78254 0
M  V30 7169 C 692.807 3.57776 0.4504 0
M  V30 7170 O 691.911 3.82639 1.53821 0
M  V30 7171 H 691.252 0.663978 0.0054647 0
M  V30 7172 H 693.782 1.95355 -0.608093 0
M  V30 7173 H 693.792 4.01894 0.703249 0
M  V30 7174 H 692.467 4.13532 -0.443213 0
M  V30 7175 H 691.044 3.5039 1.27597 0
M  V30 7176 N 693.229 0.160201 1.56784 0
M  V30 7177 C 694.477 -0.486625 1.96154 0
M  V30 7178 C 694.798 -1.64525 1.04673 0
M  V30 7179 O 694.068 -1.95586 0.110864 0
M  V30 7180 H 692.648 -0.182764 0.724297 0
M  V30 7181 H 695.31 0.238787 1.93432 0
M  V30 7182 H 694.406 -0.854025 3.00188 0
M  V30 7183 N 694.707 -1.5719 -0.113559 0
M  V30 7184 C 695.947 -1.86958 -0.82621 0
M  V30 7185 C 696.311 -0.748884 -1.76793 0
M  V30 7186 O 697.512 -0.92847 -2.52256 0
M  V30 7187 C 695.783 -3.21957 -1.55173 0
M  V30 7188 S 697.342 -3.73371 -2.3052 0
M  V30 7189 H 694.16 -0.655394 -0.275643 0
M  V30 7190 H 696.762 -1.95318 -0.0842684 0
M  V30 7191 H 695.466 -4.01459 -0.851977 0
M  V30 7192 H 694.997 -3.16688 -2.33393 0
M  V30 7193 H 697.012 -3.45308 -3.56338 0
M  V30 7194 N 696.185 0.383891 -1.52853 0
M  V30 7195 C 697.433 1.12619 -1.67814 0
M  V30 7196 C 697.754 1.90354 -0.423141 0
M  V30 7197 O 697.024 1.87649 0.562554 0
M  V30 7198 H 695.604 0.418738 -0.618601 0
M  V30 7199 H 698.266 0.43495 -1.89985 0
M  V30 7200 H 697.362 1.82624 -2.5309 0
M  V30 7201 N 697.663 1.43903 0.642637 0
M  V30 7202 C 698.573 1.52349 1.78401 0
M  V30 7203 C 699.589 0.409869 1.69104 0
M  V30 7204 O 700.765 0.665548 1.90085 0
M  V30 7205 C 697.83 1.45408 3.14734 0
M  V30 7206 C 696.891 2.67528 3.35749 0
M  V30 7207 C 696.124 2.60909 4.65577 0
M  V30 7208 O 696.347 1.6627 5.45628 0
M  V30 7209 O 695.281 3.5158 4.88544 0
M  V30 7210 H 699.107 2.48752 1.7423 0
M  V30 7211 H 696.692 1.26021 0.802439 0
M  V30 7212 H 698.574 1.44019 3.96026 0
M  V30 7213 H 697.249 0.521437 3.19473 0
M  V30 7214 H 696.156 2.74487 2.5418 0
M  V30 7215 H 697.489 3.598 3.35864 0
M  V30 7216 N 699.141 -0.881989 1.30609 0
M  V30 7217 C 700.39 -1.62878 1.18969 0
M  V30 7218 C 700.703 -1.93946 -0.253859 0
M  V30 7219 O 701.909 -2.67008 -0.491813 0
M  V30 7220 C 700.365 -2.93573 2.0819 0
M  V30 7221 C 699.973 -2.70034 3.57471 0
M  V30 7222 C 701.717 -3.71543 2.0532 0
M  V30 7223 C 699.624 -3.96563 4.38739 0
M  V30 7224 H 698.554 -0.611092 0.441682 0
M  V30 7225 H 701.205 -0.976201 1.55379 0
M  V30 7226 H 699.587 -3.6014 1.64666 0
M  V30 7227 H 700.761 -2.11949 4.09163 0
M  V30 7228 H 699.076 -2.05435 3.62195 0
M  V30 7229 H 701.673 -4.65386 2.63288 0
M  V30 7230 H 702.016 -4.03167 1.03739 0
M  V30 7231 H 702.549 -3.11842 2.46981 0
M  V30 7232 H 699.288 -3.70095 5.41027 0
M  V30 7233 H 698.808 -4.54142 3.9181 0
M  V30 7234 H 700.487 -4.64557 4.50329 0
M  V30 7235 N 700.619 -1.13374 -1.09472 0
M  V30 7236 C 701.566 -0.810682 -2.16094 0
M  V30 7237 C 702.536 0.227003 -1.64541 0
M  V30 7238 O 703.721 0.0993538 -1.90541 0
M  V30 7239 C 700.861 -0.282336 -3.43943 0
M  V30 7240 C 699.974 -1.37902 -4.09398 0
M  V30 7241 C 699.109 -0.809066 -5.25002 0
M  V30 7242 C 698.148 -1.88419 -5.82379 0
M  V30 7243 N 697.285 -1.33221 -6.89345 0
M  V30 7244 H 702.125 -1.72397 -2.43071 0
M  V30 7245 H 699.662 -0.860564 -1.19301 0
M  V30 7246 H 701.62 0.0421189 -4.17179 0
M  V30 7247 H 700.25 0.594083 -3.17286 0
M  V30 7248 H 699.302 -1.82008 -3.34032 0
M  V30 7249 H 700.614 -2.19161 -4.48074 0
M  V30 7250 H 699.768 -0.435867 -6.05132 0
M  V30 7251 H 698.507 0.0346058 -4.87688 0
M  V30 7252 H 697.512 -2.26646 -5.00911 0
M  V30 7253 H 698.737 -2.73125 -6.21755 0
M  V30 7254 H 696.683 -0.510535 -6.5401 0
M  V30 7255 H 696.6 -2.08129 -7.26786 0
M  V30 7256 H 697.868 -0.986565 -7.73232 0
M  V30 7257 N 702.098 1.27442 -0.927168 0
M  V30 7258 C 703.347 1.93679 -0.563146 0
M  V30 7259 C 703.66 1.73673 0.899837 0
M  V30 7260 O 704.866 2.34247 1.37262 0
M  V30 7261 C 703.322 3.46961 -0.95636 0
M  V30 7262 C 702.93 3.75724 -2.43999 0
M  V30 7263 C 704.674 4.19282 -0.663565 0
M  V30 7264 C 702.581 5.22378 -2.77263 0
M  V30 7265 H 701.511 0.725059 -0.206894 0
M  V30 7266 H 704.162 1.44743 -1.12791 0
M  V30 7267 H 702.544 3.94703 -0.320254 0
M  V30 7268 H 703.718 3.38741 -3.12396 0
M  V30 7269 H 702.033 3.16605 -2.70463 0
M  V30 7270 H 704.63 5.27265 -0.888596 0
M  V30 7271 H 704.973 4.14382 0.399198 0
M  V30 7272 H 705.506 3.7736 -1.25875 0
M  V30 7273 H 702.245 5.32367 -3.82446 0
M  V30 7274 H 701.765 5.6051 -2.13516 0
M  V30 7275 H 703.444 5.9025 -2.64979 0
M  V30 7276 N 703.576 0.692616 1.41565 0
M  V30 7277 C 704.524 0.0139952 2.32596 0
M  V30 7278 C 705.518 -0.771691 1.50802 0
M  V30 7279 O 706.724 -0.677646 1.66757 0
M  V30 7280 H 703.099 -0.0142745 0.751865 0
M  V30 7281 H 705.07 0.798851 2.87508 0
M  V30 7282 C 703.819 -0.910602 3.35564 0
M  V30 7283 H 703.142 -0.315446 3.98554 0
M  V30 7284 H 704.582 -1.3538 4.01806 0
M  V30 7285 C 703.041 -2.02539 2.6922 0
M  V30 7286 O 703.571 -3.11386 2.53775 0
M  V30 7287 N 701.777 -1.80227 2.27962 0
M  V30 7288 H 701.324 -0.917054 2.40724 0
M  V30 7289 H 701.282 -2.55001 1.83907 0
M  V30 7290 N 705.054 -1.51416 0.437162 0
M  V30 7291 C 705.964 -2.31493 -0.380537 0
M  V30 7292 C 706.98 -1.40399 -1.02782 0
M  V30 7293 O 708.156 -1.73471 -1.02323 0
M  V30 7294 C 705.221 -3.1413 -1.46709 0
M  V30 7295 C 704.282 -4.21003 -0.839953 0
M  V30 7296 C 703.515 -4.9969 -1.87473 0
M  V30 7297 O 703.738 -4.79008 -3.09689 0
M  V30 7298 O 702.672 -5.8379 -1.46536 0
M  V30 7299 H 706.498 -3.02469 0.273183 0
M  V30 7300 H 704.083 -1.48059 0.199706 0
M  V30 7301 H 705.965 -3.65505 -2.09724 0
M  V30 7302 H 704.64 -2.45919 -2.10489 0
M  V30 7303 H 703.547 -3.73706 -0.171752 0
M  V30 7304 H 704.88 -4.91587 -0.245638 0
M  V30 7305 N 706.532 -0.168513 -1.56696 0
M  V30 7306 C 707.442 0.775435 -2.21414 0
M  V30 7307 C 708.458 1.25529 -1.20492 0
M  V30 7308 O 709.634 1.30801 -1.53144 0
M  V30 7309 C 706.699 1.9886 -2.83999 0
M  V30 7310 C 705.76 1.5559 -4.00113 0
M  V30 7311 C 704.993 2.71124 -4.59704 0
M  V30 7312 O 705.216 3.87917 -4.18182 0
M  V30 7313 O 704.15 2.4536 -5.4962 0
M  V30 7314 H 707.976 0.254416 -3.02632 0
M  V30 7315 H 705.561 0.0595507 -1.49281 0
M  V30 7316 H 707.443 2.69816 -3.23693 0
M  V30 7317 H 706.118 2.49874 -2.05779 0
M  V30 7318 H 705.025 0.815924 -3.65094 0
M  V30 7319 H 706.358 1.09271 -4.79917 0
M  V30 7320 N 708.01 1.57248 0.105221 0
M  V30 7321 C 708.973 2.00388 1.11252 0
M  V30 7322 C 709.973 0.89594 1.33527 0
M  V30 7323 O 711.163 1.16166 1.29811 0
M  V30 7324 C 708.295 2.35589 2.46395 0
M  V30 7325 H 709.488 2.90591 0.741424 0
M  V30 7326 H 707.041 1.52332 0.349956 0
M  V30 7327 H 707.776 1.4831 2.884 0
M  V30 7328 H 707.561 3.16408 2.31578 0
M  V30 7329 H 709.051 2.69658 3.18864 0
M  V30 7330 N 709.488 -0.375779 1.53054 0
M  V30 7331 C 710.435 -1.45978 1.78771 0
M  V30 7332 C 711.405 -1.53625 0.631552 0
M  V30 7333 O 712.59 -1.69674 0.872667 0
M  V30 7334 C 709.73 -2.8305 1.97425 0
M  V30 7335 C 708.843 -2.84451 3.25134 0
M  V30 7336 C 707.978 -4.13034 3.34031 0
M  V30 7337 C 707.017 -4.08536 4.55812 0
M  V30 7338 N 706.154 -5.2875 4.61918 0
M  V30 7339 H 710.994 -1.23349 2.71273 0
M  V30 7340 H 708.531 -0.598147 1.3439 0
M  V30 7341 H 710.489 -3.62666 2.06225 0
M  V30 7342 H 709.119 -3.04101 1.0827 0
M  V30 7343 H 708.171 -1.97127 3.25338 0
M  V30 7344 H 709.483 -2.76998 4.14818 0
M  V30 7345 H 708.637 -5.0106 3.42087 0
M  V30 7346 H 707.376 -4.23226 2.42345 0
M  V30 7347 H 706.381 -3.18897 4.47867 0
M  V30 7348 H 707.606 -3.99955 5.48828 0
M  V30 7349 H 705.552 -5.39547 3.73129 0
M  V30 7350 H 705.469 -5.23426 5.45492 0
M  V30 7351 H 706.737 -6.18637 4.74245 0
M  V30 7352 N 710.966 -1.44241 -0.634997 0
M  V30 7353 C 712.194 -1.50296 -1.42193 0
M  V30 7354 C 712.609 -0.12658 -1.88375 0
M  V30 7355 O 711.966 0.86678 -1.60603 0
M  V30 7356 C 712.017 -2.46437 -2.64482 0
M  V30 7357 O 711.738 -3.78724 -2.20226 0
M  V30 7358 C 713.239 -2.61918 -3.57651 0
M  V30 7359 H 710.459 -0.509865 -0.43621 0
M  V30 7360 H 713.003 -1.89167 -0.776921 0
M  V30 7361 H 711.158 -2.10712 -3.25083 0
M  V30 7362 H 711.572 -4.30595 -2.9948 0
M  V30 7363 H 713.046 -3.33225 -4.40074 0
M  V30 7364 H 713.523 -1.67017 -4.06204 0
M  V30 7365 H 714.129 -2.98528 -3.02921 0
M  V30 7366 N 712.444 0.87505 -1.31075 0
M  V30 7367 C 713.691 1.62768 -1.20469 0
M  V30 7368 C 714.019 1.93034 0.23834 0
M  V30 7369 O 713.274 1.55693 1.18567 0
M  V30 7370 C 713.573 2.96948 -1.98888 0
M  V30 7371 C 713.239 2.86195 -3.4843 0
M  V30 7372 C 711.901 2.82969 -3.89207 0
M  V30 7373 C 714.253 2.73599 -4.43614 0
M  V30 7374 C 711.581 2.64999 -5.23443 0
M  V30 7375 C 713.933 2.57166 -5.77969 0
M  V30 7376 C 712.597 2.52321 -6.17973 0
M  V30 7377 H 711.867 0.595611 -0.440827 0
M  V30 7378 H 714.514 1.01665 -1.62285 0
M  V30 7379 H 712.819 3.62058 -1.49737 0
M  V30 7380 H 714.516 3.54164 -1.88067 0
M  V30 7381 H 711.106 2.8952 -3.16032 0
M  V30 7382 H 715.29 2.7515 -4.13045 0
M  V30 7383 H 710.546 2.5967 -5.53517 0
M  V30 7384 H 714.72 2.46396 -6.51354 0
M  V30 7385 H 712.347 2.38156 -7.21932 0
M  V30 7386 N 713.922 1.13953 1.08869 0
M  V30 7387 C 714.832 0.835666 2.19212 0
M  V30 7388 C 715.848 -0.182005 1.73045 0
M  V30 7389 O 717.024 -0.0116661 2.01397 0
M  V30 7390 C 714.089 0.312325 3.4529 0
M  V30 7391 C 713.15 1.39196 4.06107 0
M  V30 7392 C 712.383 0.893496 5.26168 0
M  V30 7393 O 712.606 -0.266807 5.69776 0
M  V30 7394 O 711.54 1.67037 5.78258 0
M  V30 7395 H 715.366 1.75769 2.47667 0
M  V30 7396 H 712.951 0.917421 1.17914 0
M  V30 7397 H 714.833 0.0261582 4.21392 0
M  V30 7398 H 713.508 -0.582042 3.18424 0
M  V30 7399 H 712.415 1.73152 3.31616 0
M  V30 7400 H 713.748 2.26068 4.37212 0
M  V30 7401 N 715.4 -1.26948 0.933913 0
M  V30 7402 C 716.33 -2.29017 0.45534 0
M  V30 7403 C 717.311 -1.62961 -0.487605 0
M  V30 7404 O 718.496 -1.90223 -0.391022 0
M  V30 7405 C 715.626 -3.46112 -0.287015 0
M  V30 7406 C 714.58 -4.24205 0.568682 0
M  V30 7407 C 713.906 -5.3384 -0.303206 0
M  V30 7408 C 715.206 -4.88954 1.83633 0
M  V30 7409 H 716.9 -2.69298 1.30839 0
M  V30 7410 H 714.446 -1.29459 0.630579 0
M  V30 7411 H 716.399 -4.16622 -0.6328 0
M  V30 7412 H 715.123 -3.04765 -1.17414 0
M  V30 7413 H 713.782 -3.5545 0.897261 0
M  V30 7414 H 713.43 -4.88734 -1.18947 0
M  V30 7415 H 713.13 -5.86998 0.265879 0
M  V30 7416 H 714.654 -6.0719 -0.644423 0
M  V30 7417 H 716.068 -5.51717 1.55823 0
M  V30 7418 H 714.465 -5.52198 2.34941 0
M  V30 7419 H 715.535 -4.12305 2.55211 0
M  V30 7420 N 716.879 -0.700114 -1.41195 0
M  V30 7421 C 718.127 -0.232546 -2.00758 0
M  V30 7422 C 718.448 1.1734 -1.55745 0
M  V30 7423 O 717.718 1.79262 -0.790058 0
M  V30 7424 H 716.298 -0.0829845 -0.742376 0
M  V30 7425 H 718.96 -0.902289 -1.72756 0
M  V30 7426 H 718.056 -0.253521 -3.11069 0
M  V30 7427 N 718.357 1.51182 -0.445186 0
M  V30 7428 C 719.605 2.01753 0.11841 0
M  V30 7429 C 719.926 1.33087 1.42523 0
M  V30 7430 O 719.196 0.467891 1.9023 0
M  V30 7431 H 717.776 0.745536 0.0467492 0
M  V30 7432 H 720.438 1.85765 -0.589688 0
M  V30 7433 H 719.534 3.10762 0.288665 0
M  V30 7434 N 719.835 0.176821 1.56605 0
M  V30 7435 C 720.785 -0.763718 2.14829 0
M  V30 7436 C 721.769 -1.18903 1.08401 0
M  V30 7437 O 722.961 -1.15048 1.3451 0
M  V30 7438 C 720.09 -1.99069 2.7969 0
M  V30 7439 C 719.176 -1.58711 3.93283 0
M  V30 7440 N 719.567 -0.893423 4.97847 0
M  V30 7441 C 717.865 -1.87774 4.04545 0
M  V30 7442 C 718.566 -0.693866 5.77547 0
M  V30 7443 N 717.542 -1.23699 5.29339 0
M  V30 7444 H 721.344 -0.224811 2.93039 0
M  V30 7445 H 718.858 -0.0236563 1.62383 0
M  V30 7446 H 720.855 -2.67478 3.19783 0
M  V30 7447 H 719.515 -2.53449 2.02962 0
M  V30 7448 H 720.526 -0.550868 5.14962 0
M  V30 7449 H 717.203 -2.43793 3.38927 0
M  V30 7450 H 718.593 -0.144899 6.71744 0
M  V30 7451 N 721.313 -1.57302 -0.09688 0
M  V30 7452 C 722.541 -1.90202 -0.814295 0
M  V30 7453 C 722.956 -0.770344 -1.72369 0
M  V30 7454 O 722.313 0.257764 -1.8067 0
M  V30 7455 C 722.364 -3.22708 -1.62916 0
M  V30 7456 O 722.085 -4.31522 -0.756343 0
M  V30 7457 C 723.586 -3.69459 -2.44979 0
M  V30 7458 H 720.806 -0.629275 -0.232925 0
M  V30 7459 H 723.35 -2.04364 -0.0746482 0
M  V30 7460 H 721.505 -3.1015 -2.32133 0
M  V30 7461 H 721.919 -5.07604 -1.32054 0
M  V30 7462 H 723.393 -4.64875 -2.9765 0
M  V30 7463 H 723.87 -2.97211 -3.23361 0
M  V30 7464 H 724.476 -3.84879 -1.80964 0
M  V30 7465 N 722.791 0.367657 -1.53252 0
M  V30 7466 C 724.038 1.11052 -1.69333 0
M  V30 7467 C 724.366 1.89363 -0.444064 0
M  V30 7468 O 723.621 1.87094 0.573953 0
M  V30 7469 C 723.92 2.09825 -2.89324 0
M  V30 7470 C 723.586 1.4801 -4.25915 0
M  V30 7471 C 722.248 1.30879 -4.6306 0
M  V30 7472 C 724.6 1.03268 -5.10867 0
M  V30 7473 C 721.928 0.675868 -5.82794 0
M  V30 7474 C 724.28 0.41377 -6.31245 0
M  V30 7475 C 722.944 0.229939 -6.67104 0
M  V30 7476 H 722.214 0.406367 -0.619634 0
M  V30 7477 H 724.861 0.392558 -1.87433 0
M  V30 7478 H 723.166 2.87917 -2.65728 0
M  V30 7479 H 724.863 2.67252 -2.98961 0
M  V30 7480 H 721.453 1.62336 -3.96667 0
M  V30 7481 H 725.637 1.15297 -4.82722 0
M  V30 7482 H 720.893 0.521833 -6.09169 0
M  V30 7483 H 725.067 0.0588768 -6.96375 0
M  V30 7484 H 722.694 -0.262562 -7.59746 0
M  V30 7485 N 724.269 1.44576 0.627338 0
M  V30 7486 C 725.232 1.51372 1.72102 0
M  V30 7487 C 726.232 0.395329 1.55865 0
M  V30 7488 O 727.422 0.658094 1.61291 0
M  V30 7489 C 724.554 1.39129 3.11217 0
M  V30 7490 H 725.747 2.48798 1.6745 0
M  V30 7491 H 723.3 1.31724 0.841336 0
M  V30 7492 H 724.035 0.428114 3.21462 0
M  V30 7493 H 723.82 2.20229 3.24409 0
M  V30 7494 H 725.31 1.46874 3.90919 0
M  V30 7495 N 725.747 -0.868086 1.31537 0
M  V30 7496 C 726.657 -2.00801 1.21311 0
M  V30 7497 C 727.673 -1.73518 0.129431 0
M  V30 7498 O 728.849 -1.98378 0.347588 0
M  V30 7499 C 725.914 -3.3419 0.922935 0
M  V30 7500 C 724.975 -3.74783 2.0937 0
M  V30 7501 C 724.208 -5.01807 1.81728 0
M  V30 7502 O 724.431 -5.65404 0.753313 0
M  V30 7503 O 723.365 -5.39213 2.67457 0
M  V30 7504 H 727.191 -2.12361 2.17109 0
M  V30 7505 H 724.776 -0.996684 1.11295 0
M  V30 7506 H 726.658 -4.14174 0.777033 0
M  V30 7507 H 725.333 -3.237 -0.00500301 0
M  V30 7508 H 724.24 -2.95432 2.29501 0
M  V30 7509 H 725.573 -3.89902 3.00396 0
M  V30 7510 N 727.225 -1.14528 -1.08264 0
M  V30 7511 C 728.473 -0.912599 -1.80322 0
M  V30 7512 C 728.794 0.562256 -1.86718 0
M  V30 7513 O 728.064 1.40869 -1.36135 0
M  V30 7514 H 726.644 -0.334645 -0.667849 0
M  V30 7515 H 729.306 -1.44415 -1.30883 0
M  V30 7516 H 728.402 -1.31384 -2.83098 0
M  V30 7517 N 728.703 1.26451 -0.940633 0
M  V30 7518 C 729.98 1.88947 -0.505811 0
M  V30 7519 C 730.36 1.85011 1.01657 0
M  V30 7520 O 729.708 1.30406 1.87634 0
M  V30 7521 C 729.918 3.32304 -1.06654 0
M  V30 7522 C 731.266 4.09153 -1.13486 0
M  V30 7523 O 732.29 3.41371 -1.01708 0
M  V30 7524 O 731.149 5.30369 -1.31797 0
M  V30 7525 H 728.243 0.810422 -0.164759 0
M  V30 7526 H 730.789 1.34625 -1.03316 0
M  V30 7527 H 729.561 3.29527 -2.11015 0
M  V30 7528 H 729.184 3.94164 -0.521603 0
M  V30 7529 N 730.181 0.707592 1.40822 0
M  V30 7530 C 731.411 0.252706 2.05049 0
M  V30 7531 C 731.819 -1.10758 1.53393 0
M  V30 7532 O 731.162 -1.70567 0.682097 0
M  V30 7533 C 731.224 0.146001 3.59203 0
M  V30 7534 C 730.888 1.44027 4.33711 0
M  V30 7535 C 731.885 2.38058 4.62195 0
M  V30 7536 C 729.57 1.69698 4.72766 0
M  V30 7537 C 731.564 3.56013 5.28709 0
M  V30 7538 C 729.251 2.87936 5.39014 0
M  V30 7539 C 730.249 3.80915 5.66915 0
M  V30 7540 O 729.937 4.9708 6.31796 0
M  V30 7541 H 729.669 0.112784 0.666525 0
M  V30 7542 H 732.223 0.96417 1.81364 0
M  V30 7543 H 730.453 -0.621338 3.81676 0
M  V30 7544 H 732.142 -0.273275 4.04979 0
M  V30 7545 H 732.908 2.19487 4.32493 0
M  V30 7546 H 728.787 0.981835 4.50423 0
M  V30 7547 H 732.331 4.28604 5.50404 0
M  V30 7548 H 728.228 3.06419 5.68135 0
M  V30 7549 H 728.996 4.97053 6.50293 0
M  V30 7550 N 731.66 -1.50943 0.453197 0
M  V30 7551 C 732.909 -2.01402 -0.10951 0
M  V30 7552 C 733.222 -1.3411 -1.42386 0
M  V30 7553 O 734.428 -1.75626 -2.07045 0
M  V30 7554 C 732.884 -3.5906 -0.245693 0
M  V30 7555 C 732.492 -4.353 1.05916 0
M  V30 7556 C 734.236 -4.17617 -0.761318 0
M  V30 7557 C 732.143 -5.84699 0.887752 0
M  V30 7558 H 731.073 -0.752674 -0.0447013 0
M  V30 7559 H 733.724 -1.73913 0.585375 0
M  V30 7560 H 732.106 -3.83062 -1.00395 0
M  V30 7561 H 733.28 -4.23034 1.82698 0
M  V30 7562 H 731.595 -3.88269 1.50452 0
M  V30 7563 H 734.192 -5.26963 -0.906306 0
M  V30 7564 H 734.535 -3.77824 -1.74799 0
M  V30 7565 H 735.068 -3.97753 -0.0609416 0
M  V30 7566 H 731.807 -6.28933 1.84726 0
M  V30 7567 H 731.327 -5.99587 0.160006 0
M  V30 7568 H 733.006 -6.44682 0.547223 0
M  V30 7569 N 733.138 -0.185124 -1.56509 0
M  V30 7570 C 734.363 0.465278 -2.02114 0
M  V30 7571 C 734.788 1.55083 -1.06447 0
M  V30 7572 O 734.146 1.81241 -0.0462852 0
M  V30 7573 C 734.194 1.00784 -3.46229 0
M  V30 7574 O 733.298 2.12123 -3.53663 0
M  V30 7575 H 732.639 0.109891 -0.654843 0
M  V30 7576 H 735.169 -0.293072 -2.0249 0
M  V30 7577 H 735.179 1.32697 -3.85818 0
M  V30 7578 H 733.854 0.213113 -4.15354 0
M  V30 7579 H 732.431 1.8115 -3.25943 0
M  V30 7580 N 734.616 1.57351 0.0885366 0
M  V30 7581 C 735.546 2.05561 1.10757 0
M  V30 7582 C 736.527 0.945789 1.41382 0
M  V30 7583 O 737.712 1.21747 1.51299 0
M  V30 7584 C 734.842 2.48554 2.42566 0
M  V30 7585 C 733.796 3.63259 2.26334 0
M  V30 7586 C 733.122 3.9225 3.63378 0
M  V30 7587 C 734.422 4.93913 1.69844 0
M  V30 7588 H 736.116 2.90946 0.706468 0
M  V30 7589 H 733.662 1.39968 0.338385 0
M  V30 7590 H 735.615 2.8089 3.14132 0
M  V30 7591 H 734.339 1.60176 2.84625 0
M  V30 7592 H 732.998 3.31179 1.57213 0
M  V30 7593 H 732.646 3.0103 4.02976 0
M  V30 7594 H 732.346 4.69478 3.53362 0
M  V30 7595 H 733.87 4.27067 4.36401 0
M  V30 7596 H 735.284 5.24588 2.31258 0
M  V30 7597 H 733.681 5.75349 1.70569 0
M  V30 7598 H 734.751 4.80409 0.65843 0
M  V30 7599 N 736.094 -0.359525 1.53444 0
M  V30 7600 C 737.371 -1.11756 1.6053 0
M  V30 7601 C 737.751 -2.06949 0.416587 0
M  V30 7602 O 737.099 -2.20681 -0.592628 0
M  V30 7603 C 737.309 -1.85133 2.95849 0
M  V30 7604 C 738.657 -2.3945 3.50641 0
M  V30 7605 O 739.681 -1.95251 2.97918 0
M  V30 7606 O 738.54 -3.20266 4.42823 0
M  V30 7607 H 735.634 -0.513005 0.648656 0
M  V30 7608 H 738.18 -0.362301 1.65787 0
M  V30 7609 H 736.952 -1.15694 3.73806 0
M  V30 7610 H 736.575 -2.67554 2.9411 0
M  V30 7611 N 737.572 -1.44907 -0.619662 0
M  V30 7612 C 738.82 -1.47999 -1.37625 0
M  V30 7613 C 739.141 -0.118295 -1.94641 0
M  V30 7614 O 738.411 0.85086 -1.76457 0
M  V30 7615 H 736.991 -0.544993 -0.510873 0
M  V30 7616 H 739.653 -1.80772 -0.728522 0
M  V30 7617 H 738.749 -2.21196 -2.20179 0
M  V30 7618 N 739.05 0.861098 -1.31996 0
M  V30 7619 C 740.275 1.65264 -1.2531 0
M  V30 7620 C 740.7 1.87265 0.177007 0
M  V30 7621 O 740.058 1.4208 1.12619 0
M  V30 7622 C 740.106 2.99284 -2.0115 0
M  V30 7623 O 739.21 3.89508 -1.3549 0
M  V30 7624 H 738.551 0.50409 -0.432192 0
M  V30 7625 H 741.081 1.07297 -1.74208 0
M  V30 7626 H 741.091 3.49154 -2.11081 0
M  V30 7627 H 739.766 2.82591 -3.05148 0
M  V30 7628 H 738.343 3.47966 -1.34066 0
M  V30 7629 N 740.528 1.15101 1.07655 0
M  V30 7630 C 741.756 0.947731 1.83918 0
M  V30 7631 C 742.171 -0.503927 1.81951 0
M  V30 7632 O 741.528 -1.34941 1.2287 0
M  V30 7633 C 741.579 1.4503 3.31132 0
M  V30 7634 O 741.3 2.84508 3.33146 0
M  V30 7635 C 742.801 1.28806 4.24174 0
M  V30 7636 H 740.021 0.336786 0.580358 0
M  V30 7637 H 742.565 1.52799 1.35914 0
M  V30 7638 H 740.72 0.912632 3.76497 0
M  V30 7639 H 741.134 3.0723 4.251 0
M  V30 7640 H 742.608 1.6882 5.25551 0
M  V30 7641 H 743.085 0.231851 4.38588 0
M  V30 7642 H 743.691 1.81465 3.84643 0
M  V30 7643 N 742.006 -1.2595 0.947325 0
M  V30 7644 C 743.254 -1.93081 0.596996 0
M  V30 7645 C 743.575 -1.74632 -0.867672 0
M  V30 7646 O 742.845 -1.1056 -1.6172 0
M  V30 7647 H 741.425 -0.714542 0.217805 0
M  V30 7648 H 744.087 -1.53265 1.20398 0
M  V30 7649 H 743.183 -3.01134 0.82004 0
M  V30 7650 N 743.484 -0.715051 -1.40445 0
M  V30 7651 C 744.431 -0.0621393 -2.30716 0
M  V30 7652 C 745.401 0.750871 -1.48159 0
M  V30 7653 O 746.586 0.714928 -1.76899 0
M  V30 7654 C 743.726 0.854036 -3.34365 0
M  V30 7655 C 742.839 0.0305565 -4.31989 0
M  V30 7656 C 741.974 0.946162 -5.22706 0
M  V30 7657 C 741.013 0.116741 -6.11989 0
M  V30 7658 N 740.15 0.987194 -6.95125 0
M  V30 7659 H 744.99 -0.83764 -2.85985 0
M  V30 7660 H 742.527 -0.424759 -1.40834 0
M  V30 7661 H 744.485 1.39946 -3.93028 0
M  V30 7662 H 743.115 1.59572 -2.806 0
M  V30 7663 H 742.167 -0.632044 -3.75112 0
M  V30 7664 H 743.479 -0.611615 -4.95036 0
M  V30 7665 H 742.633 1.56014 -5.86297 0
M  V30 7666 H 741.372 1.62216 -4.59932 0
M  V30 7667 H 740.377 -0.510176 -5.47428 0
M  V30 7668 H 741.602 -0.555742 -6.76822 0
M  V30 7669 H 739.548 1.64885 -6.3494 0
M  V30 7670 H 739.465 0.401046 -7.54936 0
M  V30 7671 H 740.733 1.58737 -7.63166 0
M  V30 7672 N 744.962 1.50701 -0.461195 0
M  V30 7673 C 746.211 2.01458 0.0988277 0
M  V30 7674 C 746.524 1.34863 1.41673 0
M  V30 7675 O 747.73 1.76721 2.06111 0
M  V30 7676 C 746.186 3.59186 0.226648 0
M  V30 7677 C 745.794 4.34732 -1.08223 0
M  V30 7678 C 747.538 4.18015 0.73916 0
M  V30 7679 C 745.445 5.8422 -0.918747 0
M  V30 7680 H 744.375 0.7529 0.040709 0
M  V30 7681 H 747.026 1.736 -0.594589 0
M  V30 7682 H 745.408 3.83589 0.983621 0
M  V30 7683 H 746.582 4.22059 -1.84939 0
M  V30 7684 H 744.897 3.87466 -1.52509 0
M  V30 7685 H 747.494 5.27436 0.878347 0
M  V30 7686 H 747.837 3.78746 1.72793 0
M  V30 7687 H 748.37 3.9778 0.0398469 0
M  V30 7688 H 745.109 6.27944 -1.88059 0
M  V30 7689 H 744.629 5.99493 -0.191801 0
M  V30 7690 H 746.308 6.44382 -0.581405 0
M  V30 7691 N 746.441 0.193421 1.56409 0
M  V30 7692 C 747.671 -0.450783 2.01622 0
M  V30 7693 C 748.079 -1.5585 1.07273 0
M  V30 7694 O 747.422 -1.83569 0.0694875 0
M  V30 7695 C 747.484 -1.06913 3.43235 0
M  V30 7696 C 747.148 -0.100352 4.5689 0
M  V30 7697 C 748.145 0.689633 5.15306 0
M  V30 7698 C 745.83 0.0102436 5.02299 0
M  V30 7699 C 747.824 1.5772 6.17579 0
M  V30 7700 C 745.511 0.901368 6.04416 0
M  V30 7701 C 746.509 1.68341 6.61929 0
M  V30 7702 O 746.197 2.5596 7.62063 0
M  V30 7703 H 745.929 -0.117671 0.66568 0
M  V30 7704 H 748.483 0.2989 2.03214 0
M  V30 7705 H 746.713 -1.86736 3.38624 0
M  V30 7706 H 748.402 -1.61781 3.72266 0
M  V30 7707 H 749.168 0.614485 4.81092 0
M  V30 7708 H 745.047 -0.58829 4.57231 0
M  V30 7709 H 748.591 2.18805 6.62397 0
M  V30 7710 H 744.488 0.977637 6.38054 0
M  V30 7711 H 745.256 2.49721 7.79475 0
M  V30 7712 N 747.919 -1.57396 -0.0801906 0
M  V30 7713 C 748.866 -2.03107 -1.09618 0
M  V30 7714 C 749.836 -0.910118 -1.38946 0
M  V30 7715 O 751.021 -1.17719 -1.50156 0
M  V30 7716 C 748.161 -2.47293 -2.40708 0
M  V30 7717 C 747.274 -3.72972 -2.17982 0
M  V30 7718 C 746.409 -4.05975 -3.42576 0
M  V30 7719 C 745.448 -5.24719 -3.15177 0
M  V30 7720 N 744.585 -5.53401 -4.32078 0
M  V30 7721 H 749.425 -2.89677 -0.69939 0
M  V30 7722 H 746.962 -1.43263 -0.333785 0
M  V30 7723 H 748.92 -2.7096 -3.17232 0
M  V30 7724 H 747.55 -1.63713 -2.78205 0
M  V30 7725 H 746.602 -3.56693 -1.32189 0
M  V30 7726 H 747.914 -4.59638 -1.93738 0
M  V30 7727 H 747.068 -4.30498 -4.275 0
M  V30 7728 H 745.807 -3.17859 -3.69887 0
M  V30 7729 H 744.812 -5 -2.28648 0
M  V30 7730 H 746.037 -6.14445 -2.89197 0
M  V30 7731 H 743.983 -4.68245 -4.59437 0
M  V30 7732 H 743.9 -6.34469 -4.11078 0
M  V30 7733 H 745.168 -5.8247 -5.18024 0
M  V30 7734 N 749.397 0.351382 -1.53633 0
M  V30 7735 C 750.645 1.09034 -1.70165 0
M  V30 7736 C 750.966 1.89413 -0.463422 0
M  V30 7737 O 750.236 1.888 0.522624 0
M  V30 7738 H 748.816 0.405522 -0.627344 0
M  V30 7739 H 751.478 0.394554 -1.90865 0
M  V30 7740 H 750.574 1.77215 -2.56907 0
M  V30 7741 N 750.875 1.45233 0.611969 0
M  V30 7742 C 752.152 1.39495 1.37115 0
M  V30 7743 C 752.532 0.0633303 2.11005 0
M  V30 7744 O 751.88 -0.954617 2.07604 0
M  V30 7745 C 752.09 2.60579 2.32163 0
M  V30 7746 C 753.438 3.05477 2.94905 0
M  V30 7747 O 754.462 2.60921 2.42485 0
M  V30 7748 O 753.321 3.82787 3.90047 0
M  V30 7749 H 750.415 0.55335 0.614599 0
M  V30 7750 H 752.961 1.57355 0.635423 0
M  V30 7751 H 751.733 3.49085 1.76793 0
M  V30 7752 H 751.356 2.45031 3.13122 0
M  V30 7753 N 752.353 -0.854086 1.3245 0
M  V30 7754 C 753.602 -1.60318 1.22397 0
M  V30 7755 C 753.915 -1.9444 -0.212664 0
M  V30 7756 O 755.121 -2.67991 -0.435066 0
M  V30 7757 C 753.577 -2.8909 2.1437 0
M  V30 7758 C 753.185 -2.62391 3.63119 0
M  V30 7759 C 754.929 -3.67104 2.13155 0
M  V30 7760 C 752.836 -3.87167 4.47052 0
M  V30 7761 H 751.766 -0.601586 0.454544 0
M  V30 7762 H 754.417 -0.943023 1.57415 0
M  V30 7763 H 752.799 -3.56567 1.72268 0
M  V30 7764 H 753.973 -2.03222 4.13567 0
M  V30 7765 H 752.288 -1.97706 3.66471 0
M  V30 7766 H 754.885 -4.59696 2.731 0
M  V30 7767 H 755.228 -4.00876 1.12268 0
M  V30 7768 H 755.761 -3.06533 2.5354 0
M  V30 7769 H 752.5 -3.58536 5.48755 0
M  V30 7770 H 752.02 -4.45729 4.01355 0
M  V30 7771 H 753.699 -4.549 4.60081 0
M  V30 7772 N 753.831 -1.1567 -1.07043 0
M  V30 7773 C 754.741 -0.870435 -2.17855 0
M  V30 7774 C 755.757 0.154452 -1.73313 0
M  V30 7775 O 756.933 -0.0203759 -2.0139 0
M  V30 7776 C 753.998 -0.367219 -3.4475 0
M  V30 7777 C 753.059 -1.45639 -4.03841 0
M  V30 7778 C 752.292 -0.977092 -5.2468 0
M  V30 7779 O 752.515 0.176127 -5.70128 0
M  V30 7780 O 751.449 -1.76215 -5.75527 0
M  V30 7781 H 755.275 -1.79687 -2.44839 0
M  V30 7782 H 752.86 -0.936064 -1.1644 0
M  V30 7783 H 754.742 -0.0931947 -4.21297 0
M  V30 7784 H 753.417 0.53131 -3.1931 0
M  V30 7785 H 752.324 -1.78406 -3.28819 0
M  V30 7786 H 753.657 -2.32995 -4.3356 0
M  V30 7787 N 755.309 1.25446 -0.953992 0
M  V30 7788 C 756.537 1.97215 -0.625595 0
M  V30 7789 C 756.952 1.70911 0.802168 0
M  V30 7790 O 756.309 0.984782 1.5365 0
M  V30 7791 C 756.36 3.50777 -0.873943 0
M  V30 7792 O 756.081 3.76173 -2.24556 0
M  V30 7793 C 757.582 4.39776 -0.557845 0
M  V30 7794 H 754.802 0.628652 -0.2346 0
M  V30 7795 H 757.346 1.59632 -1.27819 0
M  V30 7796 H 755.501 3.86474 -0.267765 0
M  V30 7797 H 755.915 4.70636 -2.31522 0
M  V30 7798 H 757.389 5.46431 -0.782157 0
M  V30 7799 H 757.866 4.36257 0.507573 0
M  V30 7800 H 758.472 4.09644 -1.14332 0
M  V30 7801 N 756.787 0.722489 1.40064 0
M  V30 7802 C 757.719 0.0349057 2.29173 0
M  V30 7803 C 758.732 -0.716571 1.46182 0
M  V30 7804 O 759.921 -0.562806 1.69395 0
M  V30 7805 C 757.021 -0.974839 3.24577 0
M  V30 7806 C 756.194 -0.287471 4.36454 0
M  V30 7807 C 755.253 -1.20356 5.12251 0
M  V30 7808 O 754.279 -0.685753 5.65054 0
M  V30 7809 N 755.481 -2.53422 5.22262 0
M  V30 7810 H 758.246 0.800058 2.88824 0
M  V30 7811 H 755.807 0.57068 1.51509 0
M  V30 7812 H 757.799 -1.59002 3.72157 0
M  V30 7813 H 756.369 -1.6413 2.66046 0
M  V30 7814 H 755.589 0.508008 3.90913 0
M  V30 7815 H 756.877 0.189382 5.08447 0
M  V30 7816 H 756.275 -2.97981 4.80857 0
M  V30 7817 H 754.832 -3.10067 5.73325 0
M  V30 7818 N 758.265 -1.50454 0.469181 0
M  V30 7819 C 759.175 -2.32248 -0.331349 0
M  V30 7820 C 760.191 -1.42548 -0.997807 0
M  V30 7821 O 761.367 -1.75602 -0.9862 0
M  V30 7822 C 758.432 -3.17171 -1.40012 0
M  V30 7823 C 757.493 -4.2269 -0.750463 0
M  V30 7824 C 756.726 -5.03554 -1.76831 0
M  V30 7825 O 756.949 -4.85469 -2.99459 0
M  V30 7826 O 755.883 -5.86767 -1.3412 0
M  V30 7827 H 759.709 -3.01821 0.337279 0
M  V30 7828 H 757.294 -1.47602 0.231066 0
M  V30 7829 H 759.176 -3.69871 -2.01924 0
M  V30 7830 H 757.851 -2.50328 -2.05226 0
M  V30 7831 H 756.758 -3.73986 -0.0924446 0
M  V30 7832 H 758.091 -4.91997 -0.14131 0
M  V30 7833 N 759.743 -0.201713 -1.56304 0
M  V30 7834 C 760.706 0.702811 -2.18159 0
M  V30 7835 C 761.706 1.13619 -1.13787 0
M  V30 7836 O 762.896 1.0482 -1.39134 0
M  V30 7837 C 760.028 1.96032 -2.78898 0
M  V30 7838 H 761.221 0.163836 -2.99452 0
M  V30 7839 H 758.774 0.04791 -1.56227 0
M  V30 7840 H 759.509 2.54165 -2.01421 0
M  V30 7841 H 759.294 1.65824 -3.55309 0
M  V30 7842 H 760.784 2.60519 -3.26373 0
M  V30 7843 N 761.222 1.57436 0.0718424 0
M  V30 7844 C 762.447 1.91858 0.787745 0
M  V30 7845 C 762.872 0.798119 1.70328 0
M  V30 7846 O 762.23 -0.24905 1.79581 0
M  V30 7847 C 762.278 3.25232 1.55744 0
M  V30 7848 O 761.382 3.14462 2.6681 0
M  V30 7849 H 760.723 0.628258 0.214914 0
M  V30 7850 H 763.253 2.04561 0.0401012 0
M  V30 7851 H 763.263 3.59105 1.9367 0
M  V30 7852 H 761.938 4.0636 0.885691 0
M  V30 7853 H 760.515 2.92148 2.31741 0
M  V30 7854 N 762.7 -0.34323 1.53817 0
M  V30 7855 C 763.946 -1.08504 1.71332 0
M  V30 7856 C 764.279 -1.88294 0.475285 0
M  V30 7857 O 763.554 -1.87205 -0.527688 0
M  V30 7858 C 763.837 -2.02597 2.97702 0
M  V30 7859 C 763.69 -1.26268 4.31713 0
M  V30 7860 C 765.009 -3.0241 3.19744 0
M  V30 7861 H 762.128 -0.393072 0.623429 0
M  V30 7862 H 764.77 -0.363579 1.86489 0
M  V30 7863 H 762.92 -2.64118 2.8491 0
M  V30 7864 H 764.592 -0.673594 4.56356 0
M  V30 7865 H 762.835 -0.564696 4.30109 0
M  V30 7866 H 763.506 -1.95253 5.16314 0
M  V30 7867 H 765.982 -2.51004 3.31868 0
M  V30 7868 H 764.858 -3.65449 4.09558 0
M  V30 7869 H 765.119 -3.73806 2.36054 0
M  V30 7870 N 764.178 -1.45556 -0.604258 0
M  V30 7871 C 765.403 -1.53509 -1.39462 0
M  V30 7872 C 765.828 -0.169638 -1.87333 0
M  V30 7873 O 765.186 0.846346 -1.60333 0
M  V30 7874 C 765.234 -2.52654 -2.5729 0
M  V30 7875 O 764.338 -2.04666 -3.5803 0
M  V30 7876 H 763.679 -0.517355 -0.416221 0
M  V30 7877 H 766.209 -1.90939 -0.735072 0
M  V30 7878 H 766.219 -2.71568 -3.04491 0
M  V30 7879 H 764.894 -3.51823 -2.21797 0
M  V30 7880 H 763.471 -1.95643 -3.17456 0
M  V30 7881 N 765.656 0.84705 -1.32902 0
M  V30 7882 C 766.904 1.5986 -1.2365 0
M  V30 7883 C 767.225 1.93974 0.199789 0
M  V30 7884 O 766.495 1.60273 1.12648 0
M  V30 7885 H 765.075 0.592696 -0.454665 0
M  V30 7886 H 767.737 1.01278 -1.66519 0
M  V30 7887 H 766.833 2.53218 -1.82448 0
M  V30 7888 N 767.134 1.16236 1.06428 0
M  V30 7889 C 768.359 0.967688 1.83441 0
M  V30 7890 C 768.784 -0.479167 1.81894 0
M  V30 7891 O 768.142 -1.34224 1.21875 0
M  V30 7892 C 768.19 1.49806 3.2801 0
M  V30 7893 O 767.294 0.703481 4.06356 0
M  V30 7894 H 766.635 0.344468 0.56766 0
M  V30 7895 H 769.165 1.54442 1.34197 0
M  V30 7896 H 769.175 1.51495 3.78831 0
M  V30 7897 H 767.85 2.55133 3.2845 0
M  V30 7898 H 766.427 0.756986 3.65136 0
M  V30 7899 N 768.612 -1.24939 0.960631 0
M  V30 7900 C 769.859 -1.92818 0.618663 0
M  V30 7901 C 770.187 -1.75177 -0.845173 0
M  V30 7902 O 769.442 -1.09412 -1.62258 0
M  V30 7903 C 769.741 -3.45066 0.930809 0
M  V30 7904 C 769.407 -3.82869 2.38164 0
M  V30 7905 C 768.069 -3.92899 2.7782 0
M  V30 7906 C 770.421 -4.01483 3.32356 0
M  V30 7907 C 767.749 -4.18955 4.10723 0
M  V30 7908 C 770.101 -4.29033 4.6488 0
M  V30 7909 C 768.765 -4.37282 5.04322 0
M  V30 7910 H 768.035 -0.705571 0.226385 0
M  V30 7911 H 770.682 -1.48365 1.21079 0
M  V30 7912 H 768.987 -3.9096 0.256355 0
M  V30 7913 H 770.684 -3.95783 0.644712 0
M  V30 7914 H 767.274 -3.75622 2.06413 0
M  V30 7915 H 771.458 -3.93143 3.02907 0
M  V30 7916 H 766.714 -4.23558 4.40918 0
M  V30 7917 H 770.888 -4.42381 5.3784 0
M  V30 7918 H 768.515 -4.57225 6.0733 0
M  V30 7919 N 770.09 -0.729906 -1.39679 0
M  V30 7920 C 771 -0.0880322 -2.34435 0
M  V30 7921 C 772.016 0.727674 -1.58053 0
M  V30 7922 O 773.192 0.657321 -1.90371 0
M  V30 7923 C 770.257 0.812211 -3.37052 0
M  V30 7924 C 769.318 -0.0151681 -4.29297 0
M  V30 7925 C 768.551 0.842202 -5.27013 0
M  V30 7926 O 768.774 2.08108 -5.31081 0
M  V30 7927 O 767.708 0.27357 -6.01278 0
M  V30 7928 H 771.534 -0.869989 -2.90972 0
M  V30 7929 H 769.119 -0.490522 -1.41118 0
M  V30 7930 H 771.001 1.32745 -3.99946 0
M  V30 7931 H 769.676 1.57307 -2.82907 0
M  V30 7932 H 768.583 -0.575811 -3.69642 0
M  V30 7933 H 769.916 -0.738129 -4.86634 0
M  V30 7934 N 771.568 1.50203 -0.477153 0
M  V30 7935 C 772.984 1.59056 -0.131663 0
M  V30 7936 C 773.184 1.48473 1.36227 0
M  V30 7937 O 772.24 1.34635 2.13611 0
M  V30 7938 C 773.553 2.92741 -0.687254 0
M  V30 7939 C 775.101 3.0615 -0.651223 0
M  V30 7940 C 775.576 4.42419 -1.18446 0
M  V30 7941 N 777.067 4.48847 -1.14413 0
M  V30 7942 C 777.802 5.52689 -1.52717 0
M  V30 7943 N 777.298 6.63754 -1.98499 0
M  V30 7944 N 779.091 5.43267 -1.44282 0
M  V30 7945 H 771.242 1.55325 -1.44872 0
M  V30 7946 H 773.505 0.734395 -0.599473 0
M  V30 7947 H 773.211 3.0598 -1.73405 0
M  V30 7948 H 773.085 3.76961 -0.134215 0
M  V30 7949 H 775.472 2.92556 0.386677 0
M  V30 7950 H 775.553 2.23673 -1.24114 0
M  V30 7951 H 775.197 4.56763 -2.22103 0
M  V30 7952 H 775.127 5.23498 -0.570709 0
M  V30 7953 H 777.618 3.69152 -0.808416 0
M  V30 7954 H 777.931 7.39059 -2.25859 0
M  V30 7955 H 776.276 6.64858 -2.02456 0
M  V30 7956 H 779.467 4.55387 -1.08352 0
M  V30 7957 H 779.64 6.24074 -1.74459 0
M  V30 7958 N 773.046 0.209999 1.56195 0
M  V30 7959 C 774.295 -0.425106 1.97169 0
M  V30 7960 C 774.608 -1.61718 1.10031 0
M  V30 7961 O 775.814 -2.32105 1.40853 0
M  V30 7962 C 774.27 -0.80771 3.50719 0
M  V30 7963 C 773.878 0.360902 4.46544 0
M  V30 7964 C 775.622 -1.40906 4.00432 0
M  V30 7965 C 773.529 -0.0434919 5.91384 0
M  V30 7966 H 772.459 -0.162598 0.736259 0
M  V30 7967 H 775.11 0.304382 1.80958 0
M  V30 7968 H 773.492 -1.59429 3.62489 0
M  V30 7969 H 774.666 1.13846 4.46515 0
M  V30 7970 H 772.981 0.874729 4.07109 0
M  V30 7971 H 775.578 -1.72433 5.06133 0
M  V30 7972 H 775.921 -2.32081 3.45607 0
M  V30 7973 H 776.454 -0.686154 3.91838 0
M  V30 7974 H 773.193 0.834448 6.50167 0
M  V30 7975 H 772.713 -0.785598 5.94633 0
M  V30 7976 H 774.392 -0.474176 6.4526 0
M  V30 7977 N 774.524 -1.57472 -0.0634922 0
M  V30 7978 C 775.457 -1.99571 -1.10664 0
M  V30 7979 C 776.435 -0.874015 -1.37112 0
M  V30 7980 O 777.619 -1.13702 -1.50347 0
M  V30 7981 C 774.746 -2.3395 -2.44918 0
M  V30 7982 C 773.792 -3.56213 -2.34551 0
M  V30 7983 S 774.625 -5.06727 -1.73169 0
M  V30 7984 C 775.781 -5.44316 -3.08984 0
M  V30 7985 H 776.014 -2.87739 -0.747905 0
M  V30 7986 H 773.547 -1.5198 -0.272316 0
M  V30 7987 H 775.505 -2.54431 -3.22141 0
M  V30 7988 H 774.166 -1.46297 -2.7795 0
M  V30 7989 H 773.359 -3.77812 -3.33578 0
M  V30 7990 H 772.961 -3.35406 -1.65466 0
M  V30 7991 H 775.253 -5.42894 -4.05305 0
M  V30 7992 H 776.196 -6.4502 -2.92156 0
M  V30 7993 H 776.604 -4.71781 -3.09972 0
M  V30 7994 N 776.003 0.335068 -1.53997 0
M  V30 7995 C 777.249 1.07594 -1.71905 0
M  V30 7996 C 777.582 1.88039 -0.485264 0
M  V30 7997 O 776.857 1.87482 0.517752 0
M  V30 7998 C 777.14 2.01016 -2.98772 0
M  V30 7999 C 776.993 1.23977 -4.32377 0
M  V30 8000 C 778.312 3.0071 -3.21343 0
M  V30 8001 H 775.431 0.38976 -0.625505 0
M  V30 8002 H 778.073 0.353684 -1.86679 0
M  V30 8003 H 776.223 2.62603 -2.86307 0
M  V30 8004 H 777.895 0.649383 -4.56706 0
M  V30 8005 H 776.138 0.541878 -4.30402 0
M  V30 8006 H 776.809 1.92512 -5.17342 0
M  V30 8007 H 779.285 2.4924 -3.33194 0
M  V30 8008 H 778.161 3.63272 -4.11491 0
M  V30 8009 H 778.422 3.72549 -2.38033 0
M  V30 8010 N 777.481 1.45874 0.596531 0
M  V30 8011 C 778.727 1.51679 1.35518 0
M  V30 8012 C 779.082 0.160681 1.91728 0
M  V30 8013 O 778.375 -0.828886 1.72743 0
M  V30 8014 C 778.569 2.54034 2.51399 0
M  V30 8015 C 778.398 3.99465 2.06538 0
M  V30 8016 C 777.168 4.67321 1.92196 0
M  V30 8017 C 779.366 4.87674 1.63336 0
M  V30 8018 N 777.348 5.97427 1.41261 0
M  V30 8019 C 778.719 6.07495 1.23895 0
M  V30 8020 C 780.774 4.74442 1.51028 0
M  V30 8021 C 779.477 7.15548 0.733739 0
M  V30 8022 C 781.503 5.82553 1.0191 0
M  V30 8023 C 780.865 7.01537 0.634403 0
M  V30 8024 H 776.964 0.609933 0.489393 0
M  V30 8025 H 779.548 1.82411 0.680746 0
M  V30 8026 H 777.719 2.25235 3.16424 0
M  V30 8027 H 779.451 2.49918 3.18313 0
M  V30 8028 H 776.206 4.22635 2.1372 0
M  V30 8029 H 776.63 6.66638 1.17995 0
M  V30 8030 H 781.272 3.82855 1.79393 0
M  V30 8031 H 778.99 8.06914 0.437656 0
M  V30 8032 H 782.576 5.74352 0.927977 0
M  V30 8033 H 781.456 7.83768 0.26019 0
M  V30 8034 N 778.959 -0.83999 1.33349 0
M  V30 8035 C 779.922 -1.93128 1.23426 0
M  V30 8036 C 780.922 -1.60065 0.153599 0
M  V30 8037 O 782.112 -1.69425 0.405049 0
M  V30 8038 C 779.244 -3.28761 0.901622 0
M  V30 8039 H 780.437 -2.03352 2.20427 0
M  V30 8040 H 777.99 -1.03194 1.17391 0
M  V30 8041 H 778.725 -3.24233 -0.0659337 0
M  V30 8042 H 778.51 -3.54138 1.68311 0
M  V30 8043 H 780 -4.08714 0.856913 0
M  V30 8044 N 780.437 -1.16799 -1.0581 0
M  V30 8045 C 781.714 -0.862616 -1.75551 0
M  V30 8046 C 782.094 0.6385 -2.01212 0
M  V30 8047 O 781.442 1.58784 -1.64317 0
M  V30 8048 C 781.652 -1.6907 -3.05314 0
M  V30 8049 C 783 -1.90675 -3.79379 0
M  V30 8050 O 784.024 -1.65976 -3.15167 0
M  V30 8051 O 782.883 -2.32145 -4.94743 0
M  V30 8052 H 779.977 -0.318789 -0.763088 0
M  V30 8053 H 782.523 -1.27461 -1.12034 0
M  V30 8054 H 781.295 -2.70912 -2.82352 0
M  V30 8055 H 780.918 -1.27606 -3.76567 0
M  V30 8056 N 781.915 1.24427 -0.967243 0
M  V30 8057 C 782.862 2.25398 -0.496419 0
M  V30 8058 C 783.832 1.59667 0.457781 0
M  V30 8059 O 785.017 1.87213 0.368246 0
M  V30 8060 C 782.157 3.44474 0.207693 0
M  V30 8061 C 781.27 4.24804 -0.785221 0
M  V30 8062 C 780.405 5.31169 -0.0572631 0
M  V30 8063 C 779.444 6.03195 -1.04027 0
M  V30 8064 N 778.581 7.01265 -0.34235 0
M  V30 8065 H 783.421 2.65039 -1.36229 0
M  V30 8066 H 780.958 1.30288 -0.682902 0
M  V30 8067 H 782.916 4.12376 0.632612 0
M  V30 8068 H 781.546 3.05672 1.03752 0
M  V30 8069 H 780.598 3.56445 -1.32858 0
M  V30 8070 H 781.91 4.74599 -1.53483 0
M  V30 8071 H 781.064 6.05205 0.425674 0
M  V30 8072 H 779.803 4.8228 0.725047 0
M  V30 8073 H 778.808 5.27964 -1.53409 0
M  V30 8074 H 780.033 6.54173 -1.82302 0
M  V30 8075 H 777.979 6.54648 0.420993 0
M  V30 8076 H 777.896 7.48939 -1.03084 0
M  V30 8077 H 779.164 7.7941 0.118634 0
M  V30 8078 N 783.393 0.737304 1.3929 0
M  V30 8079 C 784.64 0.286257 2.00467 0
M  V30 8080 C 784.968 -1.1272 1.58507 0
M  V30 8081 O 784.223 -1.7832 0.806257 0
M  V30 8082 C 784.522 0.338438 3.55794 0
M  V30 8083 C 784.188 1.70524 4.17411 0
M  V30 8084 C 782.85 2.07934 4.33955 0
M  V30 8085 C 785.202 2.60256 4.51571 0
M  V30 8086 C 782.53 3.34578 4.81948 0
M  V30 8087 C 784.882 3.86275 5.00974 0
M  V30 8088 C 783.546 4.23774 5.15725 0
M  V30 8089 H 782.816 0.104749 0.733559 0
M  V30 8090 H 785.463 0.944598 1.66582 0
M  V30 8091 H 783.768 -0.403478 3.89717 0
M  V30 8092 H 785.465 -0.0287255 4.0099 0
M  V30 8093 H 782.055 1.40439 4.04938 0
M  V30 8094 H 786.239 2.32624 4.38406 0
M  V30 8095 H 781.495 3.63572 4.91554 0
M  V30 8096 H 785.669 4.5596 5.26378 0
M  V30 8097 H 783.296 5.21972 5.52674 0
M  V30 8098 N 784.871 -1.49948 0.485112 0
M  V30 8099 C 786.287 -1.58984 0.140096 0
M  V30 8100 C 786.487 -1.49194 -1.35438 0
M  V30 8101 O 785.543 -1.35765 -2.12894 0
M  V30 8102 C 786.856 -2.92372 0.702769 0
M  V30 8103 C 788.404 -3.05801 0.66745 0
M  V30 8104 C 788.879 -4.41785 1.20791 0
M  V30 8105 N 790.37 -4.48234 1.16792 0
M  V30 8106 C 791.105 -5.51871 1.55646 0
M  V30 8107 N 790.601 -6.62692 2.02016 0
M  V30 8108 N 792.394 -5.42494 1.47161 0
M  V30 8109 H 784.545 -1.54555 1.45693 0
M  V30 8110 H 786.808 -0.731206 0.603359 0
M  V30 8111 H 786.514 -3.05056 1.75025 0
M  V30 8112 H 786.388 -3.76885 0.154205 0
M  V30 8113 H 788.775 -2.92757 -0.371157 0
M  V30 8114 H 788.856 -2.23011 1.25298 0
M  V30 8115 H 788.5 -4.55579 2.24522 0
M  V30 8116 H 788.43 -5.23188 0.598464 0
M  V30 8117 H 790.921 -3.68718 0.827982 0
M  V30 8118 H 791.234 -7.3785 2.29775 0
M  V30 8119 H 789.579 -6.63775 2.05979 0
M  V30 8120 H 792.77 -4.54806 1.10765 0
M  V30 8121 H 792.943 -6.2314 1.77766 0
M  V30 8122 N 786.349 -0.21828 -1.56081 0
M  V30 8123 C 787.577 0.419258 -2.02608 0
M  V30 8124 C 787.992 1.53578 -1.09814 0
M  V30 8125 O 787.349 1.82185 -0.107149 0
M  V30 8126 C 787.4 0.953955 -3.48686 0
M  V30 8127 O 787.121 -0.11805 -4.37941 0
M  V30 8128 C 788.622 1.66506 -4.10841 0
M  V30 8129 H 785.842 0.10296 -0.663054 0
M  V30 8130 H 788.386 -0.333776 -2.01758 0
M  V30 8131 H 786.541 1.65727 -3.50162 0
M  V30 8132 H 786.955 0.283359 -5.23734 0
M  V30 8133 H 788.429 1.99123 -5.14834 0
M  V30 8134 H 788.906 2.57705 -3.55647 0
M  V30 8135 H 789.512 1.00703 -4.13206 0
M  V30 8136 N 787.827 1.57504 0.0551401 0
M  V30 8137 C 788.757 2.07864 1.06372 0
M  V30 8138 C 789.738 0.975565 1.39344 0
M  V30 8139 O 790.923 1.24929 1.48682 0
M  V30 8140 C 788.053 2.53643 2.3724 0
M  V30 8141 C 787.007 3.67978 2.18578 0
M  V30 8142 C 786.333 3.9987 3.54976 0
M  V30 8143 C 787.633 4.97405 1.59329 0
M  V30 8144 H 789.327 2.92379 0.644595 0
M  V30 8145 H 786.873 1.40654 0.308619 0
M  V30 8146 H 788.826 2.8749 3.08103 0
M  V30 8147 H 787.55 1.66177 2.81163 0
M  V30 8148 H 786.209 3.3444 1.50152 0
M  V30 8149 H 785.857 3.0951 3.965 0
M  V30 8150 H 785.557 4.76867 3.43324 0
M  V30 8151 H 787.081 4.36228 4.27244 0
M  V30 8152 H 788.495 5.29375 2.20078 0
M  V30 8153 H 786.892 5.78837 1.58327 0
M  V30 8154 H 787.962 4.81697 0.55638 0
M  V30 8155 N 789.305 -0.326896 1.54172 0
M  V30 8156 C 790.252 -1.40216 1.83325 0
M  V30 8157 C 791.222 -1.51538 0.680107 0
M  V30 8158 O 792.407 -1.66811 0.926206 0
M  V30 8159 C 789.547 -2.76626 2.0633 0
M  V30 8160 C 788.66 -2.73963 3.34019 0
M  V30 8161 C 787.795 -4.02198 3.47002 0
M  V30 8162 C 786.834 -3.93828 4.68578 0
M  V30 8163 N 785.971 -5.13787 4.78506 0
M  V30 8164 H 790.811 -1.14656 2.7506 0
M  V30 8165 H 788.348 -0.555089 1.36225 0
M  V30 8166 H 790.306 -3.55922 2.17659 0
M  V30 8167 H 788.936 -3.00503 1.1789 0
M  V30 8168 H 787.988 -1.86677 3.31445 0
M  V30 8169 H 789.3 -2.6366 4.2342 0
M  V30 8170 H 788.454 -4.89923 3.57855 0
M  V30 8171 H 787.193 -4.15302 2.55687 0
M  V30 8172 H 786.198 -3.04487 4.57786 0
M  V30 8173 H 787.423 -3.82292 5.61275 0
M  V30 8174 H 785.369 -5.27403 3.90105 0
M  V30 8175 H 785.286 -5.05807 5.61868 0
M  V30 8176 H 786.554 -6.03236 4.93686 0
M  V30 8177 N 790.784 -1.46188 -0.588786 0
M  V30 8178 C 792.03 -1.51407 -1.34921 0
M  V30 8179 C 792.363 -0.162771 -1.93517 0
M  V30 8180 O 791.638 0.825082 -1.76132 0
M  V30 8181 C 791.921 -2.60795 -2.48311 0
M  V30 8182 C 791.774 -4.05435 -1.94789 0
M  V30 8183 C 793.093 -2.66313 -3.50379 0
M  V30 8184 H 790.212 -0.551213 -0.489217 0
M  V30 8185 H 792.854 -1.78095 -0.661993 0
M  V30 8186 H 791.004 -2.3817 -3.06932 0
M  V30 8187 H 792.676 -4.39328 -1.40672 0
M  V30 8188 H 790.919 -4.15202 -1.25659 0
M  V30 8189 H 791.59 -4.77691 -2.76613 0
M  V30 8190 H 794.066 -2.86634 -3.01629 0
M  V30 8191 H 792.942 -3.44681 -4.27184 0
M  V30 8192 H 793.203 -1.72127 -4.07216 0
M  V30 8193 N 792.262 0.832906 -1.33792 0
M  V30 8194 C 793.678 1.1245 -1.13257 0
M  V30 8195 C 793.878 2.01369 0.0725832 0
M  V30 8196 O 792.934 2.41071 0.751082 0
M  V30 8197 C 794.247 1.78084 -2.42294 0
M  V30 8198 C 795.795 1.90624 -2.48257 0
M  V30 8199 C 796.27 2.59673 -3.77271 0
M  V30 8200 N 797.761 2.67181 -3.78376 0
M  V30 8201 C 798.496 3.21313 -4.74916 0
M  V30 8202 N 797.992 3.76086 -5.81835 0
M  V30 8203 N 799.785 3.19621 -4.62384 0
M  V30 8204 H 791.936 0.241244 -2.11026 0
M  V30 8205 H 794.199 0.169557 -0.932713 0
M  V30 8206 H 793.905 1.20209 -3.30519 0
M  V30 8207 H 793.779 2.78049 -2.5489 0
M  V30 8208 H 796.166 2.4765 -1.60478 0
M  V30 8209 H 796.247 0.89591 -2.39598 0
M  V30 8210 H 795.891 2.03304 -4.65435 0
M  V30 8211 H 795.821 3.61189 -3.8321 0
M  V30 8212 H 798.312 2.28346 -3.01108 0
M  V30 8213 H 798.625 4.15612 -6.51526 0
M  V30 8214 H 796.97 3.74357 -5.85561 0
M  V30 8215 H 800.161 2.76091 -3.7801 0
M  V30 8216 H 800.334 3.61504 -5.37791 0
M  V30 8217 N 793.74 1.17359 1.05189 0
M  V30 8218 C 794.968 0.986529 1.81866 0
M  V30 8219 C 795.383 -0.46522 1.82979 0
M  V30 8220 O 794.74 -1.32305 1.25705 0
M  V30 8221 C 794.791 1.52021 3.27982 0
M  V30 8222 O 794.512 2.91511 3.27037 0
M  V30 8223 C 796.013 1.37774 4.21347 0
M  V30 8224 H 793.233 0.349021 0.573084 0
M  V30 8225 H 795.777 1.55648 1.32643 0
M  V30 8226 H 793.932 0.992287 3.74476 0
M  V30 8227 H 794.346 3.16178 4.18488 0
M  V30 8228 H 795.82 1.7993 5.21852 0
M  V30 8229 H 796.297 0.32483 4.37997 0
M  V30 8230 H 796.903 1.89583 3.80708 0
M  V30 8231 N 795.218 -1.23913 0.973828 0
M  V30 8232 C 796.166 -2.27141 0.50098 0
M  V30 8233 C 797.16 -1.63623 -0.438631 0
M  V30 8234 O 798.366 -1.77253 -0.313247 0
M  V30 8235 H 794.741 -0.73817 0.14356 0
M  V30 8236 H 796.712 -2.64392 1.38346 0
M  V30 8237 C 795.461 -3.47195 -0.187377 0
M  V30 8238 H 794.784 -3.96318 0.526535 0
M  V30 8239 H 796.224 -4.21252 -0.481962 0
M  V30 8240 C 794.683 -3.05678 -1.41642 0
M  V30 8241 O 795.213 -3.1338 -2.51309 0
M  V30 8242 N 793.419 -2.60661 -1.28469 0
M  V30 8243 H 792.966 -2.54594 -0.39238 0
M  V30 8244 H 792.924 -2.33249 -2.10813 0
M  V30 8245 N 796.696 -0.74468 -1.38897 0
M  V30 8246 C 797.659 -0.11945 -2.28889 0
M  V30 8247 C 798.659 0.656942 -1.46768 0
M  V30 8248 O 799.849 0.484525 -1.67326 0
M  V30 8249 C 796.981 0.839635 -3.30398 0
M  V30 8250 H 798.174 -0.912414 -2.85683 0
M  V30 8251 H 795.727 -0.511119 -1.47707 0
M  V30 8252 H 796.462 1.6586 -2.78677 0
M  V30 8253 H 796.247 0.285432 -3.9106 0
M  V30 8254 H 797.737 1.27337 -3.97712 0
M  V30 8255 N 798.174 1.49689 -0.493057 0
M  V30 8256 C 799.451 1.9525 0.116907 0
M  V30 8257 C 799.831 1.43429 1.54892 0
M  V30 8258 O 799.179 0.644621 2.19219 0
M  V30 8259 C 799.389 3.4898 0.037705 0
M  V30 8260 C 800.737 4.24052 0.215621 0
M  V30 8261 O 801.761 3.5602 0.113266 0
M  V30 8262 O 800.62 5.44847 0.42477 0
M  V30 8263 H 797.714 0.820973 0.099662 0
M  V30 8264 H 800.26 1.60367 -0.555029 0
M  V30 8265 H 799.032 3.79309 -0.961251 0
M  V30 8266 H 798.655 3.9046 0.750137 0
M  V30 8267 N 799.652 0.226554 1.55963 0
M  V30 8268 C 800.88 -0.408507 2.02827 0
M  V30 8269 C 801.295 -1.52994 1.10627 0
M  V30 8270 O 800.652 -1.82126 0.116809 0
M  V30 8271 C 800.703 -0.93545 3.49187 0
M  V30 8272 O 800.424 0.141273 4.37872 0
M  V30 8273 C 801.925 -1.64325 4.11719 0
M  V30 8274 H 799.145 -0.099442 0.66359 0
M  V30 8275 H 801.689 0.344471 2.01578 0
M  V30 8276 H 799.844 -1.63868 3.51036 0
M  V30 8277 H 800.258 -0.25558 5.23877 0
M  V30 8278 H 801.732 -1.9639 5.15883 0
M  V30 8279 H 802.209 -2.55815 3.57009 0
M  V30 8280 H 802.815 -0.9851 4.13734 0
M  V30 8281 N 801.13 -1.57531 -0.0467866 0
M  V30 8282 C 802.541 -1.76945 -0.595603 0
M  V30 8283 C 802.892 -0.855354 -1.76573 0
M  V30 8284 O 802.017 -0.045668 -2.16352 0
M  V30 8285 C 802.612 -3.20881 -1.08725 0
M  V30 8286 C 801.171 -3.41553 -1.58172 0
M  V30 8287 C 800.318 -2.72533 -0.511968 0
M  V30 8288 H 803.269 -1.57682 0.179436 0
M  V30 8289 H 803.29 -3.26419 -1.95528 0
M  V30 8290 H 802.802 -3.87385 -0.235398 0
M  V30 8291 H 800.903 -2.80199 -2.456 0
M  V30 8292 H 801.016 -4.50104 -1.64143 0
M  V30 8293 H 799.38 -2.35797 -0.962899 0
M  V30 8294 H 800.163 -3.41709 0.330117 0
M  V30 8295 N 802.608 0.318715 -1.54344 0
M  V30 8296 C 803.518 1.41535 -1.87097 0
M  V30 8297 C 804.534 1.56361 -0.763353 0
M  V30 8298 O 805.71 1.71365 -1.05811 0
M  V30 8299 C 802.775 2.76178 -2.09587 0
M  V30 8300 C 801.836 2.70486 -3.3337 0
M  V30 8301 C 801.069 3.98708 -3.54778 0
M  V30 8302 O 801.292 4.9721 -2.79532 0
M  V30 8303 O 800.226 4.01674 -4.48266 0
M  V30 8304 H 804.052 1.16764 -2.80357 0
M  V30 8305 H 801.637 0.51318 -1.4031 0
M  V30 8306 H 803.519 3.55873 -2.25682 0
M  V30 8307 H 802.194 3.00829 -1.19514 0
M  V30 8308 H 801.101 1.89325 -3.22656 0
M  V30 8309 H 802.434 2.50789 -4.23516 0
M  V30 8310 N 804.086 1.46499 0.581025 0
M  V30 8311 C 805.363 1.42372 1.34125 0
M  V30 8312 C 805.743 0.108073 2.10823 0
M  V30 8313 O 805.091 -0.910366 2.09582 0
M  V30 8314 C 805.301 2.65445 2.26583 0
M  V30 8315 C 806.649 3.11664 2.88359 0
M  V30 8316 O 807.673 2.66006 2.36896 0
M  V30 8317 O 806.532 3.90974 3.81839 0
M  V30 8318 H 803.626 0.566262 0.602724 0
M  V30 8319 H 806.172 1.58667 0.601903 0
M  V30 8320 H 804.944 3.52756 1.69348 0
M  V30 8321 H 804.567 2.51618 3.07854 0
M  V30 8322 N 805.565 -0.825799 1.34232 0
M  V30 8323 C 806.793 -1.61363 1.29497 0
M  V30 8324 C 807.208 -1.88341 -0.131536 0
M  V30 8325 O 806.565 -1.47279 -1.07773 0
M  V30 8326 C 806.616 -2.95623 2.08061 0
M  V30 8327 O 806.337 -2.69824 3.45147 0
M  V30 8328 C 807.838 -3.90032 2.10688 0
M  V30 8329 H 805.058 -0.501676 0.445603 0
M  V30 8330 H 807.602 -1.02767 1.76803 0
M  V30 8331 H 805.757 -3.50785 1.64404 0
M  V30 8332 H 806.171 -3.55412 3.85723 0
M  V30 8333 H 807.645 -4.81411 2.70087 0
M  V30 8334 H 808.122 -4.25188 1.10052 0
M  V30 8335 H 808.728 -3.40807 2.54422 0
M  V30 8336 N 807.043 -1.17915 -1.04565 0
M  V30 8337 C 807.973 -0.925033 -2.14395 0
M  V30 8338 C 808.954 0.135375 -1.6956 0
M  V30 8339 O 810.139 -0.0161774 -1.94193 0
M  V30 8340 C 807.269 -0.444469 -3.44444 0
M  V30 8341 C 806.223 -1.44478 -4.02877 0
M  V30 8342 C 805.549 -0.821933 -5.28345 0
M  V30 8343 C 806.849 -2.81995 -4.39632 0
M  V30 8344 H 808.543 -1.84354 -2.35911 0
M  V30 8345 H 806.089 -0.887806 -1.13375 0
M  V30 8346 H 808.042 -0.254078 -4.20633 0
M  V30 8347 H 806.766 0.509592 -3.226 0
M  V30 8348 H 805.425 -1.62203 -3.28764 0
M  V30 8349 H 805.073 0.139161 -5.02807 0
M  V30 8350 H 804.773 -1.48976 -5.68401 0
M  V30 8351 H 806.297 -0.641959 -6.07216 0
M  V30 8352 H 807.711 -2.67952 -5.06828 0
M  V30 8353 H 806.108 -3.45414 -4.90723 0
M  V30 8354 H 807.178 -3.35927 -3.49687 0
M  V30 8355 N 808.521 1.23394 -0.980386 0
M  V30 8356 C 809.469 2.26872 -0.513018 0
M  V30 8357 C 810.463 1.63853 0.429948 0
M  V30 8358 O 811.669 1.77417 0.303842 0
M  V30 8359 H 808.044 0.737398 -0.147473 0
M  V30 8360 H 810.015 2.63654 -1.39746 0
M  V30 8361 C 808.764 3.47289 0.168962 0
M  V30 8362 H 808.087 3.96033 -0.547546 0
M  V30 8363 H 809.527 4.21502 0.459616 0
M  V30 8364 C 807.986 3.06425 1.40019 0
M  V30 8365 O 808.516 3.14708 2.49643 0
M  V30 8366 N 806.722 2.61339 1.27084 0
M  V30 8367 H 806.269 2.54799 0.378872 0
M  V30 8368 H 806.227 2.34364 2.09573 0
M  V30 8369 N 809.999 0.752036 1.385 0
M  V30 8370 C 810.962 0.131587 2.28822 0
M  V30 8371 C 811.962 -0.649149 1.47115 0
M  V30 8372 O 813.152 -0.475645 1.67581 0
M  V30 8373 C 810.284 -0.822101 3.30839 0
M  V30 8374 H 811.477 0.927551 2.85196 0
M  V30 8375 H 809.03 0.518945 1.47434 0
M  V30 8376 H 809.765 -1.6438 2.79553 0
M  V30 8377 H 809.55 -0.264689 3.91206 0
M  V30 8378 H 811.04 -1.25226 3.98382 0
M  V30 8379 N 811.477 -1.49425 0.500989 0
M  V30 8380 C 812.723 -2.02753 -0.0436 0
M  V30 8381 C 813.056 -1.37991 -1.36646 0
M  V30 8382 O 812.331 -0.515597 -1.87542 0
M  V30 8383 C 812.614 -3.59565 -0.19616 0
M  V30 8384 C 812.467 -4.34855 1.14982 0
M  V30 8385 C 813.786 -4.30014 -0.936795 0
M  V30 8386 H 810.905 -0.73686 -0.0143711 0
M  V30 8387 H 813.547 -1.78448 0.652397 0
M  V30 8388 H 811.697 -3.80405 -0.788959 0
M  V30 8389 H 813.369 -4.25512 1.7815 0
M  V30 8390 H 811.612 -3.97414 1.73911 0
M  V30 8391 H 812.283 -5.42933 0.996385 0
M  V30 8392 H 814.759 -4.1383 -0.434036 0
M  V30 8393 H 813.635 -5.39483 -1.01238 0
M  V30 8394 H 813.896 -3.95257 -1.9805 0
M  V30 8395 N 812.955 -0.234822 -1.55841 0
M  V30 8396 C 813.902 0.6698 -2.20867 0
M  V30 8397 C 814.872 1.18042 -1.16856 0
M  V30 8398 O 816.057 1.23709 -1.45261 0
M  V30 8399 C 813.197 1.86646 -2.90271 0
M  V30 8400 C 812.31 1.39351 -4.08908 0
M  V30 8401 C 811.445 2.54878 -4.66059 0
M  V30 8402 C 810.484 2.04384 -5.76969 0
M  V30 8403 N 809.621 3.13233 -6.28355 0
M  V30 8404 H 814.461 0.10858 -2.97802 0
M  V30 8405 H 811.998 0.041836 -1.4704 0
M  V30 8406 H 813.956 2.56926 -3.28702 0
M  V30 8407 H 812.586 2.40035 -2.15831 0
M  V30 8408 H 811.638 0.585173 -3.75872 0
M  V30 8409 H 812.95 0.983356 -4.89011 0
M  V30 8410 H 812.104 3.33219 -5.07001 0
M  V30 8411 H 810.843 2.99188 -3.85146 0
M  V30 8412 H 809.848 1.24509 -5.35516 0
M  V30 8413 H 811.073 1.61057 -6.59725 0
M  V30 8414 H 809.019 3.57 -5.50352 0
M  V30 8415 H 808.936 2.76511 -7.03618 0
M  V30 8416 H 810.204 3.91669 -6.73955 0
M  V30 8417 N 814.433 1.57553 0.0384317 0
M  V30 8418 C 815.363 2.0898 1.04161 0
M  V30 8419 C 816.344 0.99029 1.38301 0
M  V30 8420 O 817.529 1.26499 1.47349 0
M  V30 8421 C 814.659 2.56145 2.34536 0
M  V30 8422 C 813.613 3.70275 2.14663 0
M  V30 8423 C 812.939 4.03612 3.50715 0
M  V30 8424 C 814.239 4.99067 1.54045 0
M  V30 8425 H 815.933 2.93046 0.613548 0
M  V30 8426 H 813.479 1.40973 0.293684 0
M  V30 8427 H 815.432 2.90741 3.05037 0
M  V30 8428 H 814.156 1.6915 2.79385 0
M  V30 8429 H 812.815 3.36013 1.46597 0
M  V30 8430 H 812.463 3.13698 3.93195 0
M  V30 8431 H 812.163 4.80482 3.38247 0
M  V30 8432 H 813.687 4.40735 4.22593 0
M  V30 8433 H 815.101 5.3168 2.14451 0
M  V30 8434 H 813.498 5.80484 1.52178 0
M  V30 8435 H 814.568 4.8226 0.505259 0
M  V30 8436 N 815.911 -0.310526 1.54511 0
M  V30 8437 C 817.159 -1.04484 1.72996 0
M  V30 8438 C 817.48 -1.88118 0.513479 0
M  V30 8439 O 816.75 -1.90119 -0.472384 0
M  V30 8440 H 815.33 -0.388747 0.637875 0
M  V30 8441 H 817.992 -0.343811 1.91844 0
M  V30 8442 H 817.088 -1.70341 2.61515 0
M  V30 8443 N 817.389 -1.46805 -0.573248 0
M  V30 8444 C 818.352 -1.57655 -1.66366 0
M  V30 8445 C 819.352 -0.452905 -1.5429 0
M  V30 8446 O 820.542 -0.717502 -1.58737 0
M  V30 8447 C 817.674 -1.50584 -3.05839 0
M  V30 8448 H 818.867 -2.54842 -1.581 0
M  V30 8449 H 816.42 -1.34756 -0.791868 0
M  V30 8450 H 817.155 -0.547127 -3.19651 0
M  V30 8451 H 816.94 -2.32118 -3.16012 0
M  V30 8452 H 818.43 -1.61282 -3.85199 0
M  V30 8453 N 818.867 0.818669 -1.34668 0
M  V30 8454 C 819.777 1.9616 -1.2868 0
M  V30 8455 C 820.793 1.72918 -0.193742 0
M  V30 8456 O 821.969 1.96951 -0.420975 0
M  V30 8457 C 819.034 3.30534 -1.04633 0
M  V30 8458 C 818.095 3.66755 -2.23136 0
M  V30 8459 C 817.328 4.94717 -2.00227 0
M  V30 8460 O 817.551 5.62218 -0.96264 0
M  V30 8461 O 816.485 5.28915 -2.87286 0
M  V30 8462 H 820.311 2.04157 -2.24842 0
M  V30 8463 H 817.896 0.954691 -1.14917 0
M  V30 8464 H 819.778 4.11005 -0.930216 0
M  V30 8465 H 818.453 3.23495 -0.115139 0
M  V30 8466 H 817.36 2.8671 -2.40308 0
M  V30 8467 H 818.693 3.78484 -3.1466 0
M  V30 8468 N 820.346 1.18468 1.03938 0
M  V30 8469 C 821.594 0.978895 1.76811 0
M  V30 8470 C 821.915 -0.49257 1.88676 0
M  V30 8471 O 821.185 -1.3572 1.41269 0
M  V30 8472 H 819.765 0.359201 0.654968 0
M  V30 8473 H 822.427 1.49173 1.25433 0
M  V30 8474 H 821.523 1.418 2.78027 0
M  V30 8475 N 821.824 -1.22873 0.986916 0
M  V30 8476 C 823.073 -1.90772 0.654911 0
M  V30 8477 C 823.386 -1.77768 -0.81595 0
M  V30 8478 O 824.592 -2.40529 -1.25929 0
M  V30 8479 C 823.048 -3.42003 1.12081 0
M  V30 8480 C 822.656 -3.63655 2.61647 0
M  V30 8481 C 824.4 -4.15638 0.862854 0
M  V30 8482 C 822.307 -5.08555 3.01871 0
M  V30 8483 H 821.237 -0.714362 0.241252 0
M  V30 8484 H 823.888 -1.39196 1.19568 0
M  V30 8485 H 822.27 -3.92725 0.508207 0
M  V30 8486 H 823.444 -3.2345 3.28202 0
M  V30 8487 H 821.759 -3.03341 2.8526 0
M  V30 8488 H 824.356 -5.22425 1.13915 0
M  V30 8489 H 824.699 -4.15814 -0.201036 0
M  V30 8490 H 825.232 -3.70924 1.43736 0
M  V30 8491 H 821.971 -5.13514 4.07411 0
M  V30 8492 H 821.491 -5.49684 2.40015 0
M  V30 8493 H 823.17 -5.76936 2.92839 0
M  V30 8494 N 823.302 -0.75937 -1.38099 0
M  V30 8495 C 824.55 -0.317485 -1.99591 0
M  V30 8496 C 824.871 1.10628 -1.60581 0
M  V30 8497 O 824.141 1.7575 -0.865378 0
M  V30 8498 H 822.721 -0.114397 -0.738189 0
M  V30 8499 H 825.383 -0.974749 -1.68774 0
M  V30 8500 H 824.479 -0.385227 -3.09713 0
M  V30 8501 N 824.78 1.49157 -0.508906 0
M  V30 8502 C 825.71 2.32109 0.254469 0
M  V30 8503 C 826.691 1.40754 0.955111 0
M  V30 8504 O 827.876 1.69658 0.944983 0
M  V30 8505 C 825.006 3.21458 1.3146 0
M  V30 8506 C 823.96 4.2167 0.733368 0
M  V30 8507 C 823.286 5.00009 1.8946 0
M  V30 8508 C 824.586 5.21544 -0.280875 0
M  V30 8509 H 826.28 2.9618 -0.43795 0
M  V30 8510 H 823.826 1.4243 -0.212062 0
M  V30 8511 H 825.779 3.78305 1.85643 0
M  V30 8512 H 824.503 2.55346 2.03632 0
M  V30 8513 H 823.162 3.65979 0.213231 0
M  V30 8514 H 822.81 4.30338 2.60419 0
M  V30 8515 H 822.51 5.67821 1.51173 0
M  V30 8516 H 824.034 5.59702 2.44061 0
M  V30 8517 H 825.448 5.73039 0.173095 0
M  V30 8518 H 823.845 5.97291 -0.580006 0
M  V30 8519 H 824.915 4.69969 -1.19404 0
M  V30 8520 N 826.258 0.243083 1.55714 0
M  V30 8521 C 827.498 -0.384303 2.00755 0
M  V30 8522 C 827.862 -1.55406 1.12752 0
M  V30 8523 O 829.063 -2.24892 1.47231 0
M  V30 8524 C 827.334 -0.787419 3.48618 0
M  V30 8525 S 828.893 -1.40587 4.15669 0
M  V30 8526 H 825.711 -0.121088 0.700613 0
M  V30 8527 H 828.313 0.357423 1.92205 0
M  V30 8528 H 827.017 0.0732892 4.10335 0
M  V30 8529 H 826.548 -1.56142 3.61086 0
M  V30 8530 H 828.563 -2.69493 4.16639 0
M  V30 8531 N 827.736 -1.57571 -0.0300757 0
M  V30 8532 C 829.152 -1.54869 -0.385703 0
M  V30 8533 C 829.352 -0.969068 -1.76667 0
M  V30 8534 O 828.408 -0.589676 -2.45518 0
M  V30 8535 C 829.721 -2.99313 -0.288482 0
M  V30 8536 C 831.269 -3.10857 -0.365638 0
M  V30 8537 C 831.744 -4.5703 -0.297878 0
M  V30 8538 N 833.235 -4.61825 -0.356703 0
M  V30 8539 C 833.97 -5.72466 -0.327146 0
M  V30 8540 N 833.466 -6.92349 -0.249941 0
M  V30 8541 N 835.259 -5.60836 -0.376801 0
M  V30 8542 H 827.41 -1.936 0.87367 0
M  V30 8543 H 829.673 -0.887924 0.332106 0
M  V30 8544 H 829.379 -3.45443 0.66047 0
M  V30 8545 H 829.253 -3.61332 -1.08253 0
M  V30 8546 H 831.64 -2.64676 -1.30502 0
M  V30 8547 H 831.721 -2.51671 0.457744 0
M  V30 8548 H 831.365 -5.03879 0.637835 0
M  V30 8549 H 831.295 -5.14127 -1.13935 0
M  V30 8550 H 833.786 -3.75571 -0.418926 0
M  V30 8551 H 834.099 -7.7245 -0.23246 0
M  V30 8552 H 832.444 -6.94664 -0.216004 0
M  V30 8553 H 835.635 -4.66073 -0.435101 0
M  V30 8554 H 835.808 -6.47052 -0.350298 0
M  V30 8555 N 829.214 0.302327 -1.54673 0
M  V30 8556 C 830.442 1.05669 -1.77881 0
M  V30 8557 C 830.857 1.80983 -0.537648 0
M  V30 8558 O 830.214 1.7573 0.492467 0
M  V30 8559 C 830.265 2.03828 -2.98557 0
M  V30 8560 O 829.986 1.3157 -4.17877 0
M  V30 8561 C 831.487 2.91314 -3.34143 0
M  V30 8562 H 828.707 0.313436 -0.593295 0
M  V30 8563 H 831.251 0.342003 -2.0162 0
M  V30 8564 H 829.406 2.70801 -2.7703 0
M  V30 8565 H 829.82 1.97481 -4.85903 0
M  V30 8566 H 831.294 3.56042 -4.21827 0
M  V30 8567 H 831.771 3.59544 -2.52239 0
M  V30 8568 H 832.377 2.29874 -3.57824 0
M  V30 8569 N 830.692 1.47107 0.565454 0
M  V30 8570 C 831.602 1.61591 1.70075 0
M  V30 8571 C 832.618 0.498931 1.66693 0
M  V30 8572 O 833.794 0.765372 1.8629 0
M  V30 8573 C 830.859 1.61887 3.06583 0
M  V30 8574 C 829.92 2.84949 3.21096 0
M  V30 8575 C 829.153 2.85221 4.51093 0
M  V30 8576 O 829.376 1.94959 5.36048 0
M  V30 8577 O 828.31 3.76982 4.69221 0
M  V30 8578 H 832.136 2.57638 1.60799 0
M  V30 8579 H 829.721 1.30097 0.73451 0
M  V30 8580 H 831.603 1.64809 3.87835 0
M  V30 8581 H 830.278 0.69005 3.16259 0
M  V30 8582 H 829.185 2.87575 2.39273 0
M  V30 8583 H 830.518 3.77098 3.1632 0
M  V30 8584 N 832.17 -0.811516 1.35101 0
M  V30 8585 C 833.12 -1.91227 1.24163 0
M  V30 8586 C 834.104 -1.60307 0.138012 0
M  V30 8587 O 835.296 -1.73116 0.368767 0
M  V30 8588 C 832.425 -3.2808 1.01085 0
M  V30 8589 C 831.511 -3.65082 2.15815 0
M  V30 8590 N 831.902 -3.73558 3.4101 0
M  V30 8591 C 830.2 -3.95005 2.07092 0
M  V30 8592 C 830.901 -4.06158 4.16426 0
M  V30 8593 N 829.877 -4.19982 3.45132 0
M  V30 8594 H 833.679 -1.95975 2.19023 0
M  V30 8595 H 831.193 -1.00583 1.27503 0
M  V30 8596 H 833.19 -4.06771 0.913382 0
M  V30 8597 H 831.85 -3.24622 0.0710406 0
M  V30 8598 H 832.861 -3.56761 3.75423 0
M  V30 8599 H 829.538 -3.99601 1.20937 0
M  V30 8600 H 830.928 -4.19824 5.24592 0
M  V30 8601 N 833.648 -1.19017 -1.03309 0
M  V30 8602 C 834.581 -0.867457 -2.1107 0
M  V30 8603 C 835.559 0.173752 -1.61669 0
M  V30 8604 O 836.743 0.0510077 -1.88431 0
M  V30 8605 C 833.87 -0.297459 -3.37391 0
M  V30 8606 C 832.916 -1.31706 -4.05655 0
M  V30 8607 S 833.749 -2.87591 -4.51721 0
M  V30 8608 C 834.905 -2.32122 -5.81266 0
M  V30 8609 H 835.138 -1.78008 -2.38119 0
M  V30 8610 H 832.671 -1.01686 -1.16187 0
M  V30 8611 H 834.629 0.0248889 -4.10492 0
M  V30 8612 H 833.29 0.5934 -3.08444 0
M  V30 8613 H 832.483 -0.867264 -4.96482 0
M  V30 8614 H 832.085 -1.58603 -3.38705 0
M  V30 8615 H 834.377 -1.70855 -6.55603 0
M  V30 8616 H 835.32 -3.2128 -6.31019 0
M  V30 8617 H 835.728 -1.74858 -5.36736 0
M  V30 8618 N 835.127 1.22348 -0.993418 0
M  V30 8619 C 836.374 1.9111 -0.669568 0
M  V30 8620 C 836.702 1.77357 0.79843 0
M  V30 8621 O 835.957 1.13675 1.593 0
M  V30 8622 C 836.256 3.42477 -1.02197 0
M  V30 8623 C 835.922 3.7642 -2.48232 0
M  V30 8624 C 834.584 3.85395 -2.88139 0
M  V30 8625 C 836.936 3.9253 -3.42884 0
M  V30 8626 C 834.264 4.07918 -4.21687 0
M  V30 8627 C 836.616 4.16557 -4.76091 0
M  V30 8628 C 835.28 4.23757 -5.15739 0
M  V30 8629 H 834.55 0.699321 -0.245012 0
M  V30 8630 H 837.197 1.45102 -1.2497 0
M  V30 8631 H 835.502 3.90143 -0.359921 0
M  V30 8632 H 837.199 3.93935 -0.74942 0
M  V30 8633 H 833.789 3.70017 -2.16299 0
M  V30 8634 H 837.973 3.84974 -3.13224 0
M  V30 8635 H 833.229 4.11719 -4.51993 0
M  V30 8636 H 837.403 4.27966 -5.4938 0
M  V30 8637 H 835.03 4.40962 -6.19239 0
M  V30 8638 N 836.605 0.766683 1.37694 0
M  V30 8639 C 837.852 0.328714 1.99814 0
M  V30 8640 C 838.18 -1.09333 1.60862 0
M  V30 8641 O 837.435 -1.7657 0.8439 0
M  V30 8642 C 837.734 0.413831 3.54996 0
M  V30 8643 C 837.4 1.7934 4.137 0
M  V30 8644 C 836.062 2.17092 4.29447 0
M  V30 8645 C 838.414 2.69776 4.45949 0
M  V30 8646 C 835.742 3.44726 4.74743 0
M  V30 8647 C 838.094 3.96814 4.92667 0
M  V30 8648 C 836.758 4.34618 5.0662 0
M  V30 8649 H 836.028 0.120285 0.731172 0
M  V30 8650 H 838.675 0.97972 1.64541 0
M  V30 8651 H 836.98 -0.320723 3.90485 0
M  V30 8652 H 838.677 0.0563369 4.0096 0
M  V30 8653 H 835.267 1.48997 4.01868 0
M  V30 8654 H 839.451 2.41871 4.33373 0
M  V30 8655 H 834.707 3.73917 4.83731 0
M  V30 8656 H 838.881 4.67022 5.16588 0
M  V30 8657 H 836.508 5.33578 5.41478 0
M  V30 8658 N 838.083 -1.48885 0.516809 0
M  V30 8659 C 838.993 -2.33185 -0.257293 0
M  V30 8660 C 840.009 -1.4565 -0.951952 0
M  V30 8661 O 841.185 -1.78651 -0.929834 0
M  V30 8662 C 838.25 -3.21465 -1.29851 0
M  V30 8663 C 837.311 -4.24863 -0.615608 0
M  V30 8664 C 836.544 -5.08925 -1.60722 0
M  V30 8665 O 836.767 -4.9475 -2.83863 0
M  V30 8666 O 835.701 -5.90737 -1.15384 0
M  V30 8667 H 839.527 -3.00596 0.433131 0
M  V30 8668 H 837.112 -1.46792 0.277908 0
M  V30 8669 H 838.994 -3.76108 -1.90055 0
M  V30 8670 H 837.669 -2.5673 -1.97158 0
M  V30 8671 H 836.576 -3.74091 0.0265829 0
M  V30 8672 H 837.909 -4.92198 0.0152871 0
M  V30 8673 N 839.561 -0.251338 -1.55583 0
M  V30 8674 C 840.524 0.63305 -2.20284 0
M  V30 8675 C 841.524 1.09941 -1.17344 0
M  V30 8676 O 842.714 1.00341 -1.42399 0
M  V30 8677 C 839.846 1.8706 -2.84993 0
M  V30 8678 H 841.039 0.0684846 -2.99822 0
M  V30 8679 H 838.592 -0.00181653 -1.563 0
M  V30 8680 H 839.327 2.47629 -2.09405 0
M  V30 8681 H 839.112 1.54436 -3.60405 0
M  V30 8682 H 840.602 2.50004 -3.34496 0
M  V30 8683 N 841.039 1.57585 0.0217189 0
M  V30 8684 C 842.316 1.80779 0.74687 0
M  V30 8685 C 842.696 0.851163 1.9318 0
M  V30 8686 O 842.044 -0.105039 2.28258 0
M  V30 8687 C 842.254 3.28696 1.17302 0
M  V30 8688 C 843.602 3.93871 1.58589 0
M  V30 8689 O 844.626 3.3289 1.2674 0
M  V30 8690 O 843.485 5.01254 2.1773 0
M  V30 8691 H 840.579 0.743666 0.361786 0
M  V30 8692 H 843.125 1.697 -0.00206785 0
M  V30 8693 H 841.897 3.89927 0.327453 0
M  V30 8694 H 841.52 3.44692 1.98174 0
M  V30 8695 N 842.517 -0.29412 1.54831 0
M  V30 8696 C 843.933 -0.640167 1.46199 0
M  V30 8697 C 844.133 -1.90426 0.658798 0
M  V30 8698 O 843.189 -2.51932 0.169228 0
M  V30 8699 C 844.502 -0.786763 2.90225 0
M  V30 8700 C 846.05 -0.882201 3.0031 0
M  V30 8701 C 846.525 -1.06074 4.45547 0
M  V30 8702 N 848.016 -1.12678 4.49286 0
M  V30 8703 C 848.751 -1.28334 5.58854 0
M  V30 8704 N 848.247 -1.40845 6.78332 0
M  V30 8705 N 850.04 -1.31277 5.46555 0
M  V30 8706 H 842.191 0.536334 2.05517 0
M  V30 8707 H 844.454 0.178363 0.93107 0
M  V30 8708 H 844.16 0.0713018 3.51628 0
M  V30 8709 H 844.034 -1.67364 3.38037 0
M  V30 8710 H 846.421 -1.73075 2.39017 0
M  V30 8711 H 846.502 0.0288405 2.55784 0
M  V30 8712 H 846.146 -0.216935 5.07437 0
M  V30 8713 H 846.076 -1.98611 4.8771 0
M  V30 8714 H 848.567 -1.04335 3.63212 0
M  V30 8715 H 848.88 -1.52566 7.57591 0
M  V30 8716 H 847.225 -1.37888 6.81184 0
M  V30 8717 H 850.416 -1.2112 4.52159 0
M  V30 8718 H 850.589 -1.43136 6.31994 0
M  V30 8719 N 843.995 -1.47404 -0.557645 0
M  V30 8720 C 845.244 -1.53268 -1.31118 0
M  V30 8721 C 845.557 -0.199414 -1.94581 0
M  V30 8722 O 846.763 -0.136039 -2.71159 0
M  V30 8723 C 845.219 -2.70178 -2.37764 0
M  V30 8724 C 844.827 -4.10032 -1.80493 0
M  V30 8725 C 846.571 -2.85334 -3.14301 0
M  V30 8726 C 844.478 -5.18244 -2.84916 0
M  V30 8727 H 843.408 -0.570491 -0.493007 0
M  V30 8728 H 846.059 -1.73678 -0.592308 0
M  V30 8729 H 844.441 -2.43147 -3.12563 0
M  V30 8730 H 845.615 -4.46964 -1.12069 0
M  V30 8731 H 843.93 -3.99759 -1.16542 0
M  V30 8732 H 846.527 -3.63347 -3.92279 0
M  V30 8733 H 846.87 -1.93761 -3.68459 0
M  V30 8734 H 847.403 -3.12133 -2.46613 0
M  V30 8735 H 844.142 -6.11691 -2.35614 0
M  V30 8736 H 843.662 -4.85829 -3.51753 0
M  V30 8737 H 845.341 -5.45174 -3.48417 0
M  V30 8738 N 845.473 0.80434 -1.35529 0
M  V30 8739 C 846.406 1.92222 -1.22987 0
M  V30 8740 C 847.384 1.62177 -0.117269 0
M  V30 8741 O 848.568 1.86321 -0.285761 0
M  V30 8742 C 845.695 3.26682 -0.894223 0
M  V30 8743 C 844.741 3.75674 -2.01919 0
M  V30 8744 S 845.574 3.93209 -3.6352 0
M  V30 8745 C 846.73 5.30568 -3.32037 0
M  V30 8746 H 846.963 2.02567 -2.1761 0
M  V30 8747 H 844.496 0.961961 -1.20771 0
M  V30 8748 H 846.454 4.04359 -0.707371 0
M  V30 8749 H 845.115 3.14082 0.0339729 0
M  V30 8750 H 844.308 4.73065 -1.73854 0
M  V30 8751 H 843.91 3.05001 -2.16449 0
M  V30 8752 H 846.202 6.14637 -2.85004 0
M  V30 8753 H 847.145 5.63628 -4.28636 0
M  V30 8754 H 847.553 4.96961 -2.6775 0
M  V30 8755 N 846.951 1.19563 1.02676 0
M  V30 8756 C 847.898 0.935291 2.11 0
M  V30 8757 C 848.868 -0.130685 1.65585 0
M  V30 8758 O 850.053 0.0119062 1.90796 0
M  V30 8759 C 847.193 0.482384 3.41712 0
M  V30 8760 C 846.306 1.61537 4.00662 0
M  V30 8761 C 845.441 1.11378 5.19392 0
M  V30 8762 C 844.48 2.22052 5.70403 0
M  V30 8763 N 843.617 1.73185 6.80405 0
M  V30 8764 H 848.457 1.86275 2.32606 0
M  V30 8765 H 845.994 0.928656 1.14081 0
M  V30 8766 H 847.952 0.20118 4.16715 0
M  V30 8767 H 846.582 -0.408086 3.2021 0
M  V30 8768 H 845.634 2.01173 3.22852 0
M  V30 8769 H 846.946 2.44912 4.34534 0
M  V30 8770 H 846.1 0.787935 6.01562 0
M  V30 8771 H 844.839 0.249789 4.8706 0
M  V30 8772 H 843.844 2.55465 4.86845 0
M  V30 8773 H 845.069 3.08911 6.04774 0
M  V30 8774 H 843.015 0.890973 6.49921 0
M  V30 8775 H 842.932 2.50148 7.13416 0
M  V30 8776 H 844.2 1.4357 7.66164 0
M  V30 8777 N 848.429 -1.21819 0.999893 0
M  V30 8778 C 849.678 -1.90066 0.675108 0
M  V30 8779 C 849.991 -1.78624 -0.79705 0
M  V30 8780 O 851.197 -2.41851 -1.23371 0
M  V30 8781 C 849.653 -3.40795 1.15702 0
M  V30 8782 C 849.261 -3.60859 2.6549 0
M  V30 8783 C 851.005 -4.147 0.906889 0
M  V30 8784 C 848.912 -5.05324 3.07248 0
M  V30 8785 H 847.842 -0.711763 0.248815 0
M  V30 8786 H 850.493 -1.3792 1.21038 0
M  V30 8787 H 848.875 -3.92164 0.549832 0
M  V30 8788 H 850.049 -3.19951 3.31614 0
M  V30 8789 H 848.364 -3.00298 2.88461 0
M  V30 8790 H 850.961 -5.21187 1.1945 0
M  V30 8791 H 851.304 -4.16004 -0.156923 0
M  V30 8792 H 851.837 -3.69379 1.47662 0
M  V30 8793 H 848.576 -5.09164 4.12834 0
M  V30 8794 H 848.096 -5.47108 2.45832 0
M  V30 8795 H 849.775 -5.73797 2.98941 0
M  V30 8796 N 849.908 -0.773975 -1.37286 0
M  V30 8797 C 851.324 -0.45386 -1.53011 0
M  V30 8798 C 851.524 1.03018 -1.73175 0
M  V30 8799 O 850.58 1.81597 -1.75438 0
M  V30 8800 C 851.893 -1.27087 -2.72524 0
M  V30 8801 C 853.441 -1.26299 -2.86387 0
M  V30 8802 C 853.916 -2.0634 -4.08886 0
M  V30 8803 N 855.407 -2.03706 -4.16003 0
M  V30 8804 C 856.142 -2.62418 -5.09828 0
M  V30 8805 N 855.638 -3.29926 -6.09197 0
M  V30 8806 N 857.431 -2.52236 -5.02328 0
M  V30 8807 H 849.582 -1.73551 -1.22449 0
M  V30 8808 H 851.845 -0.736874 -0.596423 0
M  V30 8809 H 851.551 -2.32263 -2.64096 0
M  V30 8810 H 851.425 -0.90157 -3.66267 0
M  V30 8811 H 853.812 -0.219213 -2.94285 0
M  V30 8812 H 853.893 -1.67195 -1.93596 0
M  V30 8813 H 853.537 -3.10741 -4.01749 0
M  V30 8814 H 853.467 -1.62825 -5.00795 0
M  V30 8815 H 855.958 -1.54559 -3.44848 0
M  V30 8816 H 856.271 -3.72095 -6.77322 0
M  V30 8817 H 854.616 -3.34026 -6.09469 0
M  V30 8818 H 857.807 -1.99108 -4.23643 0
M  V30 8819 H 857.98 -2.98286 -5.75265 0
M  V30 8820 N 851.386 1.48609 -0.524698 0
M  V30 8821 C 852.333 2.29539 0.240956 0
M  V30 8822 C 853.303 1.37033 0.938681 0
M  V30 8823 O 854.488 1.65996 0.940737 0
M  V30 8824 C 851.628 3.20278 1.28514 0
M  V30 8825 C 850.741 4.27858 0.596798 0
M  V30 8826 C 849.876 5.05784 1.62346 0
M  V30 8827 C 848.915 6.05173 0.918287 0
M  V30 8828 N 848.052 6.76176 1.89025 0
M  V30 8829 H 852.892 2.945 -0.455368 0
M  V30 8830 H 850.429 1.45188 -0.236403 0
M  V30 8831 H 852.387 3.71281 1.90279 0
M  V30 8832 H 851.017 2.57251 1.94992 0
M  V30 8833 H 850.069 3.80162 -0.134668 0
M  V30 8834 H 851.381 4.98782 0.0428506 0
M  V30 8835 H 850.535 5.60775 2.31553 0
M  V30 8836 H 849.274 4.34687 2.2113 0
M  V30 8837 H 848.279 5.49391 0.21212 0
M  V30 8838 H 849.504 6.78265 0.336633 0
M  V30 8839 H 847.45 6.07834 2.46726 0
M  V30 8840 H 847.367 7.43157 1.3876 0
M  V30 8841 H 848.635 7.35759 2.57446 0
M  V30 8842 N 852.864 0.259585 1.55447 0
M  V30 8843 C 853.797 -0.675542 2.17972 0
M  V30 8844 C 854.775 -1.16362 1.13572 0
M  V30 8845 O 855.959 -1.23944 1.42021 0
M  V30 8846 C 853.086 -1.91952 2.79056 0
M  V30 8847 C 852.132 -1.56824 3.96621 0
M  V30 8848 S 852.965 -0.659846 5.31419 0
M  V30 8849 C 854.121 -1.91255 5.95963 0
M  V30 8850 H 854.354 -0.144236 2.9695 0
M  V30 8851 H 851.887 0.0439448 1.54337 0
M  V30 8852 H 853.845 -2.63362 3.14882 0
M  V30 8853 H 852.506 -2.42196 2 0
M  V30 8854 H 851.699 -2.49348 4.37997 0
M  V30 8855 H 851.301 -0.934472 3.62138 0
M  V30 8856 H 853.593 -2.85834 6.14252 0
M  V30 8857 H 854.536 -1.54207 6.91105 0
M  V30 8858 H 854.944 -2.07042 5.25161 0
M  V30 8859 N 854.342 -1.57594 -0.0133615 0
M  V30 8860 C 855.591 -1.8916 -0.700103 0
M  V30 8861 C 855.904 -0.860147 -1.75673 0
M  V30 8862 O 857.11 -1.06556 -2.49716 0
M  V30 8863 C 855.566 -3.35742 -1.29635 0
M  V30 8864 C 855.174 -4.47154 -0.275249 0
M  V30 8865 C 856.918 -3.76436 -1.96205 0
M  V30 8866 C 854.825 -5.84805 -0.880726 0
M  V30 8867 H 853.755 -0.705805 -0.265247 0
M  V30 8868 H 856.406 -1.83445 0.044993 0
M  V30 8869 H 854.788 -3.36252 -2.09167 0
M  V30 8870 H 855.962 -4.58139 0.494506 0
M  V30 8871 H 854.277 -4.15394 0.289256 0
M  V30 8872 H 856.874 -4.76606 -2.42386 0
M  V30 8873 H 857.217 -3.09249 -2.78695 0
M  V30 8874 H 857.75 -3.78168 -1.23426 0
M  V30 8875 H 854.489 -6.55431 -0.0949013 0
M  V30 8876 H 854.009 -5.7751 -1.61995 0
M  V30 8877 H 855.688 -6.32038 -1.38338 0
M  V30 8878 N 855.82 0.285905 -1.54985 0
M  V30 8879 C 856.75 1.35752 -1.89983 0
M  V30 8880 C 857.731 1.52163 -0.760295 0
M  V30 8881 O 858.916 1.65421 -1.01733 0
M  V30 8882 C 856.046 2.71925 -2.16042 0
M  V30 8883 C 855 2.70261 -3.31878 0
M  V30 8884 C 854.326 4.09864 -3.43388 0
M  V30 8885 C 855.626 2.30667 -4.68604 0
M  V30 8886 H 857.32 1.06709 -2.79738 0
M  V30 8887 H 854.866 0.511884 -1.34595 0
M  V30 8888 H 856.819 3.46992 -2.39113 0
M  V30 8889 H 855.543 3.02523 -1.23074 0
M  V30 8890 H 854.202 1.97651 -3.08755 0
M  V30 8891 H 853.85 4.37664 -2.47909 0
M  V30 8892 H 853.55 4.09648 -4.21262 0
M  V30 8893 H 855.074 4.86689 -3.68736 0
M  V30 8894 H 856.488 2.95453 -4.91305 0
M  V30 8895 H 854.885 2.41637 -5.49301 0
M  V30 8896 H 855.955 1.25793 -4.68299 0
M  V30 8897 N 857.298 1.47698 0.54982 0
M  V30 8898 C 858.523 1.58579 1.33669 0
M  V30 8899 C 858.948 0.239049 1.86575 0
M  V30 8900 O 858.306 -0.786256 1.63364 0
M  V30 8901 C 858.354 2.62029 2.47736 0
M  V30 8902 O 857.458 2.17813 3.50188 0
M  V30 8903 H 856.799 0.532447 0.396732 0
M  V30 8904 H 859.329 1.93536 0.6637 0
M  V30 8905 H 859.339 2.82682 2.94202 0
M  V30 8906 H 858.014 3.59812 2.08586 0
M  V30 8907 H 856.591 2.07291 3.09976 0
M  V30 8908 N 858.776 -0.797141 1.35954 0
M  V30 8909 C 860.053 -1.54224 1.2031 0
M  V30 8910 C 860.433 -2.10013 -0.213926 0
M  V30 8911 O 859.781 -1.93292 -1.21862 0
M  V30 8912 C 859.991 -2.6433 2.27883 0
M  V30 8913 C 861.339 -3.32418 2.64165 0
M  V30 8914 O 862.363 -2.74607 2.26868 0
M  V30 8915 O 861.222 -4.36876 3.28331 0
M  V30 8916 H 858.316 -0.681857 0.467974 0
M  V30 8917 H 860.862 -0.836288 1.47663 0
M  V30 8918 H 859.634 -2.21044 3.22885 0
M  V30 8919 H 859.257 -3.42551 2.01853 0
M  V30 8920 N 860.254 -1.20106 -1.0204 0
M  V30 8921 C 861.479 -1.0351 -1.79723 0
M  V30 8922 C 861.904 0.411328 -1.83548 0
M  V30 8923 O 861.262 1.29608 -1.26773 0
M  V30 8924 C 861.31 -1.61876 -3.22224 0
M  V30 8925 O 860.414 -0.853813 -4.03465 0
M  V30 8926 H 859.755 -0.365299 -0.554484 0
M  V30 8927 H 862.285 -1.59316 -1.28373 0
M  V30 8928 H 862.295 -1.65451 -3.72948 0
M  V30 8929 H 860.97 -2.67148 -3.18755 0
M  V30 8930 H 859.547 -0.891983 -3.62075 0
M  V30 8931 N 861.732 1.21287 -1.00634 0
M  V30 8932 C 862.978 1.90671 -0.690822 0
M  V30 8933 C 863.311 1.77996 0.776592 0
M  V30 8934 O 862.586 1.15748 1.5631 0
M  V30 8935 C 862.869 3.42426 -1.11428 0
M  V30 8936 C 862.722 3.64086 -2.64124 0
M  V30 8937 C 864.041 4.34851 -0.677686 0
M  V30 8938 H 861.16 0.692419 -0.252439 0
M  V30 8939 H 863.802 1.42893 -1.25226 0
M  V30 8940 H 861.952 3.83249 -0.636586 0
M  V30 8941 H 863.624 3.32582 -3.19667 0
M  V30 8942 H 861.867 3.07906 -3.05576 0
M  V30 8943 H 862.538 4.7042 -2.88806 0
M  V30 8944 H 865.014 4.01619 -1.0882 0
M  V30 8945 H 863.89 5.39675 -1.00213 0
M  V30 8946 H 864.151 4.4009 0.421125 0
M  V30 8947 N 863.21 0.781244 1.36873 0
M  V30 8948 C 864.12 0.174981 2.33947 0
M  V30 8949 C 865.136 -0.668512 1.60645 0
M  V30 8950 O 866.312 -0.586213 1.9268 0
M  V30 8951 C 863.377 -0.686557 3.39834 0
M  V30 8952 C 862.438 0.174489 4.28945 0
M  V30 8953 C 861.671 -0.646024 5.29776 0
M  V30 8954 O 861.894 -1.88254 5.38439 0
M  V30 8955 O 860.828 -0.0502214 6.01879 0
M  V30 8956 H 864.654 0.977382 2.87543 0
M  V30 8957 H 862.239 0.542559 1.392 0
M  V30 8958 H 864.121 -1.1781 4.04597 0
M  V30 8959 H 862.796 -1.46699 2.8855 0
M  V30 8960 H 861.703 0.712604 3.6725 0
M  V30 8961 H 863.036 0.918232 4.83559 0
M  V30 8962 N 864.689 -1.48329 0.532571 0
M  V30 8963 C 865.652 -2.2816 -0.218069 0
M  V30 8964 C 866.652 -1.35526 -0.865409 0
M  V30 8965 O 867.842 -1.58394 -0.725061 0
M  V30 8966 C 864.974 -3.1448 -1.31586 0
M  V30 8967 H 866.167 -2.95987 0.482865 0
M  V30 8968 H 863.72 -1.53612 0.288603 0
M  V30 8969 H 864.455 -2.5129 -2.04997 0
M  V30 8970 H 864.24 -3.82625 -0.856779 0
M  V30 8971 H 865.73 -3.74693 -1.84377 0
M  V30 8972 N 866.167 -0.267825 -1.55308 0
M  V30 8973 C 867.583 0.0865107 -1.59365 0
M  V30 8974 C 867.783 1.55205 -1.28505 0
M  V30 8975 O 866.839 2.29978 -1.04241 0
M  V30 8976 C 868.152 -0.28155 -2.99379 0
M  V30 8977 C 869.7 -0.227565 -3.12172 0
M  V30 8978 C 870.175 -0.569959 -4.5444 0
M  V30 8979 N 871.666 -0.521238 -4.60258 0
M  V30 8980 C 872.401 -0.759061 -5.68354 0
M  V30 8981 N 871.897 -1.06112 -6.84626 0
M  V30 8982 N 873.69 -0.688351 -5.57869 0
M  V30 8983 H 865.841 -1.22332 -1.73633 0
M  V30 8984 H 868.104 -0.493703 -0.809297 0
M  V30 8985 H 867.81 -1.3005 -3.26772 0
M  V30 8986 H 867.684 0.381192 -3.75269 0
M  V30 8987 H 870.071 0.782093 -2.84548 0
M  V30 8988 H 870.152 -0.924461 -2.38511 0
M  V30 8989 H 869.796 -1.57727 -4.82788 0
M  V30 8990 H 869.726 0.148646 -5.2639 0
M  V30 8991 H 872.217 -0.297359 -3.76728 0
M  V30 8992 H 872.53 -1.22945 -7.62958 0
M  V30 8993 H 870.875 -1.09881 -6.86259 0
M  V30 8994 H 874.066 -0.452268 -4.6591 0
M  V30 8995 H 874.239 -0.877081 -6.42037 0
M  V30 8996 N 867.645 1.57599 0.00500368 0
M  V30 8997 C 868.555 2.11532 1.01446 0
M  V30 8998 C 869.571 1.05941 1.3803 0
M  V30 8999 O 870.747 1.37815 1.46864 0
M  V30 9000 C 867.812 2.60382 2.28915 0
M  V30 9001 C 866.873 3.80554 1.98689 0
M  V30 9002 C 866.106 4.27064 3.20081 0
M  V30 9003 O 866.329 3.72939 4.31593 0
M  V30 9004 O 865.263 5.1927 3.04371 0
M  V30 9005 H 869.089 2.97993 0.586011 0
M  V30 9006 H 866.674 1.47718 0.223519 0
M  V30 9007 H 868.556 2.92024 3.03809 0
M  V30 9008 H 867.231 1.77022 2.71007 0
M  V30 9009 H 866.138 3.53893 1.21286 0
M  V30 9010 H 867.471 4.64972 1.61437 0
M  V30 9011 N 869.123 -0.277682 1.55134 0
M  V30 9012 C 870.033 -1.36524 1.90783 0
M  V30 9013 C 871.049 -1.54283 0.804542 0
M  V30 9014 O 872.225 -1.68499 1.10318 0
M  V30 9015 C 869.29 -2.70524 2.16835 0
M  V30 9016 C 868.351 -2.61552 3.40424 0
M  V30 9017 C 867.584 -3.89162 3.65224 0
M  V30 9018 O 867.807 -4.89624 2.92616 0
M  V30 9019 O 866.741 -3.89647 4.58758 0
M  V30 9020 H 870.567 -1.0929 2.83354 0
M  V30 9021 H 868.152 -0.475799 1.41621 0
M  V30 9022 H 870.034 -3.49765 2.35038 0
M  V30 9023 H 868.709 -2.97555 1.27448 0
M  V30 9024 H 867.616 -1.80704 3.27562 0
M  V30 9025 H 868.949 -2.39472 4.30016 0
M  V30 9026 N 870.601 -1.47988 -0.541979 0
M  V30 9027 C 871.564 -1.61148 -1.62984 0
M  V30 9028 C 872.564 -0.48553 -1.53295 0
M  V30 9029 O 873.754 -0.751012 -1.5718 0
M  V30 9030 C 870.886 -1.57038 -3.02576 0
M  V30 9031 H 872.079 -2.58138 -1.52659 0
M  V30 9032 H 869.632 -1.36405 -0.763106 0
M  V30 9033 H 870.367 -0.614807 -3.18419 0
M  V30 9034 H 870.152 -2.38769 -3.11018 0
M  V30 9035 H 871.642 -1.69416 -3.81691 0
M  V30 9036 N 872.079 0.78992 -1.36375 0
M  V30 9037 C 873.009 1.91683 -1.33341 0
M  V30 9038 C 873.99 1.68861 -0.204965 0
M  V30 9039 O 875.175 1.89982 -0.402531 0
M  V30 9040 C 872.305 3.28696 -1.12143 0
M  V30 9041 C 871.259 3.66041 -2.21806 0
M  V30 9042 C 870.585 5.01399 -1.85751 0
M  V30 9043 C 871.885 3.74677 -3.63888 0
M  V30 9044 H 873.579 1.94478 -2.27637 0
M  V30 9045 H 871.125 0.934271 -1.09578 0
M  V30 9046 H 873.078 4.07151 -1.08656 0
M  V30 9047 H 871.802 3.26287 -0.142974 0
M  V30 9048 H 870.461 2.89883 -2.24418 0
M  V30 9049 H 870.109 4.9551 -0.864817 0
M  V30 9050 H 869.809 5.27355 -2.59173 0
M  V30 9051 H 871.333 5.82274 -1.83819 0
M  V30 9052 H 872.747 4.43324 -3.63506 0
M  V30 9053 H 871.144 4.12118 -4.3621 0
M  V30 9054 H 872.214 2.75795 -3.9883 0
M  V30 9055 N 873.557 1.20646 1.01402 0
M  V30 9056 C 874.505 0.954493 2.12114 0
M  V30 9057 C 875.499 -0.0950737 1.69133 0
M  V30 9058 O 876.705 0.0555153 1.79914 0
M  V30 9059 H 873.08 0.29135 0.693267 0
M  V30 9060 H 875.051 1.89447 2.30548 0
M  V30 9061 C 873.8 0.525944 3.43699 0
M  V30 9062 H 873.123 1.32516 3.772 0
M  V30 9063 H 874.563 0.388883 4.22213 0
M  V30 9064 C 873.022 -0.761997 3.28169 0
M  V30 9065 O 873.552 -1.81979 3.58115 0
M  V30 9066 N 871.758 -0.725017 2.8141 0
M  V30 9067 H 871.305 0.13607 2.5724 0
M  V30 9068 H 871.263 -1.5871 2.71401 0
M  V30 9069 N 875.035 -1.20752 1.01276 0
M  V30 9070 C 875.945 -2.27079 0.589277 0
M  V30 9071 C 876.961 -1.6999 -0.371389 0
M  V30 9072 O 878.137 -2.00044 -0.233294 0
M  V30 9073 C 875.202 -3.4663 -0.0696715 0
M  V30 9074 C 874.263 -4.18962 0.936454 0
M  V30 9075 C 873.496 -5.32806 0.308856 0
M  V30 9076 O 873.719 -5.63376 -0.8924 0
M  V30 9077 O 872.653 -5.93131 1.02367 0
M  V30 9078 H 876.479 -2.6551 1.47438 0
M  V30 9079 H 874.064 -1.27297 0.782045 0
M  V30 9080 H 875.946 -4.19119 -0.437873 0
M  V30 9081 H 874.621 -3.10082 -0.929029 0
M  V30 9082 H 873.528 -3.48661 1.35595 0
M  V30 9083 H 874.861 -4.59441 1.76565 0
M  V30 9084 N 876.513 -0.788492 -1.36457 0
M  V30 9085 C 877.443 -0.200468 -2.32638 0
M  V30 9086 C 878.424 0.664031 -1.56603 0
M  V30 9087 O 879.609 0.598045 -1.84762 0
M  V30 9088 C 876.739 0.666274 -3.40849 0
M  V30 9089 C 875.693 -0.0982574 -4.27887 0
M  V30 9090 C 875.019 0.889018 -5.27258 0
M  V30 9091 C 876.319 -1.28692 -5.06197 0
M  V30 9092 H 878.013 -1.00399 -2.82065 0
M  V30 9093 H 875.559 -0.484237 -1.35614 0
M  V30 9094 H 877.512 1.08757 -4.07124 0
M  V30 9095 H 876.236 1.50249 -2.89987 0
M  V30 9096 H 874.895 -0.500525 -3.63167 0
M  V30 9097 H 874.543 1.72024 -4.7267 0
M  V30 9098 H 874.243 0.381909 -5.86358 0
M  V30 9099 H 875.767 1.30891 -5.96406 0
M  V30 9100 H 877.181 -0.941429 -5.65517 0
M  V30 9101 H 875.578 -1.72726 -5.74705 0
M  V30 9102 H 876.648 -2.08273 -4.37893 0
M  V30 9103 N 877.991 1.48044 -0.54043 0
M  V30 9104 C 879.24 2.01698 -0.00809961 0
M  V30 9105 C 879.553 1.42184 1.34325 0
M  V30 9106 O 880.759 1.87398 1.96454 0
M  V30 9107 C 879.215 3.59882 0.035933 0
M  V30 9108 C 878.823 4.28384 -1.31115 0
M  V30 9109 C 880.567 4.21346 0.51654 0
M  V30 9110 C 878.474 5.78529 -1.22714 0
M  V30 9111 H 877.404 0.754 0.000742174 0
M  V30 9112 H 880.055 1.70204 -0.685775 0
M  V30 9113 H 878.437 3.88264 0.778906 0
M  V30 9114 H 879.611 4.11663 -2.07051 0
M  V30 9115 H 877.926 3.78837 -1.72834 0
M  V30 9116 H 880.523 5.31351 0.597529 0
M  V30 9117 H 880.866 3.87373 1.52473 0
M  V30 9118 H 881.399 3.97432 -0.171064 0
M  V30 9119 H 878.138 6.17093 -2.21081 0
M  V30 9120 H 877.658 5.97634 -0.50931 0
M  V30 9121 H 879.337 6.40395 -0.92216 0
M  V30 9122 N 879.47 0.276058 1.55163 0
M  V30 9123 C 880.881 -0.221516 1.85381 0
M  V30 9124 C 881.232 -1.55372 1.19808 0
M  V30 9125 O 880.357 -2.10855 0.486742 0
M  V30 9126 C 880.952 -0.408706 3.36326 0
M  V30 9127 C 879.511 -0.850512 3.66665 0
M  V30 9128 C 878.658 0.055656 2.77244 0
M  V30 9129 H 881.609 0.497819 1.5069 0
M  V30 9130 H 881.63 -1.24711 3.59482 0
M  V30 9131 H 881.142 0.561052 3.84023 0
M  V30 9132 H 879.243 -1.83171 3.24468 0
M  V30 9133 H 879.356 -0.687181 4.74146 0
M  V30 9134 H 877.72 -0.460819 2.50497 0
M  V30 9135 H 878.503 1.02131 3.27756 0
M  V30 9136 N 880.948 -1.576 0.00335426 0
M  V30 9137 C 882.195 -1.90713 -0.680791 0
M  V30 9138 C 882.523 -0.877263 -1.73592 0
M  V30 9139 O 881.778 0.117497 -1.95347 0
M  V30 9140 C 882.077 -3.3058 -1.35837 0
M  V30 9141 C 881.743 -4.48786 -0.436111 0
M  V30 9142 C 880.405 -4.80855 -0.182195 0
M  V30 9143 C 882.757 -5.20821 0.198677 0
M  V30 9144 C 880.085 -5.8233 0.714747 0
M  V30 9145 C 882.437 -6.23252 1.08351 0
M  V30 9146 C 881.101 -6.53776 1.34658 0
M  V30 9147 H 880.371 -0.697869 -0.249119 0
M  V30 9148 H 883.018 -1.91407 0.0596011 0
M  V30 9149 H 881.323 -3.26026 -2.17289 0
M  V30 9150 H 883.02 -3.53462 -1.89383 0
M  V30 9151 H 879.61 -4.23731 -0.644186 0
M  V30 9152 H 883.794 -4.96298 0.0155259 0
M  V30 9153 H 879.05 -6.04339 0.926529 0
M  V30 9154 H 883.224 -6.78199 1.58172 0
M  V30 9155 H 880.851 -7.32225 2.04328 0
M  V30 9156 N 882.426 0.269451 -1.5528 0
M  V30 9157 C 883.358 1.35553 -1.84819 0
M  V30 9158 C 884.371 1.45369 -0.732914 0
M  V30 9159 O 885.56 1.47122 -1.0108 0
M  V30 9160 C 882.66 2.73645 -1.9993 0
M  V30 9161 C 881.833 2.86376 -3.30617 0
M  V30 9162 C 880.892 4.05165 -3.35749 0
M  V30 9163 O 879.918 3.95756 -4.09104 0
M  V30 9164 N 881.12 5.17297 -2.63408 0
M  V30 9165 H 883.885 1.10557 -2.78563 0
M  V30 9166 H 881.446 0.459566 -1.5524 0
M  V30 9167 H 883.438 3.51411 -2.00729 0
M  V30 9168 H 882.008 2.91448 -1.13035 0
M  V30 9169 H 881.228 1.95465 -3.42326 0
M  V30 9170 H 882.516 2.91815 -4.16799 0
M  V30 9171 H 881.914 5.2783 -2.03501 0
M  V30 9172 H 880.471 5.93281 -2.69927 0
M  V30 9173 N 883.904 1.48273 0.534124 0
M  V30 9174 C 884.851 1.62487 1.6391 0
M  V30 9175 C 885.821 0.467062 1.59398 0
M  V30 9176 O 887.006 0.690029 1.77885 0
M  V30 9177 C 884.146 1.66671 3.02183 0
M  V30 9178 C 883.259 2.9353 3.16961 0
M  V30 9179 C 882.394 2.88902 4.45768 0
M  V30 9180 C 881.433 4.10483 4.54059 0
M  V30 9181 N 880.57 4.03956 5.74251 0
M  V30 9182 H 885.41 2.56851 1.51101 0
M  V30 9183 H 882.947 1.27381 0.735704 0
M  V30 9184 H 884.905 1.67079 3.82283 0
M  V30 9185 H 883.535 0.758011 3.13774 0
M  V30 9186 H 882.587 3.02886 2.3014 0
M  V30 9187 H 883.899 3.83501 3.18949 0
M  V30 9188 H 883.053 2.87688 5.34154 0
M  V30 9189 H 881.792 1.96652 4.46295 0
M  V30 9190 H 880.797 4.11977 3.64081 0
M  V30 9191 H 882.022 5.03887 4.55274 0
M  V30 9192 H 879.968 3.14525 5.75682 0
M  V30 9193 H 879.885 4.87628 5.77715 0
M  V30 9194 H 881.153 4.06795 6.64935 0
M  V30 9195 N 885.382 -0.782676 1.36792 0
M  V30 9196 C 886.63 -1.53778 1.31136 0
M  V30 9197 C 886.951 -1.94706 -0.107014 0
M  V30 9198 O 886.221 -1.65465 -1.04872 0
M  V30 9199 H 884.801 -0.570328 0.482426 0
M  V30 9200 H 887.463 -0.932181 1.71162 0
M  V30 9201 H 886.559 -2.44224 1.94321 0
M  V30 9202 N 886.86 -1.21182 -1.00761 0
M  V30 9203 C 888.137 -0.936297 -1.71735 0
M  V30 9204 C 888.517 0.552585 -2.03739 0
M  V30 9205 O 887.865 1.51672 -1.70903 0
M  V30 9206 C 888.075 -1.81867 -2.97868 0
M  V30 9207 C 889.423 -2.06594 -3.7095 0
M  V30 9208 O 890.447 -1.79194 -3.07844 0
M  V30 9209 O 889.306 -2.5292 -4.84452 0
M  V30 9210 H 886.4 -0.350867 -0.74888 0
M  V30 9211 H 888.946 -1.32098 -1.06527 0
M  V30 9212 H 887.718 -2.82643 -2.70607 0
M  V30 9213 H 887.341 -1.43463 -3.70815 0
M  V30 9214 N 888.338 1.20213 -1.01915 0
M  V30 9215 C 889.585 1.89647 -0.709955 0
M  V30 9216 C 889.913 1.7901 0.760631 0
M  V30 9217 O 889.168 1.17028 1.56853 0
M  V30 9218 C 889.467 3.40232 -1.09438 0
M  V30 9219 C 889.133 3.7107 -2.5616 0
M  V30 9220 C 887.795 3.79196 -2.96249 0
M  V30 9221 C 890.147 3.85169 -3.51133 0
M  V30 9222 C 887.475 3.98882 -4.30244 0
M  V30 9223 C 889.827 4.06365 -4.8482 0
M  V30 9224 C 888.491 4.12722 -5.24611 0
M  V30 9225 H 887.761 0.693967 -0.259791 0
M  V30 9226 H 890.408 1.42419 -1.2802 0
M  V30 9227 H 888.713 3.89292 -0.442596 0
M  V30 9228 H 890.41 3.92257 -0.832811 0
M  V30 9229 H 887 3.65346 -2.24099 0
M  V30 9230 H 891.184 3.78243 -3.21319 0
M  V30 9231 H 886.44 4.02039 -4.60624 0
M  V30 9232 H 890.614 4.16216 -5.58334 0
M  V30 9233 H 888.241 4.27728 -6.28453 0
M  V30 9234 N 889.816 0.795718 1.36037 0
M  V30 9235 C 890.763 0.196548 2.29962 0
M  V30 9236 C 891.733 -0.663213 1.52285 0
M  V30 9237 O 892.918 -0.610574 1.80767 0
M  V30 9238 C 890.058 -0.657639 3.38776 0
M  V30 9239 C 889.171 0.221358 4.31433 0
M  V30 9240 C 888.306 -0.6398 5.27333 0
M  V30 9241 C 887.345 0.240265 6.11628 0
M  V30 9242 N 886.482 -0.580237 6.99698 0
M  V30 9243 H 891.322 1.00295 2.80615 0
M  V30 9244 H 888.859 0.506147 1.38118 0
M  V30 9245 H 890.817 -1.16793 4.00519 0
M  V30 9246 H 889.447 -1.42941 2.89426 0
M  V30 9247 H 888.499 0.84967 3.70789 0
M  V30 9248 H 889.811 0.899195 4.90628 0
M  V30 9249 H 888.965 -1.21566 5.94396 0
M  V30 9250 H 887.704 -1.35124 4.68607 0
M  V30 9251 H 886.709 0.828474 5.43522 0
M  V30 9252 H 887.934 0.949403 6.72431 0
M  V30 9253 H 885.88 -1.27585 6.43473 0
M  V30 9254 H 885.797 0.0397853 7.5599 0
M  V30 9255 H 887.065 -1.13972 7.71123 0
M  V30 9256 N 891.294 -1.47756 0.548274 0
M  V30 9257 C 892.257 -2.28379 -0.193857 0
M  V30 9258 C 893.257 -1.36436 -0.850986 0
M  V30 9259 O 894.447 -1.59154 -0.70822 0
M  V30 9260 C 891.579 -3.15858 -1.28243 0
M  V30 9261 H 892.772 -2.95458 0.514231 0
M  V30 9262 H 890.325 -1.53298 0.304879 0
M  V30 9263 H 891.06 -2.5345 -2.0232 0
M  V30 9264 H 890.845 -3.83512 -0.816148 0
M  V30 9265 H 892.335 -3.76627 -1.80393 0
M  V30 9266 N 892.772 -0.284283 -1.55015 0
M  V30 9267 C 893.705 0.640779 -2.19019 0
M  V30 9268 C 894.683 1.14541 -1.15409 0
M  V30 9269 O 895.867 1.21669 -1.43975 0
M  V30 9270 C 892.994 1.87488 -2.82074 0
M  V30 9271 C 892.04 1.50494 -3.99066 0
M  V30 9272 S 892.873 0.575218 -5.32402 0
M  V30 9273 C 894.029 1.81749 -5.98931 0
M  V30 9274 H 894.262 0.0969761 -2.97142 0
M  V30 9275 H 891.795 -0.0684929 -1.54248 0
M  V30 9276 H 893.753 2.58319 -3.19032 0
M  V30 9277 H 892.414 2.38984 -2.03828 0
M  V30 9278 H 891.607 2.42349 -4.41908 0
M  V30 9279 H 891.209 0.876741 -3.63578 0
M  V30 9280 H 893.501 2.76026 -6.18721 0
M  V30 9281 H 894.444 1.43192 -6.93471 0
M  V30 9282 H 894.852 1.98661 -5.28388 0
M  V30 9283 N 894.251 1.57596 -0.0117121 0
M  V30 9284 C 895.481 1.95077 0.680346 0
M  V30 9285 C 895.889 0.885793 1.67184 0
M  V30 9286 O 895.232 -0.142723 1.83145 0
M  V30 9287 C 895.294 3.28611 1.45791 0
M  V30 9288 C 894.958 4.52682 0.626706 0
M  V30 9289 C 895.955 5.19821 -0.0906223 0
M  V30 9290 C 893.64 4.99064 0.569229 0
M  V30 9291 C 895.634 6.31649 -0.854289 0
M  V30 9292 C 893.321 6.10779 -0.198155 0
M  V30 9293 C 894.319 6.76929 -0.908636 0
M  V30 9294 O 894.007 7.86501 -1.66348 0
M  V30 9295 H 893.739 0.647663 0.193672 0
M  V30 9296 H 896.293 2.05305 -0.0624969 0
M  V30 9297 H 894.523 3.14824 2.2455 0
M  V30 9298 H 896.212 3.51119 2.03642 0
M  V30 9299 H 896.978 4.84968 -0.0554421 0
M  V30 9300 H 892.857 4.47393 1.11178 0
M  V30 9301 H 896.401 6.83215 -1.40937 0
M  V30 9302 H 892.298 6.45072 -0.235114 0
M  V30 9303 H 893.066 8.03078 -1.58141 0
M  V30 9304 N 895.729 -0.261212 1.5542 0
M  V30 9305 C 896.676 -1.32315 1.89107 0
M  V30 9306 C 897.646 -1.48517 0.743767 0
M  V30 9307 O 898.831 -1.62733 0.996123 0
M  V30 9308 C 895.971 -2.67626 2.17877 0
M  V30 9309 C 895.084 -2.59549 3.45338 0
M  V30 9310 C 894.219 -3.87118 3.63748 0
M  V30 9311 C 893.258 -3.736 4.8486 0
M  V30 9312 N 892.395 -4.93029 4.99867 0
M  V30 9313 H 897.235 -1.02886 2.79675 0
M  V30 9314 H 894.772 -0.496812 1.38456 0
M  V30 9315 H 896.73 -3.4637 2.32559 0
M  V30 9316 H 895.36 -2.95232 1.30529 0
M  V30 9317 H 894.412 -1.72452 3.39064 0
M  V30 9318 H 895.724 -2.45465 4.34222 0
M  V30 9319 H 894.878 -4.74305 3.78312 0
M  V30 9320 H 893.617 -4.04084 2.73071 0
M  V30 9321 H 892.622 -2.84797 4.70288 0
M  V30 9322 H 893.847 -3.58143 5.76984 0
M  V30 9323 H 891.793 -5.10383 4.12123 0
M  V30 9324 H 891.71 -4.81521 5.82815 0
M  V30 9325 H 892.978 -5.81754 5.18828 0
M  V30 9326 N 897.207 -1.48554 -0.526253 0
M  V30 9327 C 898.17 -1.62868 -1.61266 0
M  V30 9328 C 899.17 -0.501762 -1.52771 0
M  V30 9329 O 900.36 -0.76764 -1.56374 0
M  V30 9330 C 897.492 -1.60238 -3.00893 0
M  V30 9331 H 898.685 -2.59742 -1.49913 0
M  V30 9332 H 896.238 -1.37207 -0.748595 0
M  V30 9333 H 896.973 -0.648545 -3.17749 0
M  V30 9334 H 896.758 -2.42054 -3.08468 0
M  V30 9335 H 898.248 -1.73455 -3.79872 0
M  V30 9336 N 898.685 0.775411 -1.37205 0
M  V30 9337 C 899.615 1.90258 -1.35367 0
M  V30 9338 C 900.596 1.68634 -0.222864 0
M  V30 9339 O 901.781 1.89545 -0.422659 0
M  V30 9340 C 898.911 3.27488 -1.15623 0
M  V30 9341 C 897.865 3.63668 -2.25676 0
M  V30 9342 C 897.191 4.994 -1.91059 0
M  V30 9343 C 898.491 3.70797 -3.67841 0
M  V30 9344 H 900.185 1.92053 -2.29687 0
M  V30 9345 H 897.731 0.922597 -1.10563 0
M  V30 9346 H 899.684 4.05976 -1.12968 0
M  V30 9347 H 898.408 3.26117 -0.177573 0
M  V30 9348 H 897.067 2.87486 -2.2748 0
M  V30 9349 H 896.715 4.94565 -0.917324 0
M  V30 9350 H 896.415 5.24576 -2.64751 0
M  V30 9351 H 897.939 5.80291 -1.89985 0
M  V30 9352 H 899.353 4.39444 -3.68187 0
M  V30 9353 H 897.75 4.07468 -4.40556 0
M  V30 9354 H 898.82 2.71549 -4.01732 0
M  V30 9355 N 900.163 1.21714 1.00117 0
M  V30 9356 C 901.073 0.99597 2.12409 0
M  V30 9357 C 902.089 -0.0531431 1.73919 0
M  V30 9358 O 903.265 0.137757 2.00928 0
M  V30 9359 C 900.33 0.567593 3.42022 0
M  V30 9360 C 899.391 1.68936 3.94663 0
M  V30 9361 C 898.624 1.28133 5.1809 0
M  V30 9362 O 898.847 0.156574 5.70185 0
M  V30 9363 O 897.781 2.0947 5.64275 0
M  V30 9364 H 901.607 1.93657 2.33946 0
M  V30 9365 H 899.192 1.00236 1.10784 0
M  V30 9366 H 901.074 0.338664 4.20037 0
M  V30 9367 H 899.749 -0.34424 3.21864 0
M  V30 9368 H 898.656 1.97274 3.17858 0
M  V30 9369 H 899.989 2.57876 4.19238 0
M  V30 9370 N 901.641 -1.19671 1.02551 0
M  V30 9371 C 902.889 -1.88894 0.71858 0
M  V30 9372 C 903.21 -1.79797 -0.754856 0
M  V30 9373 O 902.48 -1.20621 -1.54362 0
M  V30 9374 H 901.06 -0.699244 0.262806 0
M  V30 9375 H 903.722 -1.45298 1.29902 0
M  V30 9376 H 902.818 -2.95309 1.00989 0
M  V30 9377 N 903.119 -0.802921 -1.35613 0
M  V30 9378 C 904.535 -0.486214 -1.52014 0
M  V30 9379 C 904.735 0.993219 -1.75321 0
M  V30 9380 O 903.791 1.77835 -1.79251 0
M  V30 9381 C 905.104 -1.32839 -2.69767 0
M  V30 9382 C 906.652 -1.32346 -2.83643 0
M  V30 9383 C 907.127 -2.14967 -4.04417 0
M  V30 9384 N 908.618 -2.12484 -4.11588 0
M  V30 9385 C 909.353 -2.73173 -5.04147 0
M  V30 9386 N 908.849 -3.42774 -6.02061 0
M  V30 9387 N 910.642 -2.62834 -4.96865 0
M  V30 9388 H 902.793 -1.76109 -1.18741 0
M  V30 9389 H 905.056 -0.74936 -0.580658 0
M  V30 9390 H 904.762 -2.37813 -2.5911 0
M  V30 9391 H 904.636 -0.979058 -3.64272 0
M  V30 9392 H 907.023 -0.281586 -2.93753 0
M  V30 9393 H 907.104 -1.71264 -1.90006 0
M  V30 9394 H 906.748 -3.19193 -3.95068 0
M  V30 9395 H 906.678 -1.73411 -4.97228 0
M  V30 9396 H 909.169 -1.61839 -3.41492 0
M  V30 9397 H 909.482 -3.86378 -6.69277 0
M  V30 9398 H 907.827 -3.46878 -6.02246 0
M  V30 9399 H 911.018 -2.08049 -4.19325 0
M  V30 9400 H 911.191 -3.10421 -5.68808 0
M  V30 9401 N 904.597 1.47463 -0.556102 0
M  V30 9402 C 906.008 1.86298 -0.122429 0
M  V30 9403 C 906.359 1.46285 1.30749 0
M  V30 9404 O 905.484 0.865405 1.98342 0
M  V30 9405 C 906.079 3.38115 -0.215407 0
M  V30 9406 C 904.638 3.76046 0.163223 0
M  V30 9407 C 903.785 2.71515 -0.563466 0
M  V30 9408 H 906.736 1.38996 -0.765888 0
M  V30 9409 H 906.757 3.76263 0.566271 0
M  V30 9410 H 906.269 3.67207 -1.25622 0
M  V30 9411 H 904.37 3.5257 1.20519 0
M  V30 9412 H 904.483 4.78705 -0.194568 0
M  V30 9413 H 902.847 2.54699 -0.00667879 0
M  V30 9414 H 903.63 3.03449 -1.60542 0
M  V30 9415 N 906.075 0.2925 1.54862 0
M  V30 9416 C 907.008 -0.629155 2.19356 0
M  V30 9417 C 907.986 -1.13927 1.16014 0
M  V30 9418 O 909.17 -1.20904 1.44618 0
M  V30 9419 C 906.297 -1.8599 2.83064 0
M  V30 9420 C 905.343 -1.48376 3.99859 0
M  V30 9421 S 906.176 -0.546976 5.32699 0
M  V30 9422 C 907.332 -1.7857 5.99886 0
M  V30 9423 H 907.565 -0.0812166 2.97189 0
M  V30 9424 H 905.098 0.0766721 1.5421 0
M  V30 9425 H 907.056 -2.56623 3.20398 0
M  V30 9426 H 905.717 -2.37899 2.05092 0
M  V30 9427 H 904.91 -2.40002 4.43187 0
M  V30 9428 H 904.512 -0.857447 3.64038 0
M  V30 9429 H 906.804 -2.7274 6.20177 0
M  V30 9430 H 907.747 -1.39513 6.9422 0
M  V30 9431 H 908.155 -1.95856 5.29434 0
M  V30 9432 N 907.553 -1.57587 0.0200696 0
M  V30 9433 C 908.781 -1.95718 -0.670964 0
M  V30 9434 C 909.196 -0.896081 -1.6618 0
M  V30 9435 O 908.553 0.123037 -1.82085 0
M  V30 9436 C 908.604 -3.33904 -1.38529 0
M  V30 9437 O 908.325 -4.35943 -0.434167 0
M  V30 9438 C 909.826 -3.86614 -2.16898 0
M  V30 9439 H 907.046 -0.644819 -0.185606 0
M  V30 9440 H 909.59 -2.04354 0.0771495 0
M  V30 9441 H 907.745 -3.26515 -2.08487 0
M  V30 9442 H 908.159 -5.16001 -0.940378 0
M  V30 9443 H 909.633 -4.85673 -2.62346 0
M  V30 9444 H 910.11 -3.20379 -3.00423 0
M  V30 9445 H 910.716 -3.97243 -1.51916 0
M  V30 9446 N 909.032 0.252966 -1.55557 0
M  V30 9447 C 910.278 0.983306 -1.77367 0
M  V30 9448 C 910.611 1.85203 -0.584258 0
M  V30 9449 O 909.886 1.89963 0.417644 0
M  V30 9450 C 910.169 1.84896 -3.09007 0
M  V30 9451 C 910.022 1.00883 -4.38341 0
M  V30 9452 C 911.341 2.83254 -3.36831 0
M  V30 9453 H 908.46 0.356056 -0.645286 0
M  V30 9454 H 911.102 0.254232 -1.88291 0
M  V30 9455 H 909.252 2.47058 -2.99825 0
M  V30 9456 H 910.924 0.40638 -4.59507 0
M  V30 9457 H 909.167 0.31297 -4.3267 0
M  V30 9458 H 909.838 1.64818 -5.2682 0
M  V30 9459 H 912.314 2.31228 -3.45937 0
M  V30 9460 H 911.19 3.40949 -4.30169 0
M  V30 9461 H 911.451 3.59407 -2.57447 0
M  V30 9462 N 910.51 1.48831 0.518367 0
M  V30 9463 C 911.926 1.35209 0.847979 0
M  V30 9464 C 912.126 0.371927 1.98038 0
M  V30 9465 O 911.182 -0.202681 2.51685 0
M  V30 9466 C 912.495 2.7552 1.20455 0
M  V30 9467 C 914.043 2.84094 1.31377 0
M  V30 9468 C 914.518 4.25132 1.70372 0
M  V30 9469 N 916.009 4.27861 1.77453 0
M  V30 9470 C 916.744 5.3394 2.09035 0
M  V30 9471 N 916.24 6.50285 2.3896 0
M  V30 9472 N 918.033 5.21343 2.10139 0
M  V30 9473 H 910.184 2.11166 -0.228624 0
M  V30 9474 H 912.447 0.94717 -0.0396599 0
M  V30 9475 H 912.153 3.48861 0.445991 0
M  V30 9476 H 912.027 3.09785 2.15204 0
M  V30 9477 H 914.414 2.11001 2.06307 0
M  V30 9478 H 914.495 2.53433 0.347203 0
M  V30 9479 H 914.139 4.98745 0.959975 0
M  V30 9480 H 914.069 4.53245 2.68098 0
M  V30 9481 H 916.56 3.43945 1.56557 0
M  V30 9482 H 916.873 7.26961 2.62196 0
M  V30 9483 H 915.218 6.5354 2.36454 0
M  V30 9484 H 918.409 4.29462 1.86225 0
M  V30 9485 H 918.582 6.04112 2.34419 0
M  V30 9486 N 911.988 -0.768124 1.37614 0
M  V30 9487 C 913.218 -1.555 1.36027 0
M  V30 9488 C 913.626 -1.89119 -0.0554273 0
M  V30 9489 O 912.969 -1.52203 -1.02859 0
M  V30 9490 C 913.031 -2.8906 2.13739 0
M  V30 9491 C 912.695 -2.78058 3.62674 0
M  V30 9492 C 913.692 -2.48841 4.5648 0
M  V30 9493 C 911.377 -2.95966 4.05844 0
M  V30 9494 C 913.371 -2.37665 5.91434 0
M  V30 9495 C 911.058 -2.84411 5.40882 0
M  V30 9496 C 912.056 -2.55301 6.33491 0
M  V30 9497 O 911.744 -2.43779 7.66046 0
M  V30 9498 H 911.476 -0.488263 0.467521 0
M  V30 9499 H 914.03 -0.959583 1.81607 0
M  V30 9500 H 912.26 -3.50735 1.62854 0
M  V30 9501 H 913.949 -3.5048 2.04741 0
M  V30 9502 H 914.715 -2.34687 4.24437 0
M  V30 9503 H 910.594 -3.17625 3.34119 0
M  V30 9504 H 914.138 -2.14865 6.63686 0
M  V30 9505 H 910.035 -2.98134 5.72527 0
M  V30 9506 H 910.803 -2.59101 7.76408 0
M  V30 9507 N 913.466 -1.22244 -0.994698 0
M  V30 9508 C 914.396 -1.01513 -2.10279 0
M  V30 9509 C 915.377 0.0633365 -1.69982 0
M  V30 9510 O 916.562 -0.0985268 -1.9395 0
M  V30 9511 C 913.692 -0.59016 -3.42249 0
M  V30 9512 C 912.646 -1.61436 -3.96387 0
M  V30 9513 C 911.972 -1.04528 -5.24383 0
M  V30 9514 C 913.272 -3.00388 -4.27276 0
M  V30 9515 H 914.966 -1.94194 -2.2788 0
M  V30 9516 H 912.512 -0.935094 -1.09508 0
M  V30 9517 H 914.465 -0.432254 -4.19177 0
M  V30 9518 H 913.189 0.372308 -3.24471 0
M  V30 9519 H 911.848 -1.76001 -3.21589 0
M  V30 9520 H 911.496 -0.0742225 -5.02945 0
M  V30 9521 H 911.196 -1.72949 -5.61571 0
M  V30 9522 H 912.72 -0.898922 -6.03947 0
M  V30 9523 H 914.134 -2.89207 -4.95007 0
M  V30 9524 H 912.531 -3.65916 -4.75631 0
M  V30 9525 H 913.601 -3.50456 -3.35125 0
M  V30 9526 N 914.944 1.19125 -1.03184 0
M  V30 9527 C 916.221 1.84674 -0.644574 0
M  V30 9528 C 916.601 1.92042 0.876534 0
M  V30 9529 O 915.949 1.43965 1.77444 0
M  V30 9530 C 916.159 3.23477 -1.3101 0
M  V30 9531 C 917.507 3.99608 -1.43524 0
M  V30 9532 O 918.531 3.32886 -1.2675 0
M  V30 9533 O 917.39 5.19132 -1.70776 0
M  V30 9534 H 914.484 0.795968 -0.22442 0
M  V30 9535 H 917.03 1.2659 -1.13018 0
M  V30 9536 H 915.802 3.12967 -2.34878 0
M  V30 9537 H 915.425 3.89209 -0.812547 0
M  V30 9538 N 916.422 0.810101 1.35185 0
M  V30 9539 C 917.833 0.452616 1.81131 0
M  V30 9540 C 918.184 -1.02573 1.67252 0
M  V30 9541 O 917.309 -1.79735 1.20516 0
M  V30 9542 C 917.904 0.814775 3.28857 0
M  V30 9543 C 916.463 0.509839 3.72931 0
M  V30 9544 C 915.61 1.03852 2.57119 0
M  V30 9545 H 918.561 1.00143 1.23114 0
M  V30 9546 H 918.582 0.113635 3.8033 0
M  V30 9547 H 918.094 1.89078 3.38926 0
M  V30 9548 H 916.195 -0.557289 3.68409 0
M  V30 9549 H 916.308 1.04493 4.67566 0
M  V30 9550 H 914.672 0.460671 2.50499 0
M  V30 9551 H 915.455 2.12071 2.69964 0
M  V30 9552 N 917.9 -1.47166 0.563914 0
M  V30 9553 C 919.311 -1.86231 0.132307 0
M  V30 9554 C 919.662 -1.46976 -1.29971 0
M  V30 9555 O 918.787 -0.875911 -1.97881 0
M  V30 9556 C 919.382 -3.37996 0.233335 0
M  V30 9557 C 917.941 -3.76127 -0.143278 0
M  V30 9558 C 917.088 -2.71212 0.577857 0
M  V30 9559 H 920.039 -1.38588 0.773249 0
M  V30 9560 H 920.06 -3.76558 -0.546309 0
M  V30 9561 H 919.572 -3.66535 1.27568 0
M  V30 9562 H 917.673 -3.53205 -1.18648 0
M  V30 9563 H 917.786 -4.78595 0.219952 0
M  V30 9564 H 916.15 -2.54692 0.020186 0
M  V30 9565 H 916.933 -3.02593 1.62149 0
M  V30 9566 N 919.378 -0.300708 -1.54705 0
M  V30 9567 C 920.308 0.568675 -2.26469 0
M  V30 9568 C 921.289 1.13817 -1.26411 0
M  V30 9569 O 922.474 1.16756 -1.55183 0
M  V30 9570 C 919.604 1.74077 -3.00524 0
M  V30 9571 C 918.558 1.30165 -4.07727 0
M  V30 9572 C 917.884 2.55888 -4.69495 0
M  V30 9573 C 919.184 0.433106 -5.20501 0
M  V30 9574 H 920.878 -0.0298851 -2.99385 0
M  V30 9575 H 918.424 -0.0158135 -1.43991 0
M  V30 9576 H 920.377 2.35506 -3.49449 0
M  V30 9577 H 919.101 2.36556 -2.25186 0
M  V30 9578 H 917.76 0.710414 -3.59651 0
M  V30 9579 H 917.408 3.16681 -3.90797 0
M  V30 9580 H 917.108 2.27207 -5.41895 0
M  V30 9581 H 918.632 3.18121 -5.21183 0
M  V30 9582 H 920.046 0.95307 -5.65322 0
M  V30 9583 H 918.443 0.240085 -5.9962 0
M  V30 9584 H 919.513 -0.541866 -4.81863 0
M  V30 9585 N 920.856 1.57574 -0.0284266 0
M  V30 9586 C 921.806 2.06674 0.962804 0
M  V30 9587 C 922.79 0.967115 1.28591 0
M  V30 9588 O 923.982 1.23068 1.27214 0
M  V30 9589 C 921.111 2.59682 2.24545 0
M  V30 9590 C 920.197 3.76573 1.95073 0
M  V30 9591 N 920.588 4.8721 1.35869 0
M  V30 9592 C 918.886 3.85046 2.25068 0
M  V30 9593 C 919.587 5.68436 1.23514 0
M  V30 9594 N 918.563 5.15323 1.73041 0
M  V30 9595 H 922.365 2.89615 0.500013 0
M  V30 9596 H 919.879 1.61437 0.176604 0
M  V30 9597 H 921.876 2.93148 2.96428 0
M  V30 9598 H 920.536 1.7817 2.71451 0
M  V30 9599 H 921.547 5.07477 1.03379 0
M  V30 9600 H 918.224 3.14439 2.74653 0
M  V30 9601 H 919.614 6.67387 0.777403 0
M  V30 9602 N 922.334 -0.244713 1.55689 0
M  V30 9603 C 923.244 -1.32447 1.93636 0
M  V30 9604 C 924.26 -1.52541 0.837086 0
M  V30 9605 O 925.436 -1.66121 1.13867 0
M  V30 9606 C 922.501 -2.65864 2.22525 0
M  V30 9607 C 921.562 -2.54273 3.45896 0
M  V30 9608 C 920.795 -3.81327 3.73397 0
M  V30 9609 O 921.018 -4.83307 3.02936 0
M  V30 9610 O 919.952 -3.79829 4.66919 0
M  V30 9611 H 923.778 -1.03255 2.85608 0
M  V30 9612 H 921.363 -0.445652 1.42598 0
M  V30 9613 H 923.245 -3.447 2.42404 0
M  V30 9614 H 921.92 -2.94784 1.33731 0
M  V30 9615 H 920.827 -1.73715 3.31321 0
M  V30 9616 H 922.16 -2.30297 4.34999 0
M  V30 9617 N 923.813 -1.49104 -0.510467 0
M  V30 9618 C 925.06 -1.58112 -1.26518 0
M  V30 9619 C 925.388 -0.263603 -1.92705 0
M  V30 9620 O 924.643 0.747743 -1.80852 0
M  V30 9621 C 924.942 -2.68259 -2.36161 0
M  V30 9622 C 924.608 -4.10069 -1.87495 0
M  V30 9623 C 923.27 -4.48662 -1.73942 0
M  V30 9624 C 925.622 -4.98859 -1.5096 0
M  V30 9625 C 922.95 -5.73829 -1.22217 0
M  V30 9626 C 925.302 -6.24535 -1.00691 0
M  V30 9627 C 923.966 -6.61967 -0.857691 0
M  V30 9628 H 923.236 -0.578574 -0.462962 0
M  V30 9629 H 925.883 -1.82899 -0.567475 0
M  V30 9630 H 924.188 -2.37407 -3.11681 0
M  V30 9631 H 925.885 -2.7244 -2.9424 0
M  V30 9632 H 922.475 -3.79601 -1.99001 0
M  V30 9633 H 926.659 -4.69706 -1.60282 0
M  V30 9634 H 921.915 -6.01539 -1.09368 0
M  V30 9635 H 926.089 -6.9272 -0.71498 0
M  V30 9636 H 923.716 -7.58839 -0.454702 0
M  V30 9637 N 925.291 0.760815 -1.38019 0
M  V30 9638 C 926.537 1.52198 -1.34028 0
M  V30 9639 C 926.87 1.94067 0.0718309 0
M  V30 9640 O 926.145 1.64895 1.0315 0
M  V30 9641 C 926.428 2.77954 -2.2894 0
M  V30 9642 C 926.281 2.42269 -3.7898 0
M  V30 9643 C 927.6 3.79943 -2.22107 0
M  V30 9644 H 924.719 0.552131 -0.488181 0
M  V30 9645 H 927.361 0.871971 -1.6881 0
M  V30 9646 H 925.511 3.33419 -1.9941 0
M  V30 9647 H 927.183 1.92635 -4.19153 0
M  V30 9648 H 925.426 1.74822 -3.97014 0
M  V30 9649 H 926.097 3.32211 -4.4084 0
M  V30 9650 H 928.573 3.34 -2.4816 0
M  V30 9651 H 927.449 4.6564 -2.90639 0
M  V30 9652 H 927.71 4.25004 -1.21753 0
M  V30 9653 N 926.769 1.22769 0.988202 0
M  V30 9654 C 928.18 1.0512 1.54294 0
M  V30 9655 C 928.531 -0.383904 1.92407 0
M  V30 9656 O 927.656 -1.26955 1.75246 0
M  V30 9657 C 928.251 1.90198 2.80375 0
M  V30 9658 C 926.81 1.76831 3.32276 0
M  V30 9659 C 925.957 1.86377 2.05326 0
M  V30 9660 H 928.908 1.36546 0.808758 0
M  V30 9661 H 928.929 1.42216 3.52923 0
M  V30 9662 H 928.441 2.9464 2.52605 0
M  V30 9663 H 926.542 0.751412 3.64945 0
M  V30 9664 H 926.655 2.59771 4.02562 0
M  V30 9665 H 925.019 1.2987 2.19103 0
M  V30 9666 H 925.802 2.9236 1.79946 0
M  V30 9667 N 928.247 -1.18576 1.03814 0
M  V30 9668 C 929.197 -2.20034 0.597409 0
M  V30 9669 C 930.181 -1.56849 -0.358796 0
M  V30 9670 O 931.373 -1.761 -0.178262 0
M  V30 9671 C 928.502 -3.43276 -0.0407965 0
M  V30 9672 C 927.588 -4.13588 0.938404 0
M  V30 9673 N 927.979 -4.59941 2.10447 0
M  V30 9674 C 926.277 -4.3941 0.763853 0
M  V30 9675 C 926.978 -5.1404 2.72282 0
M  V30 9676 N 925.954 -5.05401 2.00176 0
M  V30 9677 H 929.756 -2.53562 1.48606 0
M  V30 9678 H 927.27 -1.34753 0.906384 0
M  V30 9679 H 929.267 -4.15217 -0.374222 0
M  V30 9680 H 927.927 -3.11245 -0.925014 0
M  V30 9681 H 928.938 -4.54471 2.48347 0
M  V30 9682 H 925.615 -4.1744 -0.0704869 0
M  V30 9683 H 927.005 -5.60128 3.71088 0
M  V30 9684 N 929.725 -0.817259 -1.34754 0
M  V30 9685 C 930.953 -0.415451 -2.02686 0
M  V30 9686 C 931.368 0.97688 -1.61563 0
M  V30 9687 O 930.725 1.63125 -0.818321 0
M  V30 9688 C 930.776 -0.501486 -3.58005 0
M  V30 9689 O 930.497 -1.83893 -3.97637 0
M  V30 9690 C 931.998 -0.0938504 -4.43201 0
M  V30 9691 H 929.218 -0.16742 -0.649778 0
M  V30 9692 H 931.762 -1.10384 -1.7215 0
M  V30 9693 H 929.917 0.138766 -3.87151 0
M  V30 9694 H 930.331 -1.8092 -4.92309 0
M  V30 9695 H 931.805 -0.205145 -5.51619 0
M  V30 9696 H 932.282 0.962011 -4.28535 0
M  V30 9697 H 932.888 -0.707677 -4.19371 0
M  V30 9698 N 931.203 1.46865 -0.571711 0
M  V30 9699 C 932.113 2.33979 0.170571 0
M  V30 9700 C 933.129 1.49083 0.897239 0
M  V30 9701 O 934.305 1.81979 0.862888 0
M  V30 9702 C 931.37 3.26063 1.17831 0
M  V30 9703 C 930.431 4.26855 0.457499 0
M  V30 9704 C 929.664 5.14539 1.41722 0
M  V30 9705 O 929.887 5.04945 2.65305 0
M  V30 9706 O 928.821 5.94612 0.9338 0
M  V30 9707 H 932.647 2.98781 -0.544396 0
M  V30 9708 H 930.232 1.4566 -0.332198 0
M  V30 9709 H 932.114 3.82903 1.75965 0
M  V30 9710 H 930.789 2.63871 1.87493 0
M  V30 9711 H 929.696 3.73734 -0.165406 0
M  V30 9712 H 931.029 4.91802 -0.197953 0
M  V30 9713 N 932.681 0.308908 1.54543 0
M  V30 9714 C 933.591 -0.572939 2.27496 0
M  V30 9715 C 934.607 -1.14171 1.31305 0
M  V30 9716 O 935.783 -1.16481 1.64299 0
M  V30 9717 C 932.848 -1.72483 3.0075 0
M  V30 9718 C 931.909 -1.18934 4.12496 0
M  V30 9719 C 931.142 -2.28634 4.82247 0
M  V30 9720 O 931.365 -3.48691 4.5141 0
M  V30 9721 O 930.299 -1.94879 5.69478 0
M  V30 9722 H 934.125 0.0190877 3.03694 0
M  V30 9723 H 931.71 0.0750943 1.49211 0
M  V30 9724 H 933.592 -2.39578 3.46671 0
M  V30 9725 H 932.267 -2.30332 2.2744 0
M  V30 9726 H 931.174 -0.483904 3.70957 0
M  V30 9727 H 932.507 -0.656185 4.87806 0
M  V30 9728 N 934.159 -1.57557 0.0367827 0
M  V30 9729 C 935.069 -2.14148 -0.958017 0
M  V30 9730 C 936.085 -1.09564 -1.35173 0
M  V30 9731 O 937.261 -1.4166 -1.43158 0
M  V30 9732 C 934.326 -2.6636 -2.21931 0
M  V30 9733 C 933.387 -3.85688 -1.8853 0
M  V30 9734 C 932.62 -4.35401 -3.08645 0
M  V30 9735 O 932.843 -3.8425 -4.21554 0
M  V30 9736 O 931.777 -5.27158 -2.90497 0
M  V30 9737 H 935.603 -2.99442 -0.506797 0
M  V30 9738 H 933.188 -1.48259 -0.184275 0
M  V30 9739 H 935.07 -2.99976 -2.9596 0
M  V30 9740 H 933.745 -1.84145 -2.66219 0
M  V30 9741 H 932.652 -3.56985 -1.11861 0
M  V30 9742 H 933.985 -4.69089 -1.49052 0
M  V30 9743 N 935.637 0.236453 -1.55816 0
M  V30 9744 C 936.569 1.31602 -1.87653 0
M  V30 9745 C 937.582 1.43782 -0.763584 0
M  V30 9746 O 938.771 1.44945 -1.04178 0
M  V30 9747 C 935.871 2.69342 -2.05689 0
M  V30 9748 C 935.044 2.79298 -3.36617 0
M  V30 9749 C 934.103 3.97952 -3.44268 0
M  V30 9750 O 933.129 3.86989 -4.17406 0
M  V30 9751 N 934.331 5.11594 -2.74321 0
M  V30 9752 H 937.096 1.04623 -2.80845 0
M  V30 9753 H 934.657 0.426534 -1.5618 0
M  V30 9754 H 936.649 3.47074 -2.08138 0
M  V30 9755 H 935.219 2.88984 -1.19192 0
M  V30 9756 H 934.439 1.8816 -3.46395 0
M  V30 9757 H 935.727 2.82908 -4.22895 0
M  V30 9758 H 935.125 5.23394 -2.14651 0
M  V30 9759 H 933.682 5.87422 -2.8245 0
M  V30 9760 N 937.115 1.49373 0.502552 0
M  V30 9761 C 938.078 1.65413 1.58654 0
M  V30 9762 C 939.078 0.526003 1.51953 0
M  V30 9763 O 940.268 0.792421 1.55133 0
M  V30 9764 C 937.4 1.65005 2.98306 0
M  V30 9765 H 938.593 2.62095 1.45762 0
M  V30 9766 H 936.146 1.38381 0.726672 0
M  V30 9767 H 936.881 0.699014 3.16677 0
M  V30 9768 H 936.666 2.46931 3.04578 0
M  V30 9769 H 938.156 1.79477 3.77065 0
M  V30 9770 N 938.594 -0.753485 1.38421 0
M  V30 9771 C 939.504 -1.89797 1.37892 0
M  V30 9772 C 940.52 -1.71797 0.276023 0
M  V30 9773 O 941.696 -1.94718 0.514464 0
M  V30 9774 C 938.761 -3.25166 1.20284 0
M  V30 9775 C 937.822 -3.55691 2.4038 0
M  V30 9776 C 937.055 -4.84601 2.23602 0
M  V30 9777 O 937.278 -5.56985 1.22979 0
M  V30 9778 O 936.212 -5.14605 3.12194 0
M  V30 9779 H 940.038 -1.93197 2.34326 0
M  V30 9780 H 937.623 -0.898775 1.19342 0
M  V30 9781 H 939.505 -4.06099 1.12525 0
M  V30 9782 H 938.18 -3.22577 0.269352 0
M  V30 9783 H 937.087 -2.74919 2.53714 0
M  V30 9784 H 938.42 -3.6304 3.32359 0
M  V30 9785 N 940.072 -1.23292 -0.981677 0
M  V30 9786 C 941.002 -1.03738 -2.09191 0
M  V30 9787 C 941.983 0.0453041 -1.7004 0
M  V30 9788 O 943.168 -0.119092 -1.93834 0
M  V30 9789 C 940.298 -0.626426 -3.41604 0
M  V30 9790 C 939.252 -1.65631 -3.94652 0
M  V30 9791 C 938.578 -1.10084 -5.23245 0
M  V30 9792 C 939.878 -3.04903 -4.24066 0
M  V30 9793 H 941.572 -1.966 -2.25807 0
M  V30 9794 H 939.118 -0.946656 -1.0851 0
M  V30 9795 H 941.071 -0.476689 -4.18695 0
M  V30 9796 H 939.795 0.337873 -3.24848 0
M  V30 9797 H 938.454 -1.79402 -3.19704 0
M  V30 9798 H 938.102 -0.127562 -5.02838 0
M  V30 9799 H 937.802 -1.78896 -5.59705 0
M  V30 9800 H 939.326 -0.962928 -6.02959 0
M  V30 9801 H 940.74 -2.94441 -4.91912 0
M  V30 9802 H 939.137 -3.70941 -4.71724 0
M  V30 9803 H 940.207 -3.53991 -3.31389 0
M  V30 9804 N 941.55 1.18024 -1.04442 0
M  V30 9805 C 942.513 2.19992 -0.643136 0
M  V30 9806 C 943.513 1.57949 0.301444 0
M  V30 9807 O 944.703 1.73986 0.0863341 0
M  V30 9808 C 941.835 3.40853 0.0565208 0
M  V30 9809 H 943.028 2.57008 -1.54554 0
M  V30 9810 H 940.581 1.31974 -0.837408 0
M  V30 9811 H 941.316 3.09373 0.972553 0
M  V30 9812 H 941.101 3.87128 -0.622439 0
M  V30 9813 H 942.591 4.16344 0.323652 0
M  V30 9814 N 943.028 0.824394 1.34319 0
M  V30 9815 C 943.975 0.245282 2.29493 0
M  V30 9816 C 944.945 -0.630762 1.53657 0
M  V30 9817 O 946.13 -0.572094 1.82021 0
M  V30 9818 C 943.27 -0.585631 3.40095 0
M  V30 9819 C 942.383 0.312821 4.30866 0
M  V30 9820 C 941.518 -0.527801 5.28571 0
M  V30 9821 C 940.557 0.369946 6.10981 0
M  V30 9822 N 939.694 -0.43169 7.00772 0
M  V30 9823 H 944.534 1.06225 2.78425 0
M  V30 9824 H 942.071 0.53533 1.37013 0
M  V30 9825 H 944.029 -1.08271 4.02906 0
M  V30 9826 H 942.659 -1.3677 2.92393 0
M  V30 9827 H 941.711 0.928129 3.68904 0
M  V30 9828 H 943.023 1.00306 4.8861 0
M  V30 9829 H 942.177 -1.0893 5.96841 0
M  V30 9830 H 940.916 -1.25154 4.71368 0
M  V30 9831 H 939.921 0.943577 5.41643 0
M  V30 9832 H 941.146 1.09182 6.70266 0
M  V30 9833 H 939.092 -1.13908 6.46035 0
M  V30 9834 H 939.009 0.200133 7.55735 0
M  V30 9835 H 940.277 -0.975894 7.73367 0
M  V30 9836 N 944.506 -1.46559 0.579492 0
M  V30 9837 C 945.454 -2.3199 -0.168413 0
M  V30 9838 C 946.448 -1.44288 -0.887551 0
M  V30 9839 O 947.654 -1.60931 -0.806305 0
M  V30 9840 H 944.029 -0.748431 -0.0731799 0
M  V30 9841 H 946 -2.92886 0.570973 0
M  V30 9842 C 944.749 -3.27392 -1.1709 0
M  V30 9843 H 944.072 -3.94853 -0.626958 0
M  V30 9844 H 945.512 -3.89955 -1.66467 0
M  V30 9845 C 943.971 -2.52511 -2.23024 0
M  V30 9846 O 944.501 -2.2858 -3.30324 0
M  V30 9847 N 942.707 -2.1313 -1.97545 0
M  V30 9848 H 942.254 -2.32793 -1.10297 0
M  V30 9849 H 942.212 -1.63348 -2.68635 0
M  V30 9850 N 945.984 -0.3171 -1.54377 0
M  V30 9851 C 946.917 0.594178 -2.20329 0
M  V30 9852 C 947.895 1.12067 -1.17812 0
M  V30 9853 O 949.079 1.18588 -1.46524 0
M  V30 9854 C 946.206 1.81463 -2.85987 0
M  V30 9855 C 945.252 1.41996 -4.02168 0
M  V30 9856 S 946.085 0.462159 -5.33502 0
M  V30 9857 C 947.241 1.69004 -6.02651 0
M  V30 9858 H 947.474 0.0339261 -2.97281 0
M  V30 9859 H 945.007 -0.101196 -1.54068 0
M  V30 9860 H 946.965 2.51494 -3.2444 0
M  V30 9861 H 945.626 2.34606 -2.08851 0
M  V30 9862 H 944.819 2.32921 -4.4695 0
M  V30 9863 H 944.421 0.799423 -3.65356 0
M  V30 9864 H 946.713 2.62839 -6.24437 0
M  V30 9865 H 947.656 1.28451 -6.96352 0
M  V30 9866 H 948.064 1.87408 -5.32483 0
M  V30 9867 N 947.462 1.57535 -0.0451378 0
M  V30 9868 C 948.71 1.92071 0.628743 0
M  V30 9869 C 949.031 0.923635 1.71738 0
M  V30 9870 O 948.301 -0.0324376 1.95873 0
M  V30 9871 H 946.881 0.708995 0.235233 0
M  V30 9872 H 949.543 1.9466 -0.0967177 0
M  V30 9873 H 948.639 2.9314 1.07123 0
M  V30 9874 N 948.94 -0.228186 1.55939 0
M  V30 9875 C 949.87 -1.28607 1.94891 0
M  V30 9876 C 950.851 -1.49236 0.816245 0
M  V30 9877 O 952.036 -1.61531 1.07803 0
M  V30 9878 C 949.166 -2.63719 2.25986 0
M  V30 9879 C 948.12 -2.57757 3.4168 0
M  V30 9880 C 947.446 -3.96837 3.58364 0
M  V30 9881 C 948.746 -2.13116 4.76843 0
M  V30 9882 H 950.44 -0.962531 2.83506 0
M  V30 9883 H 947.986 -0.461577 1.36402 0
M  V30 9884 H 949.939 -3.37878 2.51826 0
M  V30 9885 H 948.663 -2.97747 1.34217 0
M  V30 9886 H 947.322 -1.86055 3.15878 0
M  V30 9887 H 946.97 -4.28162 2.63982 0
M  V30 9888 H 946.67 -3.93731 4.36176 0
M  V30 9889 H 948.194 -4.72668 3.86545 0
M  V30 9890 H 949.608 -2.77015 5.01932 0
M  V30 9891 H 948.005 -2.21083 5.57891 0
M  V30 9892 H 949.075 -1.08326 4.72645 0
M  V30 9893 N 950.418 -1.49637 -0.494624 0
M  V30 9894 C 951.646 -1.63164 -1.2722 0
M  V30 9895 C 952.061 -0.305552 -1.86311 0
M  V30 9896 O 951.418 0.709758 -1.68133 0
M  V30 9897 C 951.469 -2.70524 -2.39789 0
M  V30 9898 O 951.19 -3.97991 -1.83126 0
M  V30 9899 C 952.691 -2.94814 -3.31058 0
M  V30 9900 H 949.911 -0.54912 -0.385627 0
M  V30 9901 H 952.455 -1.95711 -0.593081 0
M  V30 9902 H 950.61 -2.40738 -3.03519 0
M  V30 9903 H 951.024 -4.57179 -2.57075 0
M  V30 9904 H 952.498 -3.73653 -4.06309 0
M  V30 9905 H 952.975 -2.04974 -3.88436 0
M  V30 9906 H 953.581 -3.26042 -2.73088 0
M  V30 9907 N 951.896 0.746133 -1.38819 0
M  V30 9908 C 952.826 1.87344 -1.39372 0
M  V30 9909 C 953.807 1.68123 -0.258583 0
M  V30 9910 O 954.992 1.88606 -0.462769 0
M  V30 9911 C 952.122 3.24962 -1.22543 0
M  V30 9912 C 951.076 3.58799 -2.33339 0
M  V30 9913 C 950.402 4.95235 -2.01609 0
M  V30 9914 C 951.702 3.62911 -3.75624 0
M  V30 9915 H 953.396 1.87138 -2.33709 0
M  V30 9916 H 950.942 0.898937 -1.12495 0
M  V30 9917 H 952.895 4.03488 -1.21554 0
M  V30 9918 H 951.619 3.25667 -0.246707 0
M  V30 9919 H 950.278 2.82596 -2.33527 0
M  V30 9920 H 949.926 4.92508 -1.02202 0
M  V30 9921 H 949.626 5.18843 -2.75819 0
M  V30 9922 H 951.15 5.76131 -2.02251 0
M  V30 9923 H 952.564 4.31535 -3.77426 0
M  V30 9924 H 950.961 3.98031 -4.491 0
M  V30 9925 H 952.031 2.62967 -4.07402 0
M  V30 9926 N 953.375 1.23811 0.975125 0
M  V30 9927 C 954.338 1.02505 2.05001 0
M  V30 9928 C 955.338 -0.0150084 1.60793 0
M  V30 9929 O 956.528 0.225246 1.72738 0
M  V30 9930 C 953.66 0.552087 3.364 0
M  V30 9931 H 954.853 1.979 2.25335 0
M  V30 9932 H 952.406 1.05929 1.1493 0
M  V30 9933 H 953.141 -0.405394 3.21756 0
M  V30 9934 H 952.926 1.30267 3.69828 0
M  V30 9935 H 954.416 0.423828 4.15444 0
M  V30 9936 N 954.853 -1.17469 1.05066 0
M  V30 9937 C 955.763 -2.25089 0.661222 0
M  V30 9938 C 956.779 -1.71086 -0.31712 0
M  V30 9939 O 957.955 -2.00685 -0.169534 0
M  V30 9940 C 955.02 -3.46676 0.0406415 0
M  V30 9941 C 954.081 -4.15771 1.06927 0
M  V30 9942 C 953.314 -5.31553 0.478208 0
M  V30 9943 O 953.537 -5.6593 -0.712714 0
M  V30 9944 O 952.471 -5.89574 1.21185 0
M  V30 9945 H 956.297 -2.60685 1.5581 0
M  V30 9946 H 953.882 -1.24744 0.822147 0
M  V30 9947 H 955.764 -4.203 -0.304312 0
M  V30 9948 H 954.439 -3.1288 -0.829909 0
M  V30 9949 H 953.346 -3.44171 1.46619 0
M  V30 9950 H 954.679 -4.53591 1.91092 0
M  V30 9951 N 956.331 -0.831506 -1.3388 0
M  V30 9952 C 957.577 -0.424302 -1.98312 0
M  V30 9953 C 957.91 1.01211 -1.65741 0
M  V30 9954 O 957.185 1.70636 -0.933464 0
M  V30 9955 C 957.468 -0.636815 -3.54424 0
M  V30 9956 C 957.321 -2.11997 -3.96708 0
M  V30 9957 C 958.64 -0.0782411 -4.4003 0
M  V30 9958 H 955.759 -0.155637 -0.720379 0
M  V30 9959 H 958.401 -1.04566 -1.58638 0
M  V30 9960 H 956.551 -0.107907 -3.8835 0
M  V30 9961 H 958.223 -2.71317 -3.73075 0
M  V30 9962 H 956.466 -2.60723 -3.46707 0
M  V30 9963 H 957.137 -2.21944 -5.05416 0
M  V30 9964 H 959.613 -0.530243 -4.12708 0
M  V30 9965 H 958.489 -0.256676 -5.483 0
M  V30 9966 H 958.75 1.01745 -4.30233 0
M  V30 9967 N 957.809 1.4625 -0.587256 0
M  V30 9968 C 958.756 2.30354 0.143384 0
M  V30 9969 C 959.726 1.40891 0.879716 0
M  V30 9970 O 960.911 1.69837 0.869486 0
M  V30 9971 C 958.051 3.25441 1.14815 0
M  V30 9972 C 957.164 4.30004 0.414792 0
M  V30 9973 C 956.299 5.12214 1.40748 0
M  V30 9974 C 955.338 6.08523 0.660786 0
M  V30 9975 N 954.475 6.83585 1.60176 0
M  V30 9976 H 959.315 2.92304 -0.579866 0
M  V30 9977 H 956.852 1.44055 -0.29777 0
M  V30 9978 H 958.81 3.79018 1.7436 0
M  V30 9979 H 957.44 2.6529 1.83906 0
M  V30 9980 H 956.492 3.79248 -0.295787 0
M  V30 9981 H 957.804 4.98515 -0.168738 0
M  V30 9982 H 956.958 5.70091 2.0756 0
M  V30 9983 H 955.697 4.43675 2.02494 0
M  V30 9984 H 954.702 5.49796 -0.0210864 0
M  V30 9985 H 955.927 6.79083 0.0486551 0
M  V30 9986 H 953.873 6.17752 2.20724 0
M  V30 9987 H 953.79 7.48373 1.07115 0
M  V30 9988 H 955.058 7.46016 2.26009 0
M  V30 9989 N 959.287 0.325282 1.54207 0
M  V30 9990 C 960.25 -0.527228 2.23054 0
M  V30 9991 C 961.25 -1.04217 1.22456 0
M  V30 9992 O 962.44 -0.934325 1.47024 0
M  V30 9993 C 959.572 -1.7325 2.93594 0
M  V30 9994 H 960.765 0.0746423 2.99807 0
M  V30 9995 H 958.318 0.0763872 1.56113 0
M  V30 9996 H 959.053 -2.37356 2.20981 0
M  V30 9997 H 958.838 -1.37065 3.67363 0
M  V30 9998 H 960.328 -2.3376 3.46043 0
M  V30 9999 N 960.765 -1.57509 0.0534917 0
M  V30 10000 C 961.712 -2.11667 -0.920101 0
M  V30 10001 C 962.682 -1.0246 -1.30733 0
M  V30 10002 O 963.867 -1.30021 -1.39639 0
M  V30 10003 C 961.007 -2.66803 -2.18883 0
M  V30 10004 C 960.12 -3.90104 -1.85588 0
M  V30 10005 C 959.255 -4.33547 -3.06937 0
M  V30 10006 C 958.294 -5.49542 -2.69573 0
M  V30 10007 N 957.431 -5.88029 -3.83623 0
M  V30 10008 H 962.271 -2.94562 -0.451371 0
M  V30 10009 H 959.808 -1.45576 -0.211168 0
M  V30 10010 H 961.766 -2.96871 -2.93127 0
M  V30 10011 H 960.396 -1.86702 -2.63329 0
M  V30 10012 H 959.448 -3.66613 -1.01484 0
M  V30 10013 H 960.76 -4.74404 -1.54087 0
M  V30 10014 H 959.914 -4.6518 -3.89477 0
M  V30 10015 H 958.653 -3.48064 -3.41618 0
M  V30 10016 H 957.658 -5.17579 -1.8545 0
M  V30 10017 H 958.883 -6.36743 -2.36082 0
M  V30 10018 H 956.829 -5.05498 -4.181 0
M  V30 10019 H 956.746 -6.67025 -3.55828 0
M  V30 10020 H 958.014 -6.24277 -4.66796 0
M  V30 10021 N 962.243 0.219913 -1.56058 0
M  V30 10022 C 963.489 0.945463 -1.79412 0
M  V30 10023 C 963.822 1.83922 -0.62341 0
M  V30 10024 O 963.097 1.90806 0.377256 0
M  V30 10025 C 963.38 1.783 -3.1286 0
M  V30 10026 C 963.233 0.915626 -4.40382 0
M  V30 10027 C 964.552 2.76045 -3.42764 0
M  V30 10028 H 961.671 0.342288 -0.652693 0
M  V30 10029 H 964.313 0.214235 -1.88788 0
M  V30 10030 H 962.463 2.40642 -3.04998 0
M  V30 10031 H 964.135 0.30882 -4.60265 0
M  V30 10032 H 962.378 0.221124 -4.33236 0
M  V30 10033 H 963.049 1.53607 -5.30197 0
M  V30 10034 H 965.525 2.23838 -3.50764 0
M  V30 10035 H 964.401 3.31748 -4.37304 0
M  V30 10036 H 964.662 3.53866 -2.65012 0
M  V30 10037 N 963.721 1.49897 0.486681 0
M  V30 10038 C 964.998 1.50614 1.24799 0
M  V30 10039 C 965.378 0.24193 2.09709 0
M  V30 10040 O 964.726 -0.775237 2.14947 0
M  V30 10041 C 964.936 2.79318 2.09243 0
M  V30 10042 C 966.284 3.29371 2.67955 0
M  V30 10043 O 967.308 2.80533 2.19499 0
M  V30 10044 O 966.167 4.14466 3.56202 0
M  V30 10045 H 963.261 0.603447 0.565491 0
M  V30 10046 H 965.807 1.62174 0.499778 0
M  V30 10047 H 964.579 3.62812 1.46572 0
M  V30 10048 H 964.202 2.70687 2.91229 0
M  V30 10049 N 965.199 -0.738761 1.39212 0
M  V30 10050 C 966.109 -1.88324 1.39897 0
M  V30 10051 C 967.125 -1.71494 0.294229 0
M  V30 10052 O 968.301 -1.94162 0.535087 0
M  V30 10053 C 965.366 -3.23871 1.23726 0
M  V30 10054 C 964.427 -3.53121 2.44139 0
M  V30 10055 C 963.66 -4.82202 2.2873 0
M  V30 10056 O 963.883 -5.55649 1.28879 0
M  V30 10057 O 962.817 -5.11265 3.17634 0
M  V30 10058 H 966.643 -1.90701 2.36362 0
M  V30 10059 H 964.228 -0.886067 1.20288 0
M  V30 10060 H 966.11 -4.04882 1.16826 0
M  V30 10061 H 964.785 -3.22274 0.303551 0
M  V30 10062 H 963.692 -2.72212 2.56615 0
M  V30 10063 H 965.025 -3.59495 3.36191 0
M  V30 10064 N 966.677 -1.24326 -0.968545 0
M  V30 10065 C 967.607 -1.05951 -2.08079 0
M  V30 10066 C 968.588 0.0272666 -1.70078 0
M  V30 10067 O 969.773 -0.139644 -1.93697 0
M  V30 10068 C 966.903 -0.662623 -3.4092 0
M  V30 10069 C 965.857 -1.69807 -3.92873 0
M  V30 10070 C 965.183 -1.15628 -5.22048 0
M  V30 10071 C 966.483 -3.09383 -4.20808 0
M  V30 10072 H 968.177 -1.98984 -2.23709 0
M  V30 10073 H 965.723 -0.958112 -1.075 0
M  V30 10074 H 967.676 -0.521071 -4.18166 0
M  V30 10075 H 966.4 0.303399 -3.25188 0
M  V30 10076 H 965.059 -1.82783 -3.17783 0
M  V30 10077 H 964.707 -0.180888 -5.02675 0
M  V30 10078 H 964.407 -1.84822 -5.57776 0
M  V30 10079 H 965.931 -1.02683 -6.01904 0
M  V30 10080 H 967.345 -2.99642 -4.88761 0
M  V30 10081 H 965.742 -3.75923 -4.67763 0
M  V30 10082 H 966.812 -3.57486 -3.27616 0
M  V30 10083 N 968.156 1.1691 -1.05688 0
M  V30 10084 C 969.106 2.19056 -0.632339 0
M  V30 10085 C 970.09 1.574 0.333797 0
M  V30 10086 O 971.282 1.76361 0.150223 0
M  V30 10087 C 968.411 3.43297 -0.0138209 0
M  V30 10088 C 967.497 4.12042 -1.00408 0
M  V30 10089 N 967.888 4.56535 -2.17737 0
M  V30 10090 C 966.186 4.38139 -0.833663 0
M  V30 10091 C 966.887 5.09644 -2.80425 0
M  V30 10092 N 965.863 5.02153 -2.08191 0
M  V30 10093 H 969.665 2.51165 -1.52621 0
M  V30 10094 H 967.179 1.33294 -0.927707 0
M  V30 10095 H 969.176 4.1576 0.308117 0
M  V30 10096 H 967.836 3.12677 0.87538 0
M  V30 10097 H 968.847 4.50463 -2.55546 0
M  V30 10098 H 965.524 4.175 0.00406684 0
M  V30 10099 H 966.914 5.54153 -3.79952 0
M  V30 10100 N 969.634 0.838594 1.33437 0
M  V30 10101 C 970.544 0.274048 2.32994 0
M  V30 10102 C 971.56 -0.599776 1.63336 0
M  V30 10103 O 972.736 -0.503963 1.94993 0
M  V30 10104 C 969.801 -0.541804 3.4244 0
M  V30 10105 C 968.862 0.356262 4.27819 0
M  V30 10106 C 968.095 -0.420747 5.32039 0
M  V30 10107 O 968.318 -1.65247 5.45939 0
M  V30 10108 O 967.252 0.205101 6.0155 0
M  V30 10109 H 971.078 1.09846 2.83139 0
M  V30 10110 H 968.663 0.601111 1.36774 0
M  V30 10111 H 970.545 -1.00544 4.0923 0
M  V30 10112 H 969.22 -1.34328 2.94513 0
M  V30 10113 H 968.127 0.867726 3.63897 0
M  V30 10114 H 969.46 1.1225 4.79229 0
M  V30 10115 N 971.112 -1.45937 0.595003 0
M  V30 10116 C 972.359 -2.0232 0.0853053 0
M  V30 10117 C 972.687 -1.465 -1.27937 0
M  V30 10118 O 971.942 -0.624767 -1.85459 0
M  V30 10119 C 972.241 -3.57396 -0.0173747 0
M  V30 10120 C 971.907 -4.32311 1.28131 0
M  V30 10121 C 970.569 -4.52496 1.63708 0
M  V30 10122 C 972.921 -4.75233 2.14017 0
M  V30 10123 C 970.249 -5.12857 2.84947 0
M  V30 10124 C 972.601 -5.36933 3.34493 0
M  V30 10125 C 971.265 -5.55343 3.70338 0
M  V30 10126 H 970.535 -0.740342 0.0312154 0
M  V30 10127 H 973.182 -1.75157 0.774103 0
M  V30 10128 H 971.487 -3.83766 -0.789371 0
M  V30 10129 H 973.184 -3.98713 -0.427699 0
M  V30 10130 H 969.774 -4.16905 0.994374 0
M  V30 10131 H 973.958 -4.59383 1.87833 0
M  V30 10132 H 969.214 -5.253 3.12841 0
M  V30 10133 H 973.388 -5.69147 4.01304 0
M  V30 10134 H 971.015 -6.01883 4.64371 0
M  V30 10135 N 972.59 -0.333456 -1.54032 0
M  V30 10136 C 973.538 0.543414 -2.26163 0
M  V30 10137 C 974.532 1.11037 -1.27934 0
M  V30 10138 O 975.738 1.05727 -1.45677 0
M  V30 10139 H 972.113 0.19391 -0.726569 0
M  V30 10140 H 974.084 -0.0871052 -2.98273 0
M  V30 10141 C 972.833 1.68769 -3.03994 0
M  V30 10142 H 972.156 1.26069 -3.79403 0
M  V30 10143 H 973.596 2.27662 -3.57695 0
M  V30 10144 C 972.055 2.61117 -2.12884 0
M  V30 10145 O 972.585 3.63097 -1.71823 0
M  V30 10146 N 970.791 2.29573 -1.7817 0
M  V30 10147 H 970.338 1.46684 -2.11759 0
M  V30 10148 H 970.296 2.91622 -1.1749 0
M  V30 10149 N 974.068 1.57479 -0.061844 0
M  V30 10150 C 975.479 1.80627 0.472295 0
M  V30 10151 C 975.83 0.97496 1.70261 0
M  V30 10152 O 974.955 0.1946 2.15523 0
M  V30 10153 C 975.55 3.27608 0.863616 0
M  V30 10154 C 974.109 3.51638 1.34267 0
M  V30 10155 C 973.256 2.75412 0.323009 0
M  V30 10156 H 976.207 1.56072 -0.287634 0
M  V30 10157 H 976.228 3.39113 1.72577 0
M  V30 10158 H 975.74 3.88087 -0.0320226 0
M  V30 10159 H 973.841 2.96452 2.25714 0
M  V30 10160 H 973.954 4.60342 1.32747 0
M  V30 10161 H 972.318 2.4187 0.798175 0
M  V30 10162 H 973.101 3.38623 -0.564729 0
M  V30 10163 N 975.546 -0.211634 1.56173 0
M  V30 10164 C 976.479 -1.28982 1.88252 0
M  V30 10165 C 977.457 -1.4474 0.740889 0
M  V30 10166 O 978.641 -1.60394 0.990249 0
M  V30 10167 C 975.768 -2.65879 2.09824 0
M  V30 10168 C 974.814 -2.67082 3.3252 0
M  V30 10169 S 975.647 -2.2016 4.8815 0
M  V30 10170 C 976.803 -3.58913 5.12769 0
M  V30 10171 H 977.036 -1.01578 2.79409 0
M  V30 10172 H 974.569 -0.414351 1.48736 0
M  V30 10173 H 976.527 -3.44688 2.22935 0
M  V30 10174 H 975.188 -2.90502 1.19447 0
M  V30 10175 H 974.381 -3.67703 3.44689 0
M  V30 10176 H 973.983 -1.96343 3.18317 0
M  V30 10177 H 976.275 -4.54671 5.02276 0
M  V30 10178 H 977.218 -3.51652 6.14611 0
M  V30 10179 H 977.626 -3.5306 4.40465 0
M  V30 10180 N 977.024 -1.50153 -0.478725 0
M  V30 10181 C 977.957 -1.63089 -1.59616 0
M  V30 10182 C 978.935 -0.479211 -1.55378 0
M  V30 10183 O 980.119 -0.697715 -1.75112 0
M  V30 10184 C 977.246 -1.60643 -2.9818 0
M  V30 10185 C 976.292 -2.81279 -3.206 0
M  V30 10186 S 977.125 -4.42681 -3.0132 0
M  V30 10187 C 978.281 -4.42915 -4.42241 0
M  V30 10188 H 978.514 -2.57612 -1.48402 0
M  V30 10189 H 976.047 -1.39321 -0.665513 0
M  V30 10190 H 978.005 -1.59917 -3.7807 0
M  V30 10191 H 976.666 -0.673684 -3.0679 0
M  V30 10192 H 975.859 -2.7585 -4.21809 0
M  V30 10193 H 975.461 -2.79533 -2.4847 0
M  V30 10194 H 977.753 -4.16007 -5.34737 0
M  V30 10195 H 978.696 -5.44477 -4.52715 0
M  V30 10196 H 979.104 -3.72715 -4.23962 0
M  V30 10197 N 978.502 0.731368 -1.39602 0
M  V30 10198 C 979.75 1.48805 -1.36753 0
M  V30 10199 C 980.071 1.94969 0.034676 0
M  V30 10200 O 979.341 1.69243 0.986591 0
M  V30 10201 H 977.921 0.55203 -0.503261 0
M  V30 10202 H 980.583 0.868013 -1.74504 0
M  V30 10203 H 979.679 2.36844 -2.03252 0
M  V30 10204 N 979.98 1.24838 0.961938 0
M  V30 10205 C 980.93 1.01276 2.04272 0
M  V30 10206 C 981.914 -0.0478239 1.60829 0
M  V30 10207 O 983.106 0.166616 1.76214 0
M  V30 10208 C 980.235 0.625659 3.37551 0
M  V30 10209 C 979.321 1.72262 3.87539 0
M  V30 10210 N 979.712 2.95644 4.104 0
M  V30 10211 C 978.01 1.60146 4.16256 0
M  V30 10212 C 978.711 3.66796 4.51482 0
M  V30 10213 N 977.687 2.94383 4.56989 0
M  V30 10214 H 981.489 1.94956 2.19931 0
M  V30 10215 H 979.003 1.15049 1.14619 0
M  V30 10216 H 981 0.438072 4.14592 0
M  V30 10217 H 979.66 -0.303887 3.23275 0
M  V30 10218 H 980.671 3.31764 3.97685 0
M  V30 10219 H 977.348 0.740353 4.10883 0
M  V30 10220 H 978.738 4.72664 4.77534 0
M  V30 10221 N 981.458 -1.16348 1.06306 0
M  V30 10222 C 982.874 -1.38873 0.786543 0
M  V30 10223 C 983.074 -1.91915 -0.614061 0
M  V30 10224 O 982.13 -2.11804 -1.3746 0
M  V30 10225 C 983.443 -2.36936 1.85154 0
M  V30 10226 C 984.991 -2.5062 1.87506 0
M  V30 10227 C 985.466 -3.51965 2.9306 0
M  V30 10228 N 986.957 -3.59492 2.92095 0
M  V30 10229 C 987.692 -4.37699 3.70415 0
M  V30 10230 N 987.188 -5.19327 4.58553 0
M  V30 10231 N 988.981 -4.32683 3.58806 0
M  V30 10232 H 981.132 -0.802542 1.96655 0
M  V30 10233 H 983.395 -0.415304 0.852189 0
M  V30 10234 H 983.101 -2.05056 2.85736 0
M  V30 10235 H 982.975 -3.36585 1.70267 0
M  V30 10236 H 985.362 -2.81804 0.875827 0
M  V30 10237 H 985.443 -1.51006 2.06472 0
M  V30 10238 H 985.087 -3.21518 3.93177 0
M  V30 10239 H 985.017 -4.51309 2.71344 0
M  V30 10240 H 987.508 -3.01222 2.28197 0
M  V30 10241 H 987.821 -5.76216 5.1497 0
M  V30 10242 H 986.166 -5.1867 4.62608 0
M  V30 10243 H 989.357 -3.67971 2.89335 0
M  V30 10244 H 989.53 -4.93386 4.20088 0
M  V30 10245 N 982.937 -0.845659 -1.3299 0
M  V30 10246 C 984.185 -0.443774 -1.97168 0
M  V30 10247 C 984.506 1.00192 -1.67292 0
M  V30 10248 O 983.776 1.69891 -0.975397 0
M  V30 10249 H 982.356 -0.161111 -0.729419 0
M  V30 10250 H 985.018 -1.08011 -1.62233 0
M  V30 10251 H 984.114 -0.581414 -3.06637 0
M  V30 10252 N 984.415 1.45619 -0.602734 0
M  V30 10253 C 985.655 2.0416 -0.0989764 0
M  V30 10254 C 986.019 1.4616 1.24504 0
M  V30 10255 O 987.22 1.96025 1.83923 0
M  V30 10256 C 985.491 3.57357 -0.0551869 0
M  V30 10257 S 987.05 4.3708 0.388086 0
M  V30 10258 H 983.868 0.709431 -0.0472054 0
M  V30 10259 H 986.47 1.78394 -0.799745 0
M  V30 10260 H 985.174 3.97083 -1.03697 0
M  V30 10261 H 984.705 3.87692 0.667727 0
M  V30 10262 H 986.72 4.68362 1.63865 0
M  V30 10263 N 985.893 0.34162 1.53853 0
M  V30 10264 C 987.309 -0.0103769 1.59597 0
M  V30 10265 C 987.509 -1.48897 1.35764 0
M  V30 10266 O 986.565 -2.24743 1.15095 0
M  V30 10267 C 987.878 0.424067 2.97695 0
M  V30 10268 C 989.426 0.376247 3.1073 0
M  V30 10269 C 989.901 0.786129 4.51203 0
M  V30 10270 N 991.392 0.74024 4.57247 0
M  V30 10271 C 992.127 1.02937 5.64085 0
M  V30 10272 N 991.623 1.38655 6.78783 0
M  V30 10273 N 993.416 0.953734 5.5395 0
M  V30 10274 H 985.567 1.30477 1.67599 0
M  V30 10275 H 987.83 0.531753 0.78482 0
M  V30 10276 H 987.536 1.45493 3.20195 0
M  V30 10277 H 987.41 -0.201713 3.7666 0
M  V30 10278 H 989.797 -0.645441 2.87955 0
M  V30 10279 H 989.878 1.0372 2.33828 0
M  V30 10280 H 989.522 1.80582 4.74713 0
M  V30 10281 H 989.452 0.102671 5.265 0
M  V30 10282 H 991.943 0.476763 3.7488 0
M  V30 10283 H 992.256 1.59206 7.56223 0
M  V30 10284 H 990.601 1.42498 6.80235 0
M  V30 10285 H 993.792 0.674044 4.63222 0
M  V30 10286 H 993.965 1.18241 6.37121 0
M  V30 10287 N 987.371 -1.57444 0.0701946 0
M  V30 10288 C 988.301 -2.15659 -0.895176 0
M  V30 10289 C 989.282 -1.08321 -1.31151 0
M  V30 10290 O 990.467 -1.36349 -1.38284 0
M  V30 10291 C 987.597 -2.71693 -2.16334 0
M  V30 10292 C 986.551 -3.84183 -1.88645 0
M  V30 10293 C 985.877 -4.26814 -3.22078 0
M  V30 10294 C 987.177 -5.08493 -1.19299 0
M  V30 10295 H 988.871 -2.96576 -0.410217 0
M  V30 10296 H 986.417 -1.42662 -0.195872 0
M  V30 10297 H 988.37 -3.11064 -2.84284 0
M  V30 10298 H 987.094 -1.87994 -2.67069 0
M  V30 10299 H 985.753 -3.45314 -1.23101 0
M  V30 10300 H 985.401 -3.40039 -3.70651 0
M  V30 10301 H 985.101 -5.02642 -3.04344 0
M  V30 10302 H 986.625 -4.68799 -3.91228 0
M  V30 10303 H 988.039 -5.4519 -1.77316 0
M  V30 10304 H 986.436 -5.89588 -1.11828 0
M  V30 10305 H 987.506 -4.84595 -0.171839 0
M  V30 10306 N 988.849 0.203349 -1.56283 0
M  V30 10307 C 989.812 1.23566 -1.93039 0
M  V30 10308 C 990.812 1.38869 -0.810687 0
M  V30 10309 O 992.002 1.36822 -1.07821 0
M  V30 10310 C 989.134 2.60645 -2.1972 0
M  V30 10311 H 990.327 0.921692 -2.85385 0
M  V30 10312 H 987.88 0.44453 -1.49845 0
M  V30 10313 H 988.615 2.9711 -1.29985 0
M  V30 10314 H 988.4 2.50911 -3.01307 0
M  V30 10315 H 989.89 3.35103 -2.4919 0
M  V30 10316 N 990.327 1.50405 0.470755 0
M  V30 10317 C 991.573 1.6165 1.22462 0
M  V30 10318 C 991.906 0.316034 1.91611 0
M  V30 10319 O 991.181 -0.682509 1.82132 0
M  V30 10320 C 991.464 2.79702 2.26801 0
M  V30 10321 C 991.317 4.19631 1.61955 0
M  V30 10322 C 992.636 2.93313 3.28109 0
M  V30 10323 H 989.755 0.588345 0.443868 0
M  V30 10324 H 992.397 1.82792 0.518376 0
M  V30 10325 H 990.547 2.61807 2.87036 0
M  V30 10326 H 992.219 4.49117 1.05316 0
M  V30 10327 H 990.462 4.23874 0.922674 0
M  V30 10328 H 991.133 4.98162 2.37779 0
M  V30 10329 H 993.609 3.09697 2.77897 0
M  V30 10330 H 992.485 3.77537 3.98443 0
M  V30 10331 H 992.746 2.03942 3.9225 0
M  V30 10332 N 991.805 -0.723954 1.39988 0
M  V30 10333 C 993.033 -1.51313 1.4111 0
M  V30 10334 C 993.448 -1.88798 0.00853333 0
M  V30 10335 O 992.805 -1.54868 -0.965516 0
M  V30 10336 C 992.856 -2.79375 2.29416 0
M  V30 10337 O 992.577 -2.43478 3.64211 0
M  V30 10338 C 994.078 -3.7333 2.3904 0
M  V30 10339 H 991.298 -0.46724 0.481589 0
M  V30 10340 H 993.842 -0.893694 1.83938 0
M  V30 10341 H 991.997 -3.37624 1.89971 0
M  V30 10342 H 992.411 -3.25821 4.11024 0
M  V30 10343 H 993.885 -4.60051 3.05053 0
M  V30 10344 H 994.362 -4.15854 1.41289 0
M  V30 10345 H 994.968 -3.20996 2.79001 0
M  V30 10346 N 993.283 -1.25346 -0.955304 0
M  V30 10347 C 994.513 -1.12629 -1.732 0
M  V30 10348 C 994.921 0.322748 -1.86427 0
M  V30 10349 O 994.264 1.23381 -1.36099 0
M  V30 10350 C 994.326 -1.7064 -3.16421 0
M  V30 10351 C 993.99 -3.19632 -3.26626 0
M  V30 10352 C 994.987 -4.1663 -3.10991 0
M  V30 10353 C 992.672 -3.59829 -3.50468 0
M  V30 10354 C 994.666 -5.51806 -3.19043 0
M  V30 10355 C 992.353 -4.95143 -3.58157 0
M  V30 10356 C 993.351 -5.90941 -3.42459 0
M  V30 10357 O 993.039 -7.23792 -3.49828 0
M  V30 10358 H 992.771 -0.393646 -0.549562 0
M  V30 10359 H 995.325 -1.66184 -1.20715 0
M  V30 10360 H 993.555 -1.11532 -3.70267 0
M  V30 10361 H 995.244 -1.53032 -3.75947 0
M  V30 10362 H 996.01 -3.86915 -2.92441 0
M  V30 10363 H 991.889 -2.8576 -3.61749 0
M  V30 10364 H 995.433 -6.26559 -3.06707 0
M  V30 10365 H 991.33 -5.24525 -3.76224 0
M  V30 10366 H 992.098 -7.31879 -3.66463 0
M  V30 10367 N 994.761 1.15782 -1.06922 0
M  V30 10368 C 996.172 1.68062 -0.813144 0
M  V30 10369 C 996.523 1.84681 0.662374 0
M  V30 10370 O 995.648 1.54696 1.51321 0
M  V30 10371 C 996.243 3.05273 -1.46949 0
M  V30 10372 C 994.802 3.54647 -1.26104 0
M  V30 10373 C 993.949 2.30477 -1.54194 0
M  V30 10374 H 996.9 1.00056 -1.23185 0
M  V30 10375 H 996.921 3.69986 -0.888308 0
M  V30 10376 H 996.433 2.93145 -2.54337 0
M  V30 10377 H 994.534 3.72024 -0.20718 0
M  V30 10378 H 994.647 4.36354 -1.97819 0
M  V30 10379 H 993.011 2.35803 -0.96276 0
M  V30 10380 H 993.794 2.2094 -2.62755 0
M  V30 10381 N 996.239 0.8527 1.3254 0
M  V30 10382 C 997.149 0.298744 2.3269 0
M  V30 10383 C 998.165 -0.582418 1.63963 0
M  V30 10384 O 999.341 -0.483253 1.95516 0
M  V30 10385 C 996.406 -0.505453 3.42996 0
M  V30 10386 C 995.467 0.401618 4.27417 0
M  V30 10387 C 994.7 -0.364294 5.32455 0
M  V30 10388 O 994.923 -1.59448 5.47661 0
M  V30 10389 O 993.857 0.268892 6.01299 0
M  V30 10390 H 997.683 1.12843 2.81958 0
M  V30 10391 H 995.268 0.615584 1.36128 0
M  V30 10392 H 997.15 -0.961974 4.10273 0
M  V30 10393 H 995.825 -1.31197 2.95921 0
M  V30 10394 H 994.732 0.906274 3.62957 0
M  V30 10395 H 996.065 1.17327 4.78012 0
M  V30 10396 N 997.718 -1.45297 0.610449 0
M  V30 10397 C 998.967 -2.0143 0.104323 0
M  V30 10398 C 999.28 -1.48431 -1.27388 0
M  V30 10399 O 1000.49 -1.96558 -1.87289 0
M  V30 10400 C 998.942 -3.59644 0.135812 0
M  V30 10401 C 998.55 -4.2164 1.51405 0
M  V30 10402 C 1000.29 -4.2333 -0.314922 0
M  V30 10403 C 998.201 -5.72015 1.50176 0
M  V30 10404 H 997.131 -0.753176 0.035233 0
M  V30 10405 H 999.782 -1.66738 0.7662 0
M  V30 10406 H 998.164 -3.91538 -0.592773 0
M  V30 10407 H 999.338 -4.01315 2.26457 0
M  V30 10408 H 997.653 -3.70159 1.90712 0
M  V30 10409 H 1000.25 -5.33597 -0.343335 0
M  V30 10410 H 1000.59 -3.94206 -1.33817 0
M  V30 10411 H 1001.13 -3.96163 0.360489 0
M  V30 10412 H 997.865 -6.05842 2.50271 0
M  V30 10413 H 997.385 -5.94523 0.793869 0
M  V30 10414 H 999.064 -6.35266 1.22665 0
M  V30 10415 N 999.196 -0.349774 -1.5367 0
M  V30 10416 C 1000.16 0.491676 -2.23864 0
M  V30 10417 C 1001.16 1.02256 -1.24098 0
M  V30 10418 O 1002.35 0.910816 -1.48492 0
M  V30 10419 C 999.481 1.68557 -2.96313 0
M  V30 10420 H 1000.67 -0.12233 -2.9965 0
M  V30 10421 H 998.227 -0.101214 -1.55972 0
M  V30 10422 H 998.962 2.3381 -2.2473 0
M  V30 10423 H 998.747 1.31203 -3.69497 0
M  V30 10424 H 1000.24 2.28225 -3.49718 0
M  V30 10425 N 1000.67 1.57404 -0.0785433 0
M  V30 10426 C 1001.62 2.13104 0.88631 0
M  V30 10427 C 1002.59 1.04527 1.29086 0
M  V30 10428 O 1003.78 1.32226 1.37553 0
M  V30 10429 C 1000.92 2.70252 2.14611 0
M  V30 10430 C 1000.03 3.93007 1.79358 0
M  V30 10431 C 999.164 4.38376 3 0
M  V30 10432 C 998.203 5.53761 2.60796 0
M  V30 10433 N 997.34 5.94058 3.74219 0
M  V30 10434 H 1002.18 2.95243 0.404452 0
M  V30 10435 H 999.717 1.45894 0.187982 0
M  V30 10436 H 1001.67 3.01497 2.88367 0
M  V30 10437 H 1000.3 1.90868 2.60326 0
M  V30 10438 H 999.357 3.68181 0.956384 0
M  V30 10439 H 1000.67 4.76795 1.4652 0
M  V30 10440 H 999.823 4.71317 3.82027 0
M  V30 10441 H 998.562 3.53455 3.36037 0
M  V30 10442 H 997.567 5.20464 1.77192 0
M  V30 10443 H 998.792 6.40419 2.25922 0
M  V30 10444 H 996.738 5.12085 4.10005 0
M  V30 10445 H 996.655 6.72602 3.45171 0
M  V30 10446 H 997.923 6.31624 4.56805 0
M  V30 10447 N 1002.15 -0.195058 1.56388 0
M  V30 10448 C 1003.08 -1.26978 1.8961 0
M  V30 10449 C 1004.06 -1.43946 0.756199 0
M  V30 10450 O 1005.25 -1.59335 1.0072 0
M  V30 10451 C 1002.37 -2.63638 2.12632 0
M  V30 10452 C 1001.42 -2.6354 3.35334 0
M  V30 10453 S 1002.25 -2.1497 4.90457 0
M  V30 10454 C 1003.41 -3.53454 5.16547 0
M  V30 10455 H 1003.64 -0.986091 2.8047 0
M  V30 10456 H 1001.17 -0.398552 1.49167 0
M  V30 10457 H 1003.13 -3.42304 2.26579 0
M  V30 10458 H 1001.79 -2.89218 1.22522 0
M  V30 10459 H 1000.99 -3.64027 3.48569 0
M  V30 10460 H 1000.59 -1.92956 3.20381 0
M  V30 10461 H 1002.88 -4.49318 5.0707 0
M  V30 10462 H 1003.82 -3.45113 6.18306 0
M  V30 10463 H 1004.23 -3.48368 4.44185 0
M  V30 10464 N 1003.63 -1.50653 -0.462772 0
M  V30 10465 C 1004.56 -1.66286 -1.5774 0
M  V30 10466 C 1005.57 -0.544094 -1.53439 0
M  V30 10467 O 1006.76 -0.817566 -1.58676 0
M  V30 10468 C 1003.86 -1.63893 -2.96635 0
M  V30 10469 C 1003.04 -2.91939 -3.25716 0
M  V30 10470 C 1002.1 -2.82076 -4.44206 0
M  V30 10471 O 1001.12 -3.56032 -4.44106 0
M  V30 10472 N 1002.32 -1.96196 -5.4634 0
M  V30 10473 H 1005.09 -2.6243 -1.44742 0
M  V30 10474 H 1002.65 -1.48221 -0.651326 0
M  V30 10475 H 1004.64 -1.54897 -3.73884 0
M  V30 10476 H 1003.21 -0.75449 -3.03358 0
M  V30 10477 H 1002.43 -3.14998 -2.37002 0
M  V30 10478 H 1003.72 -3.7675 -3.4196 0
M  V30 10479 H 1003.12 -1.35439 -5.49247 0
M  V30 10480 H 1001.67 -1.93097 -6.2254 0
M  V30 10481 N 1005.11 0.71652 -1.4037 0
M  V30 10482 C 1006.34 1.50563 -1.4191 0
M  V30 10483 C 1006.75 1.88791 -0.0185456 0
M  V30 10484 O 1006.11 1.55378 0.957289 0
M  V30 10485 C 1006.16 2.78155 -2.30894 0
M  V30 10486 O 1005.88 2.41543 -3.65497 0
M  V30 10487 C 1007.38 3.72057 -2.41016 0
M  V30 10488 H 1004.6 0.464679 -0.48406 0
M  V30 10489 H 1007.15 0.883927 -1.8441 0
M  V30 10490 H 1005.3 3.36611 -1.91759 0
M  V30 10491 H 1005.71 3.23636 -4.12747 0
M  V30 10492 H 1007.19 4.58426 -3.07489 0
M  V30 10493 H 1007.67 4.15098 -1.43492 0
M  V30 10494 H 1008.27 3.19512 -2.80699 0
M  V30 10495 N 1006.59 1.25851 0.948643 0
M  V30 10496 C 1008 1.02802 1.22081 0
M  V30 10497 C 1008.2 -0.251461 1.99925 0
M  V30 10498 O 1007.26 -0.962592 2.33432 0
M  V30 10499 C 1008.57 2.25489 1.98936 0
M  V30 10500 C 1010.12 2.30312 2.11956 0
M  V30 10501 C 1010.59 3.52671 2.92211 0
M  V30 10502 N 1012.09 3.53103 2.99787 0
M  V30 10503 C 1012.82 4.44445 3.62294 0
M  V30 10504 N 1012.32 5.46065 4.26362 0
M  V30 10505 N 1014.11 4.32113 3.59493 0
M  V30 10506 H 1006.26 2.08042 0.428044 0
M  V30 10507 H 1008.52 0.913928 0.251872 0
M  V30 10508 H 1008.23 3.18513 1.4914 0
M  V30 10509 H 1008.1 2.2914 2.99624 0
M  V30 10510 H 1010.49 1.37808 2.60946 0
M  V30 10511 H 1010.57 2.30676 1.10554 0
M  V30 10512 H 1010.22 4.45501 2.43909 0
M  V30 10513 H 1010.15 3.49554 3.93853 0
M  V30 10514 H 1012.64 2.79597 2.54232 0
M  V30 10515 H 1012.95 6.11964 4.71932 0
M  V30 10516 H 1011.29 5.49931 4.24972 0
M  V30 10517 H 1014.49 3.51946 3.08629 0
M  V30 10518 H 1014.66 5.03493 4.0792 0
M  V30 10519 N 1008.06 -1.15214 1.07534 0
M  V30 10520 C 1009.03 -2.18209 0.701237 0
M  V30 10521 C 1010.03 -1.58693 -0.25946 0
M  V30 10522 O 1011.22 -1.74154 -0.0401744 0
M  V30 10523 C 1008.35 -3.40883 0.0338703 0
M  V30 10524 H 1009.54 -2.5282 1.61314 0
M  V30 10525 H 1007.1 -1.29707 0.872105 0
M  V30 10526 H 1007.83 -3.11843 -0.890187 0
M  V30 10527 H 1007.62 -3.85342 0.72486 0
M  V30 10528 H 1009.11 -4.17056 -0.213152 0
M  V30 10529 N 1009.54 -0.859717 -1.32086 0
M  V30 10530 C 1010.79 -0.466271 -1.97367 0
M  V30 10531 C 1011.12 0.976728 -1.6785 0
M  V30 10532 O 1010.4 1.68618 -0.969449 0
M  V30 10533 C 1010.68 -0.711851 -3.52994 0
M  V30 10534 C 1010.53 -2.20364 -3.92122 0
M  V30 10535 C 1011.85 -0.17156 -4.39765 0
M  V30 10536 H 1008.97 -0.170883 -0.716916 0
M  V30 10537 H 1011.61 -1.07907 -1.56384 0
M  V30 10538 H 1009.76 -0.190258 -3.88034 0
M  V30 10539 H 1011.43 -2.7917 -3.67236 0
M  V30 10540 H 1009.68 -2.68019 -3.41099 0
M  V30 10541 H 1010.35 -2.32615 -5.00594 0
M  V30 10542 H 1012.82 -0.617665 -4.1149 0
M  V30 10543 H 1011.7 -0.372921 -5.47632 0
M  V30 10544 H 1011.96 0.925959 -4.32294 0
M  V30 10545 N 1011.02 1.44971 -0.618145 0
M  V30 10546 C 1011.95 2.27748 0.143561 0
M  V30 10547 C 1012.93 1.37768 0.863642 0
M  V30 10548 O 1014.12 1.67203 0.870373 0
M  V30 10549 C 1011.24 3.16394 1.20883 0
M  V30 10550 C 1010.29 4.22389 0.590724 0
M  V30 10551 S 1011.12 5.32021 -0.609406 0
M  V30 10552 C 1012.28 6.24235 0.456199 0
M  V30 10553 H 1012.51 2.92003 -0.558699 0
M  V30 10554 H 1010.04 1.48968 -0.40595 0
M  V30 10555 H 1012 3.6802 1.81855 0
M  V30 10556 H 1010.66 2.51384 1.88322 0
M  V30 10557 H 1009.86 4.84379 1.3926 0
M  V30 10558 H 1009.46 3.73958 0.055917 0
M  V30 10559 H 1011.75 6.64269 1.33238 0
M  V30 10560 H 1012.69 7.07985 -0.127794 0
M  V30 10561 H 1013.1 5.59137 0.776269 0
M  V30 10562 N 1012.5 0.357919 1.53482 0
M  V30 10563 C 1013.41 -0.500273 2.29204 0
M  V30 10564 C 1014.42 -1.09936 1.3487 0
M  V30 10565 O 1015.6 -1.11195 1.67921 0
M  V30 10566 C 1012.67 -1.62828 3.06085 0
M  V30 10567 C 1011.73 -1.05751 4.16071 0
M  V30 10568 C 1010.96 -2.13176 4.89277 0
M  V30 10569 O 1011.18 -3.34153 4.62274 0
M  V30 10570 O 1010.12 -1.76663 5.7539 0
M  V30 10571 H 1013.94 0.115696 3.0348 0
M  V30 10572 H 1011.53 0.122527 1.48897 0
M  V30 10573 H 1013.41 -2.28427 3.54117 0
M  V30 10574 H 1012.08 -2.22979 2.34653 0
M  V30 10575 H 1010.99 -0.365642 3.72309 0
M  V30 10576 H 1012.32 -0.500661 4.89647 0
M  V30 10577 N 1013.98 -1.5736 0.0868897 0
M  V30 10578 C 1014.94 -2.12436 -0.860439 0
M  V30 10579 C 1015.94 -1.05175 -1.21634 0
M  V30 10580 O 1017.13 -1.31098 -1.14713 0
M  V30 10581 C 1014.26 -2.63818 -2.159 0
M  V30 10582 H 1015.45 -2.97453 -0.382346 0
M  V30 10583 H 1013.01 -1.55458 -0.162009 0
M  V30 10584 H 1013.74 -1.82298 -2.68212 0
M  V30 10585 H 1013.53 -3.42234 -1.91359 0
M  V30 10586 H 1015.02 -3.06452 -2.83685 0
M  V30 10587 N 1015.45 0.186762 -1.56489 0
M  V30 10588 C 1016.42 1.21511 -1.94339 0
M  V30 10589 C 1017.42 1.38001 -0.82537 0
M  V30 10590 O 1018.61 1.3567 -1.09266 0
M  V30 10591 C 1015.74 2.583 -2.22472 0
M  V30 10592 H 1016.93 0.891371 -2.86347 0
M  V30 10593 H 1014.49 0.428612 -1.50308 0
M  V30 10594 H 1015.22 2.95715 -1.33129 0
M  V30 10595 H 1015.01 2.47701 -3.03951 0
M  V30 10596 H 1016.5 3.32441 -2.5273 0
M  V30 10597 N 1016.93 1.50896 0.454776 0
M  V30 10598 C 1018.18 1.61936 1.20248 0
M  V30 10599 C 1018.49 0.332983 1.92745 0
M  V30 10600 O 1019.7 0.322512 2.69578 0
M  V30 10601 C 1018.16 2.85916 2.18587 0
M  V30 10602 C 1017.76 4.21492 1.51818 0
M  V30 10603 C 1019.51 3.06307 2.93898 0
M  V30 10604 C 1017.42 5.3664 2.48539 0
M  V30 10605 H 1016.35 0.603098 0.452536 0
M  V30 10606 H 1019 1.77345 0.471257 0
M  V30 10607 H 1017.38 2.64101 2.95071 0
M  V30 10608 H 1018.55 4.53623 0.810123 0
M  V30 10609 H 1016.87 4.06837 0.887265 0
M  V30 10610 H 1019.46 3.89507 3.66317 0
M  V30 10611 H 1019.81 2.18683 3.54236 0
M  V30 10612 H 1020.34 3.2838 2.24525 0
M  V30 10613 H 1017.08 6.26469 1.92916 0
M  V30 10614 H 1016.6 5.08907 3.17449 0
M  V30 10615 H 1018.28 5.67881 3.10033 0
M  V30 10616 N 1018.41 -0.709066 1.40748 0
M  V30 10617 C 1019.32 -1.85314 1.43861 0
M  V30 10618 C 1020.34 -1.70832 0.330539 0
M  V30 10619 O 1021.51 -1.92983 0.576152 0
M  V30 10620 C 1018.58 -3.21174 1.30568 0
M  V30 10621 C 1017.64 -3.47863 2.51574 0
M  V30 10622 C 1016.87 -4.77241 2.38906 0
M  V30 10623 O 1017.09 -5.52791 1.40636 0
M  V30 10624 O 1016.03 -5.04413 3.28407 0
M  V30 10625 H 1019.85 -1.85644 2.40354 0
M  V30 10626 H 1017.44 -0.860352 1.2214 0
M  V30 10627 H 1019.32 -4.02313 1.25388 0
M  V30 10628 H 1018 -3.21557 0.371841 0
M  V30 10629 H 1016.9 -2.66708 2.62331 0
M  V30 10630 H 1018.24 -3.52283 3.43741 0
M  V30 10631 N 1019.89 -1.26353 -0.941956 0
M  V30 10632 C 1021.14 -1.12017 -1.69056 0
M  V30 10633 C 1021.47 0.335856 -1.91274 0
M  V30 10634 O 1020.74 1.24677 -1.49285 0
M  V30 10635 C 1021.03 -1.88889 -3.06583 0
M  V30 10636 C 1020.88 -3.42394 -2.91696 0
M  V30 10637 C 1022.2 -1.68209 -4.06686 0
M  V30 10638 H 1019.32 -0.408311 -0.613556 0
M  V30 10639 H 1021.96 -1.55339 -1.09407 0
M  V30 10640 H 1020.11 -1.5207 -3.57501 0
M  V30 10641 H 1021.78 -3.88962 -2.48005 0
M  V30 10642 H 1020.02 -3.69459 -2.27338 0
M  V30 10643 H 1020.7 -3.91408 -3.89235 0
M  V30 10644 H 1023.17 -2.00286 -3.64726 0
M  V30 10645 H 1022.05 -2.24412 -5.00929 0
M  V30 10646 H 1022.31 -0.626474 -4.37639 0
M  V30 10647 N 1021.37 1.14642 -1.08144 0
M  V30 10648 C 1022.31 2.1964 -0.708995 0
M  V30 10649 C 1023.28 1.63303 0.303512 0
M  V30 10650 O 1024.47 1.8987 0.18813 0
M  V30 10651 C 1021.61 3.44886 -0.121585 0
M  V30 10652 C 1020.72 4.15386 -1.18654 0
M  V30 10653 C 1019.86 5.28205 -0.56328 0
M  V30 10654 C 1018.9 5.90534 -1.61046 0
M  V30 10655 N 1018.03 6.94809 -1.00919 0
M  V30 10656 H 1022.87 2.50848 -1.6087 0
M  V30 10657 H 1020.41 1.23185 -0.803975 0
M  V30 10658 H 1022.37 4.16528 0.23668 0
M  V30 10659 H 1021 3.14169 0.741445 0
M  V30 10660 H 1020.05 3.42159 -1.66227 0
M  V30 10661 H 1021.36 4.57809 -1.9802 0
M  V30 10662 H 1020.52 6.06507 -0.153109 0
M  V30 10663 H 1019.26 4.86995 0.262066 0
M  V30 10664 H 1018.26 5.10938 -2.03033 0
M  V30 10665 H 1019.49 6.33819 -2.43824 0
M  V30 10666 H 1017.43 6.5568 -0.204894 0
M  V30 10667 H 1017.35 7.35704 -1.73999 0
M  V30 10668 H 1018.62 7.76992 -0.624792 0
M  V30 10669 N 1022.85 0.866709 1.31628 0
M  V30 10670 C 1023.76 0.323408 2.3236 0
M  V30 10671 C 1024.77 -0.564995 1.64572 0
M  V30 10672 O 1025.95 -0.462489 1.96018 0
M  V30 10673 C 1023.01 -0.469045 3.43513 0
M  V30 10674 C 1022.07 0.446928 4.26967 0
M  V30 10675 C 1021.31 -0.307799 5.32812 0
M  V30 10676 O 1021.53 -1.5363 5.49321 0
M  V30 10677 O 1020.46 0.332653 6.0098 0
M  V30 10678 H 1024.29 1.15827 2.80745 0
M  V30 10679 H 1021.87 0.629987 1.35468 0
M  V30 10680 H 1023.76 -0.918405 4.1127 0
M  V30 10681 H 1022.43 -1.28051 2.97296 0
M  V30 10682 H 1021.34 0.944719 3.61975 0
M  V30 10683 H 1022.67 1.2239 4.76741 0
M  V30 10684 N 1024.32 -1.44642 0.625825 0
M  V30 10685 C 1025.23 -2.34451 -0.0836134 0
M  V30 10686 C 1026.25 -1.5231 -0.841289 0
M  V30 10687 O 1027.43 -1.85056 -0.794754 0
M  V30 10688 C 1024.49 -3.30211 -1.05648 0
M  V30 10689 C 1023.55 -4.28259 -0.298759 0
M  V30 10690 C 1022.78 -5.19444 -1.22528 0
M  V30 10691 O 1023.01 -5.14444 -2.46382 0
M  V30 10692 O 1021.94 -5.97668 -0.71247 0
M  V30 10693 H 1025.77 -2.96555 0.654912 0
M  V30 10694 H 1023.35 -1.44327 0.386029 0
M  V30 10695 H 1025.23 -3.8917 -1.61632 0
M  V30 10696 H 1023.91 -2.70648 -1.77571 0
M  V30 10697 H 1022.82 -3.72863 0.304001 0
M  V30 10698 H 1024.15 -4.90728 0.380345 0
M  V30 10699 N 1025.8 -0.366053 -1.5329 0
M  V30 10700 C 1027.03 0.224236 -2.05681 0
M  V30 10701 C 1027.44 1.42412 -1.23952 0
M  V30 10702 O 1026.8 1.80334 -0.280309 0
M  V30 10703 C 1026.85 0.617266 -3.56191 0
M  V30 10704 O 1026.57 -0.534931 -4.34822 0
M  V30 10705 C 1028.07 1.26589 -4.24841 0
M  V30 10706 H 1025.29 0.0392928 -0.669849 0
M  V30 10707 H 1027.84 -0.52456 -1.97658 0
M  V30 10708 H 1025.99 1.31598 -3.64364 0
M  V30 10709 H 1026.41 -0.217123 -5.2405 0
M  V30 10710 H 1027.88 1.49146 -5.31469 0
M  V30 10711 H 1028.36 2.22633 -3.78591 0
M  V30 10712 H 1028.96 0.6086 -4.20923 0
M  V30 10713 N 1027.28 1.57312 -0.0952337 0
M  V30 10714 C 1028.53 1.93974 0.567319 0
M  V30 10715 C 1028.85 0.977805 1.68713 0
M  V30 10716 O 1028.12 0.0298944 1.95877 0
M  V30 10717 H 1026.7 0.71612 0.212558 0
M  V30 10718 H 1029.36 1.94254 -0.158598 0
M  V30 10719 H 1028.46 2.964 0.977423 0
M  V30 10720 N 1028.76 -0.17846 1.56586 0
M  V30 10721 C 1030.01 -0.894502 1.8078 0
M  V30 10722 C 1030.32 -1.8372 0.67129 0
M  V30 10723 O 1031.53 -2.59509 0.797971 0
M  V30 10724 C 1029.98 -1.64109 3.20306 0
M  V30 10725 C 1029.59 -0.742387 4.41806 0
M  V30 10726 C 1031.33 -2.34578 3.53798 0
M  V30 10727 C 1029.24 -1.4888 5.72354 0
M  V30 10728 H 1028.17 -0.33776 0.674117 0
M  V30 10729 H 1030.82 -0.14752 1.82906 0
M  V30 10730 H 1029.2 -2.43257 3.12477 0
M  V30 10731 H 1030.38 0.011615 4.60799 0
M  V30 10732 H 1028.69 -0.147705 4.16138 0
M  V30 10733 H 1031.29 -2.91004 4.48577 0
M  V30 10734 H 1031.63 -3.09572 2.78336 0
M  V30 10735 H 1032.17 -1.62381 3.63149 0
M  V30 10736 H 1028.9 -0.781325 6.50827 0
M  V30 10737 H 1028.42 -2.21631 5.57351 0
M  V30 10738 H 1030.1 -2.03819 6.14058 0
M  V30 10739 N 1030.24 -1.51135 -0.446768 0
M  V30 10740 C 1031.51 -1.5387 -1.20762 0
M  V30 10741 C 1031.89 -0.297446 -2.08994 0
M  V30 10742 O 1031.24 0.717975 -2.16927 0
M  V30 10743 C 1031.45 -2.84767 -2.01764 0
M  V30 10744 C 1032.8 -3.3636 -2.59128 0
M  V30 10745 O 1033.82 -2.86254 -2.11984 0
M  V30 10746 O 1032.68 -4.23765 -3.45088 0
M  V30 10747 H 1029.78 -0.618228 -0.549293 0
M  V30 10748 H 1032.32 -1.63442 -0.456605 0
M  V30 10749 H 1031.09 -3.6657 -1.36901 0
M  V30 10750 H 1030.72 -2.78313 -2.8395 0
M  V30 10751 N 1031.71 0.701592 -1.41122 0
M  V30 10752 C 1032.96 1.45722 -1.39456 0
M  V30 10753 C 1033.28 1.95599 -0.00475228 0
M  V30 10754 O 1034.48 2.71166 0.134529 0
M  V30 10755 C 1032.94 2.63475 -2.45172 0
M  V30 10756 C 1032.55 2.20409 -3.90031 0
M  V30 10757 C 1034.29 3.4114 -2.52633 0
M  V30 10758 C 1032.2 3.35084 -4.87312 0
M  V30 10759 H 1031.13 0.547341 -0.518588 0
M  V30 10760 H 1033.78 0.762233 -1.6692 0
M  V30 10761 H 1032.16 3.35212 -2.10829 0
M  V30 10762 H 1033.33 1.56 -4.3359 0
M  V30 10763 H 1031.65 1.55752 -3.86174 0
M  V30 10764 H 1034.25 4.26496 -3.22498 0
M  V30 10765 H 1034.59 3.85915 -1.56125 0
M  V30 10766 H 1035.12 2.76456 -2.86037 0
M  V30 10767 H 1031.86 2.95327 -5.85203 0
M  V30 10768 H 1031.38 3.98362 -4.48406 0
M  V30 10769 H 1033.06 4.00949 -5.07788 0
M  V30 10770 N 1033.19 1.2685 0.935242 0
M  V30 10771 C 1034.44 1.12912 1.6846 0
M  V30 10772 C 1034.77 -0.325708 1.91449 0
M  V30 10773 O 1034.05 -1.23884 1.49944 0
M  V30 10774 C 1034.33 1.90513 3.05576 0
M  V30 10775 C 1034.18 3.43936 2.89876 0
M  V30 10776 C 1035.5 1.70363 4.05789 0
M  V30 10777 H 1032.62 0.411559 0.611382 0
M  V30 10778 H 1035.26 1.55917 1.08582 0
M  V30 10779 H 1033.41 1.53963 3.5669 0
M  V30 10780 H 1035.08 3.90272 2.45939 0
M  V30 10781 H 1033.33 3.70659 2.25376 0
M  V30 10782 H 1034 3.93467 3.87153 0
M  V30 10783 H 1036.47 2.02217 3.63659 0
M  V30 10784 H 1035.35 2.27066 4.99732 0
M  V30 10785 H 1035.61 0.649674 4.373 0
M  V30 10786 N 1034.67 -1.14067 1.0875 0
M  V30 10787 C 1036.08 -1.66747 0.839778 0
M  V30 10788 C 1036.43 -1.85711 -0.632909 0
M  V30 10789 O 1035.56 -1.57084 -1.48841 0
M  V30 10790 C 1036.15 -3.02896 1.51787 0
M  V30 10791 C 1034.71 -3.52596 1.3173 0
M  V30 10792 C 1033.86 -2.27994 1.57841 0
M  V30 10793 H 1036.81 -0.980838 1.24761 0
M  V30 10794 H 1036.83 -3.68526 0.947057 0
M  V30 10795 H 1036.34 -2.89062 2.58969 0
M  V30 10796 H 1034.44 -3.71647 0.266339 0
M  V30 10797 H 1034.56 -4.33151 2.04736 0
M  V30 10798 H 1032.92 -2.34241 1.00015 0
M  V30 10799 H 1033.7 -2.16732 2.66237 0
M  V30 10800 N 1036.15 -0.873678 -1.31166 0
M  V30 10801 C 1037.06 -0.335726 -2.32185 0
M  V30 10802 C 1038.07 0.556259 -1.64869 0
M  V30 10803 O 1039.25 0.452087 -1.9626 0
M  V30 10804 C 1036.32 0.450822 -3.43756 0
M  V30 10805 C 1035.38 -0.469565 -4.26724 0
M  V30 10806 C 1034.61 0.279538 -5.32967 0
M  V30 10807 O 1034.83 1.50715 -5.50128 0
M  V30 10808 O 1033.77 -0.36452 -6.00795 0
M  V30 10809 H 1037.59 -1.17314 -2.80127 0
M  V30 10810 H 1035.18 -0.637163 -1.35132 0
M  V30 10811 H 1037.06 0.896582 -4.11752 0
M  V30 10812 H 1035.73 1.26472 -2.9797 0
M  V30 10813 H 1034.64 -0.963902 -3.61469 0
M  V30 10814 H 1035.97 -1.24916 -4.76085 0
M  V30 10815 N 1037.63 1.44308 -0.633487 0
M  V30 10816 C 1038.88 2.01239 -0.136356 0
M  V30 10817 C 1039.19 1.50438 1.25011 0
M  V30 10818 O 1040.39 1.99513 1.84138 0
M  V30 10819 C 1038.85 3.59382 -0.193011 0
M  V30 10820 C 1038.46 4.19178 -1.58093 0
M  V30 10821 C 1040.2 4.23778 0.247534 0
M  V30 10822 C 1038.11 5.69553 -1.59258 0
M  V30 10823 H 1037.04 0.752521 -0.0472109 0
M  V30 10824 H 1039.69 1.65498 -0.79263 0
M  V30 10825 H 1038.07 3.92432 0.530408 0
M  V30 10826 H 1039.25 3.97662 -2.32813 0
M  V30 10827 H 1037.56 3.67079 -1.96576 0
M  V30 10828 H 1040.16 5.34075 0.258401 0
M  V30 10829 H 1040.5 3.96285 1.27529 0
M  V30 10830 H 1041.03 3.9554 -0.423469 0
M  V30 10831 H 1037.77 6.01784 -2.59878 0
M  V30 10832 H 1037.29 5.93185 -0.888352 0
M  V30 10833 H 1038.97 6.33234 -1.32756 0
M  V30 10834 N 1039.1 0.374177 1.53094 0
M  V30 10835 C 1040.04 -0.511995 2.22382 0
M  V30 10836 C 1041.02 -1.07617 1.2189 0
M  V30 10837 O 1042.2 -1.13068 1.50824 0
M  V30 10838 C 1039.33 -1.70724 2.92525 0
M  V30 10839 C 1038.37 -1.26972 4.07161 0
M  V30 10840 S 1039.21 -0.263835 5.3485 0
M  V30 10841 C 1040.36 -1.46521 6.08508 0
M  V30 10842 H 1040.59 0.0764311 2.97202 0
M  V30 10843 H 1038.13 0.158307 1.53586 0
M  V30 10844 H 1040.09 -2.39279 3.3355 0
M  V30 10845 H 1038.75 -2.26693 2.17414 0
M  V30 10846 H 1037.94 -2.16172 4.55286 0
M  V30 10847 H 1037.54 -0.663273 3.68072 0
M  V30 10848 H 1039.83 -2.39483 6.33762 0
M  V30 10849 H 1040.78 -1.02517 7.0064 0
M  V30 10850 H 1041.18 -1.67516 5.39072 0
M  V30 10851 N 1040.58 -1.57259 0.103575 0
M  V30 10852 C 1041.83 -1.93832 -0.55786 0
M  V30 10853 C 1042.14 -0.988087 -1.68808 0
M  V30 10854 O 1043.35 -1.24786 -2.41124 0
M  V30 10855 C 1041.81 -3.44433 -1.04373 0
M  V30 10856 C 1041.41 -4.47963 0.0571971 0
M  V30 10857 C 1043.16 -3.89953 -1.67742 0
M  V30 10858 C 1041.07 -5.89727 -0.444505 0
M  V30 10859 H 1040 -0.723536 -0.212161 0
M  V30 10860 H 1042.65 -1.82606 0.180944 0
M  V30 10861 H 1041.03 -3.50841 -1.83648 0
M  V30 10862 H 1042.2 -4.53209 0.83298 0
M  V30 10863 H 1040.52 -4.12104 0.596588 0
M  V30 10864 H 1043.11 -4.93272 -2.06365 0
M  V30 10865 H 1043.46 -3.2907 -2.54988 0
M  V30 10866 H 1043.99 -3.86281 -0.950342 0
M  V30 10867 H 1040.73 -6.5433 0.391543 0
M  V30 10868 H 1040.25 -5.87935 -1.18711 0
M  V30 10869 H 1041.93 -6.40558 -0.910739 0
M  V30 10870 N 1042.06 0.170153 -1.56679 0
M  V30 10871 C 1043.47 0.732502 -1.7173 0
M  V30 10872 C 1043.82 1.82736 -0.71428 0
M  V30 10873 O 1042.95 2.16044 0.124102 0
M  V30 10874 C 1043.54 1.33548 -3.11368 0
M  V30 10875 C 1042.1 1.84464 -3.281 0
M  V30 10876 C 1041.25 0.724069 -2.6768 0
M  V30 10877 H 1044.2 -0.0552543 -1.58604 0
M  V30 10878 H 1044.22 2.20519 -3.10083 0
M  V30 10879 H 1043.73 0.5384 -3.84347 0
M  V30 10880 H 1041.83 2.66813 -2.6008 0
M  V30 10881 H 1041.95 1.98928 -4.35849 0
M  V30 10882 H 1040.31 1.14481 -2.27522 0
M  V30 10883 H 1041.09 -0.0611861 -3.43245 0
M  V30 10884 N 1043.54 1.5137 0.438746 0
M  V30 10885 C 1044.47 1.75528 1.53987 0
M  V30 10886 C 1045.45 0.605067 1.58975 0
M  V30 10887 O 1046.63 0.847634 1.74725 0
M  V30 10888 C 1043.76 1.87904 2.92078 0
M  V30 10889 C 1042.72 3.0333 3.01951 0
M  V30 10890 C 1042.04 3.00888 4.42007 0
M  V30 10891 C 1043.34 4.43319 2.76163 0
M  V30 10892 H 1045.04 2.67728 1.34022 0
M  V30 10893 H 1042.58 1.28831 0.643308 0
M  V30 10894 H 1044.54 2.03388 3.69068 0
M  V30 10895 H 1043.26 0.923514 3.13271 0
M  V30 10896 H 1041.92 2.87549 2.274 0
M  V30 10897 H 1041.57 2.03116 4.60166 0
M  V30 10898 H 1041.27 3.78397 4.49544 0
M  V30 10899 H 1042.79 3.18464 5.20973 0
M  V30 10900 H 1044.21 4.59458 3.42887 0
M  V30 10901 H 1042.6 5.22523 2.9511 0
M  V30 10902 H 1043.67 4.53453 1.71779 0
M  V30 10903 N 1045.02 -0.694098 1.41492 0
M  V30 10904 C 1046.26 -1.4563 1.41137 0
M  V30 10905 C 1046.6 -1.94189 0.0208428 0
M  V30 10906 O 1045.87 -1.69628 -0.951655 0
M  V30 10907 C 1046.15 -2.66714 2.41941 0
M  V30 10908 C 1046.01 -2.23912 3.90107 0
M  V30 10909 C 1047.33 -3.68913 2.39981 0
M  V30 10910 H 1044.44 -0.52821 0.513968 0
M  V30 10911 H 1047.09 -0.790437 1.72778 0
M  V30 10912 H 1045.24 -3.23525 2.1509 0
M  V30 10913 H 1046.91 -1.72417 4.27867 0
M  V30 10914 H 1045.15 -1.5568 4.04903 0
M  V30 10915 H 1045.82 -3.108 4.56188 0
M  V30 10916 H 1048.3 -3.21779 2.63813 0
M  V30 10917 H 1047.17 -4.51242 3.12524 0
M  V30 10918 H 1047.44 -4.18711 1.41892 0
M  V30 10919 N 1046.49 -1.27344 -0.928501 0
M  V30 10920 C 1047.74 -1.13411 -1.67279 0
M  V30 10921 C 1048.06 0.320698 -1.92345 0
M  V30 10922 O 1047.33 1.2245 -1.52915 0
M  V30 10923 H 1045.91 -0.416712 -0.619968 0
M  V30 10924 H 1048.58 -1.5986 -1.11493 0
M  V30 10925 H 1047.67 -1.66256 -2.64131 0
M  V30 10926 N 1047.97 1.13488 -1.09353 0
M  V30 10927 C 1048.88 2.2248 -0.744307 0
M  V30 10928 C 1049.9 1.72145 0.253404 0
M  V30 10929 O 1051.07 2.01176 0.0949339 0
M  V30 10930 C 1048.14 3.46286 -0.16928 0
M  V30 10931 C 1047.2 4.11516 -1.22284 0
M  V30 10932 C 1046.43 5.29412 -0.675161 0
M  V30 10933 O 1046.66 5.68185 0.502182 0
M  V30 10934 O 1045.59 5.8467 -1.42983 0
M  V30 10935 H 1049.42 2.54723 -1.65378 0
M  V30 10936 H 1047 1.21607 -0.867879 0
M  V30 10937 H 1048.88 4.2114 0.14811 0
M  V30 10938 H 1047.56 3.15745 0.713214 0
M  V30 10939 H 1046.47 3.38492 -1.59292 0
M  V30 10940 H 1047.8 4.46186 -2.07796 0
M  V30 10941 N 1049.45 0.880621 1.30701 0
M  V30 10942 C 1050.4 0.342397 2.28246 0
M  V30 10943 C 1051.37 -0.565023 1.56194 0
M  V30 10944 O 1052.55 -0.494377 1.84284 0
M  V30 10945 C 1049.69 -0.440859 3.42272 0
M  V30 10946 C 1048.81 0.495284 4.29151 0
M  V30 10947 C 1047.94 -0.303141 5.30334 0
M  V30 10948 C 1046.98 0.628751 6.08862 0
M  V30 10949 N 1046.12 -0.13408 7.01972 0
M  V30 10950 H 1050.96 1.17938 2.73669 0
M  V30 10951 H 1048.49 0.59296 1.34619 0
M  V30 10952 H 1050.45 -0.910854 4.07135 0
M  V30 10953 H 1049.08 -1.24245 2.97931 0
M  V30 10954 H 1048.13 1.08376 3.64635 0
M  V30 10955 H 1049.45 1.2094 4.83916 0
M  V30 10956 H 1048.6 -0.835181 6.00924 0
M  V30 10957 H 1047.34 -1.05049 4.76252 0
M  V30 10958 H 1046.34 1.17246 5.37153 0
M  V30 10959 H 1047.57 1.37512 6.65032 0
M  V30 10960 H 1045.52 -0.864046 6.50285 0
M  V30 10961 H 1045.43 0.520486 7.54206 0
M  V30 10962 H 1046.7 -0.647005 7.7681 0
M  V30 10963 N 1050.93 -1.4397 0.641131 0
M  V30 10964 C 1051.88 -2.30728 -0.0577905 0
M  V30 10965 C 1052.85 -1.44059 -0.826819 0
M  V30 10966 O 1054.03 -1.72947 -0.805853 0
M  V30 10967 C 1051.17 -3.29478 -1.02657 0
M  V30 10968 C 1050.28 -4.31247 -0.254913 0
M  V30 10969 C 1049.42 -5.17085 -1.2164 0
M  V30 10970 C 1048.46 -6.10556 -0.434481 0
M  V30 10971 N 1047.6 -6.89059 -1.34694 0
M  V30 10972 H 1052.44 -2.8995 0.687953 0
M  V30 10973 H 1049.97 -1.4285 0.351029 0
M  V30 10974 H 1051.93 -3.85228 -1.60173 0
M  V30 10975 H 1050.56 -2.71932 -1.73933 0
M  V30 10976 H 1049.61 -3.77889 0.436338 0
M  V30 10977 H 1050.92 -4.97545 0.353642 0
M  V30 10978 H 1050.08 -5.77402 -1.86258 0
M  V30 10979 H 1048.82 -4.50885 -1.85888 0
M  V30 10980 H 1047.82 -5.49339 0.225125 0
M  V30 10981 H 1049.05 -6.78795 0.203415 0
M  V30 10982 H 1046.99 -6.25518 -1.97644 0
M  V30 10983 H 1046.91 -7.51833 -0.792657 0
M  V30 10984 H 1048.18 -7.5389 -1.98165 0
M  V30 10985 N 1052.41 -0.382291 -1.52893 0
M  V30 10986 C 1053.32 0.463745 -2.29971 0
M  V30 10987 C 1054.33 1.07777 -1.36602 0
M  V30 10988 O 1055.51 1.0851 -1.69669 0
M  V30 10989 C 1052.57 1.57938 -3.08637 0
M  V30 10990 C 1051.64 0.991182 -4.17701 0
M  V30 10991 C 1050.87 2.05365 -4.92606 0
M  V30 10992 O 1051.09 3.26757 -4.67532 0
M  V30 10993 O 1050.03 1.67487 -5.78128 0
M  V30 10994 H 1053.85 -0.163962 -3.03257 0
M  V30 10995 H 1051.44 -0.146199 -1.48683 0
M  V30 10996 H 1053.32 2.22765 -3.57706 0
M  V30 10997 H 1051.99 2.19218 -2.3817 0
M  V30 10998 H 1050.9 0.306364 -3.72843 0
M  V30 10999 H 1052.23 0.422699 -4.90382 0
M  V30 11000 N 1053.89 1.57202 -0.111913 0
M  V30 11001 C 1054.82 2.17957 0.837683 0
M  V30 11002 C 1055.8 1.1176 1.28233 0
M  V30 11003 O 1056.98 1.39967 1.34621 0
M  V30 11004 C 1054.11 2.77333 2.09054 0
M  V30 11005 C 1053.07 3.8905 1.78393 0
M  V30 11006 C 1052.39 4.35203 3.10649 0
M  V30 11007 C 1053.69 5.11477 1.05775 0
M  V30 11008 H 1055.39 2.9756 0.331441 0
M  V30 11009 H 1052.93 1.43131 0.157979 0
M  V30 11010 H 1054.88 3.18492 2.75936 0
M  V30 11011 H 1053.61 1.95009 2.6199 0
M  V30 11012 H 1052.27 3.48456 1.13903 0
M  V30 11013 H 1051.92 3.49747 3.61506 0
M  V30 11014 H 1051.62 5.10534 2.9091 0
M  V30 11015 H 1053.14 4.79007 3.78661 0
M  V30 11016 H 1054.55 5.497 1.62798 0
M  V30 11017 H 1052.95 5.92346 0.961573 0
M  V30 11018 H 1054.02 4.84881 0.043297 0
M  V30 11019 N 1055.36 -0.161842 1.56767 0
M  V30 11020 C 1056.31 -1.2002 1.97139 0
M  V30 11021 C 1057.28 -1.43486 0.836713 0
M  V30 11022 O 1058.47 -1.56069 1.0976 0
M  V30 11023 C 1055.61 -2.53228 2.34456 0
M  V30 11024 C 1054.72 -2.37062 3.61145 0
M  V30 11025 C 1053.85 -3.63202 3.87631 0
M  V30 11026 C 1052.89 -3.42008 5.07638 0
M  V30 11027 N 1052.03 -4.60242 5.30209 0
M  V30 11028 H 1056.87 -0.848918 2.85653 0
M  V30 11029 H 1054.41 -0.407753 1.41336 0
M  V30 11030 H 1056.36 -3.30879 2.54116 0
M  V30 11031 H 1054.99 -2.86333 1.4904 0
M  V30 11032 H 1054.05 -1.50539 3.49345 0
M  V30 11033 H 1055.36 -2.17353 4.48953 0
M  V30 11034 H 1054.51 -4.49285 4.0771 0
M  V30 11035 H 1053.25 -3.85899 2.98216 0
M  V30 11036 H 1052.26 -2.54312 4.87448 0
M  V30 11037 H 1053.48 -3.20724 5.98593 0
M  V30 11038 H 1051.43 -4.8314 4.43747 0
M  V30 11039 H 1051.34 -4.43481 6.12259 0
M  V30 11040 H 1052.61 -5.47581 5.54775 0
M  V30 11041 N 1056.84 -1.516 -0.430713 0
M  V30 11042 C 1058.09 -1.64596 -1.17959 0
M  V30 11043 C 1058.42 -0.365382 -1.91037 0
M  V30 11044 O 1057.67 0.650826 -1.84561 0
M  V30 11045 C 1057.97 -2.804 -2.21609 0
M  V30 11046 C 1057.64 -4.19431 -1.65495 0
M  V30 11047 C 1056.3 -4.57252 -1.49915 0
M  V30 11048 C 1058.65 -5.0616 -1.24304 0
M  V30 11049 C 1055.98 -5.79501 -0.916276 0
M  V30 11050 C 1058.33 -6.28995 -0.674437 0
M  V30 11051 C 1056.99 -6.65582 -0.505591 0
M  V30 11052 H 1056.26 -0.602301 -0.431642 0
M  V30 11053 H 1058.91 -1.8565 -0.469726 0
M  V30 11054 H 1057.22 -2.53595 -2.98658 0
M  V30 11055 H 1058.91 -2.87654 -2.79385 0
M  V30 11056 H 1055.5 -3.89615 -1.78599 0
M  V30 11057 H 1059.69 -4.77541 -1.35159 0
M  V30 11058 H 1054.94 -6.0649 -0.77328 0
M  V30 11059 H 1059.12 -6.95536 -0.346779 0
M  V30 11060 H 1056.74 -7.60182 -0.0518188 0
M  V30 11061 N 1058.32 0.686584 -1.41858 0
M  V30 11062 C 1059.57 1.44879 -1.41908 0
M  V30 11063 C 1059.9 1.94175 -0.0311408 0
M  V30 11064 O 1059.17 1.70131 0.942646 0
M  V30 11065 C 1059.46 2.65428 -2.43352 0
M  V30 11066 C 1059.31 2.2184 -3.91289 0
M  V30 11067 C 1060.63 3.67635 -2.41934 0
M  V30 11068 H 1057.75 0.525477 -0.516762 0
M  V30 11069 H 1060.39 0.781263 -1.73194 0
M  V30 11070 H 1058.54 3.2238 -2.16803 0
M  V30 11071 H 1060.21 1.70146 -4.28775 0
M  V30 11072 H 1058.45 1.53531 -4.05722 0
M  V30 11073 H 1059.13 3.08376 -4.5783 0
M  V30 11074 H 1061.6 3.20376 -2.65516 0
M  V30 11075 H 1060.48 4.49579 -3.14913 0
M  V30 11076 H 1060.74 4.17953 -1.44111 0
M  V30 11077 N 1059.8 1.27835 0.921735 0
M  V30 11078 C 1060.74 1.11075 2.02314 0
M  V30 11079 C 1061.71 0.0101195 1.66097 0
M  V30 11080 O 1062.9 0.173564 1.90009 0
M  V30 11081 C 1060.04 0.770251 3.36394 0
M  V30 11082 C 1059.15 1.94912 3.8553 0
M  V30 11083 C 1058.29 1.54996 5.08084 0
M  V30 11084 C 1057.33 2.69595 5.49531 0
M  V30 11085 N 1056.46 2.30227 6.6328 0
M  V30 11086 H 1061.3 2.05319 2.15982 0
M  V30 11087 H 1058.84 1.022 1.058 0
M  V30 11088 H 1060.8 0.553624 4.1351 0
M  V30 11089 H 1059.43 -0.135238 3.22517 0
M  V30 11090 H 1058.48 2.27811 3.04641 0
M  V30 11091 H 1059.79 2.80858 4.12214 0
M  V30 11092 H 1058.95 1.29493 5.9272 0
M  V30 11093 H 1057.69 0.661676 4.83191 0
M  V30 11094 H 1056.69 2.95806 4.63442 0
M  V30 11095 H 1057.92 3.59054 5.76417 0
M  V30 11096 H 1055.86 1.43858 6.40032 0
M  V30 11097 H 1055.78 3.09711 6.89649 0
M  V30 11098 H 1057.05 2.07987 7.5124 0
M  V30 11099 N 1061.28 -1.12907 1.09954 0
M  V30 11100 C 1062.55 -1.80602 0.751148 0
M  V30 11101 C 1062.93 -1.96826 -0.763077 0
M  V30 11102 O 1062.28 -1.54066 -1.68749 0
M  V30 11103 C 1062.49 -3.15289 1.49646 0
M  V30 11104 C 1063.84 -3.9056 1.66578 0
M  V30 11105 O 1064.86 -3.24929 1.45943 0
M  V30 11106 O 1063.72 -5.08292 2.00752 0
M  V30 11107 H 1060.82 -0.781529 0.270446 0
M  V30 11108 H 1063.36 -1.19786 1.20206 0
M  V30 11109 H 1062.13 -2.9874 2.52725 0
M  V30 11110 H 1061.76 -3.83809 1.03808 0
M  V30 11111 N 1062.75 -0.88754 -1.30232 0
M  V30 11112 C 1064 -0.508031 -1.96334 0
M  V30 11113 C 1064.33 0.940905 -1.69884 0
M  V30 11114 O 1063.61 1.66523 -1.005 0
M  V30 11115 C 1063.89 -0.786566 -3.51405 0
M  V30 11116 C 1063.74 -2.28632 -3.8736 0
M  V30 11117 C 1065.06 -0.264803 -4.39303 0
M  V30 11118 H 1062.18 -0.186051 -0.71313 0
M  V30 11119 H 1064.82 -1.112 -1.5406 0
M  V30 11120 H 1062.97 -0.272523 -3.87543 0
M  V30 11121 H 1064.65 -2.86896 -3.61231 0
M  V30 11122 H 1062.89 -2.75194 -3.35337 0
M  V30 11123 H 1063.56 -2.43181 -4.95547 0
M  V30 11124 H 1066.04 -0.704809 -4.10087 0
M  V30 11125 H 1064.91 -0.488998 -5.46717 0
M  V30 11126 H 1065.17 0.834055 -4.34161 0
M  V30 11127 N 1064.23 1.43628 -0.648757 0
M  V30 11128 C 1065.48 2.02163 -0.160574 0
M  V30 11129 C 1065.81 1.51037 1.22072 0
M  V30 11130 O 1065.09 0.701633 1.81404 0
M  V30 11131 C 1065.37 3.59715 -0.166528 0
M  V30 11132 C 1065.22 4.21083 -1.58142 0
M  V30 11133 C 1066.54 4.37256 0.499485 0
M  V30 11134 H 1063.66 0.734568 -0.0598238 0
M  V30 11135 H 1066.3 1.70981 -0.828592 0
M  V30 11136 H 1064.45 3.86411 0.402302 0
M  V30 11137 H 1066.12 4.05433 -2.2005 0
M  V30 11138 H 1064.37 3.77904 -2.13005 0
M  V30 11139 H 1065.04 5.30156 -1.53748 0
M  V30 11140 H 1067.51 4.16097 0.0155561 0
M  V30 11141 H 1066.39 5.4693 0.464574 0
M  V30 11142 H 1066.65 4.13175 1.57286 0
M  V30 11143 N 1065.71 0.390394 1.52688 0
M  V30 11144 C 1066.96 -0.191729 2.01892 0
M  V30 11145 C 1067.29 -1.4637 1.27631 0
M  V30 11146 O 1066.56 -1.90809 0.377094 0
M  V30 11147 C 1066.85 -0.458535 3.57169 0
M  V30 11148 C 1066.7 0.828796 4.42098 0
M  V30 11149 C 1068.02 -1.2487 4.22014 0
M  V30 11150 H 1065.14 -0.0682091 0.733837 0
M  V30 11151 H 1067.78 0.520176 1.82741 0
M  V30 11152 H 1065.93 -1.06498 3.73618 0
M  V30 11153 H 1067.6 1.46562 4.37398 0
M  V30 11154 H 1065.85 1.44388 4.09066 0
M  V30 11155 H 1066.52 0.596746 5.48765 0
M  V30 11156 H 1068.99 -0.735452 4.09549 0
M  V30 11157 H 1067.87 -1.40412 5.30637 0
M  V30 11158 H 1068.13 -2.2642 3.79719 0
M  V30 11159 N 1067.19 -1.57141 0.120249 0
M  V30 11160 C 1068.1 -2.18925 -0.843155 0
M  V30 11161 C 1069.11 -1.16575 -1.29175 0
M  V30 11162 O 1070.29 -1.4905 -1.35448 0
M  V30 11163 C 1067.36 -2.7775 -2.075 0
M  V30 11164 C 1066.42 -3.95139 -1.6782 0
M  V30 11165 C 1065.65 -4.51149 -2.85132 0
M  V30 11166 O 1065.87 -4.06056 -4.00593 0
M  V30 11167 O 1064.81 -5.41815 -2.62145 0
M  V30 11168 H 1068.63 -3.01707 -0.347357 0
M  V30 11169 H 1066.22 -1.49028 -0.105427 0
M  V30 11170 H 1068.1 -3.15243 -2.79643 0
M  V30 11171 H 1066.77 -1.97998 -2.56083 0
M  V30 11172 H 1065.68 -3.62412 -0.927807 0
M  V30 11173 H 1067.01 -4.7633 -1.23977 0
M  V30 11174 N 1068.67 0.153526 -1.5685 0
M  V30 11175 C 1069.91 0.868517 -1.83261 0
M  V30 11176 C 1070.25 1.81112 -0.700857 0
M  V30 11177 O 1069.52 1.92235 0.295989 0
M  V30 11178 C 1069.8 1.6487 -3.2014 0
M  V30 11179 C 1069.66 0.728021 -4.43869 0
M  V30 11180 C 1070.98 2.61259 -3.54163 0
M  V30 11181 H 1068.09 0.314297 -0.666623 0
M  V30 11182 H 1070.74 0.133971 -1.89527 0
M  V30 11183 H 1068.89 2.2749 -3.1493 0
M  V30 11184 H 1070.56 0.113328 -4.61161 0
M  V30 11185 H 1068.8 0.0371744 -4.33784 0
M  V30 11186 H 1069.47 1.30981 -5.36235 0
M  V30 11187 H 1071.95 2.0876 -3.59942 0
M  V30 11188 H 1070.82 3.12902 -4.50981 0
M  V30 11189 H 1071.09 3.42307 -2.79782 0
M  V30 11190 N 1070.14 1.51827 0.422667 0
M  V30 11191 C 1071.11 1.7359 1.49663 0
M  V30 11192 C 1072.11 0.605811 1.48952 0
M  V30 11193 O 1073.3 0.87354 1.50715 0
M  V30 11194 C 1070.43 1.80585 2.8914 0
M  V30 11195 H 1071.62 2.69453 1.31664 0
M  V30 11196 H 1069.18 1.42038 0.652298 0
M  V30 11197 H 1069.91 0.865895 3.12526 0
M  V30 11198 H 1069.7 2.62729 2.9106 0
M  V30 11199 H 1071.19 1.99212 3.67021 0
M  V30 11200 N 1071.62 -0.679052 1.4222 0
M  V30 11201 C 1072.53 -1.82221 1.47759 0
M  V30 11202 C 1073.55 -1.70092 0.3667 0
M  V30 11203 O 1074.72 -1.91718 0.616957 0
M  V30 11204 C 1071.79 -3.18332 1.37351 0
M  V30 11205 C 1070.85 -3.42449 2.58896 0
M  V30 11206 C 1070.08 -4.72067 2.48976 0
M  V30 11207 O 1070.31 -5.49683 1.5233 0
M  V30 11208 O 1069.24 -4.97333 3.39033 0
M  V30 11209 H 1073.07 -1.80504 2.44238 0
M  V30 11210 H 1070.65 -0.834251 1.23938 0
M  V30 11211 H 1072.53 -3.99563 1.33893 0
M  V30 11212 H 1071.21 -3.20696 0.439965 0
M  V30 11213 H 1070.12 -2.61083 2.6793 0
M  V30 11214 H 1071.45 -3.44912 3.51136 0
M  V30 11215 N 1073.1 -1.28322 -0.914942 0
M  V30 11216 C 1074.03 -1.07947 -2.02188 0
M  V30 11217 C 1075.05 -0.0315743 -1.62769 0
M  V30 11218 O 1076.23 -0.274503 -1.76377 0
M  V30 11219 C 1073.33 -0.61805 -3.33217 0
M  V30 11220 C 1072.51 -1.74109 -4.01254 0
M  V30 11221 C 1071.57 -1.27325 -5.10563 0
M  V30 11222 O 1070.59 -1.97526 -5.33828 0
M  V30 11223 N 1071.79 -0.1358 -5.80341 0
M  V30 11224 H 1074.56 -2.03275 -2.20225 0
M  V30 11225 H 1072.12 -1.20059 -1.08616 0
M  V30 11226 H 1074.11 -0.288693 -4.03669 0
M  V30 11227 H 1072.68 0.242348 -3.11659 0
M  V30 11228 H 1071.9 -2.2401 -3.24366 0
M  V30 11229 H 1073.19 -2.49448 -4.43456 0
M  V30 11230 H 1072.59 0.449846 -5.63909 0
M  V30 11231 H 1071.15 0.134289 -6.51662 0
M  V30 11232 N 1074.58 1.12322 -1.10551 0
M  V30 11233 C 1075.82 1.8413 -0.849932 0
M  V30 11234 C 1076.16 1.83938 0.622946 0
M  V30 11235 O 1075.43 1.28579 1.45937 0
M  V30 11236 C 1075.72 3.31751 -1.40048 0
M  V30 11237 C 1075.57 3.40391 -2.9403 0
M  V30 11238 C 1076.89 4.27543 -1.04379 0
M  V30 11239 H 1074.01 0.668533 -0.310213 0
M  V30 11240 H 1076.65 1.31766 -1.36886 0
M  V30 11241 H 1074.8 3.76475 -0.959102 0
M  V30 11242 H 1076.47 3.04294 -3.46703 0
M  V30 11243 H 1074.71 2.809 -3.30571 0
M  V30 11244 H 1075.38 4.44252 -3.27635 0
M  V30 11245 H 1077.86 3.90951 -1.42466 0
M  V30 11246 H 1076.74 5.2924 -1.4559 0
M  V30 11247 H 1077 4.42075 0.0466316 0
M  V30 11248 N 1076.06 0.894434 1.2976 0
M  V30 11249 C 1077 0.366586 2.2787 0
M  V30 11250 C 1077.97 -0.548425 1.56785 0
M  V30 11251 O 1079.16 -0.474804 1.84798 0
M  V30 11252 C 1076.3 -0.404531 3.42721 0
M  V30 11253 C 1075.41 0.540774 4.28602 0
M  V30 11254 C 1074.55 -0.246875 5.30626 0
M  V30 11255 C 1073.59 0.693294 6.08161 0
M  V30 11256 N 1072.72 -0.059619 7.02075 0
M  V30 11257 H 1077.56 1.20834 2.72402 0
M  V30 11258 H 1075.1 0.607205 1.33983 0
M  V30 11259 H 1077.06 -0.86762 4.08079 0
M  V30 11260 H 1075.69 -1.21078 2.99232 0
M  V30 11261 H 1074.74 1.12237 3.63465 0
M  V30 11262 H 1076.05 1.26065 4.82606 0
M  V30 11263 H 1075.21 -0.771398 6.01776 0
M  V30 11264 H 1073.94 -0.999918 4.77339 0
M  V30 11265 H 1072.95 1.22936 5.35879 0
M  V30 11266 H 1074.17 1.44558 6.63536 0
M  V30 11267 H 1072.12 -0.795026 6.51165 0
M  V30 11268 H 1072.04 0.60045 7.53612 0
M  V30 11269 H 1073.31 -0.564577 7.77453 0
M  V30 11270 N 1077.53 -1.43282 0.656365 0
M  V30 11271 C 1078.48 -2.30776 -0.0333155 0
M  V30 11272 C 1079.45 -1.44928 -0.811493 0
M  V30 11273 O 1080.64 -1.73792 -0.787465 0
M  V30 11274 C 1077.78 -3.30548 -0.991566 0
M  V30 11275 C 1076.89 -4.31493 -0.209159 0
M  V30 11276 C 1076.02 -5.18346 -1.16149 0
M  V30 11277 C 1075.06 -6.10983 -0.369699 0
M  V30 11278 N 1074.2 -6.90449 -1.27378 0
M  V30 11279 H 1079.04 -2.89204 0.718668 0
M  V30 11280 H 1076.58 -1.4247 0.366161 0
M  V30 11281 H 1078.54 -3.86905 -1.56078 0
M  V30 11282 H 1077.17 -2.73762 -1.71039 0
M  V30 11283 H 1076.22 -3.77405 0.476394 0
M  V30 11284 H 1077.53 -4.97142 0.406394 0
M  V30 11285 H 1076.68 -5.79345 -1.80124 0
M  V30 11286 H 1075.42 -4.52831 -1.81095 0
M  V30 11287 H 1074.43 -5.49069 0.283377 0
M  V30 11288 H 1075.65 -6.78541 0.275399 0
M  V30 11289 H 1073.6 -6.27579 -1.90999 0
M  V30 11290 H 1073.52 -7.52631 -0.71287 0
M  V30 11291 H 1074.78 -7.5595 -1.90158 0
M  V30 11292 N 1079.01 -0.398486 -1.52479 0
M  V30 11293 C 1079.92 0.439328 -2.3045 0
M  V30 11294 C 1080.94 1.06322 -1.37738 0
M  V30 11295 O 1082.12 1.06704 -1.7081 0
M  V30 11296 C 1079.18 1.54655 -3.10294 0
M  V30 11297 C 1078.24 0.946824 -4.18729 0
M  V30 11298 C 1077.47 2.00129 -4.94757 0
M  V30 11299 O 1077.7 3.2178 -4.70971 0
M  V30 11300 O 1076.63 1.61345 -5.79872 0
M  V30 11301 H 1080.46 -0.196118 -3.03066 0
M  V30 11302 H 1078.04 -0.161961 -1.4852 0
M  V30 11303 H 1079.92 2.18958 -3.60049 0
M  V30 11304 H 1078.6 2.1668 -2.40482 0
M  V30 11305 H 1077.51 0.266802 -3.73147 0
M  V30 11306 H 1078.84 0.370664 -4.90802 0
M  V30 11307 N 1080.49 1.57075 -0.12858 0
M  V30 11308 C 1081.44 2.15816 0.818064 0
M  V30 11309 C 1082.41 1.08581 1.25696 0
M  V30 11310 O 1083.59 1.36535 1.33277 0
M  V30 11311 C 1080.73 2.76943 2.05905 0
M  V30 11312 C 1079.85 3.98514 1.66764 0
M  V30 11313 C 1078.98 4.47698 2.85902 0
M  V30 11314 C 1078.02 5.61778 2.43047 0
M  V30 11315 N 1077.16 6.05662 3.5513 0
M  V30 11316 H 1082 2.9638 0.310318 0
M  V30 11317 H 1079.53 1.46418 0.141472 0
M  V30 11318 H 1081.49 3.10519 2.78629 0
M  V30 11319 H 1080.12 1.99053 2.54122 0
M  V30 11320 H 1079.17 3.71038 0.838766 0
M  V30 11321 H 1080.49 4.81215 1.31277 0
M  V30 11322 H 1079.64 4.83233 3.66839 0
M  V30 11323 H 1078.38 3.63967 3.24622 0
M  V30 11324 H 1077.38 5.25838 1.60544 0
M  V30 11325 H 1078.61 6.47282 2.05433 0
M  V30 11326 H 1076.56 5.2487 3.93506 0
M  V30 11327 H 1076.47 6.83242 3.23598 0
M  V30 11328 H 1077.74 6.45838 4.36479 0
M  V30 11329 N 1081.97 -0.145205 1.5693 0
M  V30 11330 C 1083.22 -0.855822 1.83085 0
M  V30 11331 C 1083.54 -1.81625 0.709747 0
M  V30 11332 O 1082.81 -1.94052 -0.268456 0
M  V30 11333 H 1081.39 -0.319032 0.675446 0
M  V30 11334 H 1084.05 -0.138781 1.94405 0
M  V30 11335 H 1083.15 -1.41698 2.78079 0
M  V30 11336 N 1083.45 -1.52049 -0.414609 0
M  V30 11337 C 1084.67 -1.6997 -1.18848 0
M  V30 11338 C 1085.1 -0.406058 -1.83665 0
M  V30 11339 O 1084.46 0.635981 -1.69779 0
M  V30 11340 C 1084.5 -2.8327 -2.23138 0
M  V30 11341 O 1083.61 -2.48457 -3.29155 0
M  V30 11342 H 1082.95 -0.566003 -0.347183 0
M  V30 11343 H 1085.48 -1.98726 -0.486757 0
M  V30 11344 H 1085.49 -3.08022 -2.67557 0
M  V30 11345 H 1084.16 -3.7713 -1.75344 0
M  V30 11346 H 1082.74 -2.34357 -2.90054 0
M  V30 11347 N 1084.93 0.6715 -1.42579 0
M  V30 11348 C 1086.2 1.42766 -1.33706 0
M  V30 11349 C 1086.58 2.11086 0.0239748 0
M  V30 11350 O 1085.93 2.03479 1.03964 0
M  V30 11351 C 1086.14 2.42739 -2.50756 0
M  V30 11352 C 1087.49 3.07284 -2.93021 0
M  V30 11353 O 1088.51 2.53066 -2.50671 0
M  V30 11354 O 1087.37 4.05541 -3.66331 0
M  V30 11355 H 1084.47 0.636955 -0.527463 0
M  V30 11356 H 1087.01 0.699946 -1.54593 0
M  V30 11357 H 1085.78 1.91076 -3.41476 0
M  V30 11358 H 1085.41 3.22986 -2.31874 0
M  V30 11359 N 1086.4 1.28806 0.908124 0
M  V30 11360 C 1087.34 1.07538 2.01273 0
M  V30 11361 C 1088.31 -0.0102454 1.62597 0
M  V30 11362 O 1089.5 0.138797 1.87988 0
M  V30 11363 C 1086.63 0.635337 3.32688 0
M  V30 11364 C 1085.67 1.71843 3.90349 0
M  V30 11365 S 1086.5 3.31571 4.20501 0
M  V30 11366 C 1087.66 2.89416 5.54968 0
M  V30 11367 H 1087.89 2.01058 2.19005 0
M  V30 11368 H 1085.43 1.12857 1.05369 0
M  V30 11369 H 1087.38 0.388159 4.08661 0
M  V30 11370 H 1086.05 -0.280122 3.12848 0
M  V30 11371 H 1085.24 1.36228 4.8524 0
M  V30 11372 H 1084.84 1.91869 3.21033 0
M  V30 11373 H 1087.13 2.35936 6.35091 0
M  V30 11374 H 1088.08 3.83126 5.955 0
M  V30 11375 H 1088.48 2.27962 5.16424 0
M  V30 11376 N 1087.88 -1.11734 1.11145 0
M  V30 11377 C 1088.81 -2.17438 0.724804 0
M  V30 11378 C 1089.83 -1.6099 -0.242069 0
M  V30 11379 O 1091.02 -1.78482 -0.0254259 0
M  V30 11380 C 1088.12 -3.38863 0.050004 0
M  V30 11381 C 1087.29 -4.24785 1.04292 0
M  V30 11382 C 1086.35 -5.24691 0.398243 0
M  V30 11383 O 1085.37 -5.59408 1.05125 0
M  V30 11384 N 1086.58 -5.74388 -0.840184 0
M  V30 11385 H 1089.34 -2.51219 1.63429 0
M  V30 11386 H 1086.9 -1.27226 1.00125 0
M  V30 11387 H 1088.89 -4.02788 -0.392929 0
M  V30 11388 H 1087.46 -3.0317 -0.762005 0
M  V30 11389 H 1086.68 -3.57363 1.6639 0
M  V30 11390 H 1087.97 -4.79033 1.71478 0
M  V30 11391 H 1087.37 -5.48359 -1.38994 0
M  V30 11392 H 1085.93 -6.40163 -1.22615 0
M  V30 11393 N 1089.36 -0.901303 -1.29284 0
M  V30 11394 C 1090.59 -0.542723 -1.99344 0
M  V30 11395 C 1091 0.877357 -1.67628 0
M  V30 11396 O 1090.34 1.59088 -0.918515 0
M  V30 11397 C 1090.4 -0.657088 -3.53444 0
M  V30 11398 C 1090.07 -2.04444 -4.0872 0
M  V30 11399 C 1091.06 -3.01577 -4.23494 0
M  V30 11400 C 1088.75 -2.35425 -4.43712 0
M  V30 11401 C 1090.74 -4.27816 -4.72496 0
M  V30 11402 C 1088.43 -3.61906 -4.9241 0
M  V30 11403 C 1089.43 -4.57916 -5.06757 0
M  V30 11404 O 1089.12 -5.8215 -5.54397 0
M  V30 11405 H 1088.85 -0.206742 -0.64361 0
M  V30 11406 H 1091.4 -1.21311 -1.65749 0
M  V30 11407 H 1089.63 0.0703305 -3.86636 0
M  V30 11408 H 1091.32 -0.307425 -4.04734 0
M  V30 11409 H 1092.09 -2.78957 -3.96747 0
M  V30 11410 H 1087.97 -1.61454 -4.31803 0
M  V30 11411 H 1091.51 -5.0276 -4.83609 0
M  V30 11412 H 1087.41 -3.84356 -5.18595 0
M  V30 11413 H 1088.17 -5.84762 -5.72709 0
M  V30 11414 N 1090.84 1.42931 -0.663954 0
M  V30 11415 C 1091.79 2.27958 0.0436184 0
M  V30 11416 C 1092.77 1.40493 0.784258 0
M  V30 11417 O 1093.96 1.64035 0.664956 0
M  V30 11418 C 1091.09 3.28357 1.00183 0
M  V30 11419 C 1090.18 4.23308 0.259099 0
M  V30 11420 N 1090.57 5.00502 -0.730182 0
M  V30 11421 C 1088.87 4.43199 0.499061 0
M  V30 11422 C 1089.57 5.69771 -1.17201 0
M  V30 11423 N 1088.54 5.41258 -0.504105 0
M  V30 11424 H 1092.35 2.85061 -0.715348 0
M  V30 11425 H 1089.86 1.54764 -0.492117 0
M  V30 11426 H 1091.86 3.88061 1.52362 0
M  V30 11427 H 1090.52 2.72815 1.76074 0
M  V30 11428 H 1091.53 5.0588 -1.10932 0
M  V30 11429 H 1088.21 3.98713 1.23831 0
M  V30 11430 H 1089.6 6.41718 -1.99117 0
M  V30 11431 N 1092.32 0.406567 1.52266 0
M  V30 11432 C 1093.56 -0.171391 2.00971 0
M  V30 11433 C 1093.88 -1.46443 1.29668 0
M  V30 11434 O 1095.08 -2.12348 1.69176 0
M  V30 11435 C 1093.54 -0.35599 3.58135 0
M  V30 11436 C 1093.15 0.924803 4.38351 0
M  V30 11437 C 1094.89 -0.889378 4.15079 0
M  V30 11438 C 1092.8 0.707534 5.87152 0
M  V30 11439 H 1091.73 -0.0678253 0.750943 0
M  V30 11440 H 1094.38 0.531619 1.7563 0
M  V30 11441 H 1092.76 -1.12127 3.79794 0
M  V30 11442 H 1093.94 1.69603 4.28452 0
M  V30 11443 H 1092.25 1.38442 3.92712 0
M  V30 11444 H 1094.85 -1.06792 5.23927 0
M  V30 11445 H 1095.19 -1.86334 3.7227 0
M  V30 11446 H 1095.72 -0.183224 3.97378 0
M  V30 11447 H 1092.46 1.65299 6.34316 0
M  V30 11448 H 1091.98 -0.024446 5.99795 0
M  V30 11449 H 1093.66 0.348721 6.4606 0
M  V30 11450 N 1093.79 -1.57004 0.136909 0
M  V30 11451 C 1095.04 -1.9541 -0.51569 0
M  V30 11452 C 1095.36 -1.02219 -1.66061 0
M  V30 11453 O 1094.63 -0.0818172 -1.95729 0
M  V30 11454 H 1093.21 -0.721504 -0.193497 0
M  V30 11455 H 1095.88 -1.93765 0.210046 0
M  V30 11456 H 1094.97 -2.98887 -0.898494 0
M  V30 11457 N 1095.27 0.136881 -1.57004 0
M  V30 11458 C 1096.5 0.862436 -1.88068 0
M  V30 11459 C 1096.92 1.74274 -0.726227 0
M  V30 11460 O 1096.27 1.79956 0.30366 0
M  V30 11461 C 1096.32 1.71076 -3.18458 0
M  V30 11462 O 1096.04 0.865918 -4.29457 0
M  V30 11463 C 1097.55 2.54302 -3.63105 0
M  V30 11464 H 1094.77 0.248865 -0.623143 0
M  V30 11465 H 1097.31 0.126633 -2.04108 0
M  V30 11466 H 1095.46 2.39951 -3.04142 0
M  V30 11467 H 1095.88 1.4493 -5.04079 0
M  V30 11468 H 1097.35 3.09384 -4.57149 0
M  V30 11469 H 1097.83 3.3082 -2.88886 0
M  V30 11470 H 1098.44 1.907 -3.80149 0
M  V30 11471 N 1096.75 1.52266 0.40654 0
M  V30 11472 C 1097.68 1.70519 1.51653 0
M  V30 11473 C 1098.66 0.552798 1.52915 0
M  V30 11474 O 1099.85 0.780468 1.71584 0
M  V30 11475 C 1096.97 1.74686 2.90176 0
M  V30 11476 C 1096.02 2.96255 3.06815 0
M  V30 11477 S 1096.85 4.56553 2.79856 0
M  V30 11478 C 1098.01 4.63511 4.20605 0
M  V30 11479 H 1098.24 2.64399 1.35942 0
M  V30 11480 H 1095.77 1.42337 0.598284 0
M  V30 11481 H 1097.73 1.77773 3.7001 0
M  V30 11482 H 1096.39 0.819291 3.03227 0
M  V30 11483 H 1095.59 2.95661 4.08167 0
M  V30 11484 H 1095.19 2.91069 2.34851 0
M  V30 11485 H 1097.48 4.41047 5.1428 0
M  V30 11486 H 1098.42 5.65456 4.26222 0
M  V30 11487 H 1098.83 3.92518 4.05697 0
M  V30 11488 N 1098.23 -0.663929 1.42933 0
M  V30 11489 C 1099.48 -1.41973 1.43271 0
M  V30 11490 C 1099.79 -1.95518 0.0566103 0
M  V30 11491 O 1101 -2.71428 -0.0625862 0
M  V30 11492 C 1099.45 -2.56882 2.52071 0
M  V30 11493 C 1099.06 -2.0999 3.95737 0
M  V30 11494 C 1100.8 -3.34322 2.61589 0
M  V30 11495 C 1098.71 -3.22046 4.96025 0
M  V30 11496 H 1097.64 -0.5334 0.532917 0
M  V30 11497 H 1100.29 -0.717709 1.68882 0
M  V30 11498 H 1098.67 -3.29504 2.19643 0
M  V30 11499 H 1099.85 -1.44449 4.37574 0
M  V30 11500 H 1098.16 -1.45459 3.90168 0
M  V30 11501 H 1100.76 -4.17796 3.33692 0
M  V30 11502 H 1101.1 -3.8164 1.66302 0
M  V30 11503 H 1101.64 -2.68775 2.93266 0
M  V30 11504 H 1098.38 -2.79708 5.92827 0
M  V30 11505 H 1097.9 -3.86333 4.5881 0
M  V30 11506 H 1099.57 -3.87345 5.1824 0
M  V30 11507 N 1099.71 -1.29285 -0.901281 0
M  V30 11508 C 1100.62 -1.16161 -2.03823 0
M  V30 11509 C 1101.63 -0.0852298 -1.73791 0
M  V30 11510 O 1102.81 -0.29699 -1.99198 0
M  V30 11511 C 1099.87 -0.837586 -3.3643 0
M  V30 11512 C 1098.93 -1.99764 -3.7999 0
M  V30 11513 C 1098.17 -1.68898 -5.0627 0
M  V30 11514 O 1098.39 -0.609177 -5.67138 0
M  V30 11515 O 1097.32 -2.53648 -5.45845 0
M  V30 11516 H 1101.15 -2.11635 -2.17817 0
M  V30 11517 H 1098.74 -1.08722 -1.02468 0
M  V30 11518 H 1100.62 -0.671376 -4.16017 0
M  V30 11519 H 1099.29 0.0873811 -3.23582 0
M  V30 11520 H 1098.2 -2.21908 -3.01177 0
M  V30 11521 H 1099.53 -2.90376 -3.9742 0
M  V30 11522 N 1101.18 1.11143 -1.11736 0
M  V30 11523 C 1102.43 1.82311 -0.862875 0
M  V30 11524 C 1102.75 1.85735 0.613326 0
M  V30 11525 O 1103.95 2.53034 0.984168 0
M  V30 11526 C 1102.41 3.27427 -1.49396 0
M  V30 11527 C 1102.02 3.32323 -3.00443 0
M  V30 11528 C 1103.76 4.03474 -1.31944 0
M  V30 11529 C 1101.67 4.71855 -3.56521 0
M  V30 11530 H 1100.6 0.683124 -0.31915 0
M  V30 11531 H 1103.25 1.25045 -1.34298 0
M  V30 11532 H 1101.63 3.84644 -0.941528 0
M  V30 11533 H 1102.8 2.84971 -3.62117 0
M  V30 11534 H 1101.12 2.69758 -3.17206 0
M  V30 11535 H 1103.72 5.06528 -1.71271 0
M  V30 11536 H 1104.06 4.15473 -0.262339 0
M  V30 11537 H 1104.59 3.52652 -1.84069 0
M  V30 11538 H 1101.33 4.65054 -4.61958 0
M  V30 11539 H 1100.85 5.19604 -2.99619 0
M  V30 11540 H 1102.53 5.40816 -3.55144 0
M  V30 11541 N 1102.66 0.908147 1.28804 0
M  V30 11542 C 1104.07 0.585727 1.77274 0
M  V30 11543 C 1104.42 -0.898842 1.744 0
M  V30 11544 O 1103.55 -1.70301 1.33516 0
M  V30 11545 C 1104.14 1.05647 3.21907 0
M  V30 11546 C 1102.7 0.785066 3.68122 0
M  V30 11547 C 1101.85 1.22638 2.48707 0
M  V30 11548 H 1104.8 1.09 1.15346 0
M  V30 11549 H 1104.82 0.395442 3.7844 0
M  V30 11550 H 1104.33 2.13698 3.23967 0
M  V30 11551 H 1102.44 -0.282477 3.71528 0
M  V30 11552 H 1102.55 1.38888 4.58527 0
M  V30 11553 H 1100.91 0.645217 2.46392 0
M  V30 11554 H 1101.7 2.31512 2.5349 0
M  V30 11555 N 1104.14 -1.42577 0.671525 0
M  V30 11556 C 1105.56 -1.5592 0.340769 0
M  V30 11557 C 1105.76 -1.65179 -1.15405 0
M  V30 11558 O 1104.81 -1.61691 -1.93939 0
M  V30 11559 C 1106.13 -2.81087 1.06821 0
M  V30 11560 C 1107.67 -2.94855 1.05022 0
M  V30 11561 C 1108.15 -4.22878 1.75892 0
M  V30 11562 N 1109.64 -4.29783 1.72744 0
M  V30 11563 C 1110.37 -5.2765 2.24439 0
M  V30 11564 N 1109.87 -6.31689 2.84501 0
M  V30 11565 N 1111.66 -5.19426 2.14832 0
M  V30 11566 H 1103.81 -1.34811 1.64133 0
M  V30 11567 H 1106.08 -0.648704 0.691294 0
M  V30 11568 H 1105.78 -2.80371 2.12332 0
M  V30 11569 H 1105.66 -3.71879 0.631356 0
M  V30 11570 H 1108.04 -2.951 0.00345633 0
M  V30 11571 H 1108.13 -2.05303 1.52592 0
M  V30 11572 H 1107.77 -4.23394 2.80535 0
M  V30 11573 H 1107.7 -5.1136 1.25773 0
M  V30 11574 H 1110.19 -3.55225 1.28932 0
M  V30 11575 H 1110.5 -7.02715 3.21575 0
M  V30 11576 H 1108.85 -6.3226 2.88569 0
M  V30 11577 H 1112.04 -4.37067 1.676 0
M  V30 11578 H 1112.21 -5.95535 2.55426 0
M  V30 11579 N 1105.62 -0.414636 -1.52048 0
M  V30 11580 C 1106.58 0.396285 -2.25748 0
M  V30 11581 C 1107.58 0.969003 -1.28324 0
M  V30 11582 O 1108.77 0.847016 -1.52221 0
M  V30 11583 C 1105.9 1.55838 -3.03195 0
M  V30 11584 H 1107.1 -0.249311 -2.98862 0
M  V30 11585 H 1104.65 -0.167276 -1.55402 0
M  V30 11586 H 1105.38 2.24068 -2.34444 0
M  V30 11587 H 1105.17 1.15414 -3.74729 0
M  V30 11588 H 1106.66 2.13187 -3.59084 0
M  V30 11589 N 1107.1 1.56929 -0.145233 0
M  V30 11590 C 1108.06 2.15483 0.781002 0
M  V30 11591 C 1109.06 1.09617 1.17647 0
M  V30 11592 O 1110.25 1.35265 1.09768 0
M  V30 11593 C 1107.38 2.7165 2.05959 0
M  V30 11594 H 1108.57 2.98667 0.271685 0
M  V30 11595 H 1106.13 1.55952 0.1042 0
M  V30 11596 H 1106.86 1.92127 2.61262 0
M  V30 11597 H 1106.65 3.491 1.78526 0
M  V30 11598 H 1108.14 3.16769 2.72116 0
M  V30 11599 N 1108.58 -0.128553 1.57075 0
M  V30 11600 C 1109.51 -1.15953 2.02675 0
M  V30 11601 C 1110.49 -1.43743 0.909501 0
M  V30 11602 O 1111.67 -1.54348 1.17857 0
M  V30 11603 C 1108.8 -2.48813 2.423 0
M  V30 11604 C 1107.76 -2.35506 3.57381 0
M  V30 11605 C 1107.08 -3.73243 3.82875 0
M  V30 11606 C 1108.38 -1.82359 4.89431 0
M  V30 11607 H 1110.08 -0.780283 2.89054 0
M  V30 11608 H 1107.62 -0.373896 1.39061 0
M  V30 11609 H 1109.57 -3.21179 2.72804 0
M  V30 11610 H 1108.3 -2.88609 1.52881 0
M  V30 11611 H 1106.96 -1.6559 3.27071 0
M  V30 11612 H 1106.61 -4.10507 2.90677 0
M  V30 11613 H 1106.31 -3.65195 4.60333 0
M  V30 11614 H 1107.83 -4.47128 4.15823 0
M  V30 11615 H 1109.24 -2.44533 5.18533 0
M  V30 11616 H 1107.64 -1.85156 5.70822 0
M  V30 11617 H 1108.71 -0.780478 4.78578 0
M  V30 11618 N 1110.05 -1.5248 -0.398459 0
M  V30 11619 C 1111.28 -1.70925 -1.16586 0
M  V30 11620 C 1111.7 -0.42342 -1.83991 0
M  V30 11621 O 1111.05 0.601395 -1.72306 0
M  V30 11622 C 1111.1 -2.85226 -2.22099 0
M  V30 11623 O 1110.83 -4.08831 -1.57444 0
M  V30 11624 C 1112.33 -3.15272 -3.11639 0
M  V30 11625 H 1109.55 -0.572533 -0.349924 0
M  V30 11626 H 1112.09 -1.99087 -0.467416 0
M  V30 11627 H 1110.25 -2.59553 -2.87595 0
M  V30 11628 H 1110.66 -4.72603 -2.2748 0
M  V30 11629 H 1112.13 -3.98737 -3.81724 0
M  V30 11630 H 1112.61 -2.29262 -3.74614 0
M  V30 11631 H 1113.22 -3.42749 -2.518 0
M  V30 11632 N 1111.53 0.65634 -1.43283 0
M  V30 11633 C 1112.49 1.75117 -1.47874 0
M  V30 11634 C 1113.49 1.56629 -0.363846 0
M  V30 11635 O 1114.68 1.62584 -0.625464 0
M  V30 11636 C 1111.82 3.13957 -1.32831 0
M  V30 11637 H 1113.01 1.72429 -2.45374 0
M  V30 11638 H 1110.56 0.867704 -1.30002 0
M  V30 11639 H 1111.3 3.22259 -0.36326 0
M  V30 11640 H 1111.08 3.28781 -2.13649 0
M  V30 11641 H 1112.57 3.93799 -1.38969 0
M  V30 11642 N 1113.01 1.29761 0.894412 0
M  V30 11643 C 1114.29 1.08711 1.62608 0
M  V30 11644 C 1114.67 -0.366907 2.07887 0
M  V30 11645 O 1114.01 -1.35669 1.83865 0
M  V30 11646 C 1114.22 2.07947 2.80284 0
M  V30 11647 C 1115.57 2.39153 3.50843 0
M  V30 11648 O 1116.6 2.06183 2.9046 0
M  V30 11649 O 1115.46 2.95509 4.59713 0
M  V30 11650 H 1112.55 0.416866 0.714249 0
M  V30 11651 H 1115.1 1.41153 0.942015 0
M  V30 11652 H 1113.87 3.05859 2.44061 0
M  V30 11653 H 1113.49 1.76266 3.56393 0
M  V30 11654 N 1114.49 -1.10549 1.12324 0
M  V30 11655 C 1115.45 -2.15039 0.793156 0
M  V30 11656 C 1116.45 -1.59651 -0.19192 0
M  V30 11657 O 1117.64 -1.74167 0.0337262 0
M  V30 11658 C 1114.77 -3.40433 0.17842 0
M  V30 11659 H 1115.97 -2.4575 1.71892 0
M  V30 11660 H 1113.52 -1.25892 0.926333 0
M  V30 11661 H 1114.25 -3.15338 -0.757122 0
M  V30 11662 H 1114.04 -3.81921 0.887645 0
M  V30 11663 H 1115.53 -4.17584 -0.0360724 0
M  V30 11664 N 1115.97 -0.914965 -1.28321 0
M  V30 11665 C 1117.21 -0.544639 -1.94208 0
M  V30 11666 C 1117.53 0.916368 -1.72806 0
M  V30 11667 O 1118.73 1.39491 -2.32926 0
M  V30 11668 C 1117.19 -0.923209 -3.47858 0
M  V30 11669 C 1116.8 -2.40403 -3.78035 0
M  V30 11670 C 1118.54 -0.623526 -4.19896 0
M  V30 11671 C 1116.45 -2.72266 -5.25 0
M  V30 11672 H 1115.38 -0.199966 -0.727 0
M  V30 11673 H 1118.03 -1.11405 -1.45812 0
M  V30 11674 H 1116.41 -0.282576 -3.94991 0
M  V30 11675 H 1117.59 -3.09149 -3.41706 0
M  V30 11676 H 1115.9 -2.67429 -3.19172 0
M  V30 11677 H 1118.5 -0.838243 -5.28089 0
M  V30 11678 H 1118.84 0.438721 -4.13982 0
M  V30 11679 H 1119.37 -1.22268 -3.78544 0
M  V30 11680 H 1116.11 -3.77349 -5.35993 0
M  V30 11681 H 1115.63 -2.08157 -5.62522 0
M  V30 11682 H 1117.31 -2.59334 -5.92752 0
M  V30 11683 N 1117.44 1.42219 -0.679077 0
M  V30 11684 C 1118.41 2.29197 -0.0125475 0
M  V30 11685 C 1119.41 1.43544 0.724691 0
M  V30 11686 O 1120.6 1.64884 0.562052 0
M  V30 11687 C 1117.73 3.26122 0.992846 0
M  V30 11688 H 1118.92 2.89629 -0.778154 0
M  V30 11689 H 1116.47 1.4993 -0.44166 0
M  V30 11690 H 1117.21 2.70637 1.78679 0
M  V30 11691 H 1116.99 3.89302 0.467544 0
M  V30 11692 H 1118.48 3.91339 1.45751 0
M  V30 11693 N 1118.92 0.422693 1.51826 0
M  V30 11694 C 1119.83 -0.40261 2.31119 0
M  V30 11695 C 1120.85 -1.04117 1.39412 0
M  V30 11696 O 1122.02 -1.03973 1.72486 0
M  V30 11697 C 1119.09 -1.49699 3.12716 0
M  V30 11698 C 1118.15 -0.880088 4.20182 0
M  V30 11699 C 1117.38 -1.92232 4.97878 0
M  V30 11700 O 1117.61 -3.14246 4.76031 0
M  V30 11701 O 1116.54 -1.521 5.82365 0
M  V30 11702 H 1120.37 0.244308 3.02716 0
M  V30 11703 H 1117.95 0.185569 1.48243 0
M  V30 11704 H 1119.83 -2.13202 3.63487 0
M  V30 11705 H 1118.51 -2.12826 2.43899 0
M  V30 11706 H 1117.41 -0.207404 3.73525 0
M  V30 11707 H 1118.75 -0.292535 4.9133 0
M  V30 11708 N 1120.4 -1.5685 0.153553 0
M  V30 11709 C 1121.31 -2.20664 -0.796528 0
M  V30 11710 C 1122.33 -1.19289 -1.26674 0
M  V30 11711 O 1123.5 -1.51889 -1.32256 0
M  V30 11712 C 1120.57 -2.82088 -2.01561 0
M  V30 11713 C 1119.63 -3.9861 -1.59401 0
M  V30 11714 C 1118.86 -4.57096 -2.75498 0
M  V30 11715 O 1119.08 -4.14462 -3.9189 0
M  V30 11716 O 1118.02 -5.47254 -2.50593 0
M  V30 11717 H 1121.84 -3.02376 -0.283282 0
M  V30 11718 H 1119.43 -1.49218 -0.0737927 0
M  V30 11719 H 1121.31 -3.21103 -2.72893 0
M  V30 11720 H 1119.99 -2.03385 -2.51826 0
M  V30 11721 H 1118.89 -3.64299 -0.850725 0
M  V30 11722 H 1120.23 -4.78853 -1.13845 0
M  V30 11723 N 1121.88 0.120221 -1.57141 0
M  V30 11724 C 1122.84 1.13159 -1.99318 0
M  V30 11725 C 1123.84 1.34376 -0.883158 0
M  V30 11726 O 1125.03 1.30914 -1.14922 0
M  V30 11727 C 1122.16 2.48632 -2.33227 0
M  V30 11728 H 1123.36 0.769119 -2.8987 0
M  V30 11729 H 1120.91 0.364475 -1.51991 0
M  V30 11730 H 1121.64 2.89802 -1.45551 0
M  V30 11731 H 1121.43 2.34587 -3.14184 0
M  V30 11732 H 1122.92 3.21423 -2.66603 0
M  V30 11733 N 1123.36 1.52689 0.390367 0
M  V30 11734 C 1124.27 1.8029 1.50108 0
M  V30 11735 C 1125.28 0.689582 1.59752 0
M  V30 11736 O 1126.46 0.977024 1.76114 0
M  V30 11737 C 1123.52 1.96475 2.85654 0
M  V30 11738 C 1122.58 3.2039 2.85743 0
M  V30 11739 C 1121.82 3.35793 4.14824 0
M  V30 11740 O 1122.04 2.56033 5.09709 0
M  V30 11741 O 1120.97 4.2904 4.22147 0
M  V30 11742 H 1124.8 2.74605 1.29715 0
M  V30 11743 H 1122.39 1.37763 0.578074 0
M  V30 11744 H 1124.27 2.08835 3.66013 0
M  V30 11745 H 1122.94 1.05351 3.06077 0
M  V30 11746 H 1121.85 3.13473 2.0417 0
M  V30 11747 H 1123.18 4.11356 2.70272 0
M  V30 11748 N 1124.83 -0.648732 1.43629 0
M  V30 11749 C 1126.08 -1.40857 1.45483 0
M  V30 11750 C 1126.41 -1.94332 0.0807963 0
M  V30 11751 O 1125.66 -1.72999 -0.914875 0
M  V30 11752 C 1125.96 -2.60394 2.44806 0
M  V30 11753 C 1125.63 -2.25311 3.90571 0
M  V30 11754 C 1124.29 -2.15456 4.3027 0
M  V30 11755 C 1126.64 -1.97307 4.8241 0
M  V30 11756 C 1123.97 -1.75759 5.59755 0
M  V30 11757 C 1126.32 -1.59108 6.12264 0
M  V30 11758 C 1124.99 -1.47781 6.50936 0
M  V30 11759 H 1124.26 -0.515434 0.532362 0
M  V30 11760 H 1126.9 -0.737339 1.76736 0
M  V30 11761 H 1125.21 -3.3267 2.06973 0
M  V30 11762 H 1126.91 -3.18609 2.43494 0
M  V30 11763 H 1123.5 -2.33894 3.59154 0
M  V30 11764 H 1127.68 -2.0384 4.52507 0
M  V30 11765 H 1122.94 -1.65579 5.88552 0
M  V30 11766 H 1127.11 -1.36472 6.82897 0
M  V30 11767 H 1124.74 -1.16792 7.51175 0
M  V30 11768 N 1126.31 -1.30234 -0.887518 0
M  V30 11769 C 1127.56 -1.1891 -1.6391 0
M  V30 11770 C 1127.89 0.256749 -1.92798 0
M  V30 11771 O 1127.14 1.20047 -1.54555 0
M  V30 11772 C 1127.44 -1.96046 -2.98832 0
M  V30 11773 C 1127.11 -3.45683 -2.89507 0
M  V30 11774 C 1125.77 -3.86489 -2.8667 0
M  V30 11775 C 1128.12 -4.40983 -2.7782 0
M  V30 11776 C 1125.45 -5.2089 -2.69982 0
M  V30 11777 C 1127.8 -5.75489 -2.6267 0
M  V30 11778 C 1126.47 -6.15537 -2.58207 0
M  V30 11779 H 1125.74 -0.435123 -0.599791 0
M  V30 11780 H 1128.38 -1.61308 -1.03209 0
M  V30 11781 H 1126.69 -1.46275 -3.6347 0
M  V30 11782 H 1128.38 -1.84678 -3.55942 0
M  V30 11783 H 1124.97 -3.13255 -2.92523 0
M  V30 11784 H 1129.16 -4.10401 -2.79079 0
M  V30 11785 H 1124.41 -5.51014 -2.6494 0
M  V30 11786 H 1128.59 -6.48973 -2.526 0
M  V30 11787 H 1126.22 -7.19627 -2.45034 0
M  V30 11788 N 1127.79 1.09952 -1.12909 0
M  V30 11789 C 1129.02 1.8633 -0.910821 0
M  V30 11790 C 1129.44 1.80335 0.534874 0
M  V30 11791 O 1128.8 1.1769 1.37908 0
M  V30 11792 C 1128.85 3.32462 -1.39648 0
M  V30 11793 O 1127.95 4.08327 -0.578192 0
M  V30 11794 H 1127.29 0.577984 -0.32685 0
M  V30 11795 H 1129.82 1.38883 -1.50242 0
M  V30 11796 H 1129.83 3.83311 -1.39774 0
M  V30 11797 H 1128.51 3.36141 -2.44913 0
M  V30 11798 H 1127.08 3.67291 -0.644347 0
M  V30 11799 N 1129.27 0.921757 1.27833 0
M  V30 11800 C 1130.52 0.559078 1.94629 0
M  V30 11801 C 1130.84 -0.898641 1.72495 0
M  V30 11802 O 1130.1 -1.65546 1.0437 0
M  V30 11803 C 1130.4 0.824259 3.47765 0
M  V30 11804 C 1130.06 2.26278 3.90011 0
M  V30 11805 C 1128.73 2.65607 4.01256 0
M  V30 11806 C 1131.08 3.19853 4.11513 0
M  V30 11807 C 1128.41 3.97646 4.31387 0
M  V30 11808 C 1130.76 4.51467 4.43126 0
M  V30 11809 C 1129.42 4.90637 4.52583 0
M  V30 11810 H 1128.69 0.204581 0.712199 0
M  V30 11811 H 1131.34 1.1646 1.52018 0
M  V30 11812 H 1129.64 0.136011 3.91564 0
M  V30 11813 H 1131.34 0.522701 3.97579 0
M  V30 11814 H 1127.93 1.94765 3.81791 0
M  V30 11815 H 1132.11 2.90674 4.02271 0
M  V30 11816 H 1127.37 4.27685 4.36916 0
M  V30 11817 H 1131.54 5.23982 4.58711 0
M  V30 11818 H 1129.17 5.92982 4.75685 0
M  V30 11819 N 1130.75 -1.41857 0.686609 0
M  V30 11820 C 1131.99 -2.0097 0.213378 0
M  V30 11821 C 1132.32 -1.54618 -1.1882 0
M  V30 11822 O 1131.59 -0.772916 -1.80008 0
M  V30 11823 H 1130.17 -0.743134 0.0758968 0
M  V30 11824 H 1132.83 -1.73609 0.885763 0
M  V30 11825 H 1131.92 -3.11296 0.223826 0
M  V30 11826 N 1132.22 -0.430739 -1.51599 0
M  V30 11827 C 1133.45 0.136797 -2.06447 0
M  V30 11828 C 1133.87 1.37027 -1.29881 0
M  V30 11829 O 1133.22 1.78983 -0.356543 0
M  V30 11830 C 1133.28 0.465637 -3.58489 0
M  V30 11831 O 1133 -0.718873 -4.32162 0
M  V30 11832 C 1134.5 1.08456 -4.29828 0
M  V30 11833 H 1131.72 0.0108468 -0.670912 0
M  V30 11834 H 1134.26 -0.607921 -1.95255 0
M  V30 11835 H 1132.42 1.16025 -3.69617 0
M  V30 11836 H 1132.83 -0.439195 -5.22658 0
M  V30 11837 H 1134.3 1.2647 -5.37317 0
M  V30 11838 H 1134.78 2.06376 -3.87693 0
M  V30 11839 H 1135.39 0.429525 -4.23125 0
M  V30 11840 N 1133.7 1.56767 -0.161869 0
M  V30 11841 C 1134.65 2.18807 0.789074 0
M  V30 11842 C 1135.64 1.14934 1.24445 0
M  V30 11843 O 1136.85 1.33154 1.2112 0
M  V30 11844 H 1133.23 0.700808 0.272713 0
M  V30 11845 H 1135.2 2.97419 0.241766 0
M  V30 11846 C 1133.95 2.83568 2.01207 0
M  V30 11847 H 1133.27 3.63219 1.67068 0
M  V30 11848 H 1134.71 3.3046 2.65654 0
M  V30 11849 C 1133.17 1.82846 2.82964 0
M  V30 11850 O 1133.7 1.30809 3.79805 0
M  V30 11851 N 1131.9 1.51815 2.47791 0
M  V30 11852 H 1131.45 1.94325 1.69103 0
M  V30 11853 H 1131.41 0.846742 3.02783 0
M  V30 11854 N 1135.18 -0.111886 1.57202 0
M  V30 11855 C 1136.46 -0.849125 1.76208 0
M  V30 11856 C 1136.84 -1.97735 0.73919 0
M  V30 11857 O 1136.19 -2.27283 -0.235523 0
M  V30 11858 C 1136.4 -1.35924 3.21443 0
M  V30 11859 C 1137.74 -1.80874 3.84148 0
M  V30 11860 O 1138.77 -1.45587 3.25089 0
M  V30 11861 O 1137.63 -2.46065 4.87969 0
M  V30 11862 H 1134.72 -0.403761 0.721738 0
M  V30 11863 H 1137.27 -0.0950726 1.69433 0
M  V30 11864 H 1136.04 -0.550113 3.87414 0
M  V30 11865 H 1135.66 -2.17579 3.32784 0
M  V30 11866 N 1136.66 -1.52894 -0.382264 0
M  V30 11867 C 1137.59 -1.81122 -1.47367 0
M  V30 11868 C 1138.57 -0.663653 -1.56619 0
M  V30 11869 O 1139.75 -0.911898 -1.71459 0
M  V30 11870 C 1136.88 -1.98615 -2.84902 0
M  V30 11871 C 1135.84 -3.14328 -2.90485 0
M  V30 11872 C 1135.16 -3.17086 -4.30535 0
M  V30 11873 C 1136.46 -4.53263 -2.59519 0
M  V30 11874 H 1138.16 -2.72518 -1.23993 0
M  V30 11875 H 1135.7 -1.3113 -0.595049 0
M  V30 11876 H 1137.66 -2.16946 -3.61265 0
M  V30 11877 H 1136.38 -1.03915 -3.09628 0
M  V30 11878 H 1135.04 -2.95791 -2.16572 0
M  V30 11879 H 1134.69 -2.20055 -4.52311 0
M  V30 11880 H 1134.39 -3.94821 -4.3519 0
M  V30 11881 H 1135.91 -3.3758 -5.08795 0
M  V30 11882 H 1137.33 -4.71867 -3.25598 0
M  V30 11883 H 1135.72 -5.33115 -2.75514 0
M  V30 11884 H 1136.79 -4.59516 -1.54831 0
M  V30 11885 N 1138.14 0.641106 -1.43971 0
M  V30 11886 C 1139.37 1.42829 -1.49692 0
M  V30 11887 C 1139.78 1.88427 -0.118594 0
M  V30 11888 O 1139.14 1.60234 0.873581 0
M  V30 11889 C 1139.19 2.65524 -2.45314 0
M  V30 11890 O 1138.91 2.2183 -3.77787 0
M  V30 11891 C 1140.41 3.58758 -2.60399 0
M  V30 11892 H 1137.63 0.438367 -0.508011 0
M  V30 11893 H 1140.17 0.784933 -1.88836 0
M  V30 11894 H 1138.33 3.25973 -2.09332 0
M  V30 11895 H 1138.74 3.01303 -4.29321 0
M  V30 11896 H 1140.22 4.41483 -3.31357 0
M  V30 11897 H 1140.69 4.06909 -1.65294 0
M  V30 11898 H 1141.3 3.04184 -2.97241 0
M  V30 11899 N 1139.62 1.30703 0.880598 0
M  V30 11900 C 1140.55 1.1327 1.99255 0
M  V30 11901 C 1141.56 0.0747186 1.62628 0
M  V30 11902 O 1142.75 0.321169 1.75587 0
M  V30 11903 C 1139.85 0.706179 3.31461 0
M  V30 11904 C 1139.02 1.84687 3.96497 0
M  V30 11905 C 1138.08 1.40817 5.07008 0
M  V30 11906 O 1137.11 2.1161 5.28403 0
M  V30 11907 N 1138.31 0.289619 5.79777 0
M  V30 11908 H 1141.07 2.09043 2.14759 0
M  V30 11909 H 1138.64 1.22896 1.05395 0
M  V30 11910 H 1140.63 0.395617 4.02762 0
M  V30 11911 H 1139.2 -0.159631 3.12192 0
M  V30 11912 H 1138.42 2.32531 3.18312 0
M  V30 11913 H 1139.71 2.61117 4.36687 0
M  V30 11914 H 1139.1 -0.300177 5.64903 0
M  V30 11915 H 1137.66 0.0385346 6.51789 0
M  V30 11916 N 1141.09 -1.09351 1.1349 0
M  V30 11917 C 1142.03 -2.15291 0.756645 0
M  V30 11918 C 1143 -1.60548 -0.257497 0
M  V30 11919 O 1144.19 -1.87912 -0.14882 0
M  V30 11920 C 1141.32 -3.38481 0.121799 0
M  V30 11921 C 1140.36 -4.11949 1.10456 0
M  V30 11922 S 1141.19 -4.6605 2.63738 0
M  V30 11923 C 1142.35 -5.92539 2.01615 0
M  V30 11924 H 1142.58 -2.47044 1.65398 0
M  V30 11925 H 1140.12 -1.21312 0.955129 0
M  V30 11926 H 1142.07 -4.09809 -0.238086 0
M  V30 11927 H 1140.74 -3.04945 -0.752821 0
M  V30 11928 H 1139.93 -5.00317 0.608195 0
M  V30 11929 H 1139.53 -3.46486 1.40795 0
M  V30 11930 H 1141.82 -6.63593 1.36569 0
M  V30 11931 H 1142.77 -6.46856 2.88068 0
M  V30 11932 H 1143.17 -5.45094 1.46741 0
M  V30 11933 N 1142.57 -0.928524 -1.27343 0
M  V30 11934 C 1143.8 -0.585734 -1.98436 0
M  V30 11935 C 1144.21 0.83644 -1.69261 0
M  V30 11936 O 1143.57 1.55603 -0.953626 0
M  V30 11937 C 1143.62 -0.803092 -3.52467 0
M  V30 11938 O 1143.34 -2.16932 -3.80621 0
M  V30 11939 C 1144.84 -0.469127 -4.40811 0
M  V30 11940 H 1142.06 -0.221887 -0.633251 0
M  V30 11941 H 1144.61 -1.24577 -1.62175 0
M  V30 11942 H 1142.76 -0.189846 -3.86935 0
M  V30 11943 H 1143.18 -2.21992 -4.75205 0
M  V30 11944 H 1144.65 -0.671906 -5.47895 0
M  V30 11945 H 1145.13 0.595365 -4.35146 0
M  V30 11946 H 1145.73 -1.06055 -4.11865 0
M  V30 11947 N 1144.05 1.41491 -0.694123 0
M  V30 11948 C 1145.3 2.01252 -0.224477 0
M  V30 11949 C 1145.62 1.54965 1.17541 0
M  V30 11950 O 1144.88 0.751041 1.80715 0
M  V30 11951 C 1145.18 3.56666 -0.228869 0
M  V30 11952 C 1144.84 4.22458 -1.57608 0
M  V30 11953 C 1143.51 4.40144 -1.94491 0
M  V30 11954 C 1145.86 4.5936 -2.46247 0
M  V30 11955 C 1143.19 4.92009 -3.196 0
M  V30 11956 C 1145.54 5.12615 -3.70687 0
M  V30 11957 C 1144.2 5.28512 -4.07715 0
M  V30 11958 H 1143.47 0.736433 -0.0821419 0
M  V30 11959 H 1146.12 1.69408 -0.892926 0
M  V30 11960 H 1144.42 3.88292 0.523128 0
M  V30 11961 H 1146.12 4.00712 0.152019 0
M  V30 11962 H 1142.71 4.09065 -1.27921 0
M  V30 11963 H 1146.9 4.45352 -2.19032 0
M  V30 11964 H 1142.15 5.02502 -3.48285 0
M  V30 11965 H 1146.33 5.4015 -4.39558 0
M  V30 11966 H 1143.95 5.68464 -5.0473 0
M  V30 11967 N 1145.53 0.438773 1.51369 0
M  V30 11968 C 1146.78 -0.126962 2.01701 0
M  V30 11969 C 1147.1 -1.43086 1.32481 0
M  V30 11970 O 1146.37 -1.90427 0.459823 0
M  V30 11971 H 1144.95 -0.0499092 0.745331 0
M  V30 11972 H 1147.61 0.581808 1.86013 0
M  V30 11973 H 1146.7 -0.301836 3.10637 0
M  V30 11974 N 1147.01 -1.56678 0.170181 0
M  V30 11975 C 1148.25 -1.96849 -0.475064 0
M  V30 11976 C 1148.58 -1.05611 -1.6333 0
M  V30 11977 O 1147.84 -0.0899708 -1.95493 0
M  V30 11978 C 1148.13 -3.43103 -1.00076 0
M  V30 11979 C 1147.8 -4.50881 0.0414538 0
M  V30 11980 C 1146.46 -4.80082 0.327894 0
M  V30 11981 C 1148.81 -5.15791 0.748936 0
M  V30 11982 C 1146.14 -5.71491 1.32722 0
M  V30 11983 C 1148.49 -6.08278 1.73724 0
M  V30 11984 C 1147.16 -6.35847 2.03114 0
M  V30 11985 H 1146.43 -0.72032 -0.173838 0
M  V30 11986 H 1149.08 -1.89701 0.261903 0
M  V30 11987 H 1147.38 -3.47197 -1.81553 0
M  V30 11988 H 1149.08 -3.71525 -1.50899 0
M  V30 11989 H 1145.67 -4.2817 -0.191976 0
M  V30 11990 H 1149.85 -4.93344 0.540852 0
M  V30 11991 H 1145.11 -5.91134 1.56112 0
M  V30 11992 H 1149.28 -6.57643 2.29082 0
M  V30 11993 H 1146.91 -7.06479 2.80698 0
M  V30 11994 N 1148.48 0.103547 -1.57259 0
M  V30 11995 C 1149.71 0.82624 -1.90232 0
M  V30 11996 C 1150.13 1.71902 -0.763641 0
M  V30 11997 O 1149.49 1.79043 0.285181 0
M  V30 11998 C 1149.54 1.62265 -3.22029 0
M  V30 11999 O 1148.64 2.73091 -3.09023 0
M  V30 12000 H 1147.98 0.227528 -0.6238 0
M  V30 12001 H 1150.51 0.081307 -2.04438 0
M  V30 12002 H 1150.52 2.00865 -3.5513 0
M  V30 12003 H 1149.2 0.967383 -4.04493 0
M  V30 12004 H 1147.78 2.3758 -2.8742 0
M  V30 12005 N 1149.96 1.53094 0.37415 0
M  V30 12006 C 1151.38 1.42676 0.715246 0
M  V30 12007 C 1151.58 0.558992 1.93591 0
M  V30 12008 O 1150.63 0.0381328 2.52471 0
M  V30 12009 C 1151.95 2.85746 0.936459 0
M  V30 12010 C 1153.49 2.95322 1.03701 0
M  V30 12011 C 1153.97 4.39436 1.29075 0
M  V30 12012 N 1155.46 4.42826 1.35864 0
M  V30 12013 C 1156.2 5.51433 1.57191 0
M  V30 12014 N 1155.69 6.701 1.75891 0
M  V30 12015 N 1157.48 5.38998 1.59491 0
M  V30 12016 H 1149.64 2.08025 -0.428854 0
M  V30 12017 H 1151.9 0.939078 -0.129758 0
M  V30 12018 H 1151.6 3.51523 0.111448 0
M  V30 12019 H 1151.48 3.28887 1.84698 0
M  V30 12020 H 1153.87 2.29704 1.85257 0
M  V30 12021 H 1153.95 2.55588 0.104066 0
M  V30 12022 H 1153.59 5.05625 0.480231 0
M  V30 12023 H 1153.52 4.76735 2.23677 0
M  V30 12024 H 1156.01 3.57301 1.23061 0
M  V30 12025 H 1156.32 7.48643 1.91713 0
M  V30 12026 H 1154.67 6.73102 1.73086 0
M  V30 12027 H 1157.86 4.45257 1.44444 0
M  V30 12028 H 1158.03 6.23705 1.75771 0
M  V30 12029 N 1151.44 -0.633461 1.44309 0
M  V30 12030 C 1152.72 -1.3917 1.37444 0
M  V30 12031 C 1153.1 -2.11076 0.0319994 0
M  V30 12032 O 1152.44 -2.06164 -0.98533 0
M  V30 12033 C 1152.65 -2.36005 2.57104 0
M  V30 12034 C 1154 -2.99407 3.01065 0
M  V30 12035 O 1155.03 -2.46331 2.57292 0
M  V30 12036 O 1153.89 -3.95686 3.76954 0
M  V30 12037 H 1150.98 -0.622746 0.544166 0
M  V30 12038 H 1153.53 -0.658712 1.56394 0
M  V30 12039 H 1152.3 -1.81955 3.46422 0
M  V30 12040 H 1151.92 -3.16725 2.40356 0
M  V30 12041 N 1152.92 -1.31168 -0.873655 0
M  V30 12042 C 1154.2 -1.11285 -1.60857 0
M  V30 12043 C 1154.58 0.333788 -2.08444 0
M  V30 12044 O 1153.92 1.32726 -1.86 0
M  V30 12045 C 1154.13 -2.12379 -2.7694 0
M  V30 12046 C 1155.48 -2.44704 -3.46994 0
M  V30 12047 O 1156.51 -2.10778 -2.87143 0
M  V30 12048 O 1155.36 -3.02786 -4.54954 0
M  V30 12049 H 1152.46 -0.428177 -0.707526 0
M  V30 12050 H 1155 -1.42634 -0.91944 0
M  V30 12051 H 1153.78 -3.09703 -2.39164 0
M  V30 12052 H 1153.4 -1.81914 -3.53544 0
M  V30 12053 N 1154.4 1.08748 -1.14068 0
M  V30 12054 C 1155.36 2.1375 -0.827266 0
M  V30 12055 C 1156.36 1.59936 0.166496 0
M  V30 12056 O 1157.55 1.74092 -0.0614305 0
M  V30 12057 C 1154.68 3.40106 -0.232557 0
M  V30 12058 H 1155.87 2.42985 -1.7578 0
M  V30 12059 H 1153.43 1.24402 -0.946244 0
M  V30 12060 H 1154.16 3.16503 0.706859 0
M  V30 12061 H 1153.95 3.8046 -0.948293 0
M  V30 12062 H 1155.44 4.17589 -0.0303662 0
M  V30 12063 N 1155.87 0.935264 1.26849 0
M  V30 12064 C 1157.12 0.578545 1.93642 0
M  V30 12065 C 1157.44 -0.884296 1.73796 0
M  V30 12066 O 1156.71 -1.62768 1.09011 0
M  V30 12067 H 1155.29 0.210976 0.716588 0
M  V30 12068 H 1157.96 1.1893 1.54407 0
M  V30 12069 H 1157.05 0.791268 3.01903 0
M  V30 12070 N 1157.35 -1.41121 0.701616 0
M  V30 12071 C 1158.3 -2.30765 0.040121 0
M  V30 12072 C 1159.27 -1.47436 -0.764975 0
M  V30 12073 O 1160.45 -1.76209 -0.731775 0
M  V30 12074 C 1157.59 -3.33535 -0.885903 0
M  V30 12075 C 1156.71 -4.3194 -0.0717765 0
M  V30 12076 C 1155.84 -5.21779 -0.995996 0
M  V30 12077 C 1154.88 -6.11849 -0.175133 0
M  V30 12078 N 1154.02 -6.94151 -1.05348 0
M  V30 12079 H 1158.86 -2.86772 0.810312 0
M  V30 12080 H 1156.4 -1.41233 0.411301 0
M  V30 12081 H 1158.35 -3.91675 -1.4369 0
M  V30 12082 H 1156.98 -2.79065 -1.62243 0
M  V30 12083 H 1156.04 -3.75698 0.596221 0
M  V30 12084 H 1157.35 -4.95597 0.56435 0
M  V30 12085 H 1156.5 -5.84782 -1.61601 0
M  V30 12086 H 1155.24 -4.58363 -1.66597 0
M  V30 12087 H 1154.25 -5.4789 0.457916 0
M  V30 12088 H 1155.47 -6.77322 0.491133 0
M  V30 12089 H 1153.42 -6.33338 -1.70936 0
M  V30 12090 H 1153.33 -7.54518 -0.473065 0
M  V30 12091 H 1154.6 -7.61617 -1.66012 0
M  V30 12092 N 1158.83 -0.446794 -1.51134 0
M  V30 12093 C 1160.08 0.116493 -2.02165 0
M  V30 12094 C 1160.41 1.41884 -1.33039 0
M  V30 12095 O 1159.66 1.90757 -0.437071 0
M  V30 12096 C 1159.96 0.373015 -3.55448 0
M  V30 12097 C 1159.63 -0.844659 -4.42918 0
M  V30 12098 C 1158.29 -1.17857 -4.66544 0
M  V30 12099 C 1160.64 -1.65653 -4.94174 0
M  V30 12100 C 1157.97 -2.32486 -5.38672 0
M  V30 12101 C 1160.32 -2.7939 -5.6756 0
M  V30 12102 C 1158.98 -3.13224 -5.89446 0
M  V30 12103 H 1158.25 0.0426279 -0.739773 0
M  V30 12104 H 1160.9 -0.595921 -1.81992 0
M  V30 12105 H 1159.21 1.16742 -3.74003 0
M  V30 12106 H 1160.9 0.822425 -3.92476 0
M  V30 12107 H 1157.49 -0.574478 -4.24733 0
M  V30 12108 H 1161.68 -1.41176 -4.75797 0
M  V30 12109 H 1156.93 -2.59003 -5.5383 0
M  V30 12110 H 1161.11 -3.42662 -6.06264 0
M  V30 12111 H 1158.73 -4.02158 -6.45115 0
M  V30 12112 N 1160.31 1.56586 -0.178487 0
M  V30 12113 C 1161.24 2.21313 0.744486 0
M  V30 12114 C 1162.22 1.17098 1.23377 0
M  V30 12115 O 1163.4 1.45551 1.28563 0
M  V30 12116 C 1160.53 2.8595 1.97103 0
M  V30 12117 C 1159.49 3.96266 1.61732 0
M  V30 12118 C 1158.81 4.47987 2.91911 0
M  V30 12119 C 1160.11 5.15503 0.839868 0
M  V30 12120 H 1161.81 2.98698 0.204938 0
M  V30 12121 H 1159.35 1.43672 0.0971306 0
M  V30 12122 H 1161.31 3.29909 2.6218 0
M  V30 12123 H 1160.03 2.05946 2.53484 0
M  V30 12124 H 1158.69 3.52974 0.990208 0
M  V30 12125 H 1158.34 3.64765 3.46346 0
M  V30 12126 H 1158.04 5.22413 2.68995 0
M  V30 12127 H 1159.56 4.94637 3.58004 0
M  V30 12128 H 1160.98 5.5611 1.39337 0
M  V30 12129 H 1159.37 5.95891 0.709473 0
M  V30 12130 H 1160.44 4.84628 -0.162396 0
M  V30 12131 N 1161.79 -0.095206 1.57312 0
M  V30 12132 C 1163.06 -0.830388 1.77099 0
M  V30 12133 C 1163.44 -1.9694 0.760121 0
M  V30 12134 O 1162.79 -2.2752 -0.211403 0
M  V30 12135 C 1163 -1.32507 3.22867 0
M  V30 12136 C 1164.35 -1.7679 3.86045 0
M  V30 12137 O 1165.37 -1.42131 3.26615 0
M  V30 12138 O 1164.23 -2.40876 4.90552 0
M  V30 12139 H 1161.33 -0.396083 0.72598 0
M  V30 12140 H 1163.87 -0.0770965 1.69525 0
M  V30 12141 H 1162.64 -0.508992 3.87975 0
M  V30 12142 H 1162.27 -2.14037 3.35073 0
M  V30 12143 N 1163.26 -1.53291 -0.366026 0
M  V30 12144 C 1164.49 -1.73665 -1.13381 0
M  V30 12145 C 1164.91 -0.464284 -1.8228 0
M  V30 12146 O 1164.27 0.581645 -1.71717 0
M  V30 12147 C 1164.32 -2.90225 -2.14013 0
M  V30 12148 O 1163.42 -2.58803 -3.21084 0
M  V30 12149 H 1162.77 -0.576762 -0.329 0
M  V30 12150 H 1165.3 -2.00174 -0.423287 0
M  V30 12151 H 1165.31 -3.16378 -2.57622 0
M  V30 12152 H 1163.98 -3.82518 -1.63257 0
M  V30 12153 H 1162.56 -2.43466 -2.82451 0
M  V30 12154 N 1164.74 0.6258 -1.44643 0
M  V30 12155 C 1165.97 1.41028 -1.50979 0
M  V30 12156 C 1166.38 1.88717 -0.135092 0
M  V30 12157 O 1165.72 1.61778 0.870268 0
M  V30 12158 C 1165.79 2.66094 -2.41732 0
M  V30 12159 C 1165.45 2.40166 -3.88805 0
M  V30 12160 C 1166.45 2.01661 -4.79196 0
M  V30 12161 C 1164.13 2.53641 -4.33557 0
M  V30 12162 C 1166.13 1.76966 -6.12341 0
M  V30 12163 C 1163.81 2.2856 -5.66748 0
M  V30 12164 C 1164.81 1.90282 -6.55959 0
M  V30 12165 O 1164.5 1.65484 -7.86683 0
M  V30 12166 H 1164.23 0.438757 -0.514265 0
M  V30 12167 H 1166.78 0.772034 -1.90339 0
M  V30 12168 H 1165.01 3.32575 -1.97309 0
M  V30 12169 H 1166.7 3.28107 -2.38957 0
M  V30 12170 H 1167.47 1.90802 -4.45892 0
M  V30 12171 H 1163.35 2.82404 -3.64375 0
M  V30 12172 H 1166.89 1.47014 -6.81933 0
M  V30 12173 H 1162.79 2.3903 -5.99612 0
M  V30 12174 H 1163.56 1.79686 -7.98533 0
M  V30 12175 N 1166.22 1.31629 0.866686 0
M  V30 12176 C 1167.45 1.24293 1.6503 0
M  V30 12177 C 1167.86 -0.193556 1.88207 0
M  V30 12178 O 1167.2 -1.13712 1.44275 0
M  V30 12179 C 1167.26 1.92032 3.03914 0
M  V30 12180 C 1166.93 3.41373 3.03831 0
M  V30 12181 C 1167.92 4.37064 2.81551 0
M  V30 12182 C 1165.61 3.83118 3.24848 0
M  V30 12183 C 1167.6 5.72474 2.80272 0
M  V30 12184 C 1165.29 5.18639 3.23197 0
M  V30 12185 C 1166.29 6.13128 3.00936 0
M  V30 12186 O 1165.98 7.46172 2.99137 0
M  V30 12187 H 1165.71 0.430569 0.521139 0
M  V30 12188 H 1168.26 1.74105 1.0898 0
M  V30 12189 H 1166.49 1.36774 3.61704 0
M  V30 12190 H 1168.18 1.78567 3.64512 0
M  V30 12191 H 1168.95 4.06142 2.65093 0
M  V30 12192 H 1164.83 3.10001 3.41204 0
M  V30 12193 H 1168.37 6.46199 2.62816 0
M  V30 12194 H 1164.27 5.49196 3.39197 0
M  V30 12195 H 1165.04 7.55385 3.15175 0
M  V30 12196 N 1167.7 -1.08142 1.14644 0
M  V30 12197 C 1168.65 -2.15133 0.835845 0
M  V30 12198 C 1169.62 -1.64795 -0.207785 0
M  V30 12199 O 1170.8 -1.90644 -0.07711 0
M  V30 12200 C 1167.94 -3.4359 0.322456 0
M  V30 12201 C 1167.05 -4.07761 1.42671 0
M  V30 12202 C 1166.19 -5.24022 0.870281 0
M  V30 12203 C 1165.23 -5.8014 1.95202 0
M  V30 12204 N 1164.37 -6.87743 1.41257 0
M  V30 12205 H 1169.21 -2.41042 1.75222 0
M  V30 12206 H 1166.74 -1.18288 0.874428 0
M  V30 12207 H 1168.7 -4.17199 0.00657059 0
M  V30 12208 H 1167.33 -3.17958 -0.557014 0
M  V30 12209 H 1166.38 -3.31885 1.85893 0
M  V30 12210 H 1167.69 -4.45485 2.24375 0
M  V30 12211 H 1166.85 -6.04582 0.506459 0
M  V30 12212 H 1165.59 -4.87695 0.0223118 0
M  V30 12213 H 1164.59 -4.98232 2.32476 0
M  V30 12214 H 1165.82 -6.18525 2.80363 0
M  V30 12215 H 1163.76 -6.5337 0.586826 0
M  V30 12216 H 1163.68 -7.24308 2.16596 0
M  V30 12217 H 1164.95 -7.72028 1.07674 0
M  V30 12218 N 1169.18 -0.941978 -1.26351 0
M  V30 12219 C 1170.14 -0.456768 -2.24602 0
M  V30 12220 C 1171.14 0.432574 -1.54872 0
M  V30 12221 O 1172.33 0.23164 -1.72653 0
M  V30 12222 C 1169.46 0.341583 -3.39184 0
M  V30 12223 H 1170.66 -1.32503 -2.69041 0
M  V30 12224 H 1168.21 -0.724021 -1.38519 0
M  V30 12225 H 1168.94 1.22806 -3.00149 0
M  V30 12226 H 1168.73 -0.296268 -3.90979 0
M  V30 12227 H 1170.22 0.670955 -4.12175 0
M  V30 12228 N 1170.66 1.40747 -0.709091 0
M  V30 12229 C 1171.6 2.30741 -0.0523584 0
M  V30 12230 C 1172.57 1.4784 0.757145 0
M  V30 12231 O 1173.76 1.76595 0.72242 0
M  V30 12232 C 1170.9 3.34 0.868203 0
M  V30 12233 C 1170.01 4.31972 0.0488686 0
M  V30 12234 C 1169.15 5.223 0.968311 0
M  V30 12235 C 1168.18 6.11934 0.142682 0
M  V30 12236 N 1167.32 6.947 1.01665 0
M  V30 12237 H 1172.16 2.86338 -0.825509 0
M  V30 12238 H 1169.7 1.41013 -0.418785 0
M  V30 12239 H 1171.66 3.92431 1.41611 0
M  V30 12240 H 1170.29 2.79921 1.6076 0
M  V30 12241 H 1169.34 3.75377 -0.616137 0
M  V30 12242 H 1170.65 4.95291 -0.590625 0
M  V30 12243 H 1169.8 5.85631 1.58498 0
M  V30 12244 H 1168.54 4.5924 1.64164 0
M  V30 12245 H 1167.55 5.47639 -0.486965 0
M  V30 12246 H 1168.77 6.77052 -0.527046 0
M  V30 12247 H 1166.72 6.34236 1.67575 0
M  V30 12248 H 1166.64 7.54759 0.433045 0
M  V30 12249 H 1167.9 7.62487 1.6197 0
M  V30 12250 N 1172.13 0.454803 1.50895 0
M  V30 12251 C 1173.38 -0.107367 2.01414 0
M  V30 12252 C 1173.7 -1.42243 1.34262 0
M  V30 12253 O 1174.9 -2.06858 1.75846 0
M  V30 12254 C 1173.36 -0.241872 3.59086 0
M  V30 12255 C 1172.97 1.06379 4.35187 0
M  V30 12256 C 1174.71 -0.756873 4.17698 0
M  V30 12257 C 1172.62 0.893973 5.84604 0
M  V30 12258 H 1171.55 -0.0439003 0.752721 0
M  V30 12259 H 1174.2 0.587225 1.7385 0
M  V30 12260 H 1172.58 -0.999873 3.83169 0
M  V30 12261 H 1173.75 1.83148 4.2284 0
M  V30 12262 H 1172.07 1.50865 3.88109 0
M  V30 12263 H 1174.67 -0.900697 5.27059 0
M  V30 12264 H 1175.01 -1.74397 3.7801 0
M  V30 12265 H 1175.54 -0.0567088 3.9776 0
M  V30 12266 H 1172.28 1.85395 6.28736 0
M  V30 12267 H 1171.8 0.166387 5.99569 0
M  V30 12268 H 1173.48 0.554084 6.44623 0
M  V30 12269 N 1173.61 -1.56489 0.186789 0
M  V30 12270 C 1174.84 -2.01429 -0.459326 0
M  V30 12271 C 1175.25 -1.06611 -1.56303 0
M  V30 12272 O 1174.59 -0.0617053 -1.83596 0
M  V30 12273 C 1174.65 -3.42778 -1.08367 0
M  V30 12274 C 1174.32 -4.56843 -0.119719 0
M  V30 12275 C 1175.32 -5.15594 0.667782 0
M  V30 12276 C 1173 -5.02299 -0.0110494 0
M  V30 12277 C 1174.99 -6.18242 1.551 0
M  V30 12278 C 1172.68 -6.04793 0.875738 0
M  V30 12279 C 1173.68 -6.62637 1.65534 0
M  V30 12280 O 1173.37 -7.63141 2.52728 0
M  V30 12281 H 1173.1 -0.665175 -0.120492 0
M  V30 12282 H 1175.65 -2.03338 0.290283 0
M  V30 12283 H 1173.88 -3.3783 -1.8817 0
M  V30 12284 H 1175.57 -3.71577 -1.63357 0
M  V30 12285 H 1176.34 -4.81348 0.594085 0
M  V30 12286 H 1172.22 -4.56977 -0.607667 0
M  V30 12287 H 1175.76 -6.63319 2.15995 0
M  V30 12288 H 1171.66 -6.38462 0.950581 0
M  V30 12289 H 1172.43 -7.80527 2.46415 0
M  V30 12290 N 1175.09 0.086862 -1.5736 0
M  V30 12291 C 1176 1.12297 -2.05977 0
M  V30 12292 C 1177.02 1.43347 -0.986284 0
M  V30 12293 O 1178.19 1.53825 -1.3 0
M  V30 12294 C 1175.26 2.42131 -2.4814 0
M  V30 12295 C 1174.32 2.18189 -3.69719 0
M  V30 12296 C 1173.55 3.41833 -4.09861 0
M  V30 12297 O 1173.77 4.50383 -3.50016 0
M  V30 12298 O 1172.71 3.30934 -5.02759 0
M  V30 12299 H 1176.53 0.740012 -2.94546 0
M  V30 12300 H 1174.12 0.29995 -1.46358 0
M  V30 12301 H 1176 3.18568 -2.75848 0
M  V30 12302 H 1174.68 2.79837 -1.62705 0
M  V30 12303 H 1173.58 1.39506 -3.47115 0
M  V30 12304 H 1174.92 1.85372 -4.55959 0
M  V30 12305 N 1176.57 1.53483 0.357892 0
M  V30 12306 C 1177.79 1.74264 1.12458 0
M  V30 12307 C 1178.22 0.473944 1.82031 0
M  V30 12308 O 1177.58 -0.57253 1.72023 0
M  V30 12309 C 1177.62 2.91356 2.12471 0
M  V30 12310 O 1176.73 2.60502 3.19707 0
M  V30 12311 H 1176.07 0.578499 0.325937 0
M  V30 12312 H 1178.6 2.00395 0.412666 0
M  V30 12313 H 1178.61 3.1774 2.5594 0
M  V30 12314 H 1177.28 3.83378 1.61226 0
M  V30 12315 H 1175.86 2.44961 2.81156 0
M  V30 12316 N 1178.05 -0.61812 1.44973 0
M  V30 12317 C 1179.32 -1.37705 1.38913 0
M  V30 12318 C 1179.7 -2.1103 0.054385 0
M  V30 12319 O 1179.05 -2.07197 -0.963409 0
M  V30 12320 C 1179.26 -2.33265 2.59593 0
M  V30 12321 C 1180.61 -2.96197 3.04224 0
M  V30 12322 O 1181.63 -2.43589 2.59891 0
M  V30 12323 O 1180.49 -3.91666 3.8113 0
M  V30 12324 H 1177.59 -0.61694 0.55074 0
M  V30 12325 H 1180.13 -0.642088 1.57084 0
M  V30 12326 H 1178.9 -1.78271 3.48332 0
M  V30 12327 H 1178.53 -3.14158 2.43702 0
M  V30 12328 N 1179.52 -1.32087 -0.859693 0
M  V30 12329 C 1180.93 -1.20107 -1.42938 0
M  V30 12330 C 1181.29 0.188411 -1.95293 0
M  V30 12331 O 1180.41 1.08683 -1.87128 0
M  V30 12332 C 1181.01 -2.17436 -2.59821 0
M  V30 12333 C 1179.56 -2.09359 -3.12803 0
M  V30 12334 C 1178.71 -2.06086 -1.85537 0
M  V30 12335 H 1181.66 -1.43989 -0.667302 0
M  V30 12336 H 1181.68 -1.76996 -3.36828 0
M  V30 12337 H 1181.2 -3.18555 -2.21685 0
M  V30 12338 H 1179.3 -1.1147 -3.55535 0
M  V30 12339 H 1179.41 -2.98947 -3.74389 0
M  V30 12340 H 1177.77 -1.51251 -2.04928 0
M  V30 12341 H 1178.56 -3.08978 -1.49625 0
M  V30 12342 N 1181 1.07532 -1.15215 0
M  V30 12343 C 1182.25 1.80093 -0.925891 0
M  V30 12344 C 1182.58 1.86648 0.547079 0
M  V30 12345 O 1181.83 1.34492 1.42164 0
M  V30 12346 C 1182.13 3.2518 -1.483 0
M  V30 12347 C 1181.8 3.38728 -2.97614 0
M  V30 12348 C 1180.46 3.42133 -3.38376 0
M  V30 12349 C 1182.81 3.41676 -3.93583 0
M  V30 12350 C 1180.14 3.46086 -4.73752 0
M  V30 12351 C 1182.49 3.47166 -5.28828 0
M  V30 12352 C 1181.15 3.48847 -5.69089 0
M  V30 12353 H 1180.42 0.659007 -0.338808 0
M  V30 12354 H 1183.07 1.26548 -1.43728 0
M  V30 12355 H 1181.38 3.81493 -0.892751 0
M  V30 12356 H 1183.07 3.79895 -1.28376 0
M  V30 12357 H 1179.66 3.36775 -2.65105 0
M  V30 12358 H 1183.85 3.38268 -3.63165 0
M  V30 12359 H 1179.1 3.45686 -5.04293 0
M  V30 12360 H 1183.28 3.48393 -6.02989 0
M  V30 12361 H 1180.9 3.51663 -6.73971 0
M  V30 12362 N 1182.48 0.948665 1.2585 0
M  V30 12363 C 1183.44 0.468673 2.24357 0
M  V30 12364 C 1184.44 -0.424355 1.551 0
M  V30 12365 O 1185.63 -0.222481 1.72773 0
M  V30 12366 C 1182.77 -0.32359 3.39361 0
M  V30 12367 H 1183.96 1.33928 2.68334 0
M  V30 12368 H 1181.51 0.731357 1.38133 0
M  V30 12369 H 1182.25 -1.21212 3.00796 0
M  V30 12370 H 1182.03 0.316998 3.90816 0
M  V30 12371 H 1183.52 -0.649087 4.12525 0
M  V30 12372 N 1183.96 -1.40369 0.716545 0
M  V30 12373 C 1185.37 -1.54757 0.390202 0
M  V30 12374 C 1185.57 -1.68767 -1.10091 0
M  V30 12375 O 1184.63 -1.67779 -1.88697 0
M  V30 12376 C 1185.94 -2.77546 1.15709 0
M  V30 12377 C 1187.49 -2.91364 1.14349 0
M  V30 12378 C 1187.97 -4.17068 1.89256 0
M  V30 12379 N 1189.46 -4.2407 1.8633 0
M  V30 12380 C 1190.19 -5.20243 2.41112 0
M  V30 12381 N 1189.69 -6.22318 3.04454 0
M  V30 12382 N 1191.48 -5.12328 2.31249 0
M  V30 12383 H 1183.63 -1.29521 1.68339 0
M  V30 12384 H 1185.9 -0.626382 0.711582 0
M  V30 12385 H 1185.6 -2.73474 2.21144 0
M  V30 12386 H 1185.48 -3.69682 0.749347 0
M  V30 12387 H 1187.86 -2.94939 0.0973383 0
M  V30 12388 H 1187.94 -2.00344 1.59047 0
M  V30 12389 H 1187.59 -4.14255 2.93863 0
M  V30 12390 H 1187.52 -5.07099 1.41978 0
M  V30 12391 H 1190.01 -3.50944 1.40168 0
M  V30 12392 H 1190.32 -6.92129 3.43769 0
M  V30 12393 H 1188.67 -6.22759 3.08538 0
M  V30 12394 H 1191.86 -4.31514 1.8142 0
M  V30 12395 H 1192.03 -5.87107 2.74243 0
M  V30 12396 N 1185.44 -0.462799 -1.50652 0
M  V30 12397 C 1186.37 0.325724 -2.31217 0
M  V30 12398 C 1187.35 0.997942 -1.3775 0
M  V30 12399 O 1188.53 0.996707 -1.66671 0
M  V30 12400 C 1185.66 1.41283 -3.17264 0
M  V30 12401 C 1184.62 0.862687 -4.19216 0
M  V30 12402 C 1183.94 2.04746 -4.93946 0
M  V30 12403 C 1185.24 -0.120365 -5.22161 0
M  V30 12404 H 1186.94 -0.346666 -2.97386 0
M  V30 12405 H 1184.48 -0.168163 -1.43015 0
M  V30 12406 H 1186.44 1.97188 -3.72418 0
M  V30 12407 H 1185.16 2.11387 -2.48964 0
M  V30 12408 H 1183.82 0.325671 -3.65151 0
M  V30 12409 H 1183.47 2.73529 -4.22127 0
M  V30 12410 H 1183.17 1.68562 -5.62904 0
M  V30 12411 H 1184.69 2.61157 -5.51932 0
M  V30 12412 H 1186.1 0.349226 -5.72235 0
M  V30 12413 H 1184.5 -0.396061 -5.98792 0
M  V30 12414 H 1185.57 -1.04895 -4.73418 0
M  V30 12415 N 1186.91 1.56388 -0.195085 0
M  V30 12416 C 1188.19 1.89329 0.491303 0
M  V30 12417 C 1188.57 1.10861 1.79647 0
M  V30 12418 O 1187.92 0.209696 2.27536 0
M  V30 12419 C 1188.13 3.417 0.710096 0
M  V30 12420 C 1189.48 4.11931 1.02947 0
M  V30 12421 O 1190.5 3.4715 0.797817 0
M  V30 12422 O 1189.36 5.26423 1.46767 0
M  V30 12423 H 1186.45 0.786335 0.256137 0
M  V30 12424 H 1189 1.68061 -0.235298 0
M  V30 12425 H 1187.77 3.90727 -0.211604 0
M  V30 12426 H 1187.4 3.6866 1.48916 0
M  V30 12427 N 1188.39 -0.0785156 1.57404 0
M  V30 12428 C 1189.32 -1.12058 1.99939 0
M  V30 12429 C 1190.34 -1.35372 0.904343 0
M  V30 12430 O 1191.53 -1.33731 1.1823 0
M  V30 12431 C 1188.63 -2.47285 2.31739 0
M  V30 12432 C 1187.8 -2.44021 3.63005 0
M  V30 12433 C 1186.86 -3.61303 3.82552 0
M  V30 12434 O 1185.88 -3.43039 4.54217 0
M  V30 12435 N 1187.09 -4.81404 3.24392 0
M  V30 12436 H 1189.85 -0.758416 2.89945 0
M  V30 12437 H 1187.41 -0.267266 1.59679 0
M  V30 12438 H 1189.4 -3.24377 2.41995 0
M  V30 12439 H 1187.97 -2.75529 1.47657 0
M  V30 12440 H 1187.19 -1.52361 3.63565 0
M  V30 12441 H 1188.48 -2.38934 4.49208 0
M  V30 12442 H 1187.88 -4.99147 2.66211 0
M  V30 12443 H 1186.44 -5.56031 3.40107 0
M  V30 12444 N 1189.87 -1.5367 -0.349747 0
M  V30 12445 C 1191.1 -1.74547 -1.11089 0
M  V30 12446 C 1191.51 -0.481741 -1.82551 0
M  V30 12447 O 1190.87 0.546272 -1.74132 0
M  V30 12448 C 1190.92 -2.92148 -2.12913 0
M  V30 12449 O 1190.64 -4.13633 -1.44358 0
M  V30 12450 C 1192.14 -3.25027 -3.01451 0
M  V30 12451 H 1189.36 -0.583376 -0.331532 0
M  V30 12452 H 1191.91 -2.00473 -0.403841 0
M  V30 12453 H 1190.06 -2.68572 -2.79192 0
M  V30 12454 H 1190.48 -4.79601 -2.12329 0
M  V30 12455 H 1191.95 -4.10679 -3.68845 0
M  V30 12456 H 1192.43 -2.41064 -3.67131 0
M  V30 12457 H 1193.03 -3.50586 -2.40768 0
M  V30 12458 N 1191.35 0.610423 -1.45298 0
M  V30 12459 C 1192.6 1.3668 -1.48872 0
M  V30 12460 C 1192.92 1.94562 -0.130686 0
M  V30 12461 O 1192.19 1.76996 0.839607 0
M  V30 12462 H 1190.77 0.507393 -0.548235 0
M  V30 12463 H 1193.43 0.716997 -1.81232 0
M  V30 12464 H 1192.53 2.18766 -2.22593 0
M  V30 12465 N 1192.83 1.32541 0.852676 0
M  V30 12466 C 1194.07 1.23397 1.60938 0
M  V30 12467 C 1194.41 -0.203294 1.93133 0
M  V30 12468 O 1193.68 -1.14097 1.57519 0
M  V30 12469 C 1193.96 2.0956 2.92842 0
M  V30 12470 C 1193.82 3.61675 2.67416 0
M  V30 12471 C 1195.14 1.95825 3.94133 0
M  V30 12472 H 1192.25 0.449608 0.583971 0
M  V30 12473 H 1194.9 1.62507 0.98446 0
M  V30 12474 H 1193.05 1.76336 3.46176 0
M  V30 12475 H 1194.72 4.05122 2.20621 0
M  V30 12476 H 1192.96 3.84242 2.01347 0
M  V30 12477 H 1193.63 4.17292 3.61347 0
M  V30 12478 H 1196.11 2.24935 3.50062 0
M  V30 12479 H 1194.98 2.58387 4.8428 0
M  V30 12480 H 1195.25 0.926466 4.32284 0
M  V30 12481 N 1194.3 -1.0692 1.15784 0
M  V30 12482 C 1195.55 -1.79245 0.933581 0
M  V30 12483 C 1195.87 -1.87362 -0.540427 0
M  V30 12484 O 1195.14 -1.37769 -1.39271 0
M  V30 12485 H 1193.72 -0.663898 0.342416 0
M  V30 12486 H 1196.39 -1.29189 1.45932 0
M  V30 12487 H 1195.48 -2.81546 1.34679 0
M  V30 12488 N 1195.78 -0.955326 -1.25345 0
M  V30 12489 C 1196.71 -0.4334 -2.25065 0
M  V30 12490 C 1197.73 0.451099 -1.56425 0
M  V30 12491 O 1198.92 0.259265 -1.76607 0
M  V30 12492 C 1196.02 0.394809 -3.36592 0
M  V30 12493 C 1195.19 -0.476856 -4.34793 0
M  V30 12494 C 1194.25 0.293269 -5.25382 0
M  V30 12495 O 1193.27 -0.30857 -5.68363 0
M  V30 12496 N 1194.48 1.58617 -5.58409 0
M  V30 12497 H 1197.24 -1.29073 -2.70482 0
M  V30 12498 H 1194.8 -0.825764 -1.39258 0
M  V30 12499 H 1196.79 0.917747 -3.94157 0
M  V30 12500 H 1195.36 1.153 -2.90559 0
M  V30 12501 H 1194.58 -1.18089 -3.76097 0
M  V30 12502 H 1195.87 -1.07178 -4.97384 0
M  V30 12503 H 1195.27 2.09705 -5.25395 0
M  V30 12504 H 1193.83 2.05506 -6.18555 0
M  V30 12505 N 1197.26 1.39987 -0.723979 0
M  V30 12506 C 1198.19 2.3332 -0.0917282 0
M  V30 12507 C 1199.17 1.53335 0.736361 0
M  V30 12508 O 1200.36 1.81771 0.683582 0
M  V30 12509 C 1197.49 3.3737 0.824549 0
M  V30 12510 C 1196.44 4.2788 0.101452 0
M  V30 12511 C 1195.77 5.22536 1.13401 0
M  V30 12512 C 1197.07 5.11649 -1.04939 0
M  V30 12513 H 1198.76 2.86441 -0.871318 0
M  V30 12514 H 1196.31 1.37725 -0.420448 0
M  V30 12515 H 1198.26 4.01607 1.27631 0
M  V30 12516 H 1196.98 2.82663 1.63613 0
M  V30 12517 H 1195.64 3.65107 -0.330569 0
M  V30 12518 H 1195.29 4.64131 1.93886 0
M  V30 12519 H 1194.99 5.83938 0.65502 0
M  V30 12520 H 1196.52 5.89651 1.58569 0
M  V30 12521 H 1197.93 5.69293 -0.6766 0
M  V30 12522 H 1196.33 5.82137 -1.45729 0
M  V30 12523 H 1197.4 4.47132 -1.8762 0
M  V30 12524 N 1198.74 0.470782 1.50404 0
M  V30 12525 C 1199.99 -0.0844409 2.02624 0
M  V30 12526 C 1200.32 -1.39398 1.3521 0
M  V30 12527 O 1199.59 -1.88542 0.477707 0
M  V30 12528 C 1199.88 -0.268563 3.59097 0
M  V30 12529 C 1199.73 1.06198 4.37084 0
M  V30 12530 C 1201.05 -1.02324 4.28039 0
M  V30 12531 H 1198.17 -0.0292141 0.736421 0
M  V30 12532 H 1200.81 0.616312 1.79726 0
M  V30 12533 H 1198.96 -0.865441 3.78738 0
M  V30 12534 H 1200.63 1.69541 4.29015 0
M  V30 12535 H 1198.87 1.65868 4.00837 0
M  V30 12536 H 1199.55 0.886795 5.4483 0
M  V30 12537 H 1202.02 -0.517325 4.12872 0
M  V30 12538 H 1200.9 -1.12087 5.37334 0
M  V30 12539 H 1201.16 -2.05974 3.91187 0
M  V30 12540 N 1200.22 -1.56282 0.203376 0
M  V30 12541 C 1201.13 -2.23086 -0.725922 0
M  V30 12542 C 1202.14 -1.23258 -1.22814 0
M  V30 12543 O 1203.32 -1.5602 -1.27357 0
M  V30 12544 C 1200.38 -2.88358 -1.92485 0
M  V30 12545 C 1199.45 -4.03479 -1.46639 0
M  V30 12546 C 1198.68 -4.65629 -2.60816 0
M  V30 12547 O 1198.9 -4.2672 -3.78506 0
M  V30 12548 O 1197.84 -5.54949 -2.33056 0
M  V30 12549 H 1201.66 -3.03124 -0.18694 0
M  V30 12550 H 1199.25 -1.49377 -0.0262829 0
M  V30 12551 H 1201.13 -3.29623 -2.62539 0
M  V30 12552 H 1199.8 -2.11294 -2.45228 0
M  V30 12553 H 1198.71 -3.66821 -0.734396 0
M  V30 12554 H 1200.04 -4.82232 -0.985535 0
M  V30 12555 N 1201.7 0.070167 -1.57444 0
M  V30 12556 C 1202.63 1.11509 -1.991 0
M  V30 12557 C 1203.61 1.37481 -0.868194 0
M  V30 12558 O 1204.79 1.50827 -1.13064 0
M  V30 12559 C 1201.92 2.45908 -2.3291 0
M  V30 12560 C 1200.96 2.36059 -3.55216 0
M  V30 12561 S 1201.8 1.75316 -5.05989 0
M  V30 12562 C 1202.95 3.11289 -5.43001 0
M  V30 12563 H 1203.19 0.760096 -2.87419 0
M  V30 12564 H 1200.72 0.278756 -1.51863 0
M  V30 12565 H 1202.68 3.23217 -2.53063 0
M  V30 12566 H 1201.34 2.78567 -1.45117 0
M  V30 12567 H 1200.53 3.35176 -3.76395 0
M  V30 12568 H 1200.13 1.66886 -3.34701 0
M  V30 12569 H 1202.42 4.07603 -5.41171 0
M  V30 12570 H 1203.37 2.94888 -6.43775 0
M  V30 12571 H 1203.78 3.11969 -4.70463 0
M  V30 12572 N 1203.17 1.53854 0.341593 0
M  V30 12573 C 1204.14 1.8128 1.40251 0
M  V30 12574 C 1205.14 0.683915 1.45531 0
M  V30 12575 O 1206.33 0.952202 1.45872 0
M  V30 12576 C 1203.46 1.95658 2.79161 0
M  V30 12577 H 1204.65 2.76053 1.17195 0
M  V30 12578 H 1202.2 1.45296 0.57609 0
M  V30 12579 H 1202.94 1.03034 3.07497 0
M  V30 12580 H 1202.72 2.77788 2.76724 0
M  V30 12581 H 1204.21 2.18387 3.55945 0
M  V30 12582 N 1204.65 -0.602709 1.4562 0
M  V30 12583 C 1205.9 -1.36359 1.50113 0
M  V30 12584 C 1206.23 -1.93663 0.144297 0
M  V30 12585 O 1205.51 -1.75337 -0.841851 0
M  V30 12586 C 1205.79 -2.50788 2.58413 0
M  V30 12587 C 1205.64 -1.98649 4.03557 0
M  V30 12588 C 1206.96 -3.52905 2.62957 0
M  V30 12589 H 1204.08 -0.494455 0.54652 0
M  V30 12590 H 1206.72 -0.678957 1.77455 0
M  V30 12591 H 1204.87 -3.09191 2.3523 0
M  V30 12592 H 1206.54 -1.44857 4.37966 0
M  V30 12593 H 1204.79 -1.29615 4.13984 0
M  V30 12594 H 1205.46 -2.81159 4.7503 0
M  V30 12595 H 1207.93 -3.0435 2.83743 0
M  V30 12596 H 1206.81 -4.30454 3.40589 0
M  V30 12597 H 1207.07 -4.0884 1.68233 0
M  V30 12598 N 1206.13 -1.32992 -0.845635 0
M  V30 12599 C 1207.08 -1.22682 -1.95494 0
M  V30 12600 C 1208.05 -0.106942 -1.65755 0
M  V30 12601 O 1209.23 -0.28405 -1.88674 0
M  V30 12602 C 1206.37 -0.965068 -3.31331 0
M  V30 12603 C 1205.48 -2.17058 -3.7351 0
M  V30 12604 C 1204.62 -1.84355 -4.98183 0
M  V30 12605 C 1203.66 -3.01176 -5.32878 0
M  V30 12606 N 1202.8 -2.68506 -6.48729 0
M  V30 12607 H 1207.64 -2.17562 -2.03644 0
M  V30 12608 H 1205.17 -1.08194 -0.996613 0
M  V30 12609 H 1207.13 -0.793771 -4.09579 0
M  V30 12610 H 1205.76 -0.0530285 -3.22756 0
M  V30 12611 H 1204.81 -2.45185 -2.90841 0
M  V30 12612 H 1206.12 -3.04413 -3.95138 0
M  V30 12613 H 1205.28 -1.6383 -5.84162 0
M  V30 12614 H 1204.02 -0.942264 -4.78511 0
M  V30 12615 H 1203.02 -3.22323 -4.45408 0
M  V30 12616 H 1204.25 -3.9205 -5.54503 0
M  V30 12617 H 1202.19 -1.80929 -6.30556 0
M  V30 12618 H 1202.11 -3.49392 -6.70419 0
M  V30 12619 H 1203.38 -2.51432 -7.37836 0
M  V30 12620 N 1207.61 1.06304 -1.1635 0
M  V30 12621 C 1208.55 2.13776 -0.869965 0
M  V30 12622 C 1209.52 1.65105 0.181541 0
M  V30 12623 O 1210.71 1.90743 0.0467705 0
M  V30 12624 C 1207.85 3.43034 -0.377077 0
M  V30 12625 C 1206.96 4.0544 -1.4914 0
M  V30 12626 C 1206.1 5.22572 -0.953538 0
M  V30 12627 C 1205.14 5.76961 -2.04407 0
M  V30 12628 N 1204.27 6.85409 -1.52181 0
M  V30 12629 H 1209.11 2.38224 -1.79034 0
M  V30 12630 H 1206.65 1.16882 -0.893136 0
M  V30 12631 H 1208.61 4.17136 -0.0729426 0
M  V30 12632 H 1207.24 3.18804 0.506359 0
M  V30 12633 H 1206.29 3.28886 -1.9115 0
M  V30 12634 H 1207.6 4.41859 -2.31434 0
M  V30 12635 H 1206.76 6.037 -0.602579 0
M  V30 12636 H 1205.5 4.87598 -0.099897 0
M  V30 12637 H 1204.5 4.9447 -2.40373 0
M  V30 12638 H 1205.73 6.13987 -2.90167 0
M  V30 12639 H 1203.67 6.52354 -0.690697 0
M  V30 12640 H 1203.59 7.2077 -2.28092 0
M  V30 12641 H 1204.86 7.70217 -1.19942 0
M  V30 12642 N 1209.09 0.96196 1.24836 0
M  V30 12643 C 1210.33 0.619489 1.92371 0
M  V30 12644 C 1210.65 -0.847233 1.75633 0
M  V30 12645 O 1209.92 -1.60419 1.12439 0
M  V30 12646 H 1208.5 0.226129 0.711951 0
M  V30 12647 H 1211.17 1.22179 1.5185 0
M  V30 12648 H 1210.26 0.855128 3.00157 0
M  V30 12649 N 1210.56 -1.39601 0.731392 0
M  V30 12650 C 1211.98 -1.54334 0.406594 0
M  V30 12651 C 1212.18 -1.69925 -1.08295 0
M  V30 12652 O 1211.24 -1.69771 -1.86906 0
M  V30 12653 C 1212.55 -2.76303 1.18647 0
M  V30 12654 C 1214.1 -2.90135 1.17433 0
M  V30 12655 C 1214.57 -4.15038 1.93669 0
M  V30 12656 N 1216.06 -4.2207 1.90817 0
M  V30 12657 C 1216.8 -5.17656 2.46616 0
M  V30 12658 N 1216.29 -6.19054 3.11037 0
M  V30 12659 N 1218.09 -5.09847 2.3667 0
M  V30 12660 H 1210.24 -1.27728 1.69703 0
M  V30 12661 H 1212.5 -0.6188 0.718186 0
M  V30 12662 H 1212.21 -2.71113 2.24032 0
M  V30 12663 H 1212.08 -3.68866 0.788514 0
M  V30 12664 H 1214.47 -2.9482 0.128615 0
M  V30 12665 H 1214.55 -1.98646 1.61163 0
M  V30 12666 H 1214.19 -4.11115 2.9824 0
M  V30 12667 H 1214.12 -5.05565 1.47349 0
M  V30 12668 H 1216.61 -3.49437 1.43882 0
M  V30 12669 H 1216.93 -6.88444 3.51091 0
M  V30 12670 H 1215.27 -6.19452 3.15126 0
M  V30 12671 H 1218.46 -4.29566 1.85987 0
M  V30 12672 H 1218.64 -5.84165 2.80455 0
M  V30 12673 N 1212.04 -0.478751 -1.50152 0
M  V30 12674 C 1212.97 0.347829 -2.26545 0
M  V30 12675 C 1213.99 0.950354 -1.32182 0
M  V30 12676 O 1215.18 0.837462 -1.57635 0
M  V30 12677 C 1212.28 1.50255 -3.0377 0
M  V30 12678 C 1211.45 1.01142 -4.25546 0
M  V30 12679 C 1210.51 2.0411 -4.85 0
M  V30 12680 O 1209.53 1.61862 -5.45701 0
M  V30 12681 N 1210.74 3.36982 -4.72677 0
M  V30 12682 H 1213.5 -0.307113 -2.98122 0
M  V30 12683 H 1211.06 -0.309981 -1.58905 0
M  V30 12684 H 1213.05 2.18848 -3.40423 0
M  V30 12685 H 1211.62 2.06205 -2.34943 0
M  V30 12686 H 1210.84 0.151124 -3.9391 0
M  V30 12687 H 1212.13 0.661326 -5.04484 0
M  V30 12688 H 1211.53 3.74011 -4.2442 0
M  V30 12689 H 1210.09 4.0135 -5.13577 0
M  V30 12690 N 1213.52 1.56172 -0.211661 0
M  V30 12691 C 1214.75 2.02428 0.427843 0
M  V30 12692 C 1215.16 1.09162 1.54043 0
M  V30 12693 O 1214.52 0.0994249 1.82229 0
M  V30 12694 C 1214.57 3.48279 0.968728 0
M  V30 12695 O 1214.29 4.37987 -0.0994841 0
M  V30 12696 C 1215.79 4.10132 1.68246 0
M  V30 12697 H 1213.01 0.662611 0.10577 0
M  V30 12698 H 1215.56 2.01897 -0.32522 0
M  V30 12699 H 1213.71 3.49456 1.6721 0
M  V30 12700 H 1214.13 5.23609 0.305558 0
M  V30 12701 H 1215.6 5.13985 2.01304 0
M  V30 12702 H 1216.08 3.54552 2.5921 0
M  V30 12703 H 1216.68 4.12775 1.02453 0
M  V30 12704 N 1215 -0.0618163 1.57479 0
M  V30 12705 C 1216.41 -0.416827 1.54061 0
M  V30 12706 C 1216.61 -1.78584 0.933277 0
M  V30 12707 O 1215.67 -2.46656 0.54009 0
M  V30 12708 C 1216.98 -0.348728 2.98671 0
M  V30 12709 C 1218.53 -0.428194 3.10057 0
M  V30 12710 C 1219.01 -0.389898 4.56337 0
M  V30 12711 N 1220.5 -0.449677 4.61012 0
M  V30 12712 C 1221.23 -0.442418 5.71691 0
M  V30 12713 N 1220.73 -0.389381 6.91705 0
M  V30 12714 N 1222.52 -0.489719 5.59963 0
M  V30 12715 H 1214.67 0.834487 1.9532 0
M  V30 12716 H 1216.94 0.314149 0.894435 0
M  V30 12717 H 1216.64 0.590738 3.46703 0
M  V30 12718 H 1216.52 -1.15511 3.59078 0
M  V30 12719 H 1218.9 -1.35808 2.61992 0
M  V30 12720 H 1218.98 0.406946 2.52542 0
M  V30 12721 H 1218.63 0.536186 5.05062 0
M  V30 12722 H 1218.56 -1.24271 5.11727 0
M  V30 12723 H 1221.05 -0.49451 3.74651 0
M  V30 12724 H 1221.36 -0.388042 7.71825 0
M  V30 12725 H 1219.71 -0.355918 6.94088 0
M  V30 12726 H 1222.9 -0.528915 4.65102 0
M  V30 12727 H 1223.07 -0.480592 6.46215 0
M  V30 12728 N 1216.48 -1.54033 -0.333429 0
M  V30 12729 C 1217.89 -1.63107 -0.908455 0
M  V30 12730 C 1218.24 -0.518823 -1.89216 0
M  V30 12731 O 1217.36 0.34985 -2.13553 0
M  V30 12732 C 1217.96 -2.95657 -1.65447 0
M  V30 12733 C 1216.52 -3.0696 -2.17836 0
M  V30 12734 C 1215.66 -2.58617 -1.00063 0
M  V30 12735 H 1218.62 -1.58309 -0.11128 0
M  V30 12736 H 1218.64 -2.85263 -2.51804 0
M  V30 12737 H 1218.15 -3.76588 -0.938263 0
M  V30 12738 H 1216.25 -2.30683 -2.92602 0
M  V30 12739 H 1216.36 -4.12599 -2.43513 0
M  V30 12740 H 1214.73 -2.1427 -1.37697 0
M  V30 12741 H 1215.51 -3.41996 -0.298901 0
M  V30 12742 N 1217.95 0.594978 -1.45938 0
M  V30 12743 C 1219.2 1.35093 -1.50314 0
M  V30 12744 C 1219.52 1.94412 -0.151315 0
M  V30 12745 O 1218.79 1.77876 0.820787 0
M  V30 12746 H 1217.37 0.501549 -0.553586 0
M  V30 12747 H 1220.04 0.697735 -1.81983 0
M  V30 12748 H 1219.13 2.16393 -2.24901 0
M  V30 12749 N 1219.43 1.33438 0.838571 0
M  V30 12750 C 1220.36 1.26344 1.96365 0
M  V30 12751 C 1221.34 0.143956 1.6949 0
M  V30 12752 O 1222.53 0.333779 1.9131 0
M  V30 12753 C 1219.66 1.0022 3.32526 0
M  V30 12754 C 1218.61 2.08466 3.73799 0
M  V30 12755 C 1217.94 1.67555 5.07769 0
M  V30 12756 C 1219.24 3.50144 3.87552 0
M  V30 12757 H 1220.93 2.20478 2.02558 0
M  V30 12758 H 1218.48 1.06139 0.973168 0
M  V30 12759 H 1220.43 0.939068 4.10803 0
M  V30 12760 H 1219.16 0.0252514 3.2659 0
M  V30 12761 H 1217.81 2.13822 2.97785 0
M  V30 12762 H 1217.46 0.685619 4.98305 0
M  V30 12763 H 1217.16 2.39993 5.36356 0
M  V30 12764 H 1218.69 1.62708 5.88522 0
M  V30 12765 H 1220.1 3.47287 4.56141 0
M  V30 12766 H 1218.5 4.21069 4.27575 0
M  V30 12767 H 1219.57 3.88628 2.89994 0
M  V30 12768 N 1220.91 -1.05686 1.16912 0
M  V30 12769 C 1221.86 -2.13312 0.88129 0
M  V30 12770 C 1222.83 -1.65199 -0.172783 0
M  V30 12771 O 1224.01 -1.90765 -0.0366542 0
M  V30 12772 C 1221.15 -3.42829 0.395264 0
M  V30 12773 C 1220.27 -4.04643 1.51288 0
M  V30 12774 C 1219.4 -5.22059 0.981238 0
M  V30 12775 C 1218.44 -5.75869 2.07464 0
M  V30 12776 N 1217.58 -6.84592 1.55813 0
M  V30 12777 H 1222.42 -2.37271 1.80295 0
M  V30 12778 H 1219.95 -1.16407 0.899322 0
M  V30 12779 H 1221.91 -4.17092 0.0950633 0
M  V30 12780 H 1220.54 -3.19068 -0.489445 0
M  V30 12781 H 1219.59 -3.27867 1.92891 0
M  V30 12782 H 1220.91 -4.40626 2.33774 0
M  V30 12783 H 1220.06 -6.03372 0.634586 0
M  V30 12784 H 1218.8 -4.87538 0.125754 0
M  V30 12785 H 1217.8 -4.93188 2.42992 0
M  V30 12786 H 1219.03 -6.12439 2.93419 0
M  V30 12787 H 1216.97 -6.51978 0.725283 0
M  V30 12788 H 1216.89 -7.19551 2.31911 0
M  V30 12789 H 1218.16 -7.6957 1.24025 0
M  V30 12790 N 1222.39 -0.968567 -1.24324 0
M  V30 12791 C 1223.63 -0.63879 -1.94162 0
M  V30 12792 C 1223.99 0.81112 -1.74025 0
M  V30 12793 O 1225.19 1.25116 -2.37906 0
M  V30 12794 C 1223.46 -1.00432 -3.42999 0
M  V30 12795 S 1225.02 -0.789227 -4.31644 0
M  V30 12796 H 1221.84 -0.234322 -0.671278 0
M  V30 12797 H 1224.44 -1.2457 -1.50673 0
M  V30 12798 H 1223.15 -2.05643 -3.55161 0
M  V30 12799 H 1222.68 -0.388221 -3.9148 0
M  V30 12800 H 1224.69 0.332976 -4.95082 0
M  V30 12801 N 1223.87 1.39211 -0.738786 0
M  V30 12802 C 1225.11 2.0004 -0.28782 0
M  V30 12803 C 1225.44 1.58921 1.13 0
M  V30 12804 O 1224.71 0.839193 1.77015 0
M  V30 12805 H 1223.29 0.739805 -0.103425 0
M  V30 12806 H 1225.95 1.70202 -0.949587 0
M  V30 12807 H 1225.04 3.10251 -0.339208 0
M  V30 12808 N 1225.34 0.486708 1.49896 0
M  V30 12809 C 1226.59 -0.0646197 2.01596 0
M  V30 12810 C 1226.91 -1.39363 1.37249 0
M  V30 12811 O 1228.11 -2.03082 1.80194 0
M  V30 12812 C 1226.57 -0.16565 3.59519 0
M  V30 12813 C 1226.18 1.15586 4.32832 0
M  V30 12814 C 1227.92 -0.668103 4.1921 0
M  V30 12815 C 1225.83 1.01778 5.82576 0
M  V30 12816 H 1224.76 -0.0279241 0.753483 0
M  V30 12817 H 1227.41 0.623969 1.72566 0
M  V30 12818 H 1225.79 -0.918372 3.85204 0
M  V30 12819 H 1226.96 1.92076 4.1886 0
M  V30 12820 H 1225.28 1.59064 3.84822 0
M  V30 12821 H 1227.88 -0.788698 5.28851 0
M  V30 12822 H 1228.22 -1.66339 3.81624 0
M  V30 12823 H 1228.75 0.0276746 3.9779 0
M  V30 12824 H 1225.49 1.9869 6.24662 0
M  V30 12825 H 1225.01 0.293527 5.99081 0
M  V30 12826 H 1226.69 0.690693 6.43303 0
M  V30 12827 N 1226.82 -1.56058 0.219941 0
M  V30 12828 C 1228.06 -2.00162 -0.414063 0
M  V30 12829 C 1228.43 -1.10432 -1.57063 0
M  V30 12830 O 1229.63 -1.43877 -2.27053 0
M  V30 12831 C 1227.9 -3.47411 -0.839084 0
M  V30 12832 S 1229.46 -4.13536 -1.46742 0
M  V30 12833 H 1226.28 -0.698738 -0.131475 0
M  V30 12834 H 1228.88 -1.92714 0.32885 0
M  V30 12835 H 1227.58 -4.10398 0.0123666 0
M  V30 12836 H 1227.11 -3.58728 -1.61485 0
M  V30 12837 H 1229.13 -4.12592 -2.75648 0
M  V30 12838 N 1228.3 0.053464 -1.57509 0
M  V30 12839 C 1229.55 0.747622 -1.87763 0
M  V30 12840 C 1229.87 1.77178 -0.814433 0
M  V30 12841 O 1229.14 1.95287 0.154862 0
M  V30 12842 H 1227.72 0.279109 -0.692898 0
M  V30 12843 H 1230.38 0.0252006 -1.94884 0
M  V30 12844 H 1229.48 1.25244 -2.85868 0
M  V30 12845 N 1229.78 1.54207 0.325255 0
M  V30 12846 C 1230.69 1.86495 1.42326 0
M  V30 12847 C 1231.71 0.756718 1.56684 0
M  V30 12848 O 1232.88 1.05084 1.71812 0
M  V30 12849 C 1229.95 2.08414 2.77064 0
M  V30 12850 C 1229.01 3.32221 2.71897 0
M  V30 12851 C 1228.24 3.53085 4.00209 0
M  V30 12852 O 1228.46 2.77421 4.98391 0
M  V30 12853 O 1227.4 4.46559 4.0357 0
M  V30 12854 H 1231.22 2.79859 1.17951 0
M  V30 12855 H 1228.81 1.40091 0.519124 0
M  V30 12856 H 1230.69 2.24171 3.56827 0
M  V30 12857 H 1229.37 1.18238 3.01333 0
M  V30 12858 H 1228.27 3.21851 1.90691 0
M  V30 12859 H 1229.61 4.22449 2.52582 0
M  V30 12860 N 1231.26 -0.58723 1.46251 0
M  V30 12861 C 1232.21 -1.69141 1.5289 0
M  V30 12862 C 1233.19 -1.56096 0.39024 0
M  V30 12863 O 1234.38 -1.65087 0.638373 0
M  V30 12864 C 1231.51 -3.07922 1.51785 0
M  V30 12865 C 1230.6 -3.2628 2.70928 0
M  V30 12866 N 1230.99 -3.14815 3.95885 0
M  V30 12867 C 1229.29 -3.57207 2.67056 0
M  V30 12868 C 1229.99 -3.35055 4.75514 0
M  V30 12869 N 1228.96 -3.59999 4.0731 0
M  V30 12870 H 1232.77 -1.588 2.47305 0
M  V30 12871 H 1230.28 -0.791124 1.41827 0
M  V30 12872 H 1232.28 -3.87164 1.54628 0
M  V30 12873 H 1230.94 -3.19397 0.584435 0
M  V30 12874 H 1231.95 -2.92778 4.27202 0
M  V30 12875 H 1228.63 -3.75394 1.82717 0
M  V30 12876 H 1230.02 -3.31412 5.84479 0
M  V30 12877 N 1232.74 -1.33881 -0.831482 0
M  V30 12878 C 1233.98 -1.25507 -1.58406 0
M  V30 12879 C 1234.3 0.177137 -1.94194 0
M  V30 12880 O 1233.57 1.10769 -1.61576 0
M  V30 12881 H 1232.15 -0.461551 -0.587349 0
M  V30 12882 H 1234.82 -1.6769 -0.99328 0
M  V30 12883 H 1233.91 -1.85391 -2.51071 0
M  V30 12884 N 1234.21 1.05064 -1.1747 0
M  V30 12885 C 1235.46 1.77737 -0.961979 0
M  V30 12886 C 1235.78 1.88198 0.510551 0
M  V30 12887 O 1235.05 1.39968 1.37062 0
M  V30 12888 H 1233.63 0.658366 -0.352935 0
M  V30 12889 H 1236.29 1.26851 -1.47969 0
M  V30 12890 H 1235.39 2.79368 -1.39141 0
M  V30 12891 N 1235.69 0.975146 1.23809 0
M  V30 12892 C 1236.97 0.557725 1.8748 0
M  V30 12893 C 1237.35 -0.965164 1.87744 0
M  V30 12894 O 1236.7 -1.83966 1.35531 0
M  V30 12895 C 1236.91 1.15777 3.29236 0
M  V30 12896 C 1238.25 1.24726 4.05868 0
M  V30 12897 O 1239.28 1.11084 3.38436 0
M  V30 12898 O 1238.14 1.46373 5.26533 0
M  V30 12899 H 1235.23 0.187045 0.80557 0
M  V30 12900 H 1237.78 1.06989 1.31725 0
M  V30 12901 H 1236.55 2.20023 3.23583 0
M  V30 12902 H 1236.17 0.630103 3.92575 0
M  V30 12903 N 1237.17 -1.38817 0.746158 0
M  V30 12904 C 1238.58 -1.83045 0.367629 0
M  V30 12905 C 1238.93 -1.62285 -1.10263 0
M  V30 12906 O 1238.06 -1.12001 -1.85162 0
M  V30 12907 C 1238.65 -3.323 0.660482 0
M  V30 12908 C 1237.21 -3.74903 0.335318 0
M  V30 12909 C 1236.36 -2.61683 0.917446 0
M  V30 12910 H 1239.31 -1.27651 0.94291 0
M  V30 12911 H 1239.33 -3.80446 -0.0639061 0
M  V30 12912 H 1238.84 -3.47377 1.73062 0
M  V30 12913 H 1236.94 -3.65408 -0.728538 0
M  V30 12914 H 1237.06 -4.71932 0.825677 0
M  V30 12915 H 1235.42 -2.52376 0.343316 0
M  V30 12916 H 1236.2 -2.79563 1.99247 0
M  V30 12917 N 1238.65 -0.49465 -1.49636 0
M  V30 12918 C 1239.87 0.051305 -2.07337 0
M  V30 12919 C 1240.3 1.30637 -1.35335 0
M  V30 12920 O 1239.66 1.76647 -0.408126 0
M  V30 12921 C 1239.7 0.294425 -3.59396 0
M  V30 12922 O 1238.81 1.3704 -3.88965 0
M  V30 12923 H 1238.15 -0.023408 -0.663587 0
M  V30 12924 H 1240.68 -0.692451 -1.92526 0
M  V30 12925 H 1240.69 0.527854 -4.04571 0
M  V30 12926 H 1239.36 -0.622583 -4.11214 0
M  V30 12927 H 1237.94 1.12242 -3.55607 0
M  V30 12928 N 1240.13 1.55939 -0.228214 0
M  V30 12929 C 1241.35 2.0332 0.409364 0
M  V30 12930 C 1241.78 1.10683 1.52088 0
M  V30 12931 O 1241.13 0.0962484 1.81044 0
M  V30 12932 C 1241.18 3.48877 0.911981 0
M  V30 12933 O 1240.29 3.59378 2.02289 0
M  V30 12934 H 1239.63 0.657625 0.0917909 0
M  V30 12935 H 1242.16 2.01605 -0.348802 0
M  V30 12936 H 1242.17 3.89331 1.22007 0
M  V30 12937 H 1240.84 4.15783 0.0984902 0
M  V30 12938 H 1239.42 3.30815 1.72093 0
M  V30 12939 N 1241.6 -0.0451101 1.57535 0
M  V30 12940 C 1242.85 -0.740209 1.88809 0
M  V30 12941 C 1243.18 -1.75854 0.823956 0
M  V30 12942 O 1242.46 -1.93817 -0.16286 0
M  V30 12943 C 1242.74 -1.42424 3.30737 0
M  V30 12944 C 1242.59 -0.42052 4.4783 0
M  V30 12945 C 1243.91 -2.36241 3.7132 0
M  V30 12946 H 1241.03 -0.267628 0.686691 0
M  V30 12947 H 1243.67 -0.00309149 1.9 0
M  V30 12948 H 1241.82 -2.05254 3.29853 0
M  V30 12949 H 1243.5 0.204625 4.60846 0
M  V30 12950 H 1241.74 0.261739 4.3301 0
M  V30 12951 H 1242.41 -0.937298 5.43984 0
M  V30 12952 H 1244.89 -1.83468 3.73468 0
M  V30 12953 H 1243.76 -2.81091 4.71465 0
M  V30 12954 H 1244.02 -3.2222 3.02699 0
M  V30 12955 N 1243.08 -1.54377 -0.317073 0
M  V30 12956 C 1243.99 -1.87247 -1.41335 0
M  V30 12957 C 1245.01 -0.765017 -1.5628 0
M  V30 12958 O 1246.18 -1.05994 -1.71252 0
M  V30 12959 C 1243.25 -2.0988 -2.75955 0
M  V30 12960 C 1242.31 -3.33658 -2.70131 0
M  V30 12961 C 1241.54 -3.55202 -3.9833 0
M  V30 12962 O 1241.77 -2.80061 -4.96913 0
M  V30 12963 O 1240.7 -4.48693 -4.01196 0
M  V30 12964 H 1244.53 -2.80481 -1.16465 0
M  V30 12965 H 1242.11 -1.40364 -0.511687 0
M  V30 12966 H 1243.99 -2.2606 -3.55633 0
M  V30 12967 H 1242.67 -1.19834 -3.00702 0
M  V30 12968 H 1241.58 -3.22857 -1.88981 0
M  V30 12969 H 1242.91 -4.23782 -2.50338 0
M  V30 12970 N 1244.56 0.579466 -1.4656 0
M  V30 12971 C 1245.81 1.33756 -1.52038 0
M  V30 12972 C 1246.14 1.93725 -0.173423 0
M  V30 12973 O 1245.39 1.77167 0.831293 0
M  V30 12974 C 1245.69 2.48417 -2.56951 0
M  V30 12975 C 1245.36 2.0642 -4.00876 0
M  V30 12976 C 1244.02 1.94682 -4.4006 0
M  V30 12977 C 1246.37 1.74066 -4.91274 0
M  V30 12978 C 1243.7 1.48852 -5.67503 0
M  V30 12979 C 1246.05 1.29714 -6.19158 0
M  V30 12980 C 1244.71 1.16555 -6.57245 0
M  V30 12981 H 1243.98 0.489447 -0.556347 0
M  V30 12982 H 1246.63 0.652176 -1.80053 0
M  V30 12983 H 1244.94 3.22416 -2.2261 0
M  V30 12984 H 1246.63 3.06629 -2.58418 0
M  V30 12985 H 1243.22 2.16492 -3.69904 0
M  V30 12986 H 1247.41 1.82019 -4.61717 0
M  V30 12987 H 1242.66 1.3731 -5.95782 0
M  V30 12988 H 1246.84 1.03734 -6.88631 0
M  V30 12989 H 1244.46 0.808193 -7.55892 0
M  V30 12990 N 1246.04 1.3432 0.824371 0
M  V30 12991 C 1247.28 1.27942 1.59405 0
M  V30 12992 C 1247.64 -0.148961 1.91421 0
M  V30 12993 O 1248.84 -0.336891 2.6668 0
M  V30 12994 C 1247.11 2.14393 2.85955 0
M  V30 12995 S 1248.67 2.25354 3.76512 0
M  V30 12996 H 1245.49 0.454953 0.546387 0
M  V30 12997 H 1248.09 1.69517 0.973873 0
M  V30 12998 H 1246.8 3.17182 2.60429 0
M  V30 12999 H 1246.33 1.7371 3.52971 0
M  V30 13000 H 1248.34 1.42526 4.7529 0
M  V30 13001 N 1247.52 -1.0444 1.18026 0
M  V30 13002 C 1248.47 -2.10671 0.871877 0
M  V30 13003 C 1249.45 -1.60134 -0.156798 0
M  V30 13004 O 1250.64 -1.76938 0.0467129 0
M  V30 13005 C 1247.77 -3.41017 0.395271 0
M  V30 13006 C 1246.86 -3.98331 1.4558 0
M  V30 13007 N 1247.25 -4.29508 2.67127 0
M  V30 13008 C 1245.55 -4.2616 1.31544 0
M  V30 13009 C 1246.25 -4.7532 3.35329 0
M  V30 13010 N 1245.22 -4.75904 2.6271 0
M  V30 13011 H 1249.03 -2.32647 1.79589 0
M  V30 13012 H 1246.54 -1.22158 1.0701 0
M  V30 13013 H 1248.54 -4.16609 0.155861 0
M  V30 13014 H 1247.2 -3.20469 -0.522452 0
M  V30 13015 H 1248.21 -4.19271 3.04027 0
M  V30 13016 H 1244.88 -4.14959 0.459962 0
M  V30 13017 H 1246.27 -5.08493 4.39186 0
M  V30 13018 N 1248.99 -0.981699 -1.2329 0
M  V30 13019 C 1249.94 -0.52269 -2.24803 0
M  V30 13020 C 1250.91 0.439116 -1.6019 0
M  V30 13021 O 1252.1 0.346372 -1.8763 0
M  V30 13022 C 1249.24 0.167477 -3.44693 0
M  V30 13023 C 1248.35 -0.834744 -4.23858 0
M  V30 13024 C 1247.48 -0.119249 -5.31066 0
M  V30 13025 C 1246.52 -1.1106 -6.0194 0
M  V30 13026 N 1245.66 -0.424167 -7.00818 0
M  V30 13027 H 1250.5 -1.39312 -2.63431 0
M  V30 13028 H 1248.04 -0.698061 -1.29482 0
M  V30 13029 H 1250 0.584442 -4.13086 0
M  V30 13030 H 1248.63 1.00177 -3.06862 0
M  V30 13031 H 1247.68 -1.37009 -3.5487 0
M  V30 13032 H 1248.99 -1.59012 -4.72776 0
M  V30 13033 H 1248.14 0.355015 -6.0566 0
M  V30 13034 H 1246.88 0.668714 -4.83094 0
M  V30 13035 H 1245.89 -1.5956 -5.26138 0
M  V30 13036 H 1247.11 -1.89924 -6.52001 0
M  V30 13037 H 1245.06 0.344564 -6.55094 0
M  V30 13038 H 1244.98 -1.11817 -7.47685 0
M  V30 13039 H 1246.24 0.0276655 -7.79495 0
M  V30 13040 N 1250.47 1.3842 -0.753509 0
M  V30 13041 C 1251.72 2.00415 -0.310091 0
M  V30 13042 C 1252.05 1.59675 1.10532 0
M  V30 13043 O 1251.33 0.834261 1.757 0
M  V30 13044 C 1251.61 3.57488 -0.432897 0
M  V30 13045 C 1251.46 4.08193 -1.88941 0
M  V30 13046 C 1252.78 4.39757 0.173763 0
M  V30 13047 H 1249.9 0.728107 -0.114147 0
M  V30 13048 H 1252.54 1.64363 -0.953138 0
M  V30 13049 H 1250.69 3.88331 0.114563 0
M  V30 13050 H 1252.36 3.87993 -2.49517 0
M  V30 13051 H 1250.61 3.61063 -2.4045 0
M  V30 13052 H 1251.28 5.17291 -1.9265 0
M  V30 13053 H 1253.75 4.15066 -0.293137 0
M  V30 13054 H 1252.63 5.4887 0.057594 0
M  V30 13055 H 1252.89 4.23704 1.26205 0
M  V30 13056 N 1251.95 0.502579 1.49372 0
M  V30 13057 C 1253.2 -0.0412993 2.02058 0
M  V30 13058 C 1253.52 -1.37338 1.38431 0
M  V30 13059 O 1252.79 -1.88305 0.540175 0
M  V30 13060 H 1251.37 -0.0182522 0.746777 0
M  V30 13061 H 1254.03 0.660179 1.83378 0
M  V30 13062 H 1253.13 -0.169812 3.11638 0
M  V30 13063 N 1253.43 -1.55816 0.23648 0
M  V30 13064 C 1254.36 -2.23924 -0.661834 0
M  V30 13065 C 1255.34 -1.21597 -1.18946 0
M  V30 13066 O 1256.52 -1.50222 -1.23073 0
M  V30 13067 C 1253.65 -2.93069 -1.86355 0
M  V30 13068 C 1252.61 -4.01996 -1.46913 0
M  V30 13069 C 1251.93 -4.58512 -2.75083 0
M  V30 13070 C 1253.23 -5.18265 -0.647964 0
M  V30 13071 H 1254.93 -2.99253 -0.0939368 0
M  V30 13072 H 1252.47 -1.43934 -0.0437407 0
M  V30 13073 H 1254.43 -3.39412 -2.49755 0
M  V30 13074 H 1253.15 -2.15212 -2.45665 0
M  V30 13075 H 1251.81 -3.56406 -0.858522 0
M  V30 13076 H 1251.46 -3.77368 -3.3257 0
M  V30 13077 H 1251.16 -5.32037 -2.49421 0
M  V30 13078 H 1252.68 -5.07583 -3.39399 0
M  V30 13079 H 1254.1 -5.60898 -1.18602 0
M  V30 13080 H 1252.49 -5.98114 -0.487823 0
M  V30 13081 H 1253.56 -4.83691 0.342151 0
M  V30 13082 N 1254.91 0.036755 -1.57557 0
M  V30 13083 C 1255.85 1.05823 -2.07133 0
M  V30 13084 C 1256.85 1.37923 -0.983546 0
M  V30 13085 O 1258.05 1.36918 -1.16848 0
M  V30 13086 H 1254.43 0.358761 -0.660905 0
M  V30 13087 H 1256.4 0.614232 -2.9201 0
M  V30 13088 C 1255.15 2.35302 -2.55985 0
M  V30 13089 H 1254.47 2.11461 -3.393 0
M  V30 13090 H 1255.91 3.05139 -2.94391 0
M  V30 13091 C 1254.37 3.0373 -1.45773 0
M  V30 13092 O 1254.9 3.9325 -0.819587 0
M  V30 13093 N 1253.11 2.64931 -1.19416 0
M  V30 13094 H 1252.65 1.92219 -1.71492 0
M  V30 13095 H 1252.61 3.11033 -0.458865 0
M  V30 13096 N 1256.39 1.54543 0.308881 0
M  V30 13097 C 1257.62 1.77174 1.06268 0
M  V30 13098 C 1258.02 0.527461 1.81699 0
M  V30 13099 O 1257.37 -0.512027 1.7642 0
M  V30 13100 C 1257.43 2.92115 2.09545 0
M  V30 13101 C 1257.09 4.30492 1.5338 0
M  V30 13102 C 1258.09 5.1081 0.967923 0
M  V30 13103 C 1255.77 4.77074 1.5718 0
M  V30 13104 C 1257.77 6.35827 0.447517 0
M  V30 13105 C 1255.46 6.02055 1.04753 0
M  V30 13106 C 1256.45 6.81266 0.486345 0
M  V30 13107 O 1256.14 8.03894 -0.0300055 0
M  V30 13108 H 1255.87 0.594773 0.321281 0
M  V30 13109 H 1258.43 2.02289 0.356136 0
M  V30 13110 H 1256.66 2.62606 2.83857 0
M  V30 13111 H 1258.35 3.02394 2.70763 0
M  V30 13112 H 1259.11 4.7597 0.931523 0
M  V30 13113 H 1254.99 4.15453 1.998 0
M  V30 13114 H 1258.54 6.97599 0.00884212 0
M  V30 13115 H 1254.43 6.36383 1.08105 0
M  V30 13116 H 1255.2 8.18457 0.0840381 0
M  V30 13117 N 1257.86 -0.571685 1.46866 0
M  V30 13118 C 1259.11 -1.33145 1.52972 0
M  V30 13119 C 1259.44 -1.93314 0.185344 0
M  V30 13120 O 1258.72 -1.77083 -0.80447 0
M  V30 13121 C 1259 -2.4525 2.63675 0
M  V30 13122 C 1258.85 -1.90044 4.0768 0
M  V30 13123 C 1260.17 -3.47247 2.70384 0
M  V30 13124 H 1257.29 -0.482751 0.556885 0
M  V30 13125 H 1259.93 -0.641163 1.78855 0
M  V30 13126 H 1258.08 -3.04132 2.41735 0
M  V30 13127 H 1259.76 -1.35535 4.4094 0
M  V30 13128 H 1258 -1.20805 4.1664 0
M  V30 13129 H 1258.67 -2.71019 4.80887 0
M  V30 13130 H 1261.15 -2.98263 2.90135 0
M  V30 13131 H 1260.02 -4.23132 3.49643 0
M  V30 13132 H 1260.28 -4.05179 1.76868 0
M  V30 13133 N 1259.34 -1.34755 -0.817236 0
M  V30 13134 C 1260.57 -1.30676 -1.61054 0
M  V30 13135 C 1260.99 0.115343 -1.87746 0
M  V30 13136 O 1260.35 1.07887 -1.45705 0
M  V30 13137 C 1260.4 -2.10881 -2.92509 0
M  V30 13138 O 1259.5 -1.48223 -3.84842 0
M  V30 13139 H 1258.84 -0.448531 -0.489608 0
M  V30 13140 H 1261.37 -1.77642 -1.01512 0
M  V30 13141 H 1261.38 -2.22446 -3.42026 0
M  V30 13142 H 1260.06 -3.14274 -2.72406 0
M  V30 13143 H 1258.63 -1.45434 -3.4337 0
M  V30 13144 N 1260.82 1.03812 -1.18578 0
M  V30 13145 C 1262.06 1.78618 -0.993725 0
M  V30 13146 C 1262.42 1.86206 0.468133 0
M  V30 13147 O 1263.62 2.57243 0.779714 0
M  V30 13148 C 1261.9 3.17883 -1.63357 0
M  V30 13149 S 1263.45 4.08994 -1.58962 0
M  V30 13150 H 1260.27 0.614997 -0.356792 0
M  V30 13151 H 1262.87 1.24458 -1.50766 0
M  V30 13152 H 1261.58 3.09972 -2.68972 0
M  V30 13153 H 1261.11 3.77119 -1.12003 0
M  V30 13154 H 1263.12 4.9247 -0.6073 0
M  V30 13155 N 1262.3 0.988223 1.22768 0
M  V30 13156 C 1263.52 0.679426 1.95955 0
M  V30 13157 C 1263.95 -0.748483 1.72567 0
M  V30 13158 O 1263.31 -1.51097 1.00197 0
M  V30 13159 C 1263.35 0.985284 3.46878 0
M  V30 13160 O 1262.46 0.0814607 4.1232 0
M  V30 13161 H 1261.8 0.254749 0.613188 0
M  V30 13162 H 1264.33 1.32393 1.55991 0
M  V30 13163 H 1264.34 0.925198 3.97371 0
M  V30 13164 H 1263.01 2.02581 3.63227 0
M  V30 13165 H 1261.59 0.196629 3.72381 0
M  V30 13166 N 1263.78 -1.38018 0.760839 0
M  V30 13167 C 1265.19 -1.82645 0.387022 0
M  V30 13168 C 1265.54 -1.63445 -1.08536 0
M  V30 13169 O 1264.66 -1.13958 -1.83963 0
M  V30 13170 C 1265.26 -3.3158 0.69569 0
M  V30 13171 C 1263.82 -3.74527 0.375063 0
M  V30 13172 C 1262.96 -2.60696 0.94515 0
M  V30 13173 H 1265.91 -1.26644 0.956396 0
M  V30 13174 H 1265.94 -3.80493 -0.0235511 0
M  V30 13175 H 1265.45 -3.45522 1.76737 0
M  V30 13176 H 1263.55 -3.6616 -0.689741 0
M  V30 13177 H 1263.66 -4.71029 0.875685 0
M  V30 13178 H 1262.03 -2.51997 0.370065 0
M  V30 13179 H 1262.81 -2.77434 2.02201 0
M  V30 13180 N 1265.25 -0.510493 -1.49103 0
M  V30 13181 C 1266.5 0.0306436 -2.02477 0
M  V30 13182 C 1266.83 1.36113 -1.38937 0
M  V30 13183 O 1266.08 1.88731 -0.517584 0
M  V30 13184 C 1266.38 0.221921 -3.5671 0
M  V30 13185 C 1266.05 -1.03176 -4.38937 0
M  V30 13186 C 1264.71 -1.37539 -4.61125 0
M  V30 13187 C 1267.06 -1.86464 -4.86704 0
M  V30 13188 C 1264.39 -2.55124 -5.28326 0
M  V30 13189 C 1266.74 -3.03211 -5.55199 0
M  V30 13190 C 1265.41 -3.37943 -5.75631 0
M  V30 13191 H 1264.68 0.0112133 -0.740915 0
M  V30 13192 H 1267.32 -0.672574 -1.79301 0
M  V30 13193 H 1265.63 1.00775 -3.78618 0
M  V30 13194 H 1267.33 0.655223 -3.95611 0
M  V30 13195 H 1263.92 -0.754105 -4.21914 0
M  V30 13196 H 1268.1 -1.61229 -4.69381 0
M  V30 13197 H 1263.36 -2.8226 -5.42346 0
M  V30 13198 H 1267.53 -3.68068 -5.91185 0
M  V30 13199 H 1265.16 -4.29158 -6.27477 0
M  V30 13200 N 1266.73 1.55688 -0.24474 0
M  V30 13201 C 1268.15 1.59219 0.110159 0
M  V30 13202 C 1268.35 1.26187 1.57096 0
M  V30 13203 O 1267.4 1.00815 2.31501 0
M  V30 13204 C 1268.72 2.99764 -0.237075 0
M  V30 13205 C 1270.26 3.12475 -0.181198 0
M  V30 13206 C 1270.74 4.55236 -0.502435 0
M  V30 13207 N 1272.23 4.60981 -0.452855 0
M  V30 13208 C 1272.97 5.69418 -0.674605 0
M  V30 13209 N 1272.46 6.86125 -0.959366 0
M  V30 13210 N 1274.25 5.5883 -0.605459 0
M  V30 13211 H 1266.41 1.7543 -1.19741 0
M  V30 13212 H 1268.67 0.816537 -0.481634 0
M  V30 13213 H 1268.37 3.28666 -1.25185 0
M  V30 13214 H 1268.25 3.74662 0.436859 0
M  V30 13215 H 1270.64 2.83355 0.824248 0
M  V30 13216 H 1270.72 2.39857 -0.888952 0
M  V30 13217 H 1270.36 4.85077 -1.50543 0
M  V30 13218 H 1270.29 5.26111 0.226773 0
M  V30 13219 H 1272.78 3.77128 -0.241401 0
M  V30 13220 H 1273.09 7.64699 -1.11605 0
M  V30 13221 H 1271.44 6.87814 -0.996816 0
M  V30 13222 H 1274.63 4.6653 -0.383053 0
M  V30 13223 H 1274.8 6.43268 -0.781673 0
M  V30 13224 N 1268.21 -0.0283989 1.57574 0
M  V30 13225 C 1269.46 -0.720142 1.89583 0
M  V30 13226 C 1269.79 -1.7497 0.842562 0
M  V30 13227 O 1269.06 -1.93979 -0.142294 0
M  V30 13228 C 1269.35 -1.38909 3.32229 0
M  V30 13229 C 1269.2 -0.372998 4.48251 0
M  V30 13230 C 1270.52 -2.32289 3.73804 0
M  V30 13231 H 1267.64 -0.26033 0.689491 0
M  V30 13232 H 1270.28 0.0170607 1.89992 0
M  V30 13233 H 1268.43 -2.01744 3.32011 0
M  V30 13234 H 1270.1 0.253492 4.60603 0
M  V30 13235 H 1268.34 0.30765 4.32708 0
M  V30 13236 H 1269.02 -0.879549 5.44948 0
M  V30 13237 H 1271.49 -1.79497 3.75393 0
M  V30 13238 H 1270.37 -2.76075 4.74419 0
M  V30 13239 H 1270.63 -3.18992 3.06099 0
M  V30 13240 N 1269.69 -1.54705 -0.300681 0
M  V30 13241 C 1271.1 -1.64998 -0.873654 0
M  V30 13242 C 1271.45 -0.558842 -1.88073 0
M  V30 13243 O 1270.57 0.304474 -2.14247 0
M  V30 13244 C 1271.17 -2.99099 -1.59138 0
M  V30 13245 C 1269.73 -3.11512 -2.11276 0
M  V30 13246 C 1268.88 -2.60681 -0.945551 0
M  V30 13247 H 1271.83 -1.5851 -0.0776752 0
M  V30 13248 H 1271.85 -2.9054 -2.45696 0
M  V30 13249 H 1271.36 -3.78493 -0.858172 0
M  V30 13250 H 1269.46 -2.36838 -2.87643 0
M  V30 13251 H 1269.57 -4.17672 -2.34707 0
M  V30 13252 H 1267.94 -2.17143 -1.33121 0
M  V30 13253 H 1268.72 -3.42553 -0.226291 0
M  V30 13254 N 1271.17 0.563888 -1.47167 0
M  V30 13255 C 1272.42 1.31766 -1.5271 0
M  V30 13256 C 1272.73 1.94664 -0.191164 0
M  V30 13257 O 1273.93 2.71214 -0.124543 0
M  V30 13258 C 1272.39 2.38907 -2.69168 0
M  V30 13259 C 1272 1.8223 -4.09263 0
M  V30 13260 C 1273.74 3.15508 -2.83999 0
M  V30 13261 C 1271.65 2.87111 -5.17031 0
M  V30 13262 H 1270.58 0.495421 -0.568396 0
M  V30 13263 H 1273.23 0.599665 -1.73425 0
M  V30 13264 H 1271.61 3.13591 -2.4182 0
M  V30 13265 H 1272.79 1.13963 -4.46485 0
M  V30 13266 H 1271.1 1.18235 -3.99261 0
M  V30 13267 H 1273.7 3.93816 -3.61681 0
M  V30 13268 H 1274.04 3.69277 -1.92197 0
M  V30 13269 H 1274.57 2.47934 -3.11085 0
M  V30 13270 H 1271.31 2.38204 -6.10687 0
M  V30 13271 H 1270.83 3.53809 -4.84334 0
M  V30 13272 H 1272.51 3.50724 -5.43692 0
M  V30 13273 N 1272.64 1.35187 0.810078 0
M  V30 13274 C 1273.61 1.27698 1.90331 0
M  V30 13275 C 1274.61 0.189216 1.59683 0
M  V30 13276 O 1275.8 0.442689 1.68481 0
M  V30 13277 C 1272.93 0.974631 3.26671 0
M  V30 13278 H 1274.12 2.24902 1.98392 0
M  V30 13279 H 1271.68 1.1966 1.00554 0
M  V30 13280 H 1272.41 0.0063068 3.24299 0
M  V30 13281 H 1272.2 1.76158 3.50301 0
M  V30 13282 H 1273.69 0.947743 4.06703 0
M  V30 13283 N 1274.12 -1.03182 1.19127 0
M  V30 13284 C 1275.54 -1.28773 0.942854 0
M  V30 13285 C 1275.74 -1.97759 -0.386483 0
M  V30 13286 O 1274.79 -2.26365 -1.1187 0
M  V30 13287 C 1276.11 -2.13771 2.11476 0
M  V30 13288 C 1277.66 -2.27089 2.15406 0
M  V30 13289 C 1278.13 -3.15458 3.32039 0
M  V30 13290 N 1279.62 -3.23046 3.31957 0
M  V30 13291 C 1280.36 -3.91604 4.18848 0
M  V30 13292 N 1279.85 -4.62418 5.15889 0
M  V30 13293 N 1281.65 -3.87974 4.06734 0
M  V30 13294 H 1273.8 -0.568165 2.0466 0
M  V30 13295 H 1276.06 -0.31328 0.89474 0
M  V30 13296 H 1275.77 -1.704 3.07663 0
M  V30 13297 H 1275.64 -3.14476 2.0829 0
M  V30 13298 H 1278.03 -2.69693 1.19791 0
M  V30 13299 H 1278.11 -1.25945 2.22647 0
M  V30 13300 H 1277.75 -2.73564 4.27931 0
M  V30 13301 H 1277.68 -4.16654 3.22035 0
M  V30 13302 H 1280.17 -2.7261 2.6171 0
M  V30 13303 H 1280.49 -5.12353 5.78545 0
M  V30 13304 H 1278.83 -4.61293 5.1984 0
M  V30 13305 H 1282.02 -3.31789 3.30202 0
M  V30 13306 H 1282.19 -4.4113 4.74666 0
M  V30 13307 N 1275.6 -0.99472 -1.22242 0
M  V30 13308 C 1276.53 -0.566499 -2.26524 0
M  V30 13309 C 1277.51 0.407541 -1.65146 0
M  V30 13310 O 1278.7 0.297777 -1.91903 0
M  V30 13311 C 1275.83 0.11786 -3.471 0
M  V30 13312 C 1274.78 -0.774908 -4.20927 0
M  V30 13313 C 1274.11 0.0424687 -5.34683 0
M  V30 13314 C 1275.41 -2.07263 -4.79416 0
M  V30 13315 H 1277.1 -1.43818 -2.62596 0
M  V30 13316 H 1274.65 -0.692971 -1.2623 0
M  V30 13317 H 1276.6 0.428842 -4.19212 0
M  V30 13318 H 1275.32 1.0241 -3.10129 0
M  V30 13319 H 1273.98 -1.06956 -3.50651 0
M  V30 13320 H 1273.63 0.949677 -4.93954 0
M  V30 13321 H 1273.33 -0.551867 -5.85003 0
M  V30 13322 H 1274.85 0.347504 -6.0961 0
M  V30 13323 H 1276.27 -1.82548 -5.4346 0
M  V30 13324 H 1274.67 -2.61594 -5.40082 0
M  V30 13325 H 1275.74 -2.75017 -3.99366 0
M  V30 13326 N 1277.08 1.37613 -0.768148 0
M  V30 13327 C 1278.04 2.28653 -0.158283 0
M  V30 13328 C 1279.04 1.47862 0.631936 0
M  V30 13329 O 1280.23 1.68124 0.456055 0
M  V30 13330 C 1277.36 3.31776 0.783435 0
M  V30 13331 H 1278.56 2.84094 -0.960772 0
M  V30 13332 H 1276.11 1.46818 -0.536116 0
M  V30 13333 H 1276.84 2.81452 1.61106 0
M  V30 13334 H 1276.63 3.91488 0.219016 0
M  V30 13335 H 1278.12 3.99816 1.20568 0
M  V30 13336 N 1278.56 0.518393 1.4883 0
M  V30 13337 C 1279.52 -0.23983 2.27942 0
M  V30 13338 C 1280.52 -0.878302 1.34694 0
M  V30 13339 O 1281.71 -0.740142 1.57694 0
M  V30 13340 C 1278.84 -1.34581 3.1321 0
M  V30 13341 H 1280.03 0.454599 2.96434 0
M  V30 13342 H 1277.59 0.273932 1.53881 0
M  V30 13343 H 1278.32 -2.07385 2.49323 0
M  V30 13344 H 1278.11 -0.893251 3.8179 0
M  V30 13345 H 1279.6 -1.87944 3.72917 0
M  V30 13346 N 1280.03 -1.55556 0.252993 0
M  V30 13347 C 1281 -2.20351 -0.630705 0
M  V30 13348 C 1282 -1.17461 -1.09816 0
M  V30 13349 O 1283.19 -1.42505 -1.00189 0
M  V30 13350 C 1280.32 -2.85192 -1.86757 0
M  V30 13351 H 1281.51 -2.99829 -0.0652939 0
M  V30 13352 H 1279.07 -1.563 0.00347982 0
M  V30 13353 H 1279.8 -2.09669 -2.47406 0
M  V30 13354 H 1279.59 -3.60569 -1.54053 0
M  V30 13355 H 1281.08 -3.34762 -2.49648 0
M  V30 13356 N 1281.51 0.0200419 -1.57587 0
M  V30 13357 C 1282.44 1.0456 -2.0396 0
M  V30 13358 C 1283.46 1.31922 -0.953962 0
M  V30 13359 O 1284.65 1.2925 -1.23112 0
M  V30 13360 C 1281.75 2.38514 -2.40758 0
M  V30 13361 C 1280.92 2.3038 -3.71812 0
M  V30 13362 C 1279.98 3.46856 -3.95698 0
M  V30 13363 O 1279 3.25944 -4.66636 0
M  V30 13364 N 1280.21 4.69033 -3.42036 0
M  V30 13365 H 1282.97 0.650282 -2.9256 0
M  V30 13366 H 1280.53 0.207818 -1.60561 0
M  V30 13367 H 1282.52 3.15172 -2.53868 0
M  V30 13368 H 1281.09 2.69859 -1.57781 0
M  V30 13369 H 1280.31 1.38762 -3.6897 0
M  V30 13370 H 1281.6 2.22097 -4.57767 0
M  V30 13371 H 1281 4.88923 -2.84553 0
M  V30 13372 H 1279.56 5.43025 -3.6051 0
M  V30 13373 N 1282.99 1.54862 0.292472 0
M  V30 13374 C 1283.95 1.8565 1.34413 0
M  V30 13375 C 1284.95 0.729868 1.43281 0
M  V30 13376 O 1286.14 0.998128 1.42769 0
M  V30 13377 C 1283.28 2.0444 2.72795 0
M  V30 13378 H 1284.47 2.79642 1.08354 0
M  V30 13379 H 1282.02 1.47055 0.529574 0
M  V30 13380 H 1282.76 1.12765 3.04063 0
M  V30 13381 H 1282.54 2.86451 2.67747 0
M  V30 13382 H 1284.03 2.296 3.48817 0
M  V30 13383 N 1284.47 -0.556076 1.47464 0
M  V30 13384 C 1285.43 -1.64515 1.59586 0
M  V30 13385 C 1286.43 -1.53751 0.470881 0
M  V30 13386 O 1287.62 -1.57889 0.735979 0
M  V30 13387 C 1284.75 -3.0406 1.54143 0
M  V30 13388 H 1285.95 -1.55116 2.56669 0
M  V30 13389 H 1283.5 -0.776087 1.35671 0
M  V30 13390 H 1284.23 -3.18991 0.584395 0
M  V30 13391 H 1284.02 -3.13282 2.3579 0
M  V30 13392 H 1285.51 -3.8329 1.65766 0
M  V30 13393 N 1285.95 -1.35615 -0.802897 0
M  V30 13394 C 1286.88 -1.31506 -1.92947 0
M  V30 13395 C 1287.86 -0.188843 -1.69048 0
M  V30 13396 O 1289.04 -0.384384 -1.90358 0
M  V30 13397 C 1286.17 -1.09001 -3.29752 0
M  V30 13398 C 1285.13 -2.18303 -3.68141 0
M  V30 13399 C 1284.45 -1.80959 -5.03148 0
M  V30 13400 C 1285.75 -3.60296 -3.78132 0
M  V30 13401 H 1287.45 -2.25771 -1.96642 0
M  V30 13402 H 1284.99 -1.08682 -0.944685 0
M  V30 13403 H 1286.95 -1.04766 -4.08169 0
M  V30 13404 H 1285.67 -0.111832 -3.26408 0
M  V30 13405 H 1284.33 -2.21642 -2.92011 0
M  V30 13406 H 1283.98 -0.817495 -4.96312 0
M  V30 13407 H 1283.68 -2.54129 -5.29804 0
M  V30 13408 H 1285.2 -1.78255 -5.84001 0
M  V30 13409 H 1286.62 -3.59259 -4.46773 0
M  V30 13410 H 1285.01 -4.32258 -4.16261 0
M  V30 13411 H 1286.08 -3.9618 -2.79588 0
M  V30 13412 N 1287.43 1.02549 -1.19673 0
M  V30 13413 C 1288.37 2.13015 -0.934209 0
M  V30 13414 C 1289.37 1.69035 0.111208 0
M  V30 13415 O 1290.57 1.79959 -0.0383449 0
M  V30 13416 H 1286.95 0.696015 -0.284722 0
M  V30 13417 H 1288.92 2.32346 -1.87238 0
M  V30 13418 C 1287.67 3.44185 -0.493124 0
M  V30 13419 H 1286.99 3.78447 -1.28911 0
M  V30 13420 H 1288.43 4.22565 -0.348577 0
M  V30 13421 C 1286.89 3.27427 0.793277 0
M  V30 13422 O 1287.42 3.56362 1.85388 0
M  V30 13423 N 1285.63 2.80706 0.751837 0
M  V30 13424 H 1285.17 2.57359 -0.111517 0
M  V30 13425 H 1285.13 2.69874 1.61292 0
M  V30 13426 N 1288.9 1.00119 1.21713 0
M  V30 13427 C 1289.85 0.551452 2.25969 0
M  V30 13428 C 1290.85 -0.402075 1.64559 0
M  V30 13429 O 1292.05 -0.273685 1.77907 0
M  V30 13430 H 1288.43 0.159968 0.734789 0
M  V30 13431 H 1290.4 1.44201 2.61244 0
M  V30 13432 C 1289.15 -0.109992 3.47526 0
M  V30 13433 H 1288.47 0.614686 3.95046 0
M  V30 13434 H 1289.91 -0.388007 4.22221 0
M  V30 13435 C 1288.37 -1.34798 3.08757 0
M  V30 13436 O 1288.9 -2.44266 3.189 0
M  V30 13437 N 1287.1 -1.2263 2.63458 0
M  V30 13438 H 1286.65 -0.335571 2.55405 0
M  V30 13439 H 1286.61 -2.05565 2.37887 0
M  V30 13440 N 1290.38 -1.37203 0.775435 0
M  V30 13441 C 1291.33 -2.30228 0.162388 0
M  V30 13442 C 1292.3 -1.51284 -0.685747 0
M  V30 13443 O 1293.48 -1.7984 -0.637342 0
M  V30 13444 C 1290.62 -3.37762 -0.707858 0
M  V30 13445 C 1289.74 -4.31714 0.157287 0
M  V30 13446 C 1288.87 -5.26325 -0.718012 0
M  V30 13447 C 1287.91 -6.11918 0.149442 0
M  V30 13448 N 1287.05 -6.9876 -0.684043 0
M  V30 13449 H 1291.89 -2.82073 0.961184 0
M  V30 13450 H 1289.42 -1.38854 0.485587 0
M  V30 13451 H 1291.38 -3.98741 -1.22726 0
M  V30 13452 H 1290.01 -2.87273 -1.47222 0
M  V30 13453 H 1289.06 -3.7201 0.794533 0
M  V30 13454 H 1290.38 -4.91909 0.826262 0
M  V30 13455 H 1289.53 -5.92526 -1.30376 0
M  V30 13456 H 1288.27 -4.6655 -1.42066 0
M  V30 13457 H 1287.27 -5.44692 0.747697 0
M  V30 13458 H 1288.5 -6.73766 0.849476 0
M  V30 13459 H 1286.45 -6.41508 -1.37124 0
M  V30 13460 H 1286.36 -7.55965 -0.0724464 0
M  V30 13461 H 1287.63 -7.69346 -1.25407 0
M  V30 13462 O 1291.9 -0.667683 -1.47052 0
M  V30 13463 H 1292.59 -0.197643 -1.92689 0
M  V30 END ATOM
M  V30 BEGIN BOND
M  V30 END BOND
M  V30 END CTAB
M  END
$$$$
