drugbank_target|P22906 Dihydrofolate reductase (DB01929; DB01958; DB02001; DB02402; DB03814; DB04163; DB04306)
 OpenBabel12092119523D

  0  0  0     0  0            999 V3000
M  V30 BEGIN CTAB
M  V30 COUNTS 3159 3193 0 0 0
M  V30 BEGIN ATOM
M  V30 1 H -0.908 1.98254 -0.117106 0
M  V30 2 N 0 1.576 0 0
M  V30 3 C 0.933 2.03868 1.02534 0
M  V30 4 C 1.911 0.928543 1.3348 0
M  V30 5 O 3.095 1.19667 1.45644 0
M  V30 6 C 0.222 2.43627 2.35294 0
M  V30 7 C -0.732 3.65373 2.2001 0
M  V30 8 S 0.101 5.13292 1.52614 0
M  V30 9 C 1.257 5.56322 2.86805 0
M  V30 10 H 1.49 2.90518 0.631377 0
M  V30 11 H -0.977 1.52953 0.210867 0
M  V30 12 H 0.981 2.67203 3.11629 0
M  V30 13 H -0.358 1.57376 2.7183 0
M  V30 14 H -1.165 3.90944 3.18086 0
M  V30 15 H -1.563 3.418 1.51819 0
M  V30 16 H 0.729 5.58782 3.83104 0
M  V30 17 H 1.672 6.56266 2.65933 0
M  V30 18 H 2.08 4.83886 2.90714 0
M  V30 19 N 1.4781 -0.272755 1.55222 0
M  V30 20 C 2.7031 -1.02683 1.80197 0
M  V30 21 C 3.1281 -1.79142 0.573551 0
M  V30 22 O 2.4861 -1.74917 -0.476849 0
M  V30 23 C 2.5341 -1.9609 3.02624 0
M  V30 24 O 1.6381 -3.04863 2.77727 0
M  V30 25 H 0.9791 -0.293557 0.595584 0
M  V30 26 H 3.5091 -0.30159 2.02365 0
M  V30 27 H 3.5191 -2.38039 3.31363 0
M  V30 28 H 2.1941 -1.39851 3.91682 0
M  V30 29 H 0.7711 -2.67228 2.60084 0
M  V30 30 N 2.9562 -1.48159 -0.537278 0
M  V30 31 C 3.9032 -1.62138 -1.64256 0
M  V30 32 C 4.8732 -0.463668 -1.59497 0
M  V30 33 O 6.0582 -0.686241 -1.78032 0
M  V30 34 C 3.1982 -1.66028 -3.02537 0
M  V30 35 C 2.3112 -2.92855 -3.17585 0
M  V30 36 C 1.4462 -2.87952 -4.46382 0
M  V30 37 C 0.4852 -4.09516 -4.54932 0
M  V30 38 N -0.3778 -4.02733 -5.75109 0
M  V30 39 H 4.4622 -2.56529 -1.51647 0
M  V30 40 H 1.9992 -1.27224 -0.738414 0
M  V30 41 H 3.9572 -1.66265 -3.82638 0
M  V30 42 H 2.5872 -0.751331 -3.13934 0
M  V30 43 H 1.6392 -3.02395 -2.30784 0
M  V30 44 H 2.9512 -3.82822 -3.19764 0
M  V30 45 H 2.1052 -2.8655 -5.34765 0
M  V30 46 H 0.8442 -1.95702 -4.46712 0
M  V30 47 H -0.1508 -4.11201 -3.64957 0
M  V30 48 H 1.0742 -5.02917 -4.56346 0
M  V30 49 H -0.9798 -3.13299 -5.76351 0
M  V30 50 H -1.0628 -4.86397 -5.78752 0
M  V30 51 H 0.2052 -4.05379 -6.65799 0
M  V30 52 N 4.4343 0.785586 -1.36625 0
M  V30 53 C 5.8453 1.36101 -1.27803 0
M  V30 54 C 6.1963 1.96035 0.0804875 0
M  V30 55 O 5.3213 1.92834 0.982042 0
M  V30 56 C 5.9163 2.47442 -2.31426 0
M  V30 57 C 4.4753 3.00789 -2.26281 0
M  V30 58 C 3.6223 1.73896 -2.15999 0
M  V30 59 H 6.5733 0.586928 -1.47448 0
M  V30 60 H 6.5943 3.2656 -1.95291 0
M  V30 61 H 6.1063 2.03791 -3.30289 0
M  V30 62 H 4.2073 3.48851 -1.30896 0
M  V30 63 H 4.3203 3.57343 -3.19128 0
M  V30 64 H 2.6843 1.9628 -1.62316 0
M  V30 65 H 3.4673 1.32368 -3.16755 0
M  V30 66 N 5.9124 1.20967 1.01018 0
M  V30 67 C 6.8604 0.961223 2.1181 0
M  V30 68 C 7.8544 -0.0897034 1.69162 0
M  V30 69 O 9.0604 0.0612271 1.79896 0
M  V30 70 H 5.4354 0.29355 0.692338 0
M  V30 71 H 7.4064 1.90178 2.29946 0
M  V30 72 C 6.1554 0.536854 3.4353 0
M  V30 73 H 5.4784 1.33713 3.76777 0
M  V30 74 H 6.9184 0.402286 4.22087 0
M  V30 75 C 5.3774 -0.751574 3.2841 0
M  V30 76 O 5.9074 -1.80841 3.58691 0
M  V30 77 N 4.1134 -0.716079 2.81639 0
M  V30 78 H 3.6604 0.144236 2.57196 0
M  V30 79 H 3.6184 -1.57847 2.71904 0
M  V30 80 N 7.3905 -1.2043 1.01659 0
M  V30 81 C 8.6365 -1.90079 0.706963 0
M  V30 82 C 8.9695 -1.78648 -0.761474 0
M  V30 83 O 8.2445 -1.17069 -1.55323 0
M  V30 84 C 8.5275 -3.41469 1.14327 0
M  V30 85 C 8.3805 -3.61833 2.67201 0
M  V30 86 C 9.6995 -4.34261 0.714529 0
M  V30 87 H 6.8185 -0.690254 0.2583 0
M  V30 88 H 9.4605 -1.41826 1.26433 0
M  V30 89 H 7.6105 -3.82696 0.669056 0
M  V30 90 H 9.2825 -3.2986 3.22475 0
M  V30 91 H 7.5255 -3.05304 3.08175 0
M  V30 92 H 8.1965 -4.67955 2.92783 0
M  V30 93 H 10.6725 -4.00682 1.12221 0
M  V30 94 H 9.5485 -5.38806 1.04784 0
M  V30 95 H 9.8095 -4.40431 -0.383799 0
M  V30 96 N 8.8686 -0.792821 -1.36206 0
M  V30 97 C 9.8316 -0.199459 -2.2833 0
M  V30 98 C 10.8316 0.605189 -1.48977 0
M  V30 99 O 12.0216 0.425685 -1.68919 0
M  V30 100 C 9.1536 0.723523 -3.33134 0
M  V30 101 H 10.3466 -1.01181 -2.82316 0
M  V30 102 H 7.8996 -0.562485 -1.45828 0
M  V30 103 H 8.6346 1.56008 -2.84309 0
M  V30 104 H 8.4196 0.148436 -3.91819 0
M  V30 105 H 9.9096 1.13344 -4.01924 0
M  V30 106 N 10.3467 1.47872 -0.545128 0
M  V30 107 C 11.5957 2.01695 -0.0145033 0
M  V30 108 C 11.9087 1.42609 1.33873 0
M  V30 109 O 13.1147 1.88021 1.95858 0
M  V30 110 C 11.5707 3.59892 0.0245068 0
M  V30 111 C 11.1787 4.27966 -1.32475 0
M  V30 112 C 12.9227 4.21507 0.50316 0
M  V30 113 C 10.8297 5.78136 -1.2455 0
M  V30 114 H 9.7597 0.753998 -0.00165172 0
M  V30 115 H 12.4107 1.69985 -0.691175 0
M  V30 116 H 10.7927 3.88509 0.766575 0
M  V30 117 H 11.9667 4.11003 -2.08357 0
M  V30 118 H 10.2817 3.78286 -1.74036 0
M  V30 119 H 12.8787 5.31538 0.580656 0
M  V30 120 H 13.2217 3.87855 1.51243 0
M  V30 121 H 13.7547 3.97376 -0.183681 0
M  V30 122 H 10.4937 6.16388 -2.23039 0
M  V30 123 H 10.0137 5.97469 -0.528282 0
M  V30 124 H 11.6927 6.40099 -0.942488 0
M  V30 125 N 11.8248 0.280983 1.55075 0
M  V30 126 C 13.0738 -0.334784 1.98902 0
M  V30 127 C 13.3868 -1.56534 1.17288 0
M  V30 128 O 14.5928 -2.25443 1.51287 0
M  V30 129 C 13.0488 -0.646994 3.54037 0
M  V30 130 C 12.6568 0.564085 4.44435 0
M  V30 131 C 14.4008 -1.22506 4.06439 0
M  V30 132 C 12.3078 0.226137 5.90967 0
M  V30 133 H 11.2378 -0.128866 0.742906 0
M  V30 134 H 13.8888 0.386556 1.79382 0
M  V30 135 H 12.2708 -1.42739 3.6938 0
M  V30 136 H 13.4448 1.34082 4.40861 0
M  V30 137 H 11.7598 1.0594 4.02698 0
M  V30 138 H 14.3568 -1.49182 5.13468 0
M  V30 139 H 14.6998 -2.16085 3.55827 0
M  V30 140 H 15.2328 -0.50682 3.94558 0
M  V30 141 H 11.9718 1.12996 6.45687 0
M  V30 142 H 11.4918 -0.513717 5.97596 0
M  V30 143 H 13.1708 -0.179539 6.46751 0
M  V30 144 N 13.3029 -1.57598 0.00835791 0
M  V30 145 C 14.5489 -1.91211 -0.675732 0
M  V30 146 C 14.8819 -0.883139 -1.72958 0
M  V30 147 O 14.1569 0.097016 -1.94258 0
M  V30 148 C 14.4399 -3.35379 -1.31123 0
M  V30 149 C 14.2929 -4.48999 -0.268356 0
M  V30 150 C 15.6119 -3.7912 -2.23508 0
M  V30 151 H 12.7309 -0.695374 -0.244179 0
M  V30 152 H 15.3729 -1.89901 0.0613655 0
M  V30 153 H 13.5229 -3.36626 -1.93946 0
M  V30 154 H 15.1949 -4.59887 0.360844 0
M  V30 155 H 13.4379 -4.31873 0.408482 0
M  V30 156 H 14.1089 -5.46851 -0.752218 0
M  V30 157 H 16.5849 -3.79477 -1.70693 0
M  V30 158 H 15.4609 -4.80729 -2.64936 0
M  V30 159 H 15.7219 -3.13455 -3.11766 0
M  V30 160 N 14.781 0.264519 -1.55364 0
M  V30 161 C 15.744 1.31046 -1.88042 0
M  V30 162 C 16.744 1.41943 -0.755569 0
M  V30 163 O 17.934 1.40947 -1.02369 0
M  V30 164 C 15.066 2.69067 -2.09323 0
M  V30 165 H 16.259 1.03297 -2.81549 0
M  V30 166 H 13.812 0.502989 -1.47986 0
M  V30 167 H 14.547 3.01982 -1.18226 0
M  V30 168 H 14.332 2.62542 -2.91229 0
M  V30 169 H 15.822 3.44623 -2.35848 0
M  V30 170 N 16.2591 1.48442 0.529413 0
M  V30 171 C 17.2221 1.62524 1.61612 0
M  V30 172 C 18.2221 0.498509 1.52877 0
M  V30 173 O 19.4121 0.76431 1.56537 0
M  V30 174 C 16.5441 1.59597 3.01233 0
M  V30 175 H 17.7371 2.59423 1.50465 0
M  V30 176 H 15.2901 1.37047 0.751514 0
M  V30 177 H 16.0251 0.641781 3.17886 0
M  V30 178 H 15.8101 2.41397 3.08982 0
M  V30 179 H 17.3001 1.72646 3.80241 0
M  V30 180 N 17.7372 -0.778329 1.37039 0
M  V30 181 C 18.6672 -1.90546 1.34962 0
M  V30 182 C 19.6482 -1.68681 0.219274 0
M  V30 183 O 20.8332 -1.89634 0.418624 0
M  V30 184 C 17.9632 -3.27734 1.14925 0
M  V30 185 C 16.9172 -3.64147 2.24902 0
M  V30 186 C 16.2432 -4.99806 1.89996 0
M  V30 187 C 17.5432 -3.71579 3.67051 0
M  V30 188 H 19.2372 -1.92541 2.29277 0
M  V30 189 H 16.7832 -0.924948 1.10366 0
M  V30 190 H 18.7362 -4.06215 1.12104 0
M  V30 191 H 17.4602 -3.26154 0.170631 0
M  V30 192 H 16.1192 -2.8797 2.26868 0
M  V30 193 H 15.7672 -4.94759 0.906796 0
M  V30 194 H 15.4672 -5.25139 2.63634 0
M  V30 195 H 16.9912 -5.80694 1.88749 0
M  V30 196 H 18.4052 -4.40227 3.67251 0
M  V30 197 H 16.8022 -4.08405 4.39688 0
M  V30 198 H 17.8722 -2.72404 4.01154 0
M  V30 199 N 19.2153 -1.21501 -1.00376 0
M  V30 200 C 20.1623 -0.975387 -2.09177 0
M  V30 201 C 21.1323 0.0990615 -1.65804 0
M  V30 202 O 22.3173 -0.0483147 -1.90739 0
M  V30 203 C 19.4573 -0.547507 -3.40729 0
M  V30 204 C 18.5703 -1.69153 -3.97506 0
M  V30 205 C 17.7053 -1.2127 -5.17172 0
M  V30 206 C 16.7443 -2.32897 -5.66061 0
M  V30 207 N 15.8813 -1.86138 -6.76976 0
M  V30 208 H 20.7213 -1.9068 -2.29009 0
M  V30 209 H 18.2583 -0.950257 -1.12288 0
M  V30 210 H 20.2163 -0.280667 -4.16255 0
M  V30 211 H 18.8463 0.346904 -3.20931 0
M  V30 212 H 17.8983 -2.07298 -3.18954 0
M  V30 213 H 19.2103 -2.5316 -4.29781 0
M  V30 214 H 18.3643 -0.902591 -5.99948 0
M  V30 215 H 17.1033 -0.342692 -4.86495 0
M  V30 216 H 16.1083 -2.64709 -4.81881 0
M  V30 217 H 17.3333 -3.20396 -5.98768 0
M  V30 218 H 15.2793 -1.01484 -6.48103 0
M  V30 219 H 15.1963 -2.63717 -7.08512 0
M  V30 220 H 16.4643 -1.58165 -7.63285 0
M  V30 221 N 20.6934 1.19889 -1.02296 0
M  V30 222 C 22.1044 1.71124 -0.746568 0
M  V30 223 C 22.4554 1.81939 0.734335 0
M  V30 224 O 21.5804 1.48639 1.57275 0
M  V30 225 C 22.1754 3.10804 -1.34857 0
M  V30 226 C 20.7344 3.59323 -1.1209 0
M  V30 227 C 19.8814 2.3635 -1.45031 0
M  V30 228 H 22.8324 1.04813 -1.19163 0
M  V30 229 H 22.8534 3.73186 -0.742437 0
M  V30 230 H 22.3654 3.029 -2.42638 0
M  V30 231 H 20.4664 3.7255 -0.0610337 0
M  V30 232 H 20.5794 4.4378 -1.80544 0
M  V30 233 H 18.9434 2.39399 -0.869487 0
M  V30 234 H 19.7264 2.31081 -2.53883 0
M  V30 235 N 22.1715 0.800033 1.35784 0
M  V30 236 C 23.1345 0.211565 2.28221 0
M  V30 237 C 24.1345 -0.59728 1.49296 0
M  V30 238 O 25.3245 -0.416721 1.69142 0
M  V30 239 C 22.4565 -0.705846 3.33513 0
M  V30 240 H 23.6495 1.02677 2.81776 0
M  V30 241 H 21.2025 0.570211 1.45528 0
M  V30 242 H 21.9375 -1.54498 2.85133 0
M  V30 243 H 21.7225 -0.127655 3.91892 0
M  V30 244 H 23.2125 -1.11211 4.02519 0
M  V30 245 N 23.6496 -1.47581 0.552962 0
M  V30 246 C 24.5796 -2.32762 -0.185451 0
M  V30 247 C 25.5606 -1.43527 -0.912905 0
M  V30 248 O 26.7456 -1.72388 -0.894201 0
M  V30 249 C 23.8756 -3.25219 -1.21859 0
M  V30 250 C 22.8296 -4.23661 -0.607864 0
M  V30 251 C 22.1556 -5.05413 -1.74533 0
M  V30 252 C 23.4556 -5.20481 0.435582 0
M  V30 253 H 25.1496 -2.94749 0.525684 0
M  V30 254 H 22.6956 -1.41738 0.254251 0
M  V30 255 H 24.6486 -3.8365 -1.7433 0
M  V30 256 H 23.3726 -2.61279 -1.95961 0
M  V30 257 H 22.0316 -3.66451 -0.104489 0
M  V30 258 H 21.6796 -4.3788 -2.47529 0
M  V30 259 H 21.3796 -5.72059 -1.34249 0
M  V30 260 H 22.9036 -5.66701 -2.27338 0
M  V30 261 H 24.3176 -5.733 -0.00290157 0
M  V30 262 H 22.7146 -5.95305 0.757067 0
M  V30 263 H 23.7846 -4.66217 1.33303 0
M  V30 264 N 25.1277 -0.289203 -1.54924 0
M  V30 265 C 26.3757 0.322879 -1.99504 0
M  V30 266 C 26.6967 1.55313 -1.1791 0
M  V30 267 O 25.9667 1.94001 -0.272097 0
M  V30 268 H 24.5467 0.122291 -0.736922 0
M  V30 269 H 27.2087 -0.397802 -1.90797 0
M  V30 270 H 26.3047 0.603061 -3.06218 0
M  V30 271 N 26.6058 1.57591 -0.0167156 0
M  V30 272 C 27.8548 1.90461 0.663877 0
M  V30 273 C 28.1678 0.893515 1.73999 0
M  V30 274 O 29.3738 1.11302 2.47637 0
M  V30 275 C 27.8298 3.38155 1.23204 0
M  V30 276 C 27.4378 4.47597 0.189866 0
M  V30 277 C 29.1818 3.80111 1.88986 0
M  V30 278 C 27.0888 5.86379 0.768964 0
M  V30 279 H 26.0188 0.710738 0.251729 0
M  V30 280 H 28.6698 1.83326 -0.0799926 0
M  V30 281 H 27.0518 3.40182 2.02712 0
M  V30 282 H 28.2258 4.57112 -0.581846 0
M  V30 283 H 26.5408 4.14766 -0.368475 0
M  V30 284 H 29.1378 4.81145 2.33247 0
M  V30 285 H 29.4808 3.14511 2.72743 0
M  V30 286 H 30.0138 3.80454 1.16187 0
M  V30 287 H 26.7528 6.55493 -0.0301957 0
M  V30 288 H 26.2728 5.80496 1.50945 0
M  V30 289 H 27.9518 6.34563 1.26251 0
M  V30 290 N 28.0839 -0.256276 1.55502 0
M  V30 291 C 29.3319 -0.983672 1.76545 0
M  V30 292 C 29.6529 -1.86206 0.578982 0
M  V30 293 O 28.9229 -1.91656 -0.405577 0
M  V30 294 H 27.5029 -0.366191 0.651086 0
M  V30 295 H 30.1649 -0.276479 1.92929 0
M  V30 296 H 29.2609 -1.61087 2.67315 0
M  V30 297 N 29.562 -1.4872 -0.521534 0
M  V30 298 C 30.792 -1.6061 -1.29954 0
M  V30 299 C 31.2 -0.268728 -1.87282 0
M  V30 300 O 30.543 0.753221 -1.67548 0
M  V30 301 C 30.605 -2.60013 -2.48261 0
M  V30 302 C 30.269 -4.04874 -2.11957 0
M  V30 303 C 31.266 -4.92304 -1.67132 0
M  V30 304 C 28.951 -4.5047 -2.22221 0
M  V30 305 C 30.945 -6.2336 -1.33047 0
M  V30 306 C 28.632 -5.81544 -1.87748 0
M  V30 307 C 29.63 -6.67812 -1.43234 0
M  V30 308 O 29.318 -7.96446 -1.09217 0
M  V30 309 H 29.05 -0.544116 -0.401141 0
M  V30 310 H 31.604 -1.95339 -0.634958 0
M  V30 311 H 29.834 -2.20422 -3.17728 0
M  V30 312 H 31.523 -2.61648 -3.10315 0
M  V30 313 H 32.289 -4.58312 -1.58665 0
M  V30 314 H 28.168 -3.83504 -2.55823 0
M  V30 315 H 31.712 -6.90649 -0.982299 0
M  V30 316 H 27.609 -6.15069 -1.95858 0
M  V30 317 H 28.377 -8.09275 -1.22542 0
M  V30 318 N 31.0401 0.771051 -1.3745 0
M  V30 319 C 31.9871 1.88435 -1.3327 0
M  V30 320 C 32.9571 1.64914 -0.198136 0
M  V30 321 O 34.1421 1.86821 -0.387606 0
M  V30 322 C 31.2821 3.25509 -1.14622 0
M  V30 323 C 30.3951 3.60979 -2.37314 0
M  V30 324 C 29.5301 4.87265 -2.11533 0
M  V30 325 C 28.5691 5.15469 -3.30088 0
M  V30 326 N 27.7061 6.32944 -3.03853 0
M  V30 327 H 32.5461 1.91344 -2.28455 0
M  V30 328 H 30.0831 0.935466 -1.13523 0
M  V30 329 H 32.0411 4.04582 -1.01831 0
M  V30 330 H 30.6711 3.21974 -0.230837 0
M  V30 331 H 29.7231 2.76885 -2.60842 0
M  V30 332 H 31.0351 3.77759 -3.25729 0
M  V30 333 H 30.1891 5.74244 -1.95777 0
M  V30 334 H 28.9281 4.7259 -1.20457 0
M  V30 335 H 27.9331 4.26966 -3.46382 0
M  V30 336 H 29.1581 5.32052 -4.22016 0
M  V30 337 H 27.1041 6.19625 -2.15407 0
M  V30 338 H 27.0211 6.50143 -3.85812 0
M  V30 339 H 28.2891 7.22857 -2.91716 0
M  V30 340 N 32.5182 1.22032 0.997298 0
M  V30 341 C 33.7662 1.04016 1.73278 0
M  V30 342 C 34.0872 -0.426255 1.90284 0
M  V30 343 O 33.3572 -1.30694 1.45931 0
M  V30 344 H 31.9372 0.381897 0.642 0
M  V30 345 H 34.5992 1.5347 1.20137 0
M  V30 346 H 33.6952 1.51441 2.72896 0
M  V30 347 N 33.9963 -1.19345 1.0293 0
M  V30 348 C 34.9433 -2.2258 0.610464 0
M  V30 349 C 35.9133 -1.6179 -0.375946 0
M  V30 350 O 37.0983 -1.88844 -0.272511 0
M  V30 351 C 34.2383 -3.45085 -0.0321473 0
M  V30 352 C 33.3513 -4.20258 1.00035 0
M  V30 353 C 32.4863 -5.3019 0.32746 0
M  V30 354 C 31.5253 -5.97121 1.34584 0
M  V30 355 N 30.6623 -6.98615 0.698726 0
M  V30 356 H 35.5023 -2.57764 1.49538 0
M  V30 357 H 33.0393 -1.26644 0.748311 0
M  V30 358 H 34.9973 -4.15061 -0.421966 0
M  V30 359 H 33.6273 -3.10555 -0.88064 0
M  V30 360 H 32.6793 -3.49223 1.50823 0
M  V30 361 H 33.9913 -4.66175 1.77433 0
M  V30 362 H 33.1453 -6.06587 -0.11718 0
M  V30 363 H 31.8843 -4.85345 -0.478713 0
M  V30 364 H 30.8893 -5.19474 1.80074 0
M  V30 365 H 32.1143 -6.4405 2.15352 0
M  V30 366 H 30.0603 -6.55942 -0.0873471 0
M  V30 367 H 29.9773 -7.42724 1.41058 0
M  V30 368 H 31.2453 -7.79004 0.278102 0
M  V30 369 N 35.4744 -0.807222 -1.35358 0
M  V30 370 C 36.4074 -0.163572 -2.27613 0
M  V30 371 C 37.3854 0.670817 -1.48118 0
M  V30 372 O 38.5694 0.63796 -1.77376 0
M  V30 373 C 35.6964 0.773015 -3.29761 0
M  V30 374 C 34.7424 0.0181653 -4.26496 0
M  V30 375 S 35.5754 -1.31831 -5.19019 0
M  V30 376 C 36.7314 -0.38619 -6.24707 0
M  V30 377 H 36.9644 -0.945757 -2.81856 0
M  V30 378 H 34.4974 -0.602315 -1.42167 0
M  V30 379 H 36.4554 1.30788 -3.89108 0
M  V30 380 H 35.1164 1.52859 -2.74396 0
M  V30 381 H 34.3094 0.729534 -4.98692 0
M  V30 382 H 33.9114 -0.446761 -3.71322 0
M  V30 383 H 36.2034 0.428295 -6.76145 0
M  V30 384 H 37.1464 -1.07736 -6.99856 0
M  V30 385 H 37.5544 0.018398 -5.64497 0
M  V30 386 N 36.9525 1.47285 -0.560781 0
M  V30 387 C 38.3635 1.86258 -0.128343 0
M  V30 388 C 38.7145 1.46699 1.30284 0
M  V30 389 O 37.8395 0.871698 1.98067 0
M  V30 390 C 38.4345 3.38044 -0.22614 0
M  V30 391 C 36.9935 3.76096 0.151283 0
M  V30 392 C 36.1405 2.71335 -0.572084 0
M  V30 393 H 39.0915 1.38752 -0.770297 0
M  V30 394 H 39.1125 3.76441 0.554322 0
M  V30 395 H 38.6245 3.66806 -1.26788 0
M  V30 396 H 36.7255 3.52951 1.19399 0
M  V30 397 H 36.8385 4.78641 -0.209765 0
M  V30 398 H 35.2025 2.54696 -0.0147653 0
M  V30 399 H 35.9855 3.02938 -1.61504 0
M  V30 400 N 38.4306 0.297415 1.54768 0
M  V30 401 C 39.6766 -0.306263 2.01081 0
M  V30 402 C 40.0316 -1.518 1.18214 0
M  V30 403 O 39.3246 -1.89967 0.249613 0
M  V30 404 C 39.5186 -0.717561 3.50123 0
M  V30 405 C 39.3476 0.45277 4.47415 0
M  V30 406 C 38.1176 0.943651 4.9641 0
M  V30 407 C 40.3156 1.29657 4.97688 0
M  V30 408 N 38.2976 2.08112 5.77549 0
M  V30 409 C 39.6686 2.28158 5.76493 0
M  V30 410 C 41.7236 1.32735 4.79881 0
M  V30 411 C 40.4266 3.29509 6.39387 0
M  V30 412 C 42.4526 2.32943 5.43591 0
M  V30 413 C 41.8146 3.30174 6.22225 0
M  V30 414 H 37.9136 -0.0766274 0.778237 0
M  V30 415 H 40.4976 0.426515 1.89971 0
M  V30 416 H 38.6686 -1.41952 3.6153 0
M  V30 417 H 40.4006 -1.30047 3.83236 0
M  V30 418 H 37.1556 0.51922 4.70745 0
M  V30 419 H 37.5796 2.65414 6.22803 0
M  V30 420 H 42.2216 0.589375 4.18672 0
M  V30 421 H 39.9396 4.04228 6.99732 0
M  V30 422 H 43.5256 2.36094 5.31743 0
M  V30 423 H 42.4056 4.06445 6.7065 0
M  V30 424 N 39.9087 -1.5758 0.0250728 0
M  V30 425 C 41.3247 -1.56124 -0.331282 0
M  V30 426 C 41.5247 -1.03029 -1.73169 0
M  V30 427 O 40.5807 -0.675215 -2.43305 0
M  V30 428 C 41.8937 -3.00139 -0.183584 0
M  V30 429 C 43.4417 -3.11946 -0.256654 0
M  V30 430 C 43.9167 -4.57793 -0.137792 0
M  V30 431 N 45.4077 -4.6279 -0.194904 0
M  V30 432 C 46.1427 -5.7326 -0.126655 0
M  V30 433 N 45.6387 -6.928 -0.00755288 0
M  V30 434 N 47.4317 -5.61811 -0.180348 0
M  V30 435 H 39.5827 -1.90424 0.94087 0
M  V30 436 H 41.8457 -0.875761 0.362968 0
M  V30 437 H 41.5517 -3.4292 0.780927 0
M  V30 438 H 41.4257 -3.64899 -0.955448 0
M  V30 439 H 43.8127 -2.69079 -1.21162 0
M  V30 440 H 43.8937 -2.49915 0.545517 0
M  V30 441 H 43.5377 -5.01339 0.813739 0
M  V30 442 H 43.4677 -5.17798 -0.958775 0
M  V30 443 H 45.9587 -3.76807 -0.287267 0
M  V30 444 H 46.2717 -7.72791 0.0379428 0
M  V30 445 H 44.6167 -6.94995 0.0271731 0
M  V30 446 H 47.8077 -4.6731 -0.271767 0
M  V30 447 H 47.9807 -6.47882 -0.123697 0
M  V30 448 N 41.3868 0.248026 -1.55636 0
M  V30 449 C 42.3168 1.31079 -1.93237 0
M  V30 450 C 43.2978 1.50264 -0.797174 0
M  V30 451 O 44.4828 1.62891 -1.05737 0
M  V30 452 C 41.6128 2.66575 -2.22609 0
M  V30 453 C 40.5668 2.62087 -3.3837 0
M  V30 454 C 39.8928 4.01369 -3.53281 0
M  V30 455 C 41.1928 2.19171 -4.7409 0
M  V30 456 H 42.8868 0.998556 -2.82257 0
M  V30 457 H 40.4328 0.47891 -1.35803 0
M  V30 458 H 42.3858 3.41057 -2.47503 0
M  V30 459 H 41.1098 2.99432 -1.30414 0
M  V30 460 H 39.7688 1.90063 -3.13483 0
M  V30 461 H 39.4168 4.31489 -2.58508 0
M  V30 462 H 39.1168 3.99254 -4.31127 0
M  V30 463 H 40.6408 4.77552 -3.80495 0
M  V30 464 H 42.0548 2.83384 -4.98363 0
M  V30 465 H 40.4518 2.2817 -5.5503 0
M  V30 466 H 41.5218 1.14336 -4.71227 0
M  V30 467 N 42.8649 1.48995 0.513639 0
M  V30 468 C 44.2809 1.35478 0.843682 0
M  V30 469 C 44.4809 0.378213 1.97919 0
M  V30 470 O 43.5369 -0.194689 2.51748 0
M  V30 471 C 44.8499 2.75901 1.1958 0
M  V30 472 C 46.3979 2.84509 1.30474 0
M  V30 473 C 46.8729 4.25671 1.69021 0
M  V30 474 N 48.3639 4.28422 1.76094 0
M  V30 475 C 49.0989 5.34601 2.07338 0
M  V30 476 N 48.5949 6.5104 2.36894 0
M  V30 477 N 50.3879 5.22007 2.08483 0
M  V30 478 H 42.5389 2.11092 -0.235328 0
M  V30 479 H 44.8019 0.947039 -0.0426669 0
M  V30 480 H 44.5079 3.49001 0.434913 0
M  V30 481 H 44.3819 3.10467 2.1422 0
M  V30 482 H 46.7689 2.11655 2.05637 0
M  V30 483 H 46.8499 2.53542 0.339155 0
M  V30 484 H 46.4939 4.99048 0.944135 0
M  V30 485 H 46.4239 4.54094 2.66658 0
M  V30 486 H 48.9149 3.44441 1.55464 0
M  V30 487 H 49.2279 7.2779 2.59887 0
M  V30 488 H 47.5729 6.54287 2.34378 0
M  V30 489 H 50.7639 4.30051 1.84861 0
M  V30 490 H 50.9369 6.04854 2.325 0
M  V30 491 N 44.343 -0.763751 1.37857 0
M  V30 492 C 45.29 -1.87726 1.34267 0
M  V30 493 C 46.26 -1.64807 0.206879 0
M  V30 494 O 47.445 -1.86613 0.397508 0
M  V30 495 C 44.585 -3.24896 1.16346 0
M  V30 496 C 43.698 -3.59716 2.39225 0
M  V30 497 C 42.833 -4.86137 2.14114 0
M  V30 498 C 41.872 -5.13711 3.32817 0
M  V30 499 N 41.009 -6.31323 3.07206 0
M  V30 500 H 45.849 -1.90129 2.29466 0
M  V30 501 H 43.386 -0.929433 1.14017 0
M  V30 502 H 45.344 -4.04036 1.03975 0
M  V30 503 H 43.974 -3.21847 0.247909 0
M  V30 504 H 43.026 -2.75498 2.62307 0
M  V30 505 H 44.338 -3.76027 3.27728 0
M  V30 506 H 43.492 -5.73198 1.9882 0
M  V30 507 H 42.231 -4.71945 1.22961 0
M  V30 508 H 41.236 -4.25123 3.48641 0
M  V30 509 H 42.461 -5.29807 4.24832 0
M  V30 510 H 40.407 -6.18474 2.1869 0
M  V30 511 H 40.324 -6.48087 3.89254 0
M  V30 512 H 41.592 -7.213 2.95546 0
M  V30 513 N 45.8211 -1.22559 -0.990812 0
M  V30 514 C 46.7311 -1.01394 -2.11557 0
M  V30 515 C 47.7471 0.0383962 -1.73958 0
M  V30 516 O 48.9231 -0.154787 -2.00804 0
M  V30 517 C 45.9881 -0.596569 -3.41529 0
M  V30 518 C 45.0491 -1.72276 -3.93217 0
M  V30 519 C 44.2821 -1.32521 -5.16985 0
M  V30 520 O 44.5051 -0.204909 -5.70032 0
M  V30 521 O 43.4391 -2.14247 -5.62478 0
M  V30 522 H 47.2651 -1.95633 -2.32296 0
M  V30 523 H 44.8501 -1.01172 -1.0993 0
M  V30 524 H 46.7321 -0.374263 -4.19735 0
M  V30 525 H 45.4071 0.316939 -3.22145 0
M  V30 526 H 44.3141 -1.99961 -3.16174 0
M  V30 527 H 45.6471 -2.61421 -4.17037 0
M  V30 528 N 47.2992 1.18797 -1.03562 0
M  V30 529 C 48.5482 1.87978 -0.731235 0
M  V30 530 C 48.8612 1.80911 0.743671 0
M  V30 531 O 50.0672 2.45407 1.16137 0
M  V30 532 C 48.5232 3.3721 -1.25768 0
M  V30 533 C 48.1312 3.52818 -2.76085 0
M  V30 534 C 49.8752 4.11825 -1.0296 0
M  V30 535 C 47.7822 4.9598 -3.22114 0
M  V30 536 H 46.7122 0.704063 -0.269835 0
M  V30 537 H 49.3632 1.34266 -1.25079 0
M  V30 538 H 47.7452 3.90359 -0.666011 0
M  V30 539 H 48.9192 3.09965 -3.40966 0
M  V30 540 H 47.2342 2.91602 -2.97249 0
M  V30 541 H 49.8312 5.17411 -1.34869 0
M  V30 542 H 50.1742 4.16287 0.0333546 0
M  V30 543 H 50.7072 3.64833 -1.58562 0
M  V30 544 H 47.4462 4.96684 -4.27768 0
M  V30 545 H 46.9662 5.39569 -2.61965 0
M  V30 546 H 48.6452 5.6467 -3.15844 0
M  V30 547 N 48.7773 0.814389 1.34928 0
M  V30 548 C 50.1933 0.499084 1.51596 0
M  V30 549 C 50.3933 -0.978319 1.76157 0
M  V30 550 O 49.4493 -1.76309 1.80752 0
M  V30 551 C 50.7623 1.35121 2.68631 0
M  V30 552 C 52.3103 1.34746 2.82511 0
M  V30 553 C 52.7853 2.18388 4.0258 0
M  V30 554 N 54.2763 2.15966 4.09772 0
M  V30 555 C 55.0113 2.77437 5.01813 0
M  V30 556 N 54.5073 3.47866 5.99134 0
M  V30 557 N 56.3003 2.67037 4.94619 0
M  V30 558 H 48.4513 1.7711 1.17243 0
M  V30 559 H 50.7143 0.754256 0.574284 0
M  V30 560 H 50.4203 2.40001 2.57085 0
M  V30 561 H 50.2943 1.00991 3.63429 0
M  V30 562 H 52.6813 0.30648 2.93504 0
M  V30 563 H 52.7623 1.72869 1.88547 0
M  V30 564 H 52.4063 3.2253 3.92347 0
M  V30 565 H 52.3363 1.77621 4.9574 0
M  V30 566 H 54.8273 1.64729 3.40107 0
M  V30 567 H 55.1403 3.92038 6.65977 0
M  V30 568 H 53.4853 3.51972 5.99284 0
M  V30 569 H 56.6763 2.11597 4.17546 0
M  V30 570 H 56.8493 3.15232 5.66156 0
M  V30 571 N 50.2554 -1.46986 0.568584 0
M  V30 572 C 51.4854 -2.0653 0.0539173 0
M  V30 573 C 51.8934 -1.42004 -1.25026 0
M  V30 574 O 51.2364 -0.514541 -1.76347 0
M  V30 575 C 51.2984 -3.58938 -0.200854 0
M  V30 576 C 50.9624 -4.45572 1.01559 0
M  V30 577 C 51.9594 -4.82986 1.92407 0
M  V30 578 C 49.6444 -4.8692 1.23346 0
M  V30 579 C 51.6384 -5.60559 3.03402 0
M  V30 580 C 49.3254 -5.64255 2.34649 0
M  V30 581 C 50.3234 -6.00986 3.24507 0
M  V30 582 O 50.0114 -6.76761 4.33878 0
M  V30 583 H 49.7434 -0.674292 0.0480234 0
M  V30 584 H 52.2974 -1.89812 0.784896 0
M  V30 585 H 50.5274 -3.73911 -0.986279 0
M  V30 586 H 52.2164 -4.0046 -0.662294 0
M  V30 587 H 52.9824 -4.51633 1.76785 0
M  V30 588 H 48.8614 -4.57789 0.543178 0
M  V30 589 H 52.4054 -5.89147 3.73565 0
M  V30 590 H 48.3024 -5.95021 2.5024 0
M  V30 591 H 49.0704 -6.95168 4.32068 0
M  V30 592 N 51.7335 -0.305618 -1.54608 0
M  V30 593 C 52.9805 0.302298 -2.00231 0
M  V30 594 C 53.3085 1.5354 -1.19398 0
M  V30 595 O 52.5635 1.93973 -0.259423 0
M  V30 596 C 52.8625 0.698983 -3.50498 0
M  V30 597 C 52.5285 -0.432903 -4.48817 0
M  V30 598 C 51.1905 -0.743622 -4.75419 0
M  V30 599 C 53.5425 -1.19409 -5.07337 0
M  V30 600 C 50.8705 -1.81857 -5.57804 0
M  V30 601 C 53.2225 -2.25899 -5.90891 0
M  V30 602 C 51.8865 -2.57572 -6.15803 0
M  V30 603 H 51.1565 0.110619 -0.732697 0
M  V30 604 H 53.8035 -0.425674 -1.86709 0
M  V30 605 H 52.1085 1.50711 -3.61654 0
M  V30 606 H 53.8055 1.1806 -3.83227 0
M  V30 607 H 50.3955 -0.18063 -4.28219 0
M  V30 608 H 54.5795 -0.967295 -4.86782 0
M  V30 609 H 49.8355 -2.06864 -5.75341 0
M  V30 610 H 54.0095 -2.85335 -6.35261 0
M  V30 611 H 51.6365 -3.40998 -6.7943 0
M  V30 612 N 53.2116 1.57565 -0.0334293 0
M  V30 613 C 54.1586 2.10478 0.946981 0
M  V30 614 C 55.1286 1.00787 1.32027 0
M  V30 615 O 56.3136 1.28232 1.41284 0
M  V30 616 C 53.4536 2.63994 2.22263 0
M  V30 617 C 52.5666 3.87709 1.90541 0
M  V30 618 C 51.7016 4.29604 3.12433 0
M  V30 619 C 50.7406 5.46065 2.76549 0
M  V30 620 N 49.8776 5.83096 3.9108 0
M  V30 621 H 54.7176 2.93963 0.488846 0
M  V30 622 H 52.2546 1.45296 0.22969 0
M  V30 623 H 54.2126 2.93114 2.96884 0
M  V30 624 H 52.8426 1.83333 2.65685 0
M  V30 625 H 51.8946 3.65291 1.06144 0
M  V30 626 H 53.2066 4.72403 1.60116 0
M  V30 627 H 52.3606 4.60182 3.9537 0
M  V30 628 H 51.0996 3.43685 3.46023 0
M  V30 629 H 50.1046 5.15176 1.92026 0
M  V30 630 H 51.3296 6.33685 2.44171 0
M  V30 631 H 49.2756 5.00132 4.24504 0
M  V30 632 H 49.1926 6.6244 3.64293 0
M  V30 633 H 50.4606 6.18282 4.74708 0
M  V30 634 N 54.6897 -0.239769 1.55765 0
M  V30 635 C 55.9667 -0.990056 1.68693 0
M  V30 636 C 56.3467 -2.03107 0.5754 0
M  V30 637 O 55.6947 -2.24604 -0.42017 0
M  V30 638 C 55.9047 -1.61696 3.09282 0
M  V30 639 C 57.2527 -2.11613 3.6811 0
M  V30 640 O 58.2767 -1.71624 3.12127 0
M  V30 641 O 57.1357 -2.85057 4.66267 0
M  V30 642 H 54.2297 -0.461299 0.686391 0
M  V30 643 H 56.7757 -0.232991 1.68093 0
M  V30 644 H 55.5477 -0.864357 3.81634 0
M  V30 645 H 55.1707 -2.44005 3.13923 0
M  V30 646 N 56.1678 -1.49265 -0.50573 0
M  V30 647 C 57.4138 -1.58748 -1.26202 0
M  V30 648 C 57.7468 -0.271227 -1.92297 0
M  V30 649 O 57.0218 0.724831 -1.80489 0
M  V30 650 C 57.3048 -2.74332 -2.33268 0
M  V30 651 C 57.1578 -4.15737 -1.71705 0
M  V30 652 C 58.4768 -2.85576 -3.34865 0
M  V30 653 H 55.5958 -0.577826 -0.457478 0
M  V30 654 H 58.2378 -1.81532 -0.560897 0
M  V30 655 H 56.3878 -2.55036 -2.93068 0
M  V30 656 H 58.0598 -4.46537 -1.15769 0
M  V30 657 H 56.3028 -4.21605 -1.02135 0
M  V30 658 H 56.9738 -4.92477 -2.49341 0
M  V30 659 H 59.4498 -3.03127 -2.8505 0
M  V30 660 H 58.3258 -3.68135 -4.07146 0
M  V30 661 H 58.5868 -1.94732 -3.96903 0
M  V30 662 N 57.6459 0.756429 -1.3826 0
M  V30 663 C 58.8739 1.54565 -1.3754 0
M  V30 664 C 59.2889 1.88767 0.0355331 0
M  V30 665 O 58.6459 1.52572 1.0014 0
M  V30 666 C 58.6969 2.84654 -2.22833 0
M  V30 667 O 58.4179 2.51912 -3.5843 0
M  V30 668 C 59.9189 3.78807 -2.30261 0
M  V30 669 H 57.1389 0.478353 -0.470553 0
M  V30 670 H 59.6829 0.936381 -1.81803 0
M  V30 671 H 57.8379 3.41965 -1.8204 0
M  V30 672 H 58.2519 3.35325 -4.03308 0
M  V30 673 H 59.7259 4.67045 -2.94233 0
M  V30 674 H 60.2029 4.19038 -1.31545 0
M  V30 675 H 60.8089 3.2742 -2.71433 0
M  V30 676 N 59.124 1.23083 0.984299 0
M  V30 677 C 60.352 1.08714 1.76037 0
M  V30 678 C 60.767 -0.361691 1.85303 0
M  V30 679 O 60.124 -1.25034 1.32939 0
M  V30 680 C 60.175 1.70206 3.18923 0
M  V30 681 O 59.896 3.09423 3.10144 0
M  V30 682 C 61.397 1.61227 4.12941 0
M  V30 683 H 58.617 0.380664 0.552572 0
M  V30 684 H 61.161 1.62853 1.23689 0
M  V30 685 H 59.316 1.20109 3.6831 0
M  V30 686 H 59.73 3.39188 4.00065 0
M  V30 687 H 61.204 2.08962 5.10919 0
M  V30 688 H 61.681 0.570375 4.35481 0
M  V30 689 H 62.287 2.10671 3.69456 0
M  V30 690 N 60.6021 -1.18246 1.0419 0
M  V30 691 C 62.0181 -1.40269 0.761366 0
M  V30 692 C 62.2181 -1.90777 -0.648578 0
M  V30 693 O 61.2741 -2.0929 -1.41258 0
M  V30 694 C 62.5871 -2.40237 1.8085 0
M  V30 695 C 64.1351 -2.53961 1.82955 0
M  V30 696 C 64.6101 -3.57194 2.86664 0
M  V30 697 N 66.1011 -3.64702 2.85563 0
M  V30 698 C 66.8361 -4.44309 3.6246 0
M  V30 699 N 66.3321 -5.27514 4.49111 0
M  V30 700 N 68.1251 -4.39084 3.50944 0
M  V30 701 H 60.2761 -0.837882 1.95175 0
M  V30 702 H 62.5391 -0.430608 0.84456 0
M  V30 703 H 62.2451 -2.10176 2.81991 0
M  V30 704 H 62.1191 -3.39601 1.64168 0
M  V30 705 H 64.5061 -2.83338 0.824855 0
M  V30 706 H 64.5871 -1.54706 2.03715 0
M  V30 707 H 64.2311 -3.28558 3.87314 0
M  V30 708 H 64.1611 -4.5613 2.6316 0
M  V30 709 H 66.6521 -3.05289 2.22727 0
M  V30 710 H 66.9651 -5.85411 5.04493 0
M  V30 711 H 65.3101 -5.2693 4.53178 0
M  V30 712 H 68.5011 -3.7313 2.82651 0
M  V30 713 H 68.6741 -5.00883 4.11121 0
M  V30 714 N 62.0802 -0.821533 -1.34494 0
M  V30 715 C 63.3082 -0.421884 -2.02553 0
M  V30 716 C 63.7232 0.971745 -1.61872 0
M  V30 717 O 63.0802 1.62864 -0.823496 0
M  V30 718 C 63.1312 -0.51285 -3.57844 0
M  V30 719 O 62.8522 -1.85155 -3.97051 0
M  V30 720 C 64.3532 -0.107921 -4.43169 0
M  V30 721 H 61.5732 -0.169482 -0.649243 0
M  V30 722 H 64.1172 -1.1093 -1.71798 0
M  V30 723 H 62.2722 0.126474 -3.87193 0
M  V30 724 H 62.6862 -1.82482 -4.91732 0
M  V30 725 H 64.1602 -0.222657 -5.51551 0
M  V30 726 H 64.6372 0.948401 -4.28838 0
M  V30 727 H 65.2432 -0.720989 -4.19144 0
M  V30 728 N 63.5583 1.46682 -0.576371 0
M  V30 729 C 64.7863 2.06798 -0.0649635 0
M  V30 730 C 65.2013 1.42612 1.23723 0
M  V30 731 O 64.5583 0.529203 1.74659 0
M  V30 732 C 64.6093 3.6132 0.114202 0
M  V30 733 O 64.3303 4.23104 -1.13644 0
M  V30 734 C 65.8313 4.38349 0.66069 0
M  V30 735 H 63.0513 0.668778 -0.0545616 0
M  V30 736 H 65.5953 1.88404 -0.795237 0
M  V30 737 H 63.7503 3.79162 0.794673 0
M  V30 738 H 64.1643 5.15894 -0.946253 0
M  V30 739 H 65.6383 5.47081 0.73526 0
M  V30 740 H 66.1153 4.05953 1.67627 0
M  V30 741 H 66.7213 4.25297 0.0152951 0
M  V30 742 N 65.0364 0.313813 1.54444 0
M  V30 743 C 65.9834 -0.55655 2.23989 0
M  V30 744 C 66.9534 -1.11943 1.22711 0
M  V30 745 O 68.1384 -1.16158 1.51367 0
M  V30 746 C 65.2784 -1.71635 2.99392 0
M  V30 747 C 64.3914 -1.18364 4.15468 0
M  V30 748 C 63.5264 -2.30834 4.78424 0
M  V30 749 C 62.5654 -1.74762 5.86622 0
M  V30 750 N 61.7024 -2.80855 6.43479 0
M  V30 751 H 66.5424 0.0430893 2.97969 0
M  V30 752 H 64.0794 0.0330359 1.47063 0
M  V30 753 H 66.0374 -2.39868 3.41349 0
M  V30 754 H 64.6674 -2.28742 2.27765 0
M  V30 755 H 63.7194 -0.393163 3.78363 0
M  V30 756 H 65.0314 -0.733262 4.93381 0
M  V30 757 H 64.1854 -3.0699 5.23299 0
M  V30 758 H 62.9244 -2.79204 3.99871 0
M  V30 759 H 61.9294 -0.970995 5.41158 0
M  V30 760 H 63.1544 -1.2728 6.67066 0
M  V30 761 H 61.1004 -3.28535 5.67804 0
M  V30 762 H 61.0174 -2.40351 7.16776 0
M  V30 763 H 62.2854 -3.5687 6.93011 0
M  V30 764 N 66.5145 -1.57545 0.0417849 0
M  V30 765 C 67.9255 -1.80011 -0.495259 0
M  V30 766 C 68.2765 -0.953199 -1.71489 0
M  V30 767 O 67.4015 -0.167138 -2.15754 0
M  V30 768 C 67.9965 -3.26482 -0.905265 0
M  V30 769 C 66.5555 -3.499 -1.38734 0
M  V30 770 C 65.7025 -2.74979 -0.358056 0
M  V30 771 H 68.6535 -1.56425 0.267736 0
M  V30 772 H 68.6745 -3.36887 -1.76882 0
M  V30 773 H 68.1865 -3.88096 -0.017401 0
M  V30 774 H 66.2875 -2.93553 -2.29471 0
M  V30 775 H 66.4005 -4.58615 -1.38598 0
M  V30 776 H 64.7645 -2.40834 -0.828912 0
M  V30 777 H 65.5475 -3.39315 0.521561 0
M  V30 778 N 67.9926 0.231505 -1.5589 0
M  V30 779 C 68.9406 1.30649 -1.92441 0
M  V30 780 C 69.9346 1.49037 -0.805254 0
M  V30 781 O 71.1406 1.50329 -0.990007 0
M  V30 782 H 67.5156 0.437812 -0.611412 0
M  V30 783 H 69.4866 0.970973 -2.82161 0
M  V30 784 C 68.2356 2.65179 -2.24889 0
M  V30 785 H 67.5586 2.51835 -3.10514 0
M  V30 786 H 68.9986 3.39234 -2.54355 0
M  V30 787 C 67.4576 3.19439 -1.07054 0
M  V30 788 O 67.9876 4.00371 -0.326499 0
M  V30 789 N 66.1936 2.77675 -0.85703 0
M  V30 790 H 65.7406 2.11969 -1.46379 0
M  V30 791 H 65.6986 3.14321 -0.0703223 0
M  V30 792 N 69.4707 1.49531 0.497807 0
M  V30 793 C 70.6987 1.62893 1.27567 0
M  V30 794 C 71.1137 0.301585 1.86376 0
M  V30 795 O 70.4707 -0.713335 1.67982 0
M  V30 796 C 70.5217 2.70013 2.40364 0
M  V30 797 O 70.2427 3.976 1.83972 0
M  V30 798 C 71.7437 2.94109 3.31685 0
M  V30 799 H 68.9637 0.548298 0.386794 0
M  V30 800 H 71.5077 1.95584 0.597245 0
M  V30 801 H 69.6627 2.40092 3.04031 0
M  V30 802 H 70.0767 4.56631 2.58047 0
M  V30 803 H 71.5507 3.72788 4.07104 0
M  V30 804 H 72.0277 2.04147 3.88871 0
M  V30 805 H 72.6337 3.2546 2.73781 0
M  V30 806 N 70.9488 -0.749086 1.3866 0
M  V30 807 C 72.3648 -1.05276 1.19955 0
M  V30 808 C 72.5648 -2.01435 0.05134 0
M  V30 809 O 71.6208 -2.45232 -0.60147 0
M  V30 810 C 72.9338 -1.62853 2.52783 0
M  V30 811 C 74.4818 -1.75002 2.59506 0
M  V30 812 C 74.9568 -2.35991 3.92521 0
M  V30 813 N 76.4478 -2.43416 3.94085 0
M  V30 814 C 77.1828 -2.91511 4.9377 0
M  V30 815 N 76.6788 -3.39608 6.03853 0
M  V30 816 N 78.4718 -2.90592 4.81157 0
M  V30 817 H 70.6228 -0.111066 2.12109 0
M  V30 818 H 72.8858 -0.111901 0.941373 0
M  V30 819 H 72.5918 -0.99664 3.37283 0
M  V30 820 H 72.4658 -2.61854 2.715 0
M  V30 821 H 74.8528 -2.37317 1.75398 0
M  V30 822 H 74.9338 -0.74693 2.44652 0
M  V30 823 H 74.5778 -1.74308 4.77053 0
M  V30 824 H 74.5078 -3.3695 4.04688 0
M  V30 825 H 76.9988 -2.09405 3.14576 0
M  V30 826 H 77.3118 -3.74775 6.75843 0
M  V30 827 H 75.6568 -3.37653 6.07466 0
M  V30 828 H 78.8478 -2.52332 3.94267 0
M  V30 829 H 79.0208 -3.27762 5.58996 0
M  V30 830 N 72.4269 -1.23603 -0.977757 0
M  V30 831 C 73.3749 -1.01704 -2.09187 0
M  V30 832 C 74.3689 0.0448214 -1.69341 0
M  V30 833 O 75.5749 -0.108902 -1.7967 0
M  V30 834 H 71.9499 -0.311803 -0.684312 0
M  V30 835 H 73.9209 -1.96207 -2.24823 0
M  V30 836 C 72.6699 -0.627746 -3.41986 0
M  V30 837 H 71.9929 -1.43656 -3.73099 0
M  V30 838 H 73.4329 -0.514053 -4.20872 0
M  V30 839 C 71.8919 0.664238 -3.30287 0
M  V30 840 O 72.4219 1.71268 -3.6336 0
M  V30 841 N 70.6279 0.641156 -2.83439 0
M  V30 842 H 70.1749 -0.212376 -2.56723 0
M  V30 843 H 70.1329 1.50583 -2.75993 0
M  V30 844 N 73.905 1.17692 -1.04816 0
M  V30 845 C 74.868 2.19787 -0.650117 0
M  V30 846 C 75.868 1.58044 0.296427 0
M  V30 847 O 77.058 1.74012 0.0808097 0
M  V30 848 C 74.19 3.40869 0.0456987 0
M  V30 849 H 75.383 2.56516 -1.5537 0
M  V30 850 H 72.936 1.31708 -0.841594 0
M  V30 851 H 73.671 3.09681 0.962726 0
M  V30 852 H 73.456 3.86928 -0.634727 0
M  V30 853 H 74.946 4.16445 0.310432 0
M  V30 854 N 75.3831 0.828654 1.34056 0
M  V30 855 C 76.6291 0.42008 1.98402 0
M  V30 856 C 76.9621 -1.01564 1.65525 0
M  V30 857 O 76.2371 -1.70834 0.929831 0
M  V30 858 C 76.5201 0.62927 3.54559 0
M  V30 859 C 76.3731 2.11152 3.97159 0
M  V30 860 C 77.6921 0.0688756 4.40046 0
M  V30 861 H 74.8111 0.154104 0.720709 0
M  V30 862 H 77.4531 1.04228 1.5886 0
M  V30 863 H 75.6031 0.0996418 3.88372 0
M  V30 864 H 77.2751 2.70522 3.73651 0
M  V30 865 H 75.5181 2.59985 3.47261 0
M  V30 866 H 76.1891 2.20868 5.05887 0
M  V30 867 H 78.6651 0.521458 4.1282 0
M  V30 868 H 77.5411 0.245006 5.48353 0
M  V30 869 H 77.8021 -1.0266 4.30015 0
M  V30 870 N 76.8612 -1.46375 0.584142 0
M  V30 871 C 78.1102 -2.01585 0.0679741 0
M  V30 872 C 78.4232 -1.46109 -1.30045 0
M  V30 873 O 79.6292 -1.93148 -1.90804 0
M  V30 874 C 78.0852 -3.5983 0.0709207 0
M  V30 875 C 77.6932 -4.24303 1.43775 0
M  V30 876 C 79.4372 -4.22693 -0.391228 0
M  V30 877 C 77.3442 -5.74631 1.39834 0
M  V30 878 H 76.2742 -0.753689 0.0216421 0
M  V30 879 H 78.9252 -1.68093 0.736001 0
M  V30 880 H 77.3072 -3.90405 -0.663299 0
M  V30 881 H 78.4812 -4.05335 2.19181 0
M  V30 882 H 76.7962 -3.73539 1.84004 0
M  V30 883 H 79.3932 -5.3289 -0.439524 0
M  V30 884 H 79.7362 -3.91728 -1.40906 0
M  V30 885 H 80.2692 -3.96749 0.288974 0
M  V30 886 H 77.0082 -6.10258 2.39303 0
M  V30 887 H 76.5282 -5.95858 0.686505 0
M  V30 888 H 78.2072 -6.37375 1.11187 0
M  V30 889 N 78.3393 -0.321999 -1.54275 0
M  V30 890 C 79.2723 0.58718 -2.20516 0
M  V30 891 C 80.2503 1.11693 -1.18167 0
M  V30 892 O 81.4343 1.18122 -1.46899 0
M  V30 893 C 78.5613 1.80554 -2.86562 0
M  V30 894 C 77.6073 1.40718 -4.02617 0
M  V30 895 S 78.4403 0.445218 -5.33646 0
M  V30 896 C 79.5963 1.6709 -6.03185 0
M  V30 897 H 79.8293 0.0244875 -2.9729 0
M  V30 898 H 77.3623 -0.106087 -1.54035 0
M  V30 899 H 79.3203 2.50462 -3.25237 0
M  V30 900 H 77.9813 2.33942 -2.09595 0
M  V30 901 H 77.1743 2.31501 -4.47687 0
M  V30 902 H 76.7763 0.78782 -3.65608 0
M  V30 903 H 79.0683 2.60856 -6.25268 0
M  V30 904 H 80.0113 1.26239 -6.96756 0
M  V30 905 H 80.4193 1.85716 -5.33076 0
M  V30 906 N 79.8174 1.5752 -0.0501392 0
M  V30 907 C 81.0654 1.9227 0.622642 0
M  V30 908 C 81.3864 0.929083 1.71444 0
M  V30 909 O 80.6564 -0.0262186 1.95882 0
M  V30 910 H 79.2364 0.709739 0.232981 0
M  V30 911 H 81.8984 1.94628 -0.102898 0
M  V30 912 H 80.9944 2.93479 1.06191 0
M  V30 913 N 81.2955 -0.223234 1.56011 0
M  V30 914 C 82.7115 -0.572856 1.48965 0
M  V30 915 C 82.9115 -1.87225 0.74492 0
M  V30 916 O 81.9675 -2.50899 0.283896 0
M  V30 917 C 83.2805 -0.653646 2.9351 0
M  V30 918 C 84.8285 -0.744386 3.0402 0
M  V30 919 C 85.3035 -0.856535 4.49919 0
M  V30 920 N 86.7945 -0.9208 4.53955 0
M  V30 921 C 87.5295 -1.02726 5.64123 0
M  V30 922 N 87.0255 -1.09777 6.84047 0
M  V30 923 N 88.8185 -1.06226 5.51971 0
M  V30 924 H 80.9695 0.629462 2.02858 0
M  V30 925 H 83.2325 0.220621 0.921971 0
M  V30 926 H 82.9385 0.231518 3.50937 0
M  V30 927 H 82.8125 -1.51781 3.45315 0
M  V30 928 H 85.1995 -1.61999 2.46658 0
M  V30 929 H 85.2805 0.14541 2.55386 0
M  V30 930 H 84.9245 0.0146069 5.07898 0
M  V30 931 H 84.8545 -1.76172 4.96257 0
M  V30 932 H 87.3455 -0.876694 3.6759 0
M  V30 933 H 87.6585 -1.17872 7.63758 0
M  V30 934 H 86.0035 -1.06693 6.86762 0
M  V30 935 H 89.1945 -1.00382 4.5721 0
M  V30 936 H 89.3675 -1.14177 6.37862 0
M  V30 937 N 82.7736 -1.49793 -0.48987 0
M  V30 938 C 83.7206 -1.67281 -1.59014 0
M  V30 939 C 84.6906 -0.514177 -1.57941 0
M  V30 940 O 85.8756 -0.742533 -1.75759 0
M  V30 941 C 83.0156 -1.75569 -2.97102 0
M  V30 942 C 82.1286 -3.0281 -3.08107 0
M  V30 943 C 81.2636 -3.02008 -4.36995 0
M  V30 944 C 80.3026 -4.23782 -4.41673 0
M  V30 945 N 79.4396 -4.20826 -5.62005 0
M  V30 946 H 84.2796 -2.61224 -1.43409 0
M  V30 947 H 81.8166 -1.29508 -0.697565 0
M  V30 948 H 83.7746 -1.78354 -3.77155 0
M  V30 949 H 82.4046 -0.850827 -3.11385 0
M  V30 950 H 81.4566 -3.09584 -2.21047 0
M  V30 951 H 82.7686 -3.92801 -3.07423 0
M  V30 952 H 81.9226 -3.03418 -5.25378 0
M  V30 953 H 80.6616 -2.09815 -4.4026 0
M  V30 954 H 79.6666 -4.22604 -3.5169 0
M  V30 955 H 80.8916 -5.17181 -4.40115 0
M  V30 956 H 78.8376 -3.31476 -5.66091 0
M  V30 957 H 78.7546 -5.04564 -5.62984 0
M  V30 958 H 80.0226 -4.26355 -6.52565 0
M  V30 959 N 84.2517 0.741722 -1.39055 0
M  V30 960 C 85.4797 1.53098 -1.39171 0
M  V30 961 C 85.8947 1.88794 0.0155099 0
M  V30 962 O 85.2517 1.53626 0.985159 0
M  V30 963 C 85.3027 2.82274 -2.2584 0
M  V30 964 O 85.0237 2.48097 -3.61081 0
M  V30 965 C 86.5247 3.76343 -2.34266 0
M  V30 966 H 83.7447 0.473335 -0.4756 0
M  V30 967 H 86.2887 0.917045 -1.82785 0
M  V30 968 H 84.4437 3.40015 -1.85656 0
M  V30 969 H 84.8577 3.31029 -4.06842 0
M  V30 970 H 86.3317 4.63898 -2.9917 0
M  V30 971 H 86.8087 4.17619 -1.35982 0
M  V30 972 H 87.4147 3.24523 -2.74891 0
M  V30 973 N 85.7298 1.2412 0.971189 0
M  V30 974 C 86.9758 1.09048 1.71698 0
M  V30 975 C 87.3308 -0.367442 1.88859 0
M  V30 976 O 86.6238 -1.26792 1.43646 0
M  V30 977 C 86.8178 1.75983 3.11071 0
M  V30 978 C 86.6468 3.28133 3.07504 0
M  V30 979 C 85.4168 3.97331 3.1218 0
M  V30 980 C 87.6148 4.24773 2.89952 0
M  V30 981 N 85.5968 5.3639 2.98596 0
M  V30 982 C 86.9678 5.50806 2.84627 0
M  V30 983 C 89.0228 4.15392 2.74506 0
M  V30 984 C 87.7258 6.68533 2.65437 0
M  V30 985 C 89.7518 5.32793 2.56682 0
M  V30 986 C 89.1138 6.57756 2.52063 0
M  V30 987 H 85.2128 0.453632 0.636979 0
M  V30 988 H 87.7968 1.56983 1.15171 0
M  V30 989 H 85.9678 1.30566 3.65796 0
M  V30 990 H 87.6998 1.53803 3.74335 0
M  V30 991 H 84.4548 3.48473 3.20724 0
M  V30 992 H 84.8788 6.09321 2.95054 0
M  V30 993 H 89.5208 3.19543 2.76861 0
M  V30 994 H 87.2388 7.64509 2.61825 0
M  V30 995 H 90.8248 5.27383 2.4568 0
M  V30 996 H 89.7048 7.4707 2.38446 0
M  V30 997 N 87.2079 -1.17134 1.05439 0
M  V30 998 C 88.1179 -2.24878 0.668365 0
M  V30 999 C 89.1339 -1.71186 -0.311687 0
M  V30 1000 O 90.3099 -2.00738 -0.163161 0
M  V30 1001 C 87.3749 -3.46662 0.051648 0
M  V30 1002 C 86.4359 -4.15429 1.08246 0
M  V30 1003 C 85.6689 -5.31399 0.495082 0
M  V30 1004 O 85.8919 -5.66153 -0.694743 0
M  V30 1005 O 84.8259 -5.89187 1.23056 0
M  V30 1006 H 88.6519 -2.60189 1.56637 0
M  V30 1007 H 86.2369 -1.24482 0.826104 0
M  V30 1008 H 88.1189 -4.20394 -0.290966 0
M  V30 1009 H 86.7939 -3.13142 -0.819971 0
M  V30 1010 H 85.7009 -3.43704 1.47711 0
M  V30 1011 H 87.0339 -4.52982 1.92532 0
M  V30 1012 N 88.686 -0.835752 -1.33615 0
M  V30 1013 C 89.911 -0.442389 -2.02627 0
M  V30 1014 C 90.336 0.947735 -1.62479 0
M  V30 1015 O 89.694 1.61907 -0.815826 0
M  V30 1016 C 89.742 -0.567216 -3.56111 0
M  V30 1017 O 88.846 0.407799 -4.10379 0
M  V30 1018 H 88.187 -0.180278 -0.639059 0
M  V30 1019 H 90.717 -1.12972 -1.70583 0
M  V30 1020 H 90.727 -0.447708 -4.05536 0
M  V30 1021 H 89.402 -1.58103 -3.84677 0
M  V30 1022 H 87.979 0.246107 -3.72087 0
M  V30 1023 N 90.1641 1.46063 -0.591896 0
M  V30 1024 C 91.4131 2.01547 -0.0786637 0
M  V30 1025 C 91.7261 1.46796 1.29268 0
M  V30 1026 O 92.9321 1.94157 1.89777 0
M  V30 1027 C 91.3881 3.59787 -0.0900024 0
M  V30 1028 C 90.9961 4.23534 -1.46023 0
M  V30 1029 C 92.7401 4.22895 0.368806 0
M  V30 1030 C 90.6471 5.73881 -1.4288 0
M  V30 1031 H 89.5771 0.753564 -0.0256388 0
M  V30 1032 H 92.2281 1.677 -0.744905 0
M  V30 1033 H 90.6101 3.90752 0.642586 0
M  V30 1034 H 91.7841 4.04167 -2.21328 0
M  V30 1035 H 90.0991 3.72558 -1.85982 0
M  V30 1036 H 92.6961 5.33116 0.411258 0
M  V30 1037 H 93.0391 3.9247 1.38827 0
M  V30 1038 H 93.5721 3.9659 -0.31001 0
M  V30 1039 H 90.3111 6.0898 -2.42536 0
M  V30 1040 H 89.8311 5.95486 -0.718095 0
M  V30 1041 H 91.5101 6.36776 -1.14565 0
M  V30 1042 N 91.6422 0.330177 1.54103 0
M  V30 1043 C 93.0532 -0.15652 1.86043 0
M  V30 1044 C 93.4042 -1.51086 1.2517 0
M  V30 1045 O 92.5292 -2.09023 0.560217 0
M  V30 1046 C 93.1242 -0.290784 3.3755 0
M  V30 1047 C 91.6832 -0.721705 3.69416 0
M  V30 1048 C 90.8302 0.152622 2.7688 0
M  V30 1049 H 93.7812 0.550237 1.48856 0
M  V30 1050 H 93.8022 -1.12058 3.63625 0
M  V30 1051 H 93.3142 0.695068 3.81825 0
M  V30 1052 H 91.4152 -1.71706 3.30678 0
M  V30 1053 H 91.5282 -0.520869 4.7626 0
M  V30 1054 H 89.8922 -0.372894 2.51956 0
M  V30 1055 H 90.6752 1.13536 3.23982 0
M  V30 1056 N 93.1203 -1.57491 0.0584922 0
M  V30 1057 C 94.0523 -2.08916 -0.942694 0
M  V30 1058 C 95.0653 -1.0185 -1.27006 0
M  V30 1059 O 96.2543 -1.29398 -1.22957 0
M  V30 1060 C 93.3543 -2.52341 -2.26224 0
M  V30 1061 C 92.5273 -3.82827 -2.1157 0
M  V30 1062 C 91.5863 -4.12487 -3.26712 0
M  V30 1063 O 90.6123 -4.82295 -3.02292 0
M  V30 1064 N 91.8143 -3.64978 -4.5141 0
M  V30 1065 H 94.5793 -2.95437 -0.503722 0
M  V30 1066 H 92.1403 -1.61397 -0.12757 0
M  V30 1067 H 94.1323 -2.69254 -3.02133 0
M  V30 1068 H 92.7023 -1.7103 -2.61663 0
M  V30 1069 H 91.9223 -3.75425 -1.20208 0
M  V30 1070 H 93.2103 -4.68263 -1.99015 0
M  V30 1071 H 92.6083 -3.08558 -4.7414 0
M  V30 1072 H 91.1653 -3.87115 -5.2439 0
M  V30 1073 N 94.5984 0.214957 -1.56127 0
M  V30 1074 C 95.5454 1.26642 -1.92952 0
M  V30 1075 C 96.5154 1.46244 -0.78753 0
M  V30 1076 O 97.7004 1.59704 -1.04399 0
M  V30 1077 C 94.8404 2.6104 -2.25726 0
M  V30 1078 C 93.9534 2.49183 -3.52891 0
M  V30 1079 C 93.0884 3.76149 -3.7508 0
M  V30 1080 C 92.1274 3.59041 -4.95738 0
M  V30 1081 N 91.2644 4.77972 -5.14283 0
M  V30 1082 H 96.1044 0.945384 -2.82607 0
M  V30 1083 H 93.6414 0.455489 -1.3987 0
M  V30 1084 H 95.5994 3.39313 -2.42739 0
M  V30 1085 H 94.2294 2.91227 -1.39236 0
M  V30 1086 H 93.2814 1.6231 -3.44034 0
M  V30 1087 H 94.5934 2.32466 -4.41318 0
M  V30 1088 H 93.7474 4.62865 -3.92226 0
M  V30 1089 H 92.4864 3.95799 -2.84947 0
M  V30 1090 H 91.4914 2.7071 -4.78535 0
M  V30 1091 H 92.7164 3.40856 -5.87362 0
M  V30 1092 H 90.6624 4.97923 -4.27093 0
M  V30 1093 H 90.5794 4.64006 -5.96853 0
M  V30 1094 H 91.8474 5.66096 -5.35869 0
M  V30 1095 N 96.0765 1.50051 0.48192 0
M  V30 1096 C 97.3235 1.60498 1.23477 0
M  V30 1097 C 97.6515 0.300331 1.92167 0
M  V30 1098 O 96.9065 -0.713094 1.82246 0
M  V30 1099 C 97.2055 2.72717 2.30998 0
M  V30 1100 C 96.8715 4.13572 1.79636 0
M  V30 1101 C 95.5335 4.519 1.65348 0
M  V30 1102 C 97.8855 5.01649 1.41412 0
M  V30 1103 C 95.2135 5.76057 1.11244 0
M  V30 1104 C 97.5655 6.26343 0.887538 0
M  V30 1105 C 96.2295 6.63483 0.731207 0
M  V30 1106 H 95.4995 0.587303 0.451836 0
M  V30 1107 H 98.1465 1.83948 0.532468 0
M  V30 1108 H 96.4515 2.43312 3.07094 0
M  V30 1109 H 98.1485 2.78006 2.88988 0
M  V30 1110 H 94.7385 3.83329 1.91721 0
M  V30 1111 H 98.9225 4.72679 1.51289 0
M  V30 1112 H 94.1785 6.03516 0.978686 0
M  V30 1113 H 98.3525 6.93958 0.582654 0
M  V30 1114 H 95.9795 7.59568 0.309806 0
M  V30 1115 N 97.5546 -0.734337 1.39446 0
M  V30 1116 C 98.9706 -1.03997 1.21065 0
M  V30 1117 C 99.1706 -2.01369 0.0727019 0
M  V30 1118 O 98.2266 -2.45856 -0.575426 0
M  V30 1119 C 99.5396 -1.60163 2.54496 0
M  V30 1120 C 101.088 -1.7224 2.61347 0
M  V30 1121 C 101.563 -2.31814 3.95002 0
M  V30 1122 N 103.054 -2.39223 3.96644 0
M  V30 1123 C 103.789 -2.86258 4.96834 0
M  V30 1124 N 103.285 -3.33184 6.07421 0
M  V30 1125 N 105.078 -2.85473 4.84213 0
M  V30 1126 H 97.2286 -0.0885624 2.12215 0
M  V30 1127 H 99.4916 -0.10191 0.942506 0
M  V30 1128 H 99.1976 -0.960811 3.38321 0
M  V30 1129 H 99.0716 -2.5896 2.74262 0
M  V30 1130 H 101.459 -2.35443 1.77906 0
M  V30 1131 H 101.54 -0.720939 2.4543 0
M  V30 1132 H 101.184 -1.69238 4.78875 0
M  V30 1133 H 101.114 -3.32638 4.08239 0
M  V30 1134 H 103.605 -2.06057 3.16779 0
M  V30 1135 H 103.918 -3.67586 6.7978 0
M  V30 1136 H 102.263 -3.31191 6.11013 0
M  V30 1137 H 105.454 -2.48136 3.96921 0
M  V30 1138 H 105.627 -3.21814 5.62441 0
M  V30 1139 N 99.0327 -1.24633 -0.964593 0
M  V30 1140 C 100.444 -1.08045 -1.5226 0
M  V30 1141 C 100.795 0.347116 -1.93105 0
M  V30 1142 O 99.9197 1.23588 -1.77637 0
M  V30 1143 C 100.515 -1.95514 -2.76695 0
M  V30 1144 C 99.0737 -1.8314 -3.28841 0
M  V30 1145 C 98.2207 -1.90262 -2.01732 0
M  V30 1146 H 101.172 -1.38064 -0.782553 0
M  V30 1147 H 101.193 -1.48925 -3.50145 0
M  V30 1148 H 100.705 -2.99407 -2.46936 0
M  V30 1149 H 98.8057 -0.82092 -3.63444 0
M  V30 1150 H 98.9187 -2.67406 -3.97531 0
M  V30 1151 H 97.2827 -1.34027 -2.16584 0
M  V30 1152 H 98.0657 -2.9574 -1.74334 0
M  V30 1153 N 100.511 1.16574 -1.06058 0
M  V30 1154 C 101.441 2.23057 -0.690488 0
M  V30 1155 C 102.422 1.67141 0.315901 0
M  V30 1156 O 103.607 1.93253 0.191556 0
M  V30 1157 C 100.737 3.47222 -0.073625 0
M  V30 1158 C 99.6908 4.16016 -1.00573 0
M  V30 1159 C 99.0168 5.34104 -0.252289 0
M  V30 1160 C 100.317 4.67264 -2.33371 0
M  V30 1161 H 102.011 2.54271 -1.58072 0
M  V30 1162 H 99.5568 1.22218 -0.76149 0
M  V30 1163 H 101.51 4.20939 0.19714 0
M  V30 1164 H 100.234 3.15302 0.85161 0
M  V30 1165 H 98.8928 3.44223 -1.2612 0
M  V30 1166 H 98.5408 4.98437 0.675988 0
M  V30 1167 H 98.2408 5.81072 -0.873455 0
M  V30 1168 H 99.7648 6.10599 0.0109857 0
M  V30 1169 H 101.179 5.32573 -2.12223 0
M  V30 1170 H 99.5758 5.24843 -2.90963 0
M  V30 1171 H 100.646 3.83602 -2.96611 0
M  V30 1172 N 101.989 0.842826 1.3317 0
M  V30 1173 C 103.4 0.496651 1.79973 0
M  V30 1174 C 103.751 -0.984641 1.69703 0
M  V30 1175 O 102.876 -1.76743 1.24863 0
M  V30 1176 C 103.471 0.894727 3.26772 0
M  V30 1177 C 102.03 0.600629 3.71577 0
M  V30 1178 C 101.177 1.10091 2.5451 0
M  V30 1179 H 104.128 1.03116 1.20635 0
M  V30 1180 H 104.149 0.206347 3.7994 0
M  V30 1181 H 103.661 1.97287 3.34215 0
M  V30 1182 H 101.762 -0.467284 3.69658 0
M  V30 1183 H 101.875 1.15863 4.64879 0
M  V30 1184 H 100.239 0.52162 2.49301 0
M  V30 1185 H 101.022 2.18591 2.64713 0
M  V30 1186 N 103.467 -1.45747 0.599634 0
M  V30 1187 C 104.744 -1.95585 0.0240846 0
M  V30 1188 C 105.124 -1.54217 -1.44154 0
M  V30 1189 O 104.472 -0.800903 -2.14004 0
M  V30 1190 C 104.682 -3.48344 0.21385 0
M  V30 1191 C 106.03 -4.24504 0.0904902 0
M  V30 1192 O 107.054 -3.55911 0.143558 0
M  V30 1193 O 105.913 -5.46491 -0.0310766 0
M  V30 1194 H 103.007 -0.82602 -0.0402478 0
M  V30 1195 H 105.553 -1.55951 0.669139 0
M  V30 1196 H 104.325 -3.71397 1.23206 0
M  V30 1197 H 103.948 -3.9485 -0.466842 0
M  V30 1198 N 104.945 -0.338344 -1.53925 0
M  V30 1199 C 106.361 0.0137736 -1.59594 0
M  V30 1200 C 106.561 1.49186 -1.35447 0
M  V30 1201 O 105.617 2.24987 -1.14616 0
M  V30 1202 C 106.93 -0.41773 -2.97784 0
M  V30 1203 C 108.478 -0.369633 -3.1081 0
M  V30 1204 C 108.953 -0.776524 -4.51369 0
M  V30 1205 N 110.444 -0.730506 -4.57403 0
M  V30 1206 C 111.179 -1.01736 -5.64303 0
M  V30 1207 N 110.675 -1.3721 -6.79077 0
M  V30 1208 N 112.468 -0.941942 -5.54151 0
M  V30 1209 H 104.619 -1.3012 -1.67876 0
M  V30 1210 H 106.882 -0.530082 -0.78595 0
M  V30 1211 H 106.588 -1.44811 -3.20504 0
M  V30 1212 H 106.462 0.209729 -3.76616 0
M  V30 1213 H 108.849 0.651568 -2.87817 0
M  V30 1214 H 108.93 -1.03223 -2.34049 0
M  V30 1215 H 108.574 -1.79571 -4.75096 0
M  V30 1216 H 108.504 -0.0914649 -5.26521 0
M  V30 1217 H 110.995 -0.468783 -3.74981 0
M  V30 1218 H 111.308 -1.57597 -7.5656 0
M  V30 1219 H 109.653 -1.4105 -6.80536 0
M  V30 1220 H 112.844 -0.664184 -4.63364 0
M  V30 1221 H 113.017 -1.16884 -6.37371 0
M  V30 1222 N 106.423 1.57458 -0.0668435 0
M  V30 1223 C 107.353 2.15468 0.899764 0
M  V30 1224 C 108.334 1.08042 1.31381 0
M  V30 1225 O 109.519 1.36054 1.38574 0
M  V30 1226 C 106.649 2.71232 2.16911 0
M  V30 1227 C 105.603 3.83781 1.89463 0
M  V30 1228 C 104.929 4.26127 3.22986 0
M  V30 1229 C 106.229 5.08238 1.20381 0
M  V30 1230 H 107.923 2.96488 0.416529 0
M  V30 1231 H 105.469 1.4262 0.198908 0
M  V30 1232 H 107.422 3.10458 2.84945 0
M  V30 1233 H 106.146 1.87426 2.67468 0
M  V30 1234 H 104.805 3.45051 1.23836 0
M  V30 1235 H 104.453 3.39249 3.71374 0
M  V30 1236 H 104.153 5.01993 3.05413 0
M  V30 1237 H 105.677 4.67966 3.92225 0
M  V30 1238 H 107.091 5.44811 1.78475 0
M  V30 1239 H 105.488 5.89349 1.13083 0
M  V30 1240 H 106.558 4.84558 0.182153 0
M  V30 1241 N 107.901 -0.206675 1.56239 0
M  V30 1242 C 108.849 -1.27571 1.94495 0
M  V30 1243 C 109.843 -1.47737 0.828862 0
M  V30 1244 O 111.049 -1.48735 1.0138 0
M  V30 1245 H 107.424 -0.428029 0.6183 0
M  V30 1246 H 109.395 -0.925961 2.8367 0
M  V30 1247 C 108.144 -2.61568 2.29079 0
M  V30 1248 H 107.467 -2.46863 3.14482 0
M  V30 1249 H 108.907 -3.35144 2.5972 0
M  V30 1250 C 107.366 -3.17695 1.12123 0
M  V30 1251 O 107.896 -3.99801 0.390153 0
M  V30 1252 N 106.102 -2.76276 0.901097 0
M  V30 1253 H 105.649 -2.09613 1.49733 0
M  V30 1254 H 105.607 -3.1417 0.120319 0
M  V30 1255 N 109.379 -1.50304 -0.473955 0
M  V30 1256 C 110.628 -1.60392 -1.22301 0
M  V30 1257 C 110.941 -0.308411 -1.93153 0
M  V30 1258 O 112.147 -0.288156 -2.69966 0
M  V30 1259 C 110.603 -2.83109 -2.2221 0
M  V30 1260 C 110.211 -4.19524 -1.57173 0
M  V30 1261 C 111.955 -3.0254 -2.97775 0
M  V30 1262 C 109.862 -5.33431 -2.55353 0
M  V30 1263 H 108.792 -0.597286 -0.460179 0
M  V30 1264 H 111.443 -1.76731 -0.493803 0
M  V30 1265 H 109.825 -2.60322 -2.9841 0
M  V30 1266 H 110.999 -4.52554 -0.867824 0
M  V30 1267 H 109.314 -4.05674 -0.939002 0
M  V30 1268 H 111.911 -3.84811 -3.71248 0
M  V30 1269 H 112.254 -2.14154 -3.56992 0
M  V30 1270 H 112.787 -3.25494 -2.28688 0
M  V30 1271 H 109.526 -6.23962 -2.00878 0
M  V30 1272 H 109.046 -5.04823 -3.23904 0
M  V30 1273 H 110.725 -5.63887 -3.17239 0
M  V30 1274 N 110.857 0.726932 -1.39834 0
M  V30 1275 C 112.106 1.48214 -1.36805 0
M  V30 1276 C 112.419 1.95576 0.0305291 0
M  V30 1277 O 113.625 2.7088 0.183417 0
M  V30 1278 C 112.081 2.67854 -2.40379 0
M  V30 1279 C 111.689 2.27408 -3.85992 0
M  V30 1280 C 113.433 3.45641 -2.46439 0
M  V30 1281 C 111.34 3.43819 -4.81189 0
M  V30 1282 H 110.27 0.556606 -0.508631 0
M  V30 1283 H 112.921 0.792216 -1.65518 0
M  V30 1284 H 111.303 3.3896 -2.04749 0
M  V30 1285 H 112.477 1.63795 -4.30706 0
M  V30 1286 H 110.792 1.62692 -3.83302 0
M  V30 1287 H 113.389 4.32244 -3.14753 0
M  V30 1288 H 113.732 3.88669 -1.49139 0
M  V30 1289 H 114.265 2.8157 -2.81004 0
M  V30 1290 H 111.004 3.05834 -5.79781 0
M  V30 1291 H 110.524 4.06385 -4.41148 0
M  V30 1292 H 112.203 4.10043 -5.00474 0
M  V30 1293 N 112.336 1.25143 0.95797 0
M  V30 1294 C 113.266 1.07711 2.07173 0
M  V30 1295 C 114.247 -0.0128462 1.70095 0
M  V30 1296 O 115.432 0.156061 1.93572 0
M  V30 1297 C 112.562 0.691503 3.40346 0
M  V30 1298 C 111.516 1.73132 3.9142 0
M  V30 1299 C 110.842 1.20049 5.21049 0
M  V30 1300 C 112.142 3.1294 4.1817 0
M  V30 1301 H 113.836 2.00873 2.22014 0
M  V30 1302 H 111.382 0.967191 1.06684 0
M  V30 1303 H 113.335 0.556505 4.17709 0
M  V30 1304 H 112.059 -0.275819 3.25433 0
M  V30 1305 H 110.718 1.8547 3.16222 0
M  V30 1306 H 110.366 0.223499 5.02503 0
M  V30 1307 H 110.066 1.89545 5.56189 0
M  V30 1308 H 111.59 1.07782 6.01012 0
M  V30 1309 H 113.004 3.03775 4.86203 0
M  V30 1310 H 111.401 3.79875 4.64559 0
M  V30 1311 H 112.471 3.6025 3.24573 0
M  V30 1312 N 113.814 -1.1601 1.06675 0
M  V30 1313 C 115.039 -1.91068 0.806706 0
M  V30 1314 C 115.464 -1.77112 -0.633485 0
M  V30 1315 O 114.822 -1.09908 -1.44187 0
M  V30 1316 C 114.87 -3.39655 1.21106 0
M  V30 1317 O 113.974 -4.10893 0.352189 0
M  V30 1318 H 113.315 -0.595125 0.294486 0
M  V30 1319 H 115.845 -1.46955 1.42356 0
M  V30 1320 H 115.855 -3.90434 1.18428 0
M  V30 1321 H 114.53 -3.49132 2.26008 0
M  V30 1322 H 113.107 -3.70285 0.440868 0
M  V30 1323 N 115.292 -0.849877 -1.32721 0
M  V30 1324 C 116.708 -0.539102 -1.50219 0
M  V30 1325 C 116.908 0.931271 -1.78689 0
M  V30 1326 O 115.964 1.71455 -1.85363 0
M  V30 1327 C 117.277 -1.42196 -2.64954 0
M  V30 1328 C 118.825 -1.42189 -2.78839 0
M  V30 1329 C 119.3 -2.28985 -3.96648 0
M  V30 1330 N 120.791 -2.26754 -4.03902 0
M  V30 1331 C 121.526 -2.90644 -4.94281 0
M  V30 1332 N 121.022 -3.63629 -5.897 0
M  V30 1333 N 122.815 -2.80057 -4.87365 0
M  V30 1334 H 114.966 -1.80156 -1.12506 0
M  V30 1335 H 117.229 -0.769217 -0.554085 0
M  V30 1336 H 116.935 -2.46733 -2.50631 0
M  V30 1337 H 116.809 -1.10591 -3.60624 0
M  V30 1338 H 119.196 -0.38419 -2.92588 0
M  V30 1339 H 119.277 -1.77807 -1.83898 0
M  V30 1340 H 118.921 -3.32819 -3.83658 0
M  V30 1341 H 118.851 -1.90702 -4.90857 0
M  V30 1342 H 121.342 -1.73688 -3.3562 0
M  V30 1343 H 121.655 -4.09558 -6.55349 0
M  V30 1344 H 120 -3.67737 -5.89741 0
M  V30 1345 H 123.191 -2.22593 -4.11789 0
M  V30 1346 H 123.364 -3.30132 -5.57599 0
M  V30 1347 N 116.77 1.45427 -0.607355 0
M  V30 1348 C 117.995 2.07124 -0.107006 0
M  V30 1349 C 118.42 1.44906 1.19933 0
M  V30 1350 O 117.778 0.541687 1.73019 0
M  V30 1351 C 117.826 3.60595 0.0194119 0
M  V30 1352 O 116.93 3.98285 1.0697 0
M  V30 1353 H 116.271 0.659868 -0.0739597 0
M  V30 1354 H 118.801 1.86683 -0.837297 0
M  V30 1355 H 118.811 4.07419 0.2177 0
M  V30 1356 H 117.486 4.05266 -0.934453 0
M  V30 1357 H 116.063 3.63133 0.847889 0
M  V30 1358 N 118.248 0.346503 1.53744 0
M  V30 1359 C 119.478 -0.250047 2.05081 0
M  V30 1360 C 119.886 -1.44529 1.22098 0
M  V30 1361 O 119.229 -1.81992 0.249917 0
M  V30 1362 C 119.291 -0.725934 3.52094 0
M  V30 1363 C 118.955 0.350053 4.55657 0
M  V30 1364 C 119.952 1.19372 5.0601 0
M  V30 1365 C 117.637 0.504827 4.99757 0
M  V30 1366 C 119.631 2.17768 5.99046 0
M  V30 1367 C 117.318 1.49218 5.92602 0
M  V30 1368 C 118.316 2.32706 6.42135 0
M  V30 1369 O 118.004 3.2976 7.33153 0
M  V30 1370 H 117.736 -0.0515469 0.674032 0
M  V30 1371 H 120.29 0.497559 1.99282 0
M  V30 1372 H 118.52 -1.52483 3.55367 0
M  V30 1373 H 120.209 -1.24336 3.86388 0
M  V30 1374 H 120.975 1.08525 4.72702 0
M  V30 1375 H 116.854 -0.135178 4.60802 0
M  V30 1376 H 120.398 2.82971 6.37631 0
M  V30 1377 H 116.295 1.6012 6.25325 0
M  V30 1378 H 117.063 3.25265 7.51096 0
M  V30 1379 N 119.726 -1.57421 0.075193 0
M  V30 1380 C 120.636 -2.1642 -0.905511 0
M  V30 1381 C 121.652 -1.12828 -1.32461 0
M  V30 1382 O 122.828 -1.45109 -1.39661 0
M  V30 1383 C 119.893 -2.71693 -2.15369 0
M  V30 1384 C 118.954 -3.90171 -1.79068 0
M  V30 1385 C 118.187 -4.42798 -2.97936 0
M  V30 1386 O 118.41 -3.94416 -4.12058 0
M  V30 1387 O 117.344 -5.34085 -2.77555 0
M  V30 1388 H 121.17 -3.00588 -0.433626 0
M  V30 1389 H 118.755 -1.48664 -0.148067 0
M  V30 1390 H 120.637 -3.07104 -2.88557 0
M  V30 1391 H 119.312 -1.90582 -2.61649 0
M  V30 1392 H 118.219 -3.59606 -1.03122 0
M  V30 1393 H 119.552 -4.72584 -1.37569 0
M  V30 1394 N 121.204 0.198386 -1.56346 0
M  V30 1395 C 122.152 1.26538 -1.95169 0
M  V30 1396 C 123.146 1.47295 -0.836685 0
M  V30 1397 O 124.352 1.48195 -1.02167 0
M  V30 1398 H 120.727 0.424744 -0.620561 0
M  V30 1399 H 122.698 0.910904 -2.84157 0
M  V30 1400 C 121.447 2.6035 -2.30463 0
M  V30 1401 H 120.77 2.45192 -3.15786 0
M  V30 1402 H 122.21 3.33762 -2.61494 0
M  V30 1403 C 120.669 3.17096 -1.13806 0
M  V30 1404 O 121.199 3.99588 -0.41135 0
M  V30 1405 N 119.405 2.75795 -0.915736 0
M  V30 1406 H 118.952 2.08816 -1.50843 0
M  V30 1407 H 118.91 3.14101 -0.136979 0
M  V30 1408 N 122.682 1.50554 0.465978 0
M  V30 1409 C 123.629 1.6979 1.56333 0
M  V30 1410 C 124.599 0.539239 1.57103 0
M  V30 1411 O 125.784 0.770401 1.74555 0
M  V30 1412 C 122.924 1.80273 2.94271 0
M  V30 1413 C 122.037 3.07674 3.0325 0
M  V30 1414 C 121.172 3.08922 4.32135 0
M  V30 1415 C 120.211 4.30755 4.34875 0
M  V30 1416 N 119.348 4.29714 5.55239 0
M  V30 1417 H 124.188 2.63472 1.39235 0
M  V30 1418 H 121.725 1.30602 0.676873 0
M  V30 1419 H 123.683 1.84332 3.74269 0
M  V30 1420 H 122.313 0.900258 3.09992 0
M  V30 1421 H 121.365 3.13062 2.16094 0
M  V30 1422 H 122.677 3.97642 3.01135 0
M  V30 1423 H 121.831 3.11738 5.20485 0
M  V30 1424 H 120.57 2.16792 4.36866 0
M  V30 1425 H 119.575 4.28146 3.44922 0
M  V30 1426 H 120.8 5.24117 4.31831 0
M  V30 1427 H 118.746 3.4044 5.60746 0
M  V30 1428 H 118.663 5.13456 5.54886 0
M  V30 1429 H 119.931 4.36683 6.457 0
M  V30 1430 N 124.16 -0.719506 1.40217 0
M  V30 1431 C 125.409 -1.47486 1.37589 0
M  V30 1432 C 125.722 -1.9559 -0.0201568 0
M  V30 1433 O 126.928 -2.70973 -0.169049 0
M  V30 1434 C 125.384 -2.66575 2.41796 0
M  V30 1435 C 124.992 -2.25358 3.87192 0
M  V30 1436 C 126.736 -3.4433 2.48269 0
M  V30 1437 C 124.643 -3.41262 4.83005 0
M  V30 1438 H 123.573 -0.553901 0.511576 0
M  V30 1439 H 126.224 -0.783427 1.65936 0
M  V30 1440 H 124.606 -3.3787 2.06543 0
M  V30 1441 H 125.78 -1.61509 4.31569 0
M  V30 1442 H 124.095 -1.60657 3.84159 0
M  V30 1443 H 126.692 -4.30569 3.17041 0
M  V30 1444 H 127.035 -3.87872 1.51198 0
M  V30 1445 H 127.568 -2.80076 2.82493 0
M  V30 1446 H 124.307 -3.02755 5.81394 0
M  V30 1447 H 123.827 -4.0404 4.43297 0
M  V30 1448 H 125.506 -4.07383 5.02641 0
M  V30 1449 N 125.638 -1.25649 -0.95132 0
M  V30 1450 C 126.887 -1.09988 -1.69073 0
M  V30 1451 C 127.2 0.358355 -1.92289 0
M  V30 1452 O 128.406 0.635466 -2.63958 0
M  V30 1453 C 126.862 -1.92012 -3.044 0
M  V30 1454 C 126.47 -3.42347 -2.88968 0
M  V30 1455 C 128.214 -1.8493 -3.82101 0
M  V30 1456 C 126.121 -4.16655 -4.19705 0
M  V30 1457 H 125.051 -0.407993 -0.63408 0
M  V30 1458 H 127.702 -1.49873 -1.05879 0
M  V30 1459 H 126.084 -1.44952 -3.68517 0
M  V30 1460 H 127.258 -3.97104 -2.33762 0
M  V30 1461 H 125.573 -3.50557 -2.24719 0
M  V30 1462 H 128.17 -2.37739 -4.78941 0
M  V30 1463 H 128.513 -0.817883 -4.08187 0
M  V30 1464 H 129.046 -2.29758 -3.2474 0
M  V30 1465 H 125.785 -5.20224 -3.98807 0
M  V30 1466 H 125.305 -3.66681 -4.74663 0
M  V30 1467 H 126.984 -4.24551 -4.88227 0
M  V30 1468 N 127.117 1.15442 -1.07289 0
M  V30 1469 C 128.394 1.82306 -0.708792 0
M  V30 1470 C 128.774 1.94991 0.808807 0
M  V30 1471 O 128.122 1.50085 1.72298 0
M  V30 1472 C 128.332 3.18695 -1.42247 0
M  V30 1473 C 129.68 3.94341 -1.57417 0
M  V30 1474 O 130.704 3.28247 -1.38319 0
M  V30 1475 O 129.563 5.12839 -1.88834 0
M  V30 1476 H 126.657 0.787628 -0.252132 0
M  V30 1477 H 129.203 1.22559 -1.17377 0
M  V30 1478 H 127.975 3.04557 -2.45684 0
M  V30 1479 H 127.598 3.86128 -0.948223 0
M  V30 1480 N 128.595 0.856903 1.32268 0
M  V30 1481 C 129.872 0.382583 1.91822 0
M  V30 1482 C 130.252 -1.13407 1.78051 0
M  V30 1483 O 129.6 -1.95673 1.18001 0
M  V30 1484 C 129.81 0.849446 3.38505 0
M  V30 1485 C 131.158 0.867936 4.15634 0
M  V30 1486 O 132.182 0.794232 3.47232 0
M  V30 1487 O 131.041 0.972286 5.37781 0
M  V30 1488 H 128.135 0.112014 0.819379 0
M  V30 1489 H 130.681 0.943952 1.41024 0
M  V30 1490 H 129.453 1.89267 3.42482 0
M  V30 1491 H 129.076 0.265652 3.96712 0
M  V30 1492 N 130.073 -1.45103 0.615059 0
M  V30 1493 C 131.021 -2.32331 -0.111791 0
M  V30 1494 C 132.015 -1.46409 -0.852102 0
M  V30 1495 O 133.221 -1.62849 -0.766821 0
M  V30 1496 H 129.596 -0.749993 -0.0549072 0
M  V30 1497 H 131.567 -2.91407 0.642225 0
M  V30 1498 C 130.316 -3.3015 -1.09071 0
M  V30 1499 H 129.639 -3.96265 -0.530485 0
M  V30 1500 H 131.079 -3.93898 -1.56908 0
M  V30 1501 C 129.538 -2.57875 -2.168 0
M  V30 1502 O 130.068 -2.36567 -3.24652 0
M  V30 1503 N 128.274 -2.17884 -1.92289 0
M  V30 1504 H 127.821 -2.35413 -1.04587 0
M  V30 1505 H 127.779 -1.6985 -2.64572 0
M  V30 1506 N 131.551 -0.354651 -1.53558 0
M  V30 1507 C 132.8 0.239504 -2.00273 0
M  V30 1508 C 133.113 1.50759 -1.24623 0
M  V30 1509 O 134.319 2.17968 -1.61871 0
M  V30 1510 C 132.775 0.477341 -3.5672 0
M  V30 1511 C 132.383 -0.775488 -4.41237 0
M  V30 1512 C 134.127 1.02975 -4.11821 0
M  V30 1513 C 132.034 -0.507838 -5.89216 0
M  V30 1514 H 130.964 0.0932743 -0.748208 0
M  V30 1515 H 133.615 -0.471701 -1.77334 0
M  V30 1516 H 131.997 1.24953 -3.7577 0
M  V30 1517 H 133.171 -1.54963 -4.33962 0
M  V30 1518 H 131.486 -1.25033 -3.97185 0
M  V30 1519 H 134.083 1.24513 -5.2 0
M  V30 1520 H 134.426 1.98862 -3.65731 0
M  V30 1521 H 134.959 0.317994 -3.96527 0
M  V30 1522 H 131.698 -1.43674 -6.39561 0
M  V30 1523 H 131.218 0.228011 -5.99366 0
M  V30 1524 H 132.897 -0.129238 -6.46871 0
M  V30 1525 N 133.029 1.57378 -0.0835403 0
M  V30 1526 C 134.278 1.93106 0.582498 0
M  V30 1527 C 134.591 0.96651 1.70053 0
M  V30 1528 O 135.797 1.21705 2.42693 0
M  V30 1529 C 134.253 3.43076 1.08751 0
M  V30 1530 C 133.861 4.48 -0.000146404 0
M  V30 1531 C 135.605 3.87785 1.72694 0
M  V30 1532 C 133.512 5.89113 0.519568 0
M  V30 1533 H 132.442 0.720775 0.221358 0
M  V30 1534 H 135.093 1.82821 -0.157675 0
M  V30 1535 H 133.475 3.48474 1.88101 0
M  V30 1536 H 134.649 4.54233 -0.775199 0
M  V30 1537 H 132.964 4.1283 -0.54406 0
M  V30 1538 H 135.561 4.90604 2.1263 0
M  V30 1539 H 135.904 3.25796 2.59158 0
M  V30 1540 H 136.437 3.8504 0.999457 0
M  V30 1541 H 133.176 6.54775 -0.308186 0
M  V30 1542 H 132.696 5.86376 1.26188 0
M  V30 1543 H 134.375 6.39346 0.992237 0
M  V30 1544 N 134.507 -0.190092 1.56449 0
M  V30 1545 C 135.457 -1.23977 1.91347 0
M  V30 1546 C 136.441 -1.40747 0.779693 0
M  V30 1547 O 137.633 -1.43033 1.04262 0
M  V30 1548 C 134.762 -2.58347 2.26079 0
M  V30 1549 C 133.848 -2.4535 3.45925 0
M  V30 1550 N 134.239 -2.02039 4.63696 0
M  V30 1551 C 132.537 -2.76229 3.50162 0
M  V30 1552 C 133.238 -2.01053 5.4585 0
M  V30 1553 N 132.214 -2.42747 4.8639 0
M  V30 1554 H 136.016 -0.896318 2.79899 0
M  V30 1555 H 133.53 -0.398496 1.57435 0
M  V30 1556 H 135.527 -3.34173 2.49267 0
M  V30 1557 H 134.187 -2.93512 1.38856 0
M  V30 1558 H 135.198 -1.7267 4.88268 0
M  V30 1559 H 131.875 -3.15556 2.73369 0
M  V30 1560 H 133.265 -1.69426 6.50188 0
M  V30 1561 N 135.985 -1.50799 -0.457987 0
M  V30 1562 C 136.948 -1.7005 -1.53674 0
M  V30 1563 C 137.948 -0.570881 -1.50325 0
M  V30 1564 O 139.138 -0.838126 -1.52712 0
M  V30 1565 C 136.27 -1.73788 -2.93276 0
M  V30 1566 H 137.463 -2.66306 -1.37917 0
M  V30 1567 H 135.016 -1.40477 -0.685271 0
M  V30 1568 H 135.751 -0.792717 -3.14462 0
M  V30 1569 H 135.536 -2.55864 -2.97113 0
M  V30 1570 H 137.026 -1.90591 -3.71571 0
M  V30 1571 N 137.463 0.71206 -1.40597 0
M  V30 1572 C 138.688 1.50617 -1.42581 0
M  V30 1573 C 139.113 1.88079 -0.0282102 0
M  V30 1574 O 138.471 1.53511 0.964579 0
M  V30 1575 C 138.519 2.7557 -2.3258 0
M  V30 1576 O 137.623 3.72414 -1.77148 0
M  V30 1577 H 136.964 0.453966 -0.484573 0
M  V30 1578 H 139.494 0.876649 -1.84868 0
M  V30 1579 H 139.504 3.2406 -2.47889 0
M  V30 1580 H 138.179 2.47639 -3.34138 0
M  V30 1581 H 136.756 3.31276 -1.71204 0
M  V30 1582 N 138.941 1.26152 0.944643 0
M  V30 1583 C 140.166 1.14363 1.7302 0
M  V30 1584 C 140.591 -0.29772 1.85729 0
M  V30 1585 O 139.949 -1.2157 1.34501 0
M  V30 1586 C 139.997 1.81378 3.11664 0
M  V30 1587 O 139.101 1.10022 3.97453 0
M  V30 1588 H 138.442 0.398694 0.53098 0
M  V30 1589 H 140.972 1.66906 1.18337 0
M  V30 1590 H 140.982 1.88064 3.62072 0
M  V30 1591 H 139.657 2.86237 3.0173 0
M  V30 1592 H 138.234 1.11287 3.55907 0
M  V30 1593 N 140.419 -1.14872 1.07899 0
M  V30 1594 C 141.668 -1.85135 0.800499 0
M  V30 1595 C 141.981 -1.83547 -0.676014 0
M  V30 1596 O 143.187 -2.49548 -1.06948 0
M  V30 1597 C 141.643 -3.3231 1.38197 0
M  V30 1598 C 141.251 -3.42329 2.8899 0
M  V30 1599 C 142.995 -4.0772 1.18174 0
M  V30 1600 C 140.902 -4.83684 3.403 0
M  V30 1601 H 139.832 -0.693563 0.29578 0
M  V30 1602 H 142.483 -1.29532 1.29976 0
M  V30 1603 H 140.865 -3.87618 0.810431 0
M  V30 1604 H 142.039 -2.97097 3.52236 0
M  V30 1605 H 140.354 -2.80369 3.07867 0
M  V30 1606 H 142.951 -5.12049 1.5398 0
M  V30 1607 H 143.294 -4.16124 0.12117 0
M  V30 1608 H 143.827 -3.58696 1.71994 0
M  V30 1609 H 140.566 -4.80465 4.45907 0
M  V30 1610 H 140.086 -5.29474 2.81811 0
M  V30 1611 H 141.765 -5.52558 3.36584 0
M  V30 1612 N 141.898 -0.863906 -1.31812 0
M  V30 1613 C 142.808 -0.318461 -2.32428 0
M  V30 1614 C 143.824 0.568496 -1.64451 0
M  V30 1615 O 145 0.46666 -1.95919 0
M  V30 1616 C 142.065 0.476355 -3.43412 0
M  V30 1617 C 141.126 -0.43784 -4.27061 0
M  V30 1618 C 140.359 0.319138 -5.32745 0
M  V30 1619 O 140.582 1.54799 -5.48993 0
M  V30 1620 O 139.516 -0.319861 -6.01049 0
M  V30 1621 H 143.342 -1.15229 -2.80991 0
M  V30 1622 H 140.927 -0.627103 -1.35602 0
M  V30 1623 H 142.809 0.927156 -4.11074 0
M  V30 1624 H 141.484 1.28683 -2.97022 0
M  V30 1625 H 140.391 -0.937013 -3.62175 0
M  V30 1626 H 141.724 -1.21375 -4.77 0
M  V30 1627 N 143.376 1.44774 -0.622745 0
M  V30 1628 C 144.601 2.06999 -0.128968 0
M  V30 1629 C 145.026 1.4617 1.1839 0
M  V30 1630 O 144.384 0.560007 1.72434 0
M  V30 1631 C 144.432 3.60595 -0.0188351 0
M  V30 1632 O 143.536 3.99398 1.02739 0
M  V30 1633 H 142.877 0.659047 -0.0809544 0
M  V30 1634 H 145.407 1.85784 -0.85705 0
M  V30 1635 H 145.417 4.07627 0.174476 0
M  V30 1636 H 144.092 4.04252 -0.977384 0
M  V30 1637 H 142.669 3.64011 0.809326 0
M  V30 1638 N 144.854 0.36279 1.53368 0
M  V30 1639 C 146.079 -0.231226 2.06107 0
M  V30 1640 C 146.504 -1.419 1.23474 0
M  V30 1641 O 145.862 -1.79524 0.253128 0
M  V30 1642 C 145.91 -0.605523 3.5548 0
M  V30 1643 O 145.014 -1.70312 3.7559 0
M  V30 1644 H 144.355 -0.034327 0.663112 0
M  V30 1645 H 146.885 0.522584 1.97814 0
M  V30 1646 H 146.895 -0.877314 3.98456 0
M  V30 1647 H 145.57 0.263004 4.15068 0
M  V30 1648 H 144.147 -1.4271 3.44512 0
M  V30 1649 N 146.332 -1.57332 0.0918853 0
M  V30 1650 C 147.262 -2.16872 -0.865371 0
M  V30 1651 C 148.243 -1.10118 -1.29646 0
M  V30 1652 O 149.428 -1.38242 -1.36392 0
M  V30 1653 C 146.558 -2.74649 -2.12569 0
M  V30 1654 C 145.512 -3.86747 -1.83333 0
M  V30 1655 C 144.838 -4.31212 -3.16166 0
M  V30 1656 C 146.138 -5.10089 -1.1228 0
M  V30 1657 H 147.832 -2.97114 -0.369307 0
M  V30 1658 H 145.378 -1.42918 -0.176194 0
M  V30 1659 H 147.331 -3.14952 -2.7997 0
M  V30 1660 H 146.055 -1.91657 -2.64452 0
M  V30 1661 H 144.714 -3.46978 -1.18331 0
M  V30 1662 H 144.362 -3.45115 -3.6593 0
M  V30 1663 H 144.062 -5.06788 -2.97388 0
M  V30 1664 H 145.586 -4.74146 -3.84731 0
M  V30 1665 H 147 -5.47582 -1.69785 0
M  V30 1666 H 145.397 -5.91073 -1.03693 0
M  V30 1667 H 146.467 -4.84786 -0.105041 0
M  V30 1668 N 147.81 0.181792 -1.56548 0
M  V30 1669 C 148.758 1.24461 -1.965 0
M  V30 1670 C 149.752 1.464 -0.852261 0
M  V30 1671 O 150.958 1.47103 -1.03733 0
M  V30 1672 H 147.333 0.418138 -0.625031 0
M  V30 1673 H 149.304 0.880714 -2.85107 0
M  V30 1674 C 148.053 2.57891 -2.33212 0
M  V30 1675 H 147.376 2.41829 -3.18369 0
M  V30 1676 H 148.816 3.3097 -2.65019 0
M  V30 1677 C 147.275 3.15871 -1.17163 0
M  V30 1678 O 147.805 3.9913 -0.453708 0
M  V30 1679 N 146.011 2.74808 -0.944936 0
M  V30 1680 H 145.558 2.07205 -1.53049 0
M  V30 1681 H 145.516 3.13939 -0.170286 0
M  V30 1682 N 149.288 1.51039 0.449983 0
M  V30 1683 C 150.218 1.74379 1.55288 0
M  V30 1684 C 151.199 0.593236 1.5942 0
M  V30 1685 O 152.384 0.834625 1.7535 0
M  V30 1686 C 149.514 1.85728 2.93466 0
M  V30 1687 C 148.468 3.01078 3.04197 0
M  V30 1688 C 147.794 2.97595 4.44231 0
M  V30 1689 C 149.094 4.41254 2.7945 0
M  V30 1690 H 150.788 2.66725 1.36008 0
M  V30 1691 H 148.334 1.2835 0.652864 0
M  V30 1692 H 150.287 2.0064 3.70569 0
M  V30 1693 H 149.011 0.900207 3.13949 0
M  V30 1694 H 147.67 2.85851 2.29531 0
M  V30 1695 H 147.318 1.99691 4.61663 0
M  V30 1696 H 147.018 3.75046 4.52343 0
M  V30 1697 H 148.542 3.14583 5.23326 0
M  V30 1698 H 149.956 4.56897 3.46292 0
M  V30 1699 H 148.353 5.20315 2.98985 0
M  V30 1700 H 149.423 4.52164 1.75144 0
M  V30 1701 N 150.766 -0.704594 1.40972 0
M  V30 1702 C 152.012 -1.46675 1.40051 0
M  V30 1703 C 152.345 -1.94199 0.00641102 0
M  V30 1704 O 151.62 -1.68916 -0.964235 0
M  V30 1705 C 151.903 -2.68505 2.39952 0
M  V30 1706 C 151.756 -2.26805 3.88432 0
M  V30 1707 C 153.075 -3.70686 2.37233 0
M  V30 1708 H 150.194 -0.532015 0.510028 0
M  V30 1709 H 152.836 -0.803255 1.72185 0
M  V30 1710 H 150.986 -3.25114 2.1268 0
M  V30 1711 H 152.658 -1.75592 4.26574 0
M  V30 1712 H 150.901 -1.58685 4.03734 0
M  V30 1713 H 151.572 -3.14181 4.53866 0
M  V30 1714 H 154.048 -3.23731 2.61415 0
M  V30 1715 H 152.924 -4.53553 3.09162 0
M  V30 1716 H 153.185 -4.19754 1.38777 0
M  V30 1717 N 152.244 -1.26651 -0.937939 0
M  V30 1718 C 153.469 -1.15279 -1.72411 0
M  V30 1719 C 153.894 0.287866 -1.85884 0
M  V30 1720 O 153.252 1.20855 -1.35143 0
M  V30 1721 C 153.3 -1.83028 -3.10698 0
M  V30 1722 O 152.404 -1.12128 -3.96864 0
M  V30 1723 H 151.745 -0.401504 -0.528858 0
M  V30 1724 H 154.275 -1.67531 -1.1745 0
M  V30 1725 H 154.285 -1.89981 -3.6107 0
M  V30 1726 H 152.96 -2.87833 -3.00208 0
M  V30 1727 H 151.537 -1.13173 -3.55312 0
M  V30 1728 N 153.722 1.14298 -1.08507 0
M  V30 1729 C 154.999 1.81544 -0.728088 0
M  V30 1730 C 155.379 1.95838 0.78808 0
M  V30 1731 O 154.727 1.51904 1.70697 0
M  V30 1732 C 154.937 3.17169 -1.45619 0
M  V30 1733 C 156.285 3.9265 -1.61591 0
M  V30 1734 O 157.309 3.26762 -1.41793 0
M  V30 1735 O 156.168 5.10807 -1.94263 0
M  V30 1736 H 153.262 0.78491 -0.260471 0
M  V30 1737 H 155.808 1.21307 -1.18671 0
M  V30 1738 H 154.58 3.01934 -2.489 0
M  V30 1739 H 154.203 3.851 -0.989124 0
M  V30 1740 N 155.201 0.870884 1.31352 0
M  V30 1741 C 156.447 0.482987 1.96965 0
M  V30 1742 C 156.78 -0.962462 1.68672 0
M  V30 1743 O 156.055 -1.6779 0.98371 0
M  V30 1744 C 156.338 0.741752 3.52378 0
M  V30 1745 C 156.191 2.2368 3.9024 0
M  V30 1746 C 157.51 0.208838 4.39604 0
M  V30 1747 H 154.629 0.176955 0.715441 0
M  V30 1748 H 157.271 1.09229 1.55464 0
M  V30 1749 H 155.421 0.223149 3.87859 0
M  V30 1750 H 157.093 2.82273 3.64856 0
M  V30 1751 H 155.336 2.70901 3.38814 0
M  V30 1752 H 156.007 2.3685 4.98604 0
M  V30 1753 H 158.483 0.652529 4.10952 0
M  V30 1754 H 157.359 0.419336 5.47296 0
M  V30 1755 H 157.62 -0.889275 4.33064 0
M  V30 1756 N 156.679 -1.44442 0.630414 0
M  V30 1757 C 157.589 -2.34476 -0.0761693 0
M  V30 1758 C 158.605 -1.52576 -0.836449 0
M  V30 1759 O 159.781 -1.85307 -0.788874 0
M  V30 1760 C 156.846 -3.30545 -1.04599 0
M  V30 1761 C 155.907 -4.28352 -0.28516 0
M  V30 1762 C 155.14 -5.19831 -1.20878 0
M  V30 1763 O 155.363 -5.15223 -2.44747 0
M  V30 1764 O 154.297 -5.97892 -0.693491 0
M  V30 1765 H 158.123 -2.96345 0.664324 0
M  V30 1766 H 155.708 -1.44203 0.39061 0
M  V30 1767 H 157.59 -3.89681 -1.60396 0
M  V30 1768 H 156.265 -2.7121 -1.76711 0
M  V30 1769 H 155.172 -3.72764 0.315837 0
M  V30 1770 H 156.505 -4.90605 0.395924 0
M  V30 1771 N 158.157 -0.370918 -1.53173 0
M  V30 1772 C 159.573 -0.0200818 -1.59587 0
M  V30 1773 C 159.773 1.46279 -1.38581 0
M  V30 1774 O 158.829 2.22506 -1.19363 0
M  V30 1775 C 160.142 -0.4808 -2.96831 0
M  V30 1776 C 161.69 -0.435477 -3.09956 0
M  V30 1777 C 162.165 -0.872092 -4.4962 0
M  V30 1778 N 163.656 -0.827364 -4.55751 0
M  V30 1779 C 164.391 -1.13683 -5.62018 0
M  V30 1780 N 163.887 -1.51584 -6.76014 0
M  V30 1781 N 165.68 -1.05927 -5.52029 0
M  V30 1782 H 157.831 -1.33652 -1.65079 0
M  V30 1783 H 160.094 -0.546634 -0.774529 0
M  V30 1784 H 159.8 -1.51577 -3.1736 0
M  V30 1785 H 159.674 0.129796 -3.76977 0
M  V30 1786 H 162.061 0.590371 -2.89134 0
M  V30 1787 H 162.142 -1.08164 -2.31806 0
M  V30 1788 H 161.786 -1.89608 -4.71181 0
M  V30 1789 H 161.716 -0.203127 -5.26208 0
M  V30 1790 H 164.207 -0.548216 -3.73902 0
M  V30 1791 H 164.52 -1.73609 -7.53047 0
M  V30 1792 H 162.865 -1.55454 -6.77391 0
M  V30 1793 H 166.056 -0.762321 -4.61851 0
M  V30 1794 H 166.229 -1.30378 -6.34749 0
M  V30 1795 N 159.635 1.57281 -0.100228 0
M  V30 1796 C 160.881 1.94826 0.563101 0
M  V30 1797 C 161.214 0.982475 1.67514 0
M  V30 1798 O 160.489 0.0164069 1.94493 0
M  V30 1799 C 160.772 3.42453 1.11346 0
M  V30 1800 C 160.625 4.498 0.00612081 0
M  V30 1801 C 161.944 3.91506 2.01024 0
M  V30 1802 H 159.063 0.708428 0.203221 0
M  V30 1803 H 161.705 1.8922 -0.171979 0
M  V30 1804 H 159.855 3.47361 1.7399 0
M  V30 1805 H 161.527 4.57 -0.628357 0
M  V30 1806 H 159.77 4.28756 -0.659581 0
M  V30 1807 H 160.441 5.50306 0.432109 0
M  V30 1808 H 162.917 3.88784 1.48278 0
M  V30 1809 H 161.793 4.95358 2.36457 0
M  V30 1810 H 162.054 3.31099 2.92961 0
M  V30 1811 N 161.113 -0.173488 1.56642 0
M  V30 1812 C 162.36 -0.890465 1.81871 0
M  V30 1813 C 162.688 -1.82339 0.67696 0
M  V30 1814 O 161.943 -1.92795 -0.335926 0
M  V30 1815 C 162.242 -1.72069 3.13252 0
M  V30 1816 C 161.908 -0.936878 4.41059 0
M  V30 1817 C 160.57 -0.720545 4.75775 0
M  V30 1818 C 162.922 -0.386919 5.19762 0
M  V30 1819 C 160.25 0.0568829 5.86672 0
M  V30 1820 C 162.602 0.37741 6.31473 0
M  V30 1821 C 161.266 0.604563 6.64757 0
M  V30 1822 H 160.536 -0.325844 0.665512 0
M  V30 1823 H 163.183 -0.155527 1.90867 0
M  V30 1824 H 161.488 -2.52496 2.99588 0
M  V30 1825 H 163.185 -2.27844 3.29982 0
M  V30 1826 H 159.775 -1.11553 4.13828 0
M  V30 1827 H 163.959 -0.541398 4.93338 0
M  V30 1828 H 159.215 0.242635 6.10918 0
M  V30 1829 H 163.389 0.810825 6.91664 0
M  V30 1830 H 161.016 1.20885 7.50527 0
M  V30 1831 N 162.591 -1.51276 -0.441967 0
M  V30 1832 C 163.84 -1.6295 -1.18871 0
M  V30 1833 C 164.153 -0.349312 -1.92456 0
M  V30 1834 O 165.359 -0.345355 -2.69295 0
M  V30 1835 C 163.815 -2.87759 -2.16155 0
M  V30 1836 C 163.423 -4.22764 -1.48239 0
M  V30 1837 C 165.167 -3.08788 -2.91291 0
M  V30 1838 C 163.074 -5.38728 -2.4398 0
M  V30 1839 H 162.004 -0.606913 -0.447406 0
M  V30 1840 H 164.655 -1.77739 -0.456205 0
M  V30 1841 H 163.037 -2.66593 -2.92821 0
M  V30 1842 H 164.211 -4.54293 -0.771635 0
M  V30 1843 H 162.526 -4.07575 -0.852741 0
M  V30 1844 H 165.123 -3.92599 -3.63002 0
M  V30 1845 H 165.466 -2.21679 -3.5237 0
M  V30 1846 H 165.999 -3.30272 -2.21733 0
M  V30 1847 H 162.738 -6.28082 -1.87598 0
M  V30 1848 H 162.258 -5.1158 -3.13123 0
M  V30 1849 H 163.937 -5.70489 -3.05207 0
M  V30 1850 N 164.069 0.697108 -1.41344 0
M  V30 1851 C 165.318 1.45279 -1.39918 0
M  V30 1852 C 165.631 1.95597 -0.0109624 0
M  V30 1853 O 166.837 2.71208 0.125919 0
M  V30 1854 C 165.293 2.62695 -2.46007 0
M  V30 1855 C 164.901 2.19169 -3.90729 0
M  V30 1856 C 166.645 3.40336 -2.53715 0
M  V30 1857 C 164.552 3.33535 -4.88373 0
M  V30 1858 H 163.482 0.545692 -0.520323 0
M  V30 1859 H 166.133 0.756929 -1.67161 0
M  V30 1860 H 164.515 3.34541 -2.11892 0
M  V30 1861 H 165.689 1.54623 -4.34083 0
M  V30 1862 H 164.004 1.54525 -3.86666 0
M  V30 1863 H 166.601 4.2547 -3.2385 0
M  V30 1864 H 166.944 3.85418 -1.5735 0
M  V30 1865 H 167.477 2.75546 -2.86913 0
M  V30 1866 H 164.216 2.93468 -5.86137 0
M  V30 1867 H 163.736 3.96936 -4.49668 0
M  V30 1868 H 165.415 3.99335 -5.09059 0
M  V30 1869 N 165.547 1.27147 0.931209 0
M  V30 1870 C 166.795 1.13055 1.6752 0
M  V30 1871 C 167.116 -0.324791 1.92276 0
M  V30 1872 O 166.386 -1.22775 1.52654 0
M  V30 1873 H 164.966 0.415391 0.620854 0
M  V30 1874 H 167.628 1.59623 1.11833 0
M  V30 1875 H 166.724 1.65694 2.64485 0
M  V30 1876 N 167.025 -1.13721 1.09112 0
M  V30 1877 C 168.273 -1.84559 0.823562 0
M  V30 1878 C 168.594 -1.83754 -0.652658 0
M  V30 1879 O 167.864 -1.29102 -1.47342 0
M  V30 1880 H 166.444 -0.683376 0.301673 0
M  V30 1881 H 169.106 -1.37771 1.37859 0
M  V30 1882 H 168.202 -2.8917 1.17419 0
M  V30 1883 N 168.503 -0.877838 -1.30888 0
M  V30 1884 C 169.466 -0.344265 -2.266 0
M  V30 1885 C 170.466 0.50922 -1.52524 0
M  V30 1886 O 171.656 0.317398 -1.71284 0
M  V30 1887 C 168.788 0.510198 -3.37061 0
M  V30 1888 H 169.981 -1.1893 -2.7531 0
M  V30 1889 H 167.534 -0.654088 -1.41956 0
M  V30 1890 H 168.269 1.37612 -2.93655 0
M  V30 1891 H 168.054 -0.101047 -3.9197 0
M  V30 1892 H 169.544 0.875537 -4.08319 0
M  V30 1893 N 169.982 1.44106 -0.638065 0
M  V30 1894 C 170.892 2.34513 0.0637334 0
M  V30 1895 C 171.908 1.53018 0.828346 0
M  V30 1896 O 173.084 1.85723 0.779036 0
M  V30 1897 C 170.149 3.31095 1.02844 0
M  V30 1898 C 169.21 4.28497 0.26244 0
M  V30 1899 C 168.443 5.20465 1.1812 0
M  V30 1900 O 168.666 5.16514 2.42011 0
M  V30 1901 O 167.6 5.98251 0.661774 0
M  V30 1902 H 171.426 2.95989 -0.68003 0
M  V30 1903 H 169.011 1.43994 -0.398252 0
M  V30 1904 H 170.893 3.90526 1.58327 0
M  V30 1905 H 169.568 2.72144 1.7527 0
M  V30 1906 H 168.475 3.72592 -0.335602 0
M  V30 1907 H 169.808 4.90388 -0.421936 0
M  V30 1908 N 171.46 0.379036 1.52974 0
M  V30 1909 C 172.709 -0.207612 2.00629 0
M  V30 1910 C 173.022 -1.48758 1.27006 0
M  V30 1911 O 174.228 -2.15365 1.65318 0
M  V30 1912 C 172.684 -0.42053 3.57435 0
M  V30 1913 C 172.292 0.845587 4.39948 0
M  V30 1914 C 174.036 -0.964102 4.13407 0
M  V30 1915 C 171.943 0.601513 5.88333 0
M  V30 1916 H 170.873 -0.0813591 0.749598 0
M  V30 1917 H 173.524 0.499853 1.76561 0
M  V30 1918 H 171.906 -1.18959 3.7771 0
M  V30 1919 H 173.08 1.61848 4.31442 0
M  V30 1920 H 171.395 1.31336 3.95145 0
M  V30 1921 H 173.992 -1.16225 5.21916 0
M  V30 1922 H 174.335 -1.93019 3.68849 0
M  V30 1923 H 174.868 -0.25487 3.96983 0
M  V30 1924 H 171.607 1.53831 6.37194 0
M  V30 1925 H 171.127 -0.132628 5.99653 0
M  V30 1926 H 172.806 0.232134 6.46583 0
M  V30 1927 N 172.938 -1.57226 0.108567 0
M  V30 1928 C 174.168 -1.9889 -0.559142 0
M  V30 1929 C 174.576 -0.986889 -1.61422 0
M  V30 1930 O 173.919 0.0298705 -1.83676 0
M  V30 1931 C 173.981 -3.36952 -1.25315 0
M  V30 1932 C 173.645 -4.55679 -0.347248 0
M  V30 1933 C 174.642 -5.18281 0.409996 0
M  V30 1934 C 172.327 -5.0162 -0.261367 0
M  V30 1935 C 174.321 -6.25203 1.24096 0
M  V30 1936 C 172.008 -6.08405 0.573238 0
M  V30 1937 C 173.006 -6.70063 1.32304 0
M  V30 1938 O 172.694 -7.74788 2.14381 0
M  V30 1939 H 172.426 -0.658343 -0.153492 0
M  V30 1940 H 174.98 -2.04532 0.188584 0
M  V30 1941 H 173.21 -3.28032 -2.04773 0
M  V30 1942 H 174.899 -3.62974 -1.81673 0
M  V30 1943 H 175.665 -4.8371 0.353457 0
M  V30 1944 H 171.544 -4.53381 -0.834656 0
M  V30 1945 H 175.088 -6.73259 1.82669 0
M  V30 1946 H 170.985 -6.42406 0.631208 0
M  V30 1947 H 171.753 -7.91837 2.07209 0
M  V30 1948 N 174.416 0.165178 -1.56732 0
M  V30 1949 C 175.364 1.22369 -1.97809 0
M  V30 1950 C 176.358 1.45488 -0.867741 0
M  V30 1951 O 177.564 1.45995 -1.05288 0
M  V30 1952 H 173.939 0.411486 -0.629431 0
M  V30 1953 H 175.91 0.850425 -2.86025 0
M  V30 1954 C 174.659 2.55403 -2.35934 0
M  V30 1955 H 173.982 2.38438 -3.20916 0
M  V30 1956 H 175.422 3.2814 -2.68514 0
M  V30 1957 C 173.881 3.14611 -1.20506 0
M  V30 1958 O 174.411 3.98626 -0.496016 0
M  V30 1959 N 172.617 2.7379 -0.97403 0
M  V30 1960 H 172.164 2.0557 -1.55238 0
M  V30 1961 H 172.122 3.1374 -0.203573 0
M  V30 1962 N 175.894 1.51508 0.433938 0
M  V30 1963 C 176.804 1.75917 1.5521 0
M  V30 1964 C 177.82 0.643545 1.61662 0
M  V30 1965 O 178.996 0.926183 1.7884 0
M  V30 1966 C 176.061 1.88213 2.91164 0
M  V30 1967 C 175.122 3.12074 2.94802 0
M  V30 1968 C 174.355 3.23774 4.24271 0
M  V30 1969 O 174.578 2.4133 5.16833 0
M  V30 1970 O 173.512 4.16774 4.34262 0
M  V30 1971 H 177.338 2.70777 1.37527 0
M  V30 1972 H 174.923 1.36051 0.617293 0
M  V30 1973 H 176.805 1.98267 3.71845 0
M  V30 1974 H 175.48 0.965413 3.08968 0
M  V30 1975 H 174.387 3.07497 2.13065 0
M  V30 1976 H 175.72 4.03446 2.81943 0
M  V30 1977 N 177.372 -0.689602 1.41712 0
M  V30 1978 C 178.302 -1.81577 1.46806 0
M  V30 1979 C 179.283 -1.66945 0.326105 0
M  V30 1980 O 180.468 -1.86588 0.538377 0
M  V30 1981 C 177.598 -3.19762 1.35535 0
M  V30 1982 C 176.552 -3.49107 2.47605 0
M  V30 1983 C 175.878 -4.86711 2.21397 0
M  V30 1984 C 177.178 -3.47483 3.89939 0
M  V30 1985 H 178.872 -1.7757 2.41058 0
M  V30 1986 H 176.418 -0.852887 1.16025 0
M  V30 1987 H 178.371 -3.98263 1.3771 0
M  V30 1988 H 177.095 -3.24409 0.377708 0
M  V30 1989 H 175.754 -2.72959 2.44722 0
M  V30 1990 H 175.402 -4.8799 1.21961 0
M  V30 1991 H 175.102 -5.0731 2.96497 0
M  V30 1992 H 176.626 -5.67515 2.25297 0
M  V30 1993 H 178.04 -4.1598 3.94505 0
M  V30 1994 H 176.437 -3.79615 4.64771 0
M  V30 1995 H 177.507 -2.46341 4.17665 0
M  V30 1996 N 178.85 -1.27639 -0.924453 0
M  V30 1997 C 180.099 -1.13549 -1.66702 0
M  V30 1998 C 180.412 0.317487 -1.93006 0
M  V30 1999 O 181.618 0.579333 -2.65247 0
M  V30 2000 C 180.074 -1.98426 -3.00259 0
M  V30 2001 C 179.682 -3.484 -2.81641 0
M  V30 2002 C 181.426 -1.92993 -3.78092 0
M  V30 2003 C 179.333 -4.25464 -4.10773 0
M  V30 2004 H 178.263 -0.421351 -0.625283 0
M  V30 2005 H 180.914 -1.52085 -1.02676 0
M  V30 2006 H 179.296 -1.52736 -3.6536 0
M  V30 2007 H 180.47 -4.01973 -2.25287 0
M  V30 2008 H 178.785 -3.55245 -2.17232 0
M  V30 2009 H 181.382 -2.47844 -4.7379 0
M  V30 2010 H 181.725 -0.904281 -4.0636 0
M  V30 2011 H 182.258 -2.36595 -3.19793 0
M  V30 2012 H 178.997 -5.28566 -3.87683 0
M  V30 2013 H 178.517 -3.76667 -4.66779 0
M  V30 2014 H 180.196 -4.34812 -4.79111 0
M  V30 2015 N 180.328 1.1314 -1.09713 0
M  V30 2016 C 181.276 2.20717 -0.733934 0
M  V30 2017 C 182.27 1.6729 0.266506 0
M  V30 2018 O 183.476 1.79547 0.127656 0
M  V30 2019 H 179.851 0.719292 -0.21937 0
M  V30 2020 H 181.822 2.48611 -1.6503 0
M  V30 2021 C 180.571 3.47265 -0.173849 0
M  V30 2022 H 179.894 3.88716 -0.934873 0
M  V30 2023 H 181.334 4.23979 0.0423126 0
M  V30 2024 C 179.793 3.18724 1.09164 0
M  V30 2025 O 180.323 3.37762 2.17439 0
M  V30 2026 N 178.529 2.72583 1.00732 0
M  V30 2027 H 178.076 2.57291 0.126121 0
M  V30 2028 H 178.034 2.53862 1.85476 0
M  V30 2029 N 181.806 0.884767 1.30421 0
M  V30 2030 C 182.754 0.340869 2.30089 0
M  V30 2031 C 183.748 -0.55201 1.60154 0
M  V30 2032 O 184.954 -0.436467 1.74628 0
M  V30 2033 H 181.329 0.0915739 0.746404 0
M  V30 2034 H 183.3 1.19513 2.73421 0
M  V30 2035 C 182.049 -0.429779 3.45034 0
M  V30 2036 H 181.372 0.248024 3.9903 0
M  V30 2037 H 182.812 -0.775445 4.16849 0
M  V30 2038 C 181.271 -1.62677 2.95022 0
M  V30 2039 O 181.801 -2.72614 2.95033 0
M  V30 2040 N 180.007 -1.46387 2.51036 0
M  V30 2041 H 179.554 -0.569506 2.51226 0
M  V30 2042 H 179.512 -2.26612 2.17932 0
M  V30 2043 N 183.284 -1.43765 0.645699 0
M  V30 2044 C 184.509 -2.06767 0.161883 0
M  V30 2045 C 184.934 -1.48034 -1.16049 0
M  V30 2046 O 184.292 -0.587369 -1.71522 0
M  V30 2047 C 184.34 -3.60519 0.0762003 0
M  V30 2048 O 183.444 -4.00982 -0.963721 0
M  V30 2049 H 182.785 -0.657675 0.091429 0
M  V30 2050 H 185.315 -1.84397 0.886499 0
M  V30 2051 H 185.325 -4.07853 -0.109604 0
M  V30 2052 H 184 -4.02646 1.04157 0
M  V30 2053 H 182.577 -3.65253 -0.751312 0
M  V30 2054 N 184.763 -0.387143 -1.52771 0
M  V30 2055 C 185.693 0.440551 -2.29306 0
M  V30 2056 C 186.674 1.06535 -1.32606 0
M  V30 2057 O 187.859 1.07853 -1.61497 0
M  V30 2058 C 184.989 1.56919 -3.09829 0
M  V30 2059 C 183.943 1.07054 -4.14395 0
M  V30 2060 C 183.269 2.29109 -4.83129 0
M  V30 2061 C 184.569 0.140015 -5.22112 0
M  V30 2062 H 186.263 -0.198026 -2.98744 0
M  V30 2063 H 183.809 -0.09668 -1.43675 0
M  V30 2064 H 185.762 2.15503 -3.62128 0
M  V30 2065 H 184.486 2.23532 -2.3812 0
M  V30 2066 H 183.145 0.507247 -3.63074 0
M  V30 2067 H 182.793 2.94227 -4.0797 0
M  V30 2068 H 182.493 1.96406 -5.53804 0
M  V30 2069 H 184.017 2.88339 -5.38231 0
M  V30 2070 H 185.431 0.633978 -5.69784 0
M  V30 2071 H 183.828 -0.0971485 -6.00021 0
M  V30 2072 H 184.898 -0.811711 -4.78058 0
M  V30 2073 N 186.241 1.57166 -0.116904 0
M  V30 2074 C 187.487 1.95412 0.542405 0
M  V30 2075 C 187.82 1.00019 1.66463 0
M  V30 2076 O 187.095 0.0370346 1.94465 0
M  V30 2077 C 187.378 3.43615 1.07708 0
M  V30 2078 C 187.231 4.49781 -0.0415868 0
M  V30 2079 C 188.55 3.93616 1.96861 0
M  V30 2080 H 185.669 0.710543 0.195696 0
M  V30 2081 H 188.311 1.89027 -0.192038 0
M  V30 2082 H 186.461 3.49187 1.70296 0
M  V30 2083 H 188.133 4.56308 -0.676793 0
M  V30 2084 H 186.376 4.28033 -0.705019 0
M  V30 2085 H 187.047 5.50733 0.373717 0
M  V30 2086 H 189.523 3.90335 1.44146 0
M  V30 2087 H 188.399 4.97838 2.3119 0
M  V30 2088 H 188.66 3.34188 2.89432 0
M  V30 2089 N 187.719 -0.156864 1.56817 0
M  V30 2090 C 188.944 -0.890331 1.87318 0
M  V30 2091 C 189.369 -1.74394 0.704855 0
M  V30 2092 O 188.727 -1.77972 -0.345786 0
M  V30 2093 C 188.775 -1.73102 3.16336 0
M  V30 2094 O 187.879 -2.83422 2.99576 0
M  V30 2095 H 187.22 -0.24857 0.615718 0
M  V30 2096 H 189.75 -0.150649 2.04045 0
M  V30 2097 H 189.76 -2.12803 3.48107 0
M  V30 2098 H 188.435 -1.10412 4.00976 0
M  V30 2099 H 187.012 -2.47199 2.7919 0
M  V30 2100 N 189.197 -1.51736 -0.425897 0
M  V30 2101 C 190.147 -1.70258 -1.51645 0
M  V30 2102 C 191.131 -0.556488 -1.5097 0
M  V30 2103 O 192.323 -0.812879 -1.5723 0
M  V30 2104 C 189.452 -1.84143 -2.89735 0
M  V30 2105 C 188.538 -3.04572 -2.95122 0
M  V30 2106 N 188.929 -4.2756 -2.70233 0
M  V30 2107 C 187.227 -3.04061 -3.26286 0
M  V30 2108 C 187.928 -5.08908 -2.81757 0
M  V30 2109 N 186.904 -4.43797 -3.13919 0
M  V30 2110 H 190.706 -2.63004 -1.31172 0
M  V30 2111 H 188.22 -1.4954 -0.633375 0
M  V30 2112 H 190.217 -1.95525 -3.68206 0
M  V30 2113 H 188.877 -0.925857 -3.1122 0
M  V30 2114 H 189.888 -4.56315 -2.44943 0
M  V30 2115 H 186.565 -2.22179 -3.53473 0
M  V30 2116 H 187.955 -6.16843 -2.66372 0
M  V30 2117 N 190.675 0.682077 -1.42076 0
M  V30 2118 C 191.605 1.80796 -1.47767 0
M  V30 2119 C 192.586 1.6677 -0.334954 0
M  V30 2120 O 193.771 1.863 -0.548264 0
M  V30 2121 C 190.901 3.19038 -1.37229 0
M  V30 2122 C 189.855 3.47789 -2.49453 0
M  V30 2123 C 189.181 4.8553 -2.23975 0
M  V30 2124 C 190.481 3.45411 -3.91776 0
M  V30 2125 H 192.175 1.7629 -2.41997 0
M  V30 2126 H 189.721 0.846721 -1.16476 0
M  V30 2127 H 191.674 3.97528 -1.39821 0
M  V30 2128 H 190.398 3.24204 -0.394907 0
M  V30 2129 H 189.057 2.71657 -2.46166 0
M  V30 2130 H 188.705 4.87337 -1.24547 0
M  V30 2131 H 188.405 5.0573 -2.99184 0
M  V30 2132 H 189.929 5.66312 -2.28304 0
M  V30 2133 H 191.343 4.13882 -3.96705 0
M  V30 2134 H 189.74 3.77145 -4.66778 0
M  V30 2135 H 190.81 2.44122 -4.18966 0
M  V30 2136 N 192.153 1.28127 0.917671 0
M  V30 2137 C 193.083 1.14248 2.03641 0
M  V30 2138 C 194.064 0.0412748 1.7005 0
M  V30 2139 O 195.249 0.217566 1.92977 0
M  V30 2140 C 192.379 0.799431 3.37974 0
M  V30 2141 C 191.333 1.85497 3.85713 0
M  V30 2142 C 190.659 1.36565 5.16966 0
M  V30 2143 C 191.959 3.26085 4.08002 0
M  V30 2144 H 193.653 2.07835 2.15511 0
M  V30 2145 H 191.199 1.00064 1.03553 0
M  V30 2146 H 193.152 0.689114 4.15727 0
M  V30 2147 H 191.876 -0.172145 3.26146 0
M  V30 2148 H 190.535 1.95437 3.10161 0
M  V30 2149 H 190.183 0.383253 5.01538 0
M  V30 2150 H 189.883 2.07143 5.49878 0
M  V30 2151 H 191.407 1.26848 5.97279 0
M  V30 2152 H 192.821 3.19089 4.76293 0
M  V30 2153 H 191.218 3.94462 4.52238 0
M  V30 2154 H 192.288 3.70394 3.12948 0
M  V30 2155 N 193.631 -1.12557 1.10312 0
M  V30 2156 C 194.88 -1.83395 0.839588 0
M  V30 2157 C 195.193 -1.84939 -0.636929 0
M  V30 2158 O 196.399 -2.51761 -1.01631 0
M  V30 2159 C 194.855 -3.29303 1.45215 0
M  V30 2160 C 194.463 -3.36122 2.96186 0
M  V30 2161 C 196.207 -4.05121 1.26796 0
M  V30 2162 C 194.114 -4.76357 3.50483 0
M  V30 2163 H 193.044 -0.687133 0.310425 0
M  V30 2164 H 195.695 -1.26746 1.32694 0
M  V30 2165 H 194.077 -3.85812 0.892469 0
M  V30 2166 H 195.251 -2.89559 3.58458 0
M  V30 2167 H 193.566 -2.73776 3.13745 0
M  V30 2168 H 196.163 -5.08668 1.64806 0
M  V30 2169 H 196.506 -4.15773 0.209409 0
M  V30 2170 H 197.039 -3.54967 1.79563 0
M  V30 2171 H 193.778 -4.70899 4.55998 0
M  V30 2172 H 193.298 -5.23377 2.92978 0
M  V30 2173 H 194.977 -5.45294 3.48228 0
M  V30 2174 N 195.109 -0.891671 -1.2995 0
M  V30 2175 C 196.337 -0.52866 -2.00032 0
M  V30 2176 C 196.752 0.884574 -1.66795 0
M  V30 2177 O 196.109 1.5827 -0.908669 0
M  V30 2178 C 196.16 -0.701814 -3.54622 0
M  V30 2179 O 195.881 -2.05942 -3.86678 0
M  V30 2180 C 197.382 -0.342683 -4.41973 0
M  V30 2181 H 194.602 -0.203659 -0.639347 0
M  V30 2182 H 197.146 -1.19881 -1.65677 0
M  V30 2183 H 195.301 -0.0789468 -3.8732 0
M  V30 2184 H 195.715 -2.08291 -4.81368 0
M  V30 2185 H 197.189 -0.514709 -5.49595 0
M  V30 2186 H 197.666 0.71975 -4.33262 0
M  V30 2187 H 198.272 -0.942154 -4.14733 0
M  V30 2188 N 196.587 1.43421 -0.653314 0
M  V30 2189 C 197.497 2.34568 0.0388565 0
M  V30 2190 C 198.513 1.53888 0.81207 0
M  V30 2191 O 199.689 1.86539 0.759294 0
M  V30 2192 C 196.754 3.32167 0.993269 0
M  V30 2193 C 195.815 4.28751 0.216977 0
M  V30 2194 C 195.048 5.21688 1.12593 0
M  V30 2195 O 195.271 5.19052 2.36519 0
M  V30 2196 O 194.205 5.98919 0.598284 0
M  V30 2197 H 198.031 2.95251 -0.711386 0
M  V30 2198 H 195.616 1.43564 -0.413502 0
M  V30 2199 H 197.498 3.92183 1.54176 0
M  V30 2200 H 196.173 2.73987 1.72374 0
M  V30 2201 H 195.08 3.72215 -0.375101 0
M  V30 2202 H 196.413 4.89913 -0.473924 0
M  V30 2203 N 198.065 0.39524 1.52563 0
M  V30 2204 C 199.314 -0.186321 2.00838 0
M  V30 2205 C 199.627 -1.47402 1.28577 0
M  V30 2206 O 200.833 -2.13599 1.67593 0
M  V30 2207 C 199.289 -0.382595 3.57861 0
M  V30 2208 C 198.897 0.892202 4.39026 0
M  V30 2209 C 200.641 -0.9202 4.14406 0
M  V30 2210 C 198.548 0.66388 5.87662 0
M  V30 2211 H 197.478 -0.0734041 0.750418 0
M  V30 2212 H 200.129 0.518552 1.76021 0
M  V30 2213 H 198.511 -1.14946 3.7895 0
M  V30 2214 H 199.685 1.66414 4.29701 0
M  V30 2215 H 198 1.35519 3.9373 0
M  V30 2216 H 200.597 -1.10683 5.23119 0
M  V30 2217 H 200.94 -1.89096 3.70875 0
M  V30 2218 H 201.473 -0.212751 3.97231 0
M  V30 2219 H 198.212 1.6058 6.35527 0
M  V30 2220 H 197.732 -0.0690193 5.9976 0
M  V30 2221 H 199.411 0.300699 6.46301 0
M  V30 2222 N 199.544 -1.57102 0.125237 0
M  V30 2223 C 200.454 -2.19191 -0.8362 0
M  V30 2224 C 201.47 -1.16985 -1.28805 0
M  V30 2225 O 202.646 -1.49479 -1.34974 0
M  V30 2226 C 199.711 -2.78407 -2.06617 0
M  V30 2227 C 198.772 -3.9567 -1.66565 0
M  V30 2228 C 198.005 -4.52052 -2.83698 0
M  V30 2229 O 198.228 -4.07326 -3.99302 0
M  V30 2230 O 197.162 -5.42645 -2.60423 0
M  V30 2231 H 200.988 -3.01816 -0.337776 0
M  V30 2232 H 198.573 -1.4906 -0.100695 0
M  V30 2233 H 200.455 -3.16129 -2.7864 0
M  V30 2234 H 199.13 -1.9881 -2.55453 0
M  V30 2235 H 198.037 -3.62705 -0.916296 0
M  V30 2236 H 199.37 -4.76722 -1.22464 0
M  V30 2237 N 201.022 0.148545 -1.56898 0
M  V30 2238 C 201.972 1.1886 -1.94567 0
M  V30 2239 C 202.956 1.3863 -0.816735 0
M  V30 2240 O 204.148 1.40218 -1.08018 0
M  V30 2241 C 201.277 2.52262 -2.32849 0
M  V30 2242 C 200.363 2.36092 -3.52309 0
M  V30 2243 N 200.754 1.89674 -4.6889 0
M  V30 2244 C 199.052 2.66848 -3.57363 0
M  V30 2245 C 199.753 1.86511 -5.50989 0
M  V30 2246 N 198.729 2.29766 -4.92655 0
M  V30 2247 H 202.531 0.821793 -2.82177 0
M  V30 2248 H 200.045 0.356615 -1.58436 0
M  V30 2249 H 202.042 3.27447 -2.58039 0
M  V30 2250 H 200.702 2.89727 -1.46589 0
M  V30 2251 H 201.713 1.59663 -4.92674 0
M  V30 2252 H 198.39 3.08198 -2.81639 0
M  V30 2253 H 199.78 1.52128 -6.54452 0
M  V30 2254 N 202.5 1.5196 0.417844 0
M  V30 2255 C 203.911 1.57851 0.997 0
M  V30 2256 C 204.262 0.413714 1.91789 0
M  V30 2257 O 203.387 -0.467057 2.113 0
M  V30 2258 C 203.982 2.86085 1.81496 0
M  V30 2259 C 202.541 2.94483 2.34428 0
M  V30 2260 C 201.688 2.52707 1.14169 0
M  V30 2261 H 204.639 1.57455 0.198392 0
M  V30 2262 H 204.66 2.70947 2.67148 0
M  V30 2263 H 204.172 3.70842 1.14446 0
M  V30 2264 H 202.273 2.142 3.04875 0
M  V30 2265 H 202.386 3.98546 2.65891 0
M  V30 2266 H 200.75 2.06353 1.49301 0
M  V30 2267 H 201.533 3.39828 0.486999 0
M  V30 2268 N 203.978 -0.674533 1.42435 0
M  V30 2269 C 205.203 -1.46784 1.46524 0
M  V30 2270 C 205.628 -1.87938 0.078066 0
M  V30 2271 O 204.986 -1.56014 -0.92354 0
M  V30 2272 C 205.034 -2.69307 2.39805 0
M  V30 2273 O 204.138 -3.67587 1.86959 0
M  V30 2274 H 203.479 -0.440959 0.496439 0
M  V30 2275 H 206.009 -0.827326 1.87127 0
M  V30 2276 H 206.019 -3.17374 2.56393 0
M  V30 2277 H 204.694 -2.38692 3.40586 0
M  V30 2278 H 203.271 -3.2662 1.79927 0
M  V30 2279 N 205.456 -1.28612 -0.910864 0
M  V30 2280 C 206.867 -1.14406 -1.47541 0
M  V30 2281 C 207.218 0.264901 -1.94403 0
M  V30 2282 O 206.343 1.15942 -1.82719 0
M  V30 2283 C 206.938 -2.07073 -2.68153 0
M  V30 2284 C 205.497 -1.96923 -3.20778 0
M  V30 2285 C 204.644 -1.98646 -1.93481 0
M  V30 2286 H 207.595 -1.41259 -0.723291 0
M  V30 2287 H 207.616 -1.63642 -3.43514 0
M  V30 2288 H 207.128 -3.09611 -2.34015 0
M  V30 2289 H 205.229 -0.97433 -3.59635 0
M  V30 2290 H 205.342 -2.84026 -3.85832 0
M  V30 2291 H 203.706 -1.43093 -2.10705 0
M  V30 2292 H 204.489 -3.02868 -1.61634 0
M  V30 2293 N 206.934 1.1197 -1.10907 0
M  V30 2294 C 207.844 2.21433 -0.774896 0
M  V30 2295 C 208.86 1.72478 0.229657 0
M  V30 2296 O 210.036 2.01288 0.0672008 0
M  V30 2297 C 207.101 3.4602 -0.216986 0
M  V30 2298 C 206.162 4.09791 -1.27944 0
M  V30 2299 C 205.395 5.28431 -0.748055 0
M  V30 2300 O 205.618 5.68823 0.423833 0
M  V30 2301 O 204.552 5.82644 -1.51027 0
M  V30 2302 H 208.378 2.5242 -1.68873 0
M  V30 2303 H 205.963 1.20399 -0.884555 0
M  V30 2304 H 207.845 4.21304 0.090059 0
M  V30 2305 H 206.52 3.16698 0.669633 0
M  V30 2306 H 205.427 3.36265 -1.63941 0
M  V30 2307 H 206.76 4.4328 -2.13925 0
M  V30 2308 N 208.412 0.89855 1.29475 0
M  V30 2309 C 209.637 0.538561 2.00285 0
M  V30 2310 C 210.062 -0.869135 1.66816 0
M  V30 2311 O 209.42 -1.57831 0.892145 0
M  V30 2312 C 209.468 0.736475 3.52999 0
M  V30 2313 O 208.572 -0.211537 4.11857 0
M  V30 2314 H 207.913 0.210563 0.62973 0
M  V30 2315 H 210.443 1.20982 1.64998 0
M  V30 2316 H 210.453 0.640685 4.02938 0
M  V30 2317 H 209.128 1.76276 3.76696 0
M  V30 2318 H 207.705 -0.0682991 3.72837 0
M  V30 2319 N 209.89 -1.43072 0.660911 0
M  V30 2320 C 211.139 -2.00942 0.174735 0
M  V30 2321 C 211.452 -1.52797 -1.22117 0
M  V30 2322 O 212.658 -2.02991 -1.80297 0
M  V30 2323 C 211.114 -3.58948 0.261559 0
M  V30 2324 C 210.722 -4.16085 1.66064 0
M  V30 2325 C 212.466 -4.24173 -0.166617 0
M  V30 2326 C 210.373 -5.6641 1.70098 0
M  V30 2327 H 209.303 -0.751483 0.0615631 0
M  V30 2328 H 211.954 -1.63955 0.824069 0
M  V30 2329 H 210.336 -3.93372 -0.455421 0
M  V30 2330 H 211.51 -3.93147 2.40359 0
M  V30 2331 H 209.825 -3.6326 2.03546 0
M  V30 2332 H 212.422 -5.34471 -0.156433 0
M  V30 2333 H 212.765 -3.98647 -1.19943 0
M  V30 2334 H 213.298 -3.94659 0.498875 0
M  V30 2335 H 210.037 -5.96715 2.71315 0
M  V30 2336 H 209.557 -5.91382 1.00139 0
M  V30 2337 H 211.236 -6.30585 1.44816 0
M  V30 2338 N 211.368 -0.403325 -1.52352 0
M  V30 2339 C 212.278 0.432009 -2.30588 0
M  V30 2340 C 213.294 1.05884 -1.38075 0
M  V30 2341 O 214.47 1.06161 -1.71148 0
M  V30 2342 C 211.535 1.53669 -3.10784 0
M  V30 2343 C 210.596 0.933525 -4.19027 0
M  V30 2344 C 209.829 1.98557 -4.9539 0
M  V30 2345 O 210.052 3.20283 -4.71991 0
M  V30 2346 O 208.986 1.59504 -5.80381 0
M  V30 2347 H 212.812 -0.205739 -3.03002 0
M  V30 2348 H 210.397 -0.166675 -1.48467 0
M  V30 2349 H 212.279 2.17814 -3.60742 0
M  V30 2350 H 210.954 2.15915 -2.41169 0
M  V30 2351 H 209.861 0.254954 -3.7323 0
M  V30 2352 H 211.194 0.35508 -4.90918 0
M  V30 2353 N 212.846 1.57033 -0.133567 0
M  V30 2354 C 213.779 2.11824 0.848872 0
M  V30 2355 C 214.757 1.03833 1.2513 0
M  V30 2356 O 215.941 1.31579 1.34978 0
M  V30 2357 C 213.068 2.62692 2.138 0
M  V30 2358 C 212.114 3.82705 1.88253 0
M  V30 2359 S 212.947 5.2438 1.08563 0
M  V30 2360 C 214.103 5.78627 2.38624 0
M  V30 2361 H 214.336 2.94824 0.38289 0
M  V30 2362 H 211.869 1.5419 0.0804796 0
M  V30 2363 H 213.827 2.92652 2.87863 0
M  V30 2364 H 212.488 1.79847 2.57515 0
M  V30 2365 H 211.681 4.16496 2.83809 0
M  V30 2366 H 211.283 3.53437 1.22305 0
M  V30 2367 H 213.575 5.8924 3.34369 0
M  V30 2368 H 214.518 6.76443 2.09358 0
M  V30 2369 H 214.926 5.06783 2.48658 0
M  V30 2370 N 214.325 -0.140222 1.56975 0
M  V30 2371 C 215.602 -0.880769 1.74648 0
M  V30 2372 C 215.982 -1.99036 0.703404 0
M  V30 2373 O 215.33 -2.26821 -0.27648 0
M  V30 2374 C 215.54 -1.417 3.18939 0
M  V30 2375 C 216.888 -1.87774 3.80823 0
M  V30 2376 O 217.912 -1.51427 3.2241 0
M  V30 2377 O 216.771 -2.54827 4.83452 0
M  V30 2378 H 213.865 -0.416713 0.714338 0
M  V30 2379 H 216.411 -0.125618 1.69234 0
M  V30 2380 H 215.183 -0.619902 3.86359 0
M  V30 2381 H 214.806 -2.23546 3.28805 0
M  V30 2382 N 215.803 -1.52179 -0.40978 0
M  V30 2383 C 217.031 -1.70054 -1.17853 0
M  V30 2384 C 217.446 -0.409735 -1.843 0
M  V30 2385 O 216.803 0.614183 -1.71855 0
M  V30 2386 C 216.854 -2.83568 -2.24213 0
M  V30 2387 O 216.575 -4.0765 -1.60478 0
M  V30 2388 C 218.076 -3.12947 -3.13973 0
M  V30 2389 H 215.296 -0.569917 -0.354169 0
M  V30 2390 H 217.84 -1.98734 -0.482198 0
M  V30 2391 H 215.995 -2.57409 -2.89516 0
M  V30 2392 H 216.409 -4.70899 -2.30986 0
M  V30 2393 H 217.883 -3.95889 -3.84677 0
M  V30 2394 H 218.36 -2.26472 -3.76307 0
M  V30 2395 H 218.966 -3.40868 -2.5434 0
M  V30 2396 N 217.281 0.66697 -1.42791 0
M  V30 2397 C 218.528 1.42699 -1.43678 0
M  V30 2398 C 218.856 1.94419 -0.0560425 0
M  V30 2399 O 218.111 1.7182 0.936831 0
M  V30 2400 C 218.41 2.6349 -2.4147 0
M  V30 2401 C 218.076 2.30267 -3.8767 0
M  V30 2402 C 216.738 2.20918 -4.27491 0
M  V30 2403 C 219.09 2.03435 -4.79858 0
M  V30 2404 C 216.418 1.82873 -5.57471 0
M  V30 2405 C 218.77 1.66892 -6.10188 0
M  V30 2406 C 217.434 1.56058 -6.49001 0
M  V30 2407 H 216.704 0.522171 -0.525755 0
M  V30 2408 H 219.351 0.759785 -1.75783 0
M  V30 2409 H 217.656 3.35279 -2.0272 0
M  V30 2410 H 219.353 3.21684 -2.39417 0
M  V30 2411 H 215.943 2.38449 -3.56146 0
M  V30 2412 H 220.127 2.09586 -4.49875 0
M  V30 2413 H 215.383 1.7306 -5.86396 0
M  V30 2414 H 219.557 1.45157 -6.81104 0
M  V30 2415 H 217.184 1.26348 -7.49627 0
M  V30 2416 N 218.759 1.29093 0.90403 0
M  V30 2417 C 219.689 1.16401 2.02418 0
M  V30 2418 C 220.67 0.0593085 1.69997 0
M  V30 2419 O 221.855 0.238021 1.92736 0
M  V30 2420 C 218.985 0.835233 3.37107 0
M  V30 2421 C 217.939 1.89578 3.83724 0
M  V30 2422 C 217.265 1.42041 5.15489 0
M  V30 2423 C 218.565 3.30394 4.04521 0
M  V30 2424 H 220.259 2.10109 2.13295 0
M  V30 2425 H 217.805 1.01157 1.02486 0
M  V30 2426 H 219.758 0.733169 4.14973 0
M  V30 2427 H 218.482 -0.137543 3.2631 0
M  V30 2428 H 217.141 1.98715 3.08071 0
M  V30 2429 H 216.789 0.436426 5.01103 0
M  V30 2430 H 216.489 2.12964 5.4765 0
M  V30 2431 H 218.013 1.33176 5.959 0
M  V30 2432 H 219.427 3.24123 4.72882 0
M  V30 2433 H 217.824 3.99237 4.48029 0
M  V30 2434 H 218.894 3.73692 3.09002 0
M  V30 2435 N 220.237 -1.11381 1.11499 0
M  V30 2436 C 221.184 -2.17439 0.773887 0
M  V30 2437 C 222.154 -1.64132 -0.254899 0
M  V30 2438 O 223.339 -1.90345 -0.13168 0
M  V30 2439 C 220.479 -3.44373 0.223917 0
M  V30 2440 C 219.592 -4.1168 1.30934 0
M  V30 2441 C 218.727 -5.263 0.71984 0
M  V30 2442 C 217.766 -5.85493 1.78507 0
M  V30 2443 N 216.903 -6.91507 1.21502 0
M  V30 2444 H 221.743 -2.45962 1.68246 0
M  V30 2445 H 219.28 -1.20744 0.840191 0
M  V30 2446 H 221.238 -4.17047 -0.112921 0
M  V30 2447 H 219.868 -3.16232 -0.647851 0
M  V30 2448 H 218.92 -3.37073 1.76312 0
M  V30 2449 H 220.232 -4.51729 2.11524 0
M  V30 2450 H 219.386 -6.05785 0.333094 0
M  V30 2451 H 218.125 -4.87559 -0.117377 0
M  V30 2452 H 217.13 -5.04686 2.18111 0
M  V30 2453 H 218.355 -6.26301 2.62533 0
M  V30 2454 H 216.301 -6.54783 0.399455 0
M  V30 2455 H 216.218 -7.30214 1.95763 0
M  V30 2456 H 217.486 -7.74795 0.855181 0
M  V30 2457 N 221.715 -0.905404 -1.28997 0
M  V30 2458 C 222.962 -0.534248 -1.95325 0
M  V30 2459 C 223.29 0.920535 -1.71337 0
M  V30 2460 O 222.545 1.66861 -1.02254 0
M  V30 2461 C 222.844 -0.779906 -3.48787 0
M  V30 2462 C 222.51 -2.21293 -3.92861 0
M  V30 2463 C 221.172 -2.60475 -4.04606 0
M  V30 2464 C 223.524 -3.14587 -4.15553 0
M  V30 2465 C 220.852 -3.9212 -4.36416 0
M  V30 2466 C 223.204 -4.45787 -4.48839 0
M  V30 2467 C 221.868 -4.84834 -4.58794 0
M  V30 2468 H 221.138 -0.195495 -0.714747 0
M  V30 2469 H 223.785 -1.14514 -1.53488 0
M  V30 2470 H 222.09 -0.0861365 -3.91705 0
M  V30 2471 H 223.787 -0.472029 -3.98212 0
M  V30 2472 H 220.377 -1.89887 -3.84241 0
M  V30 2473 H 224.561 -2.85528 -4.0594 0
M  V30 2474 H 219.817 -4.22086 -4.42327 0
M  V30 2475 H 223.991 -5.18098 -4.65346 0
M  V30 2476 H 221.618 -5.86877 -4.83197 0
M  V30 2477 N 223.193 1.4272 -0.668489 0
M  V30 2478 C 224.604 1.84793 -0.266151 0
M  V30 2479 C 224.955 1.55959 1.19043 0
M  V30 2480 O 224.08 1.01622 1.91055 0
M  V30 2481 C 224.675 3.35436 -0.476271 0
M  V30 2482 C 223.234 3.76182 -0.128113 0
M  V30 2483 C 222.381 2.66344 -0.771777 0
M  V30 2484 H 225.332 1.32656 -0.871098 0
M  V30 2485 H 225.353 3.79515 0.273561 0
M  V30 2486 H 224.865 3.5639 -1.53647 0
M  V30 2487 H 222.966 3.60836 0.928891 0
M  V30 2488 H 223.079 4.75766 -0.564231 0
M  V30 2489 H 221.443 2.53885 -0.203652 0
M  V30 2490 H 222.226 2.90123 -1.83531 0
M  V30 2491 N 224.671 0.411399 1.52136 0
M  V30 2492 C 225.601 -0.404015 2.29978 0
M  V30 2493 C 226.582 -1.04412 1.34284 0
M  V30 2494 O 227.767 -1.0527 1.63192 0
M  V30 2495 C 224.897 -1.5197 3.12286 0
M  V30 2496 C 223.851 -1.00448 4.16046 0
M  V30 2497 C 223.177 -2.21393 4.86712 0
M  V30 2498 C 224.477 -0.0569336 5.22269 0
M  V30 2499 H 226.171 0.245529 2.98392 0
M  V30 2500 H 223.717 0.119525 1.43503 0
M  V30 2501 H 225.67 -2.09715 3.6551 0
M  V30 2502 H 224.394 -2.19716 2.41646 0
M  V30 2503 H 223.053 -0.449421 3.63835 0
M  V30 2504 H 222.701 -2.87699 4.12599 0
M  V30 2505 H 222.401 -1.87571 5.56858 0
M  V30 2506 H 223.925 -2.7974 5.4275 0
M  V30 2507 H 225.339 -0.54325 5.7072 0
M  V30 2508 H 223.736 0.192594 5.99791 0
M  V30 2509 H 224.806 0.887663 4.76706 0
M  V30 2510 N 226.149 -1.5696 0.141893 0
M  V30 2511 C 227.059 -2.20066 -0.812905 0
M  V30 2512 C 228.075 -1.18344 -1.27557 0
M  V30 2513 O 229.251 -1.50902 -1.33381 0
M  V30 2514 C 226.316 -2.80583 -2.03652 0
M  V30 2515 C 225.377 -3.97414 -1.62359 0
M  V30 2516 C 224.61 -4.55036 -2.78887 0
M  V30 2517 O 224.833 -4.11538 -3.94959 0
M  V30 2518 O 223.767 -5.45376 -2.54653 0
M  V30 2519 H 227.593 -3.02157 -0.305746 0
M  V30 2520 H 225.178 -1.49159 -0.0848799 0
M  V30 2521 H 227.06 -3.19067 -2.75272 0
M  V30 2522 H 225.735 -2.01508 -2.5333 0
M  V30 2523 H 224.642 -3.63656 -0.877775 0
M  V30 2524 H 225.975 -4.77994 -1.17401 0
M  V30 2525 N 227.627 0.131896 -1.57047 0
M  V30 2526 C 228.852 0.860418 -1.8871 0
M  V30 2527 C 229.277 1.73251 -0.73251 0
M  V30 2528 O 228.635 1.785 0.317429 0
M  V30 2529 C 228.683 1.68047 -3.19049 0
M  V30 2530 O 227.787 2.7862 -3.04047 0
M  V30 2531 H 227.128 0.238743 -0.619595 0
M  V30 2532 H 229.658 0.118169 -2.04258 0
M  V30 2533 H 229.668 2.07238 -3.51449 0
M  V30 2534 H 228.343 1.04018 -4.02682 0
M  V30 2535 H 226.92 2.42726 -2.83088 0
M  V30 2536 N 229.106 1.52395 0.401703 0
M  V30 2537 C 230.352 1.68019 1.14635 0
M  V30 2538 C 230.707 0.408722 1.88009 0
M  V30 2539 O 230 -0.597133 1.82057 0
M  V30 2540 C 230.194 2.84578 2.16217 0
M  V30 2541 C 230.023 4.22938 1.5282 0
M  V30 2542 C 228.793 4.88352 1.29772 0
M  V30 2543 C 230.991 5.04778 0.985094 0
M  V30 2544 N 228.973 6.10726 0.623455 0
M  V30 2545 C 230.344 6.1845 0.438172 0
M  V30 2546 C 232.399 4.90057 0.880275 0
M  V30 2547 C 231.102 7.19013 -0.203306 0
M  V30 2548 C 233.128 5.9086 0.252639 0
M  V30 2549 C 232.49 7.03829 -0.283573 0
M  V30 2550 H 228.589 0.668413 0.405892 0
M  V30 2551 H 231.173 1.89717 0.437674 0
M  V30 2552 H 229.344 2.64483 2.84435 0
M  V30 2553 H 231.076 2.89202 2.83098 0
M  V30 2554 H 227.831 4.46846 1.56926 0
M  V30 2555 H 228.255 6.76323 0.302733 0
M  V30 2556 H 232.897 4.02938 1.28065 0
M  V30 2557 H 230.615 8.05751 -0.615726 0
M  V30 2558 H 234.201 5.81543 0.172954 0
M  V30 2559 H 233.081 7.80493 -0.761575 0
M  V30 2560 N 230.584 -0.659388 1.43143 0
M  V30 2561 C 231.812 -1.44723 1.47861 0
M  V30 2562 C 232.227 -1.88563 0.0945886 0
M  V30 2563 O 231.584 -1.59108 -0.893915 0
M  V30 2564 C 231.635 -2.68627 2.41913 0
M  V30 2565 O 231.356 -2.26623 3.74932 0
M  V30 2566 C 232.857 -3.62045 2.55809 0
M  V30 2567 H 230.077 -0.444801 0.502387 0
M  V30 2568 H 232.621 -0.808916 1.87821 0
M  V30 2569 H 230.776 -3.28613 2.05164 0
M  V30 2570 H 231.19 -3.06745 4.2545 0
M  V30 2571 H 232.664 -4.45666 3.25708 0
M  V30 2572 H 233.141 -4.08981 1.60099 0
M  V30 2573 H 233.747 -3.07944 2.93344 0
M  V30 2574 N 232.062 -1.29571 -0.897171 0
M  V30 2575 C 233.009 -1.14916 -2.00158 0
M  V30 2576 C 233.979 -0.0418149 -1.66047 0
M  V30 2577 O 235.164 -0.209793 -1.89643 0
M  V30 2578 C 232.304 -0.834307 -3.34863 0
M  V30 2579 C 231.417 -2.02234 -3.8174 0
M  V30 2580 C 230.552 -1.64664 -5.05034 0
M  V30 2581 C 229.591 -2.80033 -5.44286 0
M  V30 2582 N 228.728 -2.42843 -6.58765 0
M  V30 2583 H 233.568 -2.09403 -2.12025 0
M  V30 2584 H 231.105 -1.042 -1.0383 0
M  V30 2585 H 233.063 -0.632436 -4.12379 0
M  V30 2586 H 231.693 0.0736656 -3.22716 0
M  V30 2587 H 230.745 -2.33583 -3.00238 0
M  V30 2588 H 232.057 -2.88673 -4.06779 0
M  V30 2589 H 231.211 -1.4078 -5.9014 0
M  V30 2590 H 229.95 -0.753766 -4.8184 0
M  V30 2591 H 228.955 -3.04596 -4.57713 0
M  V30 2592 H 230.18 -3.69989 -5.6946 0
M  V30 2593 H 228.126 -1.56046 -6.3717 0
M  V30 2594 H 228.043 -3.22815 -6.83613 0
M  V30 2595 H 229.311 -2.22285 -7.47134 0
M  V30 2596 N 233.54 1.10788 -1.12088 0
M  V30 2597 C 234.472 2.16816 -0.743213 0
M  V30 2598 C 235.485 1.6119 0.228412 0
M  V30 2599 O 236.674 1.78497 0.0102931 0
M  V30 2600 C 233.774 3.38809 -0.0787313 0
M  V30 2601 C 232.947 4.23885 -1.0789 0
M  V30 2602 C 232.006 5.24334 -0.442713 0
M  V30 2603 O 231.032 5.58497 -1.09864 0
M  V30 2604 N 232.234 5.75079 0.791457 0
M  V30 2605 H 234.999 2.49825 -1.65552 0
M  V30 2606 H 232.56 1.26373 -1.012 0
M  V30 2607 H 234.552 4.03107 0.358766 0
M  V30 2608 H 233.122 3.03805 0.736275 0
M  V30 2609 H 232.342 3.55939 -1.69414 0
M  V30 2610 H 233.63 4.77562 -1.75533 0
M  V30 2611 H 233.028 5.49517 1.3434 0
M  V30 2612 H 231.585 6.4118 1.17183 0
M  V30 2613 N 235.018 0.912232 1.28515 0
M  V30 2614 C 236.429 0.591352 1.77087 0
M  V30 2615 C 236.78 -0.8933 1.74684 0
M  V30 2616 O 235.905 -1.69876 1.34056 0
M  V30 2617 C 236.5 1.06668 3.2157 0
M  V30 2618 C 235.059 0.79675 3.67871 0
M  V30 2619 C 234.206 1.23427 2.48316 0
M  V30 2620 H 237.157 1.09365 1.15 0
M  V30 2621 H 237.178 0.407455 3.78312 0
M  V30 2622 H 236.69 2.14726 3.23287 0
M  V30 2623 H 234.791 -0.270679 3.71616 0
M  V30 2624 H 234.904 1.40343 4.58084 0
M  V30 2625 H 233.268 0.653036 2.46186 0
M  V30 2626 H 234.051 2.32316 2.52753 0
M  V30 2627 N 236.496 -1.42363 0.676048 0
M  V30 2628 C 237.443 -2.308 -0.00150904 0
M  V30 2629 C 238.413 -1.46032 -0.791444 0
M  V30 2630 O 239.598 -1.74861 -0.76344 0
M  V30 2631 C 236.738 -3.31883 -0.945919 0
M  V30 2632 C 235.851 -4.31741 -0.149675 0
M  V30 2633 C 234.986 -5.19898 -1.08995 0
M  V30 2634 C 234.025 -6.11434 -0.285465 0
M  V30 2635 N 233.162 -6.92138 -1.17851 0
M  V30 2636 H 238.002 -2.88187 0.758455 0
M  V30 2637 H 235.539 -1.41952 0.38576 0
M  V30 2638 H 237.497 -3.89019 -1.50731 0
M  V30 2639 H 236.127 -2.76093 -1.6725 0
M  V30 2640 H 235.179 -3.76713 0.528359 0
M  V30 2641 H 236.491 -4.96534 0.474866 0
M  V30 2642 H 235.645 -5.81772 -1.72123 0
M  V30 2643 H 234.384 -4.55284 -1.74837 0
M  V30 2644 H 233.389 -5.48627 0.359018 0
M  V30 2645 H 234.614 -6.78097 0.368883 0
M  V30 2646 H 232.56 -6.30152 -1.82332 0
M  V30 2647 H 232.477 -7.53542 -0.609082 0
M  V30 2648 H 233.745 -7.58499 -1.79722 0
M  V30 2649 N 237.974 -0.419461 -1.51915 0
M  V30 2650 C 239.199 0.154572 -2.06823 0
M  V30 2651 C 239.624 1.3722 -1.28656 0
M  V30 2652 O 238.982 1.78461 -0.319583 0
M  V30 2653 C 239.03 0.473172 -3.57482 0
M  V30 2654 O 238.134 1.56255 -3.81652 0
M  V30 2655 H 237.475 0.0096924 -0.663929 0
M  V30 2656 H 240.005 -0.595642 -1.95738 0
M  V30 2657 H 240.015 0.728825 -4.01438 0
M  V30 2658 H 238.69 -0.416873 -4.13805 0
M  V30 2659 H 237.267 1.29825 -3.49571 0
M  V30 2660 N 239.452 1.56882 -0.150215 0
M  V30 2661 C 240.362 2.20494 0.801222 0
M  V30 2662 C 241.378 1.19019 1.26927 0
M  V30 2663 O 242.554 1.51607 1.32579 0
M  V30 2664 C 239.619 2.81659 2.02161 0
M  V30 2665 C 238.68 3.9827 1.60249 0
M  V30 2666 C 237.913 4.56508 2.7647 0
M  V30 2667 O 238.136 4.13627 3.92771 0
M  V30 2668 O 237.07 5.46719 2.51757 0
M  V30 2669 H 240.896 3.02315 0.289717 0
M  V30 2670 H 238.481 1.49202 0.0769684 0
M  V30 2671 H 240.363 3.20522 2.73576 0
M  V30 2672 H 239.038 2.02849 2.52258 0
M  V30 2673 H 237.945 3.64117 0.858477 0
M  V30 2674 H 239.278 4.78609 1.14864 0
M  V30 2675 N 240.93 -0.123565 1.57115 0
M  V30 2676 C 241.86 -1.15309 2.03042 0
M  V30 2677 C 242.841 -1.43454 0.914061 0
M  V30 2678 O 244.026 -1.53973 1.18347 0
M  V30 2679 C 241.156 -2.48043 2.43089 0
M  V30 2680 C 240.11 -2.3437 3.58127 0
M  V30 2681 C 239.436 -3.72026 3.84059 0
M  V30 2682 C 240.736 -1.80804 4.90007 0
M  V30 2683 H 242.43 -0.771102 2.893 0
M  V30 2684 H 239.976 -0.369479 1.39179 0
M  V30 2685 H 241.929 -3.20311 2.73823 0
M  V30 2686 H 240.653 -2.88122 1.53796 0
M  V30 2687 H 239.312 -1.64551 3.27595 0
M  V30 2688 H 238.96 -4.09582 2.91979 0
M  V30 2689 H 238.66 -3.63732 4.6149 0
M  V30 2690 H 240.184 -4.45806 4.1724 0
M  V30 2691 H 241.598 -2.42886 5.19307 0
M  V30 2692 H 239.995 -1.83343 5.71407 0
M  V30 2693 H 241.065 -0.76528 4.78823 0
M  V30 2694 N 242.408 -1.52605 -0.393616 0
M  V30 2695 C 243.34 -1.73303 -1.49995 0
M  V30 2696 C 244.353 -0.613473 -1.50799 0
M  V30 2697 O 245.542 -0.889049 -1.54784 0
M  V30 2698 C 242.642 -1.77245 -2.88855 0
M  V30 2699 C 241.815 -3.06483 -3.12069 0
M  V30 2700 C 240.874 -3.02033 -4.30886 0
M  V30 2701 O 239.9 -3.75907 -4.27414 0
M  V30 2702 N 241.102 -2.20897 -5.36828 0
M  V30 2703 H 243.867 -2.68756 -1.32629 0
M  V30 2704 H 241.428 -1.51036 -0.583083 0
M  V30 2705 H 243.42 -1.7178 -3.66434 0
M  V30 2706 H 241.99 -0.891993 -2.99603 0
M  V30 2707 H 241.21 -3.25474 -2.22396 0
M  V30 2708 H 242.498 -3.91947 -3.2443 0
M  V30 2709 H 241.896 -1.60336 -5.42502 0
M  V30 2710 H 240.453 -2.21275 -6.13091 0
M  V30 2711 N 243.887 0.651787 -1.4349 0
M  V30 2712 C 244.834 1.76462 -1.4876 0
M  V30 2713 C 245.804 1.62641 -0.337189 0
M  V30 2714 O 246.989 1.82864 -0.544544 0
M  V30 2715 C 244.129 3.14623 -1.41796 0
M  V30 2716 C 243.242 3.39568 -2.67053 0
M  V30 2717 C 242.377 4.67585 -2.52068 0
M  V30 2718 C 241.416 4.85639 -3.72587 0
M  V30 2719 N 240.553 6.04915 -3.56402 0
M  V30 2720 H 245.393 1.71293 -2.43849 0
M  V30 2721 H 242.93 0.835889 -1.21043 0
M  V30 2722 H 244.888 3.94496 -1.35753 0
M  V30 2723 H 243.518 3.18859 -0.50288 0
M  V30 2724 H 242.57 2.53783 -2.8337 0
M  V30 2725 H 243.882 3.48795 -3.56572 0
M  V30 2726 H 243.036 5.55586 -2.4374 0
M  V30 2727 H 241.775 4.60681 -1.60075 0
M  V30 2728 H 240.78 3.96073 -3.81321 0
M  V30 2729 H 242.005 4.94372 -4.65589 0
M  V30 2730 H 239.951 5.9914 -2.67146 0
M  V30 2731 H 239.868 6.15106 -4.39524 0
M  V30 2732 H 241.136 6.95533 -3.51929 0
M  V30 2733 N 245.365 1.30045 0.890287 0
M  V30 2734 C 246.612 1.18561 1.64163 0
M  V30 2735 C 246.94 -0.260852 1.92743 0
M  V30 2736 O 246.195 -1.20376 1.54299 0
M  V30 2737 C 246.494 1.95409 2.99249 0
M  V30 2738 C 246.16 3.45066 2.90242 0
M  V30 2739 C 244.822 3.85878 2.87492 0
M  V30 2740 C 247.174 4.4039 2.78758 0
M  V30 2741 C 244.502 5.20314 2.7109 0
M  V30 2742 C 246.854 5.74928 2.63894 0
M  V30 2743 C 245.518 6.14986 2.59516 0
M  V30 2744 H 244.788 0.433846 0.600715 0
M  V30 2745 H 247.435 1.61088 1.03552 0
M  V30 2746 H 245.74 1.45501 3.63781 0
M  V30 2747 H 247.437 1.8392 3.56334 0
M  V30 2748 H 244.027 3.12631 2.93189 0
M  V30 2749 H 248.211 4.09806 2.79952 0
M  V30 2750 H 243.467 5.50449 2.66112 0
M  V30 2751 H 247.641 6.48434 2.53981 0
M  V30 2752 H 245.268 7.19104 2.46565 0
M  V30 2753 N 246.843 -1.10192 1.12674 0
M  V30 2754 C 248.089 -1.82475 0.884915 0
M  V30 2755 C 248.422 -1.85093 -0.58773 0
M  V30 2756 O 247.697 -1.3134 -1.43457 0
M  V30 2757 C 247.98 -3.29018 1.46353 0
M  V30 2758 C 247.833 -3.34718 3.00473 0
M  V30 2759 C 249.152 -4.25473 1.12519 0
M  V30 2760 H 246.271 -0.662492 0.322915 0
M  V30 2761 H 248.913 -1.2913 1.39375 0
M  V30 2762 H 247.063 -3.74576 1.03077 0
M  V30 2763 H 248.735 -2.97622 3.52447 0
M  V30 2764 H 246.978 -2.74541 3.35872 0
M  V30 2765 H 247.649 -4.37918 3.36053 0
M  V30 2766 H 250.125 -3.88161 1.499 0
M  V30 2767 H 249.001 -5.26365 1.55663 0
M  V30 2768 H 249.262 -4.42084 0.0377407 0
M  V30 2769 N 248.321 -0.919034 -1.28029 0
M  V30 2770 C 249.569 -0.553838 -1.94363 0
M  V30 2771 C 249.89 0.906357 -1.72656 0
M  V30 2772 O 249.16 1.64143 -1.0693 0
M  V30 2773 H 247.74 -0.201834 -0.719216 0
M  V30 2774 H 250.402 -1.16954 -1.55909 0
M  V30 2775 H 249.498 -0.752758 -3.02886 0
M  V30 2776 N 249.799 1.42003 -0.683588 0
M  V30 2777 C 251.076 1.95112 -0.138075 0
M  V30 2778 C 251.456 1.62359 1.34918 0
M  V30 2779 O 250.804 0.924311 2.08971 0
M  V30 2780 C 251.014 3.46505 -0.416581 0
M  V30 2781 C 252.362 4.23254 -0.337834 0
M  V30 2782 O 253.386 3.54468 -0.35082 0
M  V30 2783 O 252.245 5.45743 -0.287596 0
M  V30 2784 H 249.339 0.826961 -0.00797996 0
M  V30 2785 H 251.885 1.51784 -0.758924 0
M  V30 2786 H 250.657 3.63582 -1.4465 0
M  V30 2787 H 250.28 3.969 0.235839 0
M  V30 2788 N 251.277 0.427512 1.51691 0
M  V30 2789 C 252.505 -0.141191 2.06418 0
M  V30 2790 C 252.92 -1.37303 1.29589 0
M  V30 2791 O 252.277 -1.79059 0.352732 0
M  V30 2792 C 252.328 -0.473266 3.58389 0
M  V30 2793 O 252.049 0.709673 4.32314 0
M  V30 2794 C 253.55 -1.09371 4.29596 0
M  V30 2795 H 250.77 -0.0122747 0.670888 0
M  V30 2796 H 253.314 0.603764 1.95384 0
M  V30 2797 H 251.469 -1.16812 3.69369 0
M  V30 2798 H 251.883 0.42807 5.2275 0
M  V30 2799 H 253.357 -1.27613 5.37046 0
M  V30 2800 H 253.834 -2.072 3.87253 0
M  V30 2801 H 254.44 -0.43853 4.23033 0
M  V30 2802 N 252.755 -1.56801 0.158532 0
M  V30 2803 C 254.001 -1.96781 -0.490405 0
M  V30 2804 C 254.334 -1.04397 -1.63753 0
M  V30 2805 O 253.609 -0.0885805 -1.94298 0
M  V30 2806 C 253.892 -3.4635 -0.985594 0
M  V30 2807 C 253.745 -4.49512 0.160824 0
M  V30 2808 C 255.064 -3.98697 -1.86355 0
M  V30 2809 H 252.183 -0.715482 -0.176788 0
M  V30 2810 H 254.825 -1.88451 0.242088 0
M  V30 2811 H 252.975 -3.53579 -1.60978 0
M  V30 2812 H 254.647 -4.54353 0.797537 0
M  V30 2813 H 252.89 -4.26013 0.818256 0
M  V30 2814 H 253.561 -5.51531 -0.227569 0
M  V30 2815 H 256.037 -3.94019 -1.33746 0
M  V30 2816 H 254.913 -5.03792 -2.17909 0
M  V30 2817 H 255.174 -3.41744 -2.8047 0
M  V30 2818 N 254.233 0.115231 -1.57178 0
M  V30 2819 C 255.163 1.1423 -2.03651 0
M  V30 2820 C 256.144 1.42967 -0.921655 0
M  V30 2821 O 257.329 1.53343 -1.19162 0
M  V30 2822 C 254.459 2.4675 -2.44401 0
M  V30 2823 C 253.413 2.32467 -3.59365 0
M  V30 2824 C 252.739 3.69984 -3.86026 0
M  V30 2825 C 254.039 1.78203 -4.90959 0
M  V30 2826 H 255.733 0.755749 -2.89705 0
M  V30 2827 H 253.279 0.362093 -1.39373 0
M  V30 2828 H 255.232 3.18854 -2.75517 0
M  V30 2829 H 253.956 2.87302 -1.55322 0
M  V30 2830 H 252.615 1.62811 -3.28463 0
M  V30 2831 H 252.263 4.08028 -2.94147 0
M  V30 2832 H 251.963 3.61279 -4.63412 0
M  V30 2833 H 253.487 4.43587 -4.19599 0
M  V30 2834 H 254.901 2.40128 -5.20587 0
M  V30 2835 H 253.298 1.8031 -5.72371 0
M  V30 2836 H 254.368 0.739876 -4.79222 0
M  V30 2837 N 255.711 1.52812 0.385517 0
M  V30 2838 C 256.621 1.80766 1.49535 0
M  V30 2839 C 257.637 0.694651 1.59532 0
M  V30 2840 O 258.813 0.982611 1.75803 0
M  V30 2841 C 255.878 1.97381 2.85029 0
M  V30 2842 C 254.939 3.21295 2.84724 0
M  V30 2843 C 254.172 3.37108 4.13756 0
M  V30 2844 O 254.395 2.5765 5.08893 0
M  V30 2845 O 253.329 4.30378 4.20783 0
M  V30 2846 H 257.155 2.75015 1.28842 0
M  V30 2847 H 254.74 1.37946 0.573697 0
M  V30 2848 H 256.622 2.09996 3.65349 0
M  V30 2849 H 255.297 1.06322 3.05741 0
M  V30 2850 H 254.204 3.1412 2.03174 0
M  V30 2851 H 255.537 4.12212 2.68965 0
M  V30 2852 N 257.189 -0.644168 1.43834 0
M  V30 2853 C 258.466 -1.40188 1.36406 0
M  V30 2854 C 258.846 -2.11094 0.0163124 0
M  V30 2855 O 258.194 -2.05426 -1.00062 0
M  V30 2856 C 258.404 -2.3791 2.55343 0
M  V30 2857 C 259.752 -3.01637 2.98832 0
M  V30 2858 O 260.776 -2.48237 2.55455 0
M  V30 2859 O 259.635 -3.98477 3.74003 0
M  V30 2860 H 256.729 -0.626773 0.539523 0
M  V30 2861 H 259.275 -0.670317 1.559 0
M  V30 2862 H 258.047 -1.84525 3.4506 0
M  V30 2863 H 257.67 -3.18503 2.37995 0
M  V30 2864 N 258.668 -1.30515 -0.883378 0
M  V30 2865 C 259.945 -1.10086 -1.6168 0
M  V30 2866 C 260.325 0.349269 -2.08191 0
M  V30 2867 O 259.673 1.34105 -1.85008 0
M  V30 2868 C 259.883 -2.10315 -2.78511 0
M  V30 2869 C 261.231 -2.42119 -3.48803 0
M  V30 2870 O 262.255 -2.08638 -2.88702 0
M  V30 2871 O 261.114 -2.99396 -4.57192 0
M  V30 2872 H 258.208 -0.422907 -0.710689 0
M  V30 2873 H 260.754 -1.41947 -0.930015 0
M  V30 2874 H 259.526 -3.07917 -2.41459 0
M  V30 2875 H 259.149 -1.79282 -3.54886 0
M  V30 2876 N 260.146 1.09593 -1.13257 0
M  V30 2877 C 261.395 1.81105 -0.887917 0
M  V30 2878 C 261.708 1.86563 0.587672 0
M  V30 2879 O 262.914 2.54367 0.949204 0
M  V30 2880 C 261.37 3.25338 -1.53895 0
M  V30 2881 C 260.978 3.28151 -3.04994 0
M  V30 2882 C 262.722 4.01617 -1.37492 0
M  V30 2883 C 260.629 4.66897 -3.6299 0
M  V30 2884 H 259.559 0.678661 -0.328534 0
M  V30 2885 H 262.21 1.23183 -1.36008 0
M  V30 2886 H 260.592 3.8331 -0.994446 0
M  V30 2887 H 261.766 2.79953 -3.66009 0
M  V30 2888 H 260.081 2.65361 -3.20893 0
M  V30 2889 H 262.678 5.04119 -1.78235 0
M  V30 2890 H 263.021 4.15072 -0.31957 0
M  V30 2891 H 263.554 3.50082 -1.88912 0
M  V30 2892 H 260.293 4.58643 -4.68323 0
M  V30 2893 H 259.813 5.15426 -3.06752 0
M  V30 2894 H 261.492 5.3587 -3.62563 0
M  V30 2895 N 261.624 0.925811 1.2754 0
M  V30 2896 C 262.571 0.422045 2.26908 0
M  V30 2897 C 263.541 -0.510029 1.58076 0
M  V30 2898 O 264.726 -0.429599 1.85901 0
M  V30 2899 C 261.866 -0.320837 3.43605 0
M  V30 2900 C 260.979 0.64513 4.27156 0
M  V30 2901 C 260.114 -0.117405 5.3107 0
M  V30 2902 C 259.153 0.841391 6.0629 0
M  V30 2903 N 258.29 0.111604 7.02011 0
M  V30 2904 H 263.13 1.27441 2.69375 0
M  V30 2905 H 260.667 0.639697 1.32462 0
M  V30 2906 H 262.625 -0.76785 4.10073 0
M  V30 2907 H 261.255 -1.13745 3.02096 0
M  V30 2908 H 260.307 1.21067 3.6062 0
M  V30 2909 H 261.619 1.37797 4.79389 0
M  V30 2910 H 260.773 -0.624422 6.03478 0
M  V30 2911 H 259.512 -0.883219 4.79636 0
M  V30 2912 H 258.517 1.35967 5.32722 0
M  V30 2913 H 259.742 1.60696 6.59813 0
M  V30 2914 H 257.688 -0.635999 6.5291 0
M  V30 2915 H 257.605 0.784044 7.51923 0
M  V30 2916 H 258.873 -0.374823 7.78598 0
M  V30 2917 N 263.102 -1.41638 0.69111 0
M  V30 2918 C 264.012 -2.34588 0.0233487 0
M  V30 2919 C 265.028 -1.55987 -0.770984 0
M  V30 2920 O 266.204 -1.88486 -0.709569 0
M  V30 2921 C 263.269 -3.34684 -0.904851 0
M  V30 2922 C 262.33 -4.29176 -0.103225 0
M  V30 2923 C 261.563 -5.2449 -0.987216 0
M  V30 2924 O 261.786 -5.2514 -2.22674 0
M  V30 2925 O 260.72 -6.00295 -0.439281 0
M  V30 2926 H 264.546 -2.93261 0.789416 0
M  V30 2927 H 262.131 -1.42417 0.45142 0
M  V30 2928 H 264.013 -3.96133 -1.43724 0
M  V30 2929 H 262.688 -2.78461 -1.65049 0
M  V30 2930 H 261.595 -3.71089 0.473655 0
M  V30 2931 H 262.928 -4.88484 0.60365 0
M  V30 2932 N 264.58 -0.43555 -1.51462 0
M  V30 2933 C 265.828 0.131254 -2.01673 0
M  V30 2934 C 266.149 1.43368 -1.32177 0
M  V30 2935 O 265.419 1.90524 -0.455769 0
M  V30 2936 H 263.999 0.0514954 -0.745223 0
M  V30 2937 H 266.661 -0.577847 -1.86137 0
M  V30 2938 H 265.757 0.308446 -3.10572 0
M  V30 2939 N 266.058 1.56714 -0.166846 0
M  V30 2940 C 267.335 1.88412 0.525373 0
M  V30 2941 C 267.715 1.07602 1.81618 0
M  V30 2942 O 267.063 0.168621 2.27877 0
M  V30 2943 C 267.273 3.40363 0.771613 0
M  V30 2944 C 268.621 4.10007 1.1036 0
M  V30 2945 O 269.645 3.45655 0.860304 0
M  V30 2946 O 268.504 5.2369 1.56239 0
M  V30 2947 H 265.598 0.781587 0.270278 0
M  V30 2948 H 268.144 1.68458 -0.204946 0
M  V30 2949 H 266.916 3.91046 -0.141093 0
M  V30 2950 H 266.539 3.65914 1.55541 0
M  V30 2951 N 267.536 -0.106894 1.57237 0
M  V30 2952 C 268.783 -0.812526 1.85484 0
M  V30 2953 C 269.111 -1.79304 0.753687 0
M  V30 2954 O 268.366 -1.94047 -0.253853 0
M  V30 2955 C 268.665 -1.58628 3.20268 0
M  V30 2956 C 268.331 -0.748967 4.44636 0
M  V30 2957 C 266.993 -0.518104 4.78403 0
M  V30 2958 C 269.345 -0.166122 5.20935 0
M  V30 2959 C 266.673 0.305659 5.85903 0
M  V30 2960 C 269.025 0.644899 6.29304 0
M  V30 2961 C 267.689 0.885965 6.61594 0
M  V30 2962 H 266.959 -0.297324 0.678734 0
M  V30 2963 H 269.606 -0.0744332 1.91355 0
M  V30 2964 H 267.911 -2.39562 3.10028 0
M  V30 2965 H 269.608 -2.13643 3.39349 0
M  V30 2966 H 266.198 -0.939006 4.18187 0
M  V30 2967 H 270.382 -0.33167 4.95191 0
M  V30 2968 H 265.638 0.501528 6.0934 0
M  V30 2969 H 269.812 1.10345 6.87602 0
M  V30 2970 H 267.439 1.52609 7.44725 0
M  V30 2971 N 269.014 -1.53014 -0.377408 0
M  V30 2972 C 270.242 -1.72515 -1.14219 0
M  V30 2973 C 270.657 -0.448735 -1.8339 0
M  V30 2974 O 270.014 0.577592 -1.73119 0
M  V30 2975 C 270.065 -2.8826 -2.18148 0
M  V30 2976 O 269.786 -4.10962 -1.51795 0
M  V30 2977 C 271.287 -3.19536 -3.07264 0
M  V30 2978 H 268.507 -0.577301 -0.342001 0
M  V30 2979 H 271.051 -1.99712 -0.439935 0
M  V30 2980 H 269.206 -2.63492 -2.83991 0
M  V30 2981 H 269.62 -4.75693 -2.20945 0
M  V30 2982 H 271.094 -4.03959 -3.76193 0
M  V30 2983 H 271.571 -2.34403 -3.71419 0
M  V30 2984 H 272.177 -3.46186 -2.47053 0
M  V30 2985 N 270.492 0.636531 -1.44174 0
M  V30 2986 C 271.722 1.42146 -1.49927 0
M  V30 2987 C 272.13 1.88812 -0.121063 0
M  V30 2988 O 271.473 1.61126 0.882267 0
M  V30 2989 C 271.535 2.67883 -2.39748 0
M  V30 2990 C 271.199 2.43048 -3.8701 0
M  V30 2991 C 272.196 2.05216 -4.77684 0
M  V30 2992 C 269.881 2.56856 -4.3166 0
M  V30 2993 C 271.875 1.81512 -6.11009 0
M  V30 2994 C 269.562 2.32766 -5.65034 0
M  V30 2995 C 270.56 1.95152 -6.54526 0
M  V30 2996 O 270.248 1.71326 -7.85431 0
M  V30 2997 H 269.98 0.442567 -0.51099 0
M  V30 2998 H 272.534 0.786158 -1.8976 0
M  V30 2999 H 270.764 3.34032 -1.94832 0
M  V30 3000 H 272.453 3.29874 -2.36513 0
M  V30 3001 H 273.219 1.94111 -4.44462 0
M  V30 3002 H 269.098 2.85104 -3.62266 0
M  V30 3003 H 272.642 1.52077 -6.80822 0
M  V30 3004 H 268.539 2.43479 -5.97819 0
M  V30 3005 H 269.307 1.85616 -7.97176 0
M  V30 3006 N 271.97 1.30982 0.876444 0
M  V30 3007 C 272.918 1.18006 2.00443 0
M  V30 3008 C 273.912 0.0898871 1.69161 0
M  V30 3009 O 275.118 0.251333 1.78237 0
M  V30 3010 H 271.493 0.365196 0.65737 0
M  V30 3011 H 273.464 2.13453 2.0852 0
M  V30 3012 C 272.213 0.897521 3.35916 0
M  V30 3013 H 271.536 1.7285 3.60504 0
M  V30 3014 H 272.976 0.846874 4.15456 0
M  V30 3015 C 271.435 -0.399674 3.34521 0
M  V30 3016 O 271.965 -1.41852 3.7582 0
M  V30 3017 N 270.171 -0.413893 2.87637 0
M  V30 3018 H 269.718 0.41571 2.54224 0
M  V30 3019 H 269.676 -1.28175 2.87086 0
M  V30 3020 N 273.449 -1.08991 1.13837 0
M  V30 3021 C 274.679 -1.84743 0.924859 0
M  V30 3022 C 275.087 -1.81629 -0.529874 0
M  V30 3023 O 274.43 -1.21397 -1.37872 0
M  V30 3024 C 274.492 -3.33568 1.34061 0
M  V30 3025 C 274.156 -3.60425 2.80968 0
M  V30 3026 C 275.153 -3.55771 3.79108 0
M  V30 3027 C 272.838 -3.88627 3.18236 0
M  V30 3028 C 274.832 -3.78939 5.12527 0
M  V30 3029 C 272.519 -4.11449 4.51833 0
M  V30 3030 C 273.517 -4.06598 5.48787 0
M  V30 3031 O 273.205 -4.28826 6.79973 0
M  V30 3032 H 272.937 -0.590258 0.329502 0
M  V30 3033 H 275.491 -1.38598 1.51591 0
M  V30 3034 H 273.721 -3.80442 0.692853 0
M  V30 3035 H 275.41 -3.90743 1.09886 0
M  V30 3036 H 276.176 -3.34005 3.51661 0
M  V30 3037 H 272.055 -3.91526 2.43369 0
M  V30 3038 H 275.599 -3.75068 5.88192 0
M  V30 3039 H 271.496 -4.32698 4.79002 0
M  V30 3040 H 272.264 -4.46264 6.86142 0
M  V30 3041 N 274.927 -0.932562 -1.27047 0
M  V30 3042 C 276.155 -0.592031 -1.98249 0
M  V30 3043 C 276.57 0.831062 -1.69525 0
M  V30 3044 O 275.927 1.55299 -0.958561 0
M  V30 3045 C 275.978 -0.814279 -3.5221 0
M  V30 3046 O 275.699 -2.18139 -3.7993 0
M  V30 3047 C 277.2 -0.483121 -4.4066 0
M  V30 3048 H 274.42 -0.223896 -0.632544 0
M  V30 3049 H 276.964 -1.25091 -1.61779 0
M  V30 3050 H 275.119 -0.20213 -3.86872 0
M  V30 3051 H 275.533 -2.235 -4.74498 0
M  V30 3052 H 277.007 -0.689298 -5.47679 0
M  V30 3053 H 277.484 0.581546 -4.35333 0
M  V30 3054 H 278.09 -1.07362 -4.11526 0
M  V30 3055 N 276.405 1.4127 -0.698611 0
M  V30 3056 C 277.335 2.33447 -0.049629 0
M  V30 3057 C 278.316 1.51982 0.763898 0
M  V30 3058 O 279.501 1.80509 0.716257 0
M  V30 3059 C 276.631 3.35828 0.885267 0
M  V30 3060 C 275.585 4.27627 0.178613 0
M  V30 3061 C 274.911 5.20406 1.22807 0
M  V30 3062 C 276.211 5.13459 -0.956933 0
M  V30 3063 H 277.905 2.87966 -0.81951 0
M  V30 3064 H 275.451 1.38461 -0.395538 0
M  V30 3065 H 277.404 3.9924 1.34854 0
M  V30 3066 H 276.128 2.79666 1.68685 0
M  V30 3067 H 274.787 3.65643 -0.26466 0
M  V30 3068 H 274.435 4.60558 2.02226 0
M  V30 3069 H 274.135 5.82661 0.760239 0
M  V30 3070 H 275.659 5.86695 1.69179 0
M  V30 3071 H 277.073 5.70421 -0.573805 0
M  V30 3072 H 275.47 5.8467 -1.35205 0
M  V30 3073 H 276.54 4.50443 -1.79524 0
M  V30 3074 N 277.883 0.443576 1.51229 0
M  V30 3075 C 279.129 -0.11321 2.03085 0
M  V30 3076 C 279.484 -1.39841 1.32145 0
M  V30 3077 O 278.777 -1.86723 0.429542 0
M  V30 3078 C 278.971 -0.380579 3.55368 0
M  V30 3079 C 278.8 0.877157 4.41062 0
M  V30 3080 C 277.57 1.4125 4.85156 0
M  V30 3081 C 279.768 1.76503 4.83064 0
M  V30 3082 N 277.75 2.62213 5.55083 0
M  V30 3083 C 279.121 2.82067 5.52122 0
M  V30 3084 C 281.176 1.7787 4.65045 0
M  V30 3085 C 279.879 3.88952 6.05069 0
M  V30 3086 C 281.905 2.83694 5.18914 0
M  V30 3087 C 281.267 3.87978 5.87922 0
M  V30 3088 H 277.366 -0.00210178 0.781997 0
M  V30 3089 H 279.95 0.605641 1.85041 0
M  V30 3090 H 278.121 -1.06847 3.73414 0
M  V30 3091 H 279.853 -0.929274 3.93887 0
M  V30 3092 H 276.608 0.965542 4.63653 0
M  V30 3093 H 277.032 3.23568 5.9467 0
M  V30 3094 H 281.674 0.985744 4.11148 0
M  V30 3095 H 279.392 4.69082 6.58018 0
M  V30 3096 H 282.978 2.85702 5.06819 0
M  V30 3097 H 281.858 4.68517 6.28857 0
M  V30 3098 N 279.361 -1.56624 0.175154 0
M  V30 3099 C 280.589 -2.01374 -0.474971 0
M  V30 3100 C 281.004 -1.05537 -1.56548 0
M  V30 3101 O 280.361 -0.0568668 -1.82411 0
M  V30 3102 C 280.412 -3.45923 -1.04975 0
M  V30 3103 O 280.133 -4.381 -0.00276605 0
M  V30 3104 C 281.634 -4.06093 -1.77773 0
M  V30 3105 H 278.854 -0.659962 -0.121206 0
M  V30 3106 H 281.398 -2.02601 0.27801 0
M  V30 3107 H 279.553 -3.45458 -1.75321 0
M  V30 3108 H 279.967 -5.22753 -0.427681 0
M  V30 3109 H 281.441 -5.09147 -2.13245 0
M  V30 3110 H 281.918 -3.48405 -2.67414 0
M  V30 3111 H 282.524 -4.10272 -1.12059 0
M  V30 3112 N 280.839 0.0985539 -1.57292 0
M  V30 3113 C 282.255 0.45267 -1.53046 0
M  V30 3114 C 282.455 1.80713 -0.891342 0
M  V30 3115 O 281.511 2.4785 -0.482375 0
M  V30 3116 C 282.824 0.418341 -2.97776 0
M  V30 3117 C 284.372 0.500443 -3.08973 0
M  V30 3118 C 284.847 0.496297 -4.55303 0
M  V30 3119 N 286.338 0.557151 -4.59837 0
M  V30 3120 C 287.073 0.575726 -5.70502 0
M  V30 3121 N 286.569 0.550714 -6.90608 0
M  V30 3122 N 288.362 0.620277 -5.58667 0
M  V30 3123 H 280.513 -0.788673 -1.97215 0
M  V30 3124 H 282.776 -0.293188 -0.901524 0
M  V30 3125 H 282.482 -0.509659 -3.47988 0
M  V30 3126 H 282.356 1.2386 -3.56284 0
M  V30 3127 H 284.743 1.41886 -2.58751 0
M  V30 3128 H 284.824 -0.347894 -2.53423 0
M  V30 3129 H 284.468 -0.418162 -5.06176 0
M  V30 3130 H 284.398 1.3618 -5.08687 0
M  V30 3131 H 286.889 0.581816 -3.73394 0
M  V30 3132 H 287.202 0.568075 -7.70709 0
M  V30 3133 H 285.547 0.517816 -6.93068 0
M  V30 3134 H 288.738 0.637322 -4.63741 0
M  V30 3135 H 288.911 0.631283 -6.44918 0
M  V30 3136 N 282.317 1.53212 0.369288 0
M  V30 3137 C 283.264 1.79388 1.45219 0
M  V30 3138 C 284.234 0.638059 1.53356 0
M  V30 3139 O 285.419 0.879852 1.69302 0
M  V30 3140 C 282.559 1.98623 2.82211 0
M  V30 3141 C 281.672 3.26337 2.8307 0
M  V30 3142 C 280.807 3.35779 4.11614 0
M  V30 3143 C 279.846 4.5754 4.06601 0
M  V30 3144 N 278.983 4.64155 5.26787 0
M  V30 3145 H 283.823 2.71794 1.22198 0
M  V30 3146 H 281.36 1.34642 0.592444 0
M  V30 3147 H 283.318 2.07761 3.61789 0
M  V30 3148 H 281.948 1.09558 3.03639 0
M  V30 3149 H 281 3.26171 1.95747 0
M  V30 3150 H 282.312 4.15988 2.75237 0
M  V30 3151 H 281.466 3.44208 4.99606 0
M  V30 3152 H 280.205 2.44137 4.22195 0
M  V30 3153 H 279.21 4.49215 3.16996 0
M  V30 3154 H 280.435 5.50519 3.97625 0
M  V30 3155 H 278.381 3.75413 5.3796 0
M  V30 3156 H 278.298 5.47706 5.21109 0
M  V30 3157 H 279.566 4.76863 6.16621 0
M  V30 3158 O 283.834 -0.515259 1.5306 0
M  V30 3159 H 284.525 -1.17028 1.54351 0
M  V30 END ATOM
M  V30 BEGIN BOND
M  V30 END BOND
M  V30 END CTAB
M  END
$$$$
