drugbank_target|P23222 Sensor protein FixL (DB02671; DB03366)
 OpenBabel12092119573D

  0  0  0     0  0            999 V3000
M  V30 BEGIN CTAB
M  V30 COUNTS 7768 7835 0 0 0
M  V30 BEGIN ATOM
M  V30 1 H -0.908 1.98254 -0.117106 0
M  V30 2 N 0 1.576 0 0
M  V30 3 C 0.933 2.03868 1.02534 0
M  V30 4 C 1.911 0.928543 1.3348 0
M  V30 5 O 3.095 1.19667 1.45644 0
M  V30 6 C 0.222 2.43627 2.35294 0
M  V30 7 C -0.732 3.65373 2.2001 0
M  V30 8 S 0.101 5.13292 1.52614 0
M  V30 9 C 1.257 5.56322 2.86805 0
M  V30 10 H 1.49 2.90518 0.631377 0
M  V30 11 H -0.977 1.52953 0.210867 0
M  V30 12 H 0.981 2.67203 3.11629 0
M  V30 13 H -0.358 1.57376 2.7183 0
M  V30 14 H -1.165 3.90944 3.18086 0
M  V30 15 H -1.563 3.418 1.51819 0
M  V30 16 H 0.729 5.58782 3.83104 0
M  V30 17 H 1.672 6.56266 2.65933 0
M  V30 18 H 2.08 4.83886 2.90714 0
M  V30 19 N 1.4781 -0.272755 1.55222 0
M  V30 20 C 2.4411 -1.32041 1.87344 0
M  V30 21 C 3.4411 -1.42342 0.74803 0
M  V30 22 O 4.6311 -1.41488 1.0162 0
M  V30 23 C 1.7631 -2.70173 2.07893 0
M  V30 24 H 2.9561 -1.04789 2.80997 0
M  V30 25 H 0.5091 -0.51083 1.47717 0
M  V30 26 H 1.2441 -3.02605 1.16622 0
M  V30 27 H 1.0291 -2.64082 2.89833 0
M  V30 28 H 2.5191 -3.45869 2.34017 0
M  V30 29 N 2.9562 -1.48159 -0.537278 0
M  V30 30 C 4.3672 -1.49429 -1.11928 0
M  V30 31 C 4.7182 -0.26 -1.9447 0
M  V30 32 O 3.8432 0.633489 -2.0692 0
M  V30 33 C 4.4382 -2.70758 -2.03656 0
M  V30 34 C 2.9972 -2.74923 -2.57088 0
M  V30 35 C 2.1442 -2.42835 -1.3389 0
M  V30 36 H 5.0952 -1.55381 -0.322886 0
M  V30 37 H 5.1162 -2.48861 -2.87834 0
M  V30 38 H 4.6282 -3.60575 -1.43553 0
M  V30 39 H 2.7292 -1.89296 -3.20933 0
M  V30 40 H 2.8422 -3.76157 -2.9672 0
M  V30 41 H 1.2062 -1.93836 -1.65226 0
M  V30 42 H 1.9892 -3.34884 -0.755504 0
M  V30 43 N 4.4343 0.785586 -1.36625 0
M  V30 44 C 5.6623 1.57448 -1.3423 0
M  V30 45 C 6.0773 1.88649 0.0755653 0
M  V30 46 O 5.4343 1.50414 1.03354 0
M  V30 47 C 5.4853 2.89316 -2.16745 0
M  V30 48 O 5.2063 2.59459 -3.53005 0
M  V30 49 C 6.7073 3.83606 -2.22174 0
M  V30 50 H 3.9273 0.488226 -0.4603 0
M  V30 51 H 6.4713 0.974733 -1.79775 0
M  V30 52 H 4.6263 3.4575 -1.74745 0
M  V30 53 H 5.0403 3.43804 -3.96105 0
M  V30 54 H 6.5143 4.73181 -2.8426 0
M  V30 55 H 6.9913 4.21734 -1.22627 0
M  V30 56 H 7.5973 3.33104 -2.64427 0
M  V30 57 N 5.9124 1.20967 1.01018 0
M  V30 58 C 7.3284 0.965905 1.27053 0
M  V30 59 C 7.5284 -0.350785 1.98423 0
M  V30 60 O 6.5844 -1.07773 2.28344 0
M  V30 61 C 7.8974 2.15294 2.09926 0
M  V30 62 C 9.4454 2.19463 2.23171 0
M  V30 63 C 9.9204 3.3767 3.09424 0
M  V30 64 N 11.4114 3.37724 3.17012 0
M  V30 65 C 12.1464 4.25837 3.83993 0
M  V30 66 N 11.6424 5.24138 4.53047 0
M  V30 67 N 13.4354 4.1366 3.80581 0
M  V30 68 H 5.5864 2.0565 0.531194 0
M  V30 69 H 7.8494 0.90024 0.297106 0
M  V30 70 H 7.5554 3.10684 1.64828 0
M  V30 71 H 7.4294 2.13923 3.10672 0
M  V30 72 H 9.8164 1.24632 2.6749 0
M  V30 73 H 9.8974 2.2488 1.21912 0
M  V30 74 H 9.5414 4.32791 2.65808 0
M  V30 75 H 9.4714 3.29491 4.10784 0
M  V30 76 H 11.9624 2.6658 2.6785 0
M  V30 77 H 12.2754 5.87684 5.01844 0
M  V30 78 H 10.6204 5.28068 4.5185 0
M  V30 79 H 13.8114 3.36127 3.25785 0
M  V30 80 H 13.9844 4.82538 4.32505 0
M  V30 81 N 7.3905 -1.2043 1.01659 0
M  V30 82 C 8.6365 -1.90079 0.706963 0
M  V30 83 C 8.9695 -1.78648 -0.761474 0
M  V30 84 O 8.2445 -1.17069 -1.55323 0
M  V30 85 C 8.5275 -3.41469 1.14327 0
M  V30 86 C 8.3805 -3.61833 2.67201 0
M  V30 87 C 9.6995 -4.34261 0.714529 0
M  V30 88 H 6.8185 -0.690254 0.2583 0
M  V30 89 H 9.4605 -1.41826 1.26433 0
M  V30 90 H 7.6105 -3.82696 0.669056 0
M  V30 91 H 9.2825 -3.2986 3.22475 0
M  V30 92 H 7.5255 -3.05304 3.08175 0
M  V30 93 H 8.1965 -4.67955 2.92783 0
M  V30 94 H 10.6725 -4.00682 1.12221 0
M  V30 95 H 9.5485 -5.38806 1.04784 0
M  V30 96 H 9.8095 -4.40431 -0.383799 0
M  V30 97 N 8.8686 -0.792821 -1.36206 0
M  V30 98 C 10.0966 -0.378825 -2.03402 0
M  V30 99 C 10.5116 1.00586 -1.59774 0
M  V30 100 O 9.8686 1.64574 -0.788764 0
M  V30 101 C 9.9196 -0.43683 -3.58851 0
M  V30 102 O 9.6406 -1.76691 -4.00889 0
M  V30 103 C 11.1416 -0.0138943 -4.43298 0
M  V30 104 H 8.3616 -0.155673 -0.652692 0
M  V30 105 H 10.9056 -1.07261 -1.74113 0
M  V30 106 H 9.0606 0.208575 -3.86838 0
M  V30 107 H 9.4746 -1.72011 -4.95492 0
M  V30 108 H 10.9486 -0.105615 -5.51899 0
M  V30 109 H 11.4256 1.03915 -4.2673 0
M  V30 110 H 12.0316 -0.63192 -4.20579 0
M  V30 111 N 10.3467 1.47872 -0.545128 0
M  V30 112 C 11.2967 2.26842 0.229456 0
M  V30 113 C 12.2807 1.33626 0.896267 0
M  V30 114 O 13.4727 1.58063 0.79657 0
M  V30 115 C 10.6017 3.19089 1.26638 0
M  V30 116 C 9.6877 4.19783 0.603598 0
M  V30 117 N 10.0787 5.0479 -0.319405 0
M  V30 118 C 8.3767 4.3765 0.858989 0
M  V30 119 C 9.0777 5.77433 -0.703241 0
M  V30 120 N 8.0537 5.43566 -0.0608309 0
M  V30 121 H 11.8557 2.89947 -0.480391 0
M  V30 122 H 9.3697 1.58263 -0.364209 0
M  V30 123 H 11.3667 3.74337 1.83515 0
M  V30 124 H 10.0267 2.5754 1.97745 0
M  V30 125 H 11.0377 5.13244 -0.692889 0
M  V30 126 H 7.7147 3.87281 1.55948 0
M  V30 127 H 9.1047 6.55824 -1.46098 0
M  V30 128 N 11.8248 0.280983 1.55075 0
M  V30 129 C 13.2358 -0.215629 1.85451 0
M  V30 130 C 13.5868 -1.54991 1.203 0
M  V30 131 O 12.7118 -2.10699 0.493435 0
M  V30 132 C 13.3068 -0.398026 3.36454 0
M  V30 133 C 11.8658 -0.838866 3.66933 0
M  V30 134 C 11.0128 0.064458 2.77225 0
M  V30 135 H 13.9638 0.502601 1.50531 0
M  V30 136 H 13.9848 -1.23569 3.59876 0
M  V30 137 H 13.4968 0.573241 3.83843 0
M  V30 138 H 11.5978 -1.8214 3.25048 0
M  V30 139 H 11.7108 -0.672123 4.74362 0
M  V30 140 H 10.0748 -0.452863 2.50642 0
M  V30 141 H 10.8578 1.03172 3.2743 0
M  V30 142 N 13.3029 -1.57598 0.00835791 0
M  V30 143 C 14.7139 -1.7892 -0.53333 0
M  V30 144 C 15.0649 -0.916609 -1.73473 0
M  V30 145 O 14.1899 -0.121336 -2.1606 0
M  V30 146 C 14.7849 -3.24488 -0.974313 0
M  V30 147 C 13.3439 -3.46878 -1.46125 0
M  V30 148 C 12.4909 -2.74157 -0.416302 0
M  V30 149 H 15.4419 -1.56958 0.234495 0
M  V30 150 H 15.4629 -3.3306 -1.83988 0
M  V30 151 H 14.9749 -3.87972 -0.099718 0
M  V30 152 H 13.0759 -2.8862 -2.35646 0
M  V30 153 H 13.1889 -4.55572 -1.48295 0
M  V30 154 H 11.5529 -2.39022 -0.87981 0
M  V30 155 H 12.3359 -3.40345 0.44947 0
M  V30 156 N 14.781 0.264519 -1.55364 0
M  V30 157 C 16.058 1.01677 -1.67096 0
M  V30 158 C 16.438 2.03996 -0.543015 0
M  V30 159 O 15.786 2.23907 0.45585 0
M  V30 160 C 15.996 1.66596 -3.0667 0
M  V30 161 C 17.344 2.17442 -3.64697 0
M  V30 162 O 18.368 1.76568 -3.09358 0
M  V30 163 O 17.227 2.92439 -4.61673 0
M  V30 164 H 14.321 0.472161 -0.678965 0
M  V30 165 H 16.867 0.259703 -1.67701 0
M  V30 166 H 15.639 0.924962 -3.80211 0
M  V30 167 H 15.262 2.48968 -3.10001 0
M  V30 168 N 16.2591 1.48442 0.529413 0
M  V30 169 C 17.5361 1.46978 1.29062 0
M  V30 170 C 17.9161 0.181769 2.10316 0
M  V30 171 O 17.2641 -0.836481 2.12639 0
M  V30 172 C 17.4741 2.7321 2.17157 0
M  V30 173 C 18.8221 3.21562 2.77278 0
M  V30 174 O 19.8461 2.74131 2.27444 0
M  V30 175 O 18.7051 4.04094 3.67927 0
M  V30 176 H 15.7991 0.587003 0.582543 0
M  V30 177 H 18.3451 1.60676 0.546021 0
M  V30 178 H 17.1171 3.58465 1.56903 0
M  V30 179 H 16.7401 2.62235 2.98862 0
M  V30 180 N 17.7372 -0.778329 1.37039 0
M  V30 181 C 18.9852 -1.53361 1.31623 0
M  V30 182 C 19.3062 -1.94739 -0.100831 0
M  V30 183 O 18.5762 -1.65797 -1.04347 0
M  V30 184 H 17.1562 -0.568794 0.484234 0
M  V30 185 H 19.8182 -0.926742 1.71457 0
M  V30 186 H 18.9142 -2.43606 1.95096 0
M  V30 187 N 19.2153 -1.21501 -1.00376 0
M  V30 188 C 20.6313 -0.972629 -1.26539 0
M  V30 189 C 20.8313 0.340257 -1.98606 0
M  V30 190 O 19.8873 1.06561 -2.28913 0
M  V30 191 C 21.2003 -2.16404 -2.08781 0
M  V30 192 C 22.7483 -2.20643 -2.22004 0
M  V30 193 C 23.2233 -3.39306 -3.07629 0
M  V30 194 N 24.7143 -3.39401 -3.15217 0
M  V30 195 C 25.4493 -4.27867 -3.81729 0
M  V30 196 N 24.9453 -5.26533 -4.5026 0
M  V30 197 N 26.7383 -4.15672 -3.78382 0
M  V30 198 H 18.8893 -2.05929 -0.520281 0
M  V30 199 H 21.1523 -0.901803 -0.292328 0
M  V30 200 H 20.8583 -3.11554 -1.63178 0
M  V30 201 H 20.7323 -2.15567 -3.09533 0
M  V30 202 H 23.1193 -1.26048 -2.66825 0
M  V30 203 H 23.2003 -2.25523 -1.20718 0
M  V30 204 H 22.8443 -4.34195 -2.63509 0
M  V30 205 H 22.7743 -3.31665 -4.09031 0
M  V30 206 H 25.2653 -2.67997 -2.66432 0
M  V30 207 H 25.5783 -5.90337 -4.98721 0
M  V30 208 H 23.9233 -5.30457 -4.49044 0
M  V30 209 H 27.1143 -3.3785 -3.23998 0
M  V30 210 H 27.2873 -4.84825 -4.2994 0
M  V30 211 N 20.6934 1.19889 -1.02296 0
M  V30 212 C 21.9414 1.89046 -0.714558 0
M  V30 213 C 22.2624 1.79636 0.758681 0
M  V30 214 O 21.5324 1.20292 1.54618 0
M  V30 215 H 20.1124 0.699802 -0.261317 0
M  V30 216 H 22.7744 1.45574 -1.29592 0
M  V30 217 H 21.8704 2.95524 -1.0036 0
M  V30 218 N 22.1715 0.800033 1.35784 0
M  V30 219 C 23.0815 0.207204 2.33683 0
M  V30 220 C 24.0975 -0.64631 1.61551 0
M  V30 221 O 25.2735 -0.559604 1.93469 0
M  V30 222 C 22.3385 -0.639659 3.40748 0
M  V30 223 C 21.3995 0.233585 4.28664 0
M  V30 224 C 20.6325 -0.572954 5.30616 0
M  V30 225 O 20.8555 -1.80816 5.40982 0
M  V30 226 O 19.7895 0.0327285 6.01891 0
M  V30 227 H 23.6155 1.01692 2.86169 0
M  V30 228 H 21.2005 0.561691 1.38439 0
M  V30 229 H 23.0825 -1.12223 4.06182 0
M  V30 230 H 21.7575 -1.42708 2.90544 0
M  V30 231 H 20.6645 0.763147 3.66233 0
M  V30 232 H 21.9975 0.984784 4.82248 0
M  V30 233 N 23.6496 -1.47581 0.552962 0
M  V30 234 C 24.5996 -2.26961 -0.217423 0
M  V30 235 C 25.5836 -1.34099 -0.889168 0
M  V30 236 O 26.7756 -1.58483 -0.788176 0
M  V30 237 C 23.9046 -3.19756 -1.24944 0
M  V30 238 C 22.9906 -4.20097 -0.581327 0
M  V30 239 N 23.3816 -5.04614 0.346171 0
M  V30 240 C 21.6796 -4.38099 -0.835767 0
M  V30 241 C 22.3806 -5.77052 0.733854 0
M  V30 242 N 21.3566 -5.43526 0.0896567 0
M  V30 243 H 25.1586 -2.89688 0.495761 0
M  V30 244 H 22.6726 -1.58068 0.372597 0
M  V30 245 H 24.6696 -3.75305 -1.81527 0
M  V30 246 H 23.3296 -2.58585 -1.96376 0
M  V30 247 H 24.3406 -5.12869 0.720098 0
M  V30 248 H 21.0176 -3.88102 -1.53892 0
M  V30 249 H 22.4076 -6.5504 1.49574 0
M  V30 250 N 25.1277 -0.289203 -1.54924 0
M  V30 251 C 26.3747 0.323519 -1.99899 0
M  V30 252 C 26.7027 1.54797 -1.17762 0
M  V30 253 O 25.9577 1.94237 -0.238835 0
M  V30 254 C 26.2567 0.736119 -3.49737 0
M  V30 255 C 25.9227 -0.385276 -4.49251 0
M  V30 256 C 24.5847 -0.693156 -4.76181 0
M  V30 257 C 26.9367 -1.14021 -5.08575 0
M  V30 258 C 24.2647 -1.7593 -5.59701 0
M  V30 259 C 26.6167 -2.19619 -5.93254 0
M  V30 260 C 25.2807 -2.51026 -6.185 0
M  V30 261 H 24.5507 0.118384 -0.731482 0
M  V30 262 H 27.1977 -0.405847 -1.8715 0
M  V30 263 H 25.5027 1.54539 -3.60035 0
M  V30 264 H 27.1997 1.22118 -3.81953 0
M  V30 265 H 23.7897 -0.135202 -4.28387 0
M  V30 266 H 27.9737 -0.915611 -4.87781 0
M  V30 267 H 23.2297 -2.0075 -5.77503 0
M  V30 268 H 27.4037 -2.78581 -6.38252 0
M  V30 269 H 25.0307 -3.33772 -6.83008 0
M  V30 270 N 26.6058 1.57591 -0.0167156 0
M  V30 271 C 28.0218 1.55946 0.339557 0
M  V30 272 C 28.2218 1.02109 1.73713 0
M  V30 273 O 27.2778 0.662303 2.43659 0
M  V30 274 C 28.5908 3.00037 0.199499 0
M  V30 275 C 30.1388 3.11805 0.273193 0
M  V30 276 C 30.6138 4.57713 0.162068 0
M  V30 277 N 32.1048 4.6268 0.219444 0
M  V30 278 C 32.8398 5.73185 0.157054 0
M  V30 279 N 32.3358 6.92786 0.0442936 0
M  V30 280 N 34.1288 5.61707 0.21014 0
M  V30 281 H 26.2798 1.90921 -0.930758 0
M  V30 282 H 28.5428 0.877674 -0.358319 0
M  V30 283 H 28.2488 3.4333 -0.76273 0
M  V30 284 H 28.1228 3.64387 0.974786 0
M  V30 285 H 30.5098 2.68433 1.22587 0
M  V30 286 H 30.5908 2.50201 -0.532256 0
M  V30 287 H 30.2348 5.01763 -0.78714 0
M  V30 288 H 30.1648 5.17283 0.986222 0
M  V30 289 H 32.6558 3.76649 0.307246 0
M  V30 290 H 32.9688 7.728 0.00304069 0
M  V30 291 H 31.3138 6.94999 0.00968457 0
M  V30 292 H 34.5048 4.6716 0.296546 0
M  V30 293 H 34.6778 6.47807 0.158054 0
M  V30 294 N 28.0839 -0.256276 1.55502 0
M  V30 295 C 29.3299 -0.987079 1.77157 0
M  V30 296 C 29.6629 -1.85327 0.580315 0
M  V30 297 O 28.9379 -1.89874 -0.421686 0
M  V30 298 C 29.2209 -1.85553 3.08613 0
M  V30 299 C 29.0739 -1.01816 4.38125 0
M  V30 300 C 30.3929 -2.8397 3.36228 0
M  V30 301 H 27.5119 -0.357428 0.644526 0
M  V30 302 H 30.1539 -0.258239 1.88237 0
M  V30 303 H 28.3039 -2.47695 2.99298 0
M  V30 304 H 29.9759 -0.416159 4.59419 0
M  V30 305 H 28.2189 -0.322178 4.32602 0
M  V30 306 H 28.8899 -1.65939 5.26468 0
M  V30 307 H 31.3659 -2.31964 3.45445 0
M  V30 308 H 30.2419 -3.41864 4.29442 0
M  V30 309 H 30.5029 -3.59955 2.56681 0
M  V30 310 N 29.562 -1.4872 -0.521534 0
M  V30 311 C 30.978 -1.35028 -0.850855 0
M  V30 312 C 31.178 -0.367712 -1.98116 0
M  V30 313 O 30.234 0.208037 -2.51642 0
M  V30 314 C 31.547 -2.75263 -1.21041 0
M  V30 315 C 33.095 -2.83813 -1.31981 0
M  V30 316 C 33.57 -4.24769 -1.71276 0
M  V30 317 N 35.061 -4.27482 -1.78363 0
M  V30 318 C 35.796 -5.33494 -2.1017 0
M  V30 319 N 35.292 -6.49775 -2.40343 0
M  V30 320 N 37.085 -5.20894 -2.11248 0
M  V30 321 H 29.236 -2.11214 0.22413 0
M  V30 322 H 31.499 -0.947252 0.0376439 0
M  V30 323 H 31.205 -3.48765 -0.453415 0
M  V30 324 H 31.079 -3.09327 -2.15863 0
M  V30 325 H 33.466 -2.10561 -2.06756 0
M  V30 326 H 33.547 -2.53358 -0.352596 0
M  V30 327 H 33.191 -4.9854 -0.970588 0
M  V30 328 H 33.121 -4.52673 -2.69062 0
M  V30 329 H 35.612 -3.43611 -1.57288 0
M  V30 330 H 35.925 -7.26402 -2.63743 0
M  V30 331 H 34.27 -6.53035 -2.37844 0
M  V30 332 H 37.461 -4.29065 -1.87139 0
M  V30 333 H 37.634 -6.03612 -2.35704 0
M  V30 334 N 31.0401 0.771051 -1.3745 0
M  V30 335 C 32.2891 1.52491 -1.3202 0
M  V30 336 C 32.6021 1.9538 0.0927347 0
M  V30 337 O 33.8081 2.70159 0.269503 0
M  V30 338 C 32.2641 2.75366 -2.31736 0
M  V30 339 C 31.8721 2.39573 -3.78562 0
M  V30 340 C 33.6161 3.53307 -2.35318 0
M  V30 341 C 31.5231 3.58954 -4.70007 0
M  V30 342 H 30.4531 0.572506 -0.490666 0
M  V30 343 H 33.1041 0.844474 -1.62914 0
M  V30 344 H 31.4861 3.45303 -1.93861 0
M  V30 345 H 32.6601 1.77415 -4.25277 0
M  V30 346 H 30.9751 1.74805 -3.77932 0
M  V30 347 H 33.5721 4.42039 -3.00842 0
M  V30 348 H 33.9151 3.93217 -1.36698 0
M  V30 349 H 34.4481 2.90367 -2.71904 0
M  V30 350 H 31.1871 3.24125 -5.69757 0
M  V30 351 H 30.7071 4.20214 -4.27996 0
M  V30 352 H 32.3861 4.25758 -4.87175 0
M  V30 353 N 32.5182 1.22032 0.997298 0
M  V30 354 C 33.4282 1.00271 2.12092 0
M  V30 355 C 34.4442 -0.047621 1.73935 0
M  V30 356 O 35.6202 0.144136 2.00884 0
M  V30 357 C 32.6852 0.578449 3.4184 0
M  V30 358 C 31.7462 1.70189 3.94125 0
M  V30 359 C 30.9792 1.29778 5.17681 0
M  V30 360 O 31.2022 0.174676 5.70132 0
M  V30 361 O 30.1362 2.11261 5.63607 0
M  V30 362 H 33.9622 1.94398 2.3333 0
M  V30 363 H 31.5472 1.00587 1.10465 0
M  V30 364 H 33.4292 0.351998 4.19927 0
M  V30 365 H 32.1042 -0.334019 3.21972 0
M  V30 366 H 31.0112 1.98282 3.1723 0
M  V30 367 H 32.3442 2.59206 4.18417 0
M  V30 368 N 33.9963 -1.19345 1.0293 0
M  V30 369 C 35.2443 -1.88665 0.724574 0
M  V30 370 C 35.5653 -1.80036 -0.749144 0
M  V30 371 O 34.8353 -1.2111 -1.53978 0
M  V30 372 H 33.4153 -0.698406 0.265025 0
M  V30 373 H 36.0773 -1.44885 1.30362 0
M  V30 374 H 35.1733 -2.94987 1.01926 0
M  V30 375 N 35.4744 -0.807222 -1.35358 0
M  V30 376 C 36.7214 -0.387888 -1.9875 0
M  V30 377 C 37.0494 1.04509 -1.64037 0
M  V30 378 O 36.3044 1.73986 -0.895946 0
M  V30 379 C 36.6034 -0.519036 -3.53611 0
M  V30 380 C 36.2694 -1.91542 -4.08194 0
M  V30 381 C 34.9314 -2.29745 -4.22813 0
M  V30 382 C 37.2834 -2.82896 -4.37744 0
M  V30 383 C 34.6114 -3.58668 -4.643 0
M  V30 384 C 36.9634 -4.11265 -4.8067 0
M  V30 385 C 35.6274 -4.49466 -4.93494 0
M  V30 386 H 34.8974 -0.141938 -0.727279 0
M  V30 387 H 37.5444 -1.02814 -1.6156 0
M  V30 388 H 35.8494 0.204658 -3.91265 0
M  V30 389 H 37.5464 -0.175345 -4.00616 0
M  V30 390 H 34.1364 -1.60862 -3.97268 0
M  V30 391 H 38.3204 -2.54629 -4.26002 0
M  V30 392 H 33.5764 -3.88113 -4.72418 0
M  V30 393 H 37.7504 -4.82153 -5.02496 0
M  V30 394 H 35.3774 -5.49418 -5.25399 0
M  V30 395 N 36.9525 1.47285 -0.560781 0
M  V30 396 C 38.2005 2.02064 -0.0379868 0
M  V30 397 C 38.5215 1.43711 1.31803 0
M  V30 398 O 37.7915 0.61362 1.86042 0
M  V30 399 H 36.3715 0.746918 -0.0110531 0
M  V30 400 H 39.0335 1.80648 -0.731598 0
M  V30 401 H 38.1295 3.12064 0.0474463 0
M  V30 402 N 38.4306 0.297415 1.54768 0
M  V30 403 C 39.6766 -0.313376 2.00364 0
M  V30 404 C 40.0096 -1.53815 1.18553 0
M  V30 405 O 39.2846 -1.92739 0.261103 0
M  V30 406 C 39.5676 -0.673525 3.53745 0
M  V30 407 C 39.4206 0.560133 4.46299 0
M  V30 408 C 40.7396 -1.50143 4.13697 0
M  V30 409 H 37.8586 -0.112428 0.728374 0
M  V30 410 H 40.5006 0.4088 1.8555 0
M  V30 411 H 38.6506 -1.28881 3.665 0
M  V30 412 H 40.3226 1.19863 4.45455 0
M  V30 413 H 38.5656 1.19405 4.17043 0
M  V30 414 H 39.2366 0.26405 5.51368 0
M  V30 415 H 41.7126 -0.981588 4.04356 0
M  V30 416 H 40.5886 -1.72221 5.21182 0
M  V30 417 H 40.8496 -2.48952 3.65343 0
M  V30 418 N 39.9087 -1.5758 0.0250728 0
M  V30 419 C 41.1567 -1.91255 -0.653151 0
M  V30 420 C 41.4777 -0.901691 -1.729 0
M  V30 421 O 40.7477 0.0573785 -1.95816 0
M  V30 422 H 39.3277 -0.705942 -0.244243 0
M  V30 423 H 41.9897 -1.94767 0.0719209 0
M  V30 424 H 41.0857 -2.91752 -1.10847 0
M  V30 425 N 41.3868 0.248026 -1.55636 0
M  V30 426 C 42.6148 0.993808 -1.81469 0
M  V30 427 C 43.0298 1.78991 -0.60064 0
M  V30 428 O 42.3868 1.77345 0.430682 0
M  V30 429 C 42.4378 1.93258 -3.05506 0
M  V30 430 O 42.1588 1.16869 -4.22224 0
M  V30 431 C 43.6598 2.79444 -3.4413 0
M  V30 432 H 40.8798 0.292486 -0.603898 0
M  V30 433 H 43.4238 0.271253 -2.02693 0
M  V30 434 H 41.5788 2.60943 -2.86335 0
M  V30 435 H 41.9928 1.80359 -4.92515 0
M  V30 436 H 43.4668 3.41066 -4.34026 0
M  V30 437 H 43.9438 3.50499 -2.64665 0
M  V30 438 H 44.5498 2.17214 -3.65648 0
M  V30 439 N 42.8649 1.48995 0.513639 0
M  V30 440 C 44.1109 1.59053 1.26783 0
M  V30 441 C 44.4659 0.268136 1.90522 0
M  V30 442 O 43.7589 -0.730534 1.77126 0
M  V30 443 C 43.9529 2.67756 2.36731 0
M  V30 444 C 43.7819 4.10437 1.83771 0
M  V30 445 C 42.5519 4.7738 1.65639 0
M  V30 446 C 44.7499 4.9608 1.35681 0
M  V30 447 N 42.7319 6.04419 1.07476 0
M  V30 448 C 44.1029 6.13496 0.895715 0
M  V30 449 C 46.1579 4.82177 1.24136 0
M  V30 450 C 44.8609 7.1854 0.3306 0
M  V30 451 C 46.8869 5.87358 0.690229 0
M  V30 452 C 46.2489 7.03993 0.239292 0
M  V30 453 H 42.3479 0.636463 0.454355 0
M  V30 454 H 44.9319 1.85948 0.577196 0
M  V30 455 H 43.1029 2.42655 3.03271 0
M  V30 456 H 44.8349 2.67406 3.0377 0
M  V30 457 H 41.5899 4.33974 1.8964 0
M  V30 458 H 42.0139 6.72214 0.803579 0
M  V30 459 H 46.6559 3.92329 1.57601 0
M  V30 460 H 44.3739 8.08098 -0.0163435 0
M  V30 461 H 47.9599 5.78658 0.603852 0
M  V30 462 H 46.8399 7.83992 -0.180526 0
M  V30 463 N 44.343 -0.763751 1.37857 0
M  V30 464 C 45.62 -1.51244 1.24035 0
M  V30 465 C 46 -2.10472 -0.162649 0
M  V30 466 O 45.348 -1.96206 -1.17112 0
M  V30 467 C 45.558 -2.58694 2.34261 0
M  V30 468 C 46.906 -3.25878 2.72193 0
M  V30 469 O 47.93 -2.68993 2.33497 0
M  V30 470 O 46.789 -4.2874 3.38887 0
M  V30 471 H 43.883 -0.670243 0.484462 0
M  V30 472 H 46.429 -0.800031 1.49658 0
M  V30 473 H 45.201 -2.13105 3.2818 0
M  V30 474 H 44.824 -3.37527 2.10146 0
M  V30 475 N 45.8211 -1.22559 -0.990812 0
M  V30 476 C 46.7511 -1.0218 -2.09956 0
M  V30 477 C 47.7321 0.0579394 -1.70001 0
M  V30 478 O 48.9171 -0.104684 -1.93918 0
M  V30 479 C 46.0471 -0.601023 -3.4206 0
M  V30 480 C 45.0011 -1.62694 -3.95872 0
M  V30 481 C 44.3271 -1.06193 -5.24049 0
M  V30 482 C 45.6271 -3.01743 -4.2632 0
M  V30 483 H 47.3211 -1.94916 -2.27262 0
M  V30 484 H 44.8671 -0.938566 -1.09211 0
M  V30 485 H 46.8201 -0.445561 -4.19038 0
M  V30 486 H 45.5441 0.362005 -3.24588 0
M  V30 487 H 44.2031 -1.77021 -3.21028 0
M  V30 488 H 43.8511 -0.0901903 -5.02919 0
M  V30 489 H 43.5511 -1.74732 -5.61019 0
M  V30 490 H 45.0751 -0.918092 -6.03658 0
M  V30 491 H 46.4891 -2.90777 -4.94087 0
M  V30 492 H 44.8861 -3.67425 -4.74467 0
M  V30 493 H 45.9561 -3.51518 -3.34011 0
M  V30 494 N 47.2992 1.18797 -1.03562 0
M  V30 495 C 48.5762 1.84469 -0.650434 0
M  V30 496 C 48.9562 1.92319 0.870433 0
M  V30 497 O 48.3042 1.44528 1.76986 0
M  V30 498 C 48.5142 3.2306 -1.32036 0
M  V30 499 C 49.8622 3.9915 -1.44792 0
M  V30 500 O 50.8862 3.32481 -1.27806 0
M  V30 501 O 49.7452 5.18587 -1.72423 0
M  V30 502 H 46.8392 0.795251 -0.226946 0
M  V30 503 H 49.3852 1.26231 -1.13419 0
M  V30 504 H 48.1572 3.1222 -2.3587 0
M  V30 505 H 47.7802 3.88949 -0.8249 0
M  V30 506 N 48.7773 0.814389 1.34928 0
M  V30 507 C 49.7073 0.244827 2.32213 0
M  V30 508 C 50.6883 -0.634024 1.57842 0
M  V30 509 O 51.8733 -0.562676 1.8587 0
M  V30 510 C 49.0033 -0.601106 3.42058 0
M  V30 511 C 47.9573 0.179896 4.27622 0
M  V30 512 C 47.2833 -0.788237 5.28858 0
M  V30 513 C 48.5833 1.38329 5.03649 0
M  V30 514 H 50.2773 1.05763 2.80097 0
M  V30 515 H 47.8233 0.510029 1.34665 0
M  V30 516 H 49.7763 -1.00968 4.09125 0
M  V30 517 H 48.5003 -1.44688 2.92802 0
M  V30 518 H 47.1593 0.569739 3.62146 0
M  V30 519 H 46.8073 -1.62973 4.75866 0
M  V30 520 H 46.5073 -0.269942 5.8698 0
M  V30 521 H 48.0313 -1.19485 5.98795 0
M  V30 522 H 49.4453 1.04918 5.63618 0
M  V30 523 H 47.8423 1.83662 5.71304 0
M  V30 524 H 48.9123 2.16592 4.33839 0
M  V30 525 N 50.2554 -1.46986 0.568584 0
M  V30 526 C 51.2024 -2.30153 -0.172707 0
M  V30 527 C 52.1724 -1.39759 -0.897586 0
M  V30 528 O 53.3574 -1.68716 -0.891044 0
M  V30 529 C 50.4974 -3.23952 -1.1895 0
M  V30 530 C 49.6104 -4.29441 -0.469517 0
M  V30 531 C 48.7454 -5.1038 -1.47259 0
M  V30 532 C 47.7844 -6.07632 -0.738225 0
M  V30 533 N 46.9214 -6.8149 -1.68868 0
M  V30 534 H 51.7614 -2.93019 0.542596 0
M  V30 535 H 49.2984 -1.44422 0.279401 0
M  V30 536 H 51.2564 -3.76767 -1.79173 0
M  V30 537 H 49.8864 -2.62926 -1.87269 0
M  V30 538 H 48.9384 -3.79594 0.247467 0
M  V30 539 H 50.2504 -4.98689 0.105241 0
M  V30 540 H 49.4044 -5.67402 -2.14803 0
M  V30 541 H 48.1434 -4.4106 -2.08128 0
M  V30 542 H 47.1484 -5.49778 -0.0489293 0
M  V30 543 H 48.3734 -6.78966 -0.135129 0
M  V30 544 H 46.3194 -6.14891 -2.28573 0
M  V30 545 H 46.2364 -7.46948 -1.16636 0
M  V30 546 H 47.5044 -7.43078 -2.3549 0
M  V30 547 N 51.7335 -0.305618 -1.54608 0
M  V30 548 C 52.9615 0.304775 -2.04643 0
M  V30 549 C 53.3765 1.47167 -1.18268 0
M  V30 550 O 52.7335 1.81296 -0.209328 0
M  V30 551 C 52.7845 0.756564 -3.53495 0
M  V30 552 O 52.5055 -0.36389 -4.36586 0
M  V30 553 C 54.0065 1.43163 -4.19546 0
M  V30 554 H 51.2265 0.0655481 -0.667791 0
M  V30 555 H 53.7705 -0.446592 -1.99564 0
M  V30 556 H 51.9255 1.45794 -3.58919 0
M  V30 557 H 52.3395 -0.0113121 -5.24499 0
M  V30 558 H 53.8135 1.69886 -5.25207 0
M  V30 559 H 54.2905 2.37318 -3.69563 0
M  V30 560 H 54.8965 0.773307 -4.18211 0
M  V30 561 N 53.2116 1.57565 -0.0334293 0
M  V30 562 C 54.4576 1.93088 0.639417 0
M  V30 563 C 54.8126 0.910589 1.69488 0
M  V30 564 O 54.1056 -0.0727725 1.91462 0
M  V30 565 C 54.2996 3.33112 1.29504 0
M  V30 566 C 54.1286 4.48667 0.304604 0
M  V30 567 C 52.8986 5.05207 -0.0970777 0
M  V30 568 C 55.0966 5.1239 -0.442845 0
M  V30 569 N 53.0786 6.04286 -1.08223 0
M  V30 570 C 54.4496 6.06609 -1.28161 0
M  V30 571 C 56.5046 4.95352 -0.50308 0
M  V30 572 C 55.2076 6.85622 -2.17519 0
M  V30 573 C 57.2336 5.74978 -1.38401 0
M  V30 574 C 56.5956 6.68816 -2.21054 0
M  V30 575 H 52.6946 0.754335 0.206161 0
M  V30 576 H 55.2786 1.94435 -0.101613 0
M  V30 577 H 53.4496 3.32576 2.00618 0
M  V30 578 H 55.1816 3.55972 1.92525 0
M  V30 579 H 51.9366 4.72782 0.278255 0
M  V30 580 H 52.3606 6.58516 -1.57117 0
M  V30 581 H 57.0026 4.22625 0.121694 0
M  V30 582 H 54.7206 7.57652 -2.81049 0
M  V30 583 H 58.3066 5.63826 -1.43496 0
M  V30 584 H 57.1866 7.29355 -2.88116 0
M  V30 585 N 54.6897 -0.239769 1.55765 0
M  V30 586 C 55.6527 -1.28038 1.90103 0
M  V30 587 C 56.6527 -1.40723 0.778055 0
M  V30 588 O 57.8427 -1.39301 1.04599 0
M  V30 589 C 54.9747 -2.65702 2.13577 0
M  V30 590 H 56.1677 -0.988048 2.83157 0
M  V30 591 H 53.7207 -0.479382 1.48767 0
M  V30 592 H 54.4557 -3.00063 1.23015 0
M  V30 593 H 54.2407 -2.57875 2.95369 0
M  V30 594 H 55.7307 -3.40828 2.41301 0
M  V30 595 N 56.1678 -1.49265 -0.50573 0
M  V30 596 C 57.0978 -1.68495 -1.61653 0
M  V30 597 C 58.0788 -0.53366 -1.61512 0
M  V30 598 O 59.2638 -0.76897 -1.78327 0
M  V30 599 C 56.3938 -1.74709 -3.00157 0
M  V30 600 C 55.3478 -2.89581 -3.15162 0
M  V30 601 C 54.6738 -2.80903 -4.5497 0
M  V30 602 C 55.9738 -4.30578 -2.95634 0
M  V30 603 H 57.6678 -2.61493 -1.45814 0
M  V30 604 H 55.2138 -1.25838 -0.70005 0
M  V30 605 H 57.1668 -1.86748 -3.77761 0
M  V30 606 H 55.8908 -0.783067 -3.17074 0
M  V30 607 H 54.5498 -2.77136 -2.39982 0
M  V30 608 H 54.1978 -1.82419 -4.68756 0
M  V30 609 H 53.8978 -3.57999 -4.65951 0
M  V30 610 H 55.4218 -2.94944 -5.34641 0
M  V30 611 H 56.8358 -4.4373 -3.63011 0
M  V30 612 H 55.2328 -5.0886 -3.18091 0
M  V30 613 H 56.3028 -4.45352 -1.91806 0
M  V30 614 N 57.6459 0.756429 -1.3826 0
M  V30 615 C 58.9229 1.50584 -1.24835 0
M  V30 616 C 59.3029 2.10556 0.151485 0
M  V30 617 O 58.6509 1.96825 1.1607 0
M  V30 618 C 58.8609 2.57448 -2.3563 0
M  V30 619 C 60.2089 3.24429 -2.73917 0
M  V30 620 O 61.2329 2.67751 -2.34921 0
M  V30 621 O 60.0919 4.26937 -3.41156 0
M  V30 622 H 57.1859 0.667664 -0.48801 0
M  V30 623 H 59.7319 0.792083 -1.5008 0
M  V30 624 H 58.5039 2.11362 -3.29305 0
M  V30 625 H 58.1269 3.36408 -2.11933 0
M  V30 626 N 59.124 1.23083 0.984299 0
M  V30 627 C 60.37 1.07221 1.72845 0
M  V30 628 C 60.725 -0.387453 1.88458 0
M  V30 629 O 60.018 -1.28309 1.42293 0
M  V30 630 C 60.212 1.72673 3.1292 0
M  V30 631 C 60.041 3.24853 3.10967 0
M  V30 632 C 58.811 3.93998 3.16376 0
M  V30 633 C 61.009 4.21674 2.94441 0
M  V30 634 N 58.991 5.33192 3.04268 0
M  V30 635 C 60.362 5.47756 2.90453 0
M  V30 636 C 62.417 4.12457 2.78897 0
M  V30 637 C 61.12 6.6568 2.72512 0
M  V30 638 C 63.146 5.3004 2.62319 0
M  V30 639 C 62.508 6.55046 2.59026 0
M  V30 640 H 58.607 0.44685 0.641755 0
M  V30 641 H 61.191 1.55753 1.16829 0
M  V30 642 H 59.362 1.26679 3.67161 0
M  V30 643 H 61.094 1.49824 3.75945 0
M  V30 644 H 57.849 3.45052 3.24401 0
M  V30 645 H 58.273 6.06157 3.015 0
M  V30 646 H 62.915 3.16588 2.80235 0
M  V30 647 H 60.633 7.61689 2.69919 0
M  V30 648 H 64.219 5.24747 2.5126 0
M  V30 649 H 63.099 7.44498 2.46357 0
M  V30 650 N 60.6021 -1.18246 1.0419 0
M  V30 651 C 61.8271 -1.92736 0.765996 0
M  V30 652 C 62.2521 -1.75728 -0.67091 0
M  V30 653 O 61.6101 -1.06825 -1.46486 0
M  V30 654 C 61.6581 -3.42148 1.13875 0
M  V30 655 O 60.7621 -4.11548 0.264954 0
M  V30 656 H 60.1031 -0.601238 0.281797 0
M  V30 657 H 62.6331 -1.49942 1.39207 0
M  V30 658 H 62.6431 -3.92858 1.1012 0
M  V30 659 H 61.3181 -3.53848 2.18551 0
M  V30 660 H 59.8951 -3.71137 0.362226 0
M  V30 661 N 62.0802 -0.821533 -1.34494 0
M  V30 662 C 63.3572 -0.33159 -1.92769 0
M  V30 663 C 63.7372 1.18088 -1.74981 0
M  V30 664 O 63.0852 1.98733 -1.12772 0
M  V30 665 C 63.2952 -0.759398 -3.40638 0
M  V30 666 C 64.6432 -0.757433 -4.1779 0
M  V30 667 O 65.6672 -0.70189 -3.49216 0
M  V30 668 O 64.5262 -0.829361 -5.4017 0
M  V30 669 H 61.6202 -0.0902502 -0.822061 0
M  V30 670 H 64.1662 -0.906231 -1.43477 0
M  V30 671 H 62.9382 -1.8012 -3.47379 0
M  V30 672 H 62.5612 -0.160378 -3.97276 0
M  V30 673 N 63.5583 1.46682 -0.576371 0
M  V30 674 C 64.7863 2.06798 -0.0649635 0
M  V30 675 C 65.2013 1.42612 1.23723 0
M  V30 676 O 64.5583 0.529203 1.74659 0
M  V30 677 C 64.6093 3.6132 0.114202 0
M  V30 678 O 64.3303 4.23104 -1.13644 0
M  V30 679 C 65.8313 4.38349 0.66069 0
M  V30 680 H 63.0513 0.668778 -0.0545616 0
M  V30 681 H 65.5953 1.88404 -0.795237 0
M  V30 682 H 63.7503 3.79162 0.794673 0
M  V30 683 H 64.1643 5.15894 -0.946253 0
M  V30 684 H 65.6383 5.47081 0.73526 0
M  V30 685 H 66.1153 4.05953 1.67627 0
M  V30 686 H 66.7213 4.25297 0.0152951 0
M  V30 687 N 65.0364 0.313813 1.54444 0
M  V30 688 C 65.9994 -0.54379 2.22656 0
M  V30 689 C 66.9994 -1.05124 1.21678 0
M  V30 690 O 68.1894 -0.945225 1.46325 0
M  V30 691 C 65.3214 -1.75427 2.92298 0
M  V30 692 H 66.5144 0.0523599 2.99854 0
M  V30 693 H 64.0674 0.0647834 1.56166 0
M  V30 694 H 64.8024 -2.38991 2.19211 0
M  V30 695 H 64.5874 -1.39791 3.66334 0
M  V30 696 H 66.0774 -2.36325 3.44297 0
M  V30 697 N 66.5145 -1.57545 0.0417849 0
M  V30 698 C 67.9305 -1.56467 -0.314704 0
M  V30 699 C 68.1305 -1.04859 -1.72066 0
M  V30 700 O 67.1865 -0.700983 -2.42575 0
M  V30 701 C 68.4995 -3.00317 -0.15174 0
M  V30 702 C 70.0475 -3.12201 -0.223553 0
M  V30 703 C 70.5225 -4.57913 -0.0892295 0
M  V30 704 N 72.0135 -4.6297 -0.145808 0
M  V30 705 C 72.7485 -5.73362 -0.0658459 0
M  V30 706 N 72.2445 -6.92769 0.0659282 0
M  V30 707 N 74.0375 -5.6197 -0.12075 0
M  V30 708 H 66.1885 -1.89416 0.961014 0
M  V30 709 H 68.4515 -0.871862 0.372237 0
M  V30 710 H 68.1575 -3.42073 0.817254 0
M  V30 711 H 68.0315 -3.65892 -0.916692 0
M  V30 712 H 70.4185 -2.70349 -1.18301 0
M  V30 713 H 70.4995 -2.49323 0.571994 0
M  V30 714 H 70.1435 -5.00448 0.866867 0
M  V30 715 H 70.0735 -5.18786 -0.903802 0
M  V30 716 H 72.5645 -3.7709 -0.247286 0
M  V30 717 H 72.8775 -7.72707 0.119905 0
M  V30 718 H 71.2225 -6.94927 0.100885 0
M  V30 719 H 74.4135 -4.67572 -0.222187 0
M  V30 720 H 74.5865 -6.47977 -0.0549735 0
M  V30 721 N 67.9926 0.231505 -1.5589 0
M  V30 722 C 69.2206 0.974505 -1.82513 0
M  V30 723 C 69.6356 1.78344 -0.619591 0
M  V30 724 O 68.9926 1.77792 0.411848 0
M  V30 725 C 69.0436 1.90007 -3.07538 0
M  V30 726 O 68.7646 1.12385 -4.2344 0
M  V30 727 C 70.2656 2.75779 -3.47075 0
M  V30 728 H 67.4856 0.286065 -0.606966 0
M  V30 729 H 70.0296 0.249739 -2.02969 0
M  V30 730 H 68.1846 2.57891 -2.89086 0
M  V30 731 H 68.5986 1.75125 -4.944 0
M  V30 732 H 70.0726 3.36443 -4.37619 0
M  V30 733 H 70.5496 3.47672 -2.68367 0
M  V30 734 H 71.1556 2.13323 -3.67931 0
M  V30 735 N 69.4707 1.49531 0.497807 0
M  V30 736 C 70.4007 1.6935 1.60757 0
M  V30 737 C 71.3817 0.542218 1.61227 0
M  V30 738 O 72.5667 0.778417 1.77917 0
M  V30 739 C 69.6967 1.76298 2.99226 0
M  V30 740 C 68.6507 2.91248 3.13622 0
M  V30 741 C 67.9767 2.83312 4.53474 0
M  V30 742 C 69.2767 4.3214 2.93346 0
M  V30 743 H 70.9707 2.62263 1.44425 0
M  V30 744 H 68.5167 1.26208 0.693367 0
M  V30 745 H 70.4697 1.88749 3.76765 0
M  V30 746 H 69.1937 0.799871 3.16654 0
M  V30 747 H 67.8527 2.78404 2.38509 0
M  V30 748 H 67.5007 1.84902 4.67782 0
M  V30 749 H 67.2007 3.60465 4.64046 0
M  V30 750 H 68.7247 2.97775 5.33069 0
M  V30 751 H 70.1387 4.45649 3.60652 0
M  V30 752 H 68.5357 5.1054 3.15387 0
M  V30 753 H 69.6057 4.46363 1.89441 0
M  V30 754 N 70.9488 -0.749086 1.3866 0
M  V30 755 C 71.8788 -1.8764 1.38973 0
M  V30 756 C 72.8598 -1.68178 0.255004 0
M  V30 757 O 74.0448 -1.88704 0.458754 0
M  V30 758 C 71.1748 -3.25222 1.21851 0
M  V30 759 C 70.1288 -3.59295 2.32575 0
M  V30 760 C 69.4548 -4.95663 2.00555 0
M  V30 761 C 70.7548 -3.63709 3.7485 0
M  V30 762 H 72.4488 -1.87635 2.3331 0
M  V30 763 H 69.9948 -0.901329 1.12303 0
M  V30 764 H 71.9478 -4.03746 1.20695 0
M  V30 765 H 70.6718 -3.25719 0.239775 0
M  V30 766 H 69.3308 -2.83093 2.32925 0
M  V30 767 H 68.9788 -4.92724 1.01154 0
M  V30 768 H 68.6788 -5.19429 2.74714 0
M  V30 769 H 70.2028 -5.7656 2.01024 0
M  V30 770 H 71.6168 -4.32338 3.76506 0
M  V30 771 H 70.0138 -3.98986 4.48252 0
M  V30 772 H 71.0838 -2.63834 4.06841 0
M  V30 773 N 72.4269 -1.23603 -0.977757 0
M  V30 774 C 73.6749 -1.06759 -1.71601 0
M  V30 775 C 73.9959 0.395929 -1.90938 0
M  V30 776 O 73.2659 1.28356 -1.47992 0
M  V30 777 H 71.8459 -0.392062 -0.635843 0
M  V30 778 H 74.5079 -1.55362 -1.1768 0
M  V30 779 H 73.6039 -1.55763 -2.70452 0
M  V30 780 N 73.905 1.17692 -1.04816 0
M  V30 781 C 75.154 1.87192 -0.751132 0
M  V30 782 C 75.467 1.8169 0.724441 0
M  V30 783 O 76.673 2.46625 1.13527 0
M  V30 784 C 75.129 3.35857 -1.29338 0
M  V30 785 C 74.737 3.4987 -2.79812 0
M  V30 786 C 76.481 4.10709 -1.07322 0
M  V30 787 C 74.388 4.92536 -3.27356 0
M  V30 788 H 73.318 0.701162 -0.277288 0
M  V30 789 H 75.969 1.32932 -1.26496 0
M  V30 790 H 74.351 3.89631 -0.707376 0
M  V30 791 H 75.525 3.06332 -3.44235 0
M  V30 792 H 73.84 2.88433 -3.00325 0
M  V30 793 H 76.437 5.15952 -1.4035 0
M  V30 794 H 76.78 4.16299 -0.0108001 0
M  V30 795 H 77.313 3.6313 -1.62423 0
M  V30 796 H 74.052 4.92119 -4.33012 0
M  V30 797 H 73.572 5.3676 -2.67673 0
M  V30 798 H 75.251 5.61288 -3.21815 0
M  V30 799 N 75.3831 0.828654 1.34056 0
M  V30 800 C 76.6311 0.41863 1.97717 0
M  V30 801 C 76.9521 -1.02314 1.66002 0
M  V30 802 O 76.2221 -1.71119 0.953683 0
M  V30 803 H 74.8021 0.151809 0.731412 0
M  V30 804 H 77.4641 1.05936 1.63596 0
M  V30 805 H 76.5601 0.542318 3.07352 0
M  V30 806 N 76.8612 -1.46375 0.584142 0
M  V30 807 C 77.7932 -2.28443 -0.186119 0
M  V30 808 C 78.8062 -1.38596 -0.854115 0
M  V30 809 O 79.9952 -1.63183 -0.723438 0
M  V30 810 C 77.0952 -3.13671 -1.28311 0
M  V30 811 C 76.2682 -4.31652 -0.706758 0
M  V30 812 C 75.3272 -4.98267 -1.69163 0
M  V30 813 O 74.3532 -5.55815 -1.22712 0
M  V30 814 N 75.5552 -4.95408 -3.02575 0
M  V30 815 H 78.3202 -2.9519 0.517986 0
M  V30 816 H 75.8812 -1.56303 0.42201 0
M  V30 817 H 77.8732 -3.55101 -1.94128 0
M  V30 818 H 76.4432 -2.48989 -1.89005 0
M  V30 819 H 75.6632 -3.93989 0.128908 0
M  V30 820 H 76.9512 -5.07906 -0.301506 0
M  V30 821 H 76.3492 -4.49902 -3.42936 0
M  V30 822 H 74.9062 -5.40774 -3.63877 0
M  V30 823 N 78.3393 -0.321999 -1.54275 0
M  V30 824 C 79.6163 0.335232 -1.92706 0
M  V30 825 C 79.9963 1.70006 -1.25145 0
M  V30 826 O 79.3443 2.25067 -0.394596 0
M  V30 827 C 79.5543 0.429008 -3.46353 0
M  V30 828 C 80.9023 0.690029 -4.18956 0
M  V30 829 O 81.9263 0.511992 -3.52501 0
M  V30 830 O 80.7853 1.03338 -5.36641 0
M  V30 831 H 77.8793 0.191143 -0.804608 0
M  V30 832 H 80.4253 -0.3716 -1.65581 0
M  V30 833 H 79.1973 -0.529611 -3.87699 0
M  V30 834 H 78.8203 1.18348 -3.79578 0
M  V30 835 N 79.8174 1.5752 -0.0501392 0
M  V30 836 C 80.7494 2.08413 0.95376 0
M  V30 837 C 81.7624 1.01175 1.27544 0
M  V30 838 O 82.9514 1.28744 1.23641 0
M  V30 839 C 80.0514 2.51138 2.27559 0
M  V30 840 C 79.2244 3.817 2.13598 0
M  V30 841 C 78.2834 4.10749 3.28895 0
M  V30 842 O 77.3094 4.80685 3.04845 0
M  V30 843 N 78.5114 3.62579 4.5334 0
M  V30 844 H 81.2764 2.95165 0.519383 0
M  V30 845 H 78.8374 1.61327 0.136127 0
M  V30 846 H 80.8294 2.67648 3.03557 0
M  V30 847 H 79.3994 1.6964 2.62567 0
M  V30 848 H 78.6194 3.74782 1.22197 0
M  V30 849 H 79.9074 4.67201 2.01496 0
M  V30 850 H 79.3054 3.06039 4.75769 0
M  V30 851 H 77.8624 3.84329 5.26436 0
M  V30 852 N 81.2955 -0.223234 1.56011 0
M  V30 853 C 82.7065 -0.790368 1.69145 0
M  V30 854 C 83.0575 -1.85055 0.651845 0
M  V30 855 O 82.1825 -2.15498 -0.197359 0
M  V30 856 C 82.7775 -1.4404 3.06656 0
M  V30 857 C 81.3365 -1.95494 3.2165 0
M  V30 858 C 80.4835 -0.814506 2.65068 0
M  V30 859 H 83.4345 0.00139011 1.587 0
M  V30 860 H 83.4555 -2.30916 3.0242 0
M  V30 861 H 82.9675 -0.668543 3.82298 0
M  V30 862 H 81.0685 -2.75487 2.50874 0
M  V30 863 H 81.1815 -2.13607 4.28846 0
M  V30 864 H 79.5455 -1.22137 2.23505 0
M  V30 865 H 80.3285 -0.0553515 3.43255 0
M  V30 866 N 82.7736 -1.49793 -0.48987 0
M  V30 867 C 83.7366 -1.66752 -1.57246 0
M  V30 868 C 84.7366 -0.538867 -1.51502 0
M  V30 869 O 85.9266 -0.805545 -1.54456 0
M  V30 870 C 83.0586 -1.67528 -2.96896 0
M  V30 871 H 84.2516 -2.63321 -1.43534 0
M  V30 872 H 81.8046 -1.38992 -0.714914 0
M  V30 873 H 82.5396 -0.725837 -3.16073 0
M  V30 874 H 82.3246 -2.49504 -3.02473 0
M  V30 875 H 83.8146 -1.82667 -3.7553 0
M  V30 876 N 84.2517 0.741722 -1.39055 0
M  V30 877 C 85.4767 1.53607 -1.39354 0
M  V30 878 C 85.9017 1.88096 0.0116905 0
M  V30 879 O 85.2597 1.5143 0.996924 0
M  V30 880 C 85.3077 2.80441 -2.26682 0
M  V30 881 O 84.4117 3.76088 -1.69208 0
M  V30 882 H 83.7527 0.464142 -0.474835 0
M  V30 883 H 86.2827 0.915665 -1.82967 0
M  V30 884 H 86.2927 3.29246 -2.40959 0
M  V30 885 H 84.9677 2.5467 -3.2881 0
M  V30 886 H 83.5447 3.34833 -1.64138 0
M  V30 887 N 85.7298 1.2412 0.971189 0
M  V30 888 C 86.9598 1.10415 1.7462 0
M  V30 889 C 87.3678 -0.346462 1.86001 0
M  V30 890 O 86.7108 -1.25104 1.34517 0
M  V30 891 C 86.7728 1.66596 3.18568 0
M  V30 892 C 86.4368 3.15446 3.3067 0
M  V30 893 C 87.4338 4.12636 3.16271 0
M  V30 894 C 85.1188 3.55337 3.55022 0
M  V30 895 C 87.1128 5.47699 3.26044 0
M  V30 896 C 84.7998 4.90542 3.64434 0
M  V30 897 C 85.7978 5.86532 3.49956 0
M  V30 898 O 85.4858 7.19279 3.59017 0
M  V30 899 H 85.2178 0.386616 0.55453 0
M  V30 900 H 87.7718 1.64633 1.22821 0
M  V30 901 H 86.0018 1.06808 3.71657 0
M  V30 902 H 87.6908 1.48232 3.77865 0
M  V30 903 H 88.4568 3.8316 2.97344 0
M  V30 904 H 84.3358 2.8113 3.65359 0
M  V30 905 H 87.8798 6.22603 3.14661 0
M  V30 906 H 83.7768 5.19691 3.82873 0
M  V30 907 H 84.5448 7.27153 3.75754 0
M  V30 908 N 87.2079 -1.17134 1.05439 0
M  V30 909 C 88.4849 -1.83411 0.679699 0
M  V30 910 C 88.8649 -1.9368 -0.839726 0
M  V30 911 O 88.2129 -1.47325 -1.74664 0
M  V30 912 C 88.4229 -3.20918 1.37159 0
M  V30 913 C 89.7709 -3.96796 1.51123 0
M  V30 914 O 90.7949 -3.30406 1.3308 0
M  V30 915 O 89.6539 -5.15778 1.80651 0
M  V30 916 H 86.7479 -0.79154 0.239569 0
M  V30 917 H 89.2939 -1.24411 1.15413 0
M  V30 918 H 88.0659 -3.08428 2.40807 0
M  V30 919 H 87.6889 -3.87587 0.886674 0
M  V30 920 N 88.686 -0.835752 -1.33615 0
M  V30 921 C 89.616 -0.281739 -2.31794 0
M  V30 922 C 90.597 0.608833 -1.58831 0
M  V30 923 O 91.782 0.533035 -1.86741 0
M  V30 924 C 88.912 0.546612 -3.42971 0
M  V30 925 C 87.866 -0.247904 -4.27281 0
M  V30 926 C 87.192 0.704001 -5.30045 0
M  V30 927 C 88.492 -1.46324 -5.01385 0
M  V30 928 H 90.186 -1.10206 -2.78379 0
M  V30 929 H 87.732 -0.531388 -1.33837 0
M  V30 930 H 89.685 0.944467 -4.1068 0
M  V30 931 H 88.409 1.40011 -2.95067 0
M  V30 932 H 87.068 -0.627281 -3.61194 0
M  V30 933 H 86.716 1.55381 -4.78399 0
M  V30 934 H 86.416 0.176524 -5.87335 0
M  V30 935 H 87.94 1.09944 -6.0062 0
M  V30 936 H 89.354 -1.13871 -5.61877 0
M  V30 937 H 87.751 -1.92728 -5.6831 0
M  V30 938 H 88.821 -2.23467 -4.30338 0
M  V30 939 N 90.1641 1.46063 -0.591896 0
M  V30 940 C 91.4111 2.02338 -0.0809991 0
M  V30 941 C 91.7391 1.46228 1.28249 0
M  V30 942 O 90.9941 0.620818 1.85592 0
M  V30 943 C 91.2931 3.57391 0.0249813 0
M  V30 944 C 90.9591 4.32583 -1.27211 0
M  V30 945 C 89.6211 4.52844 -1.62745 0
M  V30 946 C 91.9731 4.75687 -2.13005 0
M  V30 947 C 89.3011 5.13462 -2.83855 0
M  V30 948 C 91.6531 5.37644 -3.3335 0
M  V30 949 C 90.3171 5.5613 -3.69155 0
M  V30 950 H 89.5871 0.740407 -0.0296397 0
M  V30 951 H 92.2341 1.75321 -0.770374 0
M  V30 952 H 90.5391 3.83597 0.797537 0
M  V30 953 H 92.2361 3.98621 0.436184 0
M  V30 954 H 88.8261 4.17116 -0.985499 0
M  V30 955 H 93.0101 4.59782 -1.86855 0
M  V30 956 H 88.2661 5.25965 -3.11722 0
M  V30 957 H 92.4401 5.7 -4.00092 0
M  V30 958 H 90.0671 6.0287 -4.63089 0
M  V30 959 N 91.6422 0.330177 1.54103 0
M  V30 960 C 92.5722 -0.525353 2.27513 0
M  V30 961 C 93.5532 -1.11383 1.2856 0
M  V30 962 O 94.7382 -1.13773 1.57383 0
M  V30 963 C 91.8682 -1.6831 3.03791 0
M  V30 964 C 90.8222 -1.2236 4.10137 0
M  V30 965 C 90.1482 -2.46882 4.74293 0
M  V30 966 C 91.4482 -0.333697 5.21233 0
M  V30 967 H 93.1422 0.087013 2.99274 0
M  V30 968 H 90.6882 0.0432893 1.43935 0
M  V30 969 H 92.6412 -2.28795 3.5388 0
M  V30 970 H 91.3652 -2.32216 2.29659 0
M  V30 971 H 90.0242 -0.64165 3.60941 0
M  V30 972 H 89.6722 -3.09165 3.96769 0
M  V30 973 H 89.3722 -2.16825 5.46133 0
M  V30 974 H 90.8962 -3.08117 5.27159 0
M  V30 975 H 92.3102 -0.845013 5.67038 0
M  V30 976 H 90.7072 -0.125612 5.99969 0
M  V30 977 H 91.7772 0.633724 4.80741 0
M  V30 978 N 93.1203 -1.57491 0.0584922 0
M  V30 979 C 94.3453 -1.97711 -0.62652 0
M  V30 980 C 94.7703 -0.936132 -1.63151 0
M  V30 981 O 94.1283 0.099811 -1.81025 0
M  V30 982 C 94.1763 -3.36989 -1.28338 0
M  V30 983 O 93.2803 -3.35433 -2.39913 0
M  V30 984 H 92.6213 -0.643868 -0.162266 0
M  V30 985 H 95.1513 -2.04193 0.129064 0
M  V30 986 H 95.1613 -3.73879 -1.63335 0
M  V30 987 H 93.8363 -4.12289 -0.546889 0
M  V30 988 H 92.4133 -3.10298 -2.06809 0
M  V30 989 N 94.5984 0.214957 -1.56127 0
M  V30 990 C 96.0144 0.564948 -1.49267 0
M  V30 991 C 96.2144 1.86827 -0.754838 0
M  V30 992 O 95.2704 2.50745 -0.297198 0
M  V30 993 C 96.5834 0.638071 -2.93852 0
M  V30 994 C 98.1314 0.728253 -3.0441 0
M  V30 995 C 98.6064 0.832663 -4.50367 0
M  V30 996 N 100.097 0.896712 -4.54437 0
M  V30 997 C 100.832 0.997324 -5.6466 0
M  V30 998 N 100.328 1.06147 -6.8462 0
M  V30 999 N 102.121 1.03297 -5.52527 0
M  V30 1000 H 94.2724 -0.640211 -2.02522 0
M  V30 1001 H 96.5354 -0.225507 -0.920788 0
M  V30 1002 H 96.2414 -0.250126 -3.50809 0
M  V30 1003 H 96.1154 1.49947 -3.46115 0
M  V30 1004 H 98.5024 1.60689 -2.47514 0
M  V30 1005 H 98.5834 -0.158952 -2.55306 0
M  V30 1006 H 98.2274 -0.0415417 -5.07883 0
M  V30 1007 H 98.1574 1.73538 -4.97184 0
M  V30 1008 H 100.648 0.857188 -3.6805 0
M  V30 1009 H 100.961 1.1382 -7.64372 0
M  V30 1010 H 99.3064 1.03049 -6.87318 0
M  V30 1011 H 102.497 0.979558 -4.57736 0
M  V30 1012 H 102.67 1.10793 -6.38458 0
M  V30 1013 N 96.0765 1.50051 0.48192 0
M  V30 1014 C 97.0065 1.71046 1.58951 0
M  V30 1015 C 97.9875 0.559288 1.60642 0
M  V30 1016 O 99.1725 0.797243 1.77081 0
M  V30 1017 C 96.3025 1.79462 2.97339 0
M  V30 1018 C 95.2565 2.94558 3.10515 0
M  V30 1019 C 94.5825 2.88105 4.50444 0
M  V30 1020 C 95.8825 4.35227 2.88747 0
M  V30 1021 H 97.5765 2.6378 1.41635 0
M  V30 1022 H 95.1225 1.26936 0.679942 0
M  V30 1023 H 97.0755 1.92734 3.74742 0
M  V30 1024 H 95.7995 0.833412 3.15788 0
M  V30 1025 H 94.4585 2.80918 2.35543 0
M  V30 1026 H 94.1065 1.89853 4.65795 0
M  V30 1027 H 93.8065 3.65366 4.60197 0
M  V30 1028 H 95.3305 3.03412 5.29881 0
M  V30 1029 H 96.7445 4.49449 3.55905 0
M  V30 1030 H 95.1415 5.13856 3.09955 0
M  V30 1031 H 96.2115 4.48347 1.84696 0
M  V30 1032 N 97.5546 -0.734337 1.39446 0
M  V30 1033 C 98.4646 -1.87879 1.40495 0
M  V30 1034 C 99.4806 -1.714 0.299672 0
M  V30 1035 O 100.657 -1.93991 0.541249 0
M  V30 1036 C 97.7216 -3.23477 1.24754 0
M  V30 1037 C 96.7826 -3.52344 2.45259 0
M  V30 1038 C 96.0156 -4.81473 2.30259 0
M  V30 1039 O 96.2386 -5.55237 1.30643 0
M  V30 1040 O 95.1726 -5.10254 3.19256 0
M  V30 1041 H 98.9986 -1.89949 2.36966 0
M  V30 1042 H 96.5836 -0.882243 1.20569 0
M  V30 1043 H 98.4656 -4.04509 1.18111 0
M  V30 1044 H 97.1406 -3.22176 0.313781 0
M  V30 1045 H 96.0476 -2.71396 2.57478 0
M  V30 1046 H 97.3806 -3.58426 3.37331 0
M  V30 1047 N 99.0327 -1.24633 -0.964593 0
M  V30 1048 C 100.444 -1.08045 -1.5226 0
M  V30 1049 C 100.795 0.347116 -1.93105 0
M  V30 1050 O 99.9197 1.23588 -1.77637 0
M  V30 1051 C 100.515 -1.95514 -2.76695 0
M  V30 1052 C 99.0737 -1.8314 -3.28841 0
M  V30 1053 C 98.2207 -1.90262 -2.01732 0
M  V30 1054 H 101.172 -1.38064 -0.782553 0
M  V30 1055 H 101.193 -1.48925 -3.50145 0
M  V30 1056 H 100.705 -2.99407 -2.46936 0
M  V30 1057 H 98.8057 -0.82092 -3.63444 0
M  V30 1058 H 98.9187 -2.67406 -3.97531 0
M  V30 1059 H 97.2827 -1.34027 -2.16584 0
M  V30 1060 H 98.0657 -2.9574 -1.74334 0
M  V30 1061 N 100.511 1.16574 -1.06058 0
M  V30 1062 C 101.788 1.83048 -0.689416 0
M  V30 1063 C 102.168 1.94122 0.829443 0
M  V30 1064 O 101.516 1.48249 1.7388 0
M  V30 1065 C 101.726 3.20186 -1.38859 0
M  V30 1066 C 103.074 3.95989 -1.53226 0
M  V30 1067 O 104.098 3.29696 -1.3483 0
M  V30 1068 O 102.957 5.14813 -1.83384 0
M  V30 1069 H 100.051 0.790258 -0.243764 0
M  V30 1070 H 102.597 1.23797 -1.16071 0
M  V30 1071 H 101.369 3.07146 -2.4244 0
M  V30 1072 H 100.992 3.87112 -0.907216 0
M  V30 1073 N 101.989 0.842826 1.3317 0
M  V30 1074 C 103.266 0.362216 1.92217 0
M  V30 1075 C 103.646 -1.15289 1.76838 0
M  V30 1076 O 102.994 -1.96914 1.15919 0
M  V30 1077 C 103.204 0.813495 3.39387 0
M  V30 1078 C 104.552 0.823804 4.16532 0
M  V30 1079 O 105.576 0.757358 3.48055 0
M  V30 1080 O 104.435 0.915193 5.38782 0
M  V30 1081 H 101.529 0.103317 0.820521 0
M  V30 1082 H 104.075 0.928942 1.42017 0
M  V30 1083 H 102.847 1.85624 3.4447 0
M  V30 1084 H 102.47 0.223561 3.96971 0
M  V30 1085 N 103.467 -1.45747 0.599634 0
M  V30 1086 C 104.883 -1.57424 0.26264 0
M  V30 1087 C 105.083 -1.59222 -1.23493 0
M  V30 1088 O 104.139 -1.51825 -2.01756 0
M  V30 1089 C 105.452 -2.86061 0.926795 0
M  V30 1090 C 107 -2.99722 0.901967 0
M  V30 1091 C 107.475 -4.31119 1.54598 0
M  V30 1092 N 108.966 -4.37858 1.5111 0
M  V30 1093 C 109.701 -5.3818 1.97863 0
M  V30 1094 N 109.197 -6.45083 2.52666 0
M  V30 1095 N 110.99 -5.29487 1.88679 0
M  V30 1096 H 103.141 -1.42823 1.57211 0
M  V30 1097 H 105.404 -0.68235 0.658105 0
M  V30 1098 H 105.11 -2.90605 1.98095 0
M  V30 1099 H 104.984 -3.74563 0.445238 0
M  V30 1100 H 107.371 -2.9475 -0.143617 0
M  V30 1101 H 107.452 -2.12652 1.42171 0
M  V30 1102 H 107.096 -4.36849 2.59085 0
M  V30 1103 H 107.026 -5.16992 1.00132 0
M  V30 1104 H 109.517 -3.61209 1.11068 0
M  V30 1105 H 109.83 -7.17869 2.86155 0
M  V30 1106 H 108.175 -6.45856 2.56701 0
M  V30 1107 H 111.366 -4.44877 1.4561 0
M  V30 1108 H 111.539 -6.07524 2.25429 0
M  V30 1109 N 104.945 -0.338344 -1.53925 0
M  V30 1110 C 105.855 0.529421 -2.28548 0
M  V30 1111 C 106.871 1.11645 -1.3346 0
M  V30 1112 O 108.047 1.13325 -1.66492 0
M  V30 1113 C 105.112 1.66713 -3.03987 0
M  V30 1114 C 104.173 1.11041 -4.14691 0
M  V30 1115 C 103.406 2.19389 -4.86522 0
M  V30 1116 O 103.629 3.40013 -4.57982 0
M  V30 1117 O 102.563 1.83976 -5.73094 0
M  V30 1118 H 106.389 -0.0770399 -3.03602 0
M  V30 1119 H 103.974 -0.103555 -1.49041 0
M  V30 1120 H 105.856 2.32918 -3.5118 0
M  V30 1121 H 104.531 2.25949 -2.31794 0
M  V30 1122 H 103.438 0.413024 -3.71813 0
M  V30 1123 H 104.771 0.562975 -4.8897 0
M  V30 1124 N 106.423 1.57458 -0.0668435 0
M  V30 1125 C 107.839 1.56947 0.289772 0
M  V30 1126 C 108.039 1.07584 1.70376 0
M  V30 1127 O 107.095 0.739486 2.41429 0
M  V30 1128 C 108.408 3.0052 0.103943 0
M  V30 1129 C 109.956 3.12517 0.173857 0
M  V30 1130 C 110.431 4.57997 0.0163682 0
M  V30 1131 N 111.922 4.63144 0.0721352 0
M  V30 1132 C 112.657 5.73394 -0.0253794 0
M  V30 1133 N 112.153 6.92576 -0.176133 0
M  V30 1134 N 113.946 5.62091 0.0313305 0
M  V30 1135 H 106.097 1.87863 -0.991027 0
M  V30 1136 H 108.36 0.86583 -0.38606 0
M  V30 1137 H 108.066 3.40729 -0.871572 0
M  V30 1138 H 107.94 3.67304 0.858366 0
M  V30 1139 H 110.327 2.72197 1.13985 0
M  V30 1140 H 110.408 2.48381 -0.611586 0
M  V30 1141 H 110.052 4.99005 -0.946374 0
M  V30 1142 H 109.982 5.20158 0.821153 0
M  V30 1143 H 112.473 3.77436 0.187263 0
M  V30 1144 H 112.786 7.72418 -0.242821 0
M  V30 1145 H 111.131 6.94678 -0.211429 0
M  V30 1146 H 114.322 4.67867 0.147773 0
M  V30 1147 H 114.495 6.47982 -0.048121 0
M  V30 1148 N 107.901 -0.206675 1.56239 0
M  V30 1149 C 109.147 -0.930218 1.80208 0
M  V30 1150 C 109.48 -1.83387 0.638981 0
M  V30 1151 O 108.755 -1.91119 -0.361066 0
M  V30 1152 C 109.038 -1.75641 3.1436 0
M  V30 1153 C 108.891 -0.878257 4.41142 0
M  V30 1154 C 110.21 -2.73129 3.45092 0
M  V30 1155 H 107.329 -0.336742 0.655571 0
M  V30 1156 H 109.971 -0.198222 1.88963 0
M  V30 1157 H 108.121 -2.38048 3.07027 0
M  V30 1158 H 109.793 -0.269787 4.6051 0
M  V30 1159 H 108.036 -0.184385 4.33408 0
M  V30 1160 H 108.707 -1.49106 5.3148 0
M  V30 1161 H 111.183 -2.20856 3.52649 0
M  V30 1162 H 110.059 -3.28028 4.40101 0
M  V30 1163 H 110.32 -3.51606 2.68003 0
M  V30 1164 N 109.379 -1.50304 -0.473955 0
M  V30 1165 C 110.289 -1.7174 -1.5982 0
M  V30 1166 C 111.305 -0.600457 -1.63311 0
M  V30 1167 O 112.481 -0.878441 -1.81233 0
M  V30 1168 C 109.546 -1.80427 -2.96052 0
M  V30 1169 C 108.607 -3.04148 -3.02972 0
M  V30 1170 C 107.84 -3.12411 -4.32706 0
M  V30 1171 O 108.063 -2.27542 -5.23049 0
M  V30 1172 O 106.997 -4.05113 -4.45159 0
M  V30 1173 H 110.823 -2.67035 -1.44657 0
M  V30 1174 H 108.408 -1.34366 -0.653148 0
M  V30 1175 H 110.29 -1.88338 -3.7697 0
M  V30 1176 H 108.965 -0.883156 -3.11419 0
M  V30 1177 H 107.872 -3.0174 -2.21142 0
M  V30 1178 H 109.205 -3.95829 -2.92541 0
M  V30 1179 N 110.857 0.726932 -1.39834 0
M  V30 1180 C 112.082 1.52121 -1.40976 0
M  V30 1181 C 112.507 1.88098 -0.00826029 0
M  V30 1182 O 111.865 1.52479 0.980807 0
M  V30 1183 C 111.913 2.78021 -2.29644 0
M  V30 1184 O 111.017 3.74272 -1.73188 0
M  V30 1185 H 110.358 0.45908 -0.479731 0
M  V30 1186 H 112.888 0.896207 -1.83927 0
M  V30 1187 H 112.898 3.26671 -2.44438 0
M  V30 1188 H 111.573 2.51169 -3.31492 0
M  V30 1189 H 110.15 3.33073 -1.6768 0
M  V30 1190 N 112.336 1.25143 0.95797 0
M  V30 1191 C 113.299 1.05321 2.03569 0
M  V30 1192 C 114.299 0.007152 1.60798 0
M  V30 1193 O 115.489 0.24903 1.72411 0
M  V30 1194 C 112.621 0.598394 3.35607 0
M  V30 1195 H 113.814 2.00986 2.22586 0
M  V30 1196 H 111.367 1.07502 1.13459 0
M  V30 1197 H 112.102 -0.361014 3.22284 0
M  V30 1198 H 111.887 1.35351 3.67998 0
M  V30 1199 H 113.377 0.48104 4.1482 0
M  V30 1200 N 113.814 -1.1601 1.06675 0
M  V30 1201 C 115.063 -1.85973 0.780818 0
M  V30 1202 C 115.376 -1.82819 -0.695444 0
M  V30 1203 O 116.582 -2.484 -1.09589 0
M  V30 1204 C 115.038 -3.33757 1.34665 0
M  V30 1205 C 114.646 -3.45374 2.85343 0
M  V30 1206 C 116.39 -4.0895 1.13843 0
M  V30 1207 C 114.297 -4.87266 3.35151 0
M  V30 1208 H 113.227 -0.696661 0.288407 0
M  V30 1209 H 115.878 -1.30903 1.28595 0
M  V30 1210 H 114.26 -3.88456 0.769274 0
M  V30 1211 H 115.434 -3.00816 3.49065 0
M  V30 1212 H 113.749 -2.83619 3.04876 0
M  V30 1213 H 116.346 -5.13654 1.4854 0
M  V30 1214 H 116.689 -4.16229 0.0770282 0
M  V30 1215 H 117.222 -3.605 1.68179 0
M  V30 1216 H 113.961 -4.85168 4.40786 0
M  V30 1217 H 113.481 -5.32433 2.76179 0
M  V30 1218 H 115.16 -5.56097 3.30704 0
M  V30 1219 N 115.292 -0.849877 -1.32721 0
M  V30 1220 C 116.239 -0.289033 -2.28983 0
M  V30 1221 C 117.209 0.601324 -1.54833 0
M  V30 1222 O 118.394 0.537253 -1.8308 0
M  V30 1223 C 115.534 0.520623 -3.4115 0
M  V30 1224 C 114.647 -0.394989 -4.3019 0
M  V30 1225 C 113.782 0.426834 -5.29482 0
M  V30 1226 C 112.821 -0.486476 -6.10164 0
M  V30 1227 N 111.958 0.297879 -7.01468 0
M  V30 1228 H 116.798 -1.11519 -2.76347 0
M  V30 1229 H 114.335 -0.56138 -1.35967 0
M  V30 1230 H 116.293 1.00563 -4.04899 0
M  V30 1231 H 114.923 1.31165 -2.9495 0
M  V30 1232 H 113.975 -0.99836 -3.67065 0
M  V30 1233 H 115.287 -1.09612 -4.86607 0
M  V30 1234 H 114.441 0.975205 -5.98811 0
M  V30 1235 H 113.18 1.16136 -4.73671 0
M  V30 1236 H 112.185 -1.04677 -5.39743 0
M  V30 1237 H 113.41 -1.21953 -6.6806 0
M  V30 1238 H 111.356 1.01558 -6.48091 0
M  V30 1239 H 111.273 -0.344318 -7.55216 0
M  V30 1240 H 112.541 0.828131 -7.75089 0
M  V30 1241 N 116.77 1.45427 -0.607355 0
M  V30 1242 C 118.186 1.57283 -0.270985 0
M  V30 1243 C 118.386 1.59875 1.22647 0
M  V30 1244 O 117.442 1.52893 2.00948 0
M  V30 1245 C 118.755 2.85566 -0.941952 0
M  V30 1246 C 120.303 2.9924 -0.917849 0
M  V30 1247 C 120.778 4.30293 -1.56882 0
M  V30 1248 N 122.269 4.37051 -1.5343 0
M  V30 1249 C 123.004 5.37123 -2.00715 0
M  V30 1250 N 122.5 6.43734 -2.56084 0
M  V30 1251 N 124.293 5.28479 -1.91484 0
M  V30 1252 H 116.444 1.41988 -1.57966 0
M  V30 1253 H 118.707 0.67885 -0.661715 0
M  V30 1254 H 118.413 2.8955 -1.99633 0
M  V30 1255 H 118.287 3.74322 -0.465096 0
M  V30 1256 H 120.674 2.94822 0.127984 0
M  V30 1257 H 120.755 2.11895 -1.43297 0
M  V30 1258 H 120.399 4.35469 -2.61398 0
M  V30 1259 H 120.329 5.16454 -1.02873 0
M  V30 1260 H 122.82 3.60615 -1.12982 0
M  V30 1261 H 123.133 7.16341 -2.89958 0
M  V30 1262 H 121.478 6.44485 -2.60122 0
M  V30 1263 H 124.669 4.44098 -1.47967 0
M  V30 1264 H 124.842 6.0632 -2.28648 0
M  V30 1265 N 118.248 0.346503 1.53744 0
M  V30 1266 C 119.494 -0.249473 2.0126 0
M  V30 1267 C 119.827 -1.49965 1.23386 0
M  V30 1268 O 119.102 -1.91811 0.32229 0
M  V30 1269 C 119.385 -0.560643 3.55709 0
M  V30 1270 C 119.238 0.701836 4.44291 0
M  V30 1271 C 120.557 -1.36905 4.18264 0
M  V30 1272 H 117.676 -0.0891987 0.731582 0
M  V30 1273 H 120.318 0.467624 1.84156 0
M  V30 1274 H 118.468 -1.17156 3.70414 0
M  V30 1275 H 120.14 1.33974 4.41417 0
M  V30 1276 H 118.383 1.32612 4.13033 0
M  V30 1277 H 119.054 0.43933 5.50249 0
M  V30 1278 H 121.53 -0.852448 4.07275 0
M  V30 1279 H 120.406 -1.55553 5.26398 0
M  V30 1280 H 120.667 -2.37203 3.73078 0
M  V30 1281 N 119.726 -1.57421 0.075193 0
M  V30 1282 C 120.951 -1.98364 -0.605515 0
M  V30 1283 C 121.376 -0.953383 -1.62149 0
M  V30 1284 O 120.734 0.0806053 -1.81121 0
M  V30 1285 C 120.782 -3.38332 -1.24756 0
M  V30 1286 O 119.886 -3.37959 -2.36342 0
M  V30 1287 H 119.227 -0.645553 -0.155428 0
M  V30 1288 H 121.757 -2.04044 0.150714 0
M  V30 1289 H 121.767 -3.75591 -1.5936 0
M  V30 1290 H 120.442 -4.12846 -0.503129 0
M  V30 1291 H 119.019 -3.12474 -2.03506 0
M  V30 1292 N 121.204 0.198386 -1.56346 0
M  V30 1293 C 122.114 1.2664 -1.97483 0
M  V30 1294 C 123.13 1.49989 -0.882002 0
M  V30 1295 O 124.306 1.62668 -1.18748 0
M  V30 1296 C 121.371 2.59141 -2.30319 0
M  V30 1297 C 120.432 2.43892 -3.53292 0
M  V30 1298 C 119.665 3.70074 -3.84553 0
M  V30 1299 O 119.888 4.74101 -3.1715 0
M  V30 1300 O 118.822 3.658 -4.7799 0
M  V30 1301 H 122.648 0.947304 -2.88548 0
M  V30 1302 H 120.233 0.403123 -1.43859 0
M  V30 1303 H 122.115 3.37352 -2.5253 0
M  V30 1304 H 120.79 2.90684 -1.42423 0
M  V30 1305 H 119.697 1.63803 -3.36332 0
M  V30 1306 H 121.03 2.17282 -4.41644 0
M  V30 1307 N 122.682 1.50554 0.465978 0
M  V30 1308 C 124.098 1.38093 0.800154 0
M  V30 1309 C 124.298 0.440988 1.96615 0
M  V30 1310 O 123.354 -0.114499 2.5224 0
M  V30 1311 C 124.667 2.79565 1.10742 0
M  V30 1312 C 126.215 2.88516 1.21357 0
M  V30 1313 C 126.69 4.30833 1.55393 0
M  V30 1314 N 128.181 4.33807 1.62375 0
M  V30 1315 C 128.916 5.40927 1.90225 0
M  V30 1316 N 128.412 6.58247 2.16062 0
M  V30 1317 N 130.205 5.28376 1.9177 0
M  V30 1318 H 122.356 2.10237 -0.302366 0
M  V30 1319 H 124.619 0.945203 -0.0727746 0
M  V30 1320 H 124.325 3.50208 0.323661 0
M  V30 1321 H 124.199 3.17125 2.04234 0
M  V30 1322 H 126.586 2.1809 1.98799 0
M  V30 1323 H 126.667 2.54492 0.258321 0
M  V30 1324 H 126.311 5.01799 0.784889 0
M  V30 1325 H 126.241 4.62347 2.52076 0
M  V30 1326 H 128.732 3.49212 1.44427 0
M  V30 1327 H 129.045 7.3569 2.36601 0
M  V30 1328 H 127.39 6.61413 2.13444 0
M  V30 1329 H 130.581 4.35715 1.71085 0
M  V30 1330 H 130.754 6.11944 2.13139 0
M  V30 1331 N 124.16 -0.719506 1.40217 0
M  V30 1332 C 125.408 -1.47641 1.3801 0
M  V30 1333 C 125.729 -1.94992 -0.018145 0
M  V30 1334 O 124.999 -1.70073 -0.972207 0
M  V30 1335 H 123.579 -0.547744 0.507923 0
M  V30 1336 H 126.241 -0.853187 1.75233 0
M  V30 1337 H 125.337 -2.35112 2.05253 0
M  V30 1338 N 125.638 -1.25649 -0.95132 0
M  V30 1339 C 126.886 -1.10375 -1.69298 0
M  V30 1340 C 127.207 0.355339 -1.91735 0
M  V30 1341 O 126.477 1.25188 -1.50681 0
M  V30 1342 H 125.057 -0.405461 -0.627384 0
M  V30 1343 H 127.719 -1.57823 -1.14358 0
M  V30 1344 H 126.815 -1.61465 -2.67087 0
M  V30 1345 N 127.117 1.15442 -1.07289 0
M  V30 1346 C 128.365 1.85845 -0.794096 0
M  V30 1347 C 128.686 1.82692 0.681809 0
M  V30 1348 O 127.956 1.26741 1.49377 0
M  V30 1349 H 126.536 0.688089 -0.290763 0
M  V30 1350 H 129.198 1.39947 -1.3565 0
M  V30 1351 H 128.294 2.91001 -1.12804 0
M  V30 1352 N 128.595 0.856903 1.32268 0
M  V30 1353 C 129.842 0.461386 1.97174 0
M  V30 1354 C 130.17 -0.983491 1.67803 0
M  V30 1355 O 129.425 -1.70541 0.959903 0
M  V30 1356 C 129.724 0.649919 3.51441 0
M  V30 1357 C 129.39 2.0656 4.00804 0
M  V30 1358 C 128.052 2.45279 4.13995 0
M  V30 1359 C 130.404 2.98947 4.26943 0
M  V30 1360 C 127.732 3.75653 4.50668 0
M  V30 1361 C 130.084 4.28822 4.65075 0
M  V30 1362 C 128.748 4.67472 4.76472 0
M  V30 1363 H 128.018 0.168833 0.72151 0
M  V30 1364 H 130.665 1.08739 1.57633 0
M  V30 1365 H 128.97 -0.0593018 3.91755 0
M  V30 1366 H 130.667 0.32391 3.9969 0
M  V30 1367 H 127.257 1.75495 3.91024 0
M  V30 1368 H 131.441 2.70265 4.16258 0
M  V30 1369 H 126.697 4.05379 4.57688 0
M  V30 1370 H 130.871 5.0047 4.84255 0
M  V30 1371 H 128.498 5.68539 5.04646 0
M  V30 1372 N 130.073 -1.45103 0.615059 0
M  V30 1373 C 131.35 -1.95549 0.0448276 0
M  V30 1374 C 131.73 -1.55737 -1.4251 0
M  V30 1375 O 131.078 -0.823556 -2.13143 0
M  V30 1376 C 131.288 -3.48098 0.250785 0
M  V30 1377 C 132.636 -4.24384 0.135509 0
M  V30 1378 O 133.66 -3.55738 0.181299 0
M  V30 1379 O 132.519 -5.46493 0.0268878 0
M  V30 1380 H 129.613 -0.8264 -0.0314845 0
M  V30 1381 H 132.159 -1.55232 0.685642 0
M  V30 1382 H 130.931 -3.7007 1.27139 0
M  V30 1383 H 130.554 -3.95323 -0.424937 0
M  V30 1384 N 131.551 -0.354651 -1.53558 0
M  V30 1385 C 132.797 0.238797 -2.01389 0
M  V30 1386 C 133.13 1.49309 -1.2418 0
M  V30 1387 O 132.405 1.91638 -0.332457 0
M  V30 1388 C 132.688 0.541771 -3.56001 0
M  V30 1389 C 132.541 -0.725388 -4.43912 0
M  V30 1390 C 133.86 1.34685 -4.18984 0
M  V30 1391 H 130.979 0.0853177 -0.732045 0
M  V30 1392 H 133.621 -0.477384 -1.83905 0
M  V30 1393 H 131.771 1.15189 -3.71031 0
M  V30 1394 H 133.443 -1.36313 -4.407 0
M  V30 1395 H 131.686 -1.34801 -4.12324 0
M  V30 1396 H 132.357 -0.468505 -5.50008 0
M  V30 1397 H 134.833 0.830837 -4.07721 0
M  V30 1398 H 133.709 1.52759 -5.27215 0
M  V30 1399 H 133.97 2.35221 -3.74331 0
M  V30 1400 N 133.029 1.57378 -0.0835403 0
M  V30 1401 C 134.254 1.98682 0.594987 0
M  V30 1402 C 134.679 0.961969 1.61641 0
M  V30 1403 O 134.037 -0.0709989 1.81161 0
M  V30 1404 C 134.085 3.38988 1.2296 0
M  V30 1405 O 133.189 3.39208 2.34546 0
M  V30 1406 H 132.53 0.646368 0.152002 0
M  V30 1407 H 135.06 2.03961 -0.161533 0
M  V30 1408 H 135.07 3.76431 1.57366 0
M  V30 1409 H 133.745 4.13107 0.481228 0
M  V30 1410 H 132.322 3.13548 2.01846 0
M  V30 1411 N 134.507 -0.190092 1.56449 0
M  V30 1412 C 135.754 -0.909705 1.80916 0
M  V30 1413 C 136.082 -1.83047 0.657583 0
M  V30 1414 O 135.337 -1.92428 -0.356356 0
M  V30 1415 C 135.636 -1.75382 3.1141 0
M  V30 1416 C 135.302 -0.983606 4.40041 0
M  V30 1417 C 133.964 -0.770967 4.74984 0
M  V30 1418 C 136.316 -0.442024 5.19322 0
M  V30 1419 C 133.644 -0.0053448 5.867 0
M  V30 1420 C 135.996 0.310412 6.31838 0
M  V30 1421 C 134.66 0.534023 6.6536 0
M  V30 1422 H 133.93 -0.332885 0.662019 0
M  V30 1423 H 136.577 -0.175762 1.90692 0
M  V30 1424 H 134.882 -2.55659 2.96893 0
M  V30 1425 H 136.579 -2.31331 3.27547 0
M  V30 1426 H 133.169 -1.15936 4.12622 0
M  V30 1427 H 137.353 -0.593693 4.92736 0
M  V30 1428 H 132.609 0.177825 6.11141 0
M  V30 1429 H 136.783 0.737419 6.92485 0
M  V30 1430 H 134.41 1.12918 7.51767 0
M  V30 1431 N 135.985 -1.50799 -0.457987 0
M  V30 1432 C 137.401 -1.38515 -0.792819 0
M  V30 1433 C 137.601 -0.451409 -1.96379 0
M  V30 1434 O 136.657 0.10112 -2.52297 0
M  V30 1435 C 137.97 -2.80149 -1.09258 0
M  V30 1436 C 139.518 -2.89156 -1.19825 0
M  V30 1437 C 139.993 -4.31651 -1.53106 0
M  V30 1438 N 141.484 -4.34662 -1.60072 0
M  V30 1439 C 142.219 -5.41928 -1.87354 0
M  V30 1440 N 141.715 -6.59384 -2.12568 0
M  V30 1441 N 143.508 -5.29385 -1.88965 0
M  V30 1442 H 135.659 -2.10073 0.313511 0
M  V30 1443 H 137.922 -0.944803 0.0777862 0
M  V30 1444 H 137.628 -3.50374 -0.305084 0
M  V30 1445 H 137.502 -3.18204 -2.02549 0
M  V30 1446 H 139.889 -2.19141 -1.97639 0
M  V30 1447 H 139.97 -2.54626 -0.244821 0
M  V30 1448 H 139.614 -5.02208 -0.758266 0
M  V30 1449 H 139.544 -4.63678 -2.49621 0
M  V30 1450 H 142.035 -3.49973 -1.42573 0
M  V30 1451 H 142.348 -7.36934 -2.32696 0
M  V30 1452 H 140.693 -6.62535 -2.09933 0
M  V30 1453 H 143.884 -4.36616 -1.68772 0
M  V30 1454 H 144.057 -6.13066 -2.09891 0
M  V30 1455 N 137.463 0.71206 -1.40597 0
M  V30 1456 C 138.709 1.47416 -1.39271 0
M  V30 1457 C 139.042 1.942 0.00388791 0
M  V30 1458 O 138.317 1.68403 0.973179 0
M  V30 1459 C 138.6 2.69774 -2.38525 0
M  V30 1460 C 138.453 2.28861 -3.87224 0
M  V30 1461 C 139.772 3.71939 -2.35264 0
M  V30 1462 H 136.891 0.534713 -0.5072 0
M  V30 1463 H 139.533 0.812375 -1.71757 0
M  V30 1464 H 137.683 3.26238 -2.10953 0
M  V30 1465 H 139.355 1.77852 -4.25636 0
M  V30 1466 H 137.598 1.60824 -4.02887 0
M  V30 1467 H 138.269 3.16584 -4.52193 0
M  V30 1468 H 140.745 3.25113 -2.59694 0
M  V30 1469 H 139.621 4.55186 -3.06753 0
M  V30 1470 H 139.882 4.20484 -1.36549 0
M  V30 1471 N 138.941 1.26152 0.944643 0
M  V30 1472 C 139.904 1.07474 2.0244 0
M  V30 1473 C 140.904 0.0242064 1.60782 0
M  V30 1474 O 142.094 0.267302 1.72137 0
M  V30 1475 C 139.226 0.633956 3.34953 0
M  V30 1476 H 140.419 2.03336 2.20442 0
M  V30 1477 H 137.972 1.087 1.12312 0
M  V30 1478 H 138.707 -0.326811 3.22649 0
M  V30 1479 H 138.492 1.39247 3.66542 0
M  V30 1480 H 139.982 0.52501 4.14287 0
M  V30 1481 N 140.419 -1.14872 1.07899 0
M  V30 1482 C 141.667 -1.85422 0.803941 0
M  V30 1483 C 141.988 -1.83051 -0.67211 0
M  V30 1484 O 141.258 -1.27532 -1.48703 0
M  V30 1485 H 139.838 -0.686537 0.294408 0
M  V30 1486 H 142.5 -1.39226 1.3639 0
M  V30 1487 H 141.596 -2.90399 1.14346 0
M  V30 1488 N 141.898 -0.863906 -1.31812 0
M  V30 1489 C 143.126 -0.486111 -2.01108 0
M  V30 1490 C 143.541 0.919755 -1.64882 0
M  V30 1491 O 142.898 1.60162 -0.874893 0
M  V30 1492 C 142.949 -0.626435 -3.56031 0
M  V30 1493 O 142.67 -1.97693 -3.90959 0
M  V30 1494 C 144.171 -0.248857 -4.42601 0
M  V30 1495 H 141.391 -0.190052 -0.643523 0
M  V30 1496 H 143.935 -1.1634 -1.68182 0
M  V30 1497 H 142.09 0.00322717 -3.874 0
M  V30 1498 H 142.504 -1.98034 -4.85678 0
M  V30 1499 H 143.978 -0.398016 -5.50563 0
M  V30 1500 H 144.455 0.811489 -4.31638 0
M  V30 1501 H 145.061 -0.853971 -4.16638 0
M  V30 1502 N 143.376 1.44774 -0.622745 0
M  V30 1503 C 144.601 2.06999 -0.128968 0
M  V30 1504 C 145.026 1.4617 1.1839 0
M  V30 1505 O 144.384 0.560007 1.72434 0
M  V30 1506 C 144.432 3.60595 -0.0188351 0
M  V30 1507 O 143.536 3.99398 1.02739 0
M  V30 1508 H 142.877 0.659047 -0.0809544 0
M  V30 1509 H 145.407 1.85784 -0.85705 0
M  V30 1510 H 145.417 4.07627 0.174476 0
M  V30 1511 H 144.092 4.04252 -0.977384 0
M  V30 1512 H 142.669 3.64011 0.809326 0
M  V30 1513 N 144.854 0.36279 1.53368 0
M  V30 1514 C 145.802 -0.500155 2.27159 0
M  V30 1515 C 146.796 -1.08575 1.3003 0
M  V30 1516 O 148.002 -1.02927 1.47668 0
M  V30 1517 H 144.377 -0.180009 0.730138 0
M  V30 1518 H 146.348 0.14401 2.98052 0
M  V30 1519 C 145.097 -1.62937 3.07159 0
M  V30 1520 H 144.42 -1.18806 3.8174 0
M  V30 1521 H 145.86 -2.20795 3.61975 0
M  V30 1522 C 144.319 -2.57007 2.17829 0
M  V30 1523 O 144.849 -3.59752 1.78721 0
M  V30 1524 N 143.055 -2.26131 1.82518 0
M  V30 1525 H 142.602 -1.42616 2.14519 0
M  V30 1526 H 142.56 -2.89327 1.23034 0
M  V30 1527 N 146.332 -1.57332 0.0918853 0
M  V30 1528 C 147.295 -2.12708 -0.85369 0
M  V30 1529 C 148.295 -1.05561 -1.213 0
M  V30 1530 O 149.485 -1.31461 -1.14296 0
M  V30 1531 C 146.617 -2.64503 -2.15061 0
M  V30 1532 H 147.81 -2.97573 -0.3729 0
M  V30 1533 H 145.363 -1.55509 -0.157072 0
M  V30 1534 H 146.098 -1.83149 -2.67632 0
M  V30 1535 H 145.883 -3.4284 -1.90272 0
M  V30 1536 H 147.373 -3.07351 -2.82711 0
M  V30 1537 N 147.81 0.181792 -1.56548 0
M  V30 1538 C 149.058 0.89832 -1.81038 0
M  V30 1539 C 149.379 1.83232 -0.667164 0
M  V30 1540 O 148.649 1.93372 0.313673 0
M  V30 1541 H 147.229 0.33471 -0.667816 0
M  V30 1542 H 149.891 0.184116 -1.94028 0
M  V30 1543 H 148.987 1.4815 -2.74696 0
M  V30 1544 N 149.288 1.51039 0.449983 0
M  V30 1545 C 150.22 1.67617 1.56324 0
M  V30 1546 C 151.233 0.557083 1.52972 0
M  V30 1547 O 152.422 0.830989 1.57977 0
M  V30 1548 C 149.522 1.66402 2.95235 0
M  V30 1549 C 148.695 2.9469 3.23229 0
M  V30 1550 C 147.754 2.85832 4.41799 0
M  V30 1551 O 146.78 3.59785 4.41071 0
M  V30 1552 N 147.982 2.00821 5.44657 0
M  V30 1553 H 150.747 2.63648 1.42512 0
M  V30 1554 H 148.308 1.48767 0.638737 0
M  V30 1555 H 150.3 1.58062 3.72557 0
M  V30 1556 H 148.87 0.780182 3.02708 0
M  V30 1557 H 148.09 3.16996 2.34323 0
M  V30 1558 H 149.378 3.79636 3.38754 0
M  V30 1559 H 148.776 1.40091 5.48079 0
M  V30 1560 H 147.333 1.98368 6.20881 0
M  V30 1561 N 150.766 -0.704594 1.40972 0
M  V30 1562 C 152.012 -1.46546 1.41053 0
M  V30 1563 C 152.367 -1.92393 0.0159714 0
M  V30 1564 O 151.66 -1.66017 -0.956506 0
M  V30 1565 C 151.854 -2.698 2.34399 0
M  V30 1566 C 151.683 -2.36008 3.82793 0
M  V30 1567 C 150.453 -2.26812 4.51536 0
M  V30 1568 C 152.651 -1.99565 4.74003 0
M  V30 1569 N 150.633 -1.8581 5.85105 0
M  V30 1570 C 152.004 -1.69251 5.96451 0
M  V30 1571 C 154.059 -1.86296 4.61734 0
M  V30 1572 C 152.762 -1.27003 7.07999 0
M  V30 1573 C 154.788 -1.45452 5.73234 0
M  V30 1574 C 154.15 -1.16043 6.94776 0
M  V30 1575 H 150.249 -0.533896 0.571383 0
M  V30 1576 H 152.833 -0.816061 1.76773 0
M  V30 1577 H 151.004 -3.32473 2.00789 0
M  V30 1578 H 152.736 -3.36214 2.25261 0
M  V30 1579 H 149.491 -2.44913 4.05357 0
M  V30 1580 H 149.915 -1.67817 6.55871 0
M  V30 1581 H 154.557 -2.0769 3.68273 0
M  V30 1582 H 152.275 -1.04353 8.01334 0
M  V30 1583 H 155.861 -1.35748 5.65742 0
M  V30 1584 H 154.741 -0.84915 7.79589 0
M  V30 1585 N 152.244 -1.26651 -0.937939 0
M  V30 1586 C 153.493 -1.11775 -1.67897 0
M  V30 1587 C 153.806 0.33794 -1.92659 0
M  V30 1588 O 155.012 0.607434 -2.64618 0
M  V30 1589 C 153.468 -1.9523 -3.02346 0
M  V30 1590 C 153.076 -3.45393 -2.8532 0
M  V30 1591 C 154.82 -1.88972 -3.80118 0
M  V30 1592 C 152.727 -4.21083 -4.15263 0
M  V30 1593 H 151.657 -0.414696 -0.629717 0
M  V30 1594 H 154.308 -1.50988 -1.04283 0
M  V30 1595 H 152.69 -1.48853 -3.66959 0
M  V30 1596 H 153.864 -3.99561 -2.29537 0
M  V30 1597 H 152.179 -3.52921 -2.20988 0
M  V30 1598 H 154.776 -2.42805 -4.76392 0
M  V30 1599 H 155.119 -0.86113 -4.07296 0
M  V30 1600 H 155.652 -2.33189 -3.22285 0
M  V30 1601 H 152.391 -5.24425 -3.93267 0
M  V30 1602 H 151.911 -3.71695 -4.70747 0
M  V30 1603 H 153.59 -4.29706 -4.83696 0
M  V30 1604 N 153.722 1.14298 -1.08507 0
M  V30 1605 C 155.138 1.37347 -0.812901 0
M  V30 1606 C 155.338 1.93052 0.577325 0
M  V30 1607 O 154.394 2.14389 1.33393 0
M  V30 1608 C 155.707 2.33359 -1.89642 0
M  V30 1609 C 157.255 2.46996 -1.92255 0
M  V30 1610 C 157.73 3.46309 -2.99724 0
M  V30 1611 N 159.221 3.53853 -2.98902 0
M  V30 1612 C 159.956 4.3055 -3.787 0
M  V30 1613 N 159.452 5.10482 -4.6838 0
M  V30 1614 N 161.245 4.25757 -3.66998 0
M  V30 1615 H 153.396 0.764867 -1.9815 0
M  V30 1616 H 155.659 0.398966 -0.859959 0
M  V30 1617 H 155.365 1.99565 -2.89597 0
M  V30 1618 H 155.239 3.33274 -1.76659 0
M  V30 1619 H 157.626 2.80081 -0.929445 0
M  V30 1620 H 157.707 1.47039 -2.09316 0
M  V30 1621 H 157.351 3.13957 -3.99241 0
M  V30 1622 H 157.281 4.46049 -2.79907 0
M  V30 1623 H 159.772 2.96812 -2.33904 0
M  V30 1624 H 160.085 5.66284 -5.25873 0
M  V30 1625 H 158.43 5.09747 -4.72422 0
M  V30 1626 H 161.621 3.62383 -2.96304 0
M  V30 1627 H 161.794 4.85279 -4.29427 0
M  V30 1628 N 155.201 0.870884 1.31352 0
M  V30 1629 C 156.164 0.332243 2.26779 0
M  V30 1630 C 157.164 -0.517302 1.52252 0
M  V30 1631 O 158.354 -0.326477 1.71113 0
M  V30 1632 C 155.486 -0.528066 3.36785 0
M  V30 1633 H 156.679 1.17469 2.75937 0
M  V30 1634 H 154.232 0.64655 1.423 0
M  V30 1635 H 154.967 -1.39167 2.92922 0
M  V30 1636 H 154.752 0.0802582 3.92018 0
M  V30 1637 H 156.242 -0.897179 4.07849 0
M  V30 1638 N 156.679 -1.44442 0.630414 0
M  V30 1639 C 158.095 -1.56832 0.295973 0
M  V30 1640 C 158.295 -1.61806 -1.20088 0
M  V30 1641 O 157.351 -1.5607 -1.9849 0
M  V30 1642 C 158.664 -2.84031 0.987264 0
M  V30 1643 C 160.212 -2.97742 0.96534 0
M  V30 1644 C 160.687 -4.27743 1.63708 0
M  V30 1645 N 162.178 -4.34555 1.60364 0
M  V30 1646 C 162.913 -5.33862 2.09234 0
M  V30 1647 N 162.409 -6.39578 2.66292 0
M  V30 1648 N 164.202 -5.25366 1.99867 0
M  V30 1649 H 156.353 -1.39457 1.60205 0
M  V30 1650 H 158.616 -0.668237 0.672431 0
M  V30 1651 H 158.322 -2.86338 2.04215 0
M  V30 1652 H 158.196 -3.73534 0.524588 0
M  V30 1653 H 160.583 -2.94989 -0.0810639 0
M  V30 1654 H 160.664 -2.09589 1.4665 0
M  V30 1655 H 160.308 -4.31255 2.68293 0
M  V30 1656 H 160.238 -5.14752 1.11076 0
M  V30 1657 H 162.729 -3.58772 1.18705 0
M  V30 1658 H 163.042 -7.11637 3.01317 0
M  V30 1659 H 161.387 -6.40265 2.70343 0
M  V30 1660 H 164.578 -4.41688 1.55013 0
M  V30 1661 H 164.751 -6.02606 2.38265 0
M  V30 1662 N 158.157 -0.370918 -1.53173 0
M  V30 1663 C 159.12 0.460778 -2.24521 0
M  V30 1664 C 160.12 1.00536 -1.25496 0
M  V30 1665 O 161.31 0.890266 -1.49733 0
M  V30 1666 C 158.442 1.64457 -2.98608 0
M  V30 1667 H 159.635 -0.163613 -2.99453 0
M  V30 1668 H 157.188 -0.122699 -1.55818 0
M  V30 1669 H 157.923 2.30691 -2.2793 0
M  V30 1670 H 157.708 1.26099 -3.7127 0
M  V30 1671 H 159.198 2.23384 -3.5283 0
M  V30 1672 N 159.635 1.57281 -0.100228 0
M  V30 1673 C 160.883 1.94153 0.561157 0
M  V30 1674 C 161.204 0.983157 1.68401 0
M  V30 1675 O 160.474 0.0361132 1.95867 0
M  V30 1676 H 159.054 0.716791 0.210283 0
M  V30 1677 H 161.716 1.94202 -0.164765 0
M  V30 1678 H 160.812 2.96709 0.968008 0
M  V30 1679 N 161.113 -0.173488 1.56642 0
M  V30 1680 C 162.043 -1.2171 1.99271 0
M  V30 1681 C 163.024 -1.46289 0.867959 0
M  V30 1682 O 164.209 -1.5766 1.13388 0
M  V30 1683 C 161.339 -2.55651 2.35074 0
M  V30 1684 C 160.293 -2.45645 3.50489 0
M  V30 1685 C 159.619 -3.84056 3.72028 0
M  V30 1686 C 160.919 -1.96302 4.84007 0
M  V30 1687 H 162.613 -0.86275 2.867 0
M  V30 1688 H 160.159 -0.413571 1.37933 0
M  V30 1689 H 162.112 -3.2886 2.63494 0
M  V30 1690 H 160.836 -2.92869 1.44552 0
M  V30 1691 H 159.495 -1.7489 3.22194 0
M  V30 1692 H 159.143 -4.18664 2.788 0
M  V30 1693 H 158.843 -3.7823 4.49684 0
M  V30 1694 H 160.367 -4.58854 4.02846 0
M  V30 1695 H 161.781 -2.59284 5.11317 0
M  V30 1696 H 160.178 -2.01429 5.65284 0
M  V30 1697 H 161.248 -0.917226 4.76146 0
M  V30 1698 N 162.591 -1.51276 -0.441967 0
M  V30 1699 C 163.84 -1.6295 -1.18871 0
M  V30 1700 C 164.153 -0.349312 -1.92456 0
M  V30 1701 O 165.359 -0.345355 -2.69295 0
M  V30 1702 C 163.815 -2.87759 -2.16155 0
M  V30 1703 C 163.423 -4.22764 -1.48239 0
M  V30 1704 C 165.167 -3.08788 -2.91291 0
M  V30 1705 C 163.074 -5.38728 -2.4398 0
M  V30 1706 H 162.004 -0.606913 -0.447406 0
M  V30 1707 H 164.655 -1.77739 -0.456205 0
M  V30 1708 H 163.037 -2.66593 -2.92821 0
M  V30 1709 H 164.211 -4.54293 -0.771635 0
M  V30 1710 H 162.526 -4.07575 -0.852741 0
M  V30 1711 H 165.123 -3.92599 -3.63002 0
M  V30 1712 H 165.466 -2.21679 -3.5237 0
M  V30 1713 H 165.999 -3.30272 -2.21733 0
M  V30 1714 H 162.738 -6.28082 -1.87598 0
M  V30 1715 H 162.258 -5.1158 -3.13123 0
M  V30 1716 H 163.937 -5.70489 -3.05207 0
M  V30 1717 N 164.069 0.697108 -1.41344 0
M  V30 1718 C 165.485 1.00751 -1.2378 0
M  V30 1719 C 165.685 2.01105 -0.126066 0
M  V30 1720 O 164.741 2.47295 0.51004 0
M  V30 1721 C 166.054 1.53359 -2.58653 0
M  V30 1722 C 167.602 1.6525 -2.65822 0
M  V30 1723 C 168.077 2.2126 -4.01009 0
M  V30 1724 N 169.568 2.28622 -4.02847 0
M  V30 1725 C 170.303 2.72984 -5.04249 0
M  V30 1726 N 169.799 3.16962 -6.16041 0
M  V30 1727 N 171.592 2.72534 -4.91611 0
M  V30 1728 H 163.743 0.0322662 -2.12375 0
M  V30 1729 H 166.006 0.0768853 -0.944877 0
M  V30 1730 H 165.712 0.870773 -3.4075 0
M  V30 1731 H 165.586 2.51597 -2.81032 0
M  V30 1732 H 167.973 2.30644 -1.84086 0
M  V30 1733 H 168.054 0.655614 -2.47256 0
M  V30 1734 H 167.698 1.56482 -4.83193 0
M  V30 1735 H 167.628 3.21698 -4.16915 0
M  V30 1736 H 170.119 1.97585 -3.22131 0
M  V30 1737 H 170.432 3.49434 -6.89287 0
M  V30 1738 H 168.777 3.14875 -6.1958 0
M  V30 1739 H 171.968 2.37525 -4.0336 0
M  V30 1740 H 172.141 3.06789 -5.70775 0
M  V30 1741 N 165.547 1.27147 0.931209 0
M  V30 1742 C 166.824 1.0401 1.65654 0
M  V30 1743 C 167.204 -0.426297 2.06751 0
M  V30 1744 O 166.552 -1.40879 1.79904 0
M  V30 1745 C 166.762 1.99834 2.86125 0
M  V30 1746 C 168.11 2.29007 3.57549 0
M  V30 1747 O 169.134 1.97779 2.96246 0
M  V30 1748 O 167.993 2.82222 4.67989 0
M  V30 1749 H 165.087 0.396239 0.725895 0
M  V30 1750 H 167.633 1.38397 0.982056 0
M  V30 1751 H 166.405 2.98744 2.52721 0
M  V30 1752 H 166.028 1.65987 3.61295 0
M  V30 1753 N 167.025 -1.13721 1.09112 0
M  V30 1754 C 167.935 -2.22638 0.73957 0
M  V30 1755 C 168.951 -1.72091 -0.257068 0
M  V30 1756 O 170.127 -2.01155 -0.0992154 0
M  V30 1757 C 167.192 -3.46322 0.16191 0
M  V30 1758 C 166.253 -4.11775 1.21408 0
M  V30 1759 C 165.486 -5.29555 0.663891 0
M  V30 1760 O 165.709 -5.68077 -0.514274 0
M  V30 1761 O 164.643 -5.84973 1.41738 0
M  V30 1762 H 168.469 -2.55074 1.64836 0
M  V30 1763 H 166.054 -1.21791 0.865289 0
M  V30 1764 H 167.936 -4.21107 -0.157073 0
M  V30 1765 H 166.611 -3.15593 -0.719932 0
M  V30 1766 H 165.518 -3.3883 1.58571 0
M  V30 1767 H 166.851 -4.46627 2.06845 0
M  V30 1768 N 168.503 -0.877838 -1.30888 0
M  V30 1769 C 169.466 -0.344265 -2.266 0
M  V30 1770 C 170.466 0.50922 -1.52524 0
M  V30 1771 O 171.656 0.317398 -1.71284 0
M  V30 1772 C 168.788 0.510198 -3.37061 0
M  V30 1773 H 169.981 -1.1893 -2.7531 0
M  V30 1774 H 167.534 -0.654088 -1.41956 0
M  V30 1775 H 168.269 1.37612 -2.93655 0
M  V30 1776 H 168.054 -0.101047 -3.9197 0
M  V30 1777 H 169.544 0.875537 -4.08319 0
M  V30 1778 N 169.982 1.44106 -0.638065 0
M  V30 1779 C 171.23 2.01579 -0.145043 0
M  V30 1780 C 171.551 1.50496 1.24 0
M  V30 1781 O 170.821 0.711374 1.82527 0
M  V30 1782 H 169.401 0.745282 -0.05063 0
M  V30 1783 H 172.063 1.76516 -0.826327 0
M  V30 1784 H 171.159 3.11877 -0.118039 0
M  V30 1785 N 171.46 0.379036 1.52974 0
M  V30 1786 C 172.688 -0.20679 2.05864 0
M  V30 1787 C 173.103 -1.41356 1.25155 0
M  V30 1788 O 172.46 -1.8009 0.295588 0
M  V30 1789 C 172.511 -0.587045 3.56702 0
M  V30 1790 O 172.232 0.571776 4.34353 0
M  V30 1791 C 173.733 -1.22983 4.25899 0
M  V30 1792 H 170.953 -0.0336123 0.670158 0
M  V30 1793 H 173.497 0.541298 1.97206 0
M  V30 1794 H 171.652 -1.28504 3.65466 0
M  V30 1795 H 172.066 0.261544 5.23847 0
M  V30 1796 H 173.54 -1.44635 5.32715 0
M  V30 1797 H 174.017 -2.19416 3.80465 0
M  V30 1798 H 174.623 -0.572892 4.21424 0
M  V30 1799 N 172.938 -1.57226 0.108567 0
M  V30 1800 C 173.901 -2.13602 -0.831082 0
M  V30 1801 C 174.901 -1.06841 -1.20173 0
M  V30 1802 O 176.091 -1.32666 -1.12895 0
M  V30 1803 C 173.223 -2.66769 -2.12243 0
M  V30 1804 H 174.416 -2.97951 -0.341317 0
M  V30 1805 H 171.969 -1.55667 -0.14057 0
M  V30 1806 H 172.704 -1.85977 -2.65675 0
M  V30 1807 H 172.489 -3.44839 -1.86625 0
M  V30 1808 H 173.979 -3.10332 -2.79435 0
M  V30 1809 N 174.416 0.165178 -1.56732 0
M  V30 1810 C 175.832 0.517174 -1.50988 0
M  V30 1811 C 176.032 1.84331 -0.813894 0
M  V30 1812 O 175.088 2.49672 -0.37682 0
M  V30 1813 C 176.401 0.544261 -2.95733 0
M  V30 1814 C 177.949 0.631039 -3.06573 0
M  V30 1815 C 178.424 0.68896 -4.52788 0
M  V30 1816 N 179.915 0.751683 -4.5706 0
M  V30 1817 C 180.65 0.817177 -5.67547 0
M  V30 1818 N 180.146 0.843129 -6.8765 0
M  V30 1819 N 181.939 0.856668 -5.55534 0
M  V30 1820 H 174.09 -0.704318 -2.00382 0
M  V30 1821 H 176.353 -0.254687 -0.913148 0
M  V30 1822 H 176.059 -0.361607 -3.49836 0
M  V30 1823 H 175.933 1.3886 -3.5071 0
M  V30 1824 H 178.32 1.52733 -2.52501 0
M  V30 1825 H 178.401 -0.240095 -2.54671 0
M  V30 1826 H 178.045 -0.2031 -5.07494 0
M  V30 1827 H 177.975 1.57633 -5.02454 0
M  V30 1828 H 180.466 0.739661 -3.70591 0
M  V30 1829 H 180.779 0.894448 -7.67606 0
M  V30 1830 H 179.124 0.811304 -6.90248 0
M  V30 1831 H 182.315 0.833437 -4.60621 0
M  V30 1832 H 182.488 0.904247 -6.4166 0
M  V30 1833 N 175.894 1.51508 0.433938 0
M  V30 1834 C 176.844 1.69451 1.52546 0
M  V30 1835 C 177.828 0.548474 1.51263 0
M  V30 1836 O 179.02 0.804529 1.57659 0
M  V30 1837 C 176.149 1.82604 2.90707 0
M  V30 1838 C 175.235 3.03002 2.96733 0
M  V30 1839 N 175.626 4.26121 2.72496 0
M  V30 1840 C 173.924 3.02327 3.27894 0
M  V30 1841 C 174.625 5.07407 2.84452 0
M  V30 1842 N 173.601 4.42126 3.16269 0
M  V30 1843 H 177.403 2.62305 1.32564 0
M  V30 1844 H 174.917 1.49202 0.641297 0
M  V30 1845 H 176.914 1.93569 3.69238 0
M  V30 1846 H 175.574 0.909339 3.11707 0
M  V30 1847 H 176.585 4.55009 2.4736 0
M  V30 1848 H 173.262 2.20301 3.54646 0
M  V30 1849 H 174.652 6.15422 2.69639 0
M  V30 1850 N 177.372 -0.689602 1.41712 0
M  V30 1851 C 178.302 -1.81577 1.46806 0
M  V30 1852 C 179.283 -1.66945 0.326105 0
M  V30 1853 O 180.468 -1.86588 0.538377 0
M  V30 1854 C 177.598 -3.19762 1.35535 0
M  V30 1855 C 176.552 -3.49107 2.47605 0
M  V30 1856 C 175.878 -4.86711 2.21397 0
M  V30 1857 C 177.178 -3.47483 3.89939 0
M  V30 1858 H 178.872 -1.7757 2.41058 0
M  V30 1859 H 176.418 -0.852887 1.16025 0
M  V30 1860 H 178.371 -3.98263 1.3771 0
M  V30 1861 H 177.095 -3.24409 0.377708 0
M  V30 1862 H 175.754 -2.72959 2.44722 0
M  V30 1863 H 175.402 -4.8799 1.21961 0
M  V30 1864 H 175.102 -5.0731 2.96497 0
M  V30 1865 H 176.626 -5.67515 2.25297 0
M  V30 1866 H 178.04 -4.1598 3.94505 0
M  V30 1867 H 176.437 -3.79615 4.64771 0
M  V30 1868 H 177.507 -2.46341 4.17665 0
M  V30 1869 N 178.85 -1.27639 -0.924453 0
M  V30 1870 C 180.075 -1.17101 -1.71179 0
M  V30 1871 C 180.5 0.268134 -1.86179 0
M  V30 1872 O 179.858 1.19415 -1.36418 0
M  V30 1873 C 179.906 -1.86313 -3.08739 0
M  V30 1874 O 179.01 -1.16331 -3.95652 0
M  V30 1875 H 178.351 -0.407091 -0.524569 0
M  V30 1876 H 180.881 -1.68767 -1.15666 0
M  V30 1877 H 180.891 -1.938 -3.59034 0
M  V30 1878 H 179.566 -2.91001 -2.97138 0
M  V30 1879 H 178.143 -1.16935 -3.54091 0
M  V30 1880 N 180.328 1.1314 -1.09713 0
M  V30 1881 C 181.576 1.84119 -0.833338 0
M  V30 1882 C 181.897 1.84097 0.642904 0
M  V30 1883 O 181.167 1.29881 1.46655 0
M  V30 1884 H 179.747 0.681766 -0.305293 0
M  V30 1885 H 182.409 1.37038 -1.38588 0
M  V30 1886 H 181.505 2.88543 -1.18951 0
M  V30 1887 N 181.806 0.884767 1.30421 0
M  V30 1888 C 183.055 0.499164 1.95426 0
M  V30 1889 C 183.368 -0.95645 1.70621 0
M  V30 1890 O 184.574 -1.44889 2.29607 0
M  V30 1891 C 183.03 0.84177 3.49917 0
M  V30 1892 C 182.638 2.31514 3.83543 0
M  V30 1893 C 184.382 0.525355 4.21237 0
M  V30 1894 C 182.289 2.59939 5.31212 0
M  V30 1895 H 181.219 0.182944 0.73147 0
M  V30 1896 H 183.87 1.07971 1.48373 0
M  V30 1897 H 182.252 0.190311 3.95542 0
M  V30 1898 H 183.426 3.0109 3.48829 0
M  V30 1899 H 181.741 2.59907 3.25326 0
M  V30 1900 H 184.338 0.714762 5.29901 0
M  V30 1901 H 184.681 -0.535222 4.12845 0
M  V30 1902 H 185.214 1.134 3.81294 0
M  V30 1903 H 181.953 3.64736 5.44654 0
M  V30 1904 H 181.473 1.94972 5.67227 0
M  V30 1905 H 183.152 2.45429 5.98643 0
M  V30 1906 N 183.284 -1.43765 0.645699 0
M  V30 1907 C 184.531 -2.01898 0.15604 0
M  V30 1908 C 184.859 -1.50887 -1.22733 0
M  V30 1909 O 184.114 -0.689271 -1.8316 0
M  V30 1910 C 184.413 -3.57238 0.107679 0
M  V30 1911 C 184.079 -4.27564 1.43178 0
M  V30 1912 C 182.741 -4.46492 1.7944 0
M  V30 1913 C 185.093 -4.67454 2.30513 0
M  V30 1914 C 182.421 -5.02573 3.02716 0
M  V30 1915 C 184.773 -5.24901 3.53074 0
M  V30 1916 C 183.437 -5.42046 3.89541 0
M  V30 1917 H 182.707 -0.738797 0.057099 0
M  V30 1918 H 185.354 -1.72341 0.834912 0
M  V30 1919 H 183.659 -3.86293 -0.654618 0
M  V30 1920 H 185.356 -3.99965 -0.287938 0
M  V30 1921 H 181.946 -4.13171 1.13963 0
M  V30 1922 H 186.13 -4.5253 2.0379 0
M  V30 1923 H 181.386 -5.14033 3.31028 0
M  V30 1924 H 185.56 -5.54758 4.20971 0
M  V30 1925 H 183.187 -5.85268 4.85145 0
M  V30 1926 N 184.763 -0.387143 -1.52771 0
M  V30 1927 C 185.693 0.440551 -2.29306 0
M  V30 1928 C 186.674 1.06535 -1.32606 0
M  V30 1929 O 187.859 1.07853 -1.61497 0
M  V30 1930 C 184.989 1.56919 -3.09829 0
M  V30 1931 C 183.943 1.07054 -4.14395 0
M  V30 1932 C 183.269 2.29109 -4.83129 0
M  V30 1933 C 184.569 0.140015 -5.22112 0
M  V30 1934 H 186.263 -0.198026 -2.98744 0
M  V30 1935 H 183.809 -0.09668 -1.43675 0
M  V30 1936 H 185.762 2.15503 -3.62128 0
M  V30 1937 H 184.486 2.23532 -2.3812 0
M  V30 1938 H 183.145 0.507247 -3.63074 0
M  V30 1939 H 182.793 2.94227 -4.0797 0
M  V30 1940 H 182.493 1.96406 -5.53804 0
M  V30 1941 H 184.017 2.88339 -5.38231 0
M  V30 1942 H 185.431 0.633978 -5.69784 0
M  V30 1943 H 183.828 -0.0971485 -6.00021 0
M  V30 1944 H 184.898 -0.811711 -4.78058 0
M  V30 1945 N 186.241 1.57166 -0.116904 0
M  V30 1946 C 187.518 1.86645 0.585049 0
M  V30 1947 C 187.898 1.0177 1.84949 0
M  V30 1948 O 187.246 0.0960379 2.28298 0
M  V30 1949 C 187.456 3.37736 0.879507 0
M  V30 1950 C 188.804 4.06289 1.23348 0
M  V30 1951 O 189.828 3.42743 0.969836 0
M  V30 1952 O 188.687 5.18455 1.7282 0
M  V30 1953 H 185.781 0.772593 0.295007 0
M  V30 1954 H 188.327 1.69025 -0.151249 0
M  V30 1955 H 187.099 3.91296 -0.0166136 0
M  V30 1956 H 186.722 3.6078 1.67103 0
M  V30 1957 N 187.719 -0.156864 1.56817 0
M  V30 1958 C 188.968 -0.869504 1.81996 0
M  V30 1959 C 189.281 -1.82777 0.696545 0
M  V30 1960 O 190.487 -2.58384 0.833658 0
M  V30 1961 C 188.943 -1.59679 3.22538 0
M  V30 1962 C 188.551 -0.681431 4.42787 0
M  V30 1963 C 190.295 -2.2968 3.56997 0
M  V30 1964 C 188.202 -1.40978 5.74351 0
M  V30 1965 H 187.132 -0.328438 0.678708 0
M  V30 1966 H 189.783 -0.1223 1.83092 0
M  V30 1967 H 188.165 -2.38927 3.158 0
M  V30 1968 H 189.339 0.0751166 4.60739 0
M  V30 1969 H 187.654 -0.0903431 4.16302 0
M  V30 1970 H 190.251 -2.84794 4.52544 0
M  V30 1971 H 190.594 -3.05707 2.82576 0
M  V30 1972 H 191.127 -1.57361 3.65352 0
M  V30 1973 H 187.866 -0.691561 6.51842 0
M  V30 1974 H 187.386 -2.13929 5.60352 0
M  V30 1975 H 189.065 -1.95337 6.16808 0
M  V30 1976 N 189.197 -1.51736 -0.425897 0
M  V30 1977 C 190.474 -1.55519 -1.1863 0
M  V30 1978 C 190.854 -0.326219 -2.08564 0
M  V30 1979 O 190.202 0.688012 -2.17896 0
M  V30 1980 C 190.412 -2.87521 -1.9782 0
M  V30 1981 C 191.76 -3.39899 -2.54468 0
M  V30 1982 O 192.784 -2.89148 -2.08019 0
M  V30 1983 O 191.643 -4.2848 -3.39215 0
M  V30 1984 H 188.737 -0.625739 -0.540721 0
M  V30 1985 H 191.283 -1.64055 -0.434038 0
M  V30 1986 H 190.055 -3.68422 -1.31836 0
M  V30 1987 H 189.678 -2.822 -2.80088 0
M  V30 1988 N 190.675 0.682077 -1.42076 0
M  V30 1989 C 191.585 1.82535 -1.47371 0
M  V30 1990 C 192.601 1.7017 -0.363079 0
M  V30 1991 O 193.777 1.91848 -0.612875 0
M  V30 1992 C 190.842 3.18624 -1.36674 0
M  V30 1993 C 189.903 3.42999 -2.58167 0
M  V30 1994 C 189.136 4.72595 -2.4797 0
M  V30 1995 O 189.359 5.50006 -1.5116 0
M  V30 1996 O 188.293 4.98054 -3.37974 0
M  V30 1997 H 192.119 1.81023 -2.43853 0
M  V30 1998 H 189.704 0.836887 -1.2376 0
M  V30 1999 H 191.586 3.99847 -1.33043 0
M  V30 2000 H 190.261 3.20789 -0.433138 0
M  V30 2001 H 189.168 2.61653 -2.67373 0
M  V30 2002 H 190.501 3.45659 -3.50401 0
M  V30 2003 N 192.153 1.28127 0.917671 0
M  V30 2004 C 193.063 1.13556 2.05286 0
M  V30 2005 C 194.079 0.0630914 1.73886 0
M  V30 2006 O 195.255 0.271598 1.9956 0
M  V30 2007 C 192.32 0.794676 3.3747 0
M  V30 2008 C 191.381 1.94909 3.82504 0
M  V30 2009 C 190.614 1.62437 5.0838 0
M  V30 2010 O 190.837 0.536905 5.67867 0
M  V30 2011 O 189.771 2.46677 5.4903 0
M  V30 2012 H 193.597 2.08844 2.20495 0
M  V30 2013 H 191.182 1.07409 1.03845 0
M  V30 2014 H 193.064 0.618344 4.16839 0
M  V30 2015 H 191.739 -0.128581 3.23445 0
M  V30 2016 H 190.646 2.18055 3.03978 0
M  V30 2017 H 191.979 2.85291 4.01086 0
M  V30 2018 N 193.631 -1.12557 1.10312 0
M  V30 2019 C 194.578 -2.18247 0.750781 0
M  V30 2020 C 195.548 -1.63853 -0.272293 0
M  V30 2021 O 196.733 -1.90195 -0.151862 0
M  V30 2022 C 193.873 -3.44591 0.187379 0
M  V30 2023 C 192.986 -4.13046 1.2656 0
M  V30 2024 C 192.121 -5.27034 0.663978 0
M  V30 2025 C 191.16 -5.87353 1.72287 0
M  V30 2026 N 190.297 -6.92757 1.1416 0
M  V30 2027 H 195.137 -2.47732 1.65628 0
M  V30 2028 H 192.674 -1.21629 0.827337 0
M  V30 2029 H 194.632 -4.16904 -0.157148 0
M  V30 2030 H 193.262 -3.15527 -0.681355 0
M  V30 2031 H 192.314 -3.38924 1.72727 0
M  V30 2032 H 193.626 -4.53947 2.06721 0
M  V30 2033 H 192.78 -6.06104 0.268824 0
M  V30 2034 H 191.519 -4.87407 -0.169082 0
M  V30 2035 H 190.524 -5.06971 2.12746 0
M  V30 2036 H 191.749 -6.29051 2.55875 0
M  V30 2037 H 189.695 -6.5517 0.329984 0
M  V30 2038 H 189.612 -7.3225 1.88007 0
M  V30 2039 H 190.88 -7.75658 0.772956 0
M  V30 2040 N 195.109 -0.891671 -1.2995 0
M  V30 2041 C 196.041 -0.320695 -2.26945 0
M  V30 2042 C 197.054 0.528497 -1.53983 0
M  V30 2043 O 198.243 0.346959 -1.75096 0
M  V30 2044 C 195.343 0.562066 -3.34207 0
M  V30 2045 C 194.516 -0.259576 -4.36629 0
M  V30 2046 C 193.575 0.554739 -5.23268 0
M  V30 2047 O 192.601 -0.0249311 -5.69195 0
M  V30 2048 N 193.803 1.8625 -5.4981 0
M  V30 2049 H 196.568 -1.15432 -2.76578 0
M  V30 2050 H 194.129 -0.755336 -1.432 0
M  V30 2051 H 196.121 1.11304 -3.89093 0
M  V30 2052 H 194.691 1.29637 -2.84452 0
M  V30 2053 H 193.911 -0.991986 -3.81514 0
M  V30 2054 H 195.199 -0.822564 -5.02107 0
M  V30 2055 H 194.597 2.35628 -5.14292 0
M  V30 2056 H 193.154 2.36078 -6.07545 0
M  V30 2057 N 196.587 1.43421 -0.653314 0
M  V30 2058 C 197.833 2.02111 -0.166992 0
M  V30 2059 C 198.166 1.51423 1.21592 0
M  V30 2060 O 197.441 0.707389 1.8118 0
M  V30 2061 C 197.724 3.5966 -0.177948 0
M  V30 2062 C 197.577 4.20579 -1.59478 0
M  V30 2063 C 198.896 4.37413 0.4856 0
M  V30 2064 H 196.015 0.734374 -0.0621557 0
M  V30 2065 H 198.657 1.70717 -0.834016 0
M  V30 2066 H 196.807 3.86537 0.390032 0
M  V30 2067 H 198.479 4.04732 -2.21336 0
M  V30 2068 H 196.722 3.77226 -2.14204 0
M  V30 2069 H 197.393 5.29665 -1.5543 0
M  V30 2070 H 199.869 4.161 0.00234528 0
M  V30 2071 H 198.745 5.47075 0.447207 0
M  V30 2072 H 199.006 4.13672 1.55974 0
M  V30 2073 N 198.065 0.39524 1.52563 0
M  V30 2074 C 198.975 -0.444232 2.30356 0
M  V30 2075 C 199.991 -1.06615 1.37511 0
M  V30 2076 O 201.167 -1.07067 1.70583 0
M  V30 2077 C 198.232 -1.55315 3.09964 0
M  V30 2078 C 197.293 -0.955734 4.18526 0
M  V30 2079 C 196.526 -2.01181 4.9433 0
M  V30 2080 O 196.749 -3.22781 4.70285 0
M  V30 2081 O 195.683 -1.62579 5.79527 0
M  V30 2082 H 199.509 0.189667 3.03107 0
M  V30 2083 H 197.094 0.1588 1.48554 0
M  V30 2084 H 198.976 -2.19724 3.59582 0
M  V30 2085 H 197.651 -2.17191 2.4002 0
M  V30 2086 H 196.558 -0.274743 3.7309 0
M  V30 2087 H 197.891 -0.381109 4.90722 0
M  V30 2088 N 199.544 -1.57102 0.125237 0
M  V30 2089 C 200.792 -1.95021 -0.530198 0
M  V30 2090 C 201.113 -1.00982 -1.66816 0
M  V30 2091 O 200.383 -0.0672693 -1.95784 0
M  V30 2092 H 198.963 -0.720046 -0.198853 0
M  V30 2093 H 201.625 -1.93916 0.19564 0
M  V30 2094 H 200.721 -2.98211 -0.920681 0
M  V30 2095 N 201.022 0.148545 -1.56898 0
M  V30 2096 C 201.985 1.16736 -1.97244 0
M  V30 2097 C 202.985 1.35947 -0.858777 0
M  V30 2098 O 204.175 1.32966 -1.12542 0
M  V30 2099 C 201.307 2.52798 -2.28705 0
M  V30 2100 H 202.5 0.821279 -2.88435 0
M  V30 2101 H 200.053 0.391831 -1.51309 0
M  V30 2102 H 200.788 2.92381 -1.403 0
M  V30 2103 H 200.573 2.40216 -3.09901 0
M  V30 2104 H 202.063 3.26179 -2.60762 0
M  V30 2105 N 202.5 1.5196 0.417844 0
M  V30 2106 C 203.43 1.77634 1.51554 0
M  V30 2107 C 204.411 0.626918 1.58126 0
M  V30 2108 O 205.596 0.871632 1.7354 0
M  V30 2109 C 202.726 1.91911 2.8946 0
M  V30 2110 C 201.68 3.07463 2.97743 0
M  V30 2111 C 201.006 3.06951 4.37819 0
M  V30 2112 C 202.306 4.47082 2.70027 0
M  V30 2113 H 204 2.6955 1.3032 0
M  V30 2114 H 201.546 1.29706 0.625492 0
M  V30 2115 H 203.499 2.08455 3.6623 0
M  V30 2116 H 202.223 0.966598 3.11969 0
M  V30 2117 H 200.882 2.90656 2.23416 0
M  V30 2118 H 200.53 2.09438 4.57323 0
M  V30 2119 H 200.23 3.84556 4.44286 0
M  V30 2120 H 201.754 3.25613 5.16535 0
M  V30 2121 H 203.168 4.6414 3.36522 0
M  V30 2122 H 201.565 5.2654 2.87881 0
M  V30 2123 H 202.635 4.55777 1.65514 0
M  V30 2124 N 203.978 -0.674533 1.42435 0
M  V30 2125 C 205.394 -0.98769 1.25367 0
M  V30 2126 C 205.594 -2.00879 0.158044 0
M  V30 2127 O 204.65 -2.48075 -0.470633 0
M  V30 2128 C 205.963 -1.49224 2.6106 0
M  V30 2129 C 207.511 -1.61 2.68417 0
M  V30 2130 C 207.986 -2.14852 4.04478 0
M  V30 2131 N 209.477 -2.22185 4.06434 0
M  V30 2132 C 210.212 -2.64928 5.08528 0
M  V30 2133 N 209.708 -3.07121 6.21006 0
M  V30 2134 N 211.501 -2.64679 4.95885 0
M  V30 2135 H 203.652 0.00152503 2.124 0
M  V30 2136 H 205.915 -0.0618434 0.945981 0
M  V30 2137 H 205.621 -0.816453 3.42092 0
M  V30 2138 H 205.495 -2.47094 2.84999 0
M  V30 2139 H 207.882 -2.27686 1.87732 0
M  V30 2140 H 207.963 -0.616195 2.48267 0
M  V30 2141 H 207.607 -1.48775 4.85622 0
M  V30 2142 H 207.537 -3.15024 4.2198 0
M  V30 2143 H 210.028 -1.92435 3.25234 0
M  V30 2144 H 210.341 -3.38423 6.94759 0
M  V30 2145 H 208.686 -3.04978 6.24511 0
M  V30 2146 H 211.877 -2.31078 4.07088 0
M  V30 2147 H 212.05 -2.9767 5.75584 0
M  V30 2148 N 205.456 -1.28612 -0.910864 0
M  V30 2149 C 206.684 -1.18792 -1.69399 0
M  V30 2150 C 207.099 0.253039 -1.87097 0
M  V30 2151 O 206.456 1.17071 -1.40003 0
M  V30 2152 C 206.507 -1.88511 -3.08457 0
M  V30 2153 O 206.228 -3.26979 -2.91576 0
M  V30 2154 C 207.729 -1.85029 -4.02839 0
M  V30 2155 H 204.949 -0.412233 -0.529438 0
M  V30 2156 H 207.493 -1.69788 -1.13984 0
M  V30 2157 H 205.648 -1.41379 -3.60681 0
M  V30 2158 H 206.062 -3.61936 -3.79608 0
M  V30 2159 H 207.536 -2.38395 -4.97867 0
M  V30 2160 H 208.013 -0.823303 -4.31414 0
M  V30 2161 H 208.619 -2.31853 -3.56545 0
M  V30 2162 N 206.934 1.1197 -1.10907 0
M  V30 2163 C 208.35 1.35591 -0.841852 0
M  V30 2164 C 208.55 1.94233 0.536246 0
M  V30 2165 O 207.606 2.1717 1.28816 0
M  V30 2166 C 208.919 2.29284 -1.94549 0
M  V30 2167 C 210.467 2.42862 -1.97451 0
M  V30 2168 C 210.942 3.39873 -3.07002 0
M  V30 2169 N 212.433 3.47433 -3.06341 0
M  V30 2170 C 213.168 4.22421 -3.87748 0
M  V30 2171 N 212.664 5.00432 -4.79103 0
M  V30 2172 N 214.457 4.17876 -3.75946 0
M  V30 2173 H 206.608 0.722664 -1.99728 0
M  V30 2174 H 208.871 0.380635 -0.868229 0
M  V30 2175 H 208.577 1.93378 -2.93765 0
M  V30 2176 H 208.451 3.29452 -1.83688 0
M  V30 2177 H 210.838 2.78046 -0.988645 0
M  V30 2178 H 210.919 1.42566 -2.12388 0
M  V30 2179 H 210.563 3.05417 -4.05811 0
M  V30 2180 H 210.493 4.40011 -2.89306 0
M  V30 2181 H 212.984 2.91784 -2.40147 0
M  V30 2182 H 213.297 5.55002 -5.37766 0
M  V30 2183 H 211.642 4.99612 -4.83128 0
M  V30 2184 H 214.833 3.56016 -3.03924 0
M  V30 2185 H 215.006 4.76061 -4.39624 0
M  V30 2186 N 208.412 0.89855 1.29475 0
M  V30 2187 C 209.322 0.379974 2.31502 0
M  V30 2188 C 210.338 -0.524695 1.659 0
M  V30 2189 O 211.514 -0.414551 1.97087 0
M  V30 2190 C 208.579 -0.385138 3.44554 0
M  V30 2191 C 207.64 0.550914 4.2575 0
M  V30 2192 C 206.873 -0.177778 5.33404 0
M  V30 2193 O 207.096 -1.40189 5.52904 0
M  V30 2194 O 206.03 0.479106 5.9999 0
M  V30 2195 H 209.856 1.22639 2.77837 0
M  V30 2196 H 207.441 0.662834 1.33891 0
M  V30 2197 H 209.323 -0.817841 4.13388 0
M  V30 2198 H 207.998 -1.20763 3.0033 0
M  V30 2199 H 206.905 1.03271 3.59564 0
M  V30 2200 H 208.238 1.33979 4.73614 0
M  V30 2201 N 209.89 -1.43072 0.660911 0
M  V30 2202 C 211.118 -2.06067 0.185422 0
M  V30 2203 C 211.533 -1.49582 -1.15198 0
M  V30 2204 O 210.89 -0.630134 -1.71276 0
M  V30 2205 C 210.941 -3.61371 0.0966523 0
M  V30 2206 O 210.662 -4.15758 1.38119 0
M  V30 2207 C 212.163 -4.41455 -0.403996 0
M  V30 2208 H 209.383 -0.664459 0.0934604 0
M  V30 2209 H 211.927 -1.83447 0.90373 0
M  V30 2210 H 210.082 -3.8315 -0.572259 0
M  V30 2211 H 210.496 -5.09499 1.24542 0
M  V30 2212 H 211.97 -5.50437 -0.415045 0
M  V30 2213 H 212.447 -4.15036 -1.43674 0
M  V30 2214 H 213.053 -4.24663 0.232691 0
M  V30 2215 N 211.368 -0.403325 -1.52352 0
M  V30 2216 C 212.318 0.442244 -2.2367 0
M  V30 2217 C 213.302 1.01823 -1.24583 0
M  V30 2218 O 214.494 0.942005 -1.49851 0
M  V30 2219 C 211.623 1.5615 -3.05732 0
M  V30 2220 C 210.709 0.996575 -4.12225 0
M  V30 2221 N 211.1 0.157804 -5.05554 0
M  V30 2222 C 209.398 1.26767 -4.27605 0
M  V30 2223 C 210.099 -0.155853 -5.81491 0
M  V30 2224 N 209.075 0.451775 -5.41719 0
M  V30 2225 H 212.877 -0.204964 -2.93184 0
M  V30 2226 H 210.391 -0.213418 -1.60992 0
M  V30 2227 H 212.388 2.17981 -3.55373 0
M  V30 2228 H 211.048 2.21139 -2.37755 0
M  V30 2229 H 212.059 -0.206049 -5.1749 0
M  V30 2230 H 208.736 1.91757 -3.70858 0
M  V30 2231 H 210.126 -0.836329 -6.66675 0
M  V30 2232 N 212.846 1.57033 -0.133567 0
M  V30 2233 C 213.776 2.1909 0.807567 0
M  V30 2234 C 214.757 1.13517 1.26681 0
M  V30 2235 O 215.942 1.41809 1.32679 0
M  V30 2236 C 213.072 2.80188 2.05212 0
M  V30 2237 C 212.026 3.91471 1.73015 0
M  V30 2238 C 211.352 4.39443 3.04622 0
M  V30 2239 C 212.652 5.12886 0.987168 0
M  V30 2240 H 214.346 2.97988 0.290403 0
M  V30 2241 H 211.892 1.43335 0.138239 0
M  V30 2242 H 213.845 3.22264 2.71521 0
M  V30 2243 H 212.569 1.98601 2.59278 0
M  V30 2244 H 211.228 3.49993 1.0909 0
M  V30 2245 H 210.876 3.54695 3.56651 0
M  V30 2246 H 210.576 5.14495 2.83847 0
M  V30 2247 H 212.1 4.8418 3.72024 0
M  V30 2248 H 213.514 5.51891 1.55208 0
M  V30 2249 H 211.911 5.93615 0.87985 0
M  V30 2250 H 212.981 4.84894 -0.0235286 0
M  V30 2251 N 214.325 -0.140222 1.56975 0
M  V30 2252 C 215.741 -0.493088 1.51792 0
M  V30 2253 C 215.941 -1.83013 0.843116 0
M  V30 2254 O 214.997 -2.49041 0.416493 0
M  V30 2255 C 216.31 -0.497144 2.96562 0
M  V30 2256 C 217.858 -0.582186 3.07538 0
M  V30 2257 C 218.333 -0.616838 4.53827 0
M  V30 2258 N 219.824 -0.678873 4.58198 0
M  V30 2259 C 220.559 -0.726782 5.68775 0
M  V30 2260 N 220.055 -0.733623 6.88905 0
M  V30 2261 N 221.848 -0.768179 5.56826 0
M  V30 2262 H 213.999 0.736108 1.99237 0
M  V30 2263 H 216.262 0.269182 0.90898 0
M  V30 2264 H 215.968 0.417217 3.49217 0
M  V30 2265 H 215.842 -1.33263 3.52875 0
M  V30 2266 H 218.229 -1.48697 2.54899 0
M  V30 2267 H 218.31 0.280581 2.54257 0
M  V30 2268 H 217.954 0.283812 5.07106 0
M  V30 2269 H 217.884 -1.49619 5.04898 0
M  V30 2270 H 220.375 -0.68061 3.7172 0
M  V30 2271 H 220.688 -0.772215 7.68932 0
M  V30 2272 H 219.033 -0.701389 6.91452 0
M  V30 2273 H 222.224 -0.760051 4.61888 0
M  V30 2274 H 222.397 -0.80205 6.43017 0
M  V30 2275 N 215.803 -1.52179 -0.40978 0
M  V30 2276 C 217.028 -1.70347 -1.18308 0
M  V30 2277 C 217.453 -0.411887 -1.83535 0
M  V30 2278 O 216.811 0.630587 -1.6998 0
M  V30 2279 C 216.859 -2.83977 -2.22238 0
M  V30 2280 O 215.963 -2.495 -3.28365 0
M  V30 2281 H 215.304 -0.567103 -0.345384 0
M  V30 2282 H 217.834 -1.98879 -0.480445 0
M  V30 2283 H 217.844 -3.0887 -2.66577 0
M  V30 2284 H 216.519 -3.77685 -1.74146 0
M  V30 2285 H 215.096 -2.35277 -2.89308 0
M  V30 2286 N 217.281 0.66697 -1.42791 0
M  V30 2287 C 218.53 1.42278 -1.42968 0
M  V30 2288 C 218.843 1.9553 -0.0524489 0
M  V30 2289 O 220.049 2.71414 0.068363 0
M  V30 2290 C 218.505 2.57418 -2.51524 0
M  V30 2291 C 218.113 2.10832 -3.9529 0
M  V30 2292 C 219.857 3.34878 -2.60877 0
M  V30 2293 C 217.764 3.23101 -4.95338 0
M  V30 2294 H 216.694 0.534533 -0.531781 0
M  V30 2295 H 219.345 0.721302 -1.68729 0
M  V30 2296 H 217.727 3.29971 -2.18941 0
M  V30 2297 H 218.901 1.4538 -4.37266 0
M  V30 2298 H 217.216 1.46289 -3.89857 0
M  V30 2299 H 219.813 4.18505 -3.32802 0
M  V30 2300 H 220.156 3.81993 -1.6549 0
M  V30 2301 H 220.689 2.69398 -2.92693 0
M  V30 2302 H 217.428 2.80969 -5.9223 0
M  V30 2303 H 216.948 3.87309 -4.57987 0
M  V30 2304 H 218.627 3.88447 -5.17415 0
M  V30 2305 N 218.759 1.29093 0.90403 0
M  V30 2306 C 219.689 1.16401 2.02418 0
M  V30 2307 C 220.67 0.0593085 1.69997 0
M  V30 2308 O 221.855 0.238021 1.92736 0
M  V30 2309 C 218.985 0.835233 3.37107 0
M  V30 2310 C 217.939 1.89578 3.83724 0
M  V30 2311 C 217.265 1.42041 5.15489 0
M  V30 2312 C 218.565 3.30394 4.04521 0
M  V30 2313 H 220.259 2.10109 2.13295 0
M  V30 2314 H 217.805 1.01157 1.02486 0
M  V30 2315 H 219.758 0.733169 4.14973 0
M  V30 2316 H 218.482 -0.137543 3.2631 0
M  V30 2317 H 217.141 1.98715 3.08071 0
M  V30 2318 H 216.789 0.436426 5.01103 0
M  V30 2319 H 216.489 2.12964 5.4765 0
M  V30 2320 H 218.013 1.33176 5.959 0
M  V30 2321 H 219.427 3.24123 4.72882 0
M  V30 2322 H 217.824 3.99237 4.48029 0
M  V30 2323 H 218.894 3.73692 3.09002 0
M  V30 2324 N 220.237 -1.11381 1.11499 0
M  V30 2325 C 221.187 -2.15555 0.74298 0
M  V30 2326 C 222.171 -1.58894 -0.253276 0
M  V30 2327 O 223.363 -1.76897 -0.0602918 0
M  V30 2328 C 220.492 -3.42782 0.188481 0
M  V30 2329 C 219.578 -4.064 1.21244 0
M  V30 2330 N 219.969 -4.44864 2.40685 0
M  V30 2331 C 218.267 -4.3333 1.05552 0
M  V30 2332 C 218.968 -4.94715 3.05994 0
M  V30 2333 N 217.944 -4.90909 2.33472 0
M  V30 2334 H 221.746 -2.43074 1.65203 0
M  V30 2335 H 219.26 -1.28401 0.994329 0
M  V30 2336 H 221.257 -4.16789 -0.0961693 0
M  V30 2337 H 219.917 -3.16727 -0.715149 0
M  V30 2338 H 220.928 -4.36876 2.78136 0
M  V30 2339 H 217.605 -4.1698 0.208372 0
M  V30 2340 H 218.995 -5.34103 4.07656 0
M  V30 2341 N 221.715 -0.905404 -1.28997 0
M  V30 2342 C 222.943 -0.549846 -1.9946 0
M  V30 2343 C 223.358 0.866834 -1.67724 0
M  V30 2344 O 222.715 1.57298 -0.925404 0
M  V30 2345 C 222.766 -0.739387 -3.53858 0
M  V30 2346 O 222.487 -2.10031 -3.84472 0
M  V30 2347 C 223.988 -0.389541 -4.41585 0
M  V30 2348 H 221.208 -0.210429 -0.637151 0
M  V30 2349 H 223.752 -1.21632 -1.64396 0
M  V30 2350 H 221.907 -0.120023 -3.87214 0
M  V30 2351 H 222.321 -2.13385 -4.79132 0
M  V30 2352 H 223.795 -0.572972 -5.49018 0
M  V30 2353 H 224.272 0.673756 -4.34001 0
M  V30 2354 H 224.878 -0.986089 -4.1371 0
M  V30 2355 N 223.193 1.4272 -0.668489 0
M  V30 2356 C 224.442 2.00846 -0.185389 0
M  V30 2357 C 224.755 1.53442 1.21305 0
M  V30 2358 O 225.961 2.03944 1.79218 0
M  V30 2359 C 224.417 3.58805 -0.280591 0
M  V30 2360 C 224.025 4.15198 -1.68268 0
M  V30 2361 C 225.769 4.24255 0.14412 0
M  V30 2362 C 223.676 5.655 -1.73099 0
M  V30 2363 H 222.606 0.751145 -0.0655475 0
M  V30 2364 H 225.257 1.63516 -0.832752 0
M  V30 2365 H 223.639 3.93608 0.434553 0
M  V30 2366 H 224.813 3.91866 -2.42441 0
M  V30 2367 H 223.128 3.62176 -2.05469 0
M  V30 2368 H 225.725 5.34547 0.128086 0
M  V30 2369 H 226.068 3.99277 1.17827 0
M  V30 2370 H 226.601 3.94389 -0.519798 0
M  V30 2371 H 223.34 5.95268 -2.74475 0
M  V30 2372 H 222.86 5.90842 -1.03274 0
M  V30 2373 H 224.539 6.29808 -1.48158 0
M  V30 2374 N 224.671 0.411399 1.52136 0
M  V30 2375 C 226.082 -0.0576826 1.86611 0
M  V30 2376 C 226.433 -1.44238 1.33003 0
M  V30 2377 O 225.558 -2.05759 0.670228 0
M  V30 2378 C 226.153 -0.111448 3.38617 0
M  V30 2379 C 224.712 -0.52487 3.72723 0
M  V30 2380 C 223.859 0.299176 2.75681 0
M  V30 2381 H 226.81 0.628368 1.4573 0
M  V30 2382 H 226.831 -0.926252 3.69054 0
M  V30 2383 H 226.343 0.896488 3.77604 0
M  V30 2384 H 224.444 -1.53936 3.39315 0
M  V30 2385 H 224.557 -0.267681 4.78352 0
M  V30 2386 H 222.921 -0.238814 2.53578 0
M  V30 2387 H 223.704 1.3055 3.17508 0
M  V30 2388 N 226.149 -1.5696 0.141893 0
M  V30 2389 C 227.426 -1.87553 -0.555281 0
M  V30 2390 C 227.806 -1.04699 -1.83306 0
M  V30 2391 O 227.154 -0.132346 -2.28116 0
M  V30 2392 C 227.364 -3.39093 -0.825664 0
M  V30 2393 C 228.712 -4.08199 -1.16869 0
M  V30 2394 O 229.736 -3.44242 -0.915185 0
M  V30 2395 O 228.595 -5.21139 -1.6455 0
M  V30 2396 H 225.689 -0.777188 -0.282679 0
M  V30 2397 H 228.235 -1.68763 0.17812 0
M  V30 2398 H 227.007 -3.91221 0.0788633 0
M  V30 2399 H 226.63 -3.63393 -1.61343 0
M  V30 2400 N 227.627 0.131896 -1.57047 0
M  V30 2401 C 228.59 1.14638 -1.98471 0
M  V30 2402 C 229.59 1.35029 -0.873148 0
M  V30 2403 O 230.78 1.31764 -1.13946 0
M  V30 2404 C 227.912 2.50358 -2.31373 0
M  V30 2405 H 229.105 0.79064 -2.8929 0
M  V30 2406 H 226.658 0.375761 -1.51716 0
M  V30 2407 H 227.393 2.90876 -1.43393 0
M  V30 2408 H 227.178 2.36915 -3.12432 0
M  V30 2409 H 228.668 3.23395 -2.64207 0
M  V30 2410 N 229.106 1.52395 0.401703 0
M  V30 2411 C 230.039 1.70999 1.51111 0
M  V30 2412 C 231.017 0.55765 1.52738 0
M  V30 2413 O 232.201 0.785912 1.71335 0
M  V30 2414 C 229.328 1.75607 2.8962 0
M  V30 2415 C 228.374 2.97227 3.05873 0
M  V30 2416 S 229.207 4.57439 2.78405 0
M  V30 2417 C 230.363 4.64844 4.19131 0
M  V30 2418 H 230.596 2.6483 1.35102 0
M  V30 2419 H 228.129 1.42527 0.593762 0
M  V30 2420 H 230.087 1.78947 3.69443 0
M  V30 2421 H 228.748 0.828914 3.02965 0
M  V30 2422 H 227.941 2.96955 4.07227 0
M  V30 2423 H 227.543 2.91813 2.33925 0
M  V30 2424 H 229.835 4.42677 5.12877 0
M  V30 2425 H 230.778 5.66807 4.24424 0
M  V30 2426 H 231.186 3.93804 4.04448 0
M  V30 2427 N 230.584 -0.659388 1.43143 0
M  V30 2428 C 231.833 -1.41518 1.43721 0
M  V30 2429 C 232.146 -1.95499 0.0628176 0
M  V30 2430 O 233.352 -2.71446 -0.0539683 0
M  V30 2431 C 231.808 -2.5608 2.52885 0
M  V30 2432 C 231.416 -2.08733 3.96402 0
M  V30 2433 C 233.16 -3.3349 2.62649 0
M  V30 2434 C 231.067 -3.20469 4.97045 0
M  V30 2435 H 229.997 -0.531705 0.534608 0
M  V30 2436 H 232.648 -0.712343 1.69109 0
M  V30 2437 H 231.03 -3.28805 2.20688 0
M  V30 2438 H 232.204 -1.43059 4.3803 0
M  V30 2439 H 230.519 -1.44219 3.90627 0
M  V30 2440 H 233.116 -4.16734 3.35017 0
M  V30 2441 H 233.459 -3.8111 1.67513 0
M  V30 2442 H 233.992 -2.67842 2.94118 0
M  V30 2443 H 230.731 -2.77824 5.93712 0
M  V30 2444 H 230.251 -3.84874 4.60034 0
M  V30 2445 H 231.93 -3.85698 5.19467 0
M  V30 2446 N 232.062 -1.29571 -0.897171 0
M  V30 2447 C 233.308 -1.17863 -1.65034 0
M  V30 2448 C 233.641 0.268729 -1.92332 0
M  V30 2449 O 232.916 1.19378 -1.53555 0
M  V30 2450 C 233.199 -1.995 -2.99786 0
M  V30 2451 C 233.052 -3.5239 -2.79538 0
M  V30 2452 C 234.371 -1.82335 -4.00552 0
M  V30 2453 H 231.49 -0.429528 -0.598895 0
M  V30 2454 H 234.132 -1.59072 -1.03905 0
M  V30 2455 H 232.282 -1.64485 -3.51962 0
M  V30 2456 H 233.954 -3.97401 -2.34244 0
M  V30 2457 H 232.197 -3.77187 -2.14273 0
M  V30 2458 H 232.868 -4.04787 -3.75302 0
M  V30 2459 H 235.344 -2.12924 -3.57495 0
M  V30 2460 H 234.22 -2.41801 -4.92771 0
M  V30 2461 H 234.481 -0.779209 -4.35179 0
M  V30 2462 N 233.54 1.10788 -1.12088 0
M  V30 2463 C 234.789 1.82036 -0.868659 0
M  V30 2464 C 235.102 1.85929 0.607426 0
M  V30 2465 O 236.308 2.53346 0.97613 0
M  V30 2466 C 234.764 3.26951 -1.50435 0
M  V30 2467 C 234.372 3.31367 -3.01496 0
M  V30 2468 C 236.116 4.03053 -1.33225 0
M  V30 2469 C 234.023 4.7072 -3.58017 0
M  V30 2470 H 232.953 0.682108 -0.321318 0
M  V30 2471 H 235.604 1.24618 -1.34694 0
M  V30 2472 H 233.986 3.84343 -0.953735 0
M  V30 2473 H 235.16 2.83819 -3.6302 0
M  V30 2474 H 233.475 2.6875 -3.18061 0
M  V30 2475 H 236.072 5.05981 -1.72878 0
M  V30 2476 H 236.415 4.15387 -0.275529 0
M  V30 2477 H 236.948 3.52066 -1.85188 0
M  V30 2478 H 233.687 4.63585 -4.63432 0
M  V30 2479 H 233.207 5.1865 -3.01268 0
M  V30 2480 H 234.886 5.39685 -3.56859 0
M  V30 2481 N 235.018 0.912232 1.28515 0
M  V30 2482 C 236.295 0.463597 1.90027 0
M  V30 2483 C 236.675 -1.05753 1.82701 0
M  V30 2484 O 236.023 -1.90492 1.26194 0
M  V30 2485 C 236.233 0.992253 3.34597 0
M  V30 2486 C 237.581 1.04344 4.11579 0
M  V30 2487 O 238.605 0.94079 3.43551 0
M  V30 2488 O 237.464 1.1995 5.33174 0
M  V30 2489 H 234.558 0.146666 0.813891 0
M  V30 2490 H 237.104 1.00292 1.36893 0
M  V30 2491 H 235.876 2.03623 3.34146 0
M  V30 2492 H 235.499 0.433672 3.95228 0
M  V30 2493 N 236.496 -1.42363 0.676048 0
M  V30 2494 C 237.744 -2.01123 0.198437 0
M  V30 2495 C 238.065 -1.53731 -1.19966 0
M  V30 2496 O 237.335 -0.759518 -1.80577 0
M  V30 2497 H 235.915 -0.743678 0.0703721 0
M  V30 2498 H 238.577 -1.74263 0.872837 0
M  V30 2499 H 237.673 -3.11454 0.200686 0
M  V30 2500 N 237.974 -0.419461 -1.51915 0
M  V30 2501 C 238.924 0.418496 -2.24126 0
M  V30 2502 C 239.908 1.00495 -1.25656 0
M  V30 2503 O 241.1 0.926058 -1.50842 0
M  V30 2504 C 238.229 1.52899 -3.07371 0
M  V30 2505 C 237.315 0.952797 -4.13258 0
M  V30 2506 N 237.706 0.104175 -5.05693 0
M  V30 2507 C 236.004 1.22224 -4.28926 0
M  V30 2508 C 236.705 -0.21752 -5.81293 0
M  V30 2509 N 235.681 0.394293 -5.42168 0
M  V30 2510 H 239.483 -0.236048 -2.92951 0
M  V30 2511 H 236.997 -0.230481 -1.60756 0
M  V30 2512 H 238.994 2.14199 -3.57665 0
M  V30 2513 H 237.654 2.18605 -2.40088 0
M  V30 2514 H 238.665 -0.260924 -5.17242 0
M  V30 2515 H 235.342 1.87812 -3.72871 0
M  V30 2516 H 236.732 -0.906992 -6.6575 0
M  V30 2517 N 239.452 1.56882 -0.150215 0
M  V30 2518 C 240.7 1.9584 0.499105 0
M  V30 2519 C 241.021 1.03623 1.65188 0
M  V30 2520 O 240.291 0.0984084 1.95653 0
M  V30 2521 H 238.871 0.723119 0.187373 0
M  V30 2522 H 241.533 1.9358 -0.226466 0
M  V30 2523 H 240.629 2.99638 0.873122 0
M  V30 2524 N 240.93 -0.123565 1.57115 0
M  V30 2525 C 242.179 -0.830704 1.83799 0
M  V30 2526 C 242.492 -1.81259 0.735158 0
M  V30 2527 O 243.698 -2.56558 0.888278 0
M  V30 2528 C 242.154 -1.52802 3.25852 0
M  V30 2529 C 241.762 -0.587356 4.44133 0
M  V30 2530 C 243.506 -2.22056 3.61789 0
M  V30 2531 C 241.413 -1.28764 5.77212 0
M  V30 2532 H 240.343 -0.313967 0.685522 0
M  V30 2533 H 242.994 -0.0834359 1.8331 0
M  V30 2534 H 241.376 -2.32175 3.20797 0
M  V30 2535 H 242.55 0.172829 4.60476 0
M  V30 2536 H 240.865 -0.00201892 4.164 0
M  V30 2537 H 243.462 -2.75131 4.58483 0
M  V30 2538 H 243.805 -2.99644 2.88997 0
M  V30 2539 H 244.338 -1.49576 3.68608 0
M  V30 2540 H 241.077 -0.55314 6.53162 0
M  V30 2541 H 240.597 -2.01995 5.64764 0
M  V30 2542 H 242.276 -1.8221 6.20813 0
M  V30 2543 N 242.408 -1.52605 -0.393616 0
M  V30 2544 C 243.657 -1.66649 -1.13627 0
M  V30 2545 C 243.97 -0.410364 -1.91247 0
M  V30 2546 O 245.176 -0.430854 -2.68059 0
M  V30 2547 C 243.632 -2.9449 -2.06891 0
M  V30 2548 C 243.24 -4.27266 -1.34714 0
M  V30 2549 C 244.984 -3.17899 -2.81319 0
M  V30 2550 C 242.891 -5.46217 -2.26717 0
M  V30 2551 H 241.821 -0.62084 -0.427871 0
M  V30 2552 H 244.472 -1.791 -0.399428 0
M  V30 2553 H 242.854 -2.75774 -2.84191 0
M  V30 2554 H 244.028 -4.56518 -0.626714 0
M  V30 2555 H 242.343 -4.10081 -0.722643 0
M  V30 2556 H 244.94 -4.03949 -3.50328 0
M  V30 2557 H 245.283 -2.32777 -3.45139 0
M  V30 2558 H 245.816 -3.37159 -2.11113 0
M  V30 2559 H 242.555 -6.33733 -1.67521 0
M  V30 2560 H 242.075 -5.21283 -2.96689 0
M  V30 2561 H 243.754 -5.7991 -2.86903 0
M  V30 2562 N 243.887 0.651787 -1.4349 0
M  V30 2563 C 244.819 1.77725 -1.44729 0
M  V30 2564 C 245.832 1.59141 -0.343231 0
M  V30 2565 O 247.021 1.67835 -0.607751 0
M  V30 2566 C 244.121 3.15172 -1.24579 0
M  V30 2567 C 243.294 3.60402 -2.47849 0
M  V30 2568 C 242.353 4.76656 -2.22902 0
M  V30 2569 O 241.379 4.86022 -2.96263 0
M  V30 2570 N 242.581 5.66958 -1.24656 0
M  V30 2571 H 245.346 1.77141 -2.41746 0
M  V30 2572 H 242.907 0.835678 -1.38665 0
M  V30 2573 H 244.899 3.90634 -1.0577 0
M  V30 2574 H 243.469 3.1052 -0.360015 0
M  V30 2575 H 242.689 2.75369 -2.82073 0
M  V30 2576 H 243.977 3.87368 -3.29884 0
M  V30 2577 H 243.375 5.62065 -0.640265 0
M  V30 2578 H 241.932 6.42135 -1.1183 0
M  V30 2579 N 245.365 1.30045 0.890287 0
M  V30 2580 C 246.295 1.18541 2.01172 0
M  V30 2581 C 247.276 0.0773356 1.69924 0
M  V30 2582 O 248.461 0.25845 1.92473 0
M  V30 2583 C 245.591 0.870941 3.36202 0
M  V30 2584 C 244.545 1.93637 3.81692 0
M  V30 2585 C 243.871 1.475 5.13953 0
M  V30 2586 C 245.171 3.34666 4.00994 0
M  V30 2587 H 246.865 2.12359 2.11054 0
M  V30 2588 H 244.411 1.02238 1.01407 0
M  V30 2589 H 246.364 0.777141 4.14172 0
M  V30 2590 H 245.088 -0.102926 3.26438 0
M  V30 2591 H 243.747 2.01972 3.05946 0
M  V30 2592 H 243.395 0.489551 5.00612 0
M  V30 2593 H 243.095 2.1876 5.4536 0
M  V30 2594 H 244.619 1.39489 5.94454 0
M  V30 2595 H 246.033 3.2912 4.69417 0
M  V30 2596 H 244.43 4.03966 4.43769 0
M  V30 2597 H 245.5 3.76949 3.05021 0
M  V30 2598 N 246.843 -1.10192 1.12674 0
M  V30 2599 C 248.09 -1.82205 0.883606 0
M  V30 2600 C 248.418 -1.8532 -0.590492 0
M  V30 2601 O 247.673 -1.31137 -1.45264 0
M  V30 2602 C 247.972 -3.28552 1.4067 0
M  V30 2603 C 247.638 -3.45582 2.89627 0
M  V30 2604 C 246.3 -3.49937 3.30299 0
M  V30 2605 C 248.652 -3.50768 3.85501 0
M  V30 2606 C 245.98 -3.57049 4.65546 0
M  V30 2607 C 248.332 -3.59414 5.20581 0
M  V30 2608 C 246.996 -3.62034 5.60792 0
M  V30 2609 H 246.266 -0.666735 0.323334 0
M  V30 2610 H 248.913 -1.29868 1.40736 0
M  V30 2611 H 247.218 -3.83473 0.80347 0
M  V30 2612 H 248.915 -3.82788 1.19475 0
M  V30 2613 H 245.505 -3.42871 2.57172 0
M  V30 2614 H 249.689 -3.46651 3.55171 0
M  V30 2615 H 244.945 -3.57361 4.96088 0
M  V30 2616 H 249.119 -3.62371 5.94693 0
M  V30 2617 H 246.746 -3.67298 6.6558 0
M  V30 2618 N 248.321 -0.919034 -1.28029 0
M  V30 2619 C 249.546 -0.570357 -1.99403 0
M  V30 2620 C 249.971 0.842486 -1.68178 0
M  V30 2621 O 249.329 1.56391 -0.917141 0
M  V30 2622 C 249.377 -0.792541 -3.51783 0
M  V30 2623 O 248.481 0.145988 -4.12142 0
M  V30 2624 H 247.822 -0.220555 -0.6263 0
M  V30 2625 H 250.352 -1.23592 -1.63053 0
M  V30 2626 H 250.362 -0.704708 -4.01868 0
M  V30 2627 H 249.037 -1.82247 -3.73844 0
M  V30 2628 H 247.614 0.00897528 -3.72899 0
M  V30 2629 N 249.799 1.42003 -0.683588 0
M  V30 2630 C 251.027 2.05746 -0.218182 0
M  V30 2631 C 251.442 1.51396 1.12804 0
M  V30 2632 O 250.799 0.657303 1.70252 0
M  V30 2633 C 250.85 3.61171 -0.154131 0
M  V30 2634 O 250.571 4.13508 -1.44716 0
M  V30 2635 C 252.072 4.42042 0.333713 0
M  V30 2636 H 249.292 0.662888 -0.10402 0
M  V30 2637 H 251.836 1.81987 -0.9328 0
M  V30 2638 H 249.991 3.84012 0.511231 0
M  V30 2639 H 250.405 5.07453 -1.32632 0
M  V30 2640 H 251.879 5.51028 0.327423 0
M  V30 2641 H 252.356 4.17269 1.37053 0
M  V30 2642 H 252.962 4.24239 -0.300222 0
M  V30 2643 N 251.277 0.427512 1.51691 0
M  V30 2644 C 252.24 -0.377132 2.26076 0
M  V30 2645 C 253.24 -0.958089 1.29141 0
M  V30 2646 O 254.43 -0.83408 1.52934 0
M  V30 2647 C 251.562 -1.53262 3.04506 0
M  V30 2648 H 252.755 0.27464 2.9864 0
M  V30 2649 H 250.308 0.180445 1.55255 0
M  V30 2650 H 251.043 -2.22072 2.36335 0
M  V30 2651 H 250.828 -1.12232 3.75694 0
M  V30 2652 H 252.318 -2.10135 3.60878 0
M  V30 2653 N 252.755 -1.56801 0.158532 0
M  V30 2654 C 253.718 -2.16138 -0.762705 0
M  V30 2655 C 254.718 -1.1061 -1.16713 0
M  V30 2656 O 255.908 -1.36191 -1.08617 0
M  V30 2657 C 253.04 -2.73386 -2.03649 0
M  V30 2658 H 254.233 -2.98886 -0.246354 0
M  V30 2659 H 251.786 -1.56035 -0.0909744 0
M  V30 2660 H 252.521 -1.94335 -2.59623 0
M  V30 2661 H 252.306 -3.50601 -1.75559 0
M  V30 2662 H 253.796 -3.19065 -2.6942 0
M  V30 2663 N 254.233 0.115231 -1.57178 0
M  V30 2664 C 255.143 1.15994 -2.03918 0
M  V30 2665 C 256.159 1.45103 -0.960268 0
M  V30 2666 O 257.335 1.56144 -1.27204 0
M  V30 2667 C 254.4 2.46568 -2.43732 0
M  V30 2668 C 253.461 2.24822 -3.65723 0
M  V30 2669 C 252.694 3.4917 -4.03629 0
M  V30 2670 O 252.917 4.56623 -3.41835 0
M  V30 2671 O 251.851 3.39949 -4.96708 0
M  V30 2672 H 255.677 0.793019 -2.93164 0
M  V30 2673 H 253.262 0.3263 -1.45793 0
M  V30 2674 H 255.144 3.23492 -2.70057 0
M  V30 2675 H 253.819 2.82726 -1.57631 0
M  V30 2676 H 252.726 1.45744 -3.44542 0
M  V30 2677 H 254.059 1.93566 -4.52541 0
M  V30 2678 N 255.711 1.52812 0.385517 0
M  V30 2679 C 257.127 1.4214 0.725829 0
M  V30 2680 C 257.327 0.544589 1.94001 0
M  V30 2681 O 256.383 0.0193693 2.52493 0
M  V30 2682 C 257.696 2.85042 0.957668 0
M  V30 2683 C 259.244 2.94543 1.05892 0
M  V30 2684 C 259.719 4.38464 1.32337 0
M  V30 2685 N 261.21 4.41804 1.39151 0
M  V30 2686 C 261.945 5.5025 1.61285 0
M  V30 2687 N 261.441 6.68775 1.80866 0
M  V30 2688 N 263.234 5.37798 1.63492 0
M  V30 2689 H 255.385 2.08338 -0.413383 0
M  V30 2690 H 257.648 0.940016 -0.122775 0
M  V30 2691 H 257.354 3.51431 0.137568 0
M  V30 2692 H 257.228 3.27505 1.87137 0
M  V30 2693 H 259.615 2.28321 1.86959 0
M  V30 2694 H 259.696 2.55504 0.123057 0
M  V30 2695 H 259.34 5.05254 0.517793 0
M  V30 2696 H 259.27 4.75059 2.27214 0
M  V30 2697 H 261.761 3.56377 1.25713 0
M  V30 2698 H 262.074 7.47197 1.97271 0
M  V30 2699 H 260.419 6.71797 1.78083 0
M  V30 2700 H 263.61 4.44171 1.47749 0
M  V30 2701 H 263.783 6.22382 1.80402 0
M  V30 2702 N 257.189 -0.644168 1.43834 0
M  V30 2703 C 258.119 -1.76814 1.52509 0
M  V30 2704 C 259.1 -1.65823 0.379052 0
M  V30 2705 O 260.285 -1.84781 0.597466 0
M  V30 2706 C 257.415 -3.15288 1.4564 0
M  V30 2707 C 256.369 -3.41053 2.58586 0
M  V30 2708 C 255.695 -4.79421 2.36769 0
M  V30 2709 C 256.995 -3.34902 4.00797 0
M  V30 2710 H 258.689 -1.69812 2.46586 0
M  V30 2711 H 256.235 -0.815542 1.1868 0
M  V30 2712 H 258.188 -3.93681 1.50311 0
M  V30 2713 H 256.912 -3.23043 0.480725 0
M  V30 2714 H 255.571 -2.65035 2.53282 0
M  V30 2715 H 255.219 -4.83863 1.37424 0
M  V30 2716 H 254.919 -4.9762 3.12487 0
M  V30 2717 H 256.443 -5.6006 2.43238 0
M  V30 2718 H 257.857 -4.03218 4.07539 0
M  V30 2719 H 256.254 -3.64637 4.76613 0
M  V30 2720 H 257.324 -2.32928 4.25291 0
M  V30 2721 N 258.668 -1.30515 -0.883378 0
M  V30 2722 C 259.915 -1.1943 -1.63532 0
M  V30 2723 C 260.243 0.250627 -1.92878 0
M  V30 2724 O 259.498 1.19556 -1.54935 0
M  V30 2725 C 259.797 -1.96994 -2.98209 0
M  V30 2726 C 259.463 -3.466 -2.88408 0
M  V30 2727 C 258.125 -3.87397 -2.85442 0
M  V30 2728 C 260.477 -4.41863 -2.76418 0
M  V30 2729 C 257.805 -5.21745 -2.68327 0
M  V30 2730 C 260.157 -5.7632 -2.60841 0
M  V30 2731 C 258.821 -6.16354 -2.56251 0
M  V30 2732 H 258.091 -0.437025 -0.598406 0
M  V30 2733 H 260.738 -1.61635 -1.02696 0
M  V30 2734 H 259.043 -1.47429 -3.63004 0
M  V30 2735 H 260.74 -1.85808 -3.55354 0
M  V30 2736 H 257.33 -3.14182 -2.91527 0
M  V30 2737 H 261.514 -4.11285 -2.77775 0
M  V30 2738 H 256.77 -5.51853 -2.63189 0
M  V30 2739 H 260.944 -6.49772 -2.50538 0
M  V30 2740 H 258.571 -7.20401 -2.42748 0
M  V30 2741 N 260.146 1.09593 -1.13257 0
M  V30 2742 C 261.394 1.81375 -0.891492 0
M  V30 2743 C 261.715 1.86049 0.584009 0
M  V30 2744 O 260.985 1.34481 1.42449 0
M  V30 2745 H 259.565 0.671708 -0.326828 0
M  V30 2746 H 262.227 1.3256 -1.42877 0
M  V30 2747 H 261.323 2.84612 -1.28071 0
M  V30 2748 N 261.624 0.925811 1.2754 0
M  V30 2749 C 262.87 0.575575 1.95086 0
M  V30 2750 C 263.225 -0.873246 1.71441 0
M  V30 2751 O 262.518 -1.61443 1.03183 0
M  V30 2752 C 262.712 0.835296 3.47502 0
M  V30 2753 C 262.541 2.30781 3.85967 0
M  V30 2754 C 261.311 2.96017 4.09514 0
M  V30 2755 C 263.509 3.28519 3.95702 0
M  V30 2756 N 261.491 4.3344 4.34744 0
M  V30 2757 C 262.862 4.51146 4.25285 0
M  V30 2758 C 264.917 3.23753 3.7827 0
M  V30 2759 C 263.62 5.69606 4.39251 0
M  V30 2760 C 265.646 4.41523 3.9346 0
M  V30 2761 C 265.008 5.62928 4.23428 0
M  V30 2762 H 261.107 0.260711 0.737261 0
M  V30 2763 H 263.691 1.19204 1.53943 0
M  V30 2764 H 261.862 0.248005 3.87607 0
M  V30 2765 H 263.594 0.447878 4.02214 0
M  V30 2766 H 260.349 2.46695 4.04275 0
M  V30 2767 H 260.773 5.04528 4.5142 0
M  V30 2768 H 265.415 2.3096 3.54143 0
M  V30 2769 H 263.133 6.62866 4.62205 0
M  V30 2770 H 266.719 4.39351 3.81394 0
M  V30 2771 H 265.599 6.52538 4.34929 0
M  V30 2772 N 263.102 -1.41638 0.69111 0
M  V30 2773 C 264.327 -2.06148 0.227583 0
M  V30 2774 C 264.752 -1.51652 -1.11281 0
M  V30 2775 O 264.11 -0.64164 -1.69566 0
M  V30 2776 C 264.158 -3.60095 0.190858 0
M  V30 2777 O 263.262 -4.03845 -0.835664 0
M  V30 2778 H 262.603 -0.654434 0.112306 0
M  V30 2779 H 265.133 -1.81484 0.944714 0
M  V30 2780 H 265.143 -4.07995 0.020207 0
M  V30 2781 H 263.818 -3.99129 1.16915 0
M  V30 2782 H 262.395 -3.67458 -0.63473 0
M  V30 2783 N 264.58 -0.43555 -1.51462 0
M  V30 2784 C 265.49 0.383001 -2.31453 0
M  V30 2785 C 266.506 1.02931 -1.4029 0
M  V30 2786 O 267.682 1.02507 -1.73362 0
M  V30 2787 C 264.747 1.47043 -3.13973 0
M  V30 2788 C 263.808 0.844433 -4.20913 0
M  V30 2789 C 263.041 1.88004 -4.9949 0
M  V30 2790 O 263.264 3.10199 -4.78678 0
M  V30 2791 O 262.198 1.47157 -5.83634 0
M  V30 2792 H 266.024 -0.269964 -3.02498 0
M  V30 2793 H 263.609 -0.19813 -1.4808 0
M  V30 2794 H 265.491 2.10113 -3.65281 0
M  V30 2795 H 264.166 2.10751 -2.45695 0
M  V30 2796 H 263.073 0.175729 -3.73687 0
M  V30 2797 H 264.406 0.250869 -4.9156 0
M  V30 2798 N 266.058 1.56714 -0.166846 0
M  V30 2799 C 266.988 2.20754 0.760913 0
M  V30 2800 C 267.969 1.16178 1.24244 0
M  V30 2801 O 269.154 1.44592 1.29641 0
M  V30 2802 C 266.284 2.84478 1.99223 0
M  V30 2803 C 265.238 3.95053 1.64672 0
M  V30 2804 C 264.564 4.45805 2.95232 0
M  V30 2805 C 265.864 5.14865 0.878155 0
M  V30 2806 H 267.558 2.98537 0.22713 0
M  V30 2807 H 265.104 1.43596 0.107805 0
M  V30 2808 H 267.057 3.27951 2.64624 0
M  V30 2809 H 265.781 2.04056 2.55007 0
M  V30 2810 H 264.44 3.52228 1.01641 0
M  V30 2811 H 264.088 3.62181 3.49047 0
M  V30 2812 H 263.788 5.204 2.7287 0
M  V30 2813 H 265.312 4.91962 3.6167 0
M  V30 2814 H 266.726 5.55059 1.43466 0
M  V30 2815 H 265.123 5.95348 0.753738 0
M  V30 2816 H 266.193 4.84735 -0.126377 0
M  V30 2817 N 267.536 -0.106894 1.57237 0
M  V30 2818 C 268.446 -1.14911 2.0453 0
M  V30 2819 C 269.462 -1.44592 0.96795 0
M  V30 2820 O 270.638 -1.55468 1.2803 0
M  V30 2821 C 267.703 -2.45272 2.45036 0
M  V30 2822 C 266.764 -2.22879 3.66911 0
M  V30 2823 C 265.997 -3.47024 4.05475 0
M  V30 2824 O 266.22 -4.54804 3.44252 0
M  V30 2825 O 265.154 -3.3731 4.98504 0
M  V30 2826 H 268.98 -0.777461 2.9358 0
M  V30 2827 H 266.565 -0.318563 1.45964 0
M  V30 2828 H 268.447 -3.22055 2.71769 0
M  V30 2829 H 267.122 -2.81886 1.59129 0
M  V30 2830 H 266.029 -1.43915 3.45311 0
M  V30 2831 H 267.362 -1.91163 4.53561 0
M  V30 2832 N 269.014 -1.53014 -0.377408 0
M  V30 2833 C 269.977 -1.77957 -1.44444 0
M  V30 2834 C 270.977 -0.649763 -1.47087 0
M  V30 2835 O 272.167 -0.917897 -1.48055 0
M  V30 2836 C 269.299 -1.89089 -2.83651 0
M  V30 2837 H 270.492 -2.73243 -1.23606 0
M  V30 2838 H 268.045 -1.43912 -0.609844 0
M  V30 2839 H 268.78 -0.958293 -3.09818 0
M  V30 2840 H 268.565 -2.71254 -2.83132 0
M  V30 2841 H 270.055 -2.1002 -3.60945 0
M  V30 2842 N 270.492 0.636531 -1.44174 0
M  V30 2843 C 271.741 1.39213 -1.45954 0
M  V30 2844 C 272.054 1.95374 -0.0939119 0
M  V30 2845 O 273.26 2.71498 0.0107767 0
M  V30 2846 C 271.716 2.52025 -2.56927 0
M  V30 2847 C 271.324 2.024 -3.99673 0
M  V30 2848 C 273.068 3.29269 -2.67922 0
M  V30 2849 C 270.975 3.12521 -5.0208 0
M  V30 2850 H 269.905 0.523132 -0.542999 0
M  V30 2851 H 272.556 0.685349 -1.70221 0
M  V30 2852 H 270.938 3.25253 -2.25891 0
M  V30 2853 H 272.112 1.36073 -4.40251 0
M  V30 2854 H 270.427 1.37987 -3.92872 0
M  V30 2855 H 273.024 4.11352 -3.41605 0
M  V30 2856 H 273.367 3.78397 -1.73555 0
M  V30 2857 H 273.9 2.63129 -2.98342 0
M  V30 2858 H 270.639 2.68343 -5.98057 0
M  V30 2859 H 270.159 3.77507 -4.66099 0
M  V30 2860 H 271.838 3.77385 -5.25538 0
M  V30 2861 N 271.97 1.30982 0.876444 0
M  V30 2862 C 273.218 1.20058 1.62575 0
M  V30 2863 C 273.539 -0.242947 1.93481 0
M  V30 2864 O 272.809 -1.1619 1.57724 0
M  V30 2865 H 271.389 0.44135 0.602677 0
M  V30 2866 H 274.051 1.64222 1.04962 0
M  V30 2867 H 273.147 1.76762 2.57219 0
M  V30 2868 N 273.449 -1.08991 1.13837 0
M  V30 2869 C 274.381 -2.15606 0.777612 0
M  V30 2870 C 275.394 -1.61533 -0.202739 0
M  V30 2871 O 276.583 -1.78491 0.0181055 0
M  V30 2872 C 273.683 -3.3864 0.132623 0
M  V30 2873 C 272.856 -4.22115 1.1462 0
M  V30 2874 C 271.915 -5.23564 0.526074 0
M  V30 2875 O 270.941 -5.56678 1.18735 0
M  V30 2876 N 272.143 -5.76266 -0.699866 0
M  V30 2877 H 274.908 -2.47159 1.69506 0
M  V30 2878 H 272.469 -1.24747 1.03198 0
M  V30 2879 H 274.461 -4.03626 -0.29459 0
M  V30 2880 H 273.031 -3.04938 -0.687849 0
M  V30 2881 H 272.251 -3.53199 1.75055 0
M  V30 2882 H 273.539 -4.74709 1.83109 0
M  V30 2883 H 272.937 -5.51585 -1.25581 0
M  V30 2884 H 271.494 -6.42963 -1.06968 0
M  V30 2885 N 274.927 -0.932562 -1.27047 0
M  V30 2886 C 275.875 -0.42603 -2.28665 0
M  V30 2887 C 276.869 0.49219 -1.62092 0
M  V30 2888 O 278.075 0.371355 -1.76128 0
M  V30 2889 H 274.45 -0.119213 -0.742491 0
M  V30 2890 H 276.421 -1.29579 -2.68797 0
M  V30 2891 C 275.17 0.301426 -3.46391 0
M  V30 2892 H 274.493 -0.39595 -3.97834 0
M  V30 2893 H 275.933 0.6202 -4.1944 0
M  V30 2894 C 274.392 1.51616 -3.00856 0
M  V30 2895 O 274.922 2.61476 -3.04948 0
M  V30 2896 N 273.128 1.36969 -2.56296 0
M  V30 2897 H 272.675 0.475873 -2.53166 0
M  V30 2898 H 272.633 2.18368 -2.26192 0
M  V30 2899 N 276.405 1.4127 -0.698611 0
M  V30 2900 C 277.651 2.01478 -0.231207 0
M  V30 2901 C 277.984 1.55215 1.16713 0
M  V30 2902 O 277.259 0.764672 1.78838 0
M  V30 2903 C 277.542 3.58912 -0.292281 0
M  V30 2904 C 277.395 4.15293 -1.72778 0
M  V30 2905 C 278.714 4.38736 0.346194 0
M  V30 2906 H 275.833 0.732025 -0.0854878 0
M  V30 2907 H 278.475 1.67977 -0.887906 0
M  V30 2908 H 276.625 3.87582 0.26686 0
M  V30 2909 H 278.297 3.97486 -2.341 0
M  V30 2910 H 276.54 3.7022 -2.26096 0
M  V30 2911 H 277.211 5.24452 -1.72202 0
M  V30 2912 H 279.687 4.15897 -0.130035 0
M  V30 2913 H 278.563 5.48221 0.272932 0
M  V30 2914 H 278.824 4.18425 1.42734 0
M  V30 2915 N 277.883 0.443576 1.51229 0
M  V30 2916 C 278.831 -0.37904 2.29491 0
M  V30 2917 C 279.825 -1.0153 1.35603 0
M  V30 2918 O 281.031 -0.94955 1.52917 0
M  V30 2919 H 277.406 -0.141053 0.738653 0
M  V30 2920 H 279.377 0.301799 2.9687 0
M  V30 2921 C 278.126 -1.46426 3.15364 0
M  V30 2922 H 277.449 -0.984037 3.87501 0
M  V30 2923 H 278.889 -2.01297 3.7317 0
M  V30 2924 C 277.348 -2.45099 2.31146 0
M  V30 2925 O 277.878 -3.49773 1.9754 0
M  V30 2926 N 276.084 -2.16139 1.94249 0
M  V30 2927 H 275.631 -1.31044 2.21777 0
M  V30 2928 H 275.589 -2.82398 1.38198 0
M  V30 2929 N 279.361 -1.56624 0.175154 0
M  V30 2930 C 280.61 -1.96173 -0.468921 0
M  V30 2931 C 280.923 -1.06401 -1.64128 0
M  V30 2932 O 282.129 -1.35648 -2.35185 0
M  V30 2933 C 280.585 -3.48833 -0.885633 0
M  V30 2934 C 280.193 -4.47237 0.261343 0
M  V30 2935 C 281.937 -3.97194 -1.49791 0
M  V30 2936 C 279.844 -5.9114 -0.175214 0
M  V30 2937 H 278.774 -0.732455 -0.178958 0
M  V30 2938 H 281.425 -1.81591 0.263997 0
M  V30 2939 H 279.807 -3.58848 -1.67464 0
M  V30 2940 H 280.981 -4.4894 1.03871 0
M  V30 2941 H 279.296 -4.08956 0.783827 0
M  V30 2942 H 281.893 -5.02167 -1.83665 0
M  V30 2943 H 282.236 -3.40351 -2.39722 0
M  V30 2944 H 282.769 -3.90212 -0.773267 0
M  V30 2945 H 279.508 -6.51865 0.689414 0
M  V30 2946 H 279.028 -5.92735 -0.91786 0
M  V30 2947 H 280.707 -6.44044 -0.617792 0
M  V30 2948 N 280.839 0.0985539 -1.57292 0
M  V30 2949 C 281.769 1.12064 -2.04851 0
M  V30 2950 C 282.75 1.41981 -0.936767 0
M  V30 2951 O 283.935 1.52071 -1.20781 0
M  V30 2952 C 281.065 2.44144 -2.47004 0
M  V30 2953 C 280.019 2.28643 -3.6181 0
M  V30 2954 C 279.345 3.65869 -3.89929 0
M  V30 2955 C 280.645 1.72986 -4.92822 0
M  V30 2956 H 282.339 0.724979 -2.9049 0
M  V30 2957 H 279.885 0.34729 -1.39749 0
M  V30 2958 H 281.838 3.15914 -2.78884 0
M  V30 2959 H 280.562 2.85639 -1.5836 0
M  V30 2960 H 279.221 1.59318 -3.30172 0
M  V30 2961 H 278.869 4.04885 -2.98458 0
M  V30 2962 H 278.569 3.56344 -4.67218 0
M  V30 2963 H 280.093 4.39112 -4.2428 0
M  V30 2964 H 281.507 2.34593 -5.23105 0
M  V30 2965 H 279.904 1.74229 -5.74251 0
M  V30 2966 H 280.974 0.689007 -4.7998 0
M  V30 2967 N 282.317 1.53212 0.369288 0
M  V30 2968 C 283.25 1.74166 1.4745 0
M  V30 2969 C 284.228 0.589923 1.51521 0
M  V30 2970 O 285.412 0.822078 1.69629 0
M  V30 2971 C 282.539 1.81711 2.8583 0
M  V30 2972 C 281.585 3.03649 2.99499 0
M  V30 2973 S 282.418 4.63242 2.6864 0
M  V30 2974 C 283.574 4.7363 4.09177 0
M  V30 2975 H 283.807 2.67636 1.29454 0
M  V30 2976 H 281.34 1.43754 0.563396 0
M  V30 2977 H 283.298 1.86743 3.65564 0
M  V30 2978 H 281.959 0.89299 3.01139 0
M  V30 2979 H 281.152 3.05526 4.00836 0
M  V30 2980 H 280.754 2.9671 2.27683 0
M  V30 2981 H 283.046 4.53456 5.03372 0
M  V30 2982 H 283.989 5.75682 4.12306 0
M  V30 2983 H 284.397 4.02295 3.96004 0
M  V30 2984 N 283.795 -0.628877 1.44509 0
M  V30 2985 C 285.206 -1.21054 1.42137 0
M  V30 2986 C 285.557 -1.95715 0.137881 0
M  V30 2987 O 284.682 -2.02554 -0.761645 0
M  V30 2988 C 285.277 -2.20189 2.57493 0
M  V30 2989 C 283.836 -2.73777 2.58308 0
M  V30 2990 C 282.983 -1.48813 2.33987 0
M  V30 2991 H 285.934 -0.41942 1.53057 0
M  V30 2992 H 285.955 -3.02833 2.30375 0
M  V30 2993 H 285.467 -1.6582 3.50892 0
M  V30 2994 H 283.568 -3.32142 1.68856 0
M  V30 2995 H 283.681 -3.19662 3.56865 0
M  V30 2996 H 282.045 -1.77024 1.83124 0
M  V30 2997 H 282.828 -0.963442 3.29504 0
M  V30 2998 N 285.273 -1.31445 -0.869486 0
M  V30 2999 C 286.183 -1.21097 -2.0093 0
M  V30 3000 C 287.199 -0.127584 -1.73532 0
M  V30 3001 O 288.375 -0.345477 -1.98415 0
M  V30 3002 C 285.44 -0.919378 -3.34288 0
M  V30 3003 C 284.501 -2.08971 -3.75006 0
M  V30 3004 C 283.734 -1.81194 -5.02001 0
M  V30 3005 O 283.957 -0.747296 -5.65484 0
M  V30 3006 O 282.891 -2.66883 -5.39497 0
M  V30 3007 H 286.717 -2.16883 -2.12592 0
M  V30 3008 H 284.302 -1.11189 -0.997868 0
M  V30 3009 H 286.184 -0.772625 -4.14257 0
M  V30 3010 H 284.859 0.00844772 -3.23699 0
M  V30 3011 H 283.766 -2.29187 -2.95676 0
M  V30 3012 H 285.099 -2.9998 -3.90221 0
M  V30 3013 N 286.751 1.08385 -1.14413 0
M  V30 3014 C 288.162 1.62258 -0.923535 0
M  V30 3015 C 288.513 1.88691 0.537595 0
M  V30 3016 O 287.638 1.64454 1.40655 0
M  V30 3017 C 288.233 2.94781 -1.67002 0
M  V30 3018 C 286.792 3.45437 -1.495 0
M  V30 3019 C 285.939 2.19668 -1.69238 0
M  V30 3020 H 288.89 0.916086 -1.2959 0
M  V30 3021 H 288.911 3.63229 -1.13334 0
M  V30 3022 H 288.423 2.7551 -2.73342 0
M  V30 3023 H 286.524 3.6981 -0.455097 0
M  V30 3024 H 286.637 4.22173 -2.2651 0
M  V30 3025 H 285.001 2.28849 -1.11804 0
M  V30 3026 H 285.784 2.02905 -2.7692 0
M  V30 3027 N 288.23 0.939286 1.26551 0
M  V30 3028 C 289.507 0.5038 1.89001 0
M  V30 3029 C 289.887 -1.01854 1.84903 0
M  V30 3030 O 289.235 -1.87773 1.30206 0
M  V30 3031 C 289.445 1.063 3.32417 0
M  V30 3032 C 290.793 1.13051 4.09273 0
M  V30 3033 O 291.817 1.01345 3.41479 0
M  V30 3034 O 290.676 1.31233 5.30509 0
M  V30 3035 H 287.77 0.163897 0.810597 0
M  V30 3036 H 290.316 1.03173 1.34735 0
M  V30 3037 H 289.088 2.10665 3.29752 0
M  V30 3038 H 288.711 0.517408 3.94219 0
M  V30 3039 N 289.708 -1.40897 0.706093 0
M  V30 3040 C 291.124 -1.55042 0.37869 0
M  V30 3041 C 291.324 -1.67944 -1.11342 0
M  V30 3042 O 290.38 -1.66372 -1.89938 0
M  V30 3043 C 291.693 -2.78398 1.13643 0
M  V30 3044 C 293.241 -2.92206 1.12181 0
M  V30 3045 C 293.716 -4.18463 1.86152 0
M  V30 3046 N 295.207 -4.25443 1.83173 0
M  V30 3047 C 295.942 -5.2202 2.37239 0
M  V30 3048 N 295.438 -6.24563 2.99821 0
M  V30 3049 N 297.231 -5.14033 2.27435 0
M  V30 3050 H 289.382 -1.30769 1.67372 0
M  V30 3051 H 291.645 -0.631653 0.706907 0
M  V30 3052 H 291.351 -2.7511 2.19106 0
M  V30 3053 H 291.225 -3.70228 0.721853 0
M  V30 3054 H 293.612 -2.95004 0.0754171 0
M  V30 3055 H 293.693 -2.01521 1.57554 0
M  V30 3056 H 293.337 -4.16427 2.90776 0
M  V30 3057 H 293.267 -5.08141 1.38206 0
M  V30 3058 H 295.758 -3.51976 1.37556 0
M  V30 3059 H 296.071 -6.94665 3.38616 0
M  V30 3060 H 294.416 -6.25035 3.03902 0
M  V30 3061 H 297.607 -4.3285 1.78208 0
M  V30 3062 H 297.78 -5.89129 2.69873 0
M  V30 3063 N 291.186 -0.45159 -1.50991 0
M  V30 3064 C 292.411 0.110667 -2.07105 0
M  V30 3065 C 292.836 1.3446 -1.31538 0
M  V30 3066 O 292.194 1.77743 -0.357365 0
M  V30 3067 C 292.242 0.397238 -3.58405 0
M  V30 3068 O 291.346 1.48124 -3.84881 0
M  V30 3069 H 290.687 -0.00439271 -0.663985 0
M  V30 3070 H 293.217 -0.637026 -1.9443 0
M  V30 3071 H 293.227 0.64351 -4.02893 0
M  V30 3072 H 291.902 -0.504553 -4.12828 0
M  V30 3073 H 290.479 1.22381 -3.52246 0
M  V30 3074 N 292.664 1.56529 -0.183458 0
M  V30 3075 C 294.08 1.58664 0.172554 0
M  V30 3076 C 294.28 1.19925 1.61926 0
M  V30 3077 O 293.336 0.916534 2.35278 0
M  V30 3078 C 294.649 3.00463 -0.119262 0
M  V30 3079 C 296.197 3.12945 -0.0584396 0
M  V30 3080 C 296.672 4.56857 -0.323408 0
M  V30 3081 N 298.163 4.62403 -0.271612 0
M  V30 3082 C 298.898 5.71626 -0.450639 0
M  V30 3083 N 298.394 6.89362 -0.689384 0
M  V30 3084 N 300.187 5.60775 -0.385701 0
M  V30 3085 H 292.338 1.79994 -1.12765 0
M  V30 3086 H 294.601 0.834808 -0.449222 0
M  V30 3087 H 294.307 3.33326 -1.12192 0
M  V30 3088 H 294.181 3.72659 0.583544 0
M  V30 3089 H 296.568 2.79902 0.934805 0
M  V30 3090 H 296.649 2.4316 -0.794144 0
M  V30 3091 H 296.293 4.9061 -1.31392 0
M  V30 3092 H 296.223 5.24816 0.43305 0
M  V30 3093 H 298.714 3.77785 -0.0932256 0
M  V30 3094 H 299.027 7.68489 -0.815113 0
M  V30 3095 H 297.372 6.91196 -0.726142 0
M  V30 3096 H 300.563 4.67674 -0.199687 0
M  V30 3097 H 300.736 6.4584 -0.528646 0
M  V30 3098 N 294.142 -0.090211 1.57342 0
M  V30 3099 C 295.092 -1.11557 1.98844 0
M  V30 3100 C 296.076 -1.35503 0.867624 0
M  V30 3101 O 297.268 -1.36113 1.13148 0
M  V30 3102 C 294.397 -2.43446 2.42051 0
M  V30 3103 C 293.483 -2.22853 3.60828 0
M  V30 3104 N 293.874 -1.72141 4.75606 0
M  V30 3105 C 292.172 -2.53401 3.67021 0
M  V30 3106 C 292.873 -1.65932 5.57531 0
M  V30 3107 N 291.849 -2.11323 5.00843 0
M  V30 3108 H 295.651 -0.716499 2.85032 0
M  V30 3109 H 293.165 -0.297567 1.59651 0
M  V30 3110 H 295.162 -3.17644 2.70014 0
M  V30 3111 H 293.822 -2.84087 1.57241 0
M  V30 3112 H 294.833 -1.41268 4.98261 0
M  V30 3113 H 291.51 -2.97532 2.92884 0
M  V30 3114 H 292.9 -1.27733 6.59647 0
M  V30 3115 N 295.62 -1.53406 -0.361157 0
M  V30 3116 C 296.897 -1.60411 -1.11927 0
M  V30 3117 C 297.277 -0.414385 -2.06993 0
M  V30 3118 O 296.625 0.594976 -2.20618 0
M  V30 3119 C 296.835 -2.95652 -1.85448 0
M  V30 3120 C 298.183 -3.50386 -2.39823 0
M  V30 3121 O 299.207 -2.97711 -1.95568 0
M  V30 3122 O 298.066 -4.42482 -3.20737 0
M  V30 3123 H 295.16 -0.64811 -0.513695 0
M  V30 3124 H 297.706 -1.65749 -0.364065 0
M  V30 3125 H 296.478 -3.73682 -1.16091 0
M  V30 3126 H 296.101 -2.93825 -2.67866 0
M  V30 3127 N 297.098 0.621204 -1.44841 0
M  V30 3128 C 298.323 1.41244 -1.51871 0
M  V30 3129 C 298.748 1.87519 -0.147764 0
M  V30 3130 O 298.106 1.59334 0.865 0
M  V30 3131 C 298.154 2.60221 -2.49634 0
M  V30 3132 O 297.258 3.60395 -2.00473 0
M  V30 3133 H 296.599 0.42223 -0.512463 0
M  V30 3134 H 299.129 0.757305 -1.90069 0
M  V30 3135 H 299.139 3.0764 -2.67996 0
M  V30 3136 H 297.814 2.25887 -3.4921 0
M  V30 3137 H 296.391 3.19717 -1.91925 0
M  V30 3138 N 298.576 1.31904 0.862503 0
M  V30 3139 C 299.806 1.24817 1.64634 0
M  V30 3140 C 300.214 -0.187579 1.88268 0
M  V30 3141 O 299.557 -1.13253 1.44635 0
M  V30 3142 C 299.619 1.92996 3.03303 0
M  V30 3143 C 299.283 3.42336 3.02746 0
M  V30 3144 C 300.28 4.37956 2.80162 0
M  V30 3145 C 297.965 3.84147 3.2363 0
M  V30 3146 C 299.959 5.73361 2.78453 0
M  V30 3147 C 297.646 5.19663 3.21549 0
M  V30 3148 C 298.644 6.14081 2.98988 0
M  V30 3149 O 298.332 7.47118 2.96766 0
M  V30 3150 H 298.064 0.432222 0.519769 0
M  V30 3151 H 300.618 1.7445 1.08427 0
M  V30 3152 H 298.848 1.37922 3.61268 0
M  V30 3153 H 300.537 1.79723 3.63943 0
M  V30 3154 H 301.303 4.06981 2.63802 0
M  V30 3155 H 297.182 3.11083 3.40218 0
M  V30 3156 H 300.726 6.4703 2.60763 0
M  V30 3157 H 296.623 5.5027 3.37451 0
M  V30 3158 H 297.391 7.56382 3.12775 0
M  V30 3159 N 300.054 -1.07777 1.14986 0
M  V30 3160 C 301.303 -1.79669 0.916617 0
M  V30 3161 C 301.616 -1.87474 -0.557917 0
M  V30 3162 O 302.822 -2.55845 -0.908617 0
M  V30 3163 C 301.278 -3.22848 1.59051 0
M  V30 3164 C 300.886 -3.23257 3.10176 0
M  V30 3165 C 302.63 -3.99379 1.43864 0
M  V30 3166 C 300.537 -4.61063 3.70372 0
M  V30 3167 H 299.467 -0.673349 0.33929 0
M  V30 3168 H 302.118 -1.21003 1.37951 0
M  V30 3169 H 300.5 -3.8168 1.0553 0
M  V30 3170 H 301.674 -2.74095 3.70417 0
M  V30 3171 H 299.989 -2.60222 3.25074 0
M  V30 3172 H 302.586 -5.0122 1.86232 0
M  V30 3173 H 302.929 -4.14511 0.385564 0
M  V30 3174 H 303.462 -3.47032 1.94457 0
M  V30 3175 H 300.201 -4.51135 4.7556 0
M  V30 3176 H 299.721 -5.1048 3.14913 0
M  V30 3177 H 301.4 -5.30034 3.71043 0
M  V30 3178 N 301.532 -0.945985 -1.26051 0
M  V30 3179 C 302.757 -0.612525 -1.98149 0
M  V30 3180 C 303.182 0.806623 -1.69927 0
M  V30 3181 O 302.54 1.54411 -0.950108 0
M  V30 3182 C 302.588 -0.866981 -3.50023 0
M  V30 3183 O 301.692 0.0585333 -4.12358 0
M  V30 3184 H 301.033 -0.23379 -0.621481 0
M  V30 3185 H 303.563 -1.27023 -1.60395 0
M  V30 3186 H 303.573 -0.789792 -4.00283 0
M  V30 3187 H 302.248 -1.90135 -3.69894 0
M  V30 3188 H 300.825 -0.0701241 -3.72834 0
M  V30 3189 N 303.011 1.40521 -0.713556 0
M  V30 3190 C 304.427 1.54839 -0.386907 0
M  V30 3191 C 304.627 1.68532 1.1045 0
M  V30 3192 O 303.683 1.67377 1.89053 0
M  V30 3193 C 304.996 2.77792 -1.15118 0
M  V30 3194 C 306.544 2.91607 -1.13729 0
M  V30 3195 C 307.019 4.1747 -1.88368 0
M  V30 3196 N 308.51 4.24466 -1.85427 0
M  V30 3197 C 309.245 5.20755 -2.40004 0
M  V30 3198 N 308.741 6.22965 -3.03129 0
M  V30 3199 N 310.534 5.1282 -2.30158 0
M  V30 3200 H 302.685 1.29879 -1.68063 0
M  V30 3201 H 304.948 0.627896 -0.710247 0
M  V30 3202 H 304.654 2.73944 -2.20561 0
M  V30 3203 H 304.528 3.6984 -0.741477 0
M  V30 3204 H 306.915 2.94959 -0.0910608 0
M  V30 3205 H 306.996 2.00682 -1.5862 0
M  V30 3206 H 306.64 4.1488 -2.9298 0
M  V30 3207 H 306.57 5.074 -1.40898 0
M  V30 3208 H 309.061 3.51241 -1.3942 0
M  V30 3209 H 309.374 6.92859 -3.42295 0
M  V30 3210 H 307.719 6.23415 -3.07212 0
M  V30 3211 H 310.91 4.31899 -1.80501 0
M  V30 3212 H 311.083 5.87689 -2.72993 0
M  V30 3213 N 304.489 0.459591 1.5075 0
M  V30 3214 C 305.719 -0.0972338 2.06371 0
M  V30 3215 C 306.127 -1.35074 1.32483 0
M  V30 3216 O 305.47 -1.79637 0.384226 0
M  V30 3217 C 305.532 -0.462759 3.56509 0
M  V30 3218 C 305.196 0.687084 4.51805 0
M  V30 3219 C 306.193 1.56578 4.95761 0
M  V30 3220 C 303.878 0.874144 4.94635 0
M  V30 3221 C 305.872 2.61604 5.81242 0
M  V30 3222 C 303.559 1.92765 5.79901 0
M  V30 3223 C 304.557 2.79697 6.23104 0
M  V30 3224 O 304.245 3.83235 7.06673 0
M  V30 3225 H 303.977 -0.00140687 0.675999 0
M  V30 3226 H 306.531 0.644011 1.95043 0
M  V30 3227 H 304.761 -1.25703 3.65699 0
M  V30 3228 H 306.45 -0.953323 3.94546 0
M  V30 3229 H 307.216 1.4329 4.6335 0
M  V30 3230 H 303.095 0.207006 4.60535 0
M  V30 3231 H 306.639 3.29489 6.14884 0
M  V30 3232 H 302.536 2.06064 6.11725 0
M  V30 3233 H 303.304 3.80084 7.24899 0
M  V30 3234 N 305.967 -1.56429 0.191757 0
M  V30 3235 C 307.383 -1.58754 -0.164137 0
M  V30 3236 C 307.583 -1.20782 -1.61288 0
M  V30 3237 O 306.639 -0.928999 -2.34789 0
M  V30 3238 C 307.952 -3.00396 0.135195 0
M  V30 3239 C 309.5 -3.1291 0.0750351 0
M  V30 3240 C 309.975 -4.56679 0.347632 0
M  V30 3241 N 311.466 -4.62252 0.296131 0
M  V30 3242 C 312.201 -5.71379 0.480948 0
M  V30 3243 N 311.697 -6.88986 0.725933 0
M  V30 3244 N 313.49 -5.60563 0.415435 0
M  V30 3245 H 305.641 -1.79393 1.13718 0
M  V30 3246 H 307.904 -0.832414 0.453643 0
M  V30 3247 H 307.61 -3.32726 1.13958 0
M  V30 3248 H 307.484 -3.72963 -0.563773 0
M  V30 3249 H 309.871 -2.80394 -0.919948 0
M  V30 3250 H 309.952 -2.42736 0.807029 0
M  V30 3251 H 309.596 -4.89907 1.33992 0
M  V30 3252 H 309.526 -5.25039 -0.405212 0
M  V30 3253 H 312.017 -3.7773 0.113259 0
M  V30 3254 H 312.33 -7.68046 0.855857 0
M  V30 3255 H 310.675 -6.90801 0.762788 0
M  V30 3256 H 313.866 -4.67561 0.224486 0
M  V30 3257 H 314.039 -6.45551 0.562889 0
M  V30 3258 N 307.445 0.0818655 -1.57387 0
M  V30 3259 C 308.673 0.796108 -1.9097 0
M  V30 3260 C 309.088 1.71626 -0.786757 0
M  V30 3261 O 308.445 1.80908 0.240513 0
M  V30 3262 C 308.496 1.59829 -3.24248 0
M  V30 3263 O 308.217 0.715131 -4.32224 0
M  V30 3264 C 309.718 2.41442 -3.7178 0
M  V30 3265 H 306.938 0.22691 -0.631469 0
M  V30 3266 H 309.482 0.0551439 -2.04426 0
M  V30 3267 H 307.637 2.29163 -3.12351 0
M  V30 3268 H 308.051 1.27205 -5.08841 0
M  V30 3269 H 309.525 2.932 -4.67694 0
M  V30 3270 H 310.002 3.2051 -3.00283 0
M  V30 3271 H 310.608 1.77283 -3.86589 0
M  V30 3272 N 308.923 1.53595 0.353017 0
M  V30 3273 C 310.151 1.74311 1.1146 0
M  V30 3274 C 310.566 0.477854 1.82653 0
M  V30 3275 O 309.923 -0.549977 1.74016 0
M  V30 3276 C 309.974 2.91694 2.13534 0
M  V30 3277 O 309.695 4.13325 1.45238 0
M  V30 3278 C 311.196 3.24384 3.02142 0
M  V30 3279 H 308.416 0.582669 0.332773 0
M  V30 3280 H 310.96 2.00386 0.408107 0
M  V30 3281 H 309.115 2.67977 2.79763 0
M  V30 3282 H 309.529 4.79148 2.13349 0
M  V30 3283 H 311.003 4.09893 3.69718 0
M  V30 3284 H 311.48 2.40282 3.67643 0
M  V30 3285 H 312.086 3.50073 2.41514 0
M  V30 3286 N 310.401 -0.613514 1.45168 0
M  V30 3287 C 311.626 -1.40437 1.52618 0
M  V30 3288 C 312.051 -1.87438 0.157707 0
M  V30 3289 O 311.409 -1.59791 -0.856537 0
M  V30 3290 C 311.457 -2.58894 2.51011 0
M  V30 3291 O 310.561 -3.59326 2.02382 0
M  V30 3292 H 309.902 -0.419506 0.514695 0
M  V30 3293 H 312.432 -0.747215 1.90467 0
M  V30 3294 H 312.442 -3.06214 2.69624 0
M  V30 3295 H 311.117 -2.24032 3.50403 0
M  V30 3296 H 309.694 -3.18695 1.93618 0
M  V30 3297 N 311.879 -1.3236 -0.855495 0
M  V30 3298 C 313.156 -1.13491 -1.59309 0
M  V30 3299 C 313.536 0.30503 -2.08885 0
M  V30 3300 O 312.884 1.30151 -1.87811 0
M  V30 3301 C 313.094 -2.16176 -2.73987 0
M  V30 3302 C 314.442 -2.49463 -3.43589 0
M  V30 3303 O 315.466 -2.14715 -2.84211 0
M  V30 3304 O 314.325 -3.09027 -4.50738 0
M  V30 3305 H 311.419 -0.437887 -0.701559 0
M  V30 3306 H 313.965 -1.43887 -0.899696 0
M  V30 3307 H 312.737 -3.1297 -2.34873 0
M  V30 3308 H 312.36 -1.86769 -3.51003 0
M  V30 3309 N 313.357 1.07166 -1.15556 0
M  V30 3310 C 314.768 1.6127 -0.940693 0
M  V30 3311 C 315.119 1.89251 0.517551 0
M  V30 3312 O 314.244 1.65937 1.38903 0
M  V30 3313 C 314.839 2.92993 -1.7012 0
M  V30 3314 C 313.398 3.43832 -1.53156 0
M  V30 3315 C 312.545 2.1786 -1.71558 0
M  V30 3316 H 315.496 0.90229 -1.30554 0
M  V30 3317 H 315.517 3.62007 -1.17181 0
M  V30 3318 H 315.029 2.72596 -2.76248 0
M  V30 3319 H 313.13 3.69307 -0.494294 0
M  V30 3320 H 313.243 4.19747 -2.30975 0
M  V30 3321 H 311.607 2.2765 -1.14225 0
M  V30 3322 H 312.39 1.99956 -2.79056 0
M  V30 3323 N 314.835 0.952656 1.25548 0
M  V30 3324 C 315.785 0.442033 2.23674 0
M  V30 3325 C 316.769 -0.467632 1.53955 0
M  V30 3326 O 317.961 -0.301006 1.74422 0
M  V30 3327 C 315.09 -0.280816 3.4215 0
M  V30 3328 C 314.176 0.646803 4.19139 0
M  V30 3329 N 314.567 1.77759 4.73535 0
M  V30 3330 C 312.865 0.454617 4.43677 0
M  V30 3331 C 313.566 2.35658 5.31827 0
M  V30 3332 N 312.542 1.64333 5.18166 0
M  V30 3333 H 316.344 1.30505 2.63336 0
M  V30 3334 H 313.858 0.809904 1.40763 0
M  V30 3335 H 315.855 -0.663747 4.11582 0
M  V30 3336 H 314.515 -1.14046 3.04012 0
M  V30 3337 H 315.526 2.15949 4.7073 0
M  V30 3338 H 312.203 -0.362312 4.15925 0
M  V30 3339 H 313.593 3.30998 5.84713 0
M  V30 3340 N 316.313 -1.40141 0.720998 0
M  V30 3341 C 317.562 -2.0002 0.259804 0
M  V30 3342 C 317.875 -1.57839 -1.15526 0
M  V30 3343 O 319.081 -2.10455 -1.71525 0
M  V30 3344 C 317.537 -3.57516 0.413566 0
M  V30 3345 C 317.145 -4.08667 1.83562 0
M  V30 3346 C 318.889 -4.24498 0.0134387 0
M  V30 3347 C 316.796 -5.58686 1.93968 0
M  V30 3348 H 315.726 -0.748195 0.0933806 0
M  V30 3349 H 318.377 -1.60313 0.892866 0
M  V30 3350 H 316.759 -3.9495 -0.288169 0
M  V30 3351 H 317.933 -3.82598 2.56817 0
M  V30 3352 H 316.248 -3.543 2.1877 0
M  V30 3353 H 318.845 -5.34654 0.0703954 0
M  V30 3354 H 319.188 -4.03375 -1.02927 0
M  V30 3355 H 319.721 -3.92188 0.665815 0
M  V30 3356 H 316.46 -5.8467 2.96379 0
M  V30 3357 H 315.98 -5.86602 1.25131 0
M  V30 3358 H 317.659 -6.23875 1.71431 0
M  V30 3359 N 317.792 -0.46758 -1.50504 0
M  V30 3360 C 319.041 0.0902868 -2.01498 0
M  V30 3361 C 319.354 1.411 -1.35463 0
M  V30 3362 O 320.56 2.0536 -1.77594 0
M  V30 3363 C 319.016 0.21142 -3.59278 0
M  V30 3364 C 318.624 -1.10065 -4.34269 0
M  V30 3365 C 320.368 0.721433 -4.18325 0
M  V30 3366 C 318.275 -0.943505 -5.83825 0
M  V30 3367 H 317.205 0.037517 -0.753066 0
M  V30 3368 H 319.856 -0.601943 -1.73346 0
M  V30 3369 H 318.238 0.967352 -3.84003 0
M  V30 3370 H 319.412 -1.86726 -4.21272 0
M  V30 3371 H 317.727 -1.5415 -3.86816 0
M  V30 3372 H 320.324 0.85598 -5.27804 0
M  V30 3373 H 320.667 1.71186 -3.79475 0
M  V30 3374 H 321.2 0.0229843 -3.97793 0
M  V30 3375 H 317.939 -1.90719 -6.27141 0
M  V30 3376 H 317.459 -0.217213 -5.99407 0
M  V30 3377 H 319.138 -0.608715 -6.4413 0
M  V30 3378 N 319.27 1.56325 -0.20005 0
M  V30 3379 C 320.518 1.97329 0.436547 0
M  V30 3380 C 320.839 1.08826 1.61808 0
M  V30 3381 O 320.109 0.160604 1.95241 0
M  V30 3382 H 318.689 0.728714 0.164272 0
M  V30 3383 H 321.351 1.92761 -0.287937 0
M  V30 3384 H 320.447 3.02264 0.777353 0
M  V30 3385 N 320.748 -0.0735177 1.57428 0
M  V30 3386 C 321.997 -0.771809 1.86349 0
M  V30 3387 C 322.31 -1.78828 0.792452 0
M  V30 3388 O 323.516 -2.53602 0.96945 0
M  V30 3389 C 321.972 -1.42358 3.30548 0
M  V30 3390 C 321.58 -0.445761 4.45777 0
M  V30 3391 C 323.324 -2.10434 3.6867 0
M  V30 3392 C 321.231 -1.10335 5.81016 0
M  V30 3393 H 320.161 -0.291999 0.695164 0
M  V30 3394 H 322.812 -0.0250749 1.83483 0
M  V30 3395 H 321.194 -2.21852 3.28021 0
M  V30 3396 H 322.368 0.319239 4.59693 0
M  V30 3397 H 320.683 0.130457 4.16196 0
M  V30 3398 H 323.28 -2.60405 4.67004 0
M  V30 3399 H 323.623 -2.90298 2.98383 0
M  V30 3400 H 324.156 -1.37773 3.7318 0
M  V30 3401 H 320.895 -0.345061 6.54591 0
M  V30 3402 H 320.415 -1.83925 5.70904 0
M  V30 3403 H 322.094 -1.62367 6.26295 0
M  V30 3404 N 322.226 -1.5378 -0.344866 0
M  V30 3405 C 323.474 -1.70625 -1.08311 0
M  V30 3406 C 323.795 -0.471447 -1.89215 0
M  V30 3407 O 323.065 0.514616 -1.8902 0
M  V30 3408 H 321.645 -0.629058 -0.402859 0
M  V30 3409 H 324.307 -1.9103 -0.386459 0
M  V30 3410 H 323.403 -2.57656 -1.76124 0
M  V30 3411 N 323.704 0.605807 -1.45491 0
M  V30 3412 C 325.12 0.926751 -1.29936 0
M  V30 3413 C 325.32 1.99896 -0.253706 0
M  V30 3414 O 324.376 2.50038 0.351737 0
M  V30 3415 C 325.689 1.36599 -2.67883 0
M  V30 3416 C 327.237 1.4801 -2.75793 0
M  V30 3417 C 327.712 1.95309 -4.14268 0
M  V30 3418 N 329.203 2.0254 -4.16571 0
M  V30 3419 C 329.938 2.40363 -5.20589 0
M  V30 3420 N 329.434 2.77143 -6.34952 0
M  V30 3421 N 331.227 2.40718 -5.07948 0
M  V30 3422 H 323.378 -0.102862 -2.12151 0
M  V30 3423 H 325.641 0.016639 -0.947854 0
M  V30 3424 H 325.347 0.652306 -3.45598 0
M  V30 3425 H 325.221 2.33215 -2.96463 0
M  V30 3426 H 327.608 2.1847 -1.98381 0
M  V30 3427 H 327.689 0.497041 -2.50925 0
M  V30 3428 H 327.333 1.25436 -4.92167 0
M  V30 3429 H 327.263 2.94532 -4.3653 0
M  V30 3430 H 329.754 1.76699 -3.34045 0
M  V30 3431 H 330.067 3.0489 -7.10114 0
M  V30 3432 H 328.412 2.74834 -6.3835 0
M  V30 3433 H 331.603 2.11392 -4.1765 0
M  V30 3434 H 331.776 2.69869 -5.89131 0
M  V30 3435 N 325.182 1.32811 0.848464 0
M  V30 3436 C 326.431 1.23075 1.59798 0
M  V30 3437 C 326.744 -0.204419 1.94529 0
M  V30 3438 O 327.95 -0.423701 2.68173 0
M  V30 3439 C 326.406 2.15594 2.88179 0
M  V30 3440 C 326.014 3.64228 2.60849 0
M  V30 3441 C 327.758 2.14709 3.66197 0
M  V30 3442 C 325.665 4.48689 3.85269 0
M  V30 3443 H 324.595 0.457091 0.599653 0
M  V30 3444 H 327.246 1.57813 0.936342 0
M  V30 3445 H 325.628 1.73778 3.55833 0
M  V30 3446 H 326.802 4.14424 2.01467 0
M  V30 3447 H 325.117 3.67306 1.96151 0
M  V30 3448 H 327.714 2.75046 4.58534 0
M  V30 3449 H 328.057 1.13966 4.00397 0
M  V30 3450 H 328.59 2.54837 3.05455 0
M  V30 3451 H 325.329 5.5027 3.56207 0
M  V30 3452 H 324.849 4.03241 4.44024 0
M  V30 3453 H 326.528 4.62006 4.52946 0
M  V30 3454 N 326.66 -1.06551 1.16123 0
M  V30 3455 C 327.906 -1.79567 0.94252 0
M  V30 3456 C 328.239 -1.86869 -0.528547 0
M  V30 3457 O 327.514 -1.35838 -1.39206 0
M  V30 3458 C 327.797 -3.24195 1.56747 0
M  V30 3459 C 327.65 -3.24989 3.10969 0
M  V30 3460 C 328.969 -4.21678 1.25998 0
M  V30 3461 H 326.088 -0.651883 0.343828 0
M  V30 3462 H 328.73 -1.2463 1.43413 0
M  V30 3463 H 326.88 -3.71107 1.14942 0
M  V30 3464 H 328.552 -2.86258 3.61737 0
M  V30 3465 H 326.795 -2.63716 3.44436 0
M  V30 3466 H 327.466 -4.27005 3.49815 0
M  V30 3467 H 329.942 -3.83196 1.62174 0
M  V30 3468 H 328.818 -5.21146 1.7233 0
M  V30 3469 H 329.079 -4.4174 0.178367 0
M  V30 3470 N 328.138 -0.959301 -1.25041 0
M  V30 3471 C 329.366 -0.633949 -1.96948 0
M  V30 3472 C 329.781 0.794916 -1.7125 0
M  V30 3473 O 329.138 1.53231 -0.991287 0
M  V30 3474 C 329.189 -0.888805 -3.50403 0
M  V30 3475 O 328.91 -2.26149 -3.75218 0
M  V30 3476 C 330.411 -0.576482 -4.39536 0
M  V30 3477 H 327.631 -0.237263 -0.627652 0
M  V30 3478 H 330.175 -1.28495 -1.59089 0
M  V30 3479 H 328.33 -0.284145 -3.86357 0
M  V30 3480 H 328.744 -2.33514 -4.6965 0
M  V30 3481 H 330.218 -0.805314 -5.46094 0
M  V30 3482 H 330.695 0.489075 -4.36468 0
M  V30 3483 H 331.301 -1.16067 -4.09156 0
M  V30 3484 N 329.616 1.39756 -0.72842 0
M  V30 3485 C 330.864 2.00248 -0.272946 0
M  V30 3486 C 331.185 1.58077 1.14178 0
M  V30 3487 O 330.455 0.826014 1.77634 0
M  V30 3488 H 329.035 0.740554 -0.0979247 0
M  V30 3489 H 331.697 1.70903 -0.936912 0
M  V30 3490 H 330.793 3.10495 -0.316142 0
M  V30 3491 N 331.094 0.475555 1.50254 0
M  V30 3492 C 332.041 -0.316293 2.28622 0
M  V30 3493 C 333.011 -0.983227 1.33873 0
M  V30 3494 O 334.196 -0.994805 1.62814 0
M  V30 3495 C 331.336 -1.38975 3.1588 0
M  V30 3496 C 330.449 -0.737146 4.25664 0
M  V30 3497 C 329.584 -1.78887 5.00173 0
M  V30 3498 C 328.623 -1.11676 6.01826 0
M  V30 3499 N 327.76 -2.11154 6.69596 0
M  V30 3500 H 332.6 0.358297 2.95838 0
M  V30 3501 H 330.137 0.188541 1.45887 0
M  V30 3502 H 332.095 -2.02383 3.64825 0
M  V30 3503 H 330.725 -2.03344 2.50701 0
M  V30 3504 H 329.777 0.0096065 3.80399 0
M  V30 3505 H 331.089 -0.206816 4.98371 0
M  V30 3506 H 330.243 -2.49865 5.52859 0
M  V30 3507 H 328.982 -2.35302 4.27182 0
M  V30 3508 H 327.987 -0.392633 5.48396 0
M  V30 3509 H 329.212 -0.55945 6.76792 0
M  V30 3510 H 327.158 -2.66577 5.99394 0
M  V30 3511 H 327.075 -1.63118 7.38193 0
M  V30 3512 H 328.343 -2.81497 7.26897 0
M  V30 3513 N 332.573 -1.56217 0.208337 0
M  V30 3514 C 333.989 -1.58919 -0.14729 0
M  V30 3515 C 334.189 -1.22486 -1.59998 0
M  V30 3516 O 333.245 -0.953849 -2.3379 0
M  V30 3517 C 334.558 -3.00236 0.167048 0
M  V30 3518 C 336.106 -3.12813 0.108219 0
M  V30 3519 C 336.581 -4.56284 0.396049 0
M  V30 3520 N 338.072 -4.61912 0.345142 0
M  V30 3521 C 338.807 -5.70837 0.541523 0
M  V30 3522 N 338.303 -6.88178 0.798968 0
M  V30 3523 N 340.096 -5.60091 0.474867 0
M  V30 3524 H 332.247 -1.78177 1.15614 0
M  V30 3525 H 334.51 -0.827555 0.462446 0
M  V30 3526 H 334.216 -3.31499 1.1748 0
M  V30 3527 H 334.09 -3.7354 -0.524184 0
M  V30 3528 H 336.477 -2.81354 -0.890157 0
M  V30 3529 H 336.558 -2.41866 0.832729 0
M  V30 3530 H 336.202 -4.88458 1.3918 0
M  V30 3531 H 336.132 -5.25439 -0.349502 0
M  V30 3532 H 338.623 -3.77589 0.153316 0
M  V30 3533 H 338.936 -7.67095 0.93727 0
M  V30 3534 H 337.281 -6.89953 0.836013 0
M  V30 3535 H 340.472 -4.67297 0.274064 0
M  V30 3536 H 340.645 -6.44917 0.631326 0
M  V30 3537 N 334.051 0.0651679 -1.57465 0
M  V30 3538 C 335.467 0.420105 -1.53972 0
M  V30 3539 C 335.667 1.78782 -0.929474 0
M  V30 3540 O 334.723 2.46771 -0.534839 0
M  V30 3541 C 336.036 0.355084 -2.98596 0
M  V30 3542 C 337.584 0.434792 -3.09965 0
M  V30 3543 C 338.059 0.399609 -4.56253 0
M  V30 3544 N 339.55 0.459488 -4.60915 0
M  V30 3545 C 340.285 0.454584 -5.71595 0
M  V30 3546 N 339.781 0.404102 -6.9162 0
M  V30 3547 N 341.574 0.501635 -5.59857 0
M  V30 3548 H 333.725 -0.830328 -1.95498 0
M  V30 3549 H 335.988 -0.312244 -0.895102 0
M  V30 3550 H 335.694 -0.583357 -3.46828 0
M  V30 3551 H 335.568 1.16275 -3.58831 0
M  V30 3552 H 337.955 1.36366 -2.61703 0
M  V30 3553 H 338.036 -0.40157 -2.52628 0
M  V30 3554 H 337.68 -0.525436 -5.05175 0
M  V30 3555 H 337.61 1.25359 -5.11461 0
M  V30 3556 H 340.101 0.502482 -3.74544 0
M  V30 3557 H 340.414 0.404468 -7.71741 0
M  V30 3558 H 338.759 0.37069 -6.94011 0
M  V30 3559 H 341.95 0.538812 -4.64989 0
M  V30 3560 H 342.123 0.494345 -6.46112 0
M  V30 3561 N 335.529 1.53961 0.336706 0
M  V30 3562 C 336.806 1.62171 1.09361 0
M  V30 3563 C 337.186 0.447263 2.06307 0
M  V30 3564 O 336.534 -0.559802 2.21537 0
M  V30 3565 C 336.744 2.98565 1.80721 0
M  V30 3566 C 338.092 3.54157 2.34218 0
M  V30 3567 O 339.116 3.00784 1.90807 0
M  V30 3568 O 337.975 4.47528 3.13657 0
M  V30 3569 H 335.069 0.6562 0.503319 0
M  V30 3570 H 337.615 1.66307 0.33765 0
M  V30 3571 H 336.387 3.75482 1.10132 0
M  V30 3572 H 336.01 2.9805 2.63158 0
M  V30 3573 N 337.007 -0.598083 1.45811 0
M  V30 3574 C 338.255 -1.35413 1.50026 0
M  V30 3575 C 338.576 -1.94444 0.147177 0
M  V30 3576 O 337.846 -1.77701 -0.824571 0
M  V30 3577 H 336.426 -0.502727 0.552517 0
M  V30 3578 H 339.088 -0.701606 1.81834 0
M  V30 3579 H 338.184 -2.16871 2.2444 0
M  V30 3580 N 338.485 -1.33259 -0.841409 0
M  V30 3581 C 339.713 -1.27605 -1.62864 0
M  V30 3582 C 340.128 0.153507 -1.88175 0
M  V30 3583 O 339.485 1.09485 -1.46011 0
M  V30 3584 C 339.536 -2.04596 -2.98031 0
M  V30 3585 O 339.257 -3.41975 -2.73834 0
M  V30 3586 C 340.758 -2.06122 -3.92465 0
M  V30 3587 H 337.978 -0.439718 -0.506842 0
M  V30 3588 H 340.522 -1.75591 -1.04824 0
M  V30 3589 H 338.677 -1.60299 -3.5268 0
M  V30 3590 H 339.091 -3.81549 -3.59889 0
M  V30 3591 H 340.565 -2.64451 -4.84531 0
M  V30 3592 H 341.042 -1.05083 -4.26444 0
M  V30 3593 H 341.648 -2.50427 -3.43753 0
M  V30 3594 N 339.963 1.05934 -1.16686 0
M  V30 3595 C 341.191 1.8249 -0.974929 0
M  V30 3596 C 341.606 1.82679 0.476861 0
M  V30 3597 O 340.963 1.2486 1.33103 0
M  V30 3598 C 341.014 3.28943 -1.49929 0
M  V30 3599 O 340.735 3.28886 -2.89423 0
M  V30 3600 C 342.236 4.22215 -1.35089 0
M  V30 3601 H 339.456 0.575295 -0.345365 0
M  V30 3602 H 342 1.33631 -1.548 0
M  V30 3603 H 340.155 3.751 -0.968423 0
M  V30 3604 H 340.569 4.20493 -3.13506 0
M  V30 3605 H 342.043 5.22987 -1.76603 0
M  V30 3606 H 342.52 4.38195 -0.296935 0
M  V30 3607 H 343.126 3.81907 -1.87155 0
M  V30 3608 N 341.441 0.965919 1.2453 0
M  V30 3609 C 342.688 0.626831 1.92554 0
M  V30 3610 C 343.016 -0.837739 1.75534 0
M  V30 3611 O 342.271 -1.61793 1.10098 0
M  V30 3612 C 342.57 0.945428 3.44669 0
M  V30 3613 C 342.236 2.39785 3.81856 0
M  V30 3614 C 340.898 2.79483 3.91718 0
M  V30 3615 C 343.25 3.34055 4.00071 0
M  V30 3616 C 340.578 4.12496 4.1721 0
M  V30 3617 C 342.93 4.66694 4.27059 0
M  V30 3618 C 341.594 5.06172 4.3514 0
M  V30 3619 H 340.864 0.229374 0.704605 0
M  V30 3620 H 343.511 1.21707 1.4785 0
M  V30 3621 H 341.816 0.272926 3.90848 0
M  V30 3622 H 343.513 0.661484 3.95507 0
M  V30 3623 H 340.103 2.08003 3.74743 0
M  V30 3624 H 344.287 3.04571 3.91855 0
M  V30 3625 H 339.543 4.42709 4.21685 0
M  V30 3626 H 343.717 5.3971 4.40097 0
M  V30 3627 H 341.344 6.09262 4.54646 0
M  V30 3628 N 342.919 -1.39368 0.735821 0
M  V30 3629 C 344.33 -1.83313 0.354015 0
M  V30 3630 C 344.681 -1.61461 -1.11466 0
M  V30 3631 O 343.806 -1.10621 -1.85989 0
M  V30 3632 C 344.401 -3.32781 0.635769 0
M  V30 3633 C 342.96 -3.75142 0.307448 0
M  V30 3634 C 342.107 -2.62358 0.897974 0
M  V30 3635 H 345.058 -1.28349 0.933398 0
M  V30 3636 H 345.079 -3.80388 -0.0921773 0
M  V30 3637 H 344.591 -3.48654 1.70476 0
M  V30 3638 H 342.692 -3.64857 -0.755674 0
M  V30 3639 H 342.805 -4.72532 0.790583 0
M  V30 3640 H 341.169 -2.52624 0.324551 0
M  V30 3641 H 341.952 -2.81036 1.97164 0
M  V30 3642 N 344.397 -0.483516 -1.5 0
M  V30 3643 C 345.33 0.350427 -2.25493 0
M  V30 3644 C 346.308 0.985549 -1.29328 0
M  V30 3645 O 347.492 1.01906 -1.58579 0
M  V30 3646 C 344.619 1.49202 -3.04066 0
M  V30 3647 C 343.665 0.973036 -4.15252 0
M  V30 3648 S 344.498 -0.122237 -5.3536 0
M  V30 3649 C 345.654 1.02294 -6.17484 0
M  V30 3650 H 345.887 -0.290381 -2.95878 0
M  V30 3651 H 343.42 -0.268562 -1.52046 0
M  V30 3652 H 345.378 2.14623 -3.49925 0
M  V30 3653 H 344.039 2.10438 -2.33183 0
M  V30 3654 H 343.232 1.82804 -4.69679 0
M  V30 3655 H 342.834 0.396335 -3.71894 0
M  V30 3656 H 345.126 1.93195 -6.49371 0
M  V30 3657 H 346.069 0.517664 -7.06205 0
M  V30 3658 H 346.477 1.28238 -5.49741 0
M  V30 3659 N 345.875 1.56104 -0.216619 0
M  V30 3660 C 346.825 2.16703 0.708798 0
M  V30 3661 C 347.809 1.11392 1.16106 0
M  V30 3662 O 349.001 1.37395 1.11587 0
M  V30 3663 C 346.13 2.84666 1.91886 0
M  V30 3664 C 345.216 3.97195 1.48651 0
M  V30 3665 N 345.607 4.99959 0.766434 0
M  V30 3666 C 343.905 4.09193 1.77418 0
M  V30 3667 C 344.606 5.79126 0.546659 0
M  V30 3668 N 343.582 5.32315 1.10188 0
M  V30 3669 H 347.384 2.93516 0.150162 0
M  V30 3670 H 344.898 1.6239 -0.0176768 0
M  V30 3671 H 346.895 3.26486 2.59253 0
M  V30 3672 H 345.555 2.09347 2.48202 0
M  V30 3673 H 346.566 5.16197 0.419634 0
M  V30 3674 H 343.243 3.45021 2.35088 0
M  V30 3675 H 344.633 6.71895 -0.026103 0
M  V30 3676 N 347.353 -0.0568162 1.57498 0
M  V30 3677 C 348.283 -1.06593 2.0775 0
M  V30 3678 C 349.264 -1.39448 0.974082 0
M  V30 3679 O 350.449 -1.48815 1.24771 0
M  V30 3680 C 347.579 -2.37509 2.5339 0
M  V30 3681 C 346.533 -2.1897 3.67745 0
M  V30 3682 C 345.859 -3.55402 3.99492 0
M  V30 3683 C 347.159 -1.59859 4.97235 0
M  V30 3684 H 348.853 -0.647706 2.9231 0
M  V30 3685 H 346.399 -0.310116 1.40621 0
M  V30 3686 H 348.352 -3.08409 2.87162 0
M  V30 3687 H 347.076 -2.8134 1.65878 0
M  V30 3688 H 345.735 -1.50508 3.3428 0
M  V30 3689 H 345.383 -3.9683 3.09088 0
M  V30 3690 H 345.083 -3.43831 4.76502 0
M  V30 3691 H 346.607 -4.27708 4.35773 0
M  V30 3692 H 348.021 -2.20642 5.29141 0
M  V30 3693 H 346.418 -1.58942 5.78669 0
M  V30 3694 H 347.488 -0.561506 4.81638 0
M  V30 3695 N 348.832 -1.54138 -0.328536 0
M  V30 3696 C 350.057 -1.76378 -1.09112 0
M  V30 3697 C 350.482 -0.508596 -1.81094 0
M  V30 3698 O 349.84 0.539598 -1.73084 0
M  V30 3699 C 349.888 -2.95358 -2.06872 0
M  V30 3700 O 348.992 -2.66556 -3.14677 0
M  V30 3701 H 348.333 -0.584614 -0.314838 0
M  V30 3702 H 350.863 -2.01146 -0.374348 0
M  V30 3703 H 350.873 -3.22566 -2.4983 0
M  V30 3704 H 349.548 -3.86385 -1.5388 0
M  V30 3705 H 348.125 -2.50282 -2.7643 0
M  V30 3706 N 350.31 0.590341 -1.46126 0
M  V30 3707 C 351.559 1.34499 -1.50309 0
M  V30 3708 C 351.872 1.94977 -0.156021 0
M  V30 3709 O 353.078 2.71395 -0.0756037 0
M  V30 3710 C 351.534 2.43723 -2.64815 0
M  V30 3711 C 351.142 1.89582 -4.0591 0
M  V30 3712 C 352.886 3.20579 -2.78262 0
M  V30 3713 C 350.793 2.9639 -5.11769 0
M  V30 3714 H 349.723 0.505593 -0.559368 0
M  V30 3715 H 352.374 0.630848 -1.72315 0
M  V30 3716 H 350.756 3.17902 -2.36124 0
M  V30 3717 H 351.93 1.21997 -4.44357 0
M  V30 3718 H 350.245 1.25418 -3.97063 0
M  V30 3719 H 352.842 4.00276 -3.54519 0
M  V30 3720 H 353.185 3.72684 -1.85505 0
M  V30 3721 H 353.718 2.53505 -3.06562 0
M  V30 3722 H 350.457 2.49181 -6.06291 0
M  V30 3723 H 349.977 3.62487 -4.77873 0
M  V30 3724 H 351.656 3.60474 -5.37278 0
M  V30 3725 N 351.788 1.33704 0.83433 0
M  V30 3726 C 353.036 1.25169 1.58673 0
M  V30 3727 C 353.357 -0.18127 1.94156 0
M  V30 3728 O 352.627 -1.11113 1.6134 0
M  V30 3729 H 351.207 0.4603 0.58833 0
M  V30 3730 H 353.869 1.67478 0.996847 0
M  V30 3731 H 352.965 1.84856 2.51465 0
M  V30 3732 N 353.266 -1.05314 1.17247 0
M  V30 3733 C 354.176 -2.16538 0.90268 0
M  V30 3734 C 355.192 -1.73523 -0.128707 0
M  V30 3735 O 356.368 -2.01337 0.0502701 0
M  V30 3736 C 353.433 -3.44167 0.418356 0
M  V30 3737 C 352.494 -4.01635 1.51618 0
M  V30 3738 C 351.727 -5.23171 1.05487 0
M  V30 3739 O 351.95 -5.70327 -0.0914715 0
M  V30 3740 O 350.884 -5.72848 1.8474 0
M  V30 3741 H 354.71 -2.42145 1.83302 0
M  V30 3742 H 352.295 -1.15037 0.953246 0
M  V30 3743 H 354.177 -4.21112 0.155726 0
M  V30 3744 H 352.852 -3.20063 -0.48385 0
M  V30 3745 H 351.759 -3.26135 1.83268 0
M  V30 3746 H 353.092 -4.30053 2.39405 0
M  V30 3747 N 354.744 -0.972509 -1.24016 0
M  V30 3748 C 355.677 -0.45117 -2.23696 0
M  V30 3749 C 356.655 0.477378 -1.55434 0
M  V30 3750 O 357.839 0.407647 -1.84039 0
M  V30 3751 C 354.966 0.34818 -3.36906 0
M  V30 3752 C 354.012 -0.523355 -4.23277 0
M  V30 3753 S 354.845 -1.96647 -4.98087 0
M  V30 3754 C 356.001 -1.17604 -6.14752 0
M  V30 3755 H 356.234 -1.29588 -2.67571 0
M  V30 3756 H 353.767 -0.777903 -1.33372 0
M  V30 3757 H 355.725 0.803387 -4.02562 0
M  V30 3758 H 354.386 1.16792 -2.91579 0
M  V30 3759 H 353.579 0.0906181 -5.03919 0
M  V30 3760 H 353.181 -0.914485 -3.62647 0
M  V30 3761 H 355.473 -0.433434 -6.76112 0
M  V30 3762 H 356.416 -1.95701 -6.8052 0
M  V30 3763 H 356.824 -0.698295 -5.60164 0
M  V30 3764 N 356.222 1.38976 -0.743202 0
M  V30 3765 C 357.154 2.29096 -0.0689228 0
M  V30 3766 C 358.167 1.47229 0.694791 0
M  V30 3767 O 359.356 1.70212 0.537597 0
M  V30 3768 C 356.456 3.25988 0.926548 0
M  V30 3769 C 355.629 4.36833 0.222647 0
M  V30 3770 C 354.688 5.13981 1.12739 0
M  V30 3771 O 353.714 5.6601 0.601795 0
M  V30 3772 N 354.916 5.25966 2.45641 0
M  V30 3773 H 357.681 2.87604 -0.842846 0
M  V30 3774 H 355.242 1.50645 -0.593109 0
M  V30 3775 H 357.234 3.74476 1.5346 0
M  V30 3776 H 355.804 2.68453 1.60162 0
M  V30 3777 H 355.024 3.90116 -0.565983 0
M  V30 3778 H 356.312 5.0811 -0.264841 0
M  V30 3779 H 355.71 4.85228 2.9081 0
M  V30 3780 H 354.267 5.77865 3.01522 0
M  V30 3781 N 357.7 0.491464 1.49741 0
M  V30 3782 C 358.925 -0.0557177 2.07325 0
M  V30 3783 C 359.35 -1.30925 1.35056 0
M  V30 3784 O 358.708 -1.76733 0.404365 0
M  V30 3785 C 358.756 -0.302074 3.59333 0
M  V30 3786 O 357.86 -1.37868 3.88672 0
M  V30 3787 H 357.201 0.0219956 0.663636 0
M  V30 3788 H 359.731 0.688352 1.92673 0
M  V30 3789 H 359.741 -0.536464 4.04458 0
M  V30 3790 H 358.416 0.61383 4.11345 0
M  V30 3791 H 356.993 -1.12999 3.55367 0
M  V30 3792 N 359.178 -1.55987 0.224894 0
M  V30 3793 C 360.426 -1.97998 -0.405099 0
M  V30 3794 C 360.747 -1.11387 -1.60056 0
M  V30 3795 O 360.017 -0.191645 -1.9496 0
M  V30 3796 H 358.597 -0.731235 -0.152658 0
M  V30 3797 H 361.259 -1.92279 0.318567 0
M  V30 3798 H 360.355 -3.03463 -0.729167 0
M  V30 3799 N 360.656 0.0484629 -1.57525 0
M  V30 3800 C 361.904 0.741657 -1.88 0
M  V30 3801 C 362.225 1.76918 -0.820054 0
M  V30 3802 O 361.495 1.95335 0.148661 0
M  V30 3803 H 360.075 0.276908 -0.69378 0
M  V30 3804 H 362.737 0.019013 -1.94891 0
M  V30 3805 H 361.833 1.24336 -2.86264 0
M  V30 3806 N 362.134 1.5431 0.320358 0
M  V30 3807 C 363.044 1.86946 1.41734 0
M  V30 3808 C 364.06 0.761689 1.56443 0
M  V30 3809 O 365.236 1.05629 1.71477 0
M  V30 3810 C 362.301 2.09293 2.76401 0
M  V30 3811 C 361.362 3.33082 2.70841 0
M  V30 3812 C 360.595 3.54353 3.99086 0
M  V30 3813 O 360.818 2.79002 4.97508 0
M  V30 3814 O 359.752 4.47838 4.0215 0
M  V30 3815 H 363.578 2.80232 1.17062 0
M  V30 3816 H 361.163 1.40255 0.514673 0
M  V30 3817 H 363.045 2.25303 3.56113 0
M  V30 3818 H 361.72 1.19194 3.00956 0
M  V30 3819 H 360.627 3.22454 1.89668 0
M  V30 3820 H 361.96 4.23249 2.5124 0
M  V30 3821 N 363.613 -0.582584 1.46437 0
M  V30 3822 C 365.024 -1.1647 1.45916 0
M  V30 3823 C 365.375 -1.95177 0.200077 0
M  V30 3824 O 364.5 -2.04874 -0.696819 0
M  V30 3825 C 365.095 -2.11885 2.64367 0
M  V30 3826 C 363.654 -2.65421 2.66887 0
M  V30 3827 C 362.801 -1.41294 2.38603 0
M  V30 3828 H 365.752 -0.370514 1.54314 0
M  V30 3829 H 365.773 -2.9535 2.39892 0
M  V30 3830 H 365.285 -1.54573 3.5599 0
M  V30 3831 H 363.386 -3.26602 1.79338 0
M  V30 3832 H 363.499 -3.08147 3.66854 0
M  V30 3833 H 361.863 -1.71109 1.88663 0
M  V30 3834 H 362.646 -0.858125 3.32402 0
M  V30 3835 N 365.091 -1.34144 -0.827227 0
M  V30 3836 C 366.321 -1.29138 -1.61267 0
M  V30 3837 C 366.729 0.137597 -1.88699 0
M  V30 3838 O 366.072 1.09379 -1.47587 0
M  V30 3839 C 366.134 -2.0097 -2.9808 0
M  V30 3840 C 365.798 -3.50242 -2.93563 0
M  V30 3841 C 366.795 -4.4523 -2.68452 0
M  V30 3842 C 364.48 -3.92592 -3.13331 0
M  V30 3843 C 366.474 -5.80542 -2.63154 0
M  V30 3844 C 364.161 -5.28005 -3.07658 0
M  V30 3845 C 365.159 -6.21792 -2.82602 0
M  V30 3846 O 364.847 -7.54723 -2.76853 0
M  V30 3847 H 364.579 -0.445851 -0.508127 0
M  V30 3848 H 367.133 -1.77263 -1.03763 0
M  V30 3849 H 365.363 -1.47451 -3.57484 0
M  V30 3850 H 367.052 -1.89309 -3.5905 0
M  V30 3851 H 367.818 -4.13832 -2.52919 0
M  V30 3852 H 363.697 -3.19994 -3.31851 0
M  V30 3853 H 367.241 -6.53717 -2.43516 0
M  V30 3854 H 363.138 -5.59023 -3.22743 0
M  V30 3855 H 363.906 -7.64409 -2.92611 0
M  V30 3856 N 366.569 1.04691 -1.17803 0
M  V30 3857 C 367.816 1.77782 -0.969532 0
M  V30 3858 C 368.144 1.87926 0.501401 0
M  V30 3859 O 367.399 1.37918 1.38842 0
M  V30 3860 C 367.698 3.21467 -1.56186 0
M  V30 3861 C 367.364 3.3137 -3.05786 0
M  V30 3862 C 366.026 3.3378 -3.46619 0
M  V30 3863 C 368.378 3.31976 -4.01797 0
M  V30 3864 C 365.706 3.34431 -4.82051 0
M  V30 3865 C 368.058 3.34167 -5.37136 0
M  V30 3866 C 366.722 3.34866 -5.77426 0
M  V30 3867 H 365.992 0.650549 -0.354777 0
M  V30 3868 H 368.639 1.23006 -1.46772 0
M  V30 3869 H 366.944 3.79203 -0.985515 0
M  V30 3870 H 368.641 3.76652 -1.37602 0
M  V30 3871 H 365.231 3.3021 -2.73238 0
M  V30 3872 H 369.415 3.29311 -3.71306 0
M  V30 3873 H 364.671 3.33285 -5.12573 0
M  V30 3874 H 368.845 3.33585 -6.11305 0
M  V30 3875 H 366.472 3.35124 -6.82346 0
M  V30 3876 N 368.047 0.979072 1.23499 0
M  V30 3877 C 369.275 0.665202 1.95915 0
M  V30 3878 C 369.69 -0.767571 1.72493 0
M  V30 3879 O 369.047 -1.51635 1.01554 0
M  V30 3880 C 369.098 0.944438 3.48945 0
M  V30 3881 O 368.819 2.3209 3.71572 0
M  V30 3882 C 370.32 0.646336 4.38563 0
M  V30 3883 H 367.54 0.247218 0.623798 0
M  V30 3884 H 370.084 1.31009 1.57025 0
M  V30 3885 H 368.239 0.345575 3.85856 0
M  V30 3886 H 368.653 2.40957 4.65876 0
M  V30 3887 H 370.127 0.892091 5.44744 0
M  V30 3888 H 370.604 -0.419575 4.37191 0
M  V30 3889 H 371.21 1.22562 4.07258 0
M  V30 3890 N 369.525 -1.3858 0.750561 0
M  V30 3891 C 370.773 -1.99789 0.30477 0
M  V30 3892 C 371.094 -1.59874 -1.11649 0
M  V30 3893 O 370.364 -0.85417 -1.76297 0
M  V30 3894 H 368.944 -0.738902 0.109694 0
M  V30 3895 H 371.606 -1.69391 0.963983 0
M  V30 3896 H 370.702 -3.09952 0.365499 0
M  V30 3897 N 371.003 -0.499398 -1.49478 0
M  V30 3898 C 372.25 0.0456899 -2.02448 0
M  V30 3899 C 372.578 1.37142 -1.37921 0
M  V30 3900 O 371.833 1.89111 -0.503544 0
M  V30 3901 C 372.132 0.248424 -3.56536 0
M  V30 3902 C 371.798 -0.999107 -4.39692 0
M  V30 3903 C 370.46 -1.34108 -4.62135 0
M  V30 3904 C 372.812 -1.82842 -4.88076 0
M  V30 3905 C 370.14 -2.51191 -5.30208 0
M  V30 3906 C 372.492 -2.99076 -5.57437 0
M  V30 3907 C 371.156 -3.33655 -5.78127 0
M  V30 3908 H 370.426 0.0167191 -0.740811 0
M  V30 3909 H 373.073 -0.65923 -1.79795 0
M  V30 3910 H 371.378 1.03586 -3.77859 0
M  V30 3911 H 373.075 0.684605 -3.95113 0
M  V30 3912 H 369.665 -0.722729 -4.22463 0
M  V30 3913 H 373.849 -1.57737 -4.70566 0
M  V30 3914 H 369.105 -2.78221 -5.44429 0
M  V30 3915 H 373.279 -3.63664 -5.93904 0
M  V30 3916 H 370.906 -4.24483 -6.30649 0
M  V30 3917 N 372.481 1.55866 -0.233164 0
M  V30 3918 C 373.727 1.98897 0.395959 0
M  V30 3919 C 374.06 1.12091 1.58585 0
M  V30 3920 O 373.335 0.181182 1.93654 0
M  V30 3921 C 373.618 3.50658 0.819224 0
M  V30 3922 C 373.471 4.48233 -0.375109 0
M  V30 3923 C 374.79 4.07135 1.67121 0
M  V30 3924 H 371.909 0.723102 0.142451 0
M  V30 3925 H 374.551 1.87082 -0.331725 0
M  V30 3926 H 372.701 3.60857 1.43925 0
M  V30 3927 H 374.373 4.50031 -1.01341 0
M  V30 3928 H 372.616 4.21624 -1.02058 0
M  V30 3929 H 373.287 5.51988 -0.0358328 0
M  V30 3930 H 375.763 3.99952 1.14795 0
M  V30 3931 H 374.639 5.13615 1.93625 0
M  V30 3932 H 374.9 3.54736 2.63846 0
M  V30 3933 N 373.959 -0.0401083 1.57549 0
M  V30 3934 C 375.375 -0.395556 1.54621 0
M  V30 3935 C 375.575 -1.77281 0.957799 0
M  V30 3936 O 374.631 -2.45888 0.574031 0
M  V30 3937 C 375.944 -0.307535 2.99123 0
M  V30 3938 C 377.492 -0.385425 3.10618 0
M  V30 3939 C 377.967 -0.326973 4.56831 0
M  V30 3940 N 379.458 -0.386102 4.61588 0
M  V30 3941 C 380.193 -0.363591 5.72246 0
M  V30 3942 N 379.689 -0.29402 6.92176 0
M  V30 3943 N 381.482 -0.412503 5.60584 0
M  V30 3944 H 373.633 0.861325 1.94152 0
M  V30 3945 H 375.896 0.326445 0.890021 0
M  V30 3946 H 375.602 0.638461 3.45856 0
M  V30 3947 H 375.476 -1.10552 3.60636 0
M  V30 3948 H 377.863 -1.32185 2.63839 0
M  V30 3949 H 377.944 0.44171 2.51957 0
M  V30 3950 H 377.588 0.605738 5.04275 0
M  V30 3951 H 377.518 -1.17207 5.13391 0
M  V30 3952 H 380.009 -0.442832 3.75296 0
M  V30 3953 H 380.322 -0.28164 7.72287 0
M  V30 3954 H 378.667 -0.260232 6.94513 0
M  V30 3955 H 381.858 -0.464769 4.65787 0
M  V30 3956 H 382.031 -0.391492 6.46816 0
M  V30 3957 N 375.437 -1.54477 -0.31217 0
M  V30 3958 C 376.714 -1.63891 -1.06767 0
M  V30 3959 C 377.094 -0.480028 -2.0557 0
M  V30 3960 O 376.442 0.524487 -2.22399 0
M  V30 3961 C 376.652 -3.01402 -1.75948 0
M  V30 3962 C 378 -3.57838 -2.28554 0
M  V30 3963 O 379.024 -3.03782 -1.85998 0
M  V30 3964 O 377.883 -4.52462 -3.06497 0
M  V30 3965 H 374.977 -0.664125 -0.492816 0
M  V30 3966 H 377.523 -1.66823 -0.311149 0
M  V30 3967 H 376.295 -3.77187 -1.04144 0
M  V30 3968 H 375.918 -3.02199 -2.58383 0
M  V30 3969 N 376.915 0.57481 -1.46744 0
M  V30 3970 C 377.845 1.69337 -1.60771 0
M  V30 3971 C 378.826 1.63825 -0.457736 0
M  V30 3972 O 380.011 1.8172 -0.684947 0
M  V30 3973 C 377.141 3.0798 -1.60517 0
M  V30 3974 C 376.095 3.28327 -2.74564 0
M  V30 3975 C 375.421 4.67578 -2.59373 0
M  V30 3976 C 376.721 3.15398 -4.16319 0
M  V30 3977 H 378.415 1.57853 -2.54407 0
M  V30 3978 H 375.961 0.75799 -1.22436 0
M  V30 3979 H 377.914 3.86061 -1.68923 0
M  V30 3980 H 376.638 3.20381 -0.634305 0
M  V30 3981 H 375.297 2.52649 -2.65639 0
M  V30 3982 H 374.945 4.76755 -1.60353 0
M  V30 3983 H 374.645 4.82144 -3.35873 0
M  V30 3984 H 376.169 5.47817 -2.69682 0
M  V30 3985 H 377.583 3.83315 -4.26313 0
M  V30 3986 H 375.98 3.41482 -4.93468 0
M  V30 3987 H 377.05 2.12372 -4.3592 0
M  V30 3988 N 378.394 1.34581 0.820102 0
M  V30 3989 C 379.622 1.3018 1.60813 0
M  V30 3990 C 380.037 -0.123551 1.88395 0
M  V30 3991 O 379.394 -1.07148 1.47735 0
M  V30 3992 C 379.445 2.09312 2.94739 0
M  V30 3993 O 379.166 3.46288 2.68358 0
M  V30 3994 C 380.667 2.1234 3.89136 0
M  V30 3995 H 377.887 0.447726 0.499782 0
M  V30 3996 H 380.431 1.77237 1.02017 0
M  V30 3997 H 378.586 1.65889 3.50085 0
M  V30 3998 H 379 3.87227 3.53774 0
M  V30 3999 H 380.474 2.72126 4.80262 0
M  V30 4000 H 380.951 1.11854 4.24718 0
M  V30 4001 H 381.557 2.55864 3.39726 0
M  V30 4002 N 379.872 -1.04064 1.18357 0
M  V30 4003 C 380.782 -2.15569 0.925596 0
M  V30 4004 C 381.798 -1.7365 -0.110295 0
M  V30 4005 O 382.974 -2.01273 0.0716218 0
M  V30 4006 C 380.039 -3.43704 0.454836 0
M  V30 4007 C 379.1 -4.00004 1.55869 0
M  V30 4008 C 378.333 -5.22023 1.1103 0
M  V30 4009 O 378.556 -5.70392 -0.0309756 0
M  V30 4010 O 377.49 -5.70856 1.90805 0
M  V30 4011 H 381.316 -2.40187 1.8586 0
M  V30 4012 H 378.901 -1.1402 0.965394 0
M  V30 4013 H 380.783 -4.20923 0.200382 0
M  V30 4014 H 379.458 -3.20559 -0.449876 0
M  V30 4015 H 378.365 -3.24172 1.86716 0
M  V30 4016 H 379.698 -4.2749 2.43953 0
M  V30 4017 N 381.35 -0.985608 -1.22978 0
M  V30 4018 C 382.3 -0.50118 -2.22423 0
M  V30 4019 C 383.284 0.426649 -1.5514 0
M  V30 4020 O 384.476 0.254656 -1.75159 0
M  V30 4021 C 381.605 0.190003 -3.42774 0
M  V30 4022 C 380.691 -0.757703 -4.17276 0
M  V30 4023 N 381.082 -1.90251 -4.68656 0
M  V30 4024 C 379.38 -0.57209 -4.42316 0
M  V30 4025 C 380.081 -2.49676 -5.25392 0
M  V30 4026 N 379.057 -1.78013 -5.13627 0
M  V30 4027 H 382.859 -1.37441 -2.59783 0
M  V30 4028 H 380.373 -0.846941 -1.38567 0
M  V30 4029 H 382.37 0.55439 -4.13197 0
M  V30 4030 H 381.03 1.05946 -3.06929 0
M  V30 4031 H 382.041 -2.28354 -4.64839 0
M  V30 4032 H 378.718 0.251909 -4.16739 0
M  V30 4033 H 380.108 -3.46384 -5.75732 0
M  V30 4034 N 382.828 1.3818 -0.7579 0
M  V30 4035 C 383.76 2.2901 -0.0932177 0
M  V30 4036 C 384.773 1.47958 0.679136 0
M  V30 4037 O 385.962 1.70773 0.519514 0
M  V30 4038 C 383.062 3.26953 0.89192 0
M  V30 4039 C 382.235 4.37045 0.176303 0
M  V30 4040 C 381.294 5.15148 1.07281 0
M  V30 4041 O 380.32 5.66616 0.541728 0
M  V30 4042 N 381.522 5.28542 2.40049 0
M  V30 4043 H 384.287 2.86694 -0.873303 0
M  V30 4044 H 381.848 1.50007 -0.609054 0
M  V30 4045 H 383.84 3.76083 1.49479 0
M  V30 4046 H 382.41 2.70136 1.57306 0
M  V30 4047 H 381.63 3.89493 -0.607328 0
M  V30 4048 H 382.918 5.07801 -0.318718 0
M  V30 4049 H 382.316 4.88285 2.85647 0
M  V30 4050 H 380.873 5.8103 2.95376 0
M  V30 4051 N 384.306 0.507319 1.49211 0
M  V30 4052 C 385.238 -0.304532 2.27168 0
M  V30 4053 C 386.251 -0.924956 1.33972 0
M  V30 4054 O 387.44 -0.807227 1.59205 0
M  V30 4055 C 384.54 -1.44431 3.06583 0
M  V30 4056 C 383.713 -0.930026 4.27398 0
M  V30 4057 C 382.772 -1.94817 4.88807 0
M  V30 4058 O 381.798 -1.51418 5.4869 0
M  V30 4059 N 383 -3.279 4.79022 0
M  V30 4060 H 385.765 0.36395 2.97482 0
M  V30 4061 H 383.326 0.340249 1.58284 0
M  V30 4062 H 385.318 -2.12311 3.44537 0
M  V30 4063 H 383.888 -2.01684 2.38835 0
M  V30 4064 H 383.108 -0.0759244 3.94127 0
M  V30 4065 H 384.396 -0.564932 5.05654 0
M  V30 4066 H 383.794 -3.65843 4.3148 0
M  V30 4067 H 382.351 -3.91476 5.21142 0
M  V30 4068 N 385.784 -1.5574 0.241426 0
M  V30 4069 C 387.012 -2.03208 -0.389134 0
M  V30 4070 C 387.427 -1.12082 -1.51931 0
M  V30 4071 O 386.784 -0.134183 -1.82006 0
M  V30 4072 C 386.835 -3.50064 -0.902087 0
M  V30 4073 O 386.556 -4.37717 0.18305 0
M  V30 4074 C 388.057 -4.13268 -1.60389 0
M  V30 4075 H 385.277 -0.664509 -0.0931053 0
M  V30 4076 H 387.821 -2.0124 0.36369 0
M  V30 4077 H 385.976 -3.52583 -1.60511 0
M  V30 4078 H 386.39 -5.24097 -0.205579 0
M  V30 4079 H 387.864 -5.17733 -1.91458 0
M  V30 4080 H 388.341 -3.59434 -2.52397 0
M  V30 4081 H 388.947 -4.14655 -0.945576 0
M  V30 4082 N 387.262 0.0317525 -1.57568 0
M  V30 4083 C 388.194 1.06073 -2.03178 0
M  V30 4084 C 389.207 1.32627 -0.944132 0
M  V30 4085 O 390.396 1.30162 -1.22148 0
M  V30 4086 C 387.496 2.40297 -2.38978 0
M  V30 4087 C 386.669 2.33137 -3.70089 0
M  V30 4088 C 385.728 3.49787 -3.9311 0
M  V30 4089 O 384.754 3.29403 -4.64201 0
M  V30 4090 N 385.956 4.71562 -3.38541 0
M  V30 4091 H 388.721 0.672006 -2.92069 0
M  V30 4092 H 386.282 0.219745 -1.60402 0
M  V30 4093 H 388.274 3.1705 -2.51518 0
M  V30 4094 H 386.844 2.71024 -1.55771 0
M  V30 4095 H 386.064 1.415 -3.67928 0
M  V30 4096 H 387.352 2.25493 -4.56104 0
M  V30 4097 H 386.75 4.91024 -2.80912 0
M  V30 4098 H 385.307 5.45689 -3.56464 0
M  V30 4099 N 388.74 1.54641 0.303973 0
M  V30 4100 C 389.703 1.84646 1.35789 0
M  V30 4101 C 390.703 0.7192 1.4382 0
M  V30 4102 O 391.893 0.987491 1.43507 0
M  V30 4103 C 389.025 2.02407 2.74307 0
M  V30 4104 H 390.218 2.78829 1.10429 0
M  V30 4105 H 387.771 1.46658 0.540487 0
M  V30 4106 H 388.506 1.10502 3.04893 0
M  V30 4107 H 388.291 2.84453 2.69868 0
M  V30 4108 H 389.781 2.27002 3.50514 0
M  V30 4109 N 390.218 -0.567019 1.47046 0
M  V30 4110 C 391.634 -0.891975 1.32348 0
M  V30 4111 C 391.834 -1.99154 0.306616 0
M  V30 4112 O 390.89 -2.50883 -0.28532 0
M  V30 4113 C 392.203 -1.29449 2.7141 0
M  V30 4114 C 393.751 -1.40646 2.79621 0
M  V30 4115 C 394.226 -1.84257 4.19301 0
M  V30 4116 N 395.717 -1.91424 4.21795 0
M  V30 4117 C 396.452 -2.26476 5.26779 0
M  V30 4118 N 395.948 -2.60211 6.42077 0
M  V30 4119 N 397.741 -2.27166 5.14152 0
M  V30 4120 H 389.892 0.159074 2.11803 0
M  V30 4121 H 392.155 0.00849752 0.947962 0
M  V30 4122 H 391.861 -0.560448 3.47206 0
M  V30 4123 H 391.735 -2.25273 3.02542 0
M  V30 4124 H 394.122 -2.13133 2.04104 0
M  V30 4125 H 394.203 -0.430339 2.52154 0
M  V30 4126 H 393.847 -1.12343 4.95319 0
M  V30 4127 H 393.777 -2.82855 4.44185 0
M  V30 4128 H 396.268 -1.6778 3.38612 0
M  V30 4129 H 396.581 -2.85956 7.17948 0
M  V30 4130 H 394.926 -2.57813 6.45413 0
M  V30 4131 H 398.117 -2.00244 4.23107 0
M  V30 4132 H 398.29 -2.54154 5.96079 0
M  V30 4133 N 391.696 -1.35014 -0.812953 0
M  V30 4134 C 392.626 -1.30069 -1.93919 0
M  V30 4135 C 393.607 -0.176275 -1.69184 0
M  V30 4136 O 394.792 -0.370227 -1.90638 0
M  V30 4137 C 391.922 -1.06547 -3.30552 0
M  V30 4138 C 390.876 -2.15561 -3.69753 0
M  V30 4139 C 390.202 -1.77214 -5.04479 0
M  V30 4140 C 391.502 -3.57476 -3.808 0
M  V30 4141 H 393.196 -2.24303 -1.98314 0
M  V30 4142 H 390.742 -1.07977 -0.952736 0
M  V30 4143 H 392.695 -1.01729 -4.08937 0
M  V30 4144 H 391.419 -0.0875719 -3.26483 0
M  V30 4145 H 390.078 -2.19466 -2.9365 0
M  V30 4146 H 389.726 -0.780589 -4.96906 0
M  V30 4147 H 389.426 -2.50184 -5.31678 0
M  V30 4148 H 390.95 -1.7391 -5.8531 0
M  V30 4149 H 392.364 -3.55929 -4.4943 0
M  V30 4150 H 390.761 -4.29152 -4.19462 0
M  V30 4151 H 391.831 -3.94091 -2.82525 0
M  V30 4152 N 393.175 1.03435 -1.18907 0
M  V30 4153 C 394.107 2.1165 -0.879595 0
M  V30 4154 C 395.12 1.62316 0.125439 0
M  V30 4155 O 396.309 1.78201 -0.103245 0
M  V30 4156 C 393.409 3.37622 -0.294042 0
M  V30 4157 C 392.582 4.16166 -1.34629 0
M  V30 4158 C 391.641 5.20457 -0.775274 0
M  V30 4159 O 390.667 5.50379 -1.4516 0
M  V30 4160 N 391.869 5.78949 0.424126 0
M  V30 4161 H 394.634 2.38791 -1.81105 0
M  V30 4162 H 392.195 1.19681 -1.09032 0
M  V30 4163 H 394.187 4.04572 0.101679 0
M  V30 4164 H 392.757 3.07873 0.541575 0
M  V30 4165 H 391.977 3.44444 -1.91707 0
M  V30 4166 H 393.265 4.65432 -2.05549 0
M  V30 4167 H 392.663 5.56948 0.991209 0
M  V30 4168 H 391.22 6.47334 0.761691 0
M  V30 4169 N 394.653 0.992116 1.22453 0
M  V30 4170 C 395.563 0.55065 2.28046 0
M  V30 4171 C 396.579 -0.400189 1.69335 0
M  V30 4172 O 397.755 -0.267215 1.99619 0
M  V30 4173 C 394.82 -0.128496 3.46462 0
M  V30 4174 C 393.881 0.865208 4.20491 0
M  V30 4175 C 393.114 0.218377 5.33253 0
M  V30 4176 O 393.337 -0.987894 5.6178 0
M  V30 4177 O 392.271 0.922845 5.94783 0
M  V30 4178 H 396.097 1.4291 2.67975 0
M  V30 4179 H 393.682 0.760326 1.28606 0
M  V30 4180 H 395.564 -0.508947 4.18315 0
M  V30 4181 H 394.239 -0.981526 3.0846 0
M  V30 4182 H 393.146 1.29658 3.50913 0
M  V30 4183 H 394.479 1.68741 4.62371 0
M  V30 4184 N 396.131 -1.37776 0.765217 0
M  V30 4185 C 397.061 -2.32945 0.160953 0
M  V30 4186 C 398.042 -1.55454 -0.690516 0
M  V30 4187 O 399.227 -1.83721 -0.629318 0
M  V30 4188 C 396.357 -3.39669 -0.724031 0
M  V30 4189 C 395.311 -4.27992 0.0256173 0
M  V30 4190 C 394.637 -5.25673 -0.978383 0
M  V30 4191 C 395.937 -5.08309 1.20082 0
M  V30 4192 H 397.631 -2.83728 0.955969 0
M  V30 4193 H 395.177 -1.36416 0.461149 0
M  V30 4194 H 397.13 -4.05219 -1.15652 0
M  V30 4195 H 395.854 -2.87396 -1.5515 0
M  V30 4196 H 394.513 -3.63964 0.438812 0
M  V30 4197 H 394.161 -4.69682 -1.80022 0
M  V30 4198 H 393.861 -5.85625 -0.481378 0
M  V30 4199 H 395.385 -5.94098 -1.40995 0
M  V30 4200 H 396.799 -5.67034 0.845307 0
M  V30 4201 H 395.196 -5.77554 1.62947 0
M  V30 4202 H 396.266 -4.41365 2.00811 0
M  V30 4203 N 397.609 -0.515225 -1.4894 0
M  V30 4204 C 398.541 0.292481 -2.27326 0
M  V30 4205 C 399.554 0.917838 -1.3446 0
M  V30 4206 O 400.743 0.798772 -1.5963 0
M  V30 4207 C 397.843 1.42803 -3.07344 0
M  V30 4208 C 397.016 0.907347 -4.27885 0
M  V30 4209 C 396.075 1.92222 -4.89834 0
M  V30 4210 O 395.101 1.48506 -5.49486 0
M  V30 4211 N 396.303 3.25355 -4.80754 0
M  V30 4212 H 399.068 -0.379721 -2.97285 0
M  V30 4213 H 396.629 -0.348638 -1.58102 0
M  V30 4214 H 398.621 2.10481 -3.45658 0
M  V30 4215 H 397.191 2.00414 -2.39902 0
M  V30 4216 H 396.411 0.0550218 -3.94162 0
M  V30 4217 H 397.699 0.538108 -5.05946 0
M  V30 4218 H 397.097 3.6355 -4.33414 0
M  V30 4219 H 395.654 3.88707 -5.23211 0
M  V30 4220 N 399.087 1.5561 -0.249682 0
M  V30 4221 C 400.312 2.03865 0.381305 0
M  V30 4222 C 400.737 1.12769 1.50548 0
M  V30 4223 O 400.095 0.121189 1.80895 0
M  V30 4224 C 400.143 3.50101 0.863816 0
M  V30 4225 O 399.247 3.62132 1.97318 0
M  V30 4226 H 398.588 0.658827 0.0827194 0
M  V30 4227 H 401.118 2.01105 -0.376552 0
M  V30 4228 H 401.128 3.90975 1.1663 0
M  V30 4229 H 399.803 4.1588 0.0411816 0
M  V30 4230 H 398.38 3.33155 1.67517 0
M  V30 4231 N 400.565 -0.0233959 1.57583 0
M  V30 4232 C 401.475 -1.03907 2.10334 0
M  V30 4233 C 402.491 -1.39257 1.04323 0
M  V30 4234 O 403.667 -1.48462 1.36091 0
M  V30 4235 C 400.732 -2.31938 2.57693 0
M  V30 4236 C 399.793 -2.03117 3.78209 0
M  V30 4237 C 399.026 -3.25043 4.233 0
M  V30 4238 O 399.249 -4.35916 3.67876 0
M  V30 4239 O 398.183 -3.10411 5.15683 0
M  V30 4240 H 402.009 -0.620748 2.97288 0
M  V30 4241 H 399.594 -0.240743 1.47448 0
M  V30 4242 H 401.476 -3.07196 2.88458 0
M  V30 4243 H 400.151 -2.73055 1.73847 0
M  V30 4244 H 399.058 -1.25408 3.52454 0
M  V30 4245 H 400.391 -1.66852 4.63056 0
M  V30 4246 N 402.043 -1.548 -0.295768 0
M  V30 4247 C 402.973 -1.89115 -1.36959 0
M  V30 4248 C 403.954 -0.75059 -1.52644 0
M  V30 4249 O 405.139 -1.00678 -1.66065 0
M  V30 4250 C 402.269 -2.14307 -2.73295 0
M  V30 4251 C 401.223 -3.30151 -2.72368 0
M  V30 4252 C 400.549 -3.40772 -4.12042 0
M  V30 4253 C 401.849 -4.67126 -2.33646 0
M  V30 4254 H 403.543 -2.79053 -1.08488 0
M  V30 4255 H 401.089 -1.34266 -0.520443 0
M  V30 4256 H 403.042 -2.36898 -3.48507 0
M  V30 4257 H 401.766 -1.21145 -3.03301 0
M  V30 4258 H 400.425 -3.0749 -1.99613 0
M  V30 4259 H 400.073 -2.45117 -4.39234 0
M  V30 4260 H 399.773 -4.18645 -4.12322 0
M  V30 4261 H 401.297 -3.6563 -4.89027 0
M  V30 4262 H 402.711 -4.89414 -2.98575 0
M  V30 4263 H 401.108 -5.47751 -2.45129 0
M  V30 4264 H 402.178 -4.67489 -1.28772 0
M  V30 4265 N 403.521 0.559213 -1.47345 0
M  V30 4266 C 404.767 1.31843 -1.54095 0
M  V30 4267 C 405.1 1.93149 -0.201726 0
M  V30 4268 O 404.375 1.77759 0.789428 0
M  V30 4269 C 404.658 2.43006 -2.65744 0
M  V30 4270 C 404.511 1.86581 -4.09277 0
M  V30 4271 C 405.83 3.44943 -2.73318 0
M  V30 4272 H 402.949 0.478012 -0.560957 0
M  V30 4273 H 405.591 0.625977 -1.79392 0
M  V30 4274 H 403.741 3.02072 -2.44305 0
M  V30 4275 H 405.413 1.31792 -4.42073 0
M  V30 4276 H 403.656 1.17268 -4.17649 0
M  V30 4277 H 404.327 2.66933 -4.83168 0
M  V30 4278 H 406.803 2.95793 -2.92653 0
M  V30 4279 H 405.679 4.20153 -3.53218 0
M  V30 4280 H 405.94 4.03665 -1.80296 0
M  V30 4281 N 404.999 1.35443 0.805782 0
M  V30 4282 C 405.949 1.24972 1.90699 0
M  V30 4283 C 406.933 0.144806 1.60247 0
M  V30 4284 O 408.125 0.376102 1.72958 0
M  V30 4285 C 405.254 1.02475 3.27649 0
M  V30 4286 C 404.34 2.17361 3.64164 0
M  V30 4287 N 404.731 3.42591 3.72109 0
M  V30 4288 C 403.029 2.08765 3.94123 0
M  V30 4289 C 403.73 4.18144 4.04389 0
M  V30 4290 N 402.706 3.4691 4.18515 0
M  V30 4291 H 406.508 2.19852 1.95044 0
M  V30 4292 H 404.022 1.27928 1.00041 0
M  V30 4293 H 406.019 0.930617 4.06381 0
M  V30 4294 H 404.679 0.0848009 3.24589 0
M  V30 4295 H 405.69 3.76932 3.55166 0
M  V30 4296 H 402.367 1.22629 3.99084 0
M  V30 4297 H 403.757 5.26367 4.17597 0
M  V30 4298 N 406.477 -1.02803 1.19454 0
M  V30 4299 C 407.723 -1.76478 0.999171 0
M  V30 4300 C 408.056 -1.88456 -0.468828 0
M  V30 4301 O 407.331 -1.40198 -1.34814 0
M  V30 4302 C 407.614 -3.19044 1.66981 0
M  V30 4303 C 407.467 -3.14932 3.21151 0
M  V30 4304 C 408.786 -4.17456 1.39349 0
M  V30 4305 H 405.905 -0.640614 0.364393 0
M  V30 4306 H 408.547 -1.20005 1.47305 0
M  V30 4307 H 406.697 -3.67263 1.2669 0
M  V30 4308 H 408.369 -2.74605 3.70661 0
M  V30 4309 H 406.612 -2.52625 3.52652 0
M  V30 4310 H 407.283 -4.1566 3.63223 0
M  V30 4311 H 409.759 -3.77842 1.74283 0
M  V30 4312 H 408.635 -5.154 1.88823 0
M  V30 4313 H 408.896 -4.40949 0.318813 0
M  V30 4314 N 407.956 -0.998596 -1.21925 0
M  V30 4315 C 409.181 -0.696015 -1.95372 0
M  V30 4316 C 409.606 0.733826 -1.73195 0
M  V30 4317 O 408.964 1.50242 -1.01474 0
M  V30 4318 C 409.012 -1.01466 -3.4603 0
M  V30 4319 O 408.116 -0.116415 -4.12236 0
M  V30 4320 H 407.457 -0.259938 -0.611006 0
M  V30 4321 H 409.987 -1.33711 -1.54863 0
M  V30 4322 H 409.997 -0.958855 -3.96573 0
M  V30 4323 H 408.672 -2.05653 -3.61497 0
M  V30 4324 H 407.249 -0.228193 -3.72201 0
M  V30 4325 N 409.434 1.37368 -0.772513 0
M  V30 4326 C 410.85 1.53059 -0.452231 0
M  V30 4327 C 411.05 1.73065 1.03203 0
M  V30 4328 O 410.106 1.75245 1.81784 0
M  V30 4329 C 411.419 2.72659 -1.26797 0
M  V30 4330 C 412.967 2.86521 -1.25995 0
M  V30 4331 C 413.442 4.09105 -2.05905 0
M  V30 4332 N 414.933 4.16219 -2.03263 0
M  V30 4333 C 415.668 5.10107 -2.61875 0
M  V30 4334 N 415.164 6.09547 -3.29278 0
M  V30 4335 N 416.957 5.02596 -2.51701 0
M  V30 4336 H 409.108 1.22634 -1.7342 0
M  V30 4337 H 411.371 0.597206 -0.736239 0
M  V30 4338 H 411.077 2.64343 -2.31982 0
M  V30 4339 H 410.951 3.66363 -0.897672 0
M  V30 4340 H 413.338 2.94308 -0.216081 0
M  V30 4341 H 413.419 1.93774 -1.66989 0
M  V30 4342 H 413.063 4.0208 -3.10313 0
M  V30 4343 H 412.993 5.00968 -1.62292 0
M  V30 4344 H 415.484 3.45012 -1.54192 0
M  V30 4345 H 415.797 6.77718 -3.71374 0
M  V30 4346 H 414.142 6.09824 -3.33377 0
M  V30 4347 H 417.333 4.23855 -1.98657 0
M  V30 4348 H 417.506 5.75582 -2.97673 0
M  V30 4349 N 410.912 0.523116 1.48665 0
M  V30 4350 C 411.842 -0.23231 2.32342 0
M  V30 4351 C 412.823 -0.941637 1.41659 0
M  V30 4352 O 414.008 -0.928751 1.70552 0
M  V30 4353 C 411.138 -1.28387 3.22698 0
M  V30 4354 C 410.092 -0.693098 4.22351 0
M  V30 4355 C 409.418 -1.8468 5.01794 0
M  V30 4356 C 410.718 0.33063 5.21252 0
M  V30 4357 H 412.412 0.466192 2.95748 0
M  V30 4358 H 409.958 0.225643 1.42221 0
M  V30 4359 H 411.911 -1.82024 3.80059 0
M  V30 4360 H 410.635 -2.01186 2.57278 0
M  V30 4361 H 409.294 -0.178299 3.66166 0
M  V30 4362 H 408.942 -2.56301 4.32804 0
M  V30 4363 H 408.642 -1.45747 5.69238 0
M  V30 4364 H 410.166 -2.38709 5.62006 0
M  V30 4365 H 411.58 -0.118407 5.73178 0
M  V30 4366 H 409.977 0.636974 5.9671 0
M  V30 4367 H 411.047 1.23883 4.68808 0
M  V30 4368 N 412.39 -1.55475 0.257931 0
M  V30 4369 C 413.615 -2.04064 -0.370488 0
M  V30 4370 C 414.04 -1.13565 -1.49948 0
M  V30 4371 O 413.398 -0.130781 -1.80828 0
M  V30 4372 C 413.446 -3.50554 -0.845237 0
M  V30 4373 O 412.55 -3.63173 -1.95394 0
M  V30 4374 H 411.891 -0.659257 -0.0792243 0
M  V30 4375 H 414.421 -2.00903 0.387212 0
M  V30 4376 H 414.431 -3.91588 -1.14555 0
M  V30 4377 H 413.106 -4.15896 -0.0191259 0
M  V30 4378 H 411.683 -3.34039 -1.65748 0
M  V30 4379 N 413.868 0.0150385 -1.57593 0
M  V30 4380 C 414.831 0.995996 -2.06428 0
M  V30 4381 C 415.831 1.2818 -0.970903 0
M  V30 4382 O 417.021 1.22949 -1.23406 0
M  V30 4383 C 414.153 2.32506 -2.49307 0
M  V30 4384 H 415.346 0.573873 -2.94358 0
M  V30 4385 H 412.899 0.262186 -1.54085 0
M  V30 4386 H 413.634 2.79438 -1.64575 0
M  V30 4387 H 413.419 2.13087 -3.29145 0
M  V30 4388 H 414.909 3.02906 -2.87468 0
M  V30 4389 N 415.346 1.54954 0.287554 0
M  V30 4390 C 416.279 1.81737 1.3801 0
M  V30 4391 C 417.257 0.669412 1.48181 0
M  V30 4392 O 418.441 0.910839 1.65033 0
M  V30 4393 C 415.568 1.96606 2.75796 0
M  V30 4394 C 414.614 3.19098 2.82982 0
M  V30 4395 S 415.447 4.7683 2.43707 0
M  V30 4396 C 416.603 4.94653 3.83496 0
M  V30 4397 H 416.836 2.74122 1.15085 0
M  V30 4398 H 414.369 1.46538 0.486403 0
M  V30 4399 H 416.327 2.05858 3.55152 0
M  V30 4400 H 414.988 1.05136 2.95982 0
M  V30 4401 H 414.181 3.26344 3.84077 0
M  V30 4402 H 413.783 3.08361 2.11635 0
M  V30 4403 H 416.075 4.79502 4.78628 0
M  V30 4404 H 417.018 5.96728 3.8121 0
M  V30 4405 H 417.426 4.2272 3.74123 0
M  V30 4406 N 416.824 -0.551391 1.4764 0
M  V30 4407 C 418.072 -1.30572 1.54258 0
M  V30 4408 C 418.393 -1.93877 0.208963 0
M  V30 4409 O 417.663 -1.80234 -0.767619 0
M  V30 4410 H 416.243 -0.484894 0.568231 0
M  V30 4411 H 418.905 -0.643402 1.83974 0
M  V30 4412 H 418.001 -2.09621 2.31226 0
M  V30 4413 N 418.302 -1.35869 -0.798587 0
M  V30 4414 C 419.212 -1.31578 -1.94228 0
M  V30 4415 C 420.228 -0.21939 -1.72611 0
M  V30 4416 O 421.404 -0.450167 -1.96305 0
M  V30 4417 C 418.469 -1.09528 -3.28944 0
M  V30 4418 C 417.53 -2.28556 -3.63402 0
M  V30 4419 C 416.763 -2.07549 -4.9169 0
M  V30 4420 O 416.986 -1.046 -5.60727 0
M  V30 4421 O 415.92 -2.95106 -5.24591 0
M  V30 4422 H 419.746 -2.27847 -2.00796 0
M  V30 4423 H 417.331 -1.16322 -0.937526 0
M  V30 4424 H 419.213 -0.991127 -4.09579 0
M  V30 4425 H 417.888 -0.16315 -3.23289 0
M  V30 4426 H 416.795 -2.44538 -2.83112 0
M  V30 4427 H 418.128 -3.20244 -3.73771 0
M  V30 4428 N 419.78 1.02168 -1.19998 0
M  V30 4429 C 420.713 2.10232 -0.887558 0
M  V30 4430 C 421.691 1.61827 0.158317 0
M  V30 4431 O 422.875 1.88471 0.0330249 0
M  V30 4432 C 420.002 3.37092 -0.32964 0
M  V30 4433 C 419.048 4.0438 -1.3557 0
M  V30 4434 S 419.881 4.48956 -2.91888 0
M  V30 4435 C 421.037 5.79024 -2.37658 0
M  V30 4436 H 421.27 2.36409 -1.80272 0
M  V30 4437 H 418.803 1.15211 -1.0279 0
M  V30 4438 H 420.761 4.10498 -0.0142824 0
M  V30 4439 H 419.422 3.08996 0.563941 0
M  V30 4440 H 418.615 4.95632 -0.9146 0
M  V30 4441 H 418.217 3.37176 -1.61828 0
M  V30 4442 H 420.509 6.53942 -1.77103 0
M  V30 4443 H 421.452 6.27924 -3.27287 0
M  V30 4444 H 421.86 5.35043 -1.79971 0
M  V30 4445 N 421.258 1.00505 1.21394 0
M  V30 4446 C 422.221 0.570459 2.21987 0
M  V30 4447 C 423.221 -0.353211 1.56873 0
M  V30 4448 O 424.411 -0.14349 1.73608 0
M  V30 4449 C 421.543 -0.168555 3.40483 0
M  V30 4450 H 422.736 1.46021 2.6195 0
M  V30 4451 H 420.289 0.793565 1.34656 0
M  V30 4452 H 421.024 -1.07374 3.06009 0
M  V30 4453 H 420.809 0.494823 3.88965 0
M  V30 4454 H 422.299 -0.460362 4.15055 0
M  V30 4455 N 422.737 -1.36956 0.779787 0
M  V30 4456 C 423.962 -2.04283 0.358224 0
M  V30 4457 C 424.387 -1.58422 -1.01411 0
M  V30 4458 O 423.745 -0.748179 -1.65142 0
M  V30 4459 C 423.793 -3.58152 0.419479 0
M  V30 4460 O 422.897 -4.08342 -0.577142 0
M  V30 4461 H 422.238 -0.645967 0.153698 0
M  V30 4462 H 424.768 -1.75108 1.05822 0
M  V30 4463 H 424.778 -4.07041 0.279636 0
M  V30 4464 H 423.453 -3.90886 1.42061 0
M  V30 4465 H 422.03 -3.70751 -0.399755 0
M  V30 4466 N 424.215 -0.530993 -1.48385 0
M  V30 4467 C 425.178 0.220497 -2.28137 0
M  V30 4468 C 426.178 0.866851 -1.35434 0
M  V30 4469 O 427.368 0.726746 -1.58316 0
M  V30 4470 C 424.5 1.31921 -3.1434 0
M  V30 4471 H 425.693 -0.479714 -2.96038 0
M  V30 4472 H 423.246 -0.286968 -1.53643 0
M  V30 4473 H 423.981 2.05264 -2.51072 0
M  V30 4474 H 423.766 0.86085 -3.82533 0
M  V30 4475 H 425.256 1.84776 -3.74497 0
M  V30 4476 N 425.693 1.55336 -0.266172 0
M  V30 4477 C 426.623 2.25146 0.618981 0
M  V30 4478 C 427.604 1.23845 1.16604 0
M  V30 4479 O 428.789 1.52544 1.20183 0
M  V30 4480 C 425.919 2.96572 1.80728 0
M  V30 4481 C 424.873 4.04726 1.39215 0
M  V30 4482 C 424.199 4.63678 2.66283 0
M  V30 4483 C 425.499 5.19407 0.548942 0
M  V30 4484 H 427.193 2.99377 0.0368116 0
M  V30 4485 H 424.739 1.43991 0.0162651 0
M  V30 4486 H 426.692 3.44116 2.43232 0
M  V30 4487 H 425.416 2.19861 2.41514 0
M  V30 4488 H 424.075 3.57979 0.790351 0
M  V30 4489 H 423.723 3.83646 3.25308 0
M  V30 4490 H 423.423 5.367 2.39222 0
M  V30 4491 H 424.947 5.13967 3.29651 0
M  V30 4492 H 426.361 5.63059 1.07876 0
M  V30 4493 H 424.758 5.98936 0.373593 0
M  V30 4494 H 425.828 4.8295 -0.434394 0
M  V30 4495 N 427.171 -0.0066808 1.57599 0
M  V30 4496 C 428.134 -0.985035 2.06953 0
M  V30 4497 C 429.134 -1.27663 0.977687 0
M  V30 4498 O 430.324 -1.22293 1.24057 0
M  V30 4499 C 427.456 -2.3118 2.50536 0
M  V30 4500 H 428.649 -0.558255 2.94658 0
M  V30 4501 H 426.202 -0.254011 1.54222 0
M  V30 4502 H 426.937 -2.78561 1.66054 0
M  V30 4503 H 426.722 -2.11338 3.3027 0
M  V30 4504 H 428.212 -3.01377 2.8907 0
M  V30 4505 N 428.649 -1.55105 -0.279332 0
M  V30 4506 C 429.599 -1.83937 -1.34727 0
M  V30 4507 C 430.583 -0.69785 -1.44979 0
M  V30 4508 O 431.775 -0.95904 -1.48766 0
M  V30 4509 C 428.904 -2.1092 -2.70864 0
M  V30 4510 C 427.99 -3.31314 -2.64748 0
M  V30 4511 N 428.381 -4.51371 -2.2825 0
M  V30 4512 C 426.679 -3.33777 -2.95819 0
M  V30 4513 C 427.38 -5.33447 -2.31969 0
M  V30 4514 N 426.356 -4.71697 -2.7019 0
M  V30 4515 H 430.158 -2.74309 -1.05506 0
M  V30 4516 H 427.672 -1.54896 -0.487959 0
M  V30 4517 H 429.669 -2.2973 -3.47893 0
M  V30 4518 H 428.329 -1.21828 -3.00979 0
M  V30 4519 H 429.34 -4.77584 -2.00335 0
M  V30 4520 H 426.017 -2.54858 -3.30687 0
M  V30 4521 H 427.407 -6.39424 -2.06365 0
M  V30 4522 N 430.127 0.543554 -1.4793 0
M  V30 4523 C 431.037 1.67657 -1.64098 0
M  V30 4524 C 432.053 1.65934 -0.523622 0
M  V30 4525 O 433.229 1.85133 -0.792943 0
M  V30 4526 C 430.294 3.04146 -1.66421 0
M  V30 4527 C 429.355 3.16831 -2.89684 0
M  V30 4528 C 428.588 4.46809 -2.91886 0
M  V30 4529 O 428.811 5.33095 -2.02895 0
M  V30 4530 O 427.745 4.63573 -3.83906 0
M  V30 4531 H 431.571 1.56957 -2.59997 0
M  V30 4532 H 429.156 0.715116 -1.31173 0
M  V30 4533 H 431.038 3.85346 -1.70548 0
M  V30 4534 H 429.713 3.152 -0.736923 0
M  V30 4535 H 428.62 2.34977 -2.91095 0
M  V30 4536 H 429.953 3.10687 -3.81752 0
M  V30 4537 N 431.605 1.3629 0.791371 0
M  V30 4538 C 432.535 1.33137 1.91825 0
M  V30 4539 C 433.516 0.203168 1.68882 0
M  V30 4540 O 434.701 0.400509 1.90025 0
M  V30 4541 C 431.831 1.11793 3.28816 0
M  V30 4542 C 430.785 2.21417 3.66277 0
M  V30 4543 C 430.111 1.85218 5.01596 0
M  V30 4544 C 431.411 3.63489 3.75064 0
M  V30 4545 H 433.105 2.2743 1.9472 0
M  V30 4546 H 430.651 1.09479 0.935437 0
M  V30 4547 H 432.604 1.08222 4.07266 0
M  V30 4548 H 431.328 0.139501 3.26302 0
M  V30 4549 H 429.987 2.2411 2.90121 0
M  V30 4550 H 429.635 0.859544 4.95602 0
M  V30 4551 H 429.335 2.58611 5.27631 0
M  V30 4552 H 430.859 1.832 5.82469 0
M  V30 4553 H 432.273 3.63034 4.43711 0
M  V30 4554 H 430.67 4.35771 4.12582 0
M  V30 4555 H 431.74 3.98536 2.76219 0
M  V30 4556 N 433.083 -1.0153 1.20538 0
M  V30 4557 C 434.031 -2.12215 0.952235 0
M  V30 4558 C 435.025 -1.69123 -0.0968735 0
M  V30 4559 O 436.231 -1.7992 0.0536006 0
M  V30 4560 H 432.606 -0.693576 0.290613 0
M  V30 4561 H 434.577 -2.3075 1.89201 0
M  V30 4562 C 433.326 -3.43755 0.522287 0
M  V30 4563 H 432.649 -3.7734 1.32115 0
M  V30 4564 H 434.089 -4.22254 0.384389 0
M  V30 4565 C 432.548 -3.28088 -0.765489 0
M  V30 4566 O 433.078 -3.57921 -1.8236 0
M  V30 4567 N 431.284 -2.81333 -0.728011 0
M  V30 4568 H 430.831 -2.57255 0.133332 0
M  V30 4569 H 430.789 -2.71232 -1.58999 0
M  V30 4570 N 434.561 -1.01147 -1.20859 0
M  V30 4571 C 435.493 -0.535546 -2.22855 0
M  V30 4572 C 436.506 0.379323 -1.58319 0
M  V30 4573 O 437.695 0.178489 -1.77605 0
M  V30 4574 C 434.795 0.240962 -3.38042 0
M  V30 4575 C 433.968 -0.674562 -4.32167 0
M  V30 4576 C 433.027 0.053467 -5.26173 0
M  V30 4577 O 432.053 -0.567339 -5.66366 0
M  V30 4578 N 433.255 1.32997 -5.65059 0
M  V30 4579 H 436.02 -1.41268 -2.64317 0
M  V30 4580 H 433.581 -0.888386 -1.35349 0
M  V30 4581 H 435.573 0.737115 -3.97931 0
M  V30 4582 H 434.143 1.01935 -2.95513 0
M  V30 4583 H 433.363 -1.35111 -3.70322 0
M  V30 4584 H 434.651 -1.2974 -4.91981 0
M  V30 4585 H 434.049 1.85536 -5.34409 0
M  V30 4586 H 432.606 1.77095 -6.2728 0
M  V30 4587 N 436.039 1.36541 -0.78704 0
M  V30 4588 C 437.45 1.81873 -0.421807 0
M  V30 4589 C 437.801 1.65487 1.05397 0
M  V30 4590 O 436.926 1.17448 1.81755 0
M  V30 4591 C 437.521 3.30192 -0.758841 0
M  V30 4592 C 436.08 3.73743 -0.446468 0
M  V30 4593 C 435.227 2.58844 -0.994728 0
M  V30 4594 H 438.178 1.24796 -0.98039 0
M  V30 4595 H 438.199 3.80468 -0.0490648 0
M  V30 4596 H 437.711 3.42087 -1.83299 0
M  V30 4597 H 435.812 3.6741 0.619739 0
M  V30 4598 H 435.925 4.69272 -0.965415 0
M  V30 4599 H 434.289 2.51245 -0.418087 0
M  V30 4600 H 435.072 2.73525 -2.07458 0
M  V30 4601 N 437.518 0.538854 1.48102 0
M  V30 4602 C 438.448 -0.207654 2.32575 0
M  V30 4603 C 439.429 -0.926559 1.4265 0
M  V30 4604 O 440.614 -0.91061 1.71527 0
M  V30 4605 C 437.744 -1.24957 3.24042 0
M  V30 4606 C 436.698 -0.648263 4.23062 0
M  V30 4607 C 436.024 -1.79348 5.03725 0
M  V30 4608 C 437.324 0.385897 5.20872 0
M  V30 4609 H 439.018 0.497534 2.95237 0
M  V30 4610 H 436.564 0.240715 1.41974 0
M  V30 4611 H 438.517 -1.77983 3.81969 0
M  V30 4612 H 437.241 -1.98446 2.59397 0
M  V30 4613 H 435.9 -0.139452 3.66335 0
M  V30 4614 H 435.548 -2.51696 4.35498 0
M  V30 4615 H 435.248 -1.39702 5.70751 0
M  V30 4616 H 436.772 -2.32735 5.64506 0
M  V30 4617 H 438.186 -0.057607 5.73271 0
M  V30 4618 H 436.583 0.700227 5.96001 0
M  V30 4619 H 437.653 1.28848 4.67468 0
M  V30 4620 N 438.996 -1.55193 0.274407 0
M  V30 4621 C 439.959 -2.212 -0.600279 0
M  V30 4622 C 440.959 -1.18963 -1.08187 0
M  V30 4623 O 442.149 -1.43873 -0.982158 0
M  V30 4624 C 439.281 -2.87739 -1.82809 0
M  V30 4625 H 440.474 -2.9989 -0.0239682 0
M  V30 4626 H 438.027 -1.5628 0.0250192 0
M  V30 4627 H 438.762 -2.13058 -2.44493 0
M  V30 4628 H 438.547 -3.62658 -1.49069 0
M  V30 4629 H 440.037 -3.38171 -2.45011 0
M  V30 4630 N 440.474 -0.00167713 -1.576 0
M  V30 4631 C 441.437 0.974046 -2.07473 0
M  V30 4632 C 442.437 1.27143 -0.984444 0
M  V30 4633 O 443.627 1.21633 -1.24703 0
M  V30 4634 C 440.759 2.29849 -2.51759 0
M  V30 4635 H 441.952 0.54262 -2.9495 0
M  V30 4636 H 439.505 0.245829 -1.54355 0
M  V30 4637 H 440.24 2.77677 -1.67529 0
M  V30 4638 H 440.025 2.09584 -3.31386 0
M  V30 4639 H 441.515 2.9984 -2.90664 0
M  V30 4640 N 441.952 1.55251 0.271103 0
M  V30 4641 C 443.201 1.75151 1.00025 0
M  V30 4642 C 443.514 0.561041 1.87381 0
M  V30 4643 O 444.72 0.642506 2.63788 0
M  V30 4644 C 443.176 3.09999 1.82835 0
M  V30 4645 C 442.784 4.3662 1.00336 0
M  V30 4646 C 444.528 3.39249 2.55168 0
M  V30 4647 C 442.435 5.62506 1.82595 0
M  V30 4648 H 441.365 0.652877 0.377183 0
M  V30 4649 H 444.016 1.81708 0.255843 0
M  V30 4650 H 442.398 2.97485 2.61378 0
M  V30 4651 H 443.572 4.60055 0.261959 0
M  V30 4652 H 441.887 4.14527 0.394486 0
M  V30 4653 H 444.484 4.3051 3.1712 0
M  V30 4654 H 444.827 2.59467 3.2555 0
M  V30 4655 H 445.36 3.52869 1.83653 0
M  V30 4656 H 442.099 6.45041 1.16631 0
M  V30 4657 H 441.619 5.43211 2.54327 0
M  V30 4658 H 443.298 6.00875 2.39913 0
M  V30 4659 N 443.43 -0.535701 1.48216 0
M  V30 4660 C 444.655 -1.32149 1.59848 0
M  V30 4661 C 445.08 -1.86338 0.256842 0
M  V30 4662 O 444.438 -1.64107 -0.770632 0
M  V30 4663 C 444.486 -2.45224 2.64381 0
M  V30 4664 O 443.59 -3.48093 2.21144 0
M  V30 4665 H 442.931 -0.391634 0.536208 0
M  V30 4666 H 445.461 -0.645202 1.94161 0
M  V30 4667 H 445.471 -2.91491 2.85476 0
M  V30 4668 H 444.146 -2.05143 3.61786 0
M  V30 4669 H 442.723 -3.07984 2.10239 0
M  V30 4670 N 444.908 -1.36708 -0.784132 0
M  V30 4671 C 445.856 -1.31533 -1.91838 0
M  V30 4672 C 446.85 -0.206205 -1.6814 0
M  V30 4673 O 448.056 -0.373519 -1.76082 0
M  V30 4674 H 444.431 -0.409613 -0.630651 0
M  V30 4675 H 446.402 -2.2731 -1.9332 0
M  V30 4676 C 445.151 -1.12679 -3.28936 0
M  V30 4677 H 444.474 -1.97274 -3.4774 0
M  V30 4678 H 445.914 -1.13106 -4.08636 0
M  V30 4679 C 444.373 0.168281 -3.36479 0
M  V30 4680 O 444.903 1.15625 -3.84699 0
M  V30 4681 N 443.109 0.214762 -2.89805 0
M  V30 4682 H 442.656 -0.589852 -2.50756 0
M  V30 4683 H 442.614 1.08094 -2.95234 0
M  V30 4684 N 446.386 1.0089 -1.21074 0
M  V30 4685 C 447.616 1.77933 -1.04993 0
M  V30 4686 C 448.024 1.84847 0.403495 0
M  V30 4687 O 447.367 1.30606 1.29181 0
M  V30 4688 C 447.429 3.23541 -1.56722 0
M  V30 4689 C 447.093 3.40214 -3.05129 0
M  V30 4690 C 448.09 3.2881 -4.02716 0
M  V30 4691 C 445.775 3.65781 -3.44252 0
M  V30 4692 C 447.769 3.42732 -5.37414 0
M  V30 4693 C 445.456 3.79346 -4.79103 0
M  V30 4694 C 446.454 3.67827 -5.75493 0
M  V30 4695 O 446.142 3.80965 -7.07899 0
M  V30 4696 H 445.874 0.566157 -0.369381 0
M  V30 4697 H 448.428 1.27826 -1.60779 0
M  V30 4698 H 446.658 3.74766 -0.953285 0
M  V30 4699 H 448.347 3.82245 -1.36543 0
M  V30 4700 H 449.113 3.08986 -3.73835 0
M  V30 4701 H 444.992 3.73831 -2.69762 0
M  V30 4702 H 448.536 3.33658 -6.12632 0
M  V30 4703 H 444.433 3.98672 -5.07672 0
M  V30 4704 H 445.201 3.97937 -7.15254 0
M  V30 4705 N 447.864 1.01787 1.20321 0
M  V30 4706 C 448.797 0.533882 2.21867 0
M  V30 4707 C 449.775 -0.419361 1.57099 0
M  V30 4708 O 450.959 -0.339062 1.85426 0
M  V30 4709 C 448.086 -0.222899 3.37966 0
M  V30 4710 C 447.132 0.680091 4.21043 0
M  V30 4711 S 447.965 2.14997 4.90445 0
M  V30 4712 C 449.121 1.40339 6.09964 0
M  V30 4713 H 449.354 1.39429 2.62577 0
M  V30 4714 H 446.887 0.826867 1.30393 0
M  V30 4715 H 448.845 -0.653425 4.05266 0
M  V30 4716 H 447.506 -1.0589 2.95713 0
M  V30 4717 H 446.699 0.0964704 5.03908 0
M  V30 4718 H 446.301 1.04845 3.59004 0
M  V30 4719 H 448.593 0.68407 6.74038 0
M  V30 4720 H 449.536 2.20823 6.72787 0
M  V30 4721 H 449.944 0.905716 5.57187 0
M  V30 4722 N 449.342 -1.36122 0.79427 0
M  V30 4723 C 450.289 -2.29982 0.194101 0
M  V30 4724 C 451.259 -1.52214 -0.664833 0
M  V30 4725 O 452.444 -1.80702 -0.612498 0
M  V30 4726 C 449.584 -3.38706 -0.661244 0
M  V30 4727 C 448.697 -4.31456 0.216766 0
M  V30 4728 C 447.832 -5.27265 -0.645411 0
M  V30 4729 C 446.871 -6.11653 0.233756 0
M  V30 4730 N 446.008 -6.99636 -0.587682 0
M  V30 4731 H 450.848 -2.80722 0.999965 0
M  V30 4732 H 448.385 -1.38172 0.504677 0
M  V30 4733 H 450.343 -4.00394 -1.17219 0
M  V30 4734 H 448.973 -2.89274 -1.43249 0
M  V30 4735 H 448.025 -3.7088 0.845724 0
M  V30 4736 H 449.337 -4.90724 0.893973 0
M  V30 4737 H 448.491 -5.94266 -1.22198 0
M  V30 4738 H 447.23 -4.68463 -1.35623 0
M  V30 4739 H 446.235 -5.4361 0.82269 0
M  V30 4740 H 447.46 -6.72531 0.942247 0
M  V30 4741 H 445.406 -6.43337 -1.2827 0
M  V30 4742 H 445.323 -7.55993 0.0317402 0
M  V30 4743 H 446.591 -7.71001 -1.14792 0
M  V30 4744 N 450.82 -0.546701 -1.47814 0
M  V30 4745 C 452.068 -0.0187037 -2.02091 0
M  V30 4746 C 452.389 1.33168 -1.42447 0
M  V30 4747 O 451.659 1.86619 -0.595839 0
M  V30 4748 H 450.239 -0.00392531 -0.74699 0
M  V30 4749 H 452.901 -0.714327 -1.81338 0
M  V30 4750 H 451.997 0.0772219 -3.12004 0
M  V30 4751 N 452.299 1.55045 -0.282633 0
M  V30 4752 C 453.524 2.04628 0.337977 0
M  V30 4753 C 453.949 1.15937 1.48123 0
M  V30 4754 O 453.307 0.159532 1.80597 0
M  V30 4755 C 453.355 3.51854 0.78936 0
M  V30 4756 O 452.459 3.66236 1.89592 0
M  V30 4757 H 451.8 0.660434 0.0687261 0
M  V30 4758 H 454.33 2.00261 -0.419124 0
M  V30 4759 H 454.34 3.93361 1.08311 0
M  V30 4760 H 453.015 4.15873 -0.0470419 0
M  V30 4761 H 451.592 3.36633 1.60413 0
M  V30 4762 N 453.777 0.010035 1.57597 0
M  V30 4763 C 455.193 -0.346164 1.55801 0
M  V30 4764 C 455.393 -1.74144 1.01371 0
M  V30 4765 O 454.449 -2.43938 0.651968 0
M  V30 4766 C 455.762 -0.212216 2.9995 0
M  V30 4767 C 457.31 -0.286409 3.11687 0
M  V30 4768 C 457.785 -0.18147 4.5764 0
M  V30 4769 N 459.276 -0.239056 4.62583 0
M  V30 4770 C 460.011 -0.181351 5.73113 0
M  V30 4771 N 459.507 -0.073661 6.92761 0
M  V30 4772 N 461.3 -0.233949 5.61613 0
M  V30 4773 H 453.451 0.922657 1.91313 0
M  V30 4774 H 455.714 0.354595 0.879185 0
M  V30 4775 H 455.42 0.748169 3.4365 0
M  V30 4776 H 455.294 -0.990224 3.6397 0
M  V30 4777 H 457.681 -1.23724 2.67911 0
M  V30 4778 H 457.762 0.521645 2.50425 0
M  V30 4779 H 457.406 0.765863 5.02093 0
M  V30 4780 H 457.336 -1.00814 5.1686 0
M  V30 4781 H 459.827 -0.32321 3.76515 0
M  V30 4782 H 460.14 -0.0358003 7.72792 0
M  V30 4783 H 458.485 -0.0391461 6.94989 0
M  V30 4784 H 461.676 -0.316347 4.6703 0
M  V30 4785 H 461.849 -0.185514 6.47734 0
M  V30 4786 N 455.255 -1.55392 -0.262866 0
M  V30 4787 C 456.671 -1.47459 -0.610582 0
M  V30 4788 C 456.871 -0.697031 -1.8906 0
M  V30 4789 O 455.927 -0.219952 -2.5154 0
M  V30 4790 C 457.24 -2.91751 -0.728131 0
M  V30 4791 C 458.788 -3.02027 -0.821517 0
M  V30 4792 C 459.263 -4.47594 -0.97076 0
M  V30 4793 N 460.754 -4.51465 -1.03603 0
M  V30 4794 C 461.489 -5.61326 -1.17049 0
M  V30 4795 N 460.985 -6.81032 -1.2715 0
M  V30 4796 N 462.778 -5.49089 -1.20239 0
M  V30 4797 H 454.929 -2.04395 0.577632 0
M  V30 4798 H 457.192 -0.927287 0.197086 0
M  V30 4799 H 456.898 -3.51413 0.142132 0
M  V30 4800 H 456.772 -3.4134 -1.6052 0
M  V30 4801 H 459.159 -2.42456 -1.68224 0
M  V30 4802 H 459.24 -2.55674 0.0803688 0
M  V30 4803 H 458.884 -5.07771 -0.114655 0
M  V30 4804 H 458.814 -4.91613 -1.88745 0
M  V30 4805 H 461.305 -3.6524 -0.96996 0
M  V30 4806 H 461.618 -7.60511 -1.37271 0
M  V30 4807 H 459.963 -6.83824 -1.24136 0
M  V30 4808 H 463.154 -4.54507 -1.11985 0
M  V30 4809 H 463.327 -6.34749 -1.30373 0
M  V30 4810 N 456.733 0.527833 -1.48498 0
M  V30 4811 C 457.663 1.64136 -1.66077 0
M  V30 4812 C 458.644 1.62286 -0.509625 0
M  V30 4813 O 459.829 1.79449 -0.742413 0
M  V30 4814 C 456.959 3.02717 -1.70234 0
M  V30 4815 C 455.913 3.19426 -2.8487 0
M  V30 4816 C 455.239 4.5909 -2.74118 0
M  V30 4817 C 456.539 3.01993 -4.26142 0
M  V30 4818 H 458.233 1.4968 -2.593 0
M  V30 4819 H 455.779 0.718654 -1.24785 0
M  V30 4820 H 457.732 3.80491 -1.8112 0
M  V30 4821 H 456.456 3.18201 -0.735911 0
M  V30 4822 H 455.115 2.4407 -2.73542 0
M  V30 4823 H 454.763 4.71413 -1.7544 0
M  V30 4824 H 454.463 4.71214 -3.51042 0
M  V30 4825 H 455.987 5.3896 -2.86974 0
M  V30 4826 H 457.401 3.69558 -4.38292 0
M  V30 4827 H 455.798 3.2561 -5.04082 0
M  V30 4828 H 456.868 1.98396 -4.42456 0
M  V30 4829 N 458.211 1.37122 0.776871 0
M  V30 4830 C 459.141 1.35164 1.90402 0
M  V30 4831 C 460.122 0.221069 1.68657 0
M  V30 4832 O 461.307 0.420642 1.8959 0
M  V30 4833 C 458.437 1.15274 3.27611 0
M  V30 4834 C 457.391 2.25289 3.63908 0
M  V30 4835 C 456.717 1.90527 4.99603 0
M  V30 4836 C 458.017 3.67446 3.71188 0
M  V30 4837 H 459.711 2.29482 1.92297 0
M  V30 4838 H 457.257 1.10465 0.923773 0
M  V30 4839 H 459.21 1.12536 4.06096 0
M  V30 4840 H 457.934 0.174102 3.26136 0
M  V30 4841 H 456.593 2.27174 2.87728 0
M  V30 4842 H 456.241 0.91206 4.94662 0
M  V30 4843 H 455.941 2.64193 5.24858 0
M  V30 4844 H 457.465 1.89367 5.80493 0
M  V30 4845 H 458.879 3.67719 4.39836 0
M  V30 4846 H 457.276 4.40123 4.07936 0
M  V30 4847 H 458.346 4.01443 2.71977 0
M  V30 4848 N 459.689 -1.00246 1.21608 0
M  V30 4849 C 460.652 -2.07233 0.979133 0
M  V30 4850 C 461.652 -1.6072 -0.0508219 0
M  V30 4851 O 462.842 -1.73196 0.186712 0
M  V30 4852 C 459.974 -3.37546 0.477016 0
M  V30 4853 H 461.167 -2.29687 1.92831 0
M  V30 4854 H 458.72 -1.17261 1.03342 0
M  V30 4855 H 459.455 -3.20773 -0.476966 0
M  V30 4856 H 459.24 -3.72638 1.21997 0
M  V30 4857 H 460.73 -4.16285 0.331181 0
M  V30 4858 N 461.167 -1.02423 -1.1978 0
M  V30 4859 C 462.415 -0.716569 -1.8897 0
M  V30 4860 C 462.736 0.756769 -1.79716 0
M  V30 4861 O 462.006 1.5449 -1.20456 0
M  V30 4862 H 460.586 -0.262062 -0.699523 0
M  V30 4863 H 463.248 -1.29747 -1.45436 0
M  V30 4864 H 462.344 -1.00675 -2.95417 0
M  V30 4865 N 462.645 1.35699 -0.801477 0
M  V30 4866 C 463.87 2.03687 -0.390678 0
M  V30 4867 C 464.295 1.60015 0.988778 0
M  V30 4868 O 463.653 0.774357 1.63931 0
M  V30 4869 C 463.701 3.57439 -0.476404 0
M  V30 4870 O 462.805 4.09208 0.512106 0
M  V30 4871 H 462.146 0.64344 -0.163956 0
M  V30 4872 H 464.676 1.73403 -1.08594 0
M  V30 4873 H 464.686 4.06544 -0.344357 0
M  V30 4874 H 463.361 3.88576 -1.48262 0
M  V30 4875 H 461.938 3.7134 0.340721 0
M  V30 4876 N 464.123 0.554532 1.47522 0
M  V30 4877 C 465.348 0.0322661 2.07375 0
M  V30 4878 C 465.773 -1.25079 1.40488 0
M  V30 4879 O 465.131 -1.74859 0.47896 0
M  V30 4880 C 465.179 -0.149397 3.6029 0
M  V30 4881 O 464.283 -1.21259 3.9417 0
M  V30 4882 H 463.624 0.0501228 0.662106 0
M  V30 4883 H 466.154 0.769452 1.8958 0
M  V30 4884 H 466.164 -0.364437 4.06369 0
M  V30 4885 H 464.839 0.787743 4.08372 0
M  V30 4886 H 463.416 -0.97825 3.5984 0
M  V30 4887 N 465.601 -1.54893 0.290851 0
M  V30 4888 C 466.878 -1.91991 -0.373989 0
M  V30 4889 C 467.258 -1.21694 -1.72493 0
M  V30 4890 O 466.606 -0.34917 -2.25816 0
M  V30 4891 C 466.816 -3.45419 -0.498703 0
M  V30 4892 C 468.164 -4.1748 -0.774298 0
M  V30 4893 O 469.188 -3.51398 -0.582908 0
M  V30 4894 O 468.047 -5.3445 -1.14129 0
M  V30 4895 H 465.141 -0.800593 -0.207315 0
M  V30 4896 H 467.687 -1.66297 0.338164 0
M  V30 4897 H 466.459 -3.88688 0.451392 0
M  V30 4898 H 466.082 -3.77117 -1.25972 0
M  V30 4899 N 467.08 -0.0183926 -1.57589 0
M  V30 4900 C 468.491 0.521927 -1.79256 0
M  V30 4901 C 468.842 1.72885 -0.927636 0
M  V30 4902 O 467.967 2.15978 -0.135091 0
M  V30 4903 C 468.562 0.953632 -3.25102 0
M  V30 4904 C 467.121 1.43913 -3.47801 0
M  V30 4905 C 466.268 0.398837 -2.74417 0
M  V30 4906 H 469.219 -0.244485 -1.56805 0
M  V30 4907 H 469.24 1.81863 -3.34224 0
M  V30 4908 H 468.752 0.0750123 -3.88028 0
M  V30 4909 H 466.853 2.33804 -2.90115 0
M  V30 4910 H 466.966 1.45391 -4.56507 0
M  V30 4911 H 465.33 0.864572 -2.39577 0
M  V30 4912 H 466.113 -0.471132 -3.40052 0
M  V30 4913 N 468.558 1.5553 0.254621 0
M  V30 4914 C 469.506 1.9048 1.33492 0
M  V30 4915 C 470.5 0.78304 1.50216 0
M  V30 4916 O 471.706 0.967582 1.51782 0
M  V30 4917 H 468.081 0.604846 0.44684 0
M  V30 4918 H 470.052 2.80688 1.01275 0
M  V30 4919 C 468.801 2.20928 2.68489 0
M  V30 4920 H 468.124 3.06742 2.56417 0
M  V30 4921 H 469.564 2.49291 3.42972 0
M  V30 4922 C 468.023 1.023 3.20993 0
M  V30 4923 O 468.553 0.267027 4.00811 0
M  V30 4924 N 466.759 0.815714 2.78917 0
M  V30 4925 H 466.306 1.43217 2.14119 0
M  V30 4926 H 466.264 0.0236532 3.14391 0
M  V30 4927 N 470.036 -0.519951 1.48776 0
M  V30 4928 C 471.264 -1.29971 1.60982 0
M  V30 4929 C 471.679 -1.86803 0.273885 0
M  V30 4930 O 471.036 -1.66904 -0.738193 0
M  V30 4931 C 471.087 -2.44346 2.66415 0
M  V30 4932 O 470.808 -1.89855 3.94825 0
M  V30 4933 C 472.309 -3.36014 2.89153 0
M  V30 4934 H 469.529 -0.394891 0.542496 0
M  V30 4935 H 472.073 -0.626214 1.94676 0
M  V30 4936 H 470.228 -3.07562 2.35552 0
M  V30 4937 H 470.642 -2.64798 4.5275 0
M  V30 4938 H 472.116 -4.12593 3.66703 0
M  V30 4939 H 472.593 -3.91859 1.98351 0
M  V30 4940 H 473.199 -2.78582 3.21359 0
M  V30 4941 N 471.514 -1.37532 -0.769588 0
M  V30 4942 C 472.925 -1.29382 -1.346 0
M  V30 4943 C 473.276 0.0576039 -1.96115 0
M  V30 4944 O 472.401 0.95947 -1.93967 0
M  V30 4945 C 472.996 -2.34298 -2.44724 0
M  V30 4946 C 471.555 -2.29776 -2.98128 0
M  V30 4947 C 470.702 -2.18013 -1.71364 0
M  V30 4948 H 473.653 -1.48123 -0.56968 0
M  V30 4949 H 473.674 -1.99089 -3.24259 0
M  V30 4950 H 473.186 -3.32645 -1.99922 0
M  V30 4951 H 471.287 -1.34959 -3.47299 0
M  V30 4952 H 471.4 -3.23276 -3.53595 0
M  V30 4953 H 469.764 -1.64595 -1.94372 0
M  V30 4954 H 470.547 -3.18278 -1.28662 0
M  V30 4955 N 472.992 0.995999 -1.22138 0
M  V30 4956 C 473.939 2.08551 -0.988687 0
M  V30 4957 C 474.909 1.65864 0.0885021 0
M  V30 4958 O 476.094 1.90704 -0.0604589 0
M  V30 4959 C 473.234 3.40374 -0.569191 0
M  V30 4960 C 472.347 3.96421 -1.71681 0
M  V30 4961 C 471.482 5.1639 -1.2456 0
M  V30 4962 C 470.521 5.64567 -2.36497 0
M  V30 4963 N 469.658 6.75777 -1.90445 0
M  V30 4964 H 474.498 2.2779 -1.92135 0
M  V30 4965 H 472.035 1.1168 -0.957388 0
M  V30 4966 H 473.993 4.16068 -0.307166 0
M  V30 4967 H 472.623 3.21145 0.326462 0
M  V30 4968 H 471.675 3.17628 -2.09324 0
M  V30 4969 H 472.987 4.2816 -2.55891 0
M  V30 4970 H 472.141 5.99362 -0.940774 0
M  V30 4971 H 470.88 4.86266 -0.373662 0
M  V30 4972 H 469.885 4.80185 -2.67772 0
M  V30 4973 H 471.11 5.96716 -3.24202 0
M  V30 4974 H 469.056 6.47443 -1.05609 0
M  V30 4975 H 468.973 7.06818 -2.68223 0
M  V30 4976 H 470.241 7.62262 -1.63022 0
M  V30 4977 N 474.47 1.03057 1.19235 0
M  V30 4978 C 475.716 0.729098 1.89241 0
M  V30 4979 C 476.049 -0.740573 1.79525 0
M  V30 4980 O 475.324 -1.53946 1.18874 0
M  V30 4981 C 475.607 1.18304 3.40112 0
M  V30 4982 C 475.46 2.71406 3.5869 0
M  V30 4983 C 476.779 0.765161 4.33397 0
M  V30 4984 H 473.898 0.266338 0.687192 0
M  V30 4985 H 476.54 1.28079 1.40341 0
M  V30 4986 H 474.69 0.713672 3.81889 0
M  V30 4987 H 476.362 3.26303 3.26074 0
M  V30 4988 H 474.605 3.11717 3.01687 0
M  V30 4989 H 475.276 2.98225 4.64506 0
M  V30 4990 H 477.752 1.16889 3.99345 0
M  V30 4991 H 476.628 1.11065 5.37546 0
M  V30 4992 H 476.889 -0.332372 4.40849 0
M  V30 4993 N 475.948 -1.35272 0.808662 0
M  V30 4994 C 476.858 -2.33546 0.222079 0
M  V30 4995 C 477.874 -1.6196 -0.636011 0
M  V30 4996 O 479.05 -1.93822 -0.547274 0
M  V30 4997 C 476.115 -3.41148 -0.61795 0
M  V30 4998 C 475.176 -4.28507 0.260875 0
M  V30 4999 C 474.409 -5.3097 -0.539156 0
M  V30 5000 O 474.632 -5.42123 -1.77367 0
M  V30 5001 O 473.566 -6.01858 0.0710526 0
M  V30 5002 H 477.392 -2.85515 1.03512 0
M  V30 5003 H 474.977 -1.38079 0.570495 0
M  V30 5004 H 476.859 -4.06889 -1.09634 0
M  V30 5005 H 475.534 -2.91447 -1.40855 0
M  V30 5006 H 474.441 -3.6574 0.786451 0
M  V30 5007 H 475.774 -4.81611 1.01547 0
M  V30 5008 N 477.426 -0.562348 -1.47226 0
M  V30 5009 C 478.651 -0.0432632 -2.07355 0
M  V30 5010 C 479.076 1.24332 -1.41149 0
M  V30 5011 O 478.434 1.74603 -0.488226 0
M  V30 5012 C 478.482 0.130288 -3.60365 0
M  V30 5013 O 477.586 1.19166 -3.94808 0
M  V30 5014 H 476.927 -0.0536334 -0.66183 0
M  V30 5015 H 479.457 -0.779495 -1.89169 0
M  V30 5016 H 479.467 0.342881 -4.06557 0
M  V30 5017 H 478.142 -0.809389 -4.07948 0
M  V30 5018 H 476.719 0.959153 -3.60354 0
M  V30 5019 N 478.904 1.54736 -0.299062 0
M  V30 5020 C 479.867 2.22127 0.565012 0
M  V30 5021 C 480.867 1.20669 1.06281 0
M  V30 5022 O 482.057 1.45417 0.959145 0
M  V30 5023 C 479.189 2.90611 1.78208 0
M  V30 5024 H 480.382 2.99891 -0.0237448 0
M  V30 5025 H 477.935 1.5622 -0.0498788 0
M  V30 5026 H 478.67 2.16921 2.41072 0
M  V30 5027 H 478.455 3.64984 1.43281 0
M  V30 5028 H 479.945 3.42026 2.396 0
M  V30 5029 N 480.382 0.0267497 1.57577 0
M  V30 5030 C 481.312 -0.954308 2.13108 0
M  V30 5031 C 482.293 -1.34088 1.04663 0
M  V30 5032 O 483.478 -1.41992 1.32484 0
M  V30 5033 C 480.608 -2.23744 2.65624 0
M  V30 5034 C 479.562 -1.99168 3.78835 0
M  V30 5035 C 478.888 -3.33726 4.17769 0
M  V30 5036 C 480.188 -1.33277 5.0501 0
M  V30 5037 H 481.882 -0.491848 2.95332 0
M  V30 5038 H 479.428 -0.23514 1.42067 0
M  V30 5039 H 481.381 -2.92754 3.03106 0
M  V30 5040 H 480.105 -2.72151 1.80558 0
M  V30 5041 H 478.764 -1.32577 3.41788 0
M  V30 5042 H 478.412 -3.79888 3.29688 0
M  V30 5043 H 478.112 -3.18089 4.94058 0
M  V30 5044 H 479.636 -4.04008 4.57832 0
M  V30 5045 H 481.05 -1.92283 5.40093 0
M  V30 5046 H 479.447 -1.28045 5.8628 0
M  V30 5047 H 480.517 -0.305411 4.83937 0
M  V30 5048 N 481.861 -1.55662 -0.24637 0
M  V30 5049 C 483.138 -1.68272 -0.997198 0
M  V30 5050 C 483.518 -0.566785 -2.03349 0
M  V30 5051 O 482.866 0.429688 -2.24424 0
M  V30 5052 C 483.076 -3.08594 -1.63006 0
M  V30 5053 C 484.424 -3.6721 -2.13171 0
M  V30 5054 O 485.448 -3.11397 -1.72946 0
M  V30 5055 O 484.307 -4.65054 -2.87031 0
M  V30 5056 H 481.401 -0.684429 -0.464205 0
M  V30 5057 H 483.947 -1.67993 -0.240114 0
M  V30 5058 H 482.719 -3.81264 -0.880527 0
M  V30 5059 H 482.342 -3.12886 -2.45333 0
M  V30 5060 N 483.339 0.512053 -1.4905 0
M  V30 5061 C 484.755 0.84224 -1.35567 0
M  V30 5062 C 484.955 1.97878 -0.380319 0
M  V30 5063 O 484.011 2.51769 0.19201 0
M  V30 5064 C 485.324 1.19286 -2.76028 0
M  V30 5065 C 486.872 1.30171 -2.84648 0
M  V30 5066 C 487.347 1.68568 -4.25851 0
M  V30 5067 N 488.838 1.75638 -4.28609 0
M  V30 5068 C 489.573 2.06769 -5.34821 0
M  V30 5069 N 489.069 2.36201 -6.51292 0
M  V30 5070 N 490.862 2.07927 -5.22229 0
M  V30 5071 H 483.013 -0.237574 -2.11067 0
M  V30 5072 H 485.276 -0.0436747 -0.946993 0
M  V30 5073 H 484.982 0.431199 -3.49047 0
M  V30 5074 H 484.856 2.13889 -3.10695 0
M  V30 5075 H 487.243 2.05411 -2.11873 0
M  V30 5076 H 487.324 0.336457 -2.53578 0
M  V30 5077 H 486.968 0.938824 -4.99148 0
M  V30 5078 H 486.898 2.66174 -4.54377 0
M  V30 5079 H 489.389 1.55097 -3.44606 0
M  V30 5080 H 489.702 2.59112 -7.28066 0
M  V30 5081 H 488.047 2.33681 -6.54536 0
M  V30 5082 H 491.238 1.84403 -4.30248 0
M  V30 5083 H 491.411 2.31856 -6.05101 0
M  V30 5084 N 484.817 1.37938 0.762283 0
M  V30 5085 C 485.78 1.34279 1.85747 0
M  V30 5086 C 486.78 0.244969 1.58923 0
M  V30 5087 O 487.97 0.501365 1.66829 0
M  V30 5088 C 485.102 1.08833 3.23061 0
M  V30 5089 H 486.295 2.31705 1.90401 0
M  V30 5090 H 483.848 1.23105 0.963057 0
M  V30 5091 H 484.583 0.119767 3.24079 0
M  V30 5092 H 484.368 1.88306 3.43923 0
M  V30 5093 H 485.858 1.08946 4.03138 0
M  V30 5094 N 486.295 -0.989507 1.22664 0
M  V30 5095 C 487.258 -2.06183 1.00106 0
M  V30 5096 C 488.258 -1.60765 -0.0337726 0
M  V30 5097 O 489.448 -1.72989 0.205072 0
M  V30 5098 C 486.58 -3.37021 0.51279 0
M  V30 5099 H 487.773 -2.27629 1.95256 0
M  V30 5100 H 485.326 -1.16158 1.0458 0
M  V30 5101 H 486.061 -3.21261 -0.442917 0
M  V30 5102 H 485.846 -3.71323 1.25942 0
M  V30 5103 H 487.336 -4.1591 0.375315 0
M  V30 5104 N 487.773 -1.03688 -1.18687 0
M  V30 5105 C 488.683 -0.634908 -2.25845 0
M  V30 5106 C 489.699 0.337065 -1.70704 0
M  V30 5107 O 490.875 0.192943 -2.00474 0
M  V30 5108 C 487.94 -0.000180054 -3.467 0
M  V30 5109 C 487.001 -1.02067 -4.1699 0
M  V30 5110 C 486.234 -0.41614 -5.32075 0
M  V30 5111 O 486.457 0.778712 -5.65059 0
M  V30 5112 O 485.391 -1.14296 -5.90948 0
M  V30 5113 H 489.217 -1.52757 -2.62486 0
M  V30 5114 H 486.802 -0.807533 -1.25695 0
M  V30 5115 H 488.684 0.353342 -4.19916 0
M  V30 5116 H 487.359 0.866367 -3.11891 0
M  V30 5117 H 486.266 -1.42592 -3.45859 0
M  V30 5118 H 487.599 -1.85786 -4.5579 0
M  V30 5119 N 489.251 1.34841 -0.815825 0
M  V30 5120 C 490.183 2.28409 -0.190265 0
M  V30 5121 C 491.196 1.50705 0.615771 0
M  V30 5122 O 492.385 1.72822 0.446616 0
M  V30 5123 C 489.485 3.30441 0.752446 0
M  V30 5124 C 488.658 4.37399 -0.00922152 0
M  V30 5125 C 487.717 5.19234 0.853351 0
M  V30 5126 O 486.743 5.68404 0.300919 0
M  V30 5127 N 487.945 5.38248 2.17416 0
M  V30 5128 H 490.71 2.82732 -0.994114 0
M  V30 5129 H 488.271 1.47289 -0.672129 0
M  V30 5130 H 490.263 3.82084 1.33394 0
M  V30 5131 H 488.833 2.76565 1.45707 0
M  V30 5132 H 488.053 3.86567 -0.771979 0
M  V30 5133 H 489.341 5.05992 -0.533807 0
M  V30 5134 H 488.739 4.99961 2.6468 0
M  V30 5135 H 487.296 5.93035 2.70467 0
M  V30 5136 N 490.729 0.570148 1.46925 0
M  V30 5137 C 491.692 -0.159933 2.28641 0
M  V30 5138 C 492.692 -0.830638 1.37685 0
M  V30 5139 O 493.882 -0.684516 1.60187 0
M  V30 5140 C 491.014 -1.2354 3.17727 0
M  V30 5141 H 492.207 0.558035 2.94662 0
M  V30 5142 H 489.76 0.327603 1.52828 0
M  V30 5143 H 490.495 -1.98535 2.56426 0
M  V30 5144 H 490.28 -0.759125 3.84681 0
M  V30 5145 H 491.77 -1.74782 3.79264 0
M  V30 5146 N 492.207 -1.54576 0.307264 0
M  V30 5147 C 493.137 -2.26708 -0.55907 0
M  V30 5148 C 494.118 -1.26893 -1.1328 0
M  V30 5149 O 495.303 -1.55677 -1.16097 0
M  V30 5150 C 492.433 -3.01259 -1.72801 0
M  V30 5151 C 491.387 -4.08275 -1.28435 0
M  V30 5152 C 490.713 -4.70575 -2.53895 0
M  V30 5153 C 492.013 -5.2068 -0.411038 0
M  V30 5154 H 493.707 -2.9937 0.042576 0
M  V30 5155 H 491.253 -1.43983 0.0219173 0
M  V30 5156 H 493.206 -3.50444 -2.34023 0
M  V30 5157 H 491.93 -2.26187 -2.356 0
M  V30 5158 H 490.589 -3.59949 -0.695161 0
M  V30 5159 H 490.237 -3.92136 -3.15021 0
M  V30 5160 H 489.937 -5.42854 -2.24908 0
M  V30 5161 H 491.461 -5.22527 -3.15908 0
M  V30 5162 H 492.875 -5.65721 -0.929097 0
M  V30 5163 H 491.272 -5.99716 -0.214664 0
M  V30 5164 H 492.342 -4.81629 0.562287 0
M  V30 5165 N 493.685 -0.035106 -1.57561 0
M  V30 5166 C 495.101 0.321334 -1.56332 0
M  V30 5167 C 495.301 1.72509 -1.04129 0
M  V30 5168 O 494.357 2.4287 -0.690694 0
M  V30 5169 C 495.67 0.164469 -3.0025 0
M  V30 5170 C 497.218 0.236786 -3.12103 0
M  V30 5171 C 497.693 0.10864 -4.57871 0
M  V30 5172 N 499.184 0.165433 -4.62904 0
M  V30 5173 C 499.919 0.0901506 -5.73329 0
M  V30 5174 N 499.415 -0.0365606 -6.9279 0
M  V30 5175 N 501.208 0.144572 -5.61914 0
M  V30 5176 H 493.359 -0.952976 -1.89821 0
M  V30 5177 H 495.622 -0.368537 -0.873432 0
M  V30 5178 H 495.328 -0.802746 -3.42416 0
M  V30 5179 H 495.202 0.932194 -3.655 0
M  V30 5180 H 497.589 1.19446 -2.69845 0
M  V30 5181 H 497.67 -0.561419 -2.49563 0
M  V30 5182 H 497.314 -0.845644 -5.00811 0
M  V30 5183 H 497.244 0.925786 -5.18398 0
M  V30 5184 H 499.735 0.263269 -3.76982 0
M  V30 5185 H 500.048 -0.0871487 -7.72751 0
M  V30 5186 H 498.393 -0.0714256 -6.94963 0
M  V30 5187 H 501.584 0.242006 -4.67474 0
M  V30 5188 H 501.757 0.0824413 -6.47948 0
M  V30 5189 N 495.163 1.55791 0.238111 0
M  V30 5190 C 496.126 1.90239 1.27835 0
M  V30 5191 C 497.126 0.779552 1.4064 0
M  V30 5192 O 498.316 1.04747 1.3919 0
M  V30 5193 C 495.448 2.13859 2.65475 0
M  V30 5194 H 496.641 2.83262 0.985034 0
M  V30 5195 H 494.194 1.48818 0.477799 0
M  V30 5196 H 494.929 1.23334 2.99932 0
M  V30 5197 H 494.714 2.95643 2.57561 0
M  V30 5198 H 496.204 2.41664 3.40571 0
M  V30 5199 N 496.642 -0.504142 1.49319 0
M  V30 5200 C 497.89 -1.25598 1.58334 0
M  V30 5201 C 498.211 -1.93114 0.270538 0
M  V30 5202 O 497.481 -1.82585 -0.709891 0
M  V30 5203 H 496.061 -0.466571 0.58337 0
M  V30 5204 H 498.723 -0.584547 1.85928 0
M  V30 5205 H 497.819 -2.02159 2.37778 0
M  V30 5206 N 498.12 -1.38341 -0.754957 0
M  V30 5207 C 499.052 -1.31347 -1.87831 0
M  V30 5208 C 500.065 -0.225955 -1.61224 0
M  V30 5209 O 501.254 -0.48341 -1.7183 0
M  V30 5210 C 498.354 -1.01201 -3.23437 0
M  V30 5211 C 497.527 -2.20834 -3.77559 0
M  V30 5212 C 496.586 -1.87454 -4.91678 0
M  V30 5213 O 495.612 -2.59934 -5.06382 0
M  V30 5214 N 496.814 -0.828682 -5.74555 0
M  V30 5215 H 499.579 -2.28147 -1.94342 0
M  V30 5216 H 497.14 -1.32184 -0.934828 0
M  V30 5217 H 499.132 -0.769249 -3.97322 0
M  V30 5218 H 497.702 -0.132011 -3.12321 0
M  V30 5219 H 496.922 -2.61184 -2.95256 0
M  V30 5220 H 498.21 -3.00678 -4.10451 0
M  V30 5221 H 497.608 -0.227591 -5.65242 0
M  V30 5222 H 496.165 -0.645802 -6.48593 0
M  V30 5223 N 499.598 0.982988 -1.23187 0
M  V30 5224 C 500.847 1.71817 -1.05649 0
M  V30 5225 C 501.16 1.91315 0.407176 0
M  V30 5226 O 502.366 2.62256 0.702436 0
M  V30 5227 C 500.822 3.09188 -1.84203 0
M  V30 5228 C 500.43 2.97586 -3.34882 0
M  V30 5229 C 502.174 3.86684 -1.75146 0
M  V30 5230 C 500.081 4.30173 -4.05839 0
M  V30 5231 H 499.011 0.644258 -0.391724 0
M  V30 5232 H 501.662 1.09659 -1.4713 0
M  V30 5233 H 500.044 3.72087 -1.35527 0
M  V30 5234 H 501.218 2.43793 -3.91026 0
M  V30 5235 H 499.533 2.33567 -3.44725 0
M  V30 5236 H 502.13 4.84836 -2.25473 0
M  V30 5237 H 502.473 4.10136 -0.713737 0
M  V30 5238 H 503.006 3.30482 -2.21419 0
M  V30 5239 H 499.745 4.11918 -5.09906 0
M  V30 5240 H 499.265 4.83841 -3.54482 0
M  V30 5241 H 500.944 4.98873 -4.11989 0
M  V30 5242 N 501.076 1.04316 1.18135 0
M  V30 5243 C 502.325 0.74319 1.87509 0
M  V30 5244 C 502.638 -0.732136 1.81381 0
M  V30 5245 O 503.844 -1.14572 2.46141 0
M  V30 5246 C 502.3 1.27913 3.36402 0
M  V30 5247 C 501.908 2.78326 3.51053 0
M  V30 5248 C 503.652 1.0558 4.11161 0
M  V30 5249 C 501.559 3.25266 4.93919 0
M  V30 5250 H 500.489 0.274313 0.702331 0
M  V30 5251 H 503.14 1.25931 1.33467 0
M  V30 5252 H 501.522 0.690853 3.89927 0
M  V30 5253 H 502.696 3.42933 3.07788 0
M  V30 5254 H 501.011 2.991 2.89704 0
M  V30 5255 H 503.608 1.38161 5.16542 0
M  V30 5256 H 503.951 -0.00684729 4.16299 0
M  V30 5257 H 504.484 1.60882 3.63816 0
M  V30 5258 H 501.223 4.30922 4.9395 0
M  V30 5259 H 500.743 2.65396 5.3789 0
M  V30 5260 H 502.422 3.19433 5.62647 0
M  V30 5261 N 502.554 -1.34406 0.822964 0
M  V30 5262 C 503.97 -1.51275 0.508727 0
M  V30 5263 C 504.17 -1.76776 -0.967083 0
M  V30 5264 O 503.226 -1.81871 -1.75155 0
M  V30 5265 C 504.539 -2.67765 1.36829 0
M  V30 5266 C 506.087 -2.81647 1.36542 0
M  V30 5267 C 506.562 -4.01181 2.20947 0
M  V30 5268 N 508.053 -4.08388 2.18571 0
M  V30 5269 C 508.788 -5.00036 2.80627 0
M  V30 5270 N 508.284 -5.96906 3.51674 0
M  V30 5271 N 510.077 -4.92908 2.70181 0
M  V30 5272 H 502.228 -1.16113 1.77852 0
M  V30 5273 H 504.491 -0.56947 0.757897 0
M  V30 5274 H 504.197 -2.55551 2.41633 0
M  V30 5275 H 504.071 -3.62779 1.03303 0
M  V30 5276 H 506.458 -2.93303 0.325163 0
M  V30 5277 H 506.539 -1.87443 1.74066 0
M  V30 5278 H 506.183 -3.90286 3.25022 0
M  V30 5279 H 506.113 -4.94599 1.80774 0
M  V30 5280 H 508.604 -3.39051 1.66891 0
M  V30 5281 H 508.917 -6.63468 3.96271 0
M  V30 5282 H 507.262 -5.9703 3.5578 0
M  V30 5283 H 510.453 -4.1619 2.14251 0
M  V30 5284 H 510.626 -5.64137 3.18831 0
M  V30 5285 N 504.032 -0.577932 -1.46621 0
M  V30 5286 C 505.448 -0.239242 -1.57797 0
M  V30 5287 C 505.648 1.25843 -1.57371 0
M  V30 5288 O 504.704 2.03988 -1.48813 0
M  V30 5289 C 506.017 -0.884227 -2.87405 0
M  V30 5290 C 507.565 -0.857373 -3.01028 0
M  V30 5291 C 508.04 -1.48181 -4.33366 0
M  V30 5292 N 509.531 -1.44593 -4.40053 0
M  V30 5293 C 510.266 -1.89852 -5.41058 0
M  V30 5294 N 509.762 -2.43062 -6.48762 0
M  V30 5295 N 511.555 -1.80797 -5.3223 0
M  V30 5296 H 503.706 -1.55073 -1.45142 0
M  V30 5297 H 505.969 -0.647903 -0.692044 0
M  V30 5298 H 505.675 -1.93759 -2.93514 0
M  V30 5299 H 505.549 -0.389585 -3.75183 0
M  V30 5300 H 507.936 0.187357 -2.94505 0
M  V30 5301 H 508.017 -1.38999 -2.14739 0
M  V30 5302 H 507.661 -2.52572 -4.40647 0
M  V30 5303 H 507.591 -0.924464 -5.18422 0
M  V30 5304 H 510.082 -1.05694 -3.62819 0
M  V30 5305 H 510.395 -2.75466 -7.22038 0
M  V30 5306 H 508.74 -2.47085 -6.49595 0
M  V30 5307 H 511.931 -1.38989 -4.46989 0
M  V30 5308 H 512.104 -2.16385 -6.10804 0
M  V30 5309 N 505.51 1.54411 -0.315457 0
M  V30 5310 C 506.44 2.27002 0.547039 0
M  V30 5311 C 507.421 1.27492 1.12605 0
M  V30 5312 O 508.606 1.5629 1.15269 0
M  V30 5313 C 505.736 3.02171 1.71201 0
M  V30 5314 C 504.69 4.0895 1.26268 0
M  V30 5315 C 504.016 4.71915 2.51396 0
M  V30 5316 C 505.316 5.20891 0.383419 0
M  V30 5317 H 507.01 2.99343 -0.0584517 0
M  V30 5318 H 504.556 1.4397 -0.0295527 0
M  V30 5319 H 506.509 3.51681 2.32161 0
M  V30 5320 H 505.233 2.27433 2.34397 0
M  V30 5321 H 503.892 3.60312 0.676062 0
M  V30 5322 H 503.54 3.93801 3.12937 0
M  V30 5323 H 503.24 5.44039 2.22026 0
M  V30 5324 H 504.764 5.24195 3.13133 0
M  V30 5325 H 506.178 5.66206 0.899082 0
M  V30 5326 H 504.575 5.99821 0.182857 0
M  V30 5327 H 505.645 4.81324 -0.587821 0
M  V30 5328 N 506.988 0.0434614 1.5754 0
M  V30 5329 C 508.404 -0.313039 1.565 0
M  V30 5330 C 508.604 -1.71954 1.05043 0
M  V30 5331 O 507.66 -2.425 0.703564 0
M  V30 5332 C 508.973 -0.148544 3.00333 0
M  V30 5333 C 510.521 -0.220231 3.12224 0
M  V30 5334 C 510.996 -0.0843565 4.57922 0
M  V30 5335 N 512.487 -0.140881 4.62986 0
M  V30 5336 C 513.222 -0.0597443 5.73369 0
M  V30 5337 N 512.718 0.0733004 6.92761 0
M  V30 5338 N 514.511 -0.11477 5.61983 0
M  V30 5339 H 506.662 0.96303 1.89313 0
M  V30 5340 H 508.925 0.373164 0.871466 0
M  V30 5341 H 508.631 0.820894 3.41986 0
M  V30 5342 H 508.505 -0.912798 3.65989 0
M  V30 5343 H 510.892 -1.18014 2.70475 0
M  V30 5344 H 510.973 0.574646 2.49262 0
M  V30 5345 H 510.617 0.872192 5.00355 0
M  V30 5346 H 510.547 -0.898281 5.18882 0
M  V30 5347 H 513.038 -0.243273 3.77116 0
M  V30 5348 H 513.351 0.128128 7.72694 0
M  V30 5349 H 511.696 0.10828 6.94916 0
M  V30 5350 H 514.887 -0.217212 4.67596 0
M  V30 5351 H 515.06 -0.0480779 6.47982 0
M  V30 5352 N 508.466 -1.55915 -0.229846 0
M  V30 5353 C 509.743 -1.6932 -0.979295 0
M  V30 5354 C 510.123 -0.588321 -2.02736 0
M  V30 5355 O 509.471 0.40586 -2.24867 0
M  V30 5356 C 509.681 -3.10305 -1.59724 0
M  V30 5357 C 511.029 -3.6945 -2.09264 0
M  V30 5358 O 512.053 -3.13214 -1.69633 0
M  V30 5359 O 510.912 -4.68072 -2.82082 0
M  V30 5360 H 508.006 -0.689314 -0.456919 0
M  V30 5361 H 510.552 -1.68238 -0.222283 0
M  V30 5362 H 509.324 -3.82177 -0.840039 0
M  V30 5363 H 508.947 -3.1547 -2.42001 0
M  V30 5364 N 509.944 0.496216 -1.49584 0
M  V30 5365 C 511.191 1.25003 -1.59312 0
M  V30 5366 C 511.519 1.92445 -0.28198 0
M  V30 5367 O 510.774 1.81557 0.730452 0
M  V30 5368 C 511.073 2.3359 -2.705 0
M  V30 5369 C 510.739 1.83574 -4.11839 0
M  V30 5370 C 509.401 1.69653 -4.50302 0
M  V30 5371 C 511.753 1.46193 -5.00277 0
M  V30 5372 C 509.081 1.16736 -5.74969 0
M  V30 5373 C 511.433 0.947265 -6.25468 0
M  V30 5374 C 510.097 0.794485 -6.62755 0
M  V30 5375 H 509.367 0.45742 -0.582965 0
M  V30 5376 H 512.014 0.549996 -1.83432 0
M  V30 5377 H 510.319 3.09401 -2.40371 0
M  V30 5378 H 512.016 2.91627 -2.75235 0
M  V30 5379 H 508.606 1.9537 -3.81482 0
M  V30 5380 H 512.79 1.55793 -4.71214 0
M  V30 5381 H 508.046 1.03623 -6.02555 0
M  V30 5382 H 512.22 0.648846 -6.93371 0
M  V30 5383 H 509.847 0.382271 -7.59238 0
M  V30 5384 N 511.423 1.38739 0.74761 0
M  V30 5385 C 512.669 1.35475 1.50912 0
M  V30 5386 C 513.002 -0.0533093 1.94127 0
M  V30 5387 O 512.277 -1.01572 1.65871 0
M  V30 5388 C 512.56 2.31582 2.75757 0
M  V30 5389 C 512.413 3.81274 2.38642 0
M  V30 5390 C 513.732 2.25722 3.77806 0
M  V30 5391 H 510.851 0.493427 0.547447 0
M  V30 5392 H 513.493 1.69634 0.855823 0
M  V30 5393 H 511.643 2.02582 3.31501 0
M  V30 5394 H 513.315 4.20972 1.88626 0
M  V30 5395 H 511.558 3.98664 1.71025 0
M  V30 5396 H 512.229 4.4399 3.27989 0
M  V30 5397 H 514.705 2.51336 3.31616 0
M  V30 5398 H 513.581 2.95069 4.62845 0
M  V30 5399 H 513.842 1.25803 4.23823 0
M  V30 5400 N 512.901 -0.976442 1.23707 0
M  V30 5401 C 513.864 -2.0511 1.02287 0
M  V30 5402 C 514.864 -1.60791 -0.0167195 0
M  V30 5403 O 516.054 -1.72761 0.223408 0
M  V30 5404 C 513.186 -3.36458 0.548507 0
M  V30 5405 H 514.379 -2.25545 1.9766 0
M  V30 5406 H 511.932 -1.15042 1.05806 0
M  V30 5407 H 512.667 -3.21713 -0.408818 0
M  V30 5408 H 512.452 -3.69967 1.29874 0
M  V30 5409 H 513.942 -4.15489 0.419406 0
M  V30 5410 N 514.379 -1.04941 -1.1758 0
M  V30 5411 C 515.795 -0.770282 -1.39781 0
M  V30 5412 C 515.995 0.636417 -1.91186 0
M  V30 5413 O 515.051 1.39923 -2.10185 0
M  V30 5414 C 516.364 -1.82376 -2.3908 0
M  V30 5415 C 517.912 -1.84569 -2.52791 0
M  V30 5416 C 518.387 -2.88933 -3.55361 0
M  V30 5417 N 519.878 -2.8788 -3.62877 0
M  V30 5418 C 520.613 -3.65282 -4.41992 0
M  V30 5419 N 520.109 -4.52461 -5.24643 0
M  V30 5420 N 521.902 -3.53732 -4.36841 0
M  V30 5421 H 514.053 -1.95705 -0.825438 0
M  V30 5422 H 516.316 -0.847284 -0.425222 0
M  V30 5423 H 516.022 -2.83323 -2.08376 0
M  V30 5424 H 515.896 -1.66327 -3.38549 0
M  V30 5425 H 518.283 -0.842879 -2.82807 0
M  V30 5426 H 518.364 -2.04696 -1.53406 0
M  V30 5427 H 518.008 -3.89398 -3.26085 0
M  V30 5428 H 517.938 -2.66059 -4.54445 0
M  V30 5429 H 520.429 -2.24666 -3.03864 0
M  V30 5430 H 520.742 -5.08211 -5.82187 0
M  V30 5431 H 519.087 -4.56524 -5.24033 0
M  V30 5432 H 522.278 -2.85021 -3.71323 0
M  V30 5433 H 522.451 -4.14302 -4.98255 0
M  V30 5434 N 515.857 1.33968 -0.830081 0
M  V30 5435 C 517.105 1.97672 -0.420734 0
M  V30 5436 C 517.426 1.66111 1.02138 0
M  V30 5437 O 516.696 0.955503 1.71017 0
M  V30 5438 H 515.276 0.73125 -0.152587 0
M  V30 5439 H 517.938 1.63483 -1.0611 0
M  V30 5440 H 517.034 3.07294 -0.545588 0
M  V30 5441 N 517.335 0.585699 1.46312 0
M  V30 5442 C 518.245 -0.148236 2.34131 0
M  V30 5443 C 519.261 -0.882972 1.49932 0
M  V30 5444 O 520.437 -0.845484 1.82794 0
M  V30 5445 C 517.502 -1.14714 3.27172 0
M  V30 5446 C 516.563 -0.416746 4.27272 0
M  V30 5447 C 515.796 -1.36806 5.15868 0
M  V30 5448 O 516.019 -2.60475 5.07454 0
M  V30 5449 O 514.953 -0.877018 5.95476 0
M  V30 5450 H 518.779 0.572882 2.98248 0
M  V30 5451 H 516.364 0.346082 1.45336 0
M  V30 5452 H 518.246 -1.72303 3.84564 0
M  V30 5453 H 516.921 -1.84967 2.65648 0
M  V30 5454 H 515.828 0.201061 3.73559 0
M  V30 5455 H 517.161 0.244872 4.9159 0
M  V30 5456 N 518.813 -1.54241 0.323641 0
M  V30 5457 C 520.038 -2.05452 -0.283605 0
M  V30 5458 C 520.463 -1.19823 -1.44997 0
M  V30 5459 O 519.821 -0.207358 -1.8011 0
M  V30 5460 C 519.869 -3.53823 -0.695795 0
M  V30 5461 O 518.973 -3.71134 -1.79815 0
M  V30 5462 H 518.314 -0.662024 -0.0511917 0
M  V30 5463 H 520.844 -1.99079 0.472073 0
M  V30 5464 H 520.854 -3.96094 -0.978434 0
M  V30 5465 H 519.529 -4.15602 0.157287 0
M  V30 5466 H 518.106 -3.40768 -1.51431 0
M  V30 5467 N 520.291 -0.0518155 -1.57515 0
M  V30 5468 C 521.201 0.937539 -2.15052 0
M  V30 5469 C 522.217 1.34121 -1.10849 0
M  V30 5470 O 523.393 1.418 -1.4302 0
M  V30 5471 C 520.458 2.19379 -2.68466 0
M  V30 5472 C 519.519 1.84841 -3.87469 0
M  V30 5473 C 518.752 3.04477 -4.38326 0
M  V30 5474 O 518.975 4.17868 -3.88256 0
M  V30 5475 O 517.909 2.85453 -5.29906 0
M  V30 5476 H 521.735 0.478201 -2.99912 0
M  V30 5477 H 519.32 0.17012 -1.48428 0
M  V30 5478 H 521.202 2.93084 -3.02787 0
M  V30 5479 H 519.877 2.64449 -1.86677 0
M  V30 5480 H 518.784 1.08449 -3.58036 0
M  V30 5481 H 520.117 1.44569 -4.7049 0
M  V30 5482 N 521.769 1.56035 0.221574 0
M  V30 5483 C 522.716 1.92413 1.27459 0
M  V30 5484 C 523.686 0.781323 1.46576 0
M  V30 5485 O 524.871 1.03721 1.60145 0
M  V30 5486 C 522.011 2.24617 2.61995 0
M  V30 5487 C 521.124 3.51831 2.50677 0
M  V30 5488 C 520.259 3.73482 3.77736 0
M  V30 5489 C 519.298 4.94211 3.6114 0
M  V30 5490 N 518.435 5.12252 4.80148 0
M  V30 5491 H 523.275 2.82203 0.957355 0
M  V30 5492 H 520.812 1.39676 0.461415 0
M  V30 5493 H 522.77 2.41298 3.40339 0
M  V30 5494 H 521.4 1.38 2.91815 0
M  V30 5495 H 520.452 3.43343 1.63767 0
M  V30 5496 H 521.764 4.40328 2.34334 0
M  V30 5497 H 520.918 3.9026 4.64523 0
M  V30 5498 H 519.657 2.83266 3.97003 0
M  V30 5499 H 518.662 4.77384 2.72736 0
M  V30 5500 H 519.887 5.85912 3.43343 0
M  V30 5501 H 517.833 4.24978 4.99729 0
M  V30 5502 H 517.75 5.94881 4.66532 0
M  V30 5503 H 519.018 5.33465 5.68362 0
M  V30 5504 N 523.247 -0.488276 1.49845 0
M  V30 5505 C 524.663 -0.820566 1.3689 0
M  V30 5506 C 524.863 -1.97248 0.411752 0
M  V30 5507 O 523.919 -2.52042 -0.151931 0
M  V30 5508 C 525.232 -1.1488 2.77891 0
M  V30 5509 C 526.78 -1.25626 2.86683 0
M  V30 5510 C 527.255 -1.61772 4.28479 0
M  V30 5511 N 528.746 -1.68797 4.31349 0
M  V30 5512 C 529.481 -1.98235 5.38043 0
M  V30 5513 N 528.977 -2.2581 6.54967 0
M  V30 5514 N 530.77 -1.99593 5.2547 0
M  V30 5515 H 522.921 0.271123 2.10662 0
M  V30 5516 H 525.184 0.058735 0.946179 0
M  V30 5517 H 524.89 -0.375614 3.49688 0
M  V30 5518 H 524.764 -2.08919 3.14058 0
M  V30 5519 H 527.151 -2.02014 2.15114 0
M  V30 5520 H 527.232 -0.296072 2.54081 0
M  V30 5521 H 526.876 -0.859295 5.00578 0
M  V30 5522 H 526.806 -2.58912 4.58554 0
M  V30 5523 H 529.297 -1.49595 3.4703 0
M  V30 5524 H 529.61 -2.47497 7.32096 0
M  V30 5525 H 527.955 -2.23239 6.58171 0
M  V30 5526 H 531.146 -1.77535 4.33127 0
M  V30 5527 H 531.319 -2.222 6.08713 0
M  V30 5528 N 524.725 -1.39134 -0.740242 0
M  V30 5529 C 525.971 -1.36273 -1.50192 0
M  V30 5530 C 526.304 0.0430136 -1.94152 0
M  V30 5531 O 525.579 1.00691 -1.66408 0
M  V30 5532 C 525.862 -2.33041 -2.74525 0
M  V30 5533 C 525.715 -3.82535 -2.36617 0
M  V30 5534 C 527.034 -2.27723 -3.76604 0
M  V30 5535 H 524.153 -0.496323 -0.544823 0
M  V30 5536 H 526.795 -1.70085 -0.846815 0
M  V30 5537 H 524.945 -2.04337 -3.30422 0
M  V30 5538 H 526.617 -4.21967 -1.86391 0
M  V30 5539 H 524.86 -3.99565 -1.68909 0
M  V30 5540 H 525.531 -4.45723 -3.2563 0
M  V30 5541 H 528.007 -2.53091 -3.30279 0
M  V30 5542 H 526.883 -2.97519 -4.61274 0
M  V30 5543 H 527.144 -1.28049 -4.2315 0
M  V30 5544 N 526.204 0.969867 -1.24223 0
M  V30 5545 C 527.114 2.09806 -1.0497 0
M  V30 5546 C 528.13 1.73998 0.00886455 0
M  V30 5547 O 529.306 2.00513 -0.188848 0
M  V30 5548 C 526.371 3.40467 -0.654452 0
M  V30 5549 C 525.432 3.90236 -1.78926 0
M  V30 5550 C 524.665 5.14662 -1.41277 0
M  V30 5551 O 524.888 5.69602 -0.301632 0
M  V30 5552 O 523.822 5.58761 -2.23763 0
M  V30 5553 H 527.648 2.28942 -1.99548 0
M  V30 5554 H 525.233 1.08197 -1.03023 0
M  V30 5555 H 527.115 4.19039 -0.445452 0
M  V30 5556 H 525.79 3.22636 0.262216 0
M  V30 5557 H 524.697 3.12735 -2.05299 0
M  V30 5558 H 526.03 4.1254 -2.68462 0
M  V30 5559 N 527.682 1.05563 1.17022 0
M  V30 5560 C 528.907 0.788437 1.91829 0
M  V30 5561 C 529.332 -0.650356 1.76499 0
M  V30 5562 O 528.69 -1.45229 1.08527 0
M  V30 5563 C 528.738 1.1786 3.40795 0
M  V30 5564 O 527.842 0.312965 4.11211 0
M  V30 5565 H 527.183 0.288794 0.597908 0
M  V30 5566 H 529.713 1.40948 1.48307 0
M  V30 5567 H 529.723 1.14697 3.91546 0
M  V30 5568 H 528.398 2.22666 3.51273 0
M  V30 5569 H 526.975 0.405515 3.70689 0
M  V30 5570 N 529.16 -1.33526 0.837174 0
M  V30 5571 C 530.09 -2.31764 0.284206 0
M  V30 5572 C 531.071 -1.58896 -0.607142 0
M  V30 5573 O 532.256 -1.86798 -0.531047 0
M  V30 5574 C 529.386 -3.43029 -0.542962 0
M  V30 5575 C 528.34 -4.27255 0.252451 0
M  V30 5576 C 527.666 -5.3012 -0.69836 0
M  V30 5577 C 528.966 -5.01229 1.46858 0
M  V30 5578 H 530.66 -2.78262 1.10502 0
M  V30 5579 H 528.206 -1.3378 0.532812 0
M  V30 5580 H 530.159 -4.1078 -0.940096 0
M  V30 5581 H 528.883 -2.95216 -1.39697 0
M  V30 5582 H 527.542 -3.61127 0.631124 0
M  V30 5583 H 527.19 -4.78564 -1.54872 0
M  V30 5584 H 526.89 -5.87353 -0.170274 0
M  V30 5585 H 528.414 -6.00737 -1.09305 0
M  V30 5586 H 529.828 -5.61756 1.14469 0
M  V30 5587 H 528.225 -5.68104 1.93333 0
M  V30 5588 H 529.295 -4.301 2.23924 0
M  V30 5589 N 530.638 -0.59345 -1.46 0
M  V30 5590 C 531.863 -0.0872365 -2.07216 0
M  V30 5591 C 532.288 1.2131 -1.43755 0
M  V30 5592 O 531.646 1.73528 -0.525152 0
M  V30 5593 C 531.694 0.0538197 -3.6056 0
M  V30 5594 O 530.798 1.10765 -3.97247 0
M  V30 5595 H 530.139 -0.0676598 -0.660544 0
M  V30 5596 H 532.669 -0.819445 -1.87473 0
M  V30 5597 H 532.679 0.256567 -4.07193 0
M  V30 5598 H 531.354 -0.895739 -4.0614 0
M  V30 5599 H 529.931 0.882501 -3.62307 0
M  V30 5600 N 532.116 1.54067 -0.331816 0
M  V30 5601 C 533.063 2.24623 0.530372 0
M  V30 5602 C 534.033 1.24009 1.10503 0
M  V30 5603 O 535.218 1.52712 1.14384 0
M  V30 5604 C 532.358 3.01374 1.68129 0
M  V30 5605 C 531.471 4.16821 1.13507 0
M  V30 5606 C 530.606 4.81085 2.25234 0
M  V30 5607 C 529.645 5.88621 1.67903 0
M  V30 5608 N 528.782 6.46713 2.73326 0
M  V30 5609 H 533.622 2.97898 -0.0778607 0
M  V30 5610 H 531.159 1.47014 -0.0501965 0
M  V30 5611 H 533.117 3.44125 2.35868 0
M  V30 5612 H 531.747 2.30419 2.26069 0
M  V30 5613 H 530.799 3.78796 0.348979 0
M  V30 5614 H 532.111 4.94203 0.675633 0
M  V30 5615 H 531.265 5.26846 3.00862 0
M  V30 5616 H 530.004 4.03102 2.74518 0
M  V30 5617 H 529.009 5.42254 0.907773 0
M  V30 5618 H 530.234 6.68506 1.19487 0
M  V30 5619 H 528.18 5.71599 3.21886 0
M  V30 5620 H 528.097 7.19532 2.3197 0
M  V30 5621 H 529.365 6.97129 3.48758 0
M  V30 5622 N 533.594 0.0601682 1.57485 0
M  V30 5623 C 534.524 -0.90889 2.15085 0
M  V30 5624 C 535.505 -1.31838 1.07484 0
M  V30 5625 O 536.69 -1.3915 1.35466 0
M  V30 5626 C 533.82 -2.18059 2.7031 0
M  V30 5627 C 532.774 -1.91088 3.82974 0
M  V30 5628 C 532.1 -3.24789 4.24754 0
M  V30 5629 C 533.4 -1.22535 5.07723 0
M  V30 5630 H 535.094 -0.429093 2.96309 0
M  V30 5631 H 532.64 -0.204952 1.42534 0
M  V30 5632 H 534.593 -2.86258 3.09248 0
M  V30 5633 H 533.317 -2.6826 1.8629 0
M  V30 5634 H 531.976 -1.25297 3.44523 0
M  V30 5635 H 531.624 -3.72809 3.37672 0
M  V30 5636 H 531.324 -3.07538 5.00694 0
M  V30 5637 H 532.848 -3.94205 4.66299 0
M  V30 5638 H 534.262 -1.80783 5.4405 0
M  V30 5639 H 532.659 -1.1558 5.88864 0
M  V30 5640 H 533.729 -0.202692 4.84476 0
M  V30 5641 N 535.072 -1.5615 -0.213296 0
M  V30 5642 C 536.321 -1.78743 -0.93455 0
M  V30 5643 C 536.634 -0.630199 -1.8517 0
M  V30 5644 O 537.84 -0.739966 -2.61222 0
M  V30 5645 C 536.296 -3.16571 -1.71203 0
M  V30 5646 C 535.904 -4.40043 -0.840617 0
M  V30 5647 C 537.648 -3.48485 -2.42401 0
M  V30 5648 C 535.555 -5.68895 -1.61592 0
M  V30 5649 H 534.485 -0.666426 -0.352692 0
M  V30 5650 H 537.136 -1.82532 -0.188227 0
M  V30 5651 H 535.518 -3.06981 -2.50157 0
M  V30 5652 H 536.692 -4.6071 -0.0910326 0
M  V30 5653 H 535.007 -4.15706 -0.240365 0
M  V30 5654 H 537.604 -4.41983 -3.00924 0
M  V30 5655 H 537.947 -2.71371 -3.15695 0
M  V30 5656 H 538.48 -3.59442 -1.7043 0
M  V30 5657 H 535.219 -6.48925 -0.926106 0
M  V30 5658 H 534.739 -5.52275 -2.33991 0
M  V30 5659 H 536.418 -6.09365 -2.17447 0
M  V30 5660 N 536.55 0.480323 -1.50102 0
M  V30 5661 C 537.46 1.60547 -1.71061 0
M  V30 5662 C 538.476 1.63564 -0.593529 0
M  V30 5663 O 539.652 1.81604 -0.870751 0
M  V30 5664 C 536.717 2.96814 -1.79171 0
M  V30 5665 C 535.778 3.04259 -3.02861 0
M  V30 5666 C 535.011 4.34027 -3.10574 0
M  V30 5667 O 535.234 5.24009 -2.25323 0
M  V30 5668 O 534.168 4.46873 -4.03223 0
M  V30 5669 H 537.994 1.45788 -2.6642 0
M  V30 5670 H 535.579 0.658838 -1.34088 0
M  V30 5671 H 537.461 3.77765 -1.86738 0
M  V30 5672 H 536.136 3.11791 -0.869947 0
M  V30 5673 H 535.043 2.22419 -3.008 0
M  V30 5674 H 536.376 2.94216 -3.94586 0
M  V30 5675 N 538.028 1.39524 0.732853 0
M  V30 5676 C 538.938 1.40695 1.87729 0
M  V30 5677 C 539.954 0.301496 1.71368 0
M  V30 5678 O 541.13 0.543313 1.93933 0
M  V30 5679 C 538.195 1.25098 3.23344 0
M  V30 5680 C 537.256 2.45634 3.52083 0
M  V30 5681 C 536.489 2.30772 4.81228 0
M  V30 5682 O 536.712 1.31233 5.55098 0
M  V30 5683 O 535.646 3.19799 5.09914 0
M  V30 5684 H 539.472 2.37168 1.89697 0
M  V30 5685 H 537.057 1.20663 0.880959 0
M  V30 5686 H 538.939 1.18541 4.04383 0
M  V30 5687 H 537.614 0.317209 3.22142 0
M  V30 5688 H 536.521 2.57767 2.71122 0
M  V30 5689 H 537.854 3.37712 3.58066 0
M  V30 5690 N 539.506 -0.963266 1.24736 0
M  V30 5691 C 540.469 -2.04013 1.04457 0
M  V30 5692 C 541.469 -1.608 0.000335555 0
M  V30 5693 O 542.659 -1.72515 0.241719 0
M  V30 5694 C 539.791 -3.35858 0.584162 0
M  V30 5695 H 540.984 -2.23436 2.00041 0
M  V30 5696 H 538.537 -1.13914 1.07021 0
M  V30 5697 H 539.272 -3.22128 -0.374673 0
M  V30 5698 H 539.057 -3.68568 1.3379 0
M  V30 5699 H 540.547 -4.1502 0.463451 0
M  V30 5700 N 540.985 -1.06182 -1.16461 0
M  V30 5701 C 542.233 -0.776326 -1.86595 0
M  V30 5702 C 542.554 0.69921 -1.82033 0
M  V30 5703 O 541.824 1.50579 -1.2531 0
M  V30 5704 H 540.404 -0.284184 -0.690832 0
M  V30 5705 H 543.066 -1.34308 -1.41235 0
M  V30 5706 H 542.162 -1.10022 -2.92064 0
M  V30 5707 N 542.463 1.3308 -0.844243 0
M  V30 5708 C 543.426 2.27403 -0.286485 0
M  V30 5709 C 544.426 1.51179 0.547872 0
M  V30 5710 O 545.616 1.70421 0.360886 0
M  V30 5711 C 542.748 3.35653 0.595813 0
M  V30 5712 H 543.941 2.78248 -1.11885 0
M  V30 5713 H 541.494 1.43574 -0.617749 0
M  V30 5714 H 542.229 2.90058 1.4504 0
M  V30 5715 H 542.014 3.921 -0.00125994 0
M  V30 5716 H 543.504 4.05958 0.979168 0
M  V30 5717 N 543.941 0.601185 1.45683 0
M  V30 5718 C 544.871 -0.108824 2.33246 0
M  V30 5719 C 545.852 -0.865223 1.46451 0
M  V30 5720 O 547.037 -0.83704 1.75235 0
M  V30 5721 C 544.167 -1.11101 3.2905 0
M  V30 5722 C 543.121 -0.468244 4.25431 0
M  V30 5723 C 542.447 -1.57822 5.10878 0
M  V30 5724 C 543.747 0.606469 5.18767 0
M  V30 5725 H 545.441 0.622306 2.92861 0
M  V30 5726 H 542.987 0.300714 1.40825 0
M  V30 5727 H 544.94 -1.61622 3.89174 0
M  V30 5728 H 543.664 -1.87265 2.67581 0
M  V30 5729 H 542.323 0.0160484 3.66596 0
M  V30 5730 H 541.971 -2.32998 4.45781 0
M  V30 5731 H 541.671 -1.15369 5.76163 0
M  V30 5732 H 543.195 -2.08583 5.73869 0
M  V30 5733 H 544.609 0.185589 5.73 0
M  V30 5734 H 543.006 0.952381 5.92494 0
M  V30 5735 H 544.076 1.48559 4.61582 0
M  V30 5736 N 545.419 -1.53889 0.339982 0
M  V30 5737 C 546.667 -2.00458 -0.257112 0
M  V30 5738 C 546.988 -1.22953 -1.51353 0
M  V30 5739 O 546.258 -0.335734 -1.93002 0
M  V30 5740 H 544.838 -0.740544 -0.0979965 0
M  V30 5741 H 547.5 -1.89386 0.460317 0
M  V30 5742 H 546.596 -3.08035 -0.502057 0
M  V30 5743 N 546.897 -0.0685191 -1.57451 0
M  V30 5744 C 547.827 0.89747 -2.15564 0
M  V30 5745 C 548.808 1.31266 -1.08181 0
M  V30 5746 O 549.993 1.38429 -1.36202 0
M  V30 5747 C 547.123 2.16623 -2.71463 0
M  V30 5748 C 546.077 1.89054 -3.83982 0
M  V30 5749 C 545.403 3.22532 -4.26471 0
M  V30 5750 C 546.703 1.1984 -5.08366 0
M  V30 5751 H 548.397 0.413373 -2.96533 0
M  V30 5752 H 545.943 0.197391 -1.42641 0
M  V30 5753 H 547.896 2.84614 -3.10761 0
M  V30 5754 H 546.62 2.67269 -1.8771 0
M  V30 5755 H 545.279 1.23469 -3.45183 0
M  V30 5756 H 544.927 3.71013 -3.39644 0
M  V30 5757 H 544.627 3.04879 -5.02317 0
M  V30 5758 H 546.151 3.91727 -4.68383 0
M  V30 5759 H 547.565 1.77896 -5.45001 0
M  V30 5760 H 545.962 1.12456 -5.89469 0
M  V30 5761 H 547.032 0.176996 -4.84577 0
M  V30 5762 N 548.375 1.56261 0.205012 0
M  V30 5763 C 549.338 1.92908 1.23771 0
M  V30 5764 C 550.338 0.809208 1.38955 0
M  V30 5765 O 551.528 1.07676 1.36936 0
M  V30 5766 C 548.66 2.19442 2.60879 0
M  V30 5767 H 549.853 2.85287 0.924728 0
M  V30 5768 H 547.406 1.49798 0.446125 0
M  V30 5769 H 548.141 1.29668 2.97248 0
M  V30 5770 H 547.926 3.0104 2.51232 0
M  V30 5771 H 549.416 2.48833 3.35368 0
M  V30 5772 N 549.853 -0.472356 1.50355 0
M  V30 5773 C 551.101 -1.22211 1.60962 0
M  V30 5774 C 551.422 -1.92497 0.311439 0
M  V30 5775 O 550.692 -1.8405 -0.671002 0
M  V30 5776 H 549.272 -0.454092 0.593135 0
M  V30 5777 H 551.934 -0.544977 1.87126 0
M  V30 5778 H 551.03 -1.9707 2.42012 0
M  V30 5779 N 551.331 -1.39911 -0.725443 0
M  V30 5780 C 552.294 -1.39156 -1.82121 0
M  V30 5781 C 553.294 -0.287018 -1.58218 0
M  V30 5782 O 554.484 -0.545421 -1.65441 0
M  V30 5783 C 551.616 -1.1736 -3.20062 0
M  V30 5784 H 552.809 -2.36672 -1.84191 0
M  V30 5785 H 550.362 -1.25615 -0.930079 0
M  V30 5786 H 551.097 -0.205648 -3.23647 0
M  V30 5787 H 550.882 -1.97358 -3.3881 0
M  V30 5788 H 552.372 -1.19596 -4.00108 0
M  V30 5789 N 552.809 0.956637 -1.25245 0
M  V30 5790 C 554.225 1.22733 -1.02023 0
M  V30 5791 C 554.425 1.99761 0.264186 0
M  V30 5792 O 553.481 2.32814 0.977436 0
M  V30 5793 C 554.794 2.00367 -2.24217 0
M  V30 5794 C 556.342 2.13418 -2.28958 0
M  V30 5795 C 556.817 2.9445 -3.50803 0
M  V30 5796 N 558.308 3.02029 -3.51187 0
M  V30 5797 C 559.043 3.65116 -4.42129 0
M  V30 5798 N 558.539 4.2983 -5.43339 0
M  V30 5799 N 560.332 3.62237 -4.29815 0
M  V30 5800 H 552.483 0.441282 -2.07765 0
M  V30 5801 H 554.746 0.257686 -0.912306 0
M  V30 5802 H 554.452 1.51165 -3.17556 0
M  V30 5803 H 554.326 3.01077 -2.27228 0
M  V30 5804 H 556.713 2.61819 -1.36143 0
M  V30 5805 H 556.794 1.1202 -2.29968 0
M  V30 5806 H 556.438 2.46741 -4.43939 0
M  V30 5807 H 556.368 3.9607 -3.47039 0
M  V30 5808 H 558.859 2.56007 -2.77973 0
M  V30 5809 H 559.172 4.75819 -6.08947 0
M  V30 5810 H 557.517 4.28465 -5.47214 0
M  V30 5811 H 560.708 3.10863 -3.49974 0
M  V30 5812 H 560.881 4.11117 -5.00886 0
M  V30 5813 N 554.287 1.06798 1.15896 0
M  V30 5814 C 555.197 0.694564 2.24083 0
M  V30 5815 C 556.213 -0.291687 1.71538 0
M  V30 5816 O 557.389 -0.139723 2.00915 0
M  V30 5817 C 554.454 0.0921014 3.46578 0
M  V30 5818 C 553.515 1.13087 4.14137 0
M  V30 5819 C 552.748 0.557064 5.30785 0
M  V30 5820 O 552.971 -0.628623 5.66925 0
M  V30 5821 O 551.905 1.29924 5.8771 0
M  V30 5822 H 555.731 1.59663 2.58344 0
M  V30 5823 H 553.316 0.840575 1.2351 0
M  V30 5824 H 555.198 -0.241884 4.20705 0
M  V30 5825 H 553.873 -0.78337 3.14078 0
M  V30 5826 H 552.78 1.51712 3.41957 0
M  V30 5827 H 554.113 1.97805 4.50704 0
M  V30 5828 N 555.766 -1.3263 0.851289 0
M  V30 5829 C 556.698 -2.27824 0.250757 0
M  V30 5830 C 557.711 -1.52285 -0.575598 0
M  V30 5831 O 558.9 -1.73946 -0.400638 0
M  V30 5832 C 556 -3.3232 -0.664571 0
M  V30 5833 C 555.173 -4.37221 0.125187 0
M  V30 5834 C 554.232 -5.21314 -0.715385 0
M  V30 5835 O 553.258 -5.69002 -0.150111 0
M  V30 5836 N 554.46 -5.43823 -2.03069 0
M  V30 5837 H 557.225 -2.79997 1.06873 0
M  V30 5838 H 554.786 -1.45455 0.710943 0
M  V30 5839 H 556.778 -3.85486 -1.23216 0
M  V30 5840 H 555.348 -2.80331 -1.38323 0
M  V30 5841 H 554.568 -3.84384 0.874199 0
M  V30 5842 H 555.856 -5.04399 0.667774 0
M  V30 5843 H 555.254 -5.06803 -2.51332 0
M  V30 5844 H 553.811 -5.99998 -2.54648 0
M  V30 5845 N 557.244 -0.608902 -1.45362 0
M  V30 5846 C 558.192 0.121639 -2.32282 0
M  V30 5847 C 559.186 0.858301 -1.46046 0
M  V30 5848 O 560.392 0.773718 -1.62523 0
M  V30 5849 H 556.767 0.058086 -0.749753 0
M  V30 5850 H 558.738 -0.629866 -2.91677 0
M  V30 5851 C 557.487 1.1047 -3.29684 0
M  V30 5852 H 556.81 0.547278 -3.96036 0
M  V30 5853 H 558.25 1.58576 -3.9323 0
M  V30 5854 C 556.709 2.17891 -2.56954 0
M  V30 5855 O 557.239 3.25652 -2.35189 0
M  V30 5856 N 555.445 1.93211 -2.17066 0
M  V30 5857 H 554.992 1.05584 -2.34967 0
M  V30 5858 H 554.95 2.6529 -1.68727 0
M  V30 5859 N 558.722 1.53707 -0.348139 0
M  V30 5860 C 559.968 2.01286 0.247332 0
M  V30 5861 C 560.301 1.23546 1.49834 0
M  V30 5862 O 559.576 0.324331 1.91777 0
M  V30 5863 C 559.859 3.55768 0.556858 0
M  V30 5864 C 559.712 4.44216 -0.706564 0
M  V30 5865 C 561.031 4.1841 1.3646 0
M  V30 5866 H 558.15 0.731677 0.0884201 0
M  V30 5867 H 560.792 1.84106 -0.469584 0
M  V30 5868 H 558.942 3.70539 1.16761 0
M  V30 5869 H 560.614 4.41274 -1.34444 0
M  V30 5870 H 558.857 4.12892 -1.33052 0
M  V30 5871 H 559.528 5.50202 -0.445186 0
M  V30 5872 H 562.004 4.07365 0.848113 0
M  V30 5873 H 560.88 5.26563 1.54992 0
M  V30 5874 H 561.141 3.7333 2.36805 0
M  V30 5875 N 560.2 0.0768682 1.57412 0
M  V30 5876 C 561.132 -0.918248 2.10002 0
M  V30 5877 C 562.145 -1.25808 1.03325 0
M  V30 5878 O 563.334 -1.21438 1.30824 0
M  V30 5879 C 560.434 -2.23263 2.54964 0
M  V30 5880 C 559.607 -2.07088 3.8527 0
M  V30 5881 C 558.666 -3.21876 4.16272 0
M  V30 5882 O 557.692 -2.96643 4.8579 0
M  V30 5883 N 558.894 -4.4712 3.70221 0
M  V30 5884 H 561.659 -0.469209 2.96004 0
M  V30 5885 H 559.22 -0.108725 1.61535 0
M  V30 5886 H 561.212 -2.9897 2.72762 0
M  V30 5887 H 559.782 -2.59649 1.74072 0
M  V30 5888 H 559.002 -1.15818 3.76802 0
M  V30 5889 H 560.29 -1.93537 4.70554 0
M  V30 5890 H 559.688 -4.70506 3.1407 0
M  V30 5891 H 558.245 -5.19837 3.93209 0
M  V30 5892 N 561.678 -1.56367 -0.196722 0
M  V30 5893 C 562.608 -1.97442 -1.24655 0
M  V30 5894 C 563.589 -0.846147 -1.47561 0
M  V30 5895 O 564.774 -1.11035 -1.59326 0
M  V30 5896 C 561.904 -2.31253 -2.59112 0
M  V30 5897 C 560.858 -3.46804 -2.50821 0
M  V30 5898 C 560.184 -3.66286 -3.89536 0
M  V30 5899 C 561.484 -4.8104 -2.03465 0
M  V30 5900 H 563.178 -2.85388 -0.905216 0
M  V30 5901 H 560.724 -1.37304 -0.434002 0
M  V30 5902 H 562.677 -2.58583 -3.32736 0
M  V30 5903 H 561.401 -1.40188 -2.94983 0
M  V30 5904 H 560.06 -3.19563 -1.79653 0
M  V30 5905 H 559.708 -2.72555 -4.22756 0
M  V30 5906 H 559.408 -4.4402 -3.84864 0
M  V30 5907 H 560.932 -3.9599 -4.64784 0
M  V30 5908 H 562.346 -5.07411 -2.66846 0
M  V30 5909 H 560.743 -5.62232 -2.09798 0
M  V30 5910 H 561.813 -4.74732 -0.98781 0
M  V30 5911 N 563.156 0.464375 -1.50603 0
M  V30 5912 C 564.572 0.798684 -1.38178 0
M  V30 5913 C 564.772 1.96568 -0.44308 0
M  V30 5914 O 563.828 2.52252 0.111814 0
M  V30 5915 C 565.141 1.10444 -2.79683 0
M  V30 5916 C 566.689 1.2105 -2.88645 0
M  V30 5917 C 567.164 1.54934 -4.30998 0
M  V30 5918 N 568.655 1.61913 -4.3398 0
M  V30 5919 C 569.39 1.8965 -5.41129 0
M  V30 5920 N 568.886 2.15361 -6.58477 0
M  V30 5921 N 570.679 1.91207 -5.28579 0
M  V30 5922 H 562.83 -0.304603 -2.10204 0
M  V30 5923 H 565.093 -0.0737804 -0.945125 0
M  V30 5924 H 564.799 0.319934 -3.50242 0
M  V30 5925 H 564.673 2.03896 -3.17342 0
M  V30 5926 H 567.06 1.98567 -2.18301 0
M  V30 5927 H 567.141 0.255613 -2.5452 0
M  V30 5928 H 566.785 0.779549 -5.01882 0
M  V30 5929 H 566.715 2.51584 -4.62615 0
M  V30 5930 H 569.206 1.44055 -3.49366 0
M  V30 5931 H 569.519 2.35818 -7.35941 0
M  V30 5932 H 567.864 2.1274 -6.6164 0
M  V30 5933 H 571.055 1.70622 -4.35897 0
M  V30 5934 H 571.228 2.12488 -6.12171 0
M  V30 5935 N 564.634 1.40294 0.718013 0
M  V30 5936 C 565.881 1.3844 1.47786 0
M  V30 5937 C 566.209 -0.0140838 1.94495 0
M  V30 5938 O 565.464 -0.998165 1.68331 0
M  V30 5939 C 565.763 2.31814 2.72024 0
M  V30 5940 C 565.429 3.79117 2.44093 0
M  V30 5941 C 564.091 4.19249 2.36185 0
M  V30 5942 C 566.443 4.72212 2.20602 0
M  V30 5943 C 563.771 5.50516 2.02851 0
M  V30 5944 C 566.123 6.03775 1.88781 0
M  V30 5945 C 564.787 6.42953 1.79354 0
M  V30 5946 H 564.057 0.506588 0.540786 0
M  V30 5947 H 566.704 1.72929 0.822663 0
M  V30 5948 H 565.009 1.90501 3.42369 0
M  V30 5949 H 566.706 2.27664 3.30106 0
M  V30 5950 H 563.296 3.47318 2.51133 0
M  V30 5951 H 567.48 4.42026 2.25669 0
M  V30 5952 H 562.736 5.79776 1.94088 0
M  V30 5953 H 566.91 6.75428 1.69617 0
M  V30 5954 H 564.537 7.44584 1.53291 0
M  V30 5955 N 566.112 -0.949982 1.2575 0
M  V30 5956 C 567.337 -1.73503 1.13628 0
M  V30 5957 C 567.762 -1.85601 -0.30559 0
M  V30 5958 O 567.12 -1.33984 -1.22139 0
M  V30 5959 C 567.168 -3.1243 1.80055 0
M  V30 5960 O 566.272 -3.97916 1.08336 0
M  V30 5961 H 565.613 -0.532665 0.396439 0
M  V30 5962 H 568.143 -1.19043 1.66403 0
M  V30 5963 H 568.153 -3.62866 1.86527 0
M  V30 5964 H 566.828 -3.02941 2.84956 0
M  V30 5965 H 565.405 -3.56375 1.09777 0
M  V30 5966 N 567.59 -1.07411 -1.15328 0
M  V30 5967 C 568.52 -0.716472 -2.22236 0
M  V30 5968 C 569.501 0.296373 -1.67498 0
M  V30 5969 O 570.686 0.168989 -1.93463 0
M  V30 5970 C 567.816 -0.114142 -3.47112 0
M  V30 5971 C 566.77 -1.05421 -4.14814 0
M  V30 5972 C 566.096 -0.314604 -5.33774 0
M  V30 5973 C 567.396 -2.38808 -4.64508 0
M  V30 5974 H 569.09 -1.61029 -2.52408 0
M  V30 5975 H 566.636 -0.775702 -1.21321 0
M  V30 5976 H 568.589 0.148001 -4.2114 0
M  V30 5977 H 567.313 0.814755 -3.16274 0
M  V30 5978 H 565.972 -1.30128 -3.42728 0
M  V30 5979 H 565.62 0.617772 -4.99192 0
M  V30 5980 H 565.32 -0.941209 -5.80013 0
M  V30 5981 H 566.844 -0.0602747 -6.1057 0
M  V30 5982 H 568.258 -2.18424 -5.3006 0
M  V30 5983 H 566.655 -2.97069 -5.21412 0
M  V30 5984 H 567.725 -3.01067 -3.80114 0
M  V30 5985 N 569.068 1.32177 -0.85831 0
M  V30 5986 C 570.345 1.91781 -0.384624 0
M  V30 5987 C 570.725 1.78171 1.13217 0
M  V30 5988 O 570.073 1.18209 1.95548 0
M  V30 5989 C 570.283 3.38414 -0.853047 0
M  V30 5990 C 571.631 4.15542 -0.872359 0
M  V30 5991 O 572.655 3.47148 -0.797926 0
M  V30 5992 O 571.514 5.37678 -0.978009 0
M  V30 5993 H 568.608 0.819259 -0.112886 0
M  V30 5994 H 571.154 1.40923 -0.945453 0
M  V30 5995 H 569.926 3.4228 -1.89632 0
M  V30 5996 H 569.549 3.96683 -0.269874 0
M  V30 5997 N 570.547 0.616602 1.45037 0
M  V30 5998 C 571.958 0.199359 1.85633 0
M  V30 5999 C 572.309 -1.24588 1.51566 0
M  V30 6000 O 571.434 -1.94594 0.94668 0
M  V30 6001 C 572.029 0.355033 3.36935 0
M  V30 6002 C 570.588 -0.00758748 3.76399 0
M  V30 6003 C 569.735 0.675256 2.68953 0
M  V30 6004 H 572.686 0.822708 1.3571 0
M  V30 6005 H 572.707 -0.410201 3.78282 0
M  V30 6006 H 572.219 1.40699 3.61698 0
M  V30 6007 H 570.32 -1.05837 3.57252 0
M  V30 6008 H 570.433 0.392346 4.77491 0
M  V30 6009 H 568.797 0.111992 2.54454 0
M  V30 6010 H 569.58 1.72952 2.96551 0
M  V30 6011 N 572.025 -1.5352 0.356285 0
M  V30 6012 C 573.273 -2.00719 -0.235837 0
M  V30 6013 C 573.594 -1.24551 -1.5004 0
M  V30 6014 O 572.864 -0.356185 -1.92635 0
M  V30 6015 H 571.444 -0.741542 -0.0901366 0
M  V30 6016 H 574.106 -1.88887 0.480378 0
M  V30 6017 H 573.202 -3.08551 -0.469357 0
M  V30 6018 N 573.503 -0.0852151 -1.57369 0
M  V30 6019 C 574.466 0.8627 -2.12344 0
M  V30 6020 C 575.466 1.21746 -1.05046 0
M  V30 6021 O 576.656 1.14852 -1.30976 0
M  V30 6022 C 573.788 2.1618 -2.63589 0
M  V30 6023 H 574.981 0.385511 -2.97412 0
M  V30 6024 H 572.534 0.163663 -1.55441 0
M  V30 6025 H 573.269 2.68406 -1.82013 0
M  V30 6026 H 573.054 1.91723 -3.4203 0
M  V30 6027 H 574.544 2.84011 -3.06149 0
M  V30 6028 N 574.981 1.5647 0.188427 0
M  V30 6029 C 576.258 1.71857 0.934058 0
M  V30 6030 C 576.638 0.641867 2.01105 0
M  V30 6031 O 575.986 -0.346098 2.25864 0
M  V30 6032 C 576.196 3.14431 1.5144 0
M  V30 6033 C 577.544 3.74869 1.99396 0
M  V30 6034 O 578.568 3.17601 1.61269 0
M  V30 6035 O 577.427 4.75387 2.69573 0
M  V30 6036 H 574.521 0.701186 0.438483 0
M  V30 6037 H 577.067 1.68768 0.177599 0
M  V30 6038 H 575.839 3.8427 0.738416 0
M  V30 6039 H 575.462 3.21775 2.33552 0
M  V30 6040 N 576.459 -0.456382 1.50847 0
M  V30 6041 C 577.389 -1.56025 1.73719 0
M  V30 6042 C 578.37 -1.5967 0.586473 0
M  V30 6043 O 579.555 -1.75702 0.827185 0
M  V30 6044 C 576.685 -2.94251 1.84483 0
M  V30 6045 C 575.639 -3.05471 2.99786 0
M  V30 6046 C 574.965 -4.45489 2.95709 0
M  V30 6047 C 576.265 -2.81318 4.40065 0
M  V30 6048 H 577.959 -1.37138 2.66146 0
M  V30 6049 H 575.505 -0.658299 1.28072 0
M  V30 6050 H 577.458 -3.71417 1.99067 0
M  V30 6051 H 576.182 -3.14328 0.886891 0
M  V30 6052 H 574.841 -2.30741 2.84876 0
M  V30 6053 H 574.489 -4.62505 1.97732 0
M  V30 6054 H 574.189 -4.53929 3.73125 0
M  V30 6055 H 575.713 -5.24655 3.12362 0
M  V30 6056 H 577.127 -3.48226 4.55425 0
M  V30 6057 H 575.524 -3.01188 5.19043 0
M  V30 6058 H 576.594 -1.7706 4.51418 0
M  V30 6059 N 577.937 -1.40673 -0.710563 0
M  V30 6060 C 579.183 -1.39428 -1.47267 0
M  V30 6061 C 579.516 0.00182129 -1.942 0
M  V30 6062 O 578.791 0.971387 -1.68506 0
M  V30 6063 C 579.074 -2.38812 -2.6952 0
M  V30 6064 C 578.927 -3.87467 -2.28449 0
M  V30 6065 C 580.246 -2.3566 -3.71689 0
M  V30 6066 H 577.365 -0.507768 -0.534173 0
M  V30 6067 H 580.007 -1.71843 -0.810547 0
M  V30 6068 H 578.157 -2.113 -3.26013 0
M  V30 6069 H 579.829 -4.25825 -1.77399 0
M  V30 6070 H 578.072 -4.03058 -1.60395 0
M  V30 6071 H 578.743 -4.5253 -3.16103 0
M  V30 6072 H 581.219 -2.6004 -3.24836 0
M  V30 6073 H 580.095 -3.07237 -4.54859 0
M  V30 6074 H 580.356 -1.36996 -4.20339 0
M  V30 6075 N 579.415 0.9433 -1.26252 0
M  V30 6076 C 580.345 2.05902 -1.10122 0
M  V30 6077 C 581.326 1.70099 -0.00700552 0
M  V30 6078 O 582.511 1.93377 -0.178641 0
M  V30 6079 C 579.641 3.39516 -0.731175 0
M  V30 6080 C 578.595 3.89372 -1.77688 0
M  V30 6081 C 577.921 5.19613 -1.26122 0
M  V30 6082 C 579.221 4.14489 -3.17799 0
M  V30 6083 H 580.915 2.19655 -2.03451 0
M  V30 6084 H 578.461 1.05548 -0.979576 0
M  V30 6085 H 580.414 4.17031 -0.605215 0
M  V30 6086 H 579.138 3.25733 0.23782 0
M  V30 6087 H 577.797 3.14036 -1.89148 0
M  V30 6088 H 577.445 5.02208 -0.282128 0
M  V30 6089 H 577.145 5.53939 -1.96023 0
M  V30 6090 H 578.669 5.99713 -1.14789 0
M  V30 6091 H 580.083 4.82625 -3.09428 0
M  V30 6092 H 578.48 4.60094 -3.85271 0
M  V30 6093 H 579.55 3.20347 -3.64014 0
M  V30 6094 N 580.893 1.08022 1.14757 0
M  V30 6095 C 581.856 0.71048 2.1791 0
M  V30 6096 C 582.856 -0.252731 1.58801 0
M  V30 6097 O 584.046 -0.0327915 1.74169 0
M  V30 6098 C 581.178 0.0483203 3.40866 0
M  V30 6099 H 582.371 1.62384 2.52134 0
M  V30 6100 H 579.924 0.877595 1.29337 0
M  V30 6101 H 580.659 -0.876959 3.12218 0
M  V30 6102 H 580.444 0.741189 3.85031 0
M  V30 6103 H 581.934 -0.195471 4.17142 0
M  V30 6104 N 582.371 -1.3172 0.865308 0
M  V30 6105 C 583.648 -1.91574 0.394789 0
M  V30 6106 C 584.028 -1.78769 -1.12271 0
M  V30 6107 O 583.376 -1.19245 -1.94918 0
M  V30 6108 C 583.586 -3.37957 0.870982 0
M  V30 6109 C 584.934 -4.15073 0.894384 0
M  V30 6110 O 585.958 -3.4672 0.816325 0
M  V30 6111 O 584.817 -5.37151 1.00651 0
M  V30 6112 H 581.911 -0.818649 0.117229 0
M  V30 6113 H 584.457 -1.4042 0.952913 0
M  V30 6114 H 583.229 -3.41269 1.91444 0
M  V30 6115 H 582.852 -3.96534 0.290907 0
M  V30 6116 N 583.85 -0.624285 -1.44708 0
M  V30 6117 C 585.266 -0.289322 -1.56956 0
M  V30 6118 C 585.466 1.20773 -1.61295 0
M  V30 6119 O 584.522 1.9915 -1.55227 0
M  V30 6120 C 585.835 -0.975215 -2.84447 0
M  V30 6121 C 587.383 -0.952709 -2.98148 0
M  V30 6122 C 587.858 -1.61893 -4.28433 0
M  V30 6123 N 589.349 -1.5852 -4.35231 0
M  V30 6124 C 590.084 -2.06969 -5.34744 0
M  V30 6125 N 589.58 -2.63579 -6.40701 0
M  V30 6126 N 591.373 -1.97638 -5.26209 0
M  V30 6127 H 583.524 -1.59612 -1.40135 0
M  V30 6128 H 585.787 -0.669592 -0.671081 0
M  V30 6129 H 585.493 -2.02999 -2.87201 0
M  V30 6130 H 585.367 -0.508749 -3.73753 0
M  V30 6131 H 587.754 0.093568 -2.94952 0
M  V30 6132 H 587.835 -1.4576 -2.10209 0
M  V30 6133 H 587.479 -2.66463 -4.32389 0
M  V30 6134 H 587.409 -1.08893 -5.15218 0
M  V30 6135 H 589.899 -1.17183 -3.59272 0
M  V30 6136 H 590.213 -2.98298 -7.12908 0
M  V30 6137 H 588.558 -2.67626 -6.41406 0
M  V30 6138 H 591.749 -1.5314 -4.42341 0
M  V30 6139 H 591.922 -2.35708 -6.03611 0
M  V30 6140 N 585.328 1.53329 -0.364422 0
M  V30 6141 C 586.574 2.01537 0.225969 0
M  V30 6142 C 586.907 1.25128 1.48515 0
M  V30 6143 O 586.182 0.344653 1.91422 0
M  V30 6144 C 586.465 3.56339 0.519092 0
M  V30 6145 C 586.318 4.43441 -0.753639 0
M  V30 6146 C 587.637 4.19833 1.32015 0
M  V30 6147 H 584.756 0.732573 0.0806548 0
M  V30 6148 H 587.398 1.83597 -0.489084 0
M  V30 6149 H 585.548 3.71756 1.12825 0
M  V30 6150 H 587.22 4.39823 -1.39116 0
M  V30 6151 H 585.463 4.11457 -1.37424 0
M  V30 6152 H 586.134 5.49699 -0.503517 0
M  V30 6153 H 588.61 4.08242 0.804859 0
M  V30 6154 H 587.486 5.28177 1.49399 0
M  V30 6155 H 587.747 3.75821 2.32832 0
M  V30 6156 N 586.806 0.0935595 1.57322 0
M  V30 6157 C 587.738 -0.895923 2.10964 0
M  V30 6158 C 588.751 -1.24705 1.04654 0
M  V30 6159 O 589.94 -1.20044 1.32105 0
M  V30 6160 C 587.04 -2.20546 2.57318 0
M  V30 6161 C 586.213 -2.0299 3.87445 0
M  V30 6162 C 585.272 -3.17443 4.19662 0
M  V30 6163 O 584.298 -2.91474 4.88909 0
M  V30 6164 N 585.5 -4.43168 3.74943 0
M  V30 6165 H 588.265 -0.437788 2.96485 0
M  V30 6166 H 585.826 -0.0915863 1.61641 0
M  V30 6167 H 587.818 -2.9606 2.75917 0
M  V30 6168 H 586.388 -2.57789 1.76816 0
M  V30 6169 H 585.608 -1.11815 3.78009 0
M  V30 6170 H 586.896 -1.88535 4.7258 0
M  V30 6171 H 586.294 -4.67149 3.19043 0
M  V30 6172 H 584.851 -5.15637 3.987 0
M  V30 6173 N 588.284 -1.56567 -0.180126 0
M  V30 6174 C 589.533 -1.80685 -0.896426 0
M  V30 6175 C 589.846 -0.669335 -1.83791 0
M  V30 6176 O 591.052 -0.795209 -2.59593 0
M  V30 6177 C 589.508 -3.20132 -1.6445 0
M  V30 6178 C 589.116 -4.41727 -0.747088 0
M  V30 6179 C 590.86 -3.53549 -2.34955 0
M  V30 6180 C 588.767 -5.72195 -1.49489 0
M  V30 6181 H 587.697 -0.673758 -0.338477 0
M  V30 6182 H 590.348 -1.8289 -0.149467 0
M  V30 6183 H 588.73 -3.12218 -2.43589 0
M  V30 6184 H 589.904 -4.608 0.00671129 0
M  V30 6185 H 588.219 -4.16122 -0.152134 0
M  V30 6186 H 590.816 -4.48267 -2.91481 0
M  V30 6187 H 591.159 -2.78006 -3.09868 0
M  V30 6188 H 591.692 -3.62976 -1.62768 0
M  V30 6189 H 588.431 -6.50743 -0.788251 0
M  V30 6190 H 587.951 -5.57115 -2.22224 0
M  V30 6191 H 589.63 -6.1384 -2.04472 0
M  V30 6192 N 589.762 0.448376 -1.51087 0
M  V30 6193 C 590.694 1.56146 -1.67783 0
M  V30 6194 C 591.707 1.52913 -0.55871 0
M  V30 6195 O 592.896 1.57889 -0.83267 0
M  V30 6196 C 589.996 2.95057 -1.66716 0
M  V30 6197 C 589.169 3.22915 -2.95033 0
M  V30 6198 C 588.228 4.41495 -2.86302 0
M  V30 6199 O 587.254 4.40688 -3.60254 0
M  V30 6200 N 588.456 5.44443 -2.014 0
M  V30 6201 H 591.221 1.42232 -2.638 0
M  V30 6202 H 588.782 0.637153 -1.48835 0
M  V30 6203 H 590.774 3.72388 -1.58458 0
M  V30 6204 H 589.344 3.02624 -0.783403 0
M  V30 6205 H 588.564 2.33985 -3.17245 0
M  V30 6206 H 589.852 3.38349 -3.79996 0
M  V30 6207 H 589.25 5.4793 -1.40674 0
M  V30 6208 H 587.807 6.2067 -1.99029 0
M  V30 6209 N 591.24 1.41047 0.703093 0
M  V30 6210 C 592.172 1.38228 1.82827 0
M  V30 6211 C 593.185 0.285637 1.60275 0
M  V30 6212 O 594.374 0.54685 1.69917 0
M  V30 6213 C 591.474 1.13136 3.19458 0
M  V30 6214 C 590.647 2.34695 3.69103 0
M  V30 6215 C 589.706 2.05574 4.84382 0
M  V30 6216 O 588.732 2.78549 4.96386 0
M  V30 6217 N 589.934 1.04135 5.71083 0
M  V30 6218 H 592.699 2.35203 1.85741 0
M  V30 6219 H 590.26 1.35562 0.885125 0
M  V30 6220 H 592.252 0.916183 3.94193 0
M  V30 6221 H 590.822 0.247836 3.11616 0
M  V30 6222 H 590.042 2.71963 2.85359 0
M  V30 6223 H 591.33 3.15705 3.99009 0
M  V30 6224 H 590.728 0.43722 5.64008 0
M  V30 6225 H 589.285 0.886078 6.45749 0
M  V30 6226 N 592.718 -0.936591 1.26751 0
M  V30 6227 C 593.964 -1.6858 1.12733 0
M  V30 6228 C 594.297 -1.91414 -0.327745 0
M  V30 6229 O 593.572 -1.49812 -1.24043 0
M  V30 6230 C 593.855 -3.05779 1.90187 0
M  V30 6231 C 593.708 -2.90242 3.43627 0
M  V30 6232 C 595.027 -4.0597 1.69931 0
M  V30 6233 H 592.146 -0.61182 0.410908 0
M  V30 6234 H 594.788 -1.08747 1.55801 0
M  V30 6235 H 592.938 -3.56853 1.53584 0
M  V30 6236 H 594.61 -2.46354 3.9001 0
M  V30 6237 H 592.853 -2.2577 3.70419 0
M  V30 6238 H 593.524 -3.87572 3.93055 0
M  V30 6239 H 596 -3.63874 2.0183 0
M  V30 6240 H 594.876 -4.99974 2.26534 0
M  V30 6241 H 595.137 -4.37369 0.64502 0
M  V30 6242 N 594.196 -1.08629 -1.14182 0
M  V30 6243 C 595.126 -0.740003 -2.21464 0
M  V30 6244 C 596.107 0.278591 -1.67803 0
M  V30 6245 O 597.292 0.148461 -1.93632 0
M  V30 6246 C 594.422 -0.150952 -3.46972 0
M  V30 6247 C 593.376 -1.09815 -4.13672 0
M  V30 6248 C 592.702 -0.3712 -5.3341 0
M  V30 6249 C 594.002 -2.43722 -4.61949 0
M  V30 6250 H 595.696 -1.63697 -2.50686 0
M  V30 6251 H 593.242 -0.788526 -1.20492 0
M  V30 6252 H 595.195 0.103325 -4.21273 0
M  V30 6253 H 593.919 0.781164 -3.1712 0
M  V30 6254 H 592.578 -1.33756 -3.41328 0
M  V30 6255 H 592.226 0.564792 -4.99819 0
M  V30 6256 H 591.926 -1.00267 -5.78982 0
M  V30 6257 H 593.45 -0.12503 -6.10472 0
M  V30 6258 H 594.864 -2.24034 -5.27714 0
M  V30 6259 H 593.261 -3.02582 -5.18232 0
M  V30 6260 H 594.331 -3.05082 -3.76899 0
M  V30 6261 N 595.674 1.31259 -0.872281 0
M  V30 6262 C 596.92 1.96913 -0.485083 0
M  V30 6263 C 597.253 1.68774 0.960667 0
M  V30 6264 O 596.528 0.985495 1.67685 0
M  V30 6265 C 596.811 3.52299 -0.745502 0
M  V30 6266 C 596.664 3.90002 -2.24095 0
M  V30 6267 C 597.983 4.39582 -0.213516 0
M  V30 6268 H 595.102 0.715252 -0.177716 0
M  V30 6269 H 597.744 1.55347 -1.09395 0
M  V30 6270 H 595.894 3.87835 -0.227276 0
M  V30 6271 H 597.566 3.64555 -2.82661 0
M  V30 6272 H 595.809 3.38526 -2.71261 0
M  V30 6273 H 596.48 4.98352 -2.37381 0
M  V30 6274 H 598.956 4.10882 -0.656902 0
M  V30 6275 H 597.832 5.47251 -0.42516 0
M  V30 6276 H 598.093 4.33158 0.884666 0
M  V30 6277 N 597.152 0.631951 1.44375 0
M  V30 6278 C 598.1 -0.0846693 2.32446 0
M  V30 6279 C 599.094 -0.834957 1.47393 0
M  V30 6280 O 600.3 -0.747764 1.63733 0
M  V30 6281 H 596.675 -0.0461508 0.750583 0
M  V30 6282 H 598.646 0.67619 2.90638 0
M  V30 6283 C 597.395 -1.05211 3.314 0
M  V30 6284 H 596.718 -0.484203 3.96857 0
M  V30 6285 H 598.158 -1.523 3.95703 0
M  V30 6286 C 596.617 -2.13776 2.60387 0
M  V30 6287 O 597.147 -3.21869 2.4034 0
M  V30 6288 N 595.353 -1.89733 2.20113 0
M  V30 6289 H 594.9 -1.01833 2.36618 0
M  V30 6290 H 594.858 -2.62572 1.72926 0
M  V30 6291 N 598.631 -1.53133 0.372548 0
M  V30 6292 C 599.561 -2.28876 -0.462412 0
M  V30 6293 C 600.542 -1.31583 -1.07796 0
M  V30 6294 O 601.727 -1.60461 -1.09389 0
M  V30 6295 C 598.857 -3.08317 -1.59868 0
M  V30 6296 C 597.811 -4.13355 -1.11003 0
M  V30 6297 C 597.137 -4.8092 -2.33708 0
M  V30 6298 C 598.437 -5.21955 -0.18983 0
M  V30 6299 H 600.131 -2.9892 0.169511 0
M  V30 6300 H 597.677 -1.43761 0.0829658 0
M  V30 6301 H 599.63 -3.60055 -2.18949 0
M  V30 6302 H 598.354 -2.35976 -2.25794 0
M  V30 6303 H 597.013 -3.62573 -0.541869 0
M  V30 6304 H 596.661 -4.05144 -2.98106 0
M  V30 6305 H 596.361 -5.51904 -2.01682 0
M  V30 6306 H 597.885 -5.35455 -2.93462 0
M  V30 6307 H 599.299 -5.69153 -0.688319 0
M  V30 6308 H 597.696 -6.00087 0.0398887 0
M  V30 6309 H 598.766 -4.78811 0.766057 0
M  V30 6310 N 600.109 -0.101901 -1.5727 0
M  V30 6311 C 601.356 0.560197 -1.94597 0
M  V30 6312 C 601.684 1.67767 -0.984101 0
M  V30 6313 O 600.939 1.95699 -0.00489193 0
M  V30 6314 C 601.238 1.14898 -3.38427 0
M  V30 6315 C 600.904 0.154613 -4.50635 0
M  V30 6316 C 599.566 -0.118861 -4.81053 0
M  V30 6317 C 601.918 -0.523979 -5.18559 0
M  V30 6318 C 599.246 -1.0775 -5.76721 0
M  V30 6319 C 601.598 -1.47114 -6.15256 0
M  V30 6320 C 600.262 -1.75278 -6.44076 0
M  V30 6321 H 599.532 0.204991 -0.712081 0
M  V30 6322 H 602.179 -0.17918 -1.9066 0
M  V30 6323 H 600.484 1.96476 -3.38976 0
M  V30 6324 H 602.181 1.66909 -3.64613 0
M  V30 6325 H 598.771 0.377948 -4.2693 0
M  V30 6326 H 602.955 -0.325851 -4.95229 0
M  V30 6327 H 598.211 -1.30263 -5.97362 0
M  V30 6328 H 602.385 -2.00274 -6.66981 0
M  V30 6329 H 600.012 -2.49717 -7.18015 0
M  V30 6330 N 601.587 1.56661 0.17182 0
M  V30 6331 C 603.003 1.50768 0.52357 0
M  V30 6332 C 603.203 0.806072 1.84675 0
M  V30 6333 O 602.259 0.366233 2.4983 0
M  V30 6334 C 603.572 2.955 0.556793 0
M  V30 6335 C 605.12 3.06303 0.644029 0
M  V30 6336 C 605.595 4.52492 0.708148 0
M  V30 6337 N 607.086 4.56737 0.771051 0
M  V30 6338 C 607.821 5.67196 0.841229 0
M  V30 6339 N 607.317 6.87287 0.872272 0
M  V30 6340 N 609.11 5.55165 0.88021 0
M  V30 6341 H 601.261 2.00679 -0.695817 0
M  V30 6342 H 603.524 0.914219 -0.250814 0
M  V30 6343 H 603.23 3.49986 -0.346774 0
M  V30 6344 H 603.104 3.50119 1.40346 0
M  V30 6345 H 605.491 2.51851 1.53802 0
M  V30 6346 H 605.572 2.5477 -0.229297 0
M  V30 6347 H 605.216 5.07575 -0.181585 0
M  V30 6348 H 605.146 5.01781 1.59761 0
M  V30 6349 H 607.637 3.70274 0.755364 0
M  V30 6350 H 607.95 7.6722 0.92698 0
M  V30 6351 H 606.295 6.89898 0.840557 0
M  V30 6352 H 609.486 4.60263 0.852956 0
M  V30 6353 H 609.659 6.41271 0.931439 0
M  V30 6354 N 603.065 -0.440357 1.51323 0
M  V30 6355 C 604.013 -1.55492 1.72988 0
M  V30 6356 C 605.007 -1.58564 0.596138 0
M  V30 6357 O 606.213 -1.62345 0.777443 0
M  V30 6358 H 602.588 -0.516532 0.546533 0
M  V30 6359 H 604.559 -1.34392 2.66423 0
M  V30 6360 C 603.308 -2.93176 1.86931 0
M  V30 6361 H 602.631 -2.91543 2.73574 0
M  V30 6362 H 604.071 -3.70537 2.06103 0
M  V30 6363 C 602.53 -3.30988 0.628365 0
M  V30 6364 O 603.06 -4.01106 -0.218367 0
M  V30 6365 N 601.266 -2.86719 0.473339 0
M  V30 6366 H 600.813 -2.2983 1.16345 0
M  V30 6367 H 600.771 -3.12381 -0.355727 0
M  V30 6368 N 604.543 -1.41418 -0.695603 0
M  V30 6369 C 605.506 -1.42988 -1.79129 0
M  V30 6370 C 606.506 -0.320514 -1.57573 0
M  V30 6371 O 607.696 -0.58039 -1.64247 0
M  V30 6372 C 604.828 -1.24122 -3.175 0
M  V30 6373 H 606.021 -2.40526 -1.7913 0
M  V30 6374 H 603.574 -1.2756 -0.903225 0
M  V30 6375 H 604.309 -0.274253 -3.23138 0
M  V30 6376 H 604.094 -2.045 -3.34547 0
M  V30 6377 H 605.584 -1.28056 -3.97481 0
M  V30 6378 N 606.021 0.929856 -1.27246 0
M  V30 6379 C 606.951 2.04722 -1.12299 0
M  V30 6380 C 607.932 1.70082 -0.0250464 0
M  V30 6381 O 609.117 1.93176 -0.199141 0
M  V30 6382 C 606.247 3.38721 -0.767145 0
M  V30 6383 C 605.201 3.87466 -1.81808 0
M  V30 6384 C 604.527 5.18246 -1.31626 0
M  V30 6385 C 605.827 4.11095 -3.22177 0
M  V30 6386 H 607.521 2.17485 -2.05769 0
M  V30 6387 H 605.067 1.04503 -0.990715 0
M  V30 6388 H 607.02 4.16366 -0.649413 0
M  V30 6389 H 605.744 3.25967 0.203259 0
M  V30 6390 H 604.403 3.12012 -1.92468 0
M  V30 6391 H 604.051 5.01881 -0.335378 0
M  V30 6392 H 603.751 5.51829 -2.01887 0
M  V30 6393 H 605.275 5.98462 -1.21143 0
M  V30 6394 H 606.689 4.79316 -3.1453 0
M  V30 6395 H 605.086 4.55982 -3.90129 0
M  V30 6396 H 606.156 3.16468 -3.67391 0
M  V30 6397 N 607.499 1.09233 1.13605 0
M  V30 6398 C 608.409 0.741939 2.22559 0
M  V30 6399 C 609.425 -0.255236 1.72118 0
M  V30 6400 O 610.601 -0.0970747 2.01166 0
M  V30 6401 C 607.666 0.165595 3.46304 0
M  V30 6402 C 606.727 1.21846 4.11645 0
M  V30 6403 C 605.96 0.669526 5.29484 0
M  V30 6404 O 606.183 -0.508228 5.68131 0
M  V30 6405 O 605.117 1.42361 5.84822 0
M  V30 6406 H 608.943 1.65107 2.54899 0
M  V30 6407 H 606.528 0.866584 1.21699 0
M  V30 6408 H 608.41 -0.152592 4.21124 0
M  V30 6409 H 607.085 -0.716573 3.15669 0
M  V30 6410 H 605.992 1.58931 3.38662 0
M  V30 6411 H 607.325 2.07321 4.46407 0
M  V30 6412 N 608.977 -1.30795 0.87923 0
M  V30 6413 C 609.94 -2.26563 0.346676 0
M  V30 6414 C 610.94 -1.52578 -0.507597 0
M  V30 6415 O 612.13 -1.71318 -0.315575 0
M  V30 6416 C 609.262 -3.37115 -0.506611 0
M  V30 6417 H 610.455 -2.75183 1.19223 0
M  V30 6418 H 608.008 -1.41886 0.655598 0
M  V30 6419 H 608.743 -2.93802 -1.37299 0
M  V30 6420 H 608.528 -3.91959 0.105218 0
M  V30 6421 H 610.018 -4.08412 -0.871192 0
M  V30 6422 N 610.455 -0.639598 -1.44038 0
M  V30 6423 C 611.388 0.109736 -2.27936 0
M  V30 6424 C 612.366 0.843095 -1.39035 0
M  V30 6425 O 613.55 0.845456 -1.68476 0
M  V30 6426 C 610.677 1.16173 -3.18153 0
M  V30 6427 C 609.723 0.527954 -4.2322 0
M  V30 6428 S 610.556 -0.688318 -5.31058 0
M  V30 6429 C 611.712 0.363481 -6.24844 0
M  V30 6430 H 611.945 -0.601986 -2.91142 0
M  V30 6431 H 609.478 -0.42802 -1.48349 0
M  V30 6432 H 611.436 1.76372 -3.7068 0
M  V30 6433 H 610.097 1.84569 -2.54151 0
M  V30 6434 H 609.29 1.32054 -4.86393 0
M  V30 6435 H 608.892 0.000396444 -3.74 0
M  V30 6436 H 611.184 1.23362 -6.66174 0
M  V30 6437 H 612.127 -0.23288 -7.07717 0
M  V30 6438 H 612.535 0.693179 -5.60228 0
M  V30 6439 N 611.933 1.52934 -0.380664 0
M  V30 6440 C 612.896 2.24809 0.446473 0
M  V30 6441 C 613.896 1.26133 0.997347 0
M  V30 6442 O 615.086 1.50297 0.880714 0
M  V30 6443 C 612.218 2.99649 1.62553 0
M  V30 6444 H 613.411 2.99343 -0.182677 0
M  V30 6445 H 610.964 1.55736 -0.132618 0
M  V30 6446 H 611.699 2.29395 2.29235 0
M  V30 6447 H 611.484 3.72066 1.23732 0
M  V30 6448 H 612.974 3.54246 2.21133 0
M  V30 6449 N 613.412 0.11024 1.57214 0
M  V30 6450 C 614.344 -0.873497 2.11902 0
M  V30 6451 C 615.357 -1.23588 1.05971 0
M  V30 6452 O 616.546 -1.18636 1.33371 0
M  V30 6453 C 613.646 -2.17805 2.59643 0
M  V30 6454 C 612.819 -1.98869 3.89576 0
M  V30 6455 C 611.878 -3.12974 4.23006 0
M  V30 6456 O 610.904 -2.86272 4.91973 0
M  V30 6457 N 612.106 -4.39167 3.79622 0
M  V30 6458 H 614.871 -0.406317 2.96933 0
M  V30 6459 H 612.432 -0.074437 1.61729 0
M  V30 6460 H 614.424 -2.93117 2.79042 0
M  V30 6461 H 612.994 -2.55899 1.7954 0
M  V30 6462 H 612.214 -1.078 3.79174 0
M  V30 6463 H 613.502 -1.83512 4.74553 0
M  V30 6464 H 612.9 -4.63739 3.2398 0
M  V30 6465 H 611.457 -5.11379 4.04147 0
M  V30 6466 N 614.89 -1.56749 -0.16351 0
M  V30 6467 C 616.115 -1.86938 -0.898264 0
M  V30 6468 C 616.54 -0.697456 -1.74692 0
M  V30 6469 O 615.898 0.353327 -1.77824 0
M  V30 6470 C 615.946 -3.15599 -1.74441 0
M  V30 6471 O 615.05 -2.98371 -2.8469 0
M  V30 6472 H 614.391 -0.614659 -0.251178 0
M  V30 6473 H 616.921 -2.03979 -0.159298 0
M  V30 6474 H 616.931 -3.47202 -2.14277 0
M  V30 6475 H 615.606 -4.00505 -1.1211 0
M  V30 6476 H 614.183 -2.7814 -2.4838 0
M  V30 6477 N 616.368 0.432326 -1.51554 0
M  V30 6478 C 617.3 1.54357 -1.6943 0
M  V30 6479 C 618.313 1.52311 -0.574897 0
M  V30 6480 O 619.502 1.56997 -0.849369 0
M  V30 6481 C 616.602 2.93273 -1.69836 0
M  V30 6482 C 615.775 3.19768 -2.98442 0
M  V30 6483 C 614.834 4.38433 -2.90969 0
M  V30 6484 O 613.86 4.36842 -3.64908 0
M  V30 6485 N 615.062 5.42276 -2.07163 0
M  V30 6486 H 617.827 1.39426 -2.65293 0
M  V30 6487 H 615.388 0.621331 -1.49503 0
M  V30 6488 H 617.38 3.70687 -1.62399 0
M  V30 6489 H 615.95 3.01777 -0.815456 0
M  V30 6490 H 615.17 2.30607 -3.19709 0
M  V30 6491 H 616.458 3.343 -3.83563 0
M  V30 6492 H 615.856 5.46407 -1.46477 0
M  V30 6493 H 614.413 6.18524 -2.05601 0
M  V30 6494 N 617.846 1.41785 0.688094 0
M  V30 6495 C 619.262 1.24419 0.999608 0
M  V30 6496 C 619.462 0.138868 2.01021 0
M  V30 6497 O 618.518 -0.494283 2.47615 0
M  V30 6498 C 619.831 2.59625 1.51709 0
M  V30 6499 C 621.379 2.66869 1.63554 0
M  V30 6500 C 621.854 4.0241 2.18702 0
M  V30 6501 N 623.345 4.04295 2.26053 0
M  V30 6502 C 624.08 5.05977 2.69768 0
M  V30 6503 N 623.576 6.18047 3.13033 0
M  V30 6504 N 625.369 4.93336 2.69398 0
M  V30 6505 H 617.52 2.12392 0.0187427 0
M  V30 6506 H 619.783 0.945347 0.0708673 0
M  V30 6507 H 619.489 3.41297 0.849059 0
M  V30 6508 H 619.363 2.82628 2.49803 0
M  V30 6509 H 621.75 1.8555 2.29467 0
M  V30 6510 H 621.831 2.47668 0.639857 0
M  V30 6511 H 621.475 4.8418 1.53402 0
M  V30 6512 H 621.405 4.18955 3.19037 0
M  V30 6513 H 623.896 3.23383 1.9553 0
M  V30 6514 H 624.209 6.91498 3.45038 0
M  V30 6515 H 622.554 6.21572 3.10923 0
M  V30 6516 H 625.745 4.04865 2.34952 0
M  V30 6517 H 625.918 5.72717 3.03148 0
M  V30 6518 N 619.324 -0.923095 1.27737 0
M  V30 6519 C 620.74 -1.19985 1.05241 0
M  V30 6520 C 620.94 -2.00391 -0.21113 0
M  V30 6521 O 619.996 -2.35324 -0.915366 0
M  V30 6522 C 621.309 -1.94352 2.29451 0
M  V30 6523 C 622.857 -2.07273 2.34536 0
M  V30 6524 C 623.332 -2.85046 3.58487 0
M  V30 6525 N 624.823 -2.92612 3.59072 0
M  V30 6526 C 625.558 -3.53266 4.51654 0
M  V30 6527 N 625.054 -4.15274 5.54545 0
M  V30 6528 N 626.847 -3.50714 4.39268 0
M  V30 6529 H 618.998 -0.386042 2.08862 0
M  V30 6530 H 621.261 -0.233407 0.918817 0
M  V30 6531 H 620.967 -1.42692 3.21453 0
M  V30 6532 H 620.841 -2.94947 2.3513 0
M  V30 6533 H 623.228 -2.58117 1.43037 0
M  V30 6534 H 623.309 -1.05884 2.32857 0
M  V30 6535 H 622.953 -2.34884 4.50324 0
M  V30 6536 H 622.883 -3.8673 3.57418 0
M  V30 6537 H 625.374 -2.48547 2.84663 0
M  V30 6538 H 625.687 -4.59507 6.21348 0
M  V30 6539 H 624.032 -4.13806 5.58382 0
M  V30 6540 H 627.223 -3.01475 3.58093 0
M  V30 6541 H 627.396 -3.97693 5.1161 0
M  V30 6542 N 620.802 -1.09834 -1.13024 0
M  V30 6543 C 621.712 -0.753731 -2.22162 0
M  V30 6544 C 622.728 0.246105 -1.72251 0
M  V30 6545 O 623.904 0.0864051 -2.01215 0
M  V30 6546 C 620.969 -0.183958 -3.46212 0
M  V30 6547 C 620.03 -1.24028 -4.10993 0
M  V30 6548 C 619.263 -0.697597 -5.29121 0
M  V30 6549 O 619.486 0.478092 -5.68393 0
M  V30 6550 O 618.42 -1.4546 -5.84059 0
M  V30 6551 H 622.246 -1.66456 -2.5402 0
M  V30 6552 H 619.831 -0.873026 -1.21238 0
M  V30 6553 H 621.713 0.130257 -4.21199 0
M  V30 6554 H 620.388 0.699823 -3.16045 0
M  V30 6555 H 619.295 -1.60725 -3.37814 0
M  V30 6556 H 620.628 -2.09685 -4.45301 0
M  V30 6557 N 622.28 1.30327 -0.886154 0
M  V30 6558 C 623.21 2.30549 -0.370028 0
M  V30 6559 C 624.191 1.61039 0.547751 0
M  V30 6560 O 625.376 1.8864 0.461353 0
M  V30 6561 C 622.506 3.44808 0.415275 0
M  V30 6562 C 621.46 4.26024 -0.41085 0
M  V30 6563 C 620.786 5.32347 0.501128 0
M  V30 6564 C 622.086 4.95433 -1.65359 0
M  V30 6565 H 623.78 2.73969 -1.20754 0
M  V30 6566 H 621.326 1.3171 -0.582097 0
M  V30 6567 H 623.279 4.13986 0.78699 0
M  V30 6568 H 622.003 3.00197 1.28644 0
M  V30 6569 H 620.662 3.58535 -0.764719 0
M  V30 6570 H 620.31 4.83982 1.37004 0
M  V30 6571 H 620.01 5.87581 -0.0478356 0
M  V30 6572 H 621.534 6.0438 0.869333 0
M  V30 6573 H 622.948 5.5712 -1.35239 0
M  V30 6574 H 621.345 5.60537 -2.14284 0
M  V30 6575 H 622.415 4.21493 -2.39733 0
M  V30 6576 N 623.758 0.647228 1.43697 0
M  V30 6577 C 625.004 0.158422 2.0218 0
M  V30 6578 C 625.337 -1.22233 1.50907 0
M  V30 6579 O 624.612 -1.81478 0.699702 0
M  V30 6580 C 624.895 0.1627 3.59732 0
M  V30 6581 C 624.748 1.57694 4.21251 0
M  V30 6582 C 626.067 -0.504138 4.37203 0
M  V30 6583 H 623.186 0.059042 0.734631 0
M  V30 6584 H 625.828 0.826772 1.71069 0
M  V30 6585 H 623.978 -0.406414 3.86368 0
M  V30 6586 H 625.65 2.19618 4.05667 0
M  V30 6587 H 623.893 2.12603 3.7813 0
M  V30 6588 H 624.564 1.53183 5.3032 0
M  V30 6589 H 627.04 -0.0199841 4.16095 0
M  V30 6590 H 625.916 -0.470394 5.46881 0
M  V30 6591 H 626.177 -1.57726 4.13007 0
M  V30 6592 N 625.236 -1.5273 0.388769 0
M  V30 6593 C 626.482 -2.01871 -0.193877 0
M  V30 6594 C 626.815 -1.27475 -1.46505 0
M  V30 6595 O 626.09 -0.375063 -1.90849 0
M  V30 6596 C 626.373 -3.5712 -0.462336 0
M  V30 6597 C 626.226 -4.42186 0.824091 0
M  V30 6598 C 627.545 -4.21881 -1.25319 0
M  V30 6599 H 624.664 -0.733764 -0.0689899 0
M  V30 6600 H 627.306 -1.82796 0.518231 0
M  V30 6601 H 625.456 -3.73504 -1.06896 0
M  V30 6602 H 627.128 -4.37554 1.46096 0
M  V30 6603 H 625.371 -4.09219 1.43952 0
M  V30 6604 H 626.042 -5.48828 0.590905 0
M  V30 6605 H 628.518 -4.0947 -0.73981 0
M  V30 6606 H 627.394 -5.30487 -1.40977 0
M  V30 6607 H 627.655 -3.79478 -2.26824 0
M  V30 6608 N 626.714 -0.118576 -1.57153 0
M  V30 6609 C 627.942 0.54726 -1.99531 0
M  V30 6610 C 628.357 1.60251 -0.998246 0
M  V30 6611 O 627.714 1.82498 0.00893106 0
M  V30 6612 C 627.765 1.17378 -3.41913 0
M  V30 6613 O 627.486 0.160703 -4.37805 0
M  V30 6614 C 628.987 1.92297 -3.9942 0
M  V30 6615 H 626.207 0.144919 -0.655164 0
M  V30 6616 H 628.751 -0.20479 -2.03472 0
M  V30 6617 H 626.906 1.87661 -3.38913 0
M  V30 6618 H 627.32 0.61586 -5.20872 0
M  V30 6619 H 628.794 2.31462 -5.01128 0
M  V30 6620 H 629.271 2.79801 -3.38538 0
M  V30 6621 H 629.877 1.26777 -4.05965 0
M  V30 6622 N 628.193 1.56834 0.155195 0
M  V30 6623 C 629.141 1.98584 1.21107 0
M  V30 6624 C 630.135 0.876987 1.44932 0
M  V30 6625 O 631.341 1.06215 1.45322 0
M  V30 6626 H 627.716 0.632039 0.407469 0
M  V30 6627 H 629.687 2.86561 0.832195 0
M  V30 6628 C 628.436 2.37555 2.53895 0
M  V30 6629 H 627.759 3.22428 2.3639 0
M  V30 6630 H 629.199 2.70598 3.26424 0
M  V30 6631 C 627.658 1.22507 3.13837 0
M  V30 6632 O 628.188 0.521388 3.98302 0
M  V30 6633 N 626.394 0.991444 2.73164 0
M  V30 6634 H 625.941 1.56544 2.04577 0
M  V30 6635 H 625.899 0.223546 3.13604 0
M  V30 6636 N 629.671 -0.424282 1.51781 0
M  V30 6637 C 630.899 -1.1947 1.68921 0
M  V30 6638 C 631.314 -1.84683 0.39213 0
M  V30 6639 O 630.671 -1.71261 -0.630554 0
M  V30 6640 C 630.722 -2.26909 2.81416 0
M  V30 6641 O 630.443 -1.64361 4.061 0
M  V30 6642 C 631.944 -3.16945 3.09937 0
M  V30 6643 H 629.164 -0.359591 0.566511 0
M  V30 6644 H 631.708 -0.501139 1.98265 0
M  V30 6645 H 629.863 -2.91959 2.54635 0
M  V30 6646 H 630.277 -2.35468 4.68674 0
M  V30 6647 H 631.751 -3.88437 3.922 0
M  V30 6648 H 632.228 -3.78451 2.22871 0
M  V30 6649 H 632.834 -2.57581 3.38426 0
M  V30 6650 N 631.149 -1.42148 -0.680565 0
M  V30 6651 C 632.56 -1.3768 -1.26099 0
M  V30 6652 C 632.911 -0.0672348 -1.96085 0
M  V30 6653 O 632.036 0.834172 -1.99676 0
M  V30 6654 C 632.631 -2.49387 -2.29328 0
M  V30 6655 C 631.19 -2.4827 -2.82911 0
M  V30 6656 C 630.337 -2.2847 -1.57152 0
M  V30 6657 H 633.288 -1.51446 -0.474326 0
M  V30 6658 H 633.309 -2.19307 -3.10941 0
M  V30 6659 H 632.821 -3.44686 -1.78363 0
M  V30 6660 H 630.922 -1.56773 -3.38013 0
M  V30 6661 H 631.035 -3.45109 -3.3232 0
M  V30 6662 H 629.399 -1.76623 -1.83511 0
M  V30 6663 H 630.182 -3.25816 -1.0816 0
M  V30 6664 N 632.627 0.916307 -1.28225 0
M  V30 6665 C 633.59 1.99996 -1.11957 0
M  V30 6666 C 634.59 1.60688 -0.0600152 0
M  V30 6667 O 635.78 1.71499 -0.30558 0
M  V30 6668 C 632.912 3.33458 -0.708411 0
M  V30 6669 H 634.105 2.15858 -2.08196 0
M  V30 6670 H 631.658 1.09863 -1.11175 0
M  V30 6671 H 632.393 3.23297 0.254859 0
M  V30 6672 H 632.178 3.63349 -1.47377 0
M  V30 6673 H 633.668 4.13014 -0.617164 0
M  V30 6674 N 634.105 1.10431 1.1244 0
M  V30 6675 C 635.068 0.756542 2.16354 0
M  V30 6676 C 636.068 -0.21899 1.59302 0
M  V30 6677 O 637.258 0.00415969 1.742 0
M  V30 6678 C 634.39 0.120612 3.40687 0
M  V30 6679 H 635.583 1.67696 2.48632 0
M  V30 6680 H 633.136 0.904832 1.27446 0
M  V30 6681 H 633.871 -0.810536 3.14008 0
M  V30 6682 H 633.656 0.822693 3.83372 0
M  V30 6683 H 635.146 -0.106945 4.17463 0
M  V30 6684 N 635.583 -1.29855 0.893053 0
M  V30 6685 C 636.86 -1.90694 0.435336 0
M  V30 6686 C 637.24 -1.8111 -1.08454 0
M  V30 6687 O 636.588 -1.23352 -1.92345 0
M  V30 6688 C 636.798 -3.36033 0.942472 0
M  V30 6689 C 638.146 -4.13083 0.982226 0
M  V30 6690 O 639.17 -3.4491 0.889686 0
M  V30 6691 O 638.029 -5.34896 1.12022 0
M  V30 6692 H 635.123 -0.815978 0.134567 0
M  V30 6693 H 637.669 -1.38367 0.982484 0
M  V30 6694 H 636.441 -3.37132 1.9864 0
M  V30 6695 H 636.064 -3.95828 0.374952 0
M  V30 6696 N 637.061 -0.65484 -1.43351 0
M  V30 6697 C 638.338 -0.0987371 -1.95351 0
M  V30 6698 C 638.718 1.38161 -1.59608 0
M  V30 6699 O 638.066 2.10791 -0.882021 0
M  V30 6700 C 638.276 -0.346684 -3.47274 0
M  V30 6701 C 639.624 -0.25249 -4.23849 0
M  V30 6702 O 640.648 -0.279332 -3.55103 0
M  V30 6703 O 639.507 -0.177584 -5.46211 0
M  V30 6704 H 636.601 0.0086829 -0.826954 0
M  V30 6705 H 639.147 -0.728189 -1.53282 0
M  V30 6706 H 637.919 -1.37296 -3.66423 0
M  V30 6707 H 637.542 0.315757 -3.96344 0
M  V30 6708 N 638.539 1.52521 -0.396863 0
M  V30 6709 C 639.472 2.23118 0.478926 0
M  V30 6710 C 640.45 1.23475 1.05796 0
M  V30 6711 O 641.634 1.52486 1.10817 0
M  V30 6712 C 638.761 2.95028 1.66362 0
M  V30 6713 C 637.807 4.09002 1.20913 0
M  V30 6714 S 638.64 5.35182 0.184407 0
M  V30 6715 C 639.796 6.10616 1.37471 0
M  V30 6716 H 640.029 2.97056 -0.120542 0
M  V30 6717 H 637.562 1.53334 -0.18109 0
M  V30 6718 H 639.52 3.37066 2.34301 0
M  V30 6719 H 638.181 2.20756 2.23441 0
M  V30 6720 H 637.374 4.58445 2.09389 0
M  V30 6721 H 636.976 3.69016 0.608559 0
M  V30 6722 H 639.268 6.37247 2.30048 0
M  V30 6723 H 640.211 7.02084 0.921051 0
M  V30 6724 H 640.619 5.41499 1.59495 0
M  V30 6725 N 640.017 0.126909 1.57088 0
M  V30 6726 C 641.266 -0.529024 1.94639 0
M  V30 6727 C 641.579 -1.67323 1.01304 0
M  V30 6728 O 642.785 -2.39245 1.28352 0
M  V30 6729 C 641.241 -0.992483 3.45945 0
M  V30 6730 C 640.849 0.123691 4.47829 0
M  V30 6731 C 642.593 -1.61934 3.924 0
M  V30 6732 C 640.5 -0.356911 5.90322 0
M  V30 6733 H 639.43 -0.201397 0.726605 0
M  V30 6734 H 642.081 0.208032 1.82317 0
M  V30 6735 H 640.463 -1.7842 3.53528 0
M  V30 6736 H 641.637 0.900168 4.51922 0
M  V30 6737 H 639.952 0.657699 4.11173 0
M  V30 6738 H 642.549 -1.9902 4.96281 0
M  V30 6739 H 642.892 -2.50075 3.32819 0
M  V30 6740 H 643.425 -0.892894 3.8765 0
M  V30 6741 H 640.164 0.488636 6.53676 0
M  V30 6742 H 639.684 -1.0997 5.89633 0
M  V30 6743 H 641.363 -0.815547 6.41839 0
M  V30 6744 N 641.495 -1.56914 -0.146875 0
M  V30 6745 C 642.405 -2.0154 -1.20079 0
M  V30 6746 C 643.421 -0.930838 -1.47008 0
M  V30 6747 O 644.597 -1.24032 -1.58676 0
M  V30 6748 C 641.662 -2.38715 -2.51428 0
M  V30 6749 C 640.723 -3.6112 -2.32145 0
M  V30 6750 C 639.956 -3.96512 -3.57231 0
M  V30 6751 O 640.179 -3.32566 -4.63418 0
M  V30 6752 O 639.113 -4.89758 -3.49887 0
M  V30 6753 H 642.939 -2.91506 -0.851924 0
M  V30 6754 H 640.524 -1.45106 -0.355607 0
M  V30 6755 H 642.406 -2.63485 -3.28867 0
M  V30 6756 H 641.081 -1.51903 -2.85845 0
M  V30 6757 H 639.988 -3.41536 -1.52656 0
M  V30 6758 H 641.321 -4.48549 -2.02644 0
M  V30 6759 N 642.974 0.416227 -1.52004 0
M  V30 6760 C 644.22 1.16555 -1.6596 0
M  V30 6761 C 644.553 1.90347 -0.384906 0
M  V30 6762 O 643.828 1.84474 0.616405 0
M  V30 6763 C 644.111 2.1657 -2.87696 0
M  V30 6764 C 643.964 1.46722 -4.25197 0
M  V30 6765 C 645.283 3.17321 -3.04951 0
M  V30 6766 H 642.402 0.422369 -0.603965 0
M  V30 6767 H 645.044 0.452141 -1.84542 0
M  V30 6768 H 643.194 2.77411 -2.71985 0
M  V30 6769 H 644.866 0.89056 -4.52622 0
M  V30 6770 H 643.109 0.769263 -4.26925 0
M  V30 6771 H 643.78 2.19665 -5.0641 0
M  V30 6772 H 646.256 2.66552 -3.19514 0
M  V30 6773 H 645.132 3.84573 -3.91656 0
M  V30 6774 H 645.393 3.84643 -2.17951 0
M  V30 6775 N 644.452 1.42507 0.673017 0
M  V30 6776 C 645.362 1.4853 1.81593 0
M  V30 6777 C 646.378 0.373907 1.69935 0
M  V30 6778 O 647.554 0.625078 1.91454 0
M  V30 6779 C 644.619 1.387 3.17747 0
M  V30 6780 C 643.68 2.60346 3.41348 0
M  V30 6781 C 642.913 2.50975 4.71007 0
M  V30 6782 O 643.136 1.54659 5.49033 0
M  V30 6783 O 642.07 3.41138 4.95892 0
M  V30 6784 H 645.896 2.45001 1.79467 0
M  V30 6785 H 643.481 1.2429 0.82899 0
M  V30 6786 H 645.363 1.35586 3.98992 0
M  V30 6787 H 644.038 0.453555 3.20507 0
M  V30 6788 H 642.945 2.69034 2.59945 0
M  V30 6789 H 644.278 3.52595 3.43421 0
M  V30 6790 N 645.93 -0.909495 1.28709 0
M  V30 6791 C 647.176 -1.66151 1.16283 0
M  V30 6792 C 647.509 -1.92067 -0.287069 0
M  V30 6793 O 646.784 -1.52409 -1.20837 0
M  V30 6794 C 647.067 -3.01676 1.9663 0
M  V30 6795 C 646.92 -2.82888 3.49707 0
M  V30 6796 C 648.239 -4.02274 1.78504 0
M  V30 6797 H 645.358 -0.602966 0.423793 0
M  V30 6798 H 648 -1.05418 1.58073 0
M  V30 6799 H 646.15 -3.53515 1.61119 0
M  V30 6800 H 647.822 -2.38026 3.95147 0
M  V30 6801 H 646.065 -2.17862 3.75125 0
M  V30 6802 H 646.736 -3.79147 4.01187 0
M  V30 6803 H 649.212 -3.59511 2.09503 0
M  V30 6804 H 648.088 -4.95056 2.37088 0
M  V30 6805 H 648.349 -4.35903 0.737647 0
M  V30 6806 N 647.408 -1.11026 -1.11852 0
M  V30 6807 C 648.633 -0.879064 -1.87849 0
M  V30 6808 C 649.058 0.565406 -1.79401 0
M  V30 6809 O 648.416 1.39886 -1.15333 0
M  V30 6810 C 648.464 -1.33985 -3.34784 0
M  V30 6811 O 647.568 -0.508803 -4.09249 0
M  V30 6812 H 646.909 -0.316992 -0.583448 0
M  V30 6813 H 649.439 -1.47863 -1.41413 0
M  V30 6814 H 649.449 -1.33248 -3.85628 0
M  V30 6815 H 648.124 -2.39172 -3.40249 0
M  V30 6816 H 646.701 -0.581913 -3.68332 0
M  V30 6817 N 648.886 1.2938 -0.899927 0
M  V30 6818 C 650.163 1.9046 -0.445443 0
M  V30 6819 C 650.543 1.81683 1.07492 0
M  V30 6820 O 649.891 1.24371 1.91688 0
M  V30 6821 C 650.101 3.35529 -0.960279 0
M  V30 6822 C 651.449 4.12556 -1.00412 0
M  V30 6823 O 652.473 3.44434 -0.907965 0
M  V30 6824 O 651.332 5.34294 -1.14857 0
M  V30 6825 H 648.426 0.815253 -0.138893 0
M  V30 6826 H 650.972 1.37844 -0.989808 0
M  V30 6827 H 649.744 3.36074 -2.00425 0
M  V30 6828 H 649.367 3.95624 -0.395939 0
M  V30 6829 N 650.364 0.662433 1.43002 0
M  V30 6830 C 651.592 0.187615 2.06048 0
M  V30 6831 C 652.007 -1.15039 1.49705 0
M  V30 6832 O 651.364 -1.71209 0.631956 0
M  V30 6833 C 651.415 0.100498 3.6136 0
M  V30 6834 O 651.136 1.38562 4.15611 0
M  V30 6835 C 652.637 -0.399298 4.41498 0
M  V30 6836 H 649.857 0.0941675 0.664359 0
M  V30 6837 H 652.401 0.905681 1.83351 0
M  V30 6838 H 650.556 -0.568181 3.83211 0
M  V30 6839 H 650.97 1.25084 5.09366 0
M  V30 6840 H 652.444 -0.409187 5.50481 0
M  V30 6841 H 652.921 -1.43232 4.15188 0
M  V30 6842 H 653.527 0.23721 4.24638 0
M  V30 6843 N 651.842 -1.52309 0.404946 0
M  V30 6844 C 653.09 -2.01368 -0.17186 0
M  V30 6845 C 653.411 -1.29261 -1.46002 0
M  V30 6846 O 652.681 -0.41729 -1.91404 0
M  V30 6847 H 651.261 -0.744034 -0.0664993 0
M  V30 6848 H 653.923 -1.87263 0.540228 0
M  V30 6849 H 653.019 -3.09888 -0.370957 0
M  V30 6850 N 653.32 -0.135238 -1.57019 0
M  V30 6851 C 654.545 0.529343 -2.00531 0
M  V30 6852 C 654.97 1.58391 -1.01459 0
M  V30 6853 O 654.328 1.81296 0.0113986 0
M  V30 6854 C 654.376 1.11748 -3.42848 0
M  V30 6855 O 653.48 2.23267 -3.46736 0
M  V30 6856 H 652.821 0.130669 -0.651016 0
M  V30 6857 H 655.351 -0.228503 -2.0332 0
M  V30 6858 H 655.361 1.44905 -3.81401 0
M  V30 6859 H 654.036 0.345147 -4.14465 0
M  V30 6860 H 652.613 1.91428 -3.20015 0
M  V30 6861 N 654.798 1.5699 0.138552 0
M  V30 6862 C 656.046 1.83446 0.848053 0
M  V30 6863 C 656.367 0.71744 1.81322 0
M  V30 6864 O 655.637 -0.260228 1.94164 0
M  V30 6865 H 654.217 0.676792 0.316166 0
M  V30 6866 H 656.879 1.94462 0.130538 0
M  V30 6867 H 655.975 2.78677 1.40518 0
M  V30 6868 N 656.276 -0.40816 1.52223 0
M  V30 6869 C 657.523 -1.15502 1.66329 0
M  V30 6870 C 657.851 -1.90474 0.393701 0
M  V30 6871 O 657.106 -1.85507 -0.623356 0
M  V30 6872 C 657.405 -2.17422 2.83659 0
M  V30 6873 C 657.071 -1.5925 4.21841 0
M  V30 6874 C 655.733 -1.4311 4.59427 0
M  V30 6875 C 658.085 -1.16776 5.0795 0
M  V30 6876 C 655.413 -0.830148 5.80797 0
M  V30 6877 C 657.765 -0.580988 6.29926 0
M  V30 6878 C 656.429 -0.406729 6.6626 0
M  V30 6879 H 655.699 -0.422653 0.608642 0
M  V30 6880 H 658.346 -0.442114 1.86327 0
M  V30 6881 H 656.651 -2.94861 2.58001 0
M  V30 6882 H 658.348 -2.75084 2.9177 0
M  V30 6883 H 654.938 -1.72796 3.92224 0
M  V30 6884 H 659.122 -1.28055 4.79495 0
M  V30 6885 H 654.378 -0.68316 6.07571 0
M  V30 6886 H 658.552 -0.243488 6.95974 0
M  V30 6887 H 656.179 0.0610366 7.60175 0
M  V30 6888 N 657.755 -1.42862 -0.66545 0
M  V30 6889 C 658.687 -1.43026 -1.79098 0
M  V30 6890 C 659.7 -0.32803 -1.59461 0
M  V30 6891 O 660.889 -0.591709 -1.68407 0
M  V30 6892 C 657.989 -1.21566 -3.16346 0
M  V30 6893 C 657.162 -2.44399 -3.62751 0
M  V30 6894 C 656.221 -2.18344 -4.78761 0
M  V30 6895 O 655.247 -2.91611 -4.88827 0
M  V30 6896 N 656.449 -1.1924 -5.68122 0
M  V30 6897 H 659.214 -2.40045 -1.79439 0
M  V30 6898 H 656.775 -1.37861 -0.848872 0
M  V30 6899 H 658.767 -1.02037 -3.91625 0
M  V30 6900 H 657.337 -0.330368 -3.10849 0
M  V30 6901 H 656.557 -2.79433 -2.78048 0
M  V30 6902 H 657.845 -3.26173 -3.90498 0
M  V30 6903 H 657.243 -0.586603 -5.6265 0
M  V30 6904 H 655.8 -1.05698 -6.43173 0
M  V30 6905 N 659.233 0.902656 -1.29189 0
M  V30 6906 C 660.51 1.63296 -1.07674 0
M  V30 6907 C 660.89 2.07649 0.380137 0
M  V30 6908 O 660.238 1.82997 1.36837 0
M  V30 6909 C 660.448 2.81603 -2.06158 0
M  V30 6910 C 661.796 3.52359 -2.36914 0
M  V30 6911 O 662.82 2.91767 -2.04329 0
M  V30 6912 O 661.679 4.61586 -2.92576 0
M  V30 6913 H 658.773 0.716889 -0.41231 0
M  V30 6914 H 661.319 0.950984 -1.4055 0
M  V30 6915 H 660.091 2.46004 -3.04299 0
M  V30 6916 H 659.714 3.57508 -1.73993 0
M  V30 6917 N 660.711 1.11618 1.11262 0
M  V30 6918 C 661.988 0.777876 1.79467 0
M  V30 6919 C 662.368 -0.733774 1.97937 0
M  V30 6920 O 661.716 -1.66443 1.56554 0
M  V30 6921 C 661.926 1.5431 3.13032 0
M  V30 6922 C 663.274 1.72357 3.88044 0
M  V30 6923 O 664.298 1.5075 3.22727 0
M  V30 6924 O 663.157 2.08276 5.05256 0
M  V30 6925 H 660.251 0.282018 0.777428 0
M  V30 6926 H 662.797 1.21971 1.17988 0
M  V30 6927 H 661.569 2.57132 2.94956 0
M  V30 6928 H 661.192 1.09495 3.82226 0
M  V30 6929 N 662.189 -1.289 0.906776 0
M  V30 6930 C 663.435 -1.95558 0.53712 0
M  V30 6931 C 663.768 -1.71262 -0.915582 0
M  V30 6932 O 663.043 -1.02961 -1.65013 0
M  V30 6933 C 663.326 -3.50198 0.838645 0
M  V30 6934 C 663.179 -3.83923 2.34357 0
M  V30 6935 C 664.498 -4.38861 0.329988 0
M  V30 6936 H 661.617 -0.710289 0.196617 0
M  V30 6937 H 664.259 -1.52392 1.13475 0
M  V30 6938 H 662.409 -3.87096 0.330024 0
M  V30 6939 H 664.081 -3.56933 2.92227 0
M  V30 6940 H 662.324 -3.31215 2.80141 0
M  V30 6941 H 662.995 -4.91883 2.5051 0
M  V30 6942 H 665.471 -4.08996 0.765609 0
M  V30 6943 H 664.347 -5.45931 0.570105 0
M  V30 6944 H 664.608 -4.35352 -0.769511 0
M  V30 6945 N 663.667 -0.670007 -1.42649 0
M  V30 6946 C 664.916 -0.187526 -2.00826 0
M  V30 6947 C 665.229 1.21142 -1.53571 0
M  V30 6948 O 666.435 1.79001 -2.04134 0
M  V30 6949 C 664.891 -0.284409 -3.58774 0
M  V30 6950 C 664.499 -1.6871 -4.15019 0
M  V30 6951 C 666.243 0.139605 -4.2427 0
M  V30 6952 C 664.15 -1.73701 -5.65316 0
M  V30 6953 H 663.08 -0.0663468 -0.751075 0
M  V30 6954 H 665.731 -0.834492 -1.63427 0
M  V30 6955 H 664.113 0.430364 -3.93655 0
M  V30 6956 H 665.287 -2.42857 -3.91608 0
M  V30 6957 H 663.602 -2.05855 -3.61957 0
M  V30 6958 H 666.199 0.122398 -5.3456 0
M  V30 6959 H 666.542 1.17403 -3.99402 0
M  V30 6960 H 667.075 -0.523995 -3.94334 0
M  V30 6961 H 663.814 -2.75109 -5.94975 0
M  V30 6962 H 663.334 -1.03903 -5.90732 0
M  V30 6963 H 665.013 -1.48829 -6.2965 0
M  V30 6964 N 665.145 1.52092 -0.413018 0
M  V30 6965 C 666.556 1.86617 0.0556967 0
M  V30 6966 C 666.907 1.33156 1.44097 0
M  V30 6967 O 666.032 0.672417 2.05688 0
M  V30 6968 C 666.627 3.38628 0.107844 0
M  V30 6969 C 665.186 3.72778 0.520904 0
M  V30 6970 C 664.333 2.75649 -0.302109 0
M  V30 6971 H 667.284 1.45663 -0.629919 0
M  V30 6972 H 667.305 3.69152 0.922324 0
M  V30 6973 H 666.817 3.77508 -0.900506 0
M  V30 6974 H 664.918 3.39478 1.53575 0
M  V30 6975 H 665.031 4.7838 0.262591 0
M  V30 6976 H 663.395 2.53603 0.236115 0
M  V30 6977 H 664.178 3.17369 -1.30888 0
M  V30 6978 N 666.623 0.143563 1.56945 0
M  V30 6979 C 667.571 -0.814556 2.17871 0
M  V30 6980 C 668.565 -1.25778 1.13474 0
M  V30 6981 O 669.771 -1.22666 1.31731 0
M  V30 6982 H 666.146 -0.280873 0.697578 0
M  V30 6983 H 668.117 -0.276459 2.97117 0
M  V30 6984 C 666.866 -2.04503 2.81201 0
M  V30 6985 H 666.189 -1.71296 3.61245 0
M  V30 6986 H 667.629 -2.69493 3.27337 0
M  V30 6987 C 666.088 -2.85079 1.79532 0
M  V30 6988 O 666.618 -3.81306 1.26368 0
M  V30 6989 N 664.824 -2.49546 1.48913 0
M  V30 6990 H 664.371 -1.71359 1.92338 0
M  V30 6991 H 664.329 -3.03751 0.811348 0
M  V30 6992 N 668.101 -1.57061 -0.130224 0
M  V30 6993 C 669.031 -2.02552 -1.16168 0
M  V30 6994 C 670.012 -0.907971 -1.4384 0
M  V30 6995 O 671.197 -1.17693 -1.54473 0
M  V30 6996 C 668.327 -2.42035 -2.49071 0
M  V30 6997 C 667.281 -3.5713 -2.35886 0
M  V30 6998 C 666.607 -3.82478 -3.7365 0
M  V30 6999 C 667.907 -4.89236 -1.8288 0
M  V30 7000 H 669.601 -2.8897 -0.783359 0
M  V30 7001 H 667.147 -1.39021 -0.375376 0
M  V30 7002 H 669.1 -2.72462 -3.21469 0
M  V30 7003 H 667.824 -1.52573 -2.88771 0
M  V30 7004 H 666.483 -3.26895 -1.65938 0
M  V30 7005 H 666.131 -2.9024 -4.10816 0
M  V30 7006 H 665.831 -4.59944 -3.65685 0
M  V30 7007 H 667.355 -4.15347 -4.47571 0
M  V30 7008 H 668.769 -5.18272 -2.45085 0
M  V30 7009 H 667.166 -5.70624 -1.85763 0
M  V30 7010 H 668.236 -4.78494 -0.785571 0
M  V30 7011 N 669.579 0.400081 -1.52437 0
M  V30 7012 C 670.826 1.14619 -1.6694 0
M  V30 7013 C 671.154 1.90262 -0.403797 0
M  V30 7014 O 670.409 1.85835 0.61351 0
M  V30 7015 C 670.708 2.15914 -2.84808 0
M  V30 7016 C 670.374 1.57011 -4.2268 0
M  V30 7017 C 669.036 1.40672 -4.60179 0
M  V30 7018 C 671.388 1.14081 -5.08562 0
M  V30 7019 C 668.716 0.799335 -5.81229 0
M  V30 7020 C 671.068 0.547573 -6.30226 0
M  V30 7021 C 669.732 0.371389 -6.66466 0
M  V30 7022 H 669.002 0.419419 -0.610875 0
M  V30 7023 H 671.649 0.432227 -1.86558 0
M  V30 7024 H 669.954 2.93488 -2.59561 0
M  V30 7025 H 671.651 2.73533 -2.93225 0
M  V30 7026 H 668.241 1.70713 -3.93135 0
M  V30 7027 H 672.425 1.2551 -4.80168 0
M  V30 7028 H 667.681 0.65093 -6.07925 0
M  V30 7029 H 671.855 0.206575 -6.96094 0
M  V30 7030 H 669.482 -0.10135 -7.60132 0
M  V30 7031 N 671.057 1.43213 0.657864 0
M  V30 7032 C 671.989 1.43974 1.78337 0
M  V30 7033 C 673.002 0.336482 1.59285 0
M  V30 7034 O 674.191 0.600631 1.68091 0
M  V30 7035 C 671.291 1.23242 3.15697 0
M  V30 7036 C 670.464 2.46319 3.61449 0
M  V30 7037 C 669.523 2.2088 4.77597 0
M  V30 7038 O 668.549 2.942 4.87273 0
M  V30 7039 N 669.751 1.22251 5.67481 0
M  V30 7040 H 672.516 2.40993 1.78164 0
M  V30 7041 H 670.077 1.3831 0.841549 0
M  V30 7042 H 672.069 1.04113 3.91079 0
M  V30 7043 H 670.639 0.346849 3.1067 0
M  V30 7044 H 669.859 2.80904 2.76563 0
M  V30 7045 H 671.147 3.28239 3.88763 0
M  V30 7046 H 670.545 0.616433 5.62331 0
M  V30 7047 H 669.102 1.09107 6.42603 0
M  V30 7048 N 672.536 -0.895792 1.29666 0
M  V30 7049 C 673.764 -1.68001 1.20761 0
M  V30 7050 C 674.179 -1.87379 -0.231187 0
M  V30 7051 O 673.536 -1.41359 -1.15429 0
M  V30 7052 C 673.587 -3.06236 1.92098 0
M  V30 7053 O 673.308 -2.8774 3.30359 0
M  V30 7054 C 674.809 -4.00652 1.89717 0
M  V30 7055 H 672.029 -0.524591 0.418384 0
M  V30 7056 H 674.573 -1.11995 1.71106 0
M  V30 7057 H 672.728 -3.59007 1.45578 0
M  V30 7058 H 673.142 -3.75359 3.66342 0
M  V30 7059 H 674.616 -4.95051 2.44189 0
M  V30 7060 H 675.093 -4.30424 0.873595 0
M  V30 7061 H 675.699 -3.53815 2.35998 0
M  V30 7062 N 674.014 -1.12206 -1.10668 0
M  V30 7063 C 675.261 -0.875875 -1.82578 0
M  V30 7064 C 675.589 0.598342 -1.85068 0
M  V30 7065 O 674.844 1.45818 -1.3052 0
M  V30 7066 C 675.143 -1.39276 -3.29146 0
M  V30 7067 C 674.809 -2.8816 -3.46806 0
M  V30 7068 C 673.471 -3.28813 -3.51334 0
M  V30 7069 C 675.823 -3.8401 -3.52399 0
M  V30 7070 C 673.151 -4.64028 -3.59019 0
M  V30 7071 C 675.503 -5.19053 -3.61617 0
M  V30 7072 C 674.167 -5.59252 -3.64408 0
M  V30 7073 H 673.437 -0.320505 -0.6681 0
M  V30 7074 H 676.084 -1.40184 -1.30464 0
M  V30 7075 H 674.389 -0.787207 -3.8381 0
M  V30 7076 H 676.086 -1.17851 -3.83291 0
M  V30 7077 H 672.676 -2.55716 -3.43958 0
M  V30 7078 H 676.86 -3.53698 -3.48154 0
M  V30 7079 H 672.116 -4.94568 -3.59461 0
M  V30 7080 H 676.29 -5.93152 -3.64889 0
M  V30 7081 H 673.917 -6.64017 -3.70116 0
M  V30 7082 N 675.492 1.28418 -0.913599 0
M  V30 7083 C 676.739 1.94981 -0.546674 0
M  V30 7084 C 677.067 1.7192 0.909606 0
M  V30 7085 O 676.322 1.03314 1.66207 0
M  V30 7086 C 676.621 3.48283 -0.802099 0
M  V30 7087 C 676.287 3.91444 -2.2379 0
M  V30 7088 C 674.949 4.02939 -2.63046 0
M  V30 7089 C 677.301 4.13542 -3.17227 0
M  V30 7090 C 674.629 4.3391 -3.94891 0
M  V30 7091 C 676.981 4.45992 -4.48636 0
M  V30 7092 C 675.645 4.55698 -4.87746 0
M  V30 7093 H 674.915 0.713487 -0.200042 0
M  V30 7094 H 677.562 1.52756 -1.15489 0
M  V30 7095 H 675.867 3.91643 -0.111076 0
M  V30 7096 H 677.564 3.97903 -0.497375 0
M  V30 7097 H 674.154 3.83024 -1.9233 0
M  V30 7098 H 678.338 4.04114 -2.88107 0
M  V30 7099 H 673.594 4.39631 -4.24894 0
M  V30 7100 H 677.768 4.62038 -5.21051 0
M  V30 7101 H 675.395 4.79451 -5.89942 0
M  V30 7102 N 676.97 0.677563 1.42291 0
M  V30 7103 C 678.198 0.209459 2.05837 0
M  V30 7104 C 678.613 -1.13444 1.50917 0
M  V30 7105 O 677.97 -1.70529 0.65008 0
M  V30 7106 C 678.021 0.138819 3.61233 0
M  V30 7107 O 677.742 1.42962 4.14118 0
M  V30 7108 C 679.243 -0.352449 4.41897 0
M  V30 7109 H 676.463 0.101209 0.663323 0
M  V30 7110 H 679.007 0.925077 1.8238 0
M  V30 7111 H 677.162 -0.527505 3.83792 0
M  V30 7112 H 677.576 1.3048 5.08011 0
M  V30 7113 H 679.05 -0.350778 5.50884 0
M  V30 7114 H 679.527 -1.3882 4.16684 0
M  V30 7115 H 680.133 0.282236 4.24362 0
M  V30 7116 N 678.448 -1.51871 0.421078 0
M  V30 7117 C 679.676 -2.06356 -0.14994 0
M  V30 7118 C 680.091 -1.29006 -1.37851 0
M  V30 7119 O 679.448 -0.345139 -1.79207 0
M  V30 7120 C 679.499 -3.58185 -0.488454 0
M  V30 7121 O 679.22 -4.32611 0.691341 0
M  V30 7122 C 680.721 -4.29129 -1.11191 0
M  V30 7123 H 677.941 -0.67083 -0.0151186 0
M  V30 7124 H 680.485 -1.95638 0.595476 0
M  V30 7125 H 678.64 -3.68871 -1.18376 0
M  V30 7126 H 679.054 -5.22927 0.405906 0
M  V30 7127 H 680.528 -5.36501 -1.29889 0
M  V30 7128 H 681.005 -3.86371 -2.0884 0
M  V30 7129 H 681.611 -4.22843 -0.456458 0
M  V30 7130 N 679.926 -0.151884 -1.56866 0
M  V30 7131 C 680.873 0.785936 -2.17006 0
M  V30 7132 C 681.843 1.2407 -1.10435 0
M  V30 7133 O 683.028 1.31235 -1.38499 0
M  V30 7134 C 680.168 2.01771 -2.79969 0
M  V30 7135 C 679.281 1.6083 -4.00946 0
M  V30 7136 C 678.416 2.79224 -4.51893 0
M  V30 7137 C 677.455 2.3468 -5.65324 0
M  V30 7138 N 676.592 3.461 -6.10867 0
M  V30 7139 H 681.432 0.266286 -2.96808 0
M  V30 7140 H 678.969 0.11972 -1.46612 0
M  V30 7141 H 680.927 2.73989 -3.14621 0
M  V30 7142 H 679.557 2.51139 -2.02803 0
M  V30 7143 H 678.609 0.783592 -3.72242 0
M  V30 7144 H 679.921 1.24119 -4.83111 0
M  V30 7145 H 679.075 3.59625 -4.88625 0
M  V30 7146 H 677.814 3.19183 -3.68746 0
M  V30 7147 H 676.819 1.52721 -5.28163 0
M  V30 7148 H 678.044 1.95801 -6.5026 0
M  V30 7149 H 675.99 3.85671 -5.30654 0
M  V30 7150 H 675.907 3.1342 -6.87971 0
M  V30 7151 H 677.175 4.26844 -6.52246 0
M  V30 7152 N 681.404 1.57128 0.121893 0
M  V30 7153 C 682.681 1.75664 0.860327 0
M  V30 7154 C 683.061 0.726585 1.98202 0
M  V30 7155 O 682.409 -0.24999 2.27128 0
M  V30 7156 C 682.619 3.20571 1.37968 0
M  V30 7157 C 683.967 3.82988 1.83317 0
M  V30 7158 O 684.991 3.24156 1.47654 0
M  V30 7159 O 683.85 4.86393 2.49168 0
M  V30 7160 H 680.944 0.719153 0.408348 0
M  V30 7161 H 683.49 1.6937 0.105859 0
M  V30 7162 H 682.262 3.87056 0.57477 0
M  V30 7163 H 681.885 3.31392 2.19694 0
M  V30 7164 N 682.882 -0.391992 1.52647 0
M  V30 7165 C 684.11 -1.1586 1.71418 0
M  V30 7166 C 684.525 -1.8381 0.431216 0
M  V30 7167 O 683.882 -1.7256 -0.594085 0
M  V30 7168 C 683.933 -2.20888 2.86165 0
M  V30 7169 O 683.654 -1.5571 4.09495 0
M  V30 7170 C 685.155 -3.103 3.1659 0
M  V30 7171 H 682.375 -0.347494 0.574011 0
M  V30 7172 H 684.919 -0.458972 1.99283 0
M  V30 7173 H 683.074 -2.86492 2.6077 0
M  V30 7174 H 683.488 -2.25474 4.73563 0
M  V30 7175 H 684.962 -3.8003 4.00351 0
M  V30 7176 H 685.439 -3.73639 2.30848 0
M  V30 7177 H 686.045 -2.50345 3.43813 0
M  V30 7178 N 684.36 -1.4356 -0.65026 0
M  V30 7179 C 685.608 -1.45046 -1.40734 0
M  V30 7180 C 685.929 -0.0769822 -1.94848 0
M  V30 7181 O 685.199 0.888098 -1.74613 0
M  V30 7182 H 683.779 -0.534034 -0.522318 0
M  V30 7183 H 686.441 -1.79186 -0.766703 0
M  V30 7184 H 685.537 -2.16476 -2.24822 0
M  V30 7185 N 685.838 0.888903 -1.30139 0
M  V30 7186 C 686.771 1.99655 -1.10514 0
M  V30 7187 C 687.749 1.62594 -0.0138934 0
M  V30 7188 O 688.933 1.87762 -0.166689 0
M  V30 7189 C 686.06 3.31708 -0.684655 0
M  V30 7190 C 685.106 3.87755 -1.77619 0
M  V30 7191 S 685.939 4.15532 -3.37777 0
M  V30 7192 C 687.095 5.5061 -2.97622 0
M  V30 7193 H 687.328 2.15996 -2.04287 0
M  V30 7194 H 684.861 1.03682 -1.14409 0
M  V30 7195 H 686.819 4.08039 -0.448782 0
M  V30 7196 H 685.48 3.1323 0.233648 0
M  V30 7197 H 684.673 4.83164 -1.43417 0
M  V30 7198 H 684.275 3.18149 -1.96614 0
M  V30 7199 H 686.567 6.31518 -2.45338 0
M  V30 7200 H 687.51 5.89747 -3.91924 0
M  V30 7201 H 687.918 5.12983 -2.35603 0
M  V30 7202 N 687.317 1.12792 1.10072 0
M  V30 7203 C 688.565 0.883796 1.81751 0
M  V30 7204 C 688.886 -0.591891 1.858 0
M  V30 7205 O 688.156 -1.43017 1.33876 0
M  V30 7206 H 686.736 0.323978 0.673088 0
M  V30 7207 H 689.398 1.42314 1.33164 0
M  V30 7208 H 688.494 1.26863 2.85153 0
M  V30 7209 N 688.795 -1.27931 0.920396 0
M  V30 7210 C 690.041 -1.94977 0.557832 0
M  V30 7211 C 690.374 -1.72224 -0.897365 0
M  V30 7212 O 689.649 -1.04705 -1.63912 0
M  V30 7213 C 689.932 -3.49289 0.875741 0
M  V30 7214 C 689.785 -3.81416 2.38416 0
M  V30 7215 C 691.104 -4.38486 0.376517 0
M  V30 7216 H 688.223 -0.708164 0.20414 0
M  V30 7217 H 690.865 -1.5118 1.15085 0
M  V30 7218 H 689.015 -3.86724 0.371062 0
M  V30 7219 H 690.687 -3.53813 2.95997 0
M  V30 7220 H 688.93 -3.28225 2.83639 0
M  V30 7221 H 689.601 -4.89198 2.55713 0
M  V30 7222 H 692.077 -4.08161 0.808945 0
M  V30 7223 H 690.953 -5.45296 0.627976 0
M  V30 7224 H 691.214 -4.36143 -0.723293 0
M  V30 7225 N 690.273 -0.685099 -1.4193 0
M  V30 7226 C 691.521 -0.21124 -2.00993 0
M  V30 7227 C 691.842 1.18985 -1.54491 0
M  V30 7228 O 691.112 1.8009 -0.771 0
M  V30 7229 H 689.692 -0.0751059 -0.743215 0
M  V30 7230 H 692.354 -0.883915 -1.73704 0
M  V30 7231 H 691.45 -0.220513 -3.1132 0
M  V30 7232 N 691.751 1.51645 -0.429126 0
M  V30 7233 C 692.681 2.30434 0.377148 0
M  V30 7234 C 693.662 1.35493 1.02838 0
M  V30 7235 O 694.847 1.6441 1.03359 0
M  V30 7236 C 691.977 3.14038 1.48315 0
M  V30 7237 C 690.931 4.1719 0.955855 0
M  V30 7238 C 690.257 4.89263 2.15698 0
M  V30 7239 C 691.557 5.223 -0.00402136 0
M  V30 7240 H 693.251 2.98085 -0.280336 0
M  V30 7241 H 690.797 1.43354 -0.136265 0
M  V30 7242 H 692.75 3.67933 2.05435 0
M  V30 7243 H 691.474 2.44193 2.16881 0
M  V30 7244 H 690.133 3.64335 0.406929 0
M  V30 7245 H 689.781 4.15929 2.82864 0
M  V30 7246 H 689.481 5.59009 1.81059 0
M  V30 7247 H 691.005 5.45978 2.73387 0
M  V30 7248 H 692.419 5.71315 0.476607 0
M  V30 7249 H 690.816 5.99525 -0.26258 0
M  V30 7250 H 691.886 4.75638 -0.943236 0
M  V30 7251 N 693.229 0.160201 1.56784 0
M  V30 7252 C 694.454 -0.497373 2.01348 0
M  V30 7253 C 694.879 -1.56757 1.03966 0
M  V30 7254 O 694.237 -1.81292 0.0174455 0
M  V30 7255 C 694.285 -1.0628 3.44582 0
M  V30 7256 O 693.389 -2.17723 3.50244 0
M  V30 7257 H 692.73 -0.120295 0.653012 0
M  V30 7258 H 695.26 0.260821 2.02931 0
M  V30 7259 H 695.27 -1.38819 3.83658 0
M  V30 7260 H 693.945 -0.279166 4.14962 0
M  V30 7261 H 692.522 -1.86313 3.2302 0
M  V30 7262 N 694.707 -1.5719 -0.113559 0
M  V30 7263 C 695.956 -1.84325 -0.818984 0
M  V30 7264 C 696.269 -0.746685 -1.80787 0
M  V30 7265 O 697.475 -0.904596 -2.55987 0
M  V30 7266 C 695.931 -3.26818 -1.50724 0
M  V30 7267 C 695.539 -4.44498 -0.559065 0
M  V30 7268 C 697.283 -3.63196 -2.19748 0
M  V30 7269 C 695.19 -5.7802 -1.25086 0
M  V30 7270 H 694.12 -0.687507 -0.309596 0
M  V30 7271 H 696.771 -1.8336 -0.0717621 0
M  V30 7272 H 695.153 -3.22269 -2.30128 0
M  V30 7273 H 696.327 -4.60356 0.202146 0
M  V30 7274 H 694.642 -4.16393 0.024495 0
M  V30 7275 H 697.239 -4.60226 -2.72206 0
M  V30 7276 H 697.582 -2.90899 -2.97798 0
M  V30 7277 H 698.115 -3.69553 -1.47226 0
M  V30 7278 H 694.854 -6.53501 -0.511539 0
M  V30 7279 H 694.374 -5.66038 -1.98395 0
M  V30 7280 H 696.053 -6.2196 -1.78253 0
M  V30 7281 N 696.185 0.383891 -1.52853 0
M  V30 7282 C 697.41 1.154 -1.7233 0
M  V30 7283 C 697.835 1.82809 -0.44298 0
M  V30 7284 O 697.193 1.71026 0.601645 0
M  V30 7285 C 697.241 2.17386 -2.87708 0
M  V30 7286 O 696.345 3.24082 -2.55038 0
M  V30 7287 H 695.686 0.335709 -0.572883 0
M  V30 7288 H 698.216 0.44662 -1.99666 0
M  V30 7289 H 698.226 2.61296 -3.1335 0
M  V30 7290 H 696.901 1.6771 -3.80587 0
M  V30 7291 H 695.478 2.85273 -2.40153 0
M  V30 7292 N 697.663 1.43903 0.642637 0
M  V30 7293 C 699.079 1.27536 0.959519 0
M  V30 7294 C 699.279 0.202751 2.00477 0
M  V30 7295 O 698.335 -0.415256 2.49062 0
M  V30 7296 C 699.648 2.6432 1.43372 0
M  V30 7297 C 701.196 2.71937 1.54981 0
M  V30 7298 C 701.671 4.09164 2.05789 0
M  V30 7299 N 703.162 4.11282 2.13076 0
M  V30 7300 C 703.897 5.14303 2.53534 0
M  V30 7301 N 703.393 6.27693 2.93212 0
M  V30 7302 N 705.186 5.01657 2.53567 0
M  V30 7303 H 697.337 2.12344 -0.0488376 0
M  V30 7304 H 699.6 0.947124 0.0407559 0
M  V30 7305 H 699.306 3.43826 0.740048 0
M  V30 7306 H 699.18 2.90432 2.40685 0
M  V30 7307 H 701.567 1.92757 2.23448 0
M  V30 7308 H 701.648 2.49578 0.560739 0
M  V30 7309 H 701.292 4.88815 1.37921 0
M  V30 7310 H 701.222 4.28893 3.05546 0
M  V30 7311 H 703.713 3.2944 1.85143 0
M  V30 7312 H 704.026 7.02125 3.22863 0
M  V30 7313 H 702.371 6.31149 2.90991 0
M  V30 7314 H 705.562 4.12134 2.21952 0
M  V30 7315 H 705.735 5.82072 2.84774 0
M  V30 7316 N 699.141 -0.881989 1.30609 0
M  V30 7317 C 700.366 -1.67236 1.22665 0
M  V30 7318 C 700.791 -1.8696 -0.206777 0
M  V30 7319 O 700.149 -1.4027 -1.14865 0
M  V30 7320 C 700.197 -3.02446 1.96363 0
M  V30 7321 O 699.301 -3.91614 1.29276 0
M  V30 7322 H 698.642 -0.510902 0.424117 0
M  V30 7323 H 701.172 -1.10055 1.72479 0
M  V30 7324 H 701.182 -3.52468 2.055 0
M  V30 7325 H 699.857 -2.8741 3.00613 0
M  V30 7326 H 698.434 -3.50055 1.28514 0
M  V30 7327 N 700.619 -1.13374 -1.09472 0
M  V30 7328 C 701.868 -0.889844 -1.8101 0
M  V30 7329 C 702.181 0.585686 -1.86625 0
M  V30 7330 O 703.387 0.946497 -2.54467 0
M  V30 7331 C 701.843 -1.54241 -3.25174 0
M  V30 7332 C 701.451 -3.05343 -3.27826 0
M  V30 7333 C 703.195 -1.37919 -4.0147 0
M  V30 7334 C 701.102 -3.63486 -4.6651 0
M  V30 7335 H 700.032 -0.329256 -0.678311 0
M  V30 7336 H 702.683 -1.36139 -1.23038 0
M  V30 7337 H 701.065 -0.998525 -3.83204 0
M  V30 7338 H 702.239 -3.66307 -2.79563 0
M  V30 7339 H 700.554 -3.21175 -2.65019 0
M  V30 7340 H 703.151 -1.78771 -5.03929 0
M  V30 7341 H 703.494 -0.323987 -4.15037 0
M  V30 7342 H 704.027 -1.89284 -3.49881 0
M  V30 7343 H 700.766 -4.68811 -4.58145 0
M  V30 7344 H 700.286 -3.073 -5.15099 0
M  V30 7345 H 701.965 -3.63134 -5.35484 0
M  V30 7346 N 702.098 1.27442 -0.927168 0
M  V30 7347 C 703.347 1.93679 -0.563146 0
M  V30 7348 C 703.66 1.73673 0.899837 0
M  V30 7349 O 704.866 2.34247 1.37262 0
M  V30 7350 C 703.322 3.46961 -0.95636 0
M  V30 7351 C 702.93 3.75724 -2.43999 0
M  V30 7352 C 704.674 4.19282 -0.663565 0
M  V30 7353 C 702.581 5.22378 -2.77263 0
M  V30 7354 H 701.511 0.725059 -0.206894 0
M  V30 7355 H 704.162 1.44743 -1.12791 0
M  V30 7356 H 702.544 3.94703 -0.320254 0
M  V30 7357 H 703.718 3.38741 -3.12396 0
M  V30 7358 H 702.033 3.16605 -2.70463 0
M  V30 7359 H 704.63 5.27265 -0.888596 0
M  V30 7360 H 704.973 4.14382 0.399198 0
M  V30 7361 H 705.506 3.7736 -1.25875 0
M  V30 7362 H 702.245 5.32367 -3.82446 0
M  V30 7363 H 701.765 5.6051 -2.13516 0
M  V30 7364 H 703.444 5.9025 -2.64979 0
M  V30 7365 N 703.576 0.692616 1.41565 0
M  V30 7366 C 704.486 0.0258451 2.34586 0
M  V30 7367 C 705.502 -0.769324 1.56069 0
M  V30 7368 O 706.678 -0.707563 1.88562 0
M  V30 7369 C 703.743 -0.901289 3.3478 0
M  V30 7370 C 702.804 -0.0986579 4.29187 0
M  V30 7371 C 702.037 -0.981634 5.24595 0
M  V30 7372 O 702.26 -2.22115 5.25377 0
M  V30 7373 O 701.194 -0.432892 6.00341 0
M  V30 7374 H 705.02 0.792537 2.93177 0
M  V30 7375 H 702.605 0.452935 1.42369 0
M  V30 7376 H 704.487 -1.43302 3.96286 0
M  V30 7377 H 703.162 -1.64752 2.78637 0
M  V30 7378 H 702.069 0.477604 3.71039 0
M  V30 7379 H 703.402 0.608848 4.8842 0
M  V30 7380 N 705.054 -1.51416 0.437162 0
M  V30 7381 C 706.017 -2.26312 -0.362729 0
M  V30 7382 C 707.017 -1.29748 -0.949847 0
M  V30 7383 O 708.207 -1.53462 -0.824325 0
M  V30 7384 C 705.339 -3.05475 -1.5132 0
M  V30 7385 H 706.532 -2.98459 0.29365 0
M  V30 7386 H 704.085 -1.55137 0.190327 0
M  V30 7387 H 704.82 -2.37744 -2.20563 0
M  V30 7388 H 704.605 -3.76401 -1.09838 0
M  V30 7389 H 706.095 -3.62209 -2.07833 0
M  V30 7390 N 706.532 -0.168513 -1.56696 0
M  V30 7391 C 707.482 0.7751 -2.14421 0
M  V30 7392 C 708.466 1.19476 -1.07769 0
M  V30 7393 O 709.658 1.15759 -1.33898 0
M  V30 7394 C 706.787 2.00549 -2.7863 0
M  V30 7395 C 705.873 1.60795 -3.92436 0
M  V30 7396 N 706.264 0.919812 -4.97366 0
M  V30 7397 C 704.562 1.89917 -4.03544 0
M  V30 7398 C 705.263 0.724485 -5.77171 0
M  V30 7399 N 704.239 1.26505 -5.28675 0
M  V30 7400 H 708.041 0.240349 -2.92916 0
M  V30 7401 H 705.555 0.0322675 -1.62368 0
M  V30 7402 H 707.552 2.6917 -3.1836 0
M  V30 7403 H 706.212 2.54522 -2.01615 0
M  V30 7404 H 707.223 0.578169 -5.14663 0
M  V30 7405 H 703.9 2.45587 -3.37629 0
M  V30 7406 H 705.29 0.180521 -6.71657 0
M  V30 7407 N 708.01 1.57248 0.105221 0
M  V30 7408 C 709.258 1.85204 0.808951 0
M  V30 7409 C 709.579 0.75574 1.7976 0
M  V30 7410 O 708.849 -0.218984 1.94672 0
M  V30 7411 H 707.429 0.683346 0.301739 0
M  V30 7412 H 710.091 1.94695 0.0892605 0
M  V30 7413 H 709.187 2.81595 1.34575 0
M  V30 7414 N 709.488 -0.375779 1.53054 0
M  V30 7415 C 710.736 -1.11727 1.68409 0
M  V30 7416 C 711.057 -1.90127 0.43323 0
M  V30 7417 O 710.327 -1.87945 -0.552595 0
M  V30 7418 H 708.907 -0.415451 0.620813 0
M  V30 7419 H 711.569 -0.424869 1.90213 0
M  V30 7420 H 710.665 -1.8128 2.54055 0
M  V30 7421 N 710.966 -1.44241 -0.634997 0
M  V30 7422 C 712.382 -1.28043 -0.952742 0
M  V30 7423 C 712.582 -0.21338 -2.00367 0
M  V30 7424 O 711.638 0.402042 -2.49279 0
M  V30 7425 C 712.951 -2.65076 -1.41968 0
M  V30 7426 C 714.499 -2.72755 -1.53537 0
M  V30 7427 C 714.974 -4.10249 -2.03616 0
M  V30 7428 N 716.465 -4.12406 -2.10892 0
M  V30 7429 C 717.2 -5.15641 -2.50803 0
M  V30 7430 N 716.696 -6.29239 -2.89879 0
M  V30 7431 N 718.489 -5.02995 -2.50903 0
M  V30 7432 H 710.64 -2.12315 0.060098 0
M  V30 7433 H 712.903 -0.947326 -0.0357325 0
M  V30 7434 H 712.609 -3.44213 -0.721804 0
M  V30 7435 H 712.483 -2.91704 -2.39141 0
M  V30 7436 H 714.87 -1.93939 -2.22422 0
M  V30 7437 H 714.951 -2.49872 -0.547496 0
M  V30 7438 H 714.595 -4.8954 -1.35327 0
M  V30 7439 H 714.525 -4.30507 -3.03268 0
M  V30 7440 H 717.016 -3.30417 -1.83393 0
M  V30 7441 H 717.329 -7.03827 -3.19135 0
M  V30 7442 H 715.674 -6.32683 -2.8764 0
M  V30 7443 H 718.865 -4.13306 -2.19763 0
M  V30 7444 H 719.038 -5.83574 -2.81683 0
M  V30 7445 N 712.444 0.87505 -1.31075 0
M  V30 7446 C 713.377 1.98471 -1.12625 0
M  V30 7447 C 714.355 1.6257 -0.0311379 0
M  V30 7448 O 715.539 1.87574 -0.186594 0
M  V30 7449 C 712.666 3.30963 -0.719799 0
M  V30 7450 C 711.712 3.85849 -1.81722 0
M  V30 7451 S 712.545 4.11926 -3.42165 0
M  V30 7452 C 713.701 5.47423 -3.03445 0
M  V30 7453 H 713.934 2.13817 -2.06566 0
M  V30 7454 H 711.467 1.02463 -1.15502 0
M  V30 7455 H 713.425 4.07541 -0.492035 0
M  V30 7456 H 712.086 3.1346 0.200413 0
M  V30 7457 H 711.279 4.81616 -1.48533 0
M  V30 7458 H 710.881 3.16046 -1.99977 0
M  V30 7459 H 713.173 6.28881 -2.52023 0
M  V30 7460 H 714.116 5.85557 -3.98157 0
M  V30 7461 H 714.524 5.10455 -2.41031 0
M  V30 7462 N 713.922 1.13953 1.08869 0
M  V30 7463 C 715.168 0.916103 1.81602 0
M  V30 7464 C 715.523 -0.551633 1.84322 0
M  V30 7465 O 714.816 -1.40322 1.30462 0
M  V30 7466 C 715.01 1.44495 3.26888 0
M  V30 7467 C 714.839 2.96257 3.38322 0
M  V30 7468 C 713.609 3.64658 3.49789 0
M  V30 7469 C 715.807 3.94156 3.30372 0
M  V30 7470 N 713.789 5.04379 3.49965 0
M  V30 7471 C 715.16 5.20101 3.37484 0
M  V30 7472 C 717.215 3.86342 3.14077 0
M  V30 7473 C 715.918 6.39145 3.29979 0
M  V30 7474 C 717.944 5.04927 3.07901 0
M  V30 7475 C 717.306 6.29738 3.1561 0
M  V30 7476 H 713.405 0.388701 0.678554 0
M  V30 7477 H 715.989 1.44879 1.3007 0
M  V30 7478 H 714.16 0.939102 3.76876 0
M  V30 7479 H 715.892 1.16193 3.87661 0
M  V30 7480 H 712.647 3.15196 3.5348 0
M  V30 7481 H 713.071 5.77305 3.53622 0
M  V30 7482 H 717.713 2.90726 3.06982 0
M  V30 7483 H 715.431 7.3501 3.35836 0
M  V30 7484 H 719.017 5.00626 2.9642 0
M  V30 7485 H 717.897 7.19958 3.10854 0
M  V30 7486 N 715.4 -1.26948 0.933913 0
M  V30 7487 C 716.363 -2.24889 0.442457 0
M  V30 7488 C 717.363 -1.54594 -0.442426 0
M  V30 7489 O 718.553 -1.72502 -0.242629 0
M  V30 7490 C 715.685 -3.3896 -0.363173 0
M  V30 7491 H 716.878 -2.69879 1.30787 0
M  V30 7492 H 714.431 -1.38978 0.715187 0
M  V30 7493 H 715.166 -2.99361 -1.24714 0
M  V30 7494 H 714.951 -3.9116 0.271366 0
M  V30 7495 H 716.441 -4.11739 -0.697186 0
M  V30 7496 N 716.879 -0.700114 -1.41195 0
M  V30 7497 C 717.789 -0.0382854 -2.34569 0
M  V30 7498 C 718.805 0.761036 -1.56474 0
M  V30 7499 O 719.981 0.697553 -1.88934 0
M  V30 7500 C 717.046 0.883522 -3.35253 0
M  V30 7501 C 716.107 0.0758957 -4.29233 0
M  V30 7502 C 715.34 0.9538 -5.25108 0
M  V30 7503 O 715.563 2.19326 -5.26547 0
M  V30 7504 O 714.497 0.401049 -6.00562 0
M  V30 7505 H 718.323 -0.808073 -2.92752 0
M  V30 7506 H 715.908 -0.460479 -1.42127 0
M  V30 7507 H 717.79 1.41199 -3.9704 0
M  V30 7508 H 716.465 1.63272 -2.79506 0
M  V30 7509 H 715.372 -0.497274 -3.7078 0
M  V30 7510 H 716.705 -0.634741 -4.8809 0
M  V30 7511 N 718.357 1.51182 -0.445186 0
M  V30 7512 C 719.582 2.07056 0.119445 0
M  V30 7513 C 720.007 1.30966 1.35016 0
M  V30 7514 O 719.365 0.349827 1.77893 0
M  V30 7515 C 719.413 3.58234 0.412428 0
M  V30 7516 O 718.517 3.84249 1.49754 0
M  V30 7517 H 717.858 0.663998 -0.00157797 0
M  V30 7518 H 720.388 1.94699 -0.628779 0
M  V30 7519 H 720.398 4.02617 0.660583 0
M  V30 7520 H 719.073 4.13038 -0.487049 0
M  V30 7521 H 717.65 3.51724 1.23873 0
M  V30 7522 N 719.835 0.176821 1.56605 0
M  V30 7523 C 720.783 -0.768159 2.1955 0
M  V30 7524 C 721.777 -1.23343 1.16116 0
M  V30 7525 O 722.983 -1.19844 1.34303 0
M  V30 7526 H 719.358 -0.266013 0.703378 0
M  V30 7527 H 721.329 -0.213374 2.97636 0
M  V30 7528 C 720.078 -1.98492 2.85475 0
M  V30 7529 H 719.401 -1.63595 3.64797 0
M  V30 7530 H 720.841 -2.62489 3.3298 0
M  V30 7531 C 719.3 -2.81207 1.85538 0
M  V30 7532 O 719.83 -3.7854 1.34427 0
M  V30 7533 N 718.036 -2.46331 1.54173 0
M  V30 7534 H 717.583 -1.67241 1.95929 0
M  V30 7535 H 717.541 -3.01961 0.875595 0
M  V30 7536 N 721.313 -1.57302 -0.09688 0
M  V30 7537 C 722.276 -2.00976 -1.10188 0
M  V30 7538 C 723.276 -0.903009 -1.3305 0
M  V30 7539 O 724.466 -1.16853 -1.29194 0
M  V30 7540 C 721.598 -2.36893 -2.45142 0
M  V30 7541 H 722.791 -2.9098 -0.726003 0
M  V30 7542 H 720.344 -1.52515 -0.341872 0
M  V30 7543 H 721.079 -1.49837 -2.8761 0
M  V30 7544 H 720.864 -3.17632 -2.29897 0
M  V30 7545 H 722.354 -2.71345 -3.1743 0
M  V30 7546 N 722.791 0.367657 -1.53252 0
M  V30 7547 C 724.016 1.13566 -1.73544 0
M  V30 7548 C 724.441 1.82329 -0.462344 0
M  V30 7549 O 723.799 1.71655 0.583472 0
M  V30 7550 C 723.847 2.14322 -2.89997 0
M  V30 7551 O 722.951 3.21359 -2.58461 0
M  V30 7552 H 722.292 0.329614 -0.576412 0
M  V30 7553 H 724.822 0.425417 -2.00128 0
M  V30 7554 H 724.832 2.57958 -3.16104 0
M  V30 7555 H 723.507 1.63664 -3.82344 0
M  V30 7556 H 722.084 2.8271 -2.43165 0
M  V30 7557 N 724.269 1.44576 0.627338 0
M  V30 7558 C 725.517 1.47267 1.38408 0
M  V30 7559 C 725.838 0.107971 1.94701 0
M  V30 7560 O 725.108 -0.860206 1.76004 0
M  V30 7561 H 723.688 0.542276 0.513756 0
M  V30 7562 H 726.35 1.80383 0.738099 0
M  V30 7563 H 725.446 2.20025 2.21349 0
M  V30 7564 N 725.747 -0.868086 1.31537 0
M  V30 7565 C 726.995 -1.61807 1.21091 0
M  V30 7566 C 727.316 -1.93631 -0.230623 0
M  V30 7567 O 726.586 -1.5846 -1.15183 0
M  V30 7568 H 725.166 -0.599854 0.445178 0
M  V30 7569 H 727.828 -1.03915 1.64887 0
M  V30 7570 H 726.924 -2.56088 1.78396 0
M  V30 7571 N 727.225 -1.14528 -1.08264 0
M  V30 7572 C 728.188 -0.83632 -2.13397 0
M  V30 7573 C 729.188 0.159715 -1.60005 0
M  V30 7574 O 730.378 -0.0688098 -1.74064 0
M  V30 7575 C 727.51 -0.246973 -3.40004 0
M  V30 7576 H 728.703 -1.76808 -2.42237 0
M  V30 7577 H 726.256 -0.951509 -1.24 0
M  V30 7578 H 726.991 0.693436 -3.168 0
M  V30 7579 H 726.776 -0.964412 -3.80055 0
M  V30 7580 H 728.266 -0.0480679 -4.17572 0
M  V30 7581 N 728.703 1.26451 -0.940633 0
M  V30 7582 C 729.931 1.97868 -0.604642 0
M  V30 7583 C 730.346 1.70051 0.820251 0
M  V30 7584 O 729.703 0.96843 1.54686 0
M  V30 7585 C 729.754 3.51684 -0.836689 0
M  V30 7586 O 729.475 3.78533 -2.20554 0
M  V30 7587 C 730.976 4.40343 -0.511169 0
M  V30 7588 H 728.196 0.631105 -0.227919 0
M  V30 7589 H 730.74 1.60979 -1.26119 0
M  V30 7590 H 728.895 3.86736 -0.226759 0
M  V30 7591 H 729.309 4.73065 -2.26517 0
M  V30 7592 H 730.783 5.47229 -0.724157 0
M  V30 7593 H 731.26 4.35694 0.553815 0
M  V30 7594 H 731.866 4.10834 -1.0998 0
M  V30 7595 N 730.181 0.707592 1.40822 0
M  V30 7596 C 731.428 0.243671 2.01029 0
M  V30 7597 C 731.756 -1.16057 1.5608 0
M  V30 7598 O 731.011 -1.7999 0.768251 0
M  V30 7599 C 731.31 0.262892 3.56432 0
M  V30 7600 C 730.976 1.61632 4.20935 0
M  V30 7601 C 729.638 1.98682 4.38268 0
M  V30 7602 C 731.99 2.50619 4.5699 0
M  V30 7603 C 729.318 3.2428 4.88937 0
M  V30 7604 C 731.67 3.75562 5.09054 0
M  V30 7605 C 730.334 4.12739 5.24598 0
M  V30 7606 H 729.604 0.0891654 0.735616 0
M  V30 7607 H 732.251 0.909051 1.68548 0
M  V30 7608 H 730.556 -0.486052 3.88773 0
M  V30 7609 H 732.253 -0.113775 4.00839 0
M  V30 7610 H 728.843 1.31818 4.07826 0
M  V30 7611 H 733.027 2.23272 4.43242 0
M  V30 7612 H 728.283 3.53064 4.99155 0
M  V30 7613 H 732.457 4.44692 5.35931 0
M  V30 7614 H 730.084 5.10132 5.63622 0
M  V30 7615 N 731.66 -1.50943 0.453197 0
M  V30 7616 C 733.076 -1.59245 0.106342 0
M  V30 7617 C 733.276 -1.46287 -1.38572 0
M  V30 7618 O 732.332 -1.31219 -2.15726 0
M  V30 7619 C 733.645 -2.93797 0.640595 0
M  V30 7620 C 735.193 -3.07148 0.602435 0
M  V30 7621 C 735.668 -4.44247 1.11393 0
M  V30 7622 N 737.159 -4.50611 1.07258 0
M  V30 7623 C 737.894 -5.55049 1.43905 0
M  V30 7624 N 737.39 -6.66828 1.87914 0
M  V30 7625 N 739.183 -5.45494 1.35621 0
M  V30 7626 H 731.334 -1.5761 1.42382 0
M  V30 7627 H 733.597 -0.74384 0.587713 0
M  V30 7628 H 733.303 -3.087 1.68515 0
M  V30 7629 H 733.177 -3.77127 0.0742272 0
M  V30 7630 H 735.564 -2.91903 -0.433171 0
M  V30 7631 H 735.645 -2.25619 1.20539 0
M  V30 7632 H 735.289 -4.60239 2.14808 0
M  V30 7633 H 735.219 -5.2434 0.487353 0
M  V30 7634 H 737.71 -3.70391 0.749585 0
M  V30 7635 H 738.023 -7.42558 2.14072 0
M  V30 7636 H 736.368 -6.67995 1.91853 0
M  V30 7637 H 739.559 -4.57053 1.01093 0
M  V30 7638 H 739.732 -6.2677 1.64508 0
M  V30 7639 N 733.138 -0.185124 -1.56509 0
M  V30 7640 C 734.385 0.456258 -1.97293 0
M  V30 7641 C 734.713 1.62314 -1.07165 0
M  V30 7642 O 733.968 1.95398 -0.108621 0
M  V30 7643 C 734.267 0.967977 -3.44042 0
M  V30 7644 C 733.933 -0.084476 -4.50821 0
M  V30 7645 C 732.595 -0.373689 -4.79747 0
M  V30 7646 C 734.947 -0.79812 -5.15053 0
M  V30 7647 C 732.275 -1.3817 -5.70198 0
M  V30 7648 C 734.627 -1.79521 -6.06593 0
M  V30 7649 C 733.291 -2.09172 -6.3388 0
M  V30 7650 H 732.561 0.166957 -0.721946 0
M  V30 7651 H 735.208 -0.279992 -1.89442 0
M  V30 7652 H 733.513 1.78231 -3.48914 0
M  V30 7653 H 735.21 1.47347 -3.72948 0
M  V30 7654 H 731.8 0.15111 -4.28334 0
M  V30 7655 H 735.984 -0.587903 -4.92806 0
M  V30 7656 H 731.24 -1.61745 -5.89617 0
M  V30 7657 H 735.414 -2.35347 -6.55427 0
M  V30 7658 H 733.041 -2.87427 -7.03768 0
M  V30 7659 N 734.616 1.57351 0.0885366 0
M  V30 7660 C 735.844 1.90631 0.804196 0
M  V30 7661 C 736.259 0.779474 1.71958 0
M  V30 7662 O 735.616 -0.248179 1.80805 0
M  V30 7663 C 735.667 3.23568 1.61202 0
M  V30 7664 O 735.388 4.31917 0.733447 0
M  V30 7665 C 736.889 3.70753 2.43016 0
M  V30 7666 H 734.109 0.630501 0.229585 0
M  V30 7667 H 736.653 2.044 0.0638092 0
M  V30 7668 H 734.808 3.11377 2.30485 0
M  V30 7669 H 735.222 5.08297 1.29361 0
M  V30 7670 H 736.696 4.66447 2.9518 0
M  V30 7671 H 737.173 2.98922 3.2178 0
M  V30 7672 H 737.779 3.85834 1.7892 0
M  V30 7673 N 736.094 -0.359525 1.53444 0
M  V30 7674 C 737.024 -1.44662 1.8329 0
M  V30 7675 C 738.005 -1.55617 0.68683 0
M  V30 7676 O 739.19 -1.70086 0.93725 0
M  V30 7677 C 736.32 -2.81923 2.02822 0
M  V30 7678 C 735.274 -2.85787 3.18606 0
M  V30 7679 C 734.6 -4.25781 3.23442 0
M  V30 7680 C 735.9 -2.52762 4.57065 0
M  V30 7681 H 737.594 -1.19934 2.74329 0
M  V30 7682 H 735.14 -0.575517 1.31999 0
M  V30 7683 H 737.093 -3.58005 2.22285 0
M  V30 7684 H 735.817 -3.08051 1.085 0
M  V30 7685 H 734.476 -2.12157 2.98973 0
M  V30 7686 H 734.124 -4.48994 2.26745 0
M  V30 7687 H 733.824 -4.29281 4.01238 0
M  V30 7688 H 735.348 -5.03727 3.45096 0
M  V30 7689 H 736.762 -3.18557 4.76649 0
M  V30 7690 H 735.159 -2.67569 5.37147 0
M  V30 7691 H 736.229 -1.47993 4.61764 0
M  V30 7692 N 737.572 -1.44907 -0.619662 0
M  V30 7693 C 738.983 -1.42905 -1.20146 0
M  V30 7694 C 739.334 -0.150341 -1.95623 0
M  V30 7695 O 738.459 0.748732 -2.03034 0
M  V30 7696 C 739.054 -2.58889 -2.18545 0
M  V30 7697 C 737.613 -2.60046 -2.72127 0
M  V30 7698 C 736.76 -2.3493 -1.4732 0
M  V30 7699 H 739.711 -1.53321 -0.409666 0
M  V30 7700 H 739.732 -2.32298 -3.0136 0
M  V30 7701 H 739.244 -3.51941 -1.63583 0
M  V30 7702 H 737.345 -1.70968 -3.3106 0
M  V30 7703 H 737.458 -3.58893 -3.17384 0
M  V30 7704 H 735.822 -1.84248 -1.75855 0
M  V30 7705 H 736.605 -3.3011 -0.942442 0
M  V30 7706 N 739.05 0.861098 -1.31996 0
M  V30 7707 C 740.013 1.95068 -1.20338 0
M  V30 7708 C 741.013 1.60289 -0.128114 0
M  V30 7709 O 742.203 1.70048 -0.378044 0
M  V30 7710 C 739.335 3.30153 -0.849205 0
M  V30 7711 H 740.528 2.06833 -2.17164 0
M  V30 7712 H 738.081 1.05049 -1.15734 0
M  V30 7713 H 738.816 3.24087 0.117508 0
M  V30 7714 H 738.601 3.56771 -1.62655 0
M  V30 7715 H 740.091 4.10025 -0.791782 0
M  V30 7716 N 740.528 1.15101 1.07655 0
M  V30 7717 C 741.491 0.847625 2.12951 0
M  V30 7718 C 742.491 -0.151227 1.60087 0
M  V30 7719 O 743.681 0.0780399 1.74025 0
M  V30 7720 C 740.813 0.265 3.39868 0
M  V30 7721 H 742.006 1.7809 2.41296 0
M  V30 7722 H 739.559 0.958072 1.23494 0
M  V30 7723 H 740.294 -0.676625 3.17163 0
M  V30 7724 H 740.079 0.984554 3.79538 0
M  V30 7725 H 741.569 0.0702121 4.17541 0
M  V30 7726 N 742.006 -1.2595 0.947325 0
M  V30 7727 C 743.283 -1.88676 0.515824 0
M  V30 7728 C 743.663 -1.85547 -1.00675 0
M  V30 7729 O 743.011 -1.31399 -1.8694 0
M  V30 7730 C 743.221 -3.31734 1.08415 0
M  V30 7731 C 744.569 -4.08545 1.15654 0
M  V30 7732 O 745.593 -3.40826 1.03517 0
M  V30 7733 O 744.452 -5.29663 1.34608 0
M  V30 7734 H 741.546 -0.809537 0.169055 0
M  V30 7735 H 744.092 -1.34075 1.04029 0
M  V30 7736 H 742.864 -3.28404 2.1276 0
M  V30 7737 H 742.487 -3.93882 0.542499 0
M  V30 7738 N 743.484 -0.715051 -1.40445 0
M  V30 7739 C 744.394 -0.0631624 -2.34515 0
M  V30 7740 C 745.41 0.744397 -1.57273 0
M  V30 7741 O 746.586 0.677475 -1.89663 0
M  V30 7742 C 743.651 0.847915 -3.36172 0
M  V30 7743 C 742.712 0.0303655 -4.29289 0
M  V30 7744 C 741.945 0.898051 -5.2609 0
M  V30 7745 O 742.168 2.13729 -5.28844 0
M  V30 7746 O 741.102 0.337328 -6.00954 0
M  V30 7747 H 744.928 -0.839078 -2.91879 0
M  V30 7748 H 742.513 -0.475527 -1.4163 0
M  V30 7749 H 744.395 1.3698 -3.98515 0
M  V30 7750 H 743.07 1.60299 -2.81222 0
M  V30 7751 H 741.977 -0.536573 -3.70232 0
M  V30 7752 H 743.31 -0.686474 -4.87389 0
M  V30 7753 N 744.962 1.50701 -0.461195 0
M  V30 7754 C 745.91 2.29918 0.352231 0
M  V30 7755 C 746.904 1.36778 0.999403 0
M  V30 7756 O 748.11 1.54015 0.931639 0
M  V30 7757 H 744.485 0.740249 0.132423 0
M  V30 7758 H 746.456 2.96497 -0.336424 0
M  V30 7759 C 745.205 3.17052 1.42736 0
M  V30 7760 H 744.528 3.88623 0.938747 0
M  V30 7761 H 745.968 3.75493 1.96928 0
M  V30 7762 C 744.427 2.3399 2.42384 0
M  V30 7763 O 744.957 2.01608 3.47444 0
M  V30 7764 N 743.163 1.96758 2.13857 0
M  V30 7765 H 742.71 2.23292 1.28447 0
M  V30 7766 H 742.668 1.41484 2.80766 0
M  V30 7767 O 746.479 0.334734 1.57993 0
M  V30 7768 H 747.17 -0.222689 1.92416 0
M  V30 END ATOM
M  V30 BEGIN BOND
M  V30 END BOND
M  V30 END CTAB
M  END
$$$$
