drugbank_target|P23258 Tubulin gamma-1 chain (DB00570)
 OpenBabel12092120373D

  0  0  0     0  0            999 V3000
M  V30 BEGIN CTAB
M  V30 COUNTS 7142 7217 0 0 0
M  V30 BEGIN ATOM
M  V30 1 H -0.908 1.98254 -0.117106 0
M  V30 2 N 0 1.576 0 0
M  V30 3 C 0.933 2.03868 1.02534 0
M  V30 4 C 1.911 0.928543 1.3348 0
M  V30 5 O 3.095 1.19667 1.45644 0
M  V30 6 C 0.222 2.43627 2.35294 0
M  V30 7 C -0.732 3.65373 2.2001 0
M  V30 8 S 0.101 5.13292 1.52614 0
M  V30 9 C 1.257 5.56322 2.86805 0
M  V30 10 H 1.49 2.90518 0.631377 0
M  V30 11 H -0.977 1.52953 0.210867 0
M  V30 12 H 0.981 2.67203 3.11629 0
M  V30 13 H -0.358 1.57376 2.7183 0
M  V30 14 H -1.165 3.90944 3.18086 0
M  V30 15 H -1.563 3.418 1.51819 0
M  V30 16 H 0.729 5.58782 3.83104 0
M  V30 17 H 1.672 6.56266 2.65933 0
M  V30 18 H 2.08 4.83886 2.90714 0
M  V30 19 N 1.4781 -0.272755 1.55222 0
M  V30 20 C 2.8891 -0.84378 1.66545 0
M  V30 21 C 3.2401 -1.87035 0.592641 0
M  V30 22 O 2.3651 -2.14761 -0.265818 0
M  V30 23 C 2.9601 -1.53723 3.01918 0
M  V30 24 C 1.5191 -2.05628 3.15268 0
M  V30 25 C 0.6661 -0.898424 2.62343 0
M  V30 26 H 3.6171 -0.0490998 1.58624 0
M  V30 27 H 3.6381 -2.40421 2.94921 0
M  V30 28 H 3.1501 -0.78983 3.79978 0
M  V30 29 H 1.2511 -2.83329 2.41983 0
M  V30 30 H 1.3641 -2.27142 4.21833 0
M  V30 31 H -0.2719 -1.29186 2.19506 0
M  V30 32 H 0.5111 -0.164528 3.42906 0
M  V30 33 N 2.9562 -1.48159 -0.537278 0
M  V30 34 C 4.3722 -1.34118 -0.865129 0
M  V30 35 C 4.5722 -0.346678 -1.98495 0
M  V30 36 O 3.6282 0.234715 -2.51407 0
M  V30 37 C 4.9412 -2.73963 -1.23954 0
M  V30 38 C 6.4892 -2.82397 -1.34984 0
M  V30 39 C 6.9642 -4.22928 -1.75772 0
M  V30 40 N 8.4552 -4.25566 -1.82887 0
M  V30 41 C 9.1902 -5.31235 -2.15817 0
M  V30 42 N 8.6862 -6.47189 -2.47222 0
M  V30 43 N 10.4792 -5.18624 -2.16761 0
M  V30 44 H 2.6302 -2.1144 0.201715 0
M  V30 45 H 4.8932 -0.947598 0.0275949 0
M  V30 46 H 4.5992 -3.48264 -0.490381 0
M  V30 47 H 4.4732 -3.0702 -2.19132 0
M  V30 48 H 6.8602 -2.08356 -2.08978 0
M  V30 49 H 6.9412 -2.5297 -0.379448 0
M  V30 50 H 6.5852 -4.97482 -1.02341 0
M  V30 51 H 6.5152 -4.49794 -2.73848 0
M  V30 52 H 9.0062 -3.41924 -1.60924 0
M  V30 53 H 9.3192 -7.23564 -2.71433 0
M  V30 54 H 7.6642 -6.50476 -2.44757 0
M  V30 55 H 10.8552 -4.27056 -1.91679 0
M  V30 56 H 11.0282 -6.01078 -2.42093 0
M  V30 57 N 4.4343 0.785586 -1.36625 0
M  V30 58 C 5.3443 1.92964 -1.33425 0
M  V30 59 C 6.3603 1.72394 -0.235851 0
M  V30 60 O 7.5363 1.95866 -0.468878 0
M  V30 61 C 4.6013 3.27884 -1.12662 0
M  V30 62 C 3.6623 3.61204 -2.32013 0
M  V30 63 C 2.8953 4.89687 -2.12231 0
M  V30 64 O 3.1183 5.59704 -1.09945 0
M  V30 65 O 2.0523 5.21752 -3.00098 0
M  V30 66 H 5.8783 1.98613 -2.29753 0
M  V30 67 H 3.4633 0.926384 -1.17211 0
M  V30 68 H 5.3453 4.08614 -1.03016 0
M  V30 69 H 4.0203 3.23118 -0.193991 0
M  V30 70 H 2.9273 2.80765 -2.47228 0
M  V30 71 H 4.2603 3.70698 -3.23796 0
M  V30 72 N 5.9124 1.20967 1.01018 0
M  V30 73 C 7.1614 1.01796 1.74128 0
M  V30 74 C 7.4744 -0.449691 1.90361 0
M  V30 75 O 8.6804 -0.76068 2.60626 0
M  V30 76 C 7.1364 1.7727 3.13215 0
M  V30 77 C 6.7444 3.28171 3.04972 0
M  V30 78 C 8.4884 1.66489 3.90489 0
M  V30 79 C 6.3954 3.96156 4.39107 0
M  V30 80 H 5.3254 0.377276 0.652824 0
M  V30 81 H 7.9764 1.44651 1.12909 0
M  V30 82 H 6.3584 1.27205 3.75013 0
M  V30 83 H 7.5324 3.85499 2.52443 0
M  V30 84 H 5.8474 3.39437 2.41188 0
M  V30 85 H 8.4444 2.14617 4.89738 0
M  V30 86 H 8.7874 0.6222 4.11624 0
M  V30 87 H 9.3204 2.14003 3.35332 0
M  V30 88 H 6.0594 5.00604 4.23174 0
M  V30 89 H 5.5794 3.43617 4.91617 0
M  V30 90 H 7.2584 4.00774 5.07926 0
M  V30 91 N 7.3905 -1.2043 1.01659 0
M  V30 92 C 8.6395 -1.89118 0.701237 0
M  V30 93 C 8.9525 -1.79705 -0.772358 0
M  V30 94 O 10.1585 -2.43528 -1.20026 0
M  V30 95 C 8.6145 -3.39168 1.20388 0
M  V30 96 C 8.2225 -3.57166 2.70438 0
M  V30 97 C 9.9665 -4.1341 0.963953 0
M  V30 98 C 7.8735 -5.01042 3.14183 0
M  V30 99 H 6.8035 -0.708267 0.2586 0
M  V30 100 H 9.4545 -1.36239 1.22927 0
M  V30 101 H 7.8365 -3.91369 0.603824 0
M  V30 102 H 9.0105 -3.15351 3.35992 0
M  V30 103 H 7.3255 -2.96294 2.92572 0
M  V30 104 H 9.9225 -5.19491 1.26621 0
M  V30 105 H 10.2655 -4.16181 -0.099578 0
M  V30 106 H 10.7985 -3.67309 1.52738 0
M  V30 107 H 7.5375 -5.03426 4.19812 0
M  V30 108 H 7.0575 -5.43668 2.53348 0
M  V30 109 H 8.7365 -5.69623 3.0682 0
M  V30 110 N 8.8686 -0.792821 -1.36206 0
M  V30 111 C 10.0966 -0.378825 -2.03402 0
M  V30 112 C 10.5116 1.00586 -1.59774 0
M  V30 113 O 9.8686 1.64574 -0.788764 0
M  V30 114 C 9.9196 -0.43683 -3.58851 0
M  V30 115 O 9.6406 -1.76691 -4.00889 0
M  V30 116 C 11.1416 -0.0138943 -4.43298 0
M  V30 117 H 8.3616 -0.155673 -0.652692 0
M  V30 118 H 10.9056 -1.07261 -1.74113 0
M  V30 119 H 9.0606 0.208575 -3.86838 0
M  V30 120 H 9.4746 -1.72011 -4.95492 0
M  V30 121 H 10.9486 -0.105615 -5.51899 0
M  V30 122 H 11.4256 1.03915 -4.2673 0
M  V30 123 H 12.0316 -0.63192 -4.20579 0
M  V30 124 N 10.3467 1.47872 -0.545128 0
M  V30 125 C 11.2767 2.32661 0.197793 0
M  V30 126 C 12.2577 1.43041 0.920504 0
M  V30 127 O 13.4427 1.71912 0.90333 0
M  V30 128 C 10.5727 3.24569 1.23582 0
M  V30 129 C 9.5267 4.23333 0.630323 0
M  V30 130 C 8.8527 5.0448 1.77211 0
M  V30 131 C 10.1527 5.20704 -0.407974 0
M  V30 132 H 11.8467 2.95024 -0.510045 0
M  V30 133 H 9.3927 1.4187 -0.246731 0
M  V30 134 H 11.3457 3.8272 1.76362 0
M  V30 135 H 10.0697 2.60236 1.97344 0
M  V30 136 H 8.7287 3.6639 0.123922 0
M  V30 137 H 8.3767 4.36561 2.49847 0
M  V30 138 H 8.0767 5.71339 1.37281 0
M  V30 139 H 9.6007 5.65487 2.3034 0
M  V30 140 H 11.0147 5.7329 0.033305 0
M  V30 141 H 9.4117 5.95699 -0.725486 0
M  V30 142 H 10.4817 4.66917 -1.30828 0
M  V30 143 N 11.8248 0.280983 1.55075 0
M  V30 144 C 12.7568 -0.637268 2.20163 0
M  V30 145 C 13.7698 -1.11298 1.18813 0
M  V30 146 O 14.9588 -1.03388 1.4551 0
M  V30 147 C 12.0588 -1.88199 2.81841 0
M  V30 148 C 11.2318 -1.55211 4.08936 0
M  V30 149 C 10.2908 -2.64991 4.54606 0
M  V30 150 O 9.3168 -2.30929 5.2025 0
M  V30 151 N 10.5188 -3.95161 4.25238 0
M  V30 152 H 13.2838 -0.0801694 2.99593 0
M  V30 153 H 10.8448 0.102329 1.61576 0
M  V30 154 H 12.8368 -2.60948 3.09335 0
M  V30 155 H 11.4068 -2.34799 2.06369 0
M  V30 156 H 10.6268 -0.658185 3.88666 0
M  V30 157 H 11.9148 -1.30681 4.91732 0
M  V30 158 H 11.3128 -4.25653 3.72607 0
M  V30 159 H 9.8698 -4.6427 4.5749 0
M  V30 160 N 13.3029 -1.57598 0.00835791 0
M  V30 161 C 14.2329 -2.1198 -0.979113 0
M  V30 162 C 15.2139 -1.03091 -1.35301 0
M  V30 163 O 16.3989 -1.30818 -1.43528 0
M  V30 164 C 13.5289 -2.62995 -2.26828 0
M  V30 165 C 12.4829 -3.76485 -2.03576 0
M  V30 166 C 11.8089 -4.13846 -3.38579 0
M  V30 167 C 13.1089 -5.0342 -1.39161 0
M  V30 168 H 14.8029 -2.94738 -0.526281 0
M  V30 169 H 12.3489 -1.41783 -0.251704 0
M  V30 170 H 14.3019 -2.99669 -2.96271 0
M  V30 171 H 13.0259 -1.7737 -2.7424 0
M  V30 172 H 11.6849 -3.40217 -1.36557 0
M  V30 173 H 11.3329 -3.25232 -3.83709 0
M  V30 174 H 11.0329 -4.90312 -3.23834 0
M  V30 175 H 12.5569 -4.53086 -4.09323 0
M  V30 176 H 13.9709 -5.37812 -1.98573 0
M  V30 177 H 12.3679 -5.84746 -1.34878 0
M  V30 178 H 13.4379 -4.83548 -0.361868 0
M  V30 179 N 14.781 0.264519 -1.55364 0
M  V30 180 C 16.029 0.993021 -1.76021 0
M  V30 181 C 16.35 1.86511 -0.569099 0
M  V30 182 O 15.62 1.91438 0.415735 0
M  V30 183 H 14.2 0.369639 -0.649135 0
M  V30 184 H 16.862 0.286707 -1.9278 0
M  V30 185 H 15.958 1.62502 -2.66457 0
M  V30 186 N 16.2591 1.48442 0.529413 0
M  V30 187 C 17.1911 1.59095 1.64989 0
M  V30 188 C 18.2041 0.475212 1.5571 0
M  V30 189 O 19.3931 0.746081 1.6216 0
M  V30 190 C 16.4931 1.50518 3.0364 0
M  V30 191 C 15.6661 2.77142 3.38395 0
M  V30 192 C 14.7251 2.62012 4.56329 0
M  V30 193 O 13.7511 3.35898 4.59522 0
M  V30 194 N 14.9531 1.71667 5.54536 0
M  V30 195 H 17.7181 2.55723 1.56287 0
M  V30 196 H 15.2791 1.45173 0.716697 0
M  V30 197 H 17.2711 1.38091 3.80412 0
M  V30 198 H 15.8411 0.618627 3.06418 0
M  V30 199 H 15.0611 3.0413 2.50796 0
M  V30 200 H 16.3491 3.61146 3.58401 0
M  V30 201 H 15.7471 1.10841 5.54735 0
M  V30 202 H 14.3041 1.65178 6.30523 0
M  V30 203 N 17.7372 -0.778329 1.37039 0
M  V30 204 C 18.9772 -1.54973 1.33276 0
M  V30 205 C 19.3412 -1.91816 -0.0839376 0
M  V30 206 O 20.5422 -2.6767 -0.246228 0
M  V30 207 C 18.8132 -2.78517 2.23971 0
M  V30 208 S 20.3722 -3.6865 2.37997 0
M  V30 209 H 17.1902 -0.530639 0.473226 0
M  V30 210 H 19.7922 -0.915806 1.72723 0
M  V30 211 H 18.4962 -2.4952 3.25835 0
M  V30 212 H 18.0272 -3.46875 1.85584 0
M  V30 213 H 20.0422 -4.70182 1.58567 0
M  V30 214 N 19.2153 -1.21501 -1.00376 0
M  V30 215 C 20.4633 -1.03095 -1.73827 0
M  V30 216 C 20.7843 0.436341 -1.90055 0
M  V30 217 O 20.0543 1.31466 -1.45236 0
M  V30 218 H 18.6343 -0.378487 -0.644016 0
M  V30 219 H 21.2963 -1.52831 -1.20949 0
M  V30 220 H 20.3923 -1.49991 -2.73695 0
M  V30 221 N 20.6934 1.19889 -1.02296 0
M  V30 222 C 21.6414 2.24938 -0.592081 0
M  V30 223 C 22.6354 1.65257 0.372357 0
M  V30 224 O 23.8414 1.78371 0.241583 0
M  V30 225 H 20.2164 0.731787 -0.173182 0
M  V30 226 H 22.1874 2.58603 -1.48885 0
M  V30 227 C 20.9364 3.47668 0.047351 0
M  V30 228 H 20.2594 3.93875 -0.685772 0
M  V30 229 H 21.6994 4.22852 0.311862 0
M  V30 230 C 20.1584 3.11136 1.29212 0
M  V30 231 O 20.6884 3.2325 2.38479 0
M  V30 232 N 18.8944 2.65625 1.17863 0
M  V30 233 H 18.4414 2.55968 0.289493 0
M  V30 234 H 18.3994 2.41553 2.01245 0
M  V30 235 N 22.1715 0.800033 1.35784 0
M  V30 236 C 23.1035 0.163596 2.28615 0
M  V30 237 C 24.1165 -0.633317 1.49976 0
M  V30 238 O 25.3055 -0.466754 1.72289 0
M  V30 239 C 22.4055 -0.790958 3.29541 0
M  V30 240 C 21.5785 -0.0418255 4.3738 0
M  V30 241 C 20.6375 -0.91389 5.18203 0
M  V30 242 O 19.6635 -0.367234 5.68014 0
M  V30 243 N 20.8655 -2.23682 5.35674 0
M  V30 244 H 23.6305 0.96105 2.83873 0
M  V30 245 H 21.1915 0.654894 1.48063 0
M  V30 246 H 23.1835 -1.37844 3.80501 0
M  V30 247 H 21.7535 -1.48925 2.74846 0
M  V30 248 H 20.9735 0.726813 3.87442 0
M  V30 249 H 22.2615 0.474719 5.06581 0
M  V30 250 H 21.6595 -2.70497 4.96838 0
M  V30 251 H 20.2165 -2.77369 5.89839 0
M  V30 252 N 23.6496 -1.47581 0.552962 0
M  V30 253 C 24.8986 -2.01684 0.0251995 0
M  V30 254 C 25.2116 -1.43317 -1.33115 0
M  V30 255 O 26.4176 -1.89057 -1.94858 0
M  V30 256 C 24.8736 -3.599 -0.00542052 0
M  V30 257 C 24.4816 -4.27257 1.34742 0
M  V30 258 C 26.2256 -4.21768 -0.4808 0
M  V30 259 C 24.1326 -5.77467 1.27614 0
M  V30 260 H 23.0626 -0.753979 0.00565033 0
M  V30 261 H 25.7136 -1.69616 0.70018 0
M  V30 262 H 24.0956 -3.88911 -0.745961 0
M  V30 263 H 25.2696 -4.09893 2.10534 0
M  V30 264 H 23.5846 -3.77358 1.76039 0
M  V30 265 H 26.1816 -5.31838 -0.55246 0
M  V30 266 H 26.5246 -3.88651 -1.49184 0
M  V30 267 H 27.0576 -3.97273 0.204752 0
M  V30 268 H 23.7966 -6.15196 2.26304 0
M  V30 269 H 23.3166 -5.9718 0.55996 0
M  V30 270 H 24.9956 -6.3959 0.976421 0
M  V30 271 N 25.1277 -0.289203 -1.54924 0
M  V30 272 C 26.3757 0.322879 -1.99504 0
M  V30 273 C 26.6967 1.55313 -1.1791 0
M  V30 274 O 25.9667 1.94001 -0.272097 0
M  V30 275 H 24.5467 0.122291 -0.736922 0
M  V30 276 H 27.2087 -0.397802 -1.90797 0
M  V30 277 H 26.3047 0.603061 -3.06218 0
M  V30 278 N 26.6058 1.57591 -0.0167156 0
M  V30 279 C 27.8528 1.91283 0.664597 0
M  V30 280 C 28.1808 0.891949 1.72842 0
M  V30 281 O 27.4358 -0.100931 1.9544 0
M  V30 282 C 27.7348 3.3172 1.33029 0
M  V30 283 C 27.4008 4.4914 0.398047 0
M  V30 284 C 26.0628 4.80992 0.141421 0
M  V30 285 C 28.4148 5.20634 -0.242825 0
M  V30 286 C 25.7428 5.81703 -0.764092 0
M  V30 287 C 28.0948 6.22311 -1.13632 0
M  V30 288 C 26.7588 6.52611 -1.40196 0
M  V30 289 H 26.0288 0.699956 0.243193 0
M  V30 290 H 28.6758 1.9135 -0.0758267 0
M  V30 291 H 26.9808 3.27856 2.14517 0
M  V30 292 H 28.6778 3.55055 1.86379 0
M  V30 293 H 25.2678 4.24262 0.608238 0
M  V30 294 H 29.4518 4.96267 -0.0576019 0
M  V30 295 H 24.7078 6.03532 -0.977732 0
M  V30 296 H 28.8818 6.76834 -1.63917 0
M  V30 297 H 26.5088 7.30467 -2.10529 0
M  V30 298 N 28.0839 -0.256276 1.55502 0
M  V30 299 C 28.9939 -1.33882 1.92647 0
M  V30 300 C 30.0099 -1.53159 0.825727 0
M  V30 301 O 31.1859 -1.66963 1.12629 0
M  V30 302 C 28.2509 -2.6751 2.20543 0
M  V30 303 C 27.3119 -2.56836 3.43997 0
M  V30 304 C 26.5449 -3.84092 3.70553 0
M  V30 305 O 26.7679 -4.85545 2.99336 0
M  V30 306 O 25.7019 -3.83288 4.64084 0
M  V30 307 H 29.5279 -1.05374 2.84833 0
M  V30 308 H 27.1129 -0.456237 1.42263 0
M  V30 309 H 28.9949 -3.46492 2.39835 0
M  V30 310 H 27.6699 -2.9577 1.31536 0
M  V30 311 H 26.5769 -1.76172 3.30021 0
M  V30 312 H 27.9099 -2.33523 4.33275 0
M  V30 313 N 29.562 -1.4872 -0.521534 0
M  V30 314 C 30.809 -1.57168 -1.27689 0
M  V30 315 C 31.137 -0.249275 -1.92896 0
M  V30 316 O 30.392 0.761162 -1.80291 0
M  V30 317 C 30.691 -2.66497 -2.38148 0
M  V30 318 C 30.357 -4.08664 -1.90538 0
M  V30 319 C 29.019 -4.47357 -1.77271 0
M  V30 320 C 31.371 -4.97724 -1.54663 0
M  V30 321 C 28.699 -5.72905 -1.26478 0
M  V30 322 C 31.051 -6.2377 -1.05329 0
M  V30 323 C 29.715 -6.61311 -0.906861 0
M  V30 324 H 28.985 -0.575117 -0.467249 0
M  V30 325 H 31.632 -1.82472 -0.581051 0
M  V30 326 H 29.937 -2.35085 -3.13437 0
M  V30 327 H 31.634 -2.70246 -2.96257 0
M  V30 328 H 28.224 -3.78111 -2.01816 0
M  V30 329 H 32.408 -4.68501 -1.63768 0
M  V30 330 H 27.664 -6.00709 -1.13835 0
M  V30 331 H 31.838 -6.9217 -0.76644 0
M  V30 332 H 29.465 -7.5848 -0.511083 0
M  V30 333 N 31.0401 0.771051 -1.3745 0
M  V30 334 C 32.2861 1.53109 -1.339 0
M  V30 335 C 32.6411 1.9225 0.0758401 0
M  V30 336 O 31.9341 1.61264 1.03463 0
M  V30 337 C 32.1281 2.80676 -2.2126 0
M  V30 338 C 31.9571 2.54003 -3.71096 0
M  V30 339 C 30.7271 2.48097 -4.402 0
M  V30 340 C 32.9251 2.21953 -4.63941 0
M  V30 341 N 30.9071 2.13515 -5.75573 0
M  V30 342 C 32.2781 1.97516 -5.87697 0
M  V30 343 C 34.3331 2.08114 -4.5232 0
M  V30 344 C 33.0361 1.60638 -7.01133 0
M  V30 345 C 35.0621 1.72636 -5.65642 0
M  V30 346 C 34.4241 1.4906 -6.88448 0
M  V30 347 H 30.5231 0.56055 -0.54526 0
M  V30 348 H 33.1071 0.899472 -1.72678 0
M  V30 349 H 31.2781 3.41674 -1.84698 0
M  V30 350 H 33.0101 3.46578 -2.08963 0
M  V30 351 H 29.7651 2.63974 -3.93211 0
M  V30 352 H 30.1891 1.98919 -6.47117 0
M  V30 353 H 34.8311 2.25024 -3.57944 0
M  V30 354 H 32.5491 1.42467 -7.95443 0
M  V30 355 H 36.1351 1.62586 -5.58621 0
M  V30 356 H 35.0151 1.22014 -7.7465 0
M  V30 357 N 32.5182 1.22032 0.997298 0
M  V30 358 C 33.4652 0.986467 2.08656 0
M  V30 359 C 34.4352 -0.0902671 1.65855 0
M  V30 360 O 35.6202 0.0584294 1.90711 0
M  V30 361 C 32.7602 0.565569 3.40434 0
M  V30 362 C 31.8732 1.71259 3.96604 0
M  V30 363 C 31.0082 1.24011 5.16522 0
M  V30 364 C 30.0472 2.35896 5.64818 0
M  V30 365 N 29.1842 1.89726 6.7598 0
M  V30 366 H 34.0242 1.91892 2.27994 0
M  V30 367 H 31.5612 0.956199 1.11782 0
M  V30 368 H 33.5192 0.302738 4.161 0
M  V30 369 H 32.1492 -0.329879 3.2111 0
M  V30 370 H 31.2012 2.08986 3.17851 0
M  V30 371 H 32.5132 2.55436 4.28432 0
M  V30 372 H 31.6672 0.934395 5.99461 0
M  V30 373 H 30.4062 0.368487 4.86306 0
M  V30 374 H 29.4112 2.67261 4.8047 0
M  V30 375 H 30.6362 3.23567 5.97061 0
M  V30 376 H 28.5822 1.0492 6.47555 0
M  V30 377 H 28.4992 2.67471 7.07103 0
M  V30 378 H 29.7672 1.62211 7.62435 0
M  V30 379 N 33.9963 -1.19345 1.0293 0
M  V30 380 C 34.9283 -2.22036 0.56857 0
M  V30 381 C 35.9413 -1.58865 -0.355779 0
M  V30 382 O 37.1303 -1.77851 -0.152103 0
M  V30 383 C 34.2303 -3.38363 -0.190752 0
M  V30 384 C 33.4033 -4.31118 0.738643 0
M  V30 385 C 32.4623 -5.26194 0.0246497 0
M  V30 386 O 31.4883 -5.65461 0.651354 0
M  V30 387 N 32.6903 -5.66971 -1.24594 0
M  V30 388 H 35.4553 -2.6219 1.45177 0
M  V30 389 H 33.0163 -1.34015 0.908381 0
M  V30 390 H 35.0083 -3.98981 -0.677961 0
M  V30 391 H 33.5783 -2.96994 -0.975366 0
M  V30 392 H 32.7983 -3.68276 1.40593 0
M  V30 393 H 34.0863 -4.90001 1.37029 0
M  V30 394 H 33.4843 -5.37104 -1.77583 0
M  V30 395 H 32.0413 -6.2984 -1.67764 0
M  V30 396 N 35.4744 -0.807222 -1.35358 0
M  V30 397 C 36.4044 -0.232509 -2.3234 0
M  V30 398 C 37.3854 0.642386 -1.57504 0
M  V30 399 O 38.5704 0.572526 -1.85569 0
M  V30 400 C 35.7004 0.619238 -3.41735 0
M  V30 401 C 34.6544 -0.157215 -4.27711 0
M  V30 402 C 33.9804 0.816273 -5.28433 0
M  V30 403 C 35.2804 -1.35656 -5.04376 0
M  V30 404 H 36.9744 -1.04276 -2.80654 0
M  V30 405 H 34.5204 -0.50288 -1.34934 0
M  V30 406 H 36.4734 1.03137 -4.08584 0
M  V30 407 H 35.1974 1.46239 -2.92031 0
M  V30 408 H 33.8564 -0.550525 -3.62443 0
M  V30 409 H 33.5044 1.65494 -4.74996 0
M  V30 410 H 33.2044 0.301067 -5.86828 0
M  V30 411 H 34.7284 1.22659 -5.98153 0
M  V30 412 H 36.1424 -1.01927 -5.64166 0
M  V30 413 H 34.5394 -1.8063 -5.7227 0
M  V30 414 H 35.6094 -2.14288 -4.34981 0
M  V30 415 N 36.9525 1.47285 -0.560781 0
M  V30 416 C 38.1925 2.0436 -0.0404627 0
M  V30 417 C 38.5565 1.42534 1.28639 0
M  V30 418 O 39.7575 1.90677 1.89462 0
M  V30 419 C 38.0285 3.57369 0.0471856 0
M  V30 420 S 39.5875 4.3579 0.513109 0
M  V30 421 H 36.4055 0.710492 -0.0268674 0
M  V30 422 H 39.0075 1.80611 -0.748323 0
M  V30 423 H 37.7115 3.9989 -0.922817 0
M  V30 424 H 37.2425 3.8562 0.778491 0
M  V30 425 H 39.2575 4.63476 1.77212 0
M  V30 426 N 38.4306 0.297415 1.54768 0
M  V30 427 C 39.3936 -0.567375 2.22066 0
M  V30 428 C 40.3936 -1.06409 1.20556 0
M  V30 429 O 41.5836 -0.960691 1.45315 0
M  V30 430 C 38.7156 -1.78517 2.90421 0
M  V30 431 H 39.9086 0.0205534 2.99893 0
M  V30 432 H 37.4616 0.0482163 1.56226 0
M  V30 433 H 38.1966 -2.41303 2.16664 0
M  V30 434 H 37.9816 -1.43669 3.64831 0
M  V30 435 H 39.4716 -2.39964 3.41771 0
M  V30 436 N 39.9087 -1.5758 0.0250728 0
M  V30 437 C 40.8187 -2.1343 -0.973905 0
M  V30 438 C 41.8347 -1.08556 -1.35984 0
M  V30 439 O 43.0107 -1.40592 -1.44207 0
M  V30 440 C 40.0757 -2.64703 -2.23904 0
M  V30 441 C 39.1367 -3.84276 -1.91391 0
M  V30 442 C 38.3697 -4.33095 -3.11873 0
M  V30 443 O 38.5927 -3.81107 -4.24398 0
M  V30 444 O 37.5267 -5.24984 -2.94406 0
M  V30 445 H 41.3527 -2.99057 -0.529036 0
M  V30 446 H 38.9377 -1.48118 -0.195288 0
M  V30 447 H 40.8197 -2.97769 -2.98181 0
M  V30 448 H 39.4947 -1.82161 -2.6758 0
M  V30 449 H 38.4017 -3.56143 -1.14511 0
M  V30 450 H 39.7347 -4.67968 -1.52534 0
M  V30 451 N 41.3868 0.248026 -1.55636 0
M  V30 452 C 42.3368 1.30994 -1.86614 0
M  V30 453 C 43.3208 1.43543 -0.726918 0
M  V30 454 O 44.5128 1.46804 -0.988818 0
M  V30 455 C 41.6418 2.6656 -2.16335 0
M  V30 456 C 40.7278 2.58019 -3.36581 0
M  V30 457 N 41.1188 2.1911 -4.55878 0
M  V30 458 C 39.4168 2.89035 -3.39669 0
M  V30 459 C 40.1178 2.21174 -5.38012 0
M  V30 460 N 39.0938 2.60632 -4.77045 0
M  V30 461 H 42.8958 0.999583 -2.76379 0
M  V30 462 H 40.4098 0.456652 -1.55848 0
M  V30 463 H 42.4068 3.43194 -2.36692 0
M  V30 464 H 41.0668 2.98463 -1.27867 0
M  V30 465 H 42.0778 1.90672 -4.81523 0
M  V30 466 H 38.7548 3.25485 -2.61469 0
M  V30 467 H 40.1448 1.9344 -6.43452 0
M  V30 468 N 42.8649 1.48995 0.513639 0
M  V30 469 C 44.1129 1.57531 1.26604 0
M  V30 470 C 44.4339 0.258236 1.93283 0
M  V30 471 O 43.7039 -0.721502 1.8213 0
M  V30 472 H 42.2839 0.580387 0.470276 0
M  V30 473 H 44.9459 1.85552 0.596373 0
M  V30 474 H 44.0419 2.36486 2.03669 0
M  V30 475 N 44.343 -0.763751 1.37857 0
M  V30 476 C 45.592 -1.51789 1.32827 0
M  V30 477 C 45.905 -1.95426 -0.0823719 0
M  V30 478 O 47.111 -2.70298 -0.255172 0
M  V30 479 C 45.567 -2.74133 2.33193 0
M  V30 480 C 45.175 -2.37562 3.79827 0
M  V30 481 C 46.919 -3.52054 2.37188 0
M  V30 482 C 44.826 -3.56456 4.71904 0
M  V30 483 H 43.756 -0.569896 0.493695 0
M  V30 484 H 46.407 -0.835822 1.63359 0
M  V30 485 H 44.789 -3.4427 1.9569 0
M  V30 486 H 45.963 -1.75157 4.26212 0
M  V30 487 H 44.278 -1.72798 3.78853 0
M  V30 488 H 46.875 -4.40437 3.03182 0
M  V30 489 H 47.218 -3.92486 1.38782 0
M  V30 490 H 47.751 -2.88921 2.7344 0
M  V30 491 H 44.49 -3.21099 5.71468 0
M  V30 492 H 44.01 -4.17938 4.30218 0
M  V30 493 H 45.689 -4.23168 4.89426 0
M  V30 494 N 45.8211 -1.22559 -0.990812 0
M  V30 495 C 47.0461 -1.07862 -1.77145 0
M  V30 496 C 47.4711 0.366447 -1.84496 0
M  V30 497 O 46.8291 1.26478 -1.29896 0
M  V30 498 C 46.8771 -1.69686 -3.18181 0
M  V30 499 O 45.9811 -0.951946 -4.01263 0
M  V30 500 H 45.3221 -0.378712 -0.545411 0
M  V30 501 H 47.8521 -1.62399 -1.2445 0
M  V30 502 H 47.8621 -1.74496 -3.68802 0
M  V30 503 H 46.5371 -2.74841 -3.12146 0
M  V30 504 H 45.1141 -0.980011 -3.59792 0
M  V30 505 N 47.2992 1.18797 -1.03562 0
M  V30 506 C 48.7102 1.70322 -0.764676 0
M  V30 507 C 49.0612 1.82708 0.714996 0
M  V30 508 O 48.1862 1.50299 1.55689 0
M  V30 509 C 48.7812 3.09356 -1.38145 0
M  V30 510 C 47.3402 3.58114 -1.15895 0
M  V30 511 C 46.4872 2.34798 -1.4753 0
M  V30 512 H 49.4382 1.03543 -1.20268 0
M  V30 513 H 49.4592 3.72378 -0.781977 0
M  V30 514 H 48.9712 3.00309 -2.45837 0
M  V30 515 H 47.0722 3.72464 -0.100544 0
M  V30 516 H 47.1852 4.4184 -1.8524 0
M  V30 517 H 45.5492 2.38464 -0.894829 0
M  V30 518 H 46.3322 2.28375 -2.56319 0
M  V30 519 N 48.7773 0.814389 1.34928 0
M  V30 520 C 49.6873 0.231978 2.3345 0
M  V30 521 C 50.7033 -0.629139 1.62228 0
M  V30 522 O 51.8793 -0.539052 1.94052 0
M  V30 523 C 48.9443 -0.603482 3.41407 0
M  V30 524 C 48.0053 0.279037 4.28392 0
M  V30 525 C 47.2383 -0.516643 5.31193 0
M  V30 526 O 47.4613 -1.75068 5.4287 0
M  V30 527 O 46.3953 0.0965652 6.01823 0
M  V30 528 H 50.2213 1.04721 2.85074 0
M  V30 529 H 47.8063 0.576343 1.37836 0
M  V30 530 H 49.6883 -1.07908 4.0735 0
M  V30 531 H 48.3633 -1.39618 2.92042 0
M  V30 532 H 47.2703 0.801948 3.65403 0
M  V30 533 H 48.6033 1.03588 4.81176 0
M  V30 534 N 50.2554 -1.46986 0.568584 0
M  V30 535 C 51.5034 -2.02041 0.0487022 0
M  V30 536 C 51.8244 -1.44408 -1.31039 0
M  V30 537 O 51.0944 -0.623477 -1.85714 0
M  V30 538 H 49.6744 -0.746849 0.015014 0
M  V30 539 H 52.3364 -1.80257 0.741168 0
M  V30 540 H 51.4324 -3.12085 -0.0308961 0
M  V30 541 N 51.7335 -0.305618 -1.54608 0
M  V30 542 C 52.9825 0.303098 -1.9941 0
M  V30 543 C 53.2955 1.54648 -1.19764 0
M  V30 544 O 54.5015 2.23007 -1.54855 0
M  V30 545 C 52.9575 0.590588 -3.55021 0
M  V30 546 C 52.5655 -0.634719 -4.43481 0
M  V30 547 C 54.3095 1.16025 -4.08336 0
M  V30 548 C 52.2165 -0.320126 -5.90533 0
M  V30 549 H 51.1465 0.117031 -0.744862 0
M  V30 550 H 53.7975 -0.415045 -1.78745 0
M  V30 551 H 52.1795 1.36845 -3.71604 0
M  V30 552 H 53.3535 -1.41079 -4.38672 0
M  V30 553 H 51.6685 -1.12333 -4.00962 0
M  V30 554 H 54.2655 1.40994 -5.15776 0
M  V30 555 H 54.6085 2.10397 -3.5922 0
M  V30 556 H 55.1415 0.443985 -3.95315 0
M  V30 557 H 51.8805 -1.23254 -6.43808 0
M  V30 558 H 51.4005 0.418579 -5.98338 0
M  V30 559 H 53.0795 0.0766241 -6.46955 0
M  V30 560 N 53.2116 1.57565 -0.0334293 0
M  V30 561 C 54.4576 1.92262 0.645226 0
M  V30 562 C 54.7906 0.910543 1.71531 0
M  V30 563 O 54.0656 -0.066099 1.94388 0
M  V30 564 C 54.3486 3.37422 1.2577 0
M  V30 565 C 54.2016 4.49369 0.196891 0
M  V30 566 C 55.5206 3.82628 2.17449 0
M  V30 567 H 52.6396 0.699171 0.233085 0
M  V30 568 H 55.2816 1.89779 -0.0915694 0
M  V30 569 H 53.4316 3.39669 1.88566 0
M  V30 570 H 55.1036 4.59254 -0.433962 0
M  V30 571 H 53.3466 4.31168 -0.477137 0
M  V30 572 H 54.0176 5.47978 0.665124 0
M  V30 573 H 56.4936 3.82145 1.64634 0
M  V30 574 H 55.3696 4.84883 2.57254 0
M  V30 575 H 55.6306 3.18376 3.0674 0
M  V30 576 N 54.6897 -0.239769 1.55765 0
M  V30 577 C 55.5997 -1.31831 1.94056 0
M  V30 578 C 56.6157 -1.52275 0.841925 0
M  V30 579 O 57.7917 -1.65759 1.14394 0
M  V30 580 C 54.8567 -2.65156 2.23368 0
M  V30 581 C 53.9177 -2.53173 3.46701 0
M  V30 582 C 53.1507 -3.8014 3.74606 0
M  V30 583 O 53.3737 -4.82343 3.04469 0
M  V30 584 O 52.3077 -3.78344 4.68123 0
M  V30 585 H 56.1337 -1.02347 2.85935 0
M  V30 586 H 53.7187 -0.441123 1.42739 0
M  V30 587 H 55.6007 -3.43929 2.43497 0
M  V30 588 H 54.2757 -2.94358 1.34666 0
M  V30 589 H 53.1827 -1.72662 3.31871 0
M  V30 590 H 54.5157 -2.28915 4.35728 0
M  V30 591 N 56.1678 -1.49265 -0.50573 0
M  V30 592 C 57.0778 -1.68312 -1.63427 0
M  V30 593 C 58.0938 -0.565682 -1.64548 0
M  V30 594 O 59.2698 -0.839801 -1.83055 0
M  V30 595 C 56.3348 -1.74107 -2.99813 0
M  V30 596 C 55.3958 -2.97653 -3.09356 0
M  V30 597 C 54.6288 -3.03163 -4.39236 0
M  V30 598 O 54.8518 -2.16396 -5.27758 0
M  V30 599 O 53.7858 -3.9558 -4.53652 0
M  V30 600 H 57.6118 -2.63907 -1.50289 0
M  V30 601 H 55.1968 -1.32951 -0.681502 0
M  V30 602 H 57.0788 -1.803 -3.80881 0
M  V30 603 H 55.7538 -0.816901 -3.13223 0
M  V30 604 H 54.6608 -2.96981 -2.27493 0
M  V30 605 H 55.9938 -3.89535 -3.00871 0
M  V30 606 N 57.6459 0.756429 -1.3826 0
M  V30 607 C 58.8929 1.51547 -1.34312 0
M  V30 608 C 59.2209 1.94382 0.0677144 0
M  V30 609 O 58.4759 1.65514 1.04421 0
M  V30 610 C 58.7749 2.78313 -2.24224 0
M  V30 611 C 58.4409 2.54455 -3.72241 0
M  V30 612 C 57.1029 2.47657 -4.12576 0
M  V30 613 C 59.4549 2.3354 -4.65949 0
M  V30 614 C 56.7829 2.17956 -5.44713 0
M  V30 615 C 59.1349 2.05359 -5.9834 0
M  V30 616 C 57.7989 1.97016 -6.37762 0
M  V30 617 H 57.0689 0.55455 -0.491482 0
M  V30 618 H 59.7159 0.870039 -1.70595 0
M  V30 619 H 58.0209 3.47492 -1.80987 0
M  V30 620 H 59.7179 3.36259 -2.18474 0
M  V30 621 H 56.3079 2.60616 -3.40261 0
M  V30 622 H 60.4919 2.37772 -4.35635 0
M  V30 623 H 55.7479 2.10003 -5.74203 0
M  V30 624 H 59.9219 1.88179 -6.70494 0
M  V30 625 H 57.5489 1.73766 -7.40074 0
M  V30 626 N 59.124 1.23083 0.984299 0
M  V30 627 C 60.087 1.00979 2.05757 0
M  V30 628 C 61.087 -0.0269573 1.60777 0
M  V30 629 O 62.277 0.212403 1.729 0
M  V30 630 C 59.409 0.527072 3.36801 0
M  V30 631 H 60.602 1.9622 2.26799 0
M  V30 632 H 58.155 1.05072 1.15714 0
M  V30 633 H 58.89 -0.429294 3.21446 0
M  V30 634 H 58.675 1.27515 3.70786 0
M  V30 635 H 60.165 0.392942 4.15747 0
M  V30 636 N 60.6021 -1.18246 1.0419 0
M  V30 637 C 61.8301 -1.92195 0.766072 0
M  V30 638 C 62.2451 -1.76247 -0.676933 0
M  V30 639 O 61.6021 -1.09293 -1.46155 0
M  V30 640 C 61.6531 -3.43568 1.12442 0
M  V30 641 O 61.3741 -3.59015 2.51078 0
M  V30 642 C 62.8751 -4.34613 0.873275 0
M  V30 643 H 60.0951 -0.610114 0.279288 0
M  V30 644 H 62.6391 -1.50007 1.38989 0
M  V30 645 H 60.7941 -3.8354 0.545542 0
M  V30 646 H 61.2081 -4.5273 2.64831 0
M  V30 647 H 62.6821 -5.39374 1.17385 0
M  V30 648 H 63.1591 -4.38781 -0.191909 0
M  V30 649 H 63.7651 -4.00341 1.43551 0
M  V30 650 N 62.0802 -0.821533 -1.34494 0
M  V30 651 C 62.9902 -0.244355 -2.33324 0
M  V30 652 C 64.0062 0.620527 -1.62559 0
M  V30 653 O 65.1822 0.528754 -1.94335 0
M  V30 654 C 62.2472 0.585368 -3.41723 0
M  V30 655 C 61.3082 -0.301752 -4.28238 0
M  V30 656 C 60.5412 0.488466 -5.3146 0
M  V30 657 O 60.7642 1.72186 -5.4379 0
M  V30 658 O 59.6982 -0.12848 -6.01763 0
M  V30 659 H 63.5242 -1.06231 -2.84515 0
M  V30 660 H 61.1092 -0.583645 -1.37528 0
M  V30 661 H 62.9912 1.05747 -4.07916 0
M  V30 662 H 61.6662 1.38068 -2.92778 0
M  V30 663 H 60.5732 -0.821315 -3.64973 0
M  V30 664 H 61.9062 -1.06138 -4.8062 0
M  V30 665 N 63.5583 1.46682 -0.576371 0
M  V30 666 C 64.8063 2.02013 -0.0594163 0
M  V30 667 C 65.1273 1.45101 1.30271 0
M  V30 668 O 64.3973 0.633317 1.8538 0
M  V30 669 H 62.9773 0.746759 -0.0189745 0
M  V30 670 H 65.6393 1.79862 -0.750717 0
M  V30 671 H 64.7353 3.12097 0.014345 0
M  V30 672 N 65.0364 0.313813 1.54444 0
M  V30 673 C 66.2644 -0.293918 2.04802 0
M  V30 674 C 66.6794 -1.46537 1.19047 0
M  V30 675 O 66.0364 -1.81182 0.218939 0
M  V30 676 C 66.0874 -0.737806 3.53891 0
M  V30 677 O 65.8084 0.387038 4.36387 0
M  V30 678 C 67.3094 -1.40936 4.203 0
M  V30 679 H 64.5294 -0.0620057 0.668129 0
M  V30 680 H 67.0734 0.457169 1.99324 0
M  V30 681 H 65.2284 -1.43889 3.59687 0
M  V30 682 H 65.6424 0.0391274 5.24485 0
M  V30 683 H 67.1164 -1.67099 5.26101 0
M  V30 684 H 67.5934 -2.35355 3.70816 0
M  V30 685 H 68.1994 -0.751117 4.18615 0
M  V30 686 N 66.5145 -1.57545 0.0417849 0
M  V30 687 C 67.7915 -1.83642 -0.673433 0
M  V30 688 C 68.1715 -0.928298 -1.89594 0
M  V30 689 O 67.5195 0.0129955 -2.28496 0
M  V30 690 C 67.7295 -3.33155 -1.03964 0
M  V30 691 C 69.0775 -3.99941 -1.42592 0
M  V30 692 O 70.1015 -3.37725 -1.13226 0
M  V30 693 O 68.9605 -5.09619 -1.9736 0
M  V30 694 H 66.0545 -0.757638 -0.331533 0
M  V30 695 H 68.6005 -1.69554 0.070433 0
M  V30 696 H 67.3725 -3.9093 -0.170098 0
M  V30 697 H 66.9955 -3.52396 -1.84126 0
M  V30 698 N 67.9926 0.231505 -1.5589 0
M  V30 699 C 69.4086 0.580748 -1.48659 0
M  V30 700 C 69.6086 1.87617 -0.73498 0
M  V30 701 O 68.6646 2.51046 -0.270586 0
M  V30 702 C 69.9776 0.669202 -2.93159 0
M  V30 703 C 71.5256 0.760499 -3.03621 0
M  V30 704 C 72.0006 0.880383 -4.49459 0
M  V30 705 N 73.4916 0.944861 -4.53461 0
M  V30 706 C 74.2266 1.05716 -5.63571 0
M  V30 707 N 73.7226 1.13403 -6.83456 0
M  V30 708 N 75.5156 1.09152 -5.514 0
M  V30 709 H 67.6666 -0.618695 -2.03189 0
M  V30 710 H 69.9296 -0.215728 -0.923128 0
M  V30 711 H 69.6356 -0.212904 -3.51055 0
M  V30 712 H 69.5096 1.5361 -3.44505 0
M  V30 713 H 71.8966 1.63305 -2.45796 0
M  V30 714 H 71.9776 -0.131864 -2.5546 0
M  V30 715 H 71.6216 0.0123284 -5.07899 0
M  V30 716 H 71.5516 1.78802 -4.95316 0
M  V30 717 H 74.0426 0.896176 -3.6712 0
M  V30 718 H 74.3556 1.21921 -7.63122 0
M  V30 719 H 72.7006 1.10333 -6.86186 0
M  V30 720 H 75.8916 1.02805 -4.56671 0
M  V30 721 H 76.0646 1.17558 -6.37247 0
M  V30 722 N 69.4707 1.49531 0.497807 0
M  V30 723 C 70.4177 1.66436 1.59899 0
M  V30 724 C 71.3877 0.505793 1.58212 0
M  V30 725 O 72.5727 0.733202 1.7615 0
M  V30 726 C 69.7127 1.7399 2.98029 0
M  V30 727 C 68.8257 3.01172 3.09708 0
M  V30 728 C 67.9607 2.99686 4.38591 0
M  V30 729 C 66.9997 4.21434 4.43914 0
M  V30 730 N 66.1367 4.1784 5.64229 0
M  V30 731 H 70.9767 2.60459 1.44793 0
M  V30 732 H 68.5137 1.29137 0.704423 0
M  V30 733 H 70.4717 1.76352 3.78095 0
M  V30 734 H 69.1017 0.834301 3.11832 0
M  V30 735 H 68.1537 3.08408 2.22685 0
M  V30 736 H 69.4657 3.91165 3.09502 0
M  V30 737 H 68.6197 3.00628 5.2698 0
M  V30 738 H 67.3587 2.07477 4.41367 0
M  V30 739 H 66.3637 4.20733 3.53926 0
M  V30 740 H 67.5887 5.14839 4.42851 0
M  V30 741 H 65.5347 3.28469 5.67841 0
M  V30 742 H 65.4517 5.01571 5.65652 0
M  V30 743 H 66.7197 4.22889 6.54817 0
M  V30 744 N 70.9488 -0.749086 1.3866 0
M  V30 745 C 72.2258 -1.4992 1.25632 0
M  V30 746 C 72.6058 -2.10633 -0.140317 0
M  V30 747 O 71.9538 -1.97437 -1.15025 0
M  V30 748 C 72.1638 -2.56195 2.36992 0
M  V30 749 C 73.5118 -3.22972 2.75634 0
M  V30 750 O 74.5358 -2.66502 2.36337 0
M  V30 751 O 73.3948 -4.25122 3.43415 0
M  V30 752 H 70.4888 -0.665067 0.491544 0
M  V30 753 H 73.0348 -0.784113 1.50498 0
M  V30 754 H 71.8068 -2.09612 3.30422 0
M  V30 755 H 71.4298 -3.35279 2.13714 0
M  V30 756 N 72.4269 -1.23603 -0.977757 0
M  V30 757 C 73.6729 -1.07129 -1.72195 0
M  V30 758 C 74.0059 0.390501 -1.90233 0
M  V30 759 O 73.2809 1.28902 -1.45653 0
M  V30 760 C 73.5639 -1.80031 -3.11867 0
M  V30 761 C 73.4169 -3.33899 -3.01383 0
M  V30 762 C 74.7359 -1.56492 -4.11337 0
M  V30 763 H 71.8549 -0.390571 -0.624999 0
M  V30 764 H 74.4969 -1.52142 -1.13811 0
M  V30 765 H 72.6469 -1.41768 -3.6171 0
M  V30 766 H 74.3189 -3.81699 -2.59043 0
M  V30 767 H 72.5619 -3.62796 -2.37827 0
M  V30 768 H 73.2329 -3.801 -4.00285 0
M  V30 769 H 75.7089 -1.89757 -3.70313 0
M  V30 770 H 74.5849 -2.09973 -5.07151 0
M  V30 771 H 74.8459 -0.500874 -4.39254 0
M  V30 772 N 73.905 1.17692 -1.04816 0
M  V30 773 C 75.152 1.87859 -0.75599 0
M  V30 774 C 75.48 1.80812 0.716752 0
M  V30 775 O 74.735 1.20819 1.53952 0
M  V30 776 C 75.034 3.37462 -1.17703 0
M  V30 777 C 74.7 3.64713 -2.65133 0
M  V30 778 C 73.362 3.71859 -3.05408 0
M  V30 779 C 75.714 3.76492 -3.60421 0
M  V30 780 C 73.042 3.88271 -4.39843 0
M  V30 781 C 75.394 3.94421 -4.94585 0
M  V30 782 C 74.058 3.99806 -5.3452 0
M  V30 783 H 73.328 0.687425 -0.276636 0
M  V30 784 H 75.975 1.39255 -1.31455 0
M  V30 785 H 74.28 3.88097 -0.537395 0
M  V30 786 H 75.977 3.90109 -0.928218 0
M  V30 787 H 72.567 3.59772 -2.32942 0
M  V30 788 H 76.751 3.70295 -3.30447 0
M  V30 789 H 72.007 3.90687 -4.70291 0
M  V30 790 H 76.181 4.02477 -5.68318 0
M  V30 791 H 73.808 4.12276 -6.38696 0
M  V30 792 N 75.3831 0.828654 1.34056 0
M  V30 793 C 76.6301 0.419458 1.98108 0
M  V30 794 C 76.9581 -1.01886 1.65679 0
M  V30 795 O 76.2131 -1.72539 0.923512 0
M  V30 796 C 76.5121 0.575226 3.52741 0
M  V30 797 C 76.1781 1.98012 4.05095 0
M  V30 798 C 74.8401 2.36442 4.19104 0
M  V30 799 C 77.1921 2.89824 4.33188 0
M  V30 800 C 74.5201 3.66009 4.58535 0
M  V30 801 C 76.8721 4.1886 4.74066 0
M  V30 802 C 75.5361 4.5726 4.86281 0
M  V30 803 H 74.8061 0.153491 0.724929 0
M  V30 804 H 77.4531 1.05371 1.59904 0
M  V30 805 H 75.7581 -0.142385 3.91541 0
M  V30 806 H 77.4551 0.239057 4.00287 0
M  V30 807 H 74.0451 1.67162 3.94658 0
M  V30 808 H 78.2291 2.61375 4.21897 0
M  V30 809 H 73.4851 3.95579 4.66184 0
M  V30 810 H 77.6591 4.90086 4.94761 0
M  V30 811 H 75.2861 5.57707 5.16592 0
M  V30 812 N 76.8612 -1.46375 0.584142 0
M  V30 813 C 78.0912 -2.06461 0.0758195 0
M  V30 814 C 78.4992 -1.43322 -1.23512 0
M  V30 815 O 77.8422 -0.533216 -1.75791 0
M  V30 816 C 77.9042 -3.59131 -0.162773 0
M  V30 817 C 77.5682 -4.4447 1.06279 0
M  V30 818 C 78.5652 -4.80918 1.97519 0
M  V30 819 C 76.2502 -4.85584 1.28504 0
M  V30 820 C 78.2442 -5.57309 3.09331 0
M  V30 821 C 75.9312 -5.61734 2.4062 0
M  V30 822 C 76.9292 -5.9751 3.30863 0
M  V30 823 O 76.6172 -6.72121 4.41032 0
M  V30 824 H 76.3492 -0.673745 0.0551725 0
M  V30 825 H 78.9032 -1.88969 0.804984 0
M  V30 826 H 77.1332 -3.74936 -0.946565 0
M  V30 827 H 78.8222 -4.0114 -0.619782 0
M  V30 828 H 79.5882 -4.49732 1.81565 0
M  V30 829 H 75.4672 -4.57187 0.591702 0
M  V30 830 H 79.0112 -5.85152 3.79793 0
M  V30 831 H 74.9082 -5.92334 2.56537 0
M  V30 832 H 75.6762 -6.90547 4.39417 0
M  V30 833 N 78.3393 -0.321999 -1.54275 0
M  V30 834 C 79.2713 0.578671 -2.21775 0
M  V30 835 C 80.2843 1.08109 -1.21722 0
M  V30 836 O 81.4733 0.994938 -1.482 0
M  V30 837 C 78.5733 1.80661 -2.86731 0
M  V30 838 C 77.7463 1.44314 -4.12907 0
M  V30 839 C 76.8053 2.52845 -4.61472 0
M  V30 840 O 75.8313 2.17054 -5.2619 0
M  V30 841 N 77.0333 3.83748 -4.35566 0
M  V30 842 H 79.7983 0.000709447 -2.997 0
M  V30 843 H 77.3593 -0.145132 -1.61248 0
M  V30 844 H 79.3513 2.52655 -3.16145 0
M  V30 845 H 77.9213 2.29245 -2.12521 0
M  V30 846 H 77.1413 0.554906 -3.90275 0
M  V30 847 H 78.4293 1.17598 -4.95023 0
M  V30 848 H 77.8273 4.15625 -3.83761 0
M  V30 849 H 76.3843 4.51977 -4.69638 0
M  V30 850 N 79.8174 1.5752 -0.0501392 0
M  V30 851 C 80.7804 2.1037 0.909786 0
M  V30 852 C 81.7804 1.02308 1.24056 0
M  V30 853 O 82.9704 1.28385 1.17741 0
M  V30 854 C 80.1024 2.58708 2.21998 0
M  V30 855 H 81.2954 2.96479 0.451665 0
M  V30 856 H 78.8484 1.55038 0.198248 0
M  V30 857 H 79.5834 1.75989 2.72394 0
M  V30 858 H 79.3684 3.37675 1.99295 0
M  V30 859 H 80.8584 2.99747 2.9076 0
M  V30 860 N 81.2955 -0.223234 1.56011 0
M  V30 861 C 82.5725 -0.972108 1.69733 0
M  V30 862 C 82.9525 -2.02485 0.59691 0
M  V30 863 O 82.3005 -2.25037 -0.396324 0
M  V30 864 C 82.5105 -1.58407 3.10979 0
M  V30 865 C 83.8585 -2.07696 3.70334 0
M  V30 866 O 84.8825 -1.68304 3.1393 0
M  V30 867 O 83.7415 -2.80096 4.69264 0
M  V30 868 H 80.8355 -0.453993 0.691245 0
M  V30 869 H 83.3815 -0.215149 1.68331 0
M  V30 870 H 82.1535 -0.823831 3.82529 0
M  V30 871 H 81.7765 -2.40661 3.16493 0
M  V30 872 N 82.7736 -1.49793 -0.48987 0
M  V30 873 C 84.0506 -1.50348 -1.25119 0
M  V30 874 C 84.4306 -0.237466 -2.0976 0
M  V30 875 O 83.7786 0.77981 -2.14782 0
M  V30 876 C 83.9886 -2.78872 -2.09837 0
M  V30 877 C 85.3366 -3.288 -2.68655 0
M  V30 878 O 86.3606 -2.80065 -2.20096 0
M  V30 879 O 85.2196 -4.13707 -3.57083 0
M  V30 880 H 82.3136 -0.602242 -0.566775 0
M  V30 881 H 84.8596 -1.62067 -0.503229 0
M  V30 882 H 83.6316 -3.62499 -1.47343 0
M  V30 883 H 83.2546 -2.70066 -2.91805 0
M  V30 884 N 84.2517 0.741722 -1.39055 0
M  V30 885 C 85.1617 1.88621 -1.39496 0
M  V30 886 C 86.1777 1.71557 -0.290578 0
M  V30 887 O 87.3537 1.94275 -0.530954 0
M  V30 888 C 84.4187 3.24134 -1.23037 0
M  V30 889 C 83.4797 3.5364 -2.43387 0
M  V30 890 C 82.7127 4.82687 -2.27703 0
M  V30 891 O 82.9357 5.55922 -1.27696 0
M  V30 892 O 81.8697 5.1194 -3.16545 0
M  V30 893 H 85.6957 1.91203 -2.35956 0
M  V30 894 H 83.2807 0.888625 -1.20099 0
M  V30 895 H 85.1627 4.0513 -1.15964 0
M  V30 896 H 83.8377 3.22337 -0.296691 0
M  V30 897 H 82.7447 2.72758 -2.56035 0
M  V30 898 H 84.0777 3.60209 -3.35425 0
M  V30 899 N 85.7298 1.2412 0.971189 0
M  V30 900 C 86.6798 0.997551 2.05019 0
M  V30 901 C 87.6638 -0.0597747 1.60789 0
M  V30 902 O 88.8558 0.153516 1.76333 0
M  V30 903 C 85.9848 0.600557 3.38006 0
M  V30 904 C 85.0708 1.69377 3.88809 0
M  V30 905 N 85.4618 2.92586 4.12586 0
M  V30 906 C 83.7598 1.57048 4.17435 0
M  V30 907 C 84.4608 3.63431 4.54195 0
M  V30 908 N 83.4368 2.90979 4.59165 0
M  V30 909 H 87.2388 1.93316 2.21374 0
M  V30 910 H 84.7528 1.14194 1.1547 0
M  V30 911 H 86.7498 0.40725 4.14906 0
M  V30 912 H 85.4098 -0.327903 3.2304 0
M  V30 913 H 86.4208 3.288 4.00139 0
M  V30 914 H 83.0978 0.709798 4.11422 0
M  V30 915 H 84.4878 4.69102 4.81033 0
M  V30 916 N 87.2079 -1.17134 1.05439 0
M  V30 917 C 88.4379 -1.91094 0.785274 0
M  V30 918 C 88.8459 -1.77198 -0.663142 0
M  V30 919 O 88.1889 -1.10835 -1.46497 0
M  V30 920 C 88.2509 -3.42594 1.08949 0
M  V30 921 C 87.9149 -3.80274 2.53458 0
M  V30 922 C 88.9119 -3.82912 3.51673 0
M  V30 923 C 86.5969 -4.11162 2.88532 0
M  V30 924 C 88.5909 -4.15913 4.83006 0
M  V30 925 C 86.2779 -4.43831 4.20068 0
M  V30 926 C 87.2759 -4.46185 5.17115 0
M  V30 927 O 86.9639 -4.78083 6.46291 0
M  V30 928 H 86.6959 -0.613073 0.284811 0
M  V30 929 H 89.2499 -1.49461 1.40893 0
M  V30 930 H 87.4799 -3.84534 0.408741 0
M  V30 931 H 89.1689 -3.97817 0.805991 0
M  V30 932 H 89.9349 -3.5917 3.25917 0
M  V30 933 H 85.8139 -4.085 2.13656 0
M  V30 934 H 89.3579 -4.17665 5.5875 0
M  V30 935 H 85.2549 -4.67037 4.45586 0
M  V30 936 H 86.0229 -4.9593 6.51149 0
M  V30 937 N 88.686 -0.835752 -1.33615 0
M  V30 938 C 89.935 -0.426289 -1.97144 0
M  V30 939 C 90.248 1.01912 -1.66953 0
M  V30 940 O 91.454 1.53311 -2.24072 0
M  V30 941 C 89.91 -0.711321 -3.52801 0
M  V30 942 C 89.518 -2.1712 -3.91871 0
M  V30 943 C 91.262 -0.368654 -4.22896 0
M  V30 944 C 89.169 -2.40044 -5.40493 0
M  V30 945 H 88.099 -0.15567 -0.737755 0
M  V30 946 H 90.75 -1.0239 -1.52278 0
M  V30 947 H 89.132 -0.0433766 -3.95976 0
M  V30 948 H 90.306 -2.87936 -3.59763 0
M  V30 949 H 88.621 -2.47654 -3.34749 0
M  V30 950 H 91.218 -0.517601 -5.32189 0
M  V30 951 H 91.561 0.688078 -4.10574 0
M  V30 952 H 92.094 -0.991702 -3.8524 0
M  V30 953 H 88.833 -3.44271 -5.57815 0
M  V30 954 H 88.353 -1.73785 -5.74072 0
M  V30 955 H 90.032 -2.23042 -6.0734 0
M  V30 956 N 90.1641 1.46063 -0.591896 0
M  V30 957 C 91.5751 1.85944 -0.167822 0
M  V30 958 C 91.9261 1.49429 1.27143 0
M  V30 959 O 91.0511 0.913515 1.96173 0
M  V30 960 C 91.6461 3.37489 -0.297794 0
M  V30 961 C 90.2051 3.76332 0.0714732 0
M  V30 962 C 89.3521 2.7006 -0.629509 0
M  V30 963 H 92.3031 1.37087 -0.799555 0
M  V30 964 H 92.3241 3.77532 0.474349 0
M  V30 965 H 91.8361 3.64034 -1.3454 0
M  V30 966 H 89.9371 3.55405 1.11886 0
M  V30 967 H 90.0501 4.78088 -0.311245 0
M  V30 968 H 88.4141 2.54607 -0.0687867 0
M  V30 969 H 89.1971 2.99444 -1.67894 0
M  V30 970 N 91.6422 0.330177 1.54103 0
M  V30 971 C 93.0582 -0.0222371 1.59585 0
M  V30 972 C 93.2582 -1.49902 1.34654 0
M  V30 973 O 92.3142 -2.25592 1.13421 0
M  V30 974 C 93.6272 0.401932 2.98002 0
M  V30 975 C 95.1752 0.353145 3.11001 0
M  V30 976 C 95.6502 0.752576 4.51775 0
M  V30 977 N 97.1412 0.706239 4.57784 0
M  V30 978 C 97.8762 0.987417 5.64834 0
M  V30 979 N 97.3722 1.33607 6.79795 0
M  V30 980 N 99.1652 0.91254 5.54643 0
M  V30 981 H 91.3162 1.29228 1.68564 0
M  V30 982 H 93.5792 0.525906 0.78875 0
M  V30 983 H 93.2852 1.4311 3.21267 0
M  V30 984 H 93.1592 -0.229699 3.765 0
M  V30 985 H 95.5462 -0.666822 2.87467 0
M  V30 986 H 95.6272 1.0198 2.34593 0
M  V30 987 H 95.2712 1.77049 4.76042 0
M  V30 988 H 95.2012 0.0635409 5.26562 0
M  V30 989 H 97.6922 0.44889 3.75224 0
M  V30 990 H 98.0052 1.53582 7.57385 0
M  V30 991 H 96.3502 1.37439 6.81275 0
M  V30 992 H 99.5412 0.639601 4.6371 0
M  V30 993 H 99.7142 1.13503 6.37982 0
M  V30 994 N 93.1203 -1.57491 0.0584922 0
M  V30 995 C 94.0833 -2.1085 -0.898617 0
M  V30 996 C 95.0833 -1.02964 -1.23511 0
M  V30 997 O 96.2733 -1.29007 -1.17059 0
M  V30 998 C 93.4053 -2.59881 -2.20623 0
M  V30 999 H 94.5983 -2.96715 -0.435936 0
M  V30 1000 H 92.1513 -1.55141 -0.190023 0
M  V30 1001 H 92.8863 -1.77431 -2.71457 0
M  V30 1002 H 92.6713 -3.38727 -1.97501 0
M  V30 1003 H 94.1613 -3.01285 -2.89166 0
M  V30 1004 N 94.5984 0.214957 -1.56127 0
M  V30 1005 C 95.8444 0.939762 -1.79712 0
M  V30 1006 C 96.1774 1.83723 -0.629247 0
M  V30 1007 O 95.4524 1.90925 0.371197 0
M  V30 1008 C 95.7354 1.77306 -3.13424 0
M  V30 1009 C 95.5884 0.90164 -4.40671 0
M  V30 1010 C 96.9074 2.74956 -3.43638 0
M  V30 1011 H 94.0264 0.340214 -0.653776 0
M  V30 1012 H 96.6684 0.20824 -1.88855 0
M  V30 1013 H 94.8184 2.39673 -3.0576 0
M  V30 1014 H 96.4904 0.294206 -4.60361 0
M  V30 1015 H 94.7334 0.207368 -4.33304 0
M  V30 1016 H 95.4044 1.51923 -5.30682 0
M  V30 1017 H 97.8804 2.22724 -3.51473 0
M  V30 1018 H 96.7564 3.30358 -4.38355 0
M  V30 1019 H 97.0174 3.53023 -2.66134 0
M  V30 1020 N 96.0765 1.50051 0.48192 0
M  V30 1021 C 97.0065 1.71046 1.58951 0
M  V30 1022 C 97.9875 0.559288 1.60642 0
M  V30 1023 O 99.1725 0.797243 1.77081 0
M  V30 1024 C 96.3025 1.79462 2.97339 0
M  V30 1025 C 95.2565 2.94558 3.10515 0
M  V30 1026 C 94.5825 2.88105 4.50444 0
M  V30 1027 C 95.8825 4.35227 2.88747 0
M  V30 1028 H 97.5765 2.6378 1.41635 0
M  V30 1029 H 95.1225 1.26936 0.679942 0
M  V30 1030 H 97.0755 1.92734 3.74742 0
M  V30 1031 H 95.7995 0.833412 3.15788 0
M  V30 1032 H 94.4585 2.80918 2.35543 0
M  V30 1033 H 94.1065 1.89853 4.65795 0
M  V30 1034 H 93.8065 3.65366 4.60197 0
M  V30 1035 H 95.3305 3.03412 5.29881 0
M  V30 1036 H 96.7445 4.49449 3.55905 0
M  V30 1037 H 95.1415 5.13856 3.09955 0
M  V30 1038 H 96.2115 4.48347 1.84696 0
M  V30 1039 N 97.5546 -0.734337 1.39446 0
M  V30 1040 C 98.4846 -1.86155 1.40955 0
M  V30 1041 C 99.4656 -1.67898 0.272827 0
M  V30 1042 O 100.651 -1.88207 0.478743 0
M  V30 1043 C 97.7806 -3.23912 1.25294 0
M  V30 1044 C 96.7346 -3.56808 2.36373 0
M  V30 1045 C 96.0606 -4.93508 2.058 0
M  V30 1046 C 97.3606 -3.59713 3.78687 0
M  V30 1047 H 99.0546 -1.8515 2.35287 0
M  V30 1048 H 96.6006 -0.889367 1.13253 0
M  V30 1049 H 98.5536 -4.02443 1.2497 0
M  V30 1050 H 97.2776 -3.25446 0.274308 0
M  V30 1051 H 95.9366 -2.80606 2.35914 0
M  V30 1052 H 95.5846 -4.91623 1.06374 0
M  V30 1053 H 95.2846 -5.16486 2.80208 0
M  V30 1054 H 96.8086 -5.74396 2.07128 0
M  V30 1055 H 98.2226 -4.2832 3.81071 0
M  V30 1056 H 96.6196 -3.94209 4.52459 0
M  V30 1057 H 97.6896 -2.59504 4.09617 0
M  V30 1058 N 99.0327 -1.24633 -0.964593 0
M  V30 1059 C 100.31 -0.995809 -1.68354 0
M  V30 1060 C 100.69 0.480964 -2.05548 0
M  V30 1061 O 100.038 1.45599 -1.76105 0
M  V30 1062 C 100.248 -1.92177 -2.91323 0
M  V30 1063 C 101.596 -2.19446 -3.63495 0
M  V30 1064 O 102.62 -1.89855 -3.01386 0
M  V30 1065 O 101.479 -2.69714 -4.75307 0
M  V30 1066 H 98.5727 -0.376854 -0.736146 0
M  V30 1067 H 101.119 -1.35745 -1.0184 0
M  V30 1068 H 99.8907 -2.91938 -2.60553 0
M  V30 1069 H 99.5137 -1.56349 -3.65569 0
M  V30 1070 N 100.511 1.16574 -1.06058 0
M  V30 1071 C 101.441 2.23057 -0.690488 0
M  V30 1072 C 102.422 1.67141 0.315901 0
M  V30 1073 O 103.607 1.93253 0.191556 0
M  V30 1074 C 100.737 3.47222 -0.073625 0
M  V30 1075 C 99.6908 4.16016 -1.00573 0
M  V30 1076 C 99.0168 5.34104 -0.252289 0
M  V30 1077 C 100.317 4.67264 -2.33371 0
M  V30 1078 H 102.011 2.54271 -1.58072 0
M  V30 1079 H 99.5568 1.22218 -0.76149 0
M  V30 1080 H 101.51 4.20939 0.19714 0
M  V30 1081 H 100.234 3.15302 0.85161 0
M  V30 1082 H 98.8928 3.44223 -1.2612 0
M  V30 1083 H 98.5408 4.98437 0.675988 0
M  V30 1084 H 98.2408 5.81072 -0.873455 0
M  V30 1085 H 99.7648 6.10599 0.0109857 0
M  V30 1086 H 101.179 5.32573 -2.12223 0
M  V30 1087 H 99.5758 5.24843 -2.90963 0
M  V30 1088 H 100.646 3.83602 -2.96611 0
M  V30 1089 N 101.989 0.842826 1.3317 0
M  V30 1090 C 102.899 0.281444 2.32906 0
M  V30 1091 C 103.915 -0.594587 1.63526 0
M  V30 1092 O 105.091 -0.49777 1.95152 0
M  V30 1093 C 102.156 -0.530929 3.42611 0
M  V30 1094 C 101.217 0.369843 4.27704 0
M  V30 1095 C 100.45 -0.403853 5.3217 0
M  V30 1096 O 100.673 -1.63513 5.46461 0
M  V30 1097 O 99.6069 0.224199 6.01482 0
M  V30 1098 H 103.433 1.10744 2.82789 0
M  V30 1099 H 101.018 0.60545 1.36582 0
M  V30 1100 H 102.9 -0.992437 4.09547 0
M  V30 1101 H 101.575 -1.33392 2.94938 0
M  V30 1102 H 100.482 0.879275 3.6362 0
M  V30 1103 H 101.815 1.13771 4.78871 0
M  V30 1104 N 103.467 -1.45747 0.599634 0
M  V30 1105 C 104.878 -1.85853 0.177681 0
M  V30 1106 C 105.229 -1.50102 -1.26348 0
M  V30 1107 O 104.354 -0.923905 -1.95686 0
M  V30 1108 C 104.949 -3.37326 0.315688 0
M  V30 1109 C 103.508 -3.76365 -0.0515144 0
M  V30 1110 C 102.655 -2.69722 0.643822 0
M  V30 1111 H 105.606 -1.36661 0.806814 0
M  V30 1112 H 105.627 -3.77778 -0.454321 0
M  V30 1113 H 105.139 -3.63315 1.36468 0
M  V30 1114 H 103.24 -3.55993 -1.09999 0
M  V30 1115 H 103.353 -4.77916 0.336594 0
M  V30 1116 H 101.717 -2.54567 0.0822881 0
M  V30 1117 H 102.5 -2.98549 1.6948 0
M  V30 1118 N 104.945 -0.338344 -1.53925 0
M  V30 1119 C 106.361 0.0137736 -1.59594 0
M  V30 1120 C 106.561 1.49186 -1.35447 0
M  V30 1121 O 105.617 2.24987 -1.14616 0
M  V30 1122 C 106.93 -0.41773 -2.97784 0
M  V30 1123 C 108.478 -0.369633 -3.1081 0
M  V30 1124 C 108.953 -0.776524 -4.51369 0
M  V30 1125 N 110.444 -0.730506 -4.57403 0
M  V30 1126 C 111.179 -1.01736 -5.64303 0
M  V30 1127 N 110.675 -1.3721 -6.79077 0
M  V30 1128 N 112.468 -0.941942 -5.54151 0
M  V30 1129 H 104.619 -1.3012 -1.67876 0
M  V30 1130 H 106.882 -0.530082 -0.78595 0
M  V30 1131 H 106.588 -1.44811 -3.20504 0
M  V30 1132 H 106.462 0.209729 -3.76616 0
M  V30 1133 H 108.849 0.651568 -2.87817 0
M  V30 1134 H 108.93 -1.03223 -2.34049 0
M  V30 1135 H 108.574 -1.79571 -4.75096 0
M  V30 1136 H 108.504 -0.0914649 -5.26521 0
M  V30 1137 H 110.995 -0.468783 -3.74981 0
M  V30 1138 H 111.308 -1.57597 -7.5656 0
M  V30 1139 H 109.653 -1.4105 -6.80536 0
M  V30 1140 H 112.844 -0.664184 -4.63364 0
M  V30 1141 H 113.017 -1.16884 -6.37371 0
M  V30 1142 N 106.423 1.57458 -0.0668435 0
M  V30 1143 C 107.669 1.93587 0.6043 0
M  V30 1144 C 108.002 0.946722 1.69561 0
M  V30 1145 O 107.277 -0.0248516 1.94484 0
M  V30 1146 C 107.56 3.40014 1.18585 0
M  V30 1147 C 107.413 4.49685 0.101529 0
M  V30 1148 C 108.732 3.87154 2.09284 0
M  V30 1149 H 105.851 0.703958 0.218202 0
M  V30 1150 H 108.493 1.89542 -0.131804 0
M  V30 1151 H 106.643 3.43592 1.81319 0
M  V30 1152 H 108.315 4.5823 -0.531279 0
M  V30 1153 H 106.558 4.30059 -0.568487 0
M  V30 1154 H 107.229 5.49266 0.54874 0
M  V30 1155 H 109.705 3.85551 1.56491 0
M  V30 1156 H 108.581 4.90231 2.46911 0
M  V30 1157 H 108.842 3.2481 2.99918 0
M  V30 1158 N 107.901 -0.206675 1.56239 0
M  V30 1159 C 109.15 -0.926964 1.79138 0
M  V30 1160 C 109.463 -1.84901 0.638043 0
M  V30 1161 O 110.669 -2.60906 0.751033 0
M  V30 1162 C 109.125 -1.6986 3.17294 0
M  V30 1163 C 108.733 -0.821956 4.40395 0
M  V30 1164 C 110.477 -2.40922 3.4951 0
M  V30 1165 C 108.384 -1.59179 5.69575 0
M  V30 1166 H 107.314 -0.349864 0.667915 0
M  V30 1167 H 109.965 -0.180487 1.8261 0
M  V30 1168 H 108.347 -2.48853 3.08039 0
M  V30 1169 H 109.521 -0.0715019 4.60745 0
M  V30 1170 H 107.836 -0.222741 4.15804 0
M  V30 1171 H 110.433 -2.99047 4.43255 0
M  V30 1172 H 110.776 -3.14542 2.72707 0
M  V30 1173 H 111.309 -1.68905 3.60161 0
M  V30 1174 H 108.048 -0.898589 6.49312 0
M  V30 1175 H 107.568 -2.31648 5.53262 0
M  V30 1176 H 109.247 -2.14862 6.10281 0
M  V30 1177 N 109.379 -1.50304 -0.473955 0
M  V30 1178 C 110.329 -1.65347 -1.56985 0
M  V30 1179 C 111.313 -0.508176 -1.52664 0
M  V30 1180 O 112.505 -0.762446 -1.59737 0
M  V30 1181 C 109.634 -1.74832 -2.95447 0
M  V30 1182 C 108.72 -2.95028 -3.04662 0
M  V30 1183 N 109.111 -4.18747 -2.83698 0
M  V30 1184 C 107.409 -2.93527 -3.35795 0
M  V30 1185 C 108.11 -4.99687 -2.97805 0
M  V30 1186 N 107.086 -4.33585 -3.2788 0
M  V30 1187 H 110.888 -2.58698 -1.39472 0
M  V30 1188 H 108.402 -1.47449 -0.680629 0
M  V30 1189 H 110.399 -1.83712 -3.7424 0
M  V30 1190 H 109.059 -0.826376 -3.14008 0
M  V30 1191 H 110.07 -4.48291 -2.59337 0
M  V30 1192 H 106.747 -2.10821 -3.60362 0
M  V30 1193 H 108.137 -6.08057 -2.85861 0
M  V30 1194 N 110.857 0.726932 -1.39834 0
M  V30 1195 C 112.082 1.52121 -1.40976 0
M  V30 1196 C 112.507 1.88098 -0.00826029 0
M  V30 1197 O 111.865 1.52479 0.980807 0
M  V30 1198 C 111.913 2.78021 -2.29644 0
M  V30 1199 O 111.017 3.74272 -1.73188 0
M  V30 1200 H 110.358 0.45908 -0.479731 0
M  V30 1201 H 112.888 0.896207 -1.83927 0
M  V30 1202 H 112.898 3.26671 -2.44438 0
M  V30 1203 H 111.573 2.51169 -3.31492 0
M  V30 1204 H 110.15 3.33073 -1.6768 0
M  V30 1205 N 112.336 1.25143 0.95797 0
M  V30 1206 C 113.585 1.0909 1.69654 0
M  V30 1207 C 113.898 -0.368548 1.92097 0
M  V30 1208 O 115.104 -0.649455 2.63618 0
M  V30 1209 C 113.56 1.90395 3.05414 0
M  V30 1210 C 113.168 3.4081 2.90779 0
M  V30 1211 C 114.912 1.82901 3.83076 0
M  V30 1212 C 112.819 4.14423 4.21909 0
M  V30 1213 H 111.749 0.404625 0.636235 0
M  V30 1214 H 114.4 1.4931 1.06672 0
M  V30 1215 H 112.782 1.42996 3.69281 0
M  V30 1216 H 113.956 3.95859 2.35865 0
M  V30 1217 H 112.271 3.49361 2.26575 0
M  V30 1218 H 114.868 2.35196 4.80195 0
M  V30 1219 H 115.211 0.796224 4.08615 0
M  V30 1220 H 115.744 2.28033 3.25954 0
M  V30 1221 H 112.483 5.18102 4.01561 0
M  V30 1222 H 112.003 3.64159 4.76601 0
M  V30 1223 H 113.682 4.21956 4.90471 0
M  V30 1224 N 113.814 -1.1601 1.06675 0
M  V30 1225 C 114.744 -2.22688 0.702307 0
M  V30 1226 C 115.725 -1.67306 -0.307032 0
M  V30 1227 O 116.91 -1.93352 -0.181305 0
M  V30 1228 C 114.04 -3.47178 0.092038 0
M  V30 1229 C 112.994 -4.15477 1.02777 0
M  V30 1230 C 112.32 -5.33963 0.28061 0
M  V30 1231 C 113.62 -4.66019 2.35846 0
M  V30 1232 H 115.314 -2.53429 1.59419 0
M  V30 1233 H 112.86 -1.21813 0.767961 0
M  V30 1234 H 114.813 -4.21037 -0.174814 0
M  V30 1235 H 113.537 -3.15749 -0.834877 0
M  V30 1236 H 112.196 -3.43549 1.27944 0
M  V30 1237 H 111.844 -4.98788 -0.649545 0
M  V30 1238 H 111.544 -5.806 0.904258 0
M  V30 1239 H 113.068 -6.10596 0.021396 0
M  V30 1240 H 114.482 -5.3144 2.15045 0
M  V30 1241 H 112.879 -5.23293 2.93743 0
M  V30 1242 H 113.949 -3.82023 2.98641 0
M  V30 1243 N 115.292 -0.849877 -1.32721 0
M  V30 1244 C 116.24 -0.279745 -2.30912 0
M  V30 1245 C 117.234 0.594278 -1.58634 0
M  V30 1246 O 118.44 0.482613 -1.73409 0
M  V30 1247 H 114.815 -0.0717521 -0.748569 0
M  V30 1248 H 116.786 -1.12222 -2.76494 0
M  V30 1249 C 115.535 0.521108 -3.43773 0
M  V30 1250 H 114.858 -0.142141 -3.99547 0
M  V30 1251 H 116.298 0.885693 -4.14646 0
M  V30 1252 C 114.757 1.70442 -2.90605 0
M  V30 1253 O 115.287 2.8034 -2.87702 0
M  V30 1254 N 113.493 1.52991 -2.47067 0
M  V30 1255 H 113.04 0.635914 -2.49628 0
M  V30 1256 H 112.998 2.32311 -2.11847 0
M  V30 1257 N 116.77 1.45427 -0.607355 0
M  V30 1258 C 117.995 2.07124 -0.107006 0
M  V30 1259 C 118.42 1.44906 1.19933 0
M  V30 1260 O 117.778 0.541687 1.73019 0
M  V30 1261 C 117.826 3.60595 0.0194119 0
M  V30 1262 O 116.93 3.98285 1.0697 0
M  V30 1263 H 116.271 0.659868 -0.0739597 0
M  V30 1264 H 118.801 1.86683 -0.837297 0
M  V30 1265 H 118.811 4.07419 0.2177 0
M  V30 1266 H 117.486 4.05266 -0.934453 0
M  V30 1267 H 116.063 3.63133 0.847889 0
M  V30 1268 N 118.248 0.346503 1.53744 0
M  V30 1269 C 119.659 -0.136779 1.86198 0
M  V30 1270 C 120.01 -1.49749 1.26766 0
M  V30 1271 O 119.135 -2.08417 0.582355 0
M  V30 1272 C 119.73 -0.254966 3.37839 0
M  V30 1273 C 118.289 -0.682482 3.70161 0
M  V30 1274 C 117.436 0.181981 2.76702 0
M  V30 1275 H 120.387 0.565994 1.48264 0
M  V30 1276 H 120.408 -1.08195 3.64793 0
M  V30 1277 H 119.92 0.735526 3.81066 0
M  V30 1278 H 118.021 -1.68189 3.3248 0
M  V30 1279 H 118.134 -0.470326 4.76786 0
M  V30 1280 H 116.498 -0.34615 2.52337 0
M  V30 1281 H 117.281 1.16966 3.2276 0
M  V30 1282 N 119.726 -1.57421 0.075193 0
M  V30 1283 C 120.956 -1.97659 -0.601203 0
M  V30 1284 C 121.364 -0.952427 -1.63479 0
M  V30 1285 O 120.707 0.0688241 -1.83571 0
M  V30 1286 C 120.769 -3.34218 -1.32434 0
M  V30 1287 C 120.433 -4.5484 -0.443826 0
M  V30 1288 C 121.43 -5.19034 0.299969 0
M  V30 1289 C 119.115 -5.00952 -0.367709 0
M  V30 1290 C 121.109 -6.27695 1.10807 0
M  V30 1291 C 118.796 -6.09484 0.444058 0
M  V30 1292 C 119.794 -6.72719 1.18061 0
M  V30 1293 O 119.482 -7.79161 1.97898 0
M  V30 1294 H 119.214 -0.65494 -0.167422 0
M  V30 1295 H 121.768 -2.04886 0.145157 0
M  V30 1296 H 119.998 -3.23615 -2.11685 0
M  V30 1297 H 121.687 -3.59038 -1.89331 0
M  V30 1298 H 122.453 -4.84351 0.250776 0
M  V30 1299 H 118.332 -4.51509 -0.930638 0
M  V30 1300 H 121.876 -6.76982 1.68347 0
M  V30 1301 H 117.773 -6.43601 0.494803 0
M  V30 1302 H 118.541 -7.96055 1.90367 0
M  V30 1303 N 121.204 0.198386 -1.56346 0
M  V30 1304 C 122.167 1.22952 -1.93431 0
M  V30 1305 C 123.167 1.38611 -0.815092 0
M  V30 1306 O 124.357 1.36479 -1.08255 0
M  V30 1307 C 121.489 2.59946 -2.20546 0
M  V30 1308 H 122.682 0.912626 -2.85677 0
M  V30 1309 H 120.235 0.43977 -1.49986 0
M  V30 1310 H 120.97 2.96696 -1.30927 0
M  V30 1311 H 120.755 2.49953 -3.02102 0
M  V30 1312 H 122.245 3.3431 -2.50253 0
M  V30 1313 N 122.682 1.50554 0.465978 0
M  V30 1314 C 123.629 1.6979 1.56333 0
M  V30 1315 C 124.599 0.539239 1.57103 0
M  V30 1316 O 125.784 0.770401 1.74555 0
M  V30 1317 C 122.924 1.80273 2.94271 0
M  V30 1318 C 122.037 3.07674 3.0325 0
M  V30 1319 C 121.172 3.08922 4.32135 0
M  V30 1320 C 120.211 4.30755 4.34875 0
M  V30 1321 N 119.348 4.29714 5.55239 0
M  V30 1322 H 124.188 2.63472 1.39235 0
M  V30 1323 H 121.725 1.30602 0.676873 0
M  V30 1324 H 123.683 1.84332 3.74269 0
M  V30 1325 H 122.313 0.900258 3.09992 0
M  V30 1326 H 121.365 3.13062 2.16094 0
M  V30 1327 H 122.677 3.97642 3.01135 0
M  V30 1328 H 121.831 3.11738 5.20485 0
M  V30 1329 H 120.57 2.16792 4.36866 0
M  V30 1330 H 119.575 4.28146 3.44922 0
M  V30 1331 H 120.8 5.24117 4.31831 0
M  V30 1332 H 118.746 3.4044 5.60746 0
M  V30 1333 H 118.663 5.13456 5.54886 0
M  V30 1334 H 119.931 4.36683 6.457 0
M  V30 1335 N 124.16 -0.719506 1.40217 0
M  V30 1336 C 125.09 -1.8465 1.42922 0
M  V30 1337 C 126.071 -1.67599 0.29062 0
M  V30 1338 O 127.256 -1.87688 0.498677 0
M  V30 1339 C 124.386 -3.22565 1.28722 0
M  V30 1340 C 123.34 -3.54281 2.40144 0
M  V30 1341 C 122.666 -4.91298 2.11023 0
M  V30 1342 C 123.966 -3.55676 3.82481 0
M  V30 1343 H 125.66 -1.82644 2.37237 0
M  V30 1344 H 123.206 -0.877305 1.1419 0
M  V30 1345 H 125.159 -4.01095 1.29232 0
M  V30 1346 H 123.883 -3.25137 0.308811 0
M  V30 1347 H 122.542 -2.78088 2.38877 0
M  V30 1348 H 122.19 -4.90468 1.11582 0
M  V30 1349 H 121.89 -5.13485 2.8567 0
M  V30 1350 H 123.414 -5.72166 2.13209 0
M  V30 1351 H 124.828 -4.24254 3.85592 0
M  V30 1352 H 123.225 -3.89388 4.56614 0
M  V30 1353 H 124.295 -2.55144 4.12346 0
M  V30 1354 N 125.638 -1.25649 -0.95132 0
M  V30 1355 C 126.868 -1.13179 -1.72841 0
M  V30 1356 C 127.276 0.316827 -1.86528 0
M  V30 1357 O 126.619 1.22948 -1.3649 0
M  V30 1358 C 126.681 -1.71644 -3.15878 0
M  V30 1359 C 126.345 -3.20667 -3.25609 0
M  V30 1360 C 127.342 -4.17616 -3.09666 0
M  V30 1361 C 125.027 -3.6094 -3.49324 0
M  V30 1362 C 127.021 -5.52817 -3.17289 0
M  V30 1363 C 124.708 -4.96278 -3.56584 0
M  V30 1364 C 125.706 -5.92025 -3.40581 0
M  V30 1365 O 125.394 -7.24899 -3.47528 0
M  V30 1366 H 125.126 -0.395389 -0.54831 0
M  V30 1367 H 127.68 -1.66566 -1.20187 0
M  V30 1368 H 125.91 -1.12707 -3.69911 0
M  V30 1369 H 127.599 -1.54225 -3.75459 0
M  V30 1370 H 128.365 -3.87842 -2.91211 0
M  V30 1371 H 124.244 -2.86907 -3.6084 0
M  V30 1372 H 127.788 -6.2753 -3.04716 0
M  V30 1373 H 123.685 -5.25716 -3.74556 0
M  V30 1374 H 124.453 -7.33039 -3.64138 0
M  V30 1375 N 127.117 1.15442 -1.07289 0
M  V30 1376 C 128.065 2.22225 -0.686952 0
M  V30 1377 C 129.059 1.66688 0.30193 0
M  V30 1378 O 130.265 1.79236 0.165712 0
M  V30 1379 H 126.64 0.723783 -0.204064 0
M  V30 1380 H 128.611 2.52056 -1.5972 0
M  V30 1381 C 127.36 3.47556 -0.100149 0
M  V30 1382 H 126.683 3.90612 -0.852211 0
M  V30 1383 H 128.123 4.23794 0.132235 0
M  V30 1384 C 126.582 3.16337 1.159 0
M  V30 1385 O 127.112 3.33074 2.24555 0
M  V30 1386 N 125.318 2.70385 1.06491 0
M  V30 1387 H 124.865 2.56966 0.180668 0
M  V30 1388 H 124.823 2.49871 1.90819 0
M  V30 1389 N 128.595 0.856903 1.32268 0
M  V30 1390 C 130.006 0.515711 1.79436 0
M  V30 1391 C 130.357 -0.966586 1.70738 0
M  V30 1392 O 129.482 -1.75409 1.26731 0
M  V30 1393 C 130.077 0.929335 3.25805 0
M  V30 1394 C 128.636 0.640006 3.70919 0
M  V30 1395 C 127.783 1.12784 2.53328 0
M  V30 1396 H 130.734 1.04389 1.19535 0
M  V30 1397 H 130.755 0.246633 3.797 0
M  V30 1398 H 130.267 2.00821 3.32103 0
M  V30 1399 H 128.368 -0.428051 3.70133 0
M  V30 1400 H 128.481 1.20788 4.63624 0
M  V30 1401 H 126.845 0.548033 2.48734 0
M  V30 1402 H 127.628 2.21387 2.62379 0
M  V30 1403 N 130.073 -1.45103 0.615059 0
M  V30 1404 C 130.983 -2.34382 -0.101034 0
M  V30 1405 C 131.999 -1.51681 -0.852585 0
M  V30 1406 O 133.175 -1.8446 -0.808484 0
M  V30 1407 C 130.24 -3.29417 -1.08099 0
M  V30 1408 C 129.301 -4.28025 -0.330577 0
M  V30 1409 C 128.534 -5.1852 -1.26385 0
M  V30 1410 O 128.757 -5.12598 -2.50198 0
M  V30 1411 O 127.691 -5.97122 -0.756866 0
M  V30 1412 H 131.517 -2.97033 0.632855 0
M  V30 1413 H 129.102 -1.4461 0.375293 0
M  V30 1414 H 130.984 -3.87958 -1.6452 0
M  V30 1415 H 129.659 -2.69321 -1.79577 0
M  V30 1416 H 128.566 -3.73078 0.276283 0
M  V30 1417 H 129.899 -4.90997 0.343866 0
M  V30 1418 N 131.551 -0.354651 -1.53558 0
M  V30 1419 C 132.499 0.512195 -2.26891 0
M  V30 1420 C 133.493 1.09263 -1.29452 0
M  V30 1421 O 134.699 1.03709 -1.47121 0
M  V30 1422 H 131.074 0.183878 -0.729173 0
M  V30 1423 H 133.045 -0.128202 -2.98124 0
M  V30 1424 C 131.794 1.64563 -3.06291 0
M  V30 1425 H 131.117 1.20829 -3.81104 0
M  V30 1426 H 132.557 2.22711 -3.60799 0
M  V30 1427 C 131.016 2.58158 -2.16462 0
M  V30 1428 O 131.546 3.60695 -1.76811 0
M  V30 1429 N 129.752 2.27096 -1.81317 0
M  V30 1430 H 129.299 1.43751 -2.1376 0
M  V30 1431 H 129.257 2.89975 -1.21498 0
M  V30 1432 N 133.029 1.57378 -0.0835403 0
M  V30 1433 C 134.278 1.93106 0.582498 0
M  V30 1434 C 134.591 0.96651 1.70053 0
M  V30 1435 O 135.797 1.21705 2.42693 0
M  V30 1436 C 134.253 3.43076 1.08751 0
M  V30 1437 C 133.861 4.48 -0.000146404 0
M  V30 1438 C 135.605 3.87785 1.72694 0
M  V30 1439 C 133.512 5.89113 0.519568 0
M  V30 1440 H 132.442 0.720775 0.221358 0
M  V30 1441 H 135.093 1.82821 -0.157675 0
M  V30 1442 H 133.475 3.48474 1.88101 0
M  V30 1443 H 134.649 4.54233 -0.775199 0
M  V30 1444 H 132.964 4.1283 -0.54406 0
M  V30 1445 H 135.561 4.90604 2.1263 0
M  V30 1446 H 135.904 3.25796 2.59158 0
M  V30 1447 H 136.437 3.8504 0.999457 0
M  V30 1448 H 133.176 6.54775 -0.308186 0
M  V30 1449 H 132.696 5.86376 1.26188 0
M  V30 1450 H 134.375 6.39346 0.992237 0
M  V30 1451 N 134.507 -0.190092 1.56449 0
M  V30 1452 C 135.737 -0.92443 1.84764 0
M  V30 1453 C 136.145 -1.77146 0.664529 0
M  V30 1454 O 135.488 -1.79812 -0.375957 0
M  V30 1455 C 135.55 -1.86651 3.07248 0
M  V30 1456 C 135.214 -1.20094 4.40938 0
M  V30 1457 C 136.211 -0.575445 5.16706 0
M  V30 1458 C 133.896 -1.2033 4.87674 0
M  V30 1459 C 135.89 0.0388111 6.37388 0
M  V30 1460 C 133.577 -0.585214 6.08291 0
M  V30 1461 C 134.575 0.0347578 6.82991 0
M  V30 1462 O 134.263 0.643147 8.01323 0
M  V30 1463 H 133.995 -0.274974 0.617548 0
M  V30 1464 H 136.549 -0.200788 2.04416 0
M  V30 1465 H 134.779 -2.62998 2.83494 0
M  V30 1466 H 136.468 -2.46907 3.22167 0
M  V30 1467 H 137.234 -0.565728 4.81689 0
M  V30 1468 H 133.113 -1.67526 4.29484 0
M  V30 1469 H 136.657 0.523329 6.95634 0
M  V30 1470 H 132.554 -0.592451 6.42775 0
M  V30 1471 H 133.322 0.540545 8.16713 0
M  V30 1472 N 135.985 -1.50799 -0.457987 0
M  V30 1473 C 136.915 -1.73553 -1.5621 0
M  V30 1474 C 137.896 -0.584774 -1.59732 0
M  V30 1475 O 139.081 -0.825314 -1.7579 0
M  V30 1476 C 136.211 -1.84169 -2.94447 0
M  V30 1477 C 135.165 -2.99461 -3.0579 0
M  V30 1478 C 134.491 -2.95235 -4.45803 0
M  V30 1479 C 135.791 -4.39766 -2.81786 0
M  V30 1480 H 137.485 -2.66 -1.37421 0
M  V30 1481 H 135.031 -1.28002 -0.659662 0
M  V30 1482 H 136.984 -1.98672 -3.71628 0
M  V30 1483 H 135.708 -0.883545 -3.14422 0
M  V30 1484 H 134.367 -2.8463 -2.31044 0
M  V30 1485 H 134.015 -1.97239 -4.62715 0
M  V30 1486 H 133.715 -3.72642 -4.54326 0
M  V30 1487 H 135.239 -3.11803 -5.24987 0
M  V30 1488 H 136.653 -4.55054 -3.4871 0
M  V30 1489 H 135.05 -5.18722 -3.0174 0
M  V30 1490 H 136.12 -4.51229 -1.7754 0
M  V30 1491 N 137.463 0.71206 -1.40597 0
M  V30 1492 C 138.688 1.50617 -1.42581 0
M  V30 1493 C 139.113 1.88079 -0.0282102 0
M  V30 1494 O 138.471 1.53511 0.964579 0
M  V30 1495 C 138.519 2.7557 -2.3258 0
M  V30 1496 O 137.623 3.72414 -1.77148 0
M  V30 1497 H 136.964 0.453966 -0.484573 0
M  V30 1498 H 139.494 0.876649 -1.84868 0
M  V30 1499 H 139.504 3.2406 -2.47889 0
M  V30 1500 H 138.179 2.47639 -3.34138 0
M  V30 1501 H 136.756 3.31276 -1.71204 0
M  V30 1502 N 138.941 1.26152 0.944643 0
M  V30 1503 C 139.851 1.09176 2.07648 0
M  V30 1504 C 140.867 0.0261935 1.7398 0
M  V30 1505 O 142.043 0.229208 2.00091 0
M  V30 1506 C 139.108 0.722915 3.39079 0
M  V30 1507 C 138.169 1.86752 3.86552 0
M  V30 1508 C 137.402 1.51617 5.11711 0
M  V30 1509 O 137.625 0.416331 5.68879 0
M  V30 1510 O 136.559 2.34975 5.54139 0
M  V30 1511 H 140.385 2.0412 2.24875 0
M  V30 1512 H 137.97 1.05182 1.061 0
M  V30 1513 H 139.852 0.529787 4.18056 0
M  V30 1514 H 138.527 -0.197159 3.23099 0
M  V30 1515 H 137.434 2.11558 3.08535 0
M  V30 1516 H 138.767 2.76719 4.07047 0
M  V30 1517 N 140.419 -1.14872 1.07899 0
M  V30 1518 C 141.369 -2.17809 0.674027 0
M  V30 1519 C 142.353 -1.58008 -0.303699 0
M  V30 1520 O 143.545 -1.76616 -0.11654 0
M  V30 1521 C 140.674 -3.43208 0.0793318 0
M  V30 1522 C 139.76 -4.10051 1.08253 0
M  V30 1523 N 140.151 -4.52296 2.2641 0
M  V30 1524 C 138.449 -4.36469 0.917124 0
M  V30 1525 C 139.15 -5.04199 2.901 0
M  V30 1526 N 138.126 -4.98088 2.17736 0
M  V30 1527 H 141.928 -2.48207 1.57386 0
M  V30 1528 H 139.442 -1.315 0.952976 0
M  V30 1529 H 141.439 -4.16272 -0.228719 0
M  V30 1530 H 140.099 -3.14291 -0.815551 0
M  V30 1531 H 141.11 -4.45504 2.64096 0
M  V30 1532 H 137.787 -4.17432 0.0756078 0
M  V30 1533 H 139.177 -5.46802 3.90458 0
M  V30 1534 N 141.898 -0.863906 -1.31812 0
M  V30 1535 C 143.146 -0.470904 -1.96537 0
M  V30 1536 C 143.467 0.978771 -1.68657 0
M  V30 1537 O 142.737 1.6853 -0.998717 0
M  V30 1538 H 141.317 -0.171148 -0.72713 0
M  V30 1539 H 143.979 -1.10236 -1.60729 0
M  V30 1540 H 143.075 -0.623616 -3.05806 0
M  V30 1541 N 143.376 1.44774 -0.622745 0
M  V30 1542 C 144.624 2.01721 -0.123655 0
M  V30 1543 C 144.945 1.49172 1.25589 0
M  V30 1544 O 144.215 0.691974 1.83272 0
M  V30 1545 H 142.795 0.745777 -0.0427225 0
M  V30 1546 H 145.457 1.77382 -0.807559 0
M  V30 1547 H 144.553 3.11984 -0.0849534 0
M  V30 1548 N 144.854 0.36279 1.53368 0
M  V30 1549 C 146.102 -0.227326 2.00817 0
M  V30 1550 C 146.423 -1.49511 1.25186 0
M  V30 1551 O 145.693 -1.92482 0.364348 0
M  V30 1552 H 144.273 -0.0869923 0.741917 0
M  V30 1553 H 146.935 0.488381 1.88682 0
M  V30 1554 H 146.031 -0.456273 3.08747 0
M  V30 1555 N 146.332 -1.57332 0.0918853 0
M  V30 1556 C 147.295 -2.12708 -0.85369 0
M  V30 1557 C 148.295 -1.05561 -1.213 0
M  V30 1558 O 149.485 -1.31461 -1.14296 0
M  V30 1559 C 146.617 -2.64503 -2.15061 0
M  V30 1560 H 147.81 -2.97573 -0.3729 0
M  V30 1561 H 145.363 -1.55509 -0.157072 0
M  V30 1562 H 146.098 -1.83149 -2.67632 0
M  V30 1563 H 145.883 -3.4284 -1.90272 0
M  V30 1564 H 147.373 -3.07351 -2.82711 0
M  V30 1565 N 147.81 0.181792 -1.56548 0
M  V30 1566 C 149.058 0.89832 -1.81038 0
M  V30 1567 C 149.379 1.83232 -0.667164 0
M  V30 1568 O 148.649 1.93372 0.313673 0
M  V30 1569 H 147.229 0.33471 -0.667816 0
M  V30 1570 H 149.891 0.184116 -1.94028 0
M  V30 1571 H 148.987 1.4815 -2.74696 0
M  V30 1572 N 149.288 1.51039 0.449983 0
M  V30 1573 C 150.236 1.71995 1.5659 0
M  V30 1574 C 151.23 0.586029 1.5894 0
M  V30 1575 O 152.436 0.76709 1.62837 0
M  V30 1576 H 148.811 0.543233 0.520001 0
M  V30 1577 H 150.782 2.65562 1.36085 0
M  V30 1578 C 149.531 1.8506 2.9436 0
M  V30 1579 H 148.854 2.71712 2.93279 0
M  V30 1580 H 150.294 2.0374 3.71842 0
M  V30 1581 C 148.753 0.607277 3.31382 0
M  V30 1582 O 149.283 -0.243903 4.00959 0
M  V30 1583 N 147.489 0.455073 2.87015 0
M  V30 1584 H 147.036 1.14879 2.30566 0
M  V30 1585 H 146.994 -0.375611 3.12148 0
M  V30 1586 N 150.766 -0.704594 1.40972 0
M  V30 1587 C 151.714 -1.83994 1.42299 0
M  V30 1588 C 152.708 -1.66684 0.302111 0
M  V30 1589 O 153.914 -1.73655 0.473697 0
M  V30 1590 H 150.289 -0.606171 0.44504 0
M  V30 1591 H 152.26 -1.79992 2.38003 0
M  V30 1592 C 151.009 -3.21946 1.31323 0
M  V30 1593 H 150.332 -3.35878 2.16855 0
M  V30 1594 H 151.772 -4.01491 1.36311 0
M  V30 1595 C 150.231 -3.36891 0.0245977 0
M  V30 1596 O 150.761 -3.90687 -0.934153 0
M  V30 1597 N 148.967 -2.90559 -0.0485243 0
M  V30 1598 H 148.514 -2.46968 0.732419 0
M  V30 1599 H 148.472 -3.00937 -0.910171 0
M  V30 1600 N 152.244 -1.26651 -0.937939 0
M  V30 1601 C 153.49 -1.13562 -1.68746 0
M  V30 1602 C 153.845 0.317241 -1.89767 0
M  V30 1603 O 153.138 1.22939 -1.46957 0
M  V30 1604 C 153.332 -1.84168 -3.06295 0
M  V30 1605 C 153.161 -3.36171 -2.98696 0
M  V30 1606 C 151.931 -4.05468 -3.01535 0
M  V30 1607 C 154.129 -4.32312 -2.78588 0
M  V30 1608 N 152.111 -5.44118 -2.84269 0
M  V30 1609 C 153.482 -5.58159 -2.69924 0
M  V30 1610 C 155.537 -4.22524 -2.63396 0
M  V30 1611 C 154.24 -6.75335 -2.47618 0
M  V30 1612 C 156.266 -5.39411 -2.42466 0
M  V30 1613 C 155.628 -6.64208 -2.34536 0
M  V30 1614 H 151.727 -0.470361 -0.624728 0
M  V30 1615 H 154.311 -1.59982 -1.10968 0
M  V30 1616 H 152.482 -1.40219 -3.62206 0
M  V30 1617 H 154.214 -1.63674 -3.70126 0
M  V30 1618 H 150.969 -3.56854 -3.11372 0
M  V30 1619 H 151.393 -6.1693 -2.78795 0
M  V30 1620 H 156.035 -3.26771 -2.68292 0
M  V30 1621 H 153.753 -7.71182 -2.41463 0
M  V30 1622 H 157.339 -5.33711 -2.31611 0
M  V30 1623 H 156.219 -7.53129 -2.18555 0
M  V30 1624 N 153.722 1.14298 -1.08507 0
M  V30 1625 C 154.685 2.17607 -0.719711 0
M  V30 1626 C 155.685 1.58907 0.245997 0
M  V30 1627 O 156.875 1.74181 0.0254081 0
M  V30 1628 C 154.007 3.40842 -0.0627695 0
M  V30 1629 H 155.2 2.51443 -1.63452 0
M  V30 1630 H 152.753 1.28963 -0.88307 0
M  V30 1631 H 153.488 3.12587 0.863716 0
M  V30 1632 H 153.273 3.84713 -0.757504 0
M  V30 1633 H 154.763 4.17221 0.177786 0
M  V30 1634 N 155.201 0.870884 1.31352 0
M  V30 1635 C 156.426 0.495957 2.01383 0
M  V30 1636 C 156.851 -0.904324 1.64935 0
M  V30 1637 O 156.209 -1.59687 0.858466 0
M  V30 1638 C 156.257 0.661433 3.54482 0
M  V30 1639 O 155.361 -0.298851 4.11316 0
M  V30 1640 H 154.702 0.197158 0.634054 0
M  V30 1641 H 157.232 1.17455 1.67527 0
M  V30 1642 H 157.242 0.555072 4.04207 0
M  V30 1643 H 155.917 1.68246 3.8035 0
M  V30 1644 H 154.494 -0.147368 3.72609 0
M  V30 1645 N 156.679 -1.44442 0.630414 0
M  V30 1646 C 157.927 -2.01653 0.134351 0
M  V30 1647 C 158.248 -1.49836 -1.24796 0
M  V30 1648 O 157.518 -0.701684 -1.82902 0
M  V30 1649 H 156.098 -0.74554 0.0466769 0
M  V30 1650 H 158.76 -1.76952 0.816955 0
M  V30 1651 H 157.856 -3.11935 0.101498 0
M  V30 1652 N 158.157 -0.370918 -1.53173 0
M  V30 1653 C 159.404 0.217102 -2.01333 0
M  V30 1654 C 159.732 1.48338 -1.25802 0
M  V30 1655 O 158.987 1.92698 -0.34146 0
M  V30 1656 C 159.286 0.549696 -3.53147 0
M  V30 1657 C 158.952 -0.622872 -4.46577 0
M  V30 1658 C 157.614 -0.944595 -4.71838 0
M  V30 1659 C 159.966 -1.40819 -5.01816 0
M  V30 1660 C 157.294 -2.05351 -5.49589 0
M  V30 1661 C 159.646 -2.50757 -5.80778 0
M  V30 1662 C 158.31 -2.83458 -6.04324 0
M  V30 1663 H 157.58 0.0794431 -0.736729 0
M  V30 1664 H 160.227 -0.504481 -1.84736 0
M  V30 1665 H 158.532 1.35237 -3.6772 0
M  V30 1666 H 160.229 1.017 -3.87889 0
M  V30 1667 H 156.819 -0.36209 -4.27068 0
M  V30 1668 H 161.003 -1.17289 -4.82242 0
M  V30 1669 H 156.259 -2.3108 -5.6605 0
M  V30 1670 H 160.433 -3.12022 -6.22588 0
M  V30 1671 H 158.06 -3.69508 -6.64355 0
M  V30 1672 N 159.635 1.57281 -0.100228 0
M  V30 1673 C 160.86 1.99302 0.573881 0
M  V30 1674 C 161.285 0.979059 1.60611 0
M  V30 1675 O 160.643 -0.0517803 1.81226 0
M  V30 1676 C 160.691 3.40274 1.19358 0
M  V30 1677 O 159.795 3.41676 2.30935 0
M  V30 1678 H 159.136 0.647944 0.145138 0
M  V30 1679 H 161.666 2.03779 -0.183156 0
M  V30 1680 H 161.676 3.78078 1.53365 0
M  V30 1681 H 160.351 4.13594 0.437385 0
M  V30 1682 H 158.928 3.15672 1.98509 0
M  V30 1683 N 161.113 -0.173488 1.56642 0
M  V30 1684 C 162.045 -1.23935 1.92802 0
M  V30 1685 C 163.058 -1.40589 0.820889 0
M  V30 1686 O 164.247 -1.40631 1.09933 0
M  V30 1687 C 161.347 -2.60837 2.16373 0
M  V30 1688 C 160.52 -2.6551 3.47596 0
M  V30 1689 C 159.579 -3.8376 3.60021 0
M  V30 1690 O 158.605 -3.69859 4.32658 0
M  V30 1691 N 159.807 -5.00127 2.94709 0
M  V30 1692 H 162.572 -0.932236 2.84832 0
M  V30 1693 H 160.133 -0.363268 1.57772 0
M  V30 1694 H 162.125 -3.38407 2.21952 0
M  V30 1695 H 160.695 -2.83948 1.30738 0
M  V30 1696 H 159.915 -1.74052 3.53694 0
M  V30 1697 H 161.203 -2.65641 4.33949 0
M  V30 1698 H 160.601 -5.14322 2.35563 0
M  V30 1699 H 159.158 -5.75567 3.05886 0
M  V30 1700 N 162.591 -1.51276 -0.441967 0
M  V30 1701 C 163.839 -1.63392 -1.18943 0
M  V30 1702 C 164.16 -0.350159 -1.9183 0
M  V30 1703 O 163.43 0.633784 -1.85364 0
M  V30 1704 H 162.01 -0.602164 -0.442049 0
M  V30 1705 H 164.672 -1.88186 -0.507165 0
M  V30 1706 H 163.768 -2.45934 -1.92154 0
M  V30 1707 N 164.069 0.697108 -1.41344 0
M  V30 1708 C 164.979 1.84088 -1.45427 0
M  V30 1709 C 165.995 1.70545 -0.34501 0
M  V30 1710 O 167.171 1.92488 -0.592492 0
M  V30 1711 C 164.236 3.20056 -1.33286 0
M  V30 1712 C 163.297 3.45718 -2.54514 0
M  V30 1713 C 162.53 4.75199 -2.42944 0
M  V30 1714 O 162.753 5.51579 -1.45318 0
M  V30 1715 O 161.687 5.0161 -3.32672 0
M  V30 1716 H 165.513 1.836 -2.41919 0
M  V30 1717 H 163.098 0.849966 -1.22866 0
M  V30 1718 H 164.98 4.01236 -1.28794 0
M  V30 1719 H 163.655 3.2123 -0.39909 0
M  V30 1720 H 162.562 2.64474 -2.64583 0
M  V30 1721 H 163.895 3.49356 -3.46715 0
M  V30 1722 N 165.547 1.27147 0.931209 0
M  V30 1723 C 166.494 1.09568 2.03134 0
M  V30 1724 C 167.464 -0.00222433 1.661 0
M  V30 1725 O 168.649 0.159439 1.90133 0
M  V30 1726 C 165.789 0.745231 3.36957 0
M  V30 1727 C 164.902 1.92041 3.86968 0
M  V30 1728 C 164.037 1.51216 5.09222 0
M  V30 1729 C 163.076 2.65504 5.5152 0
M  V30 1730 N 162.213 2.25291 6.64972 0
M  V30 1731 H 167.053 2.03708 2.17502 0
M  V30 1732 H 164.59 1.01411 1.06556 0
M  V30 1733 H 166.548 0.522878 4.1391 0
M  V30 1734 H 165.178 -0.159202 3.22407 0
M  V30 1735 H 164.23 2.25541 3.06326 0
M  V30 1736 H 165.542 2.77787 4.1429 0
M  V30 1737 H 164.696 1.25084 5.93666 0
M  V30 1738 H 163.435 0.625749 4.83669 0
M  V30 1739 H 162.44 2.92354 4.65628 0
M  V30 1740 H 163.665 3.54761 5.7907 0
M  V30 1741 H 161.611 1.39098 6.41083 0
M  V30 1742 H 161.528 3.04577 6.91931 0
M  V30 1743 H 162.796 2.02398 7.52765 0
M  V30 1744 N 167.025 -1.13721 1.09112 0
M  V30 1745 C 168.274 -1.84275 0.82009 0
M  V30 1746 C 168.587 -1.84253 -0.656509 0
M  V30 1747 O 169.793 -2.50668 -1.04296 0
M  V30 1748 C 168.249 -3.30825 1.41714 0
M  V30 1749 C 167.857 -3.39244 2.92605 0
M  V30 1750 C 169.601 -4.06443 1.22492 0
M  V30 1751 C 167.508 -4.80047 3.45411 0
M  V30 1752 H 166.438 -0.690387 0.30312 0
M  V30 1753 H 169.089 -1.28146 1.31343 0
M  V30 1754 H 167.471 -3.86737 0.851498 0
M  V30 1755 H 168.645 -2.93344 3.55367 0
M  V30 1756 H 166.96 -2.77088 3.10823 0
M  V30 1757 H 169.557 -5.10387 1.59402 0
M  V30 1758 H 169.9 -4.15972 0.165299 0
M  V30 1759 H 170.433 -3.56852 1.75788 0
M  V30 1760 H 167.172 -4.75709 4.50978 0
M  V30 1761 H 166.692 -5.26455 2.87411 0
M  V30 1762 H 168.371 -5.48957 3.42425 0
M  V30 1763 N 168.503 -0.877838 -1.30888 0
M  V30 1764 C 169.453 -0.310872 -2.25871 0
M  V30 1765 C 170.437 0.556596 -1.50966 0
M  V30 1766 O 171.629 0.402187 -1.7237 0
M  V30 1767 C 168.758 0.479821 -3.3993 0
M  V30 1768 C 167.844 -0.401333 -4.22197 0
M  V30 1769 N 168.235 -1.49848 -4.83093 0
M  V30 1770 C 166.533 -0.195167 -4.45573 0
M  V30 1771 C 167.234 -2.0425 -5.44662 0
M  V30 1772 N 166.21 -1.33843 -5.26865 0
M  V30 1773 H 170.012 -1.1493 -2.70496 0
M  V30 1774 H 167.526 -0.726458 -1.45246 0
M  V30 1775 H 169.523 0.902582 -4.07012 0
M  V30 1776 H 168.183 1.31577 -2.96846 0
M  V30 1777 H 169.194 -1.88137 -4.82519 0
M  V30 1778 H 165.871 0.604192 -4.13105 0
M  V30 1779 H 167.261 -2.96345 -6.03017 0
M  V30 1780 N 169.982 1.44106 -0.638065 0
M  V30 1781 C 170.892 2.34513 0.0637334 0
M  V30 1782 C 171.908 1.53018 0.828346 0
M  V30 1783 O 173.084 1.85723 0.779036 0
M  V30 1784 C 170.149 3.31095 1.02844 0
M  V30 1785 C 169.21 4.28497 0.26244 0
M  V30 1786 C 168.443 5.20465 1.1812 0
M  V30 1787 O 168.666 5.16514 2.42011 0
M  V30 1788 O 167.6 5.98251 0.661774 0
M  V30 1789 H 171.426 2.95989 -0.68003 0
M  V30 1790 H 169.011 1.43994 -0.398252 0
M  V30 1791 H 170.893 3.90526 1.58327 0
M  V30 1792 H 169.568 2.72144 1.7527 0
M  V30 1793 H 168.475 3.72592 -0.335602 0
M  V30 1794 H 169.808 4.90388 -0.421936 0
M  V30 1795 N 171.46 0.379036 1.52974 0
M  V30 1796 C 172.737 -0.263479 1.93817 0
M  V30 1797 C 173.117 -1.65244 1.31368 0
M  V30 1798 O 172.465 -2.23448 0.477856 0
M  V30 1799 C 172.675 -0.300166 3.47707 0
M  V30 1800 C 174.023 -0.534061 4.21228 0
M  V30 1801 O 175.047 -0.38081 3.54159 0
M  V30 1802 O 173.906 -0.833501 5.40106 0
M  V30 1803 H 171 -0.161149 0.811147 0
M  V30 1804 H 173.546 0.432798 1.64088 0
M  V30 1805 H 172.318 0.673138 3.85467 0
M  V30 1806 H 171.941 -1.04179 3.83709 0
M  V30 1807 N 172.938 -1.57226 0.108567 0
M  V30 1808 C 174.187 -1.94008 -0.551703 0
M  V30 1809 C 174.5 -0.993442 -1.68494 0
M  V30 1810 O 175.706 -1.25551 -2.40726 0
M  V30 1811 C 174.162 -3.44763 -1.03279 0
M  V30 1812 C 173.77 -4.47943 0.0714193 0
M  V30 1813 C 175.514 -3.90483 -1.66503 0
M  V30 1814 C 173.421 -5.89865 -0.425779 0
M  V30 1815 H 172.351 -0.724206 -0.209863 0
M  V30 1816 H 175.002 -1.82547 0.186741 0
M  V30 1817 H 173.384 -3.51422 -1.82533 0
M  V30 1818 H 174.558 -4.52942 0.847365 0
M  V30 1819 H 172.873 -4.11913 0.609669 0
M  V30 1820 H 175.47 -4.93925 -2.04798 0
M  V30 1821 H 175.813 -3.29877 -2.53942 0
M  V30 1822 H 176.346 -3.86581 -0.938074 0
M  V30 1823 H 173.085 -6.54202 0.412316 0
M  V30 1824 H 172.605 -5.88309 -1.16843 0
M  V30 1825 H 174.284 -6.40844 -0.890397 0
M  V30 1826 N 174.416 0.165178 -1.56732 0
M  V30 1827 C 175.663 0.880807 -1.8234 0
M  V30 1828 C 175.991 1.81977 -0.686621 0
M  V30 1829 O 175.246 1.92971 0.325697 0
M  V30 1830 C 175.545 1.70405 -3.1416 0
M  V30 1831 C 175.211 0.913475 -4.4155 0
M  V30 1832 C 173.873 0.695303 -4.7615 0
M  V30 1833 C 176.225 0.359349 -5.1996 0
M  V30 1834 C 173.553 -0.0879947 -5.86634 0
M  V30 1835 C 175.905 -0.410893 -6.31264 0
M  V30 1836 C 174.569 -0.639808 -6.64427 0
M  V30 1837 H 173.839 0.32231 -0.667231 0
M  V30 1838 H 176.486 0.145402 -1.90947 0
M  V30 1839 H 174.791 2.50903 -3.00923 0
M  V30 1840 H 176.488 2.26091 -3.31186 0
M  V30 1841 H 173.078 1.09357 -4.14414 0
M  V30 1842 H 177.262 0.515228 -4.93618 0
M  V30 1843 H 172.518 -0.27503 -6.10781 0
M  V30 1844 H 176.692 -0.847494 -6.91224 0
M  V30 1845 H 174.319 -1.24864 -7.49875 0
M  V30 1846 N 175.894 1.51508 0.433938 0
M  V30 1847 C 177.171 1.54888 1.19453 0
M  V30 1848 C 177.551 0.315154 2.08734 0
M  V30 1849 O 176.899 -0.699558 2.17528 0
M  V30 1850 C 177.109 2.86467 1.99342 0
M  V30 1851 C 178.457 3.38545 2.56267 0
M  V30 1852 O 179.481 2.88041 2.0955 0
M  V30 1853 O 178.34 4.26675 3.41483 0
M  V30 1854 H 175.434 0.622863 0.544032 0
M  V30 1855 H 177.98 1.63823 0.442732 0
M  V30 1856 H 176.752 3.67718 1.33788 0
M  V30 1857 H 176.375 2.8071 2.8158 0
M  V30 1858 N 177.372 -0.689602 1.41712 0
M  V30 1859 C 178.621 -1.44534 1.40686 0
M  V30 1860 C 178.934 -1.95588 0.0213352 0
M  V30 1861 O 180.14 -2.71271 -0.111534 0
M  V30 1862 C 178.596 -2.61387 2.47396 0
M  V30 1863 C 178.204 -2.17094 3.91885 0
M  V30 1864 C 179.948 -3.38986 2.55517 0
M  V30 1865 C 177.855 -3.3094 4.90135 0
M  V30 1866 H 176.785 -0.542925 0.52321 0
M  V30 1867 H 179.436 -0.748054 1.6756 0
M  V30 1868 H 177.818 -3.33412 2.13664 0
M  V30 1869 H 178.992 -1.52318 4.34897 0
M  V30 1870 H 177.307 -1.52473 3.8748 0
M  V30 1871 H 179.904 -4.23747 3.26102 0
M  V30 1872 H 180.247 -3.84578 1.59391 0
M  V30 1873 H 180.78 -2.74021 2.8837 0
M  V30 1874 H 177.519 -2.90355 5.87685 0
M  V30 1875 H 177.039 -3.94546 4.51767 0
M  V30 1876 H 178.718 -3.9663 5.11169 0
M  V30 1877 N 178.85 -1.27639 -0.924453 0
M  V30 1878 C 180.099 -1.13549 -1.66702 0
M  V30 1879 C 180.412 0.317487 -1.93006 0
M  V30 1880 O 181.618 0.579333 -2.65247 0
M  V30 1881 C 180.074 -1.98426 -3.00259 0
M  V30 1882 C 179.682 -3.484 -2.81641 0
M  V30 1883 C 181.426 -1.92993 -3.78092 0
M  V30 1884 C 179.333 -4.25464 -4.10773 0
M  V30 1885 H 178.263 -0.421351 -0.625283 0
M  V30 1886 H 180.914 -1.52085 -1.02676 0
M  V30 1887 H 179.296 -1.52736 -3.6536 0
M  V30 1888 H 180.47 -4.01973 -2.25287 0
M  V30 1889 H 178.785 -3.55245 -2.17232 0
M  V30 1890 H 181.382 -2.47844 -4.7379 0
M  V30 1891 H 181.725 -0.904281 -4.0636 0
M  V30 1892 H 182.258 -2.36595 -3.19793 0
M  V30 1893 H 178.997 -5.28566 -3.87683 0
M  V30 1894 H 178.517 -3.76667 -4.66779 0
M  V30 1895 H 180.196 -4.34812 -4.79111 0
M  V30 1896 N 180.328 1.1314 -1.09713 0
M  V30 1897 C 181.605 1.80762 -0.747302 0
M  V30 1898 C 181.985 1.96663 0.767265 0
M  V30 1899 O 181.333 1.53706 1.69076 0
M  V30 1900 C 181.543 3.15606 -1.48975 0
M  V30 1901 C 182.891 3.90914 -1.65746 0
M  V30 1902 O 183.915 3.25239 -1.45251 0
M  V30 1903 O 182.774 5.08718 -1.9967 0
M  V30 1904 H 179.868 0.782103 -0.268782 0
M  V30 1905 H 182.414 1.20041 -1.19951 0
M  V30 1906 H 181.186 2.99278 -2.52088 0
M  V30 1907 H 180.809 3.84029 -1.02991 0
M  V30 1908 N 181.806 0.884767 1.30421 0
M  V30 1909 C 183.222 0.57874 1.48737 0
M  V30 1910 C 183.422 -0.883567 1.81095 0
M  V30 1911 O 182.478 -1.6648 1.89844 0
M  V30 1912 C 183.791 1.49171 2.61091 0
M  V30 1913 C 185.339 1.49532 2.74971 0
M  V30 1914 C 185.814 2.39421 3.90438 0
M  V30 1915 N 187.305 2.37383 3.97748 0
M  V30 1916 C 188.04 3.03647 4.86401 0
M  V30 1917 N 187.536 3.79136 5.79852 0
M  V30 1918 N 189.329 2.9288 4.79768 0
M  V30 1919 H 181.48 1.83075 1.0769 0
M  V30 1920 H 183.743 0.783637 0.533495 0
M  V30 1921 H 183.449 2.53291 2.44001 0
M  V30 1922 H 183.323 1.20113 3.57565 0
M  V30 1923 H 185.71 0.46163 2.91467 0
M  V30 1924 H 185.791 1.8262 1.79119 0
M  V30 1925 H 185.435 3.42874 3.74699 0
M  V30 1926 H 185.365 2.03649 4.85628 0
M  V30 1927 H 187.856 1.82525 3.30897 0
M  V30 1928 H 188.169 4.26789 6.4426 0
M  V30 1929 H 186.514 3.83243 5.79784 0
M  V30 1930 H 189.705 2.33433 4.05742 0
M  V30 1931 H 189.878 3.448 5.4865 0
M  V30 1932 N 183.284 -1.43765 0.645699 0
M  V30 1933 C 184.194 -2.34544 -0.0512957 0
M  V30 1934 C 185.21 -1.53455 -0.82022 0
M  V30 1935 O 186.386 -1.86133 -0.769176 0
M  V30 1936 C 183.451 -3.31636 -1.01087 0
M  V30 1937 C 182.512 -4.2863 -0.239712 0
M  V30 1938 C 181.745 -5.21084 -1.15358 0
M  V30 1939 O 181.968 -5.1779 -2.39269 0
M  V30 1940 O 180.902 -5.98593 -0.630038 0
M  V30 1941 H 184.728 -2.95624 0.695718 0
M  V30 1942 H 182.313 -1.43781 0.405882 0
M  V30 1943 H 184.195 -3.9136 -1.56254 0
M  V30 1944 H 182.87 -2.73069 -1.73824 0
M  V30 1945 H 181.777 -3.72408 0.355356 0
M  V30 1946 H 183.11 -4.90157 0.447936 0
M  V30 1947 N 184.763 -0.387143 -1.52771 0
M  V30 1948 C 185.726 0.436939 -2.24997 0
M  V30 1949 C 186.726 0.991991 -1.26555 0
M  V30 1950 O 187.916 0.874335 -1.50669 0
M  V30 1951 C 185.048 1.61281 -3.00335 0
M  V30 1952 H 186.241 -0.195365 -2.99263 0
M  V30 1953 H 183.794 -0.139218 -1.55679 0
M  V30 1954 H 184.529 2.2826 -2.30364 0
M  V30 1955 H 184.314 1.22154 -3.72587 0
M  V30 1956 H 185.804 2.19629 -3.5518 0
M  V30 1957 N 186.241 1.57166 -0.116904 0
M  V30 1958 C 187.518 1.86645 0.585049 0
M  V30 1959 C 187.898 1.0177 1.84949 0
M  V30 1960 O 187.246 0.0960379 2.28298 0
M  V30 1961 C 187.456 3.37736 0.879507 0
M  V30 1962 C 188.804 4.06289 1.23348 0
M  V30 1963 O 189.828 3.42743 0.969836 0
M  V30 1964 O 188.687 5.18455 1.7282 0
M  V30 1965 H 185.781 0.772593 0.295007 0
M  V30 1966 H 188.327 1.69025 -0.151249 0
M  V30 1967 H 187.099 3.91296 -0.0166136 0
M  V30 1968 H 186.722 3.6078 1.67103 0
M  V30 1969 N 187.719 -0.156864 1.56817 0
M  V30 1970 C 188.967 -0.869404 1.82444 0
M  V30 1971 C 189.288 -1.82147 0.69623 0
M  V30 1972 O 188.558 -1.93847 -0.28287 0
M  V30 1973 H 187.138 -0.324043 0.673056 0
M  V30 1974 H 189.8 -0.153224 1.94297 0
M  V30 1975 H 188.896 -1.43761 2.77019 0
M  V30 1976 N 189.197 -1.51736 -0.425897 0
M  V30 1977 C 190.422 -1.69082 -1.20108 0
M  V30 1978 C 190.847 -0.392398 -1.83962 0
M  V30 1979 O 190.205 0.64858 -1.69302 0
M  V30 1980 C 190.253 -2.81604 -2.25237 0
M  V30 1981 O 189.357 -2.46004 -3.30992 0
M  V30 1982 H 188.698 -0.563408 -0.35138 0
M  V30 1983 H 191.228 -1.98358 -0.501512 0
M  V30 1984 H 191.238 -3.06025 -2.69838 0
M  V30 1985 H 189.913 -3.75817 -1.78142 0
M  V30 1986 H 188.49 -2.32195 -2.91787 0
M  V30 1987 N 190.675 0.682077 -1.42076 0
M  V30 1988 C 191.952 1.43755 -1.32642 0
M  V30 1989 C 192.332 2.11063 0.0396611 0
M  V30 1990 O 191.68 2.02701 1.05474 0
M  V30 1991 C 191.89 2.44596 -2.48946 0
M  V30 1992 C 193.238 3.09454 -2.9073 0
M  V30 1993 O 194.262 2.54922 -2.48783 0
M  V30 1994 O 193.121 4.08253 -3.63307 0
M  V30 1995 H 190.215 0.640857 -0.522715 0
M  V30 1996 H 192.761 0.711415 -1.54068 0
M  V30 1997 H 191.533 1.93609 -3.40046 0
M  V30 1998 H 191.156 3.24701 -2.29467 0
M  V30 1999 N 192.153 1.28127 0.917671 0
M  V30 2000 C 193.378 1.18007 1.70555 0
M  V30 2001 C 193.803 -0.258257 1.86319 0
M  V30 2002 O 193.161 -1.1869 1.37049 0
M  V30 2003 C 193.209 1.87948 3.07746 0
M  V30 2004 O 192.313 1.18427 3.9503 0
M  V30 2005 H 191.654 0.409867 0.522403 0
M  V30 2006 H 194.184 1.69379 1.1477 0
M  V30 2007 H 194.194 1.95701 3.58001 0
M  V30 2008 H 192.869 2.92573 2.95591 0
M  V30 2009 H 191.446 1.18811 3.53466 0
M  V30 2010 N 193.631 -1.12557 1.10312 0
M  V30 2011 C 194.561 -2.20341 0.772798 0
M  V30 2012 C 195.542 -1.68198 -0.25365 0
M  V30 2013 O 196.727 -1.93831 -0.119699 0
M  V30 2014 C 193.857 -3.46709 0.202443 0
M  V30 2015 C 192.811 -4.11996 1.15943 0
M  V30 2016 C 192.137 -5.328 0.450345 0
M  V30 2017 C 193.437 -4.5828 2.50552 0
M  V30 2018 H 195.131 -2.48229 1.674 0
M  V30 2019 H 192.677 -1.19308 0.806326 0
M  V30 2020 H 194.63 -4.2138 -0.0407752 0
M  V30 2021 H 193.354 -3.18245 -0.734001 0
M  V30 2022 H 192.013 -3.39305 1.38808 0
M  V30 2023 H 191.661 -5.00602 -0.490531 0
M  V30 2024 H 191.361 -5.7743 1.08851 0
M  V30 2025 H 192.885 -6.10219 0.215642 0
M  V30 2026 H 194.299 -5.2433 2.31843 0
M  V30 2027 H 192.696 -5.13683 3.10242 0
M  V30 2028 H 193.766 -3.72329 3.10643 0
M  V30 2029 N 195.109 -0.891671 -1.2995 0
M  V30 2030 C 196.019 -0.367691 -2.31701 0
M  V30 2031 C 197.035 0.533486 -1.6562 0
M  V30 2032 O 198.211 0.424997 -1.96865 0
M  V30 2033 C 195.276 0.403406 -3.44345 0
M  V30 2034 C 194.337 -0.528328 -4.26037 0
M  V30 2035 C 193.57 0.206063 -5.33302 0
M  V30 2036 O 193.793 1.43119 -5.52153 0
M  V30 2037 O 192.727 -0.447281 -6.00236 0
M  V30 2038 H 196.553 -1.21163 -2.78484 0
M  V30 2039 H 194.138 -0.655725 -1.34241 0
M  V30 2040 H 196.02 0.839753 -4.12948 0
M  V30 2041 H 194.695 1.22354 -2.99685 0
M  V30 2042 H 193.602 -1.01362 -3.60106 0
M  V30 2043 H 194.935 -1.31465 -4.74318 0
M  V30 2044 N 196.587 1.43421 -0.653314 0
M  V30 2045 C 197.835 2.01414 -0.166415 0
M  V30 2046 C 198.156 1.51803 1.22397 0
M  V30 2047 O 197.426 0.730693 1.81763 0
M  V30 2048 H 196.006 0.744703 -0.0585319 0
M  V30 2049 H 198.668 1.75629 -0.845003 0
M  V30 2050 H 197.764 3.11734 -0.151111 0
M  V30 2051 N 198.065 0.39524 1.52563 0
M  V30 2052 C 199.312 -0.185044 2.01653 0
M  V30 2053 C 199.64 -1.46317 1.28146 0
M  V30 2054 O 198.895 -1.9213 0.372074 0
M  V30 2055 C 199.194 -0.493444 3.53977 0
M  V30 2056 C 198.86 0.69384 4.4553 0
M  V30 2057 C 197.522 1.01954 4.70275 0
M  V30 2058 C 199.874 1.48785 4.99512 0
M  V30 2059 C 197.202 2.14069 5.46252 0
M  V30 2060 C 199.554 2.59965 5.76716 0
M  V30 2061 C 198.218 2.93037 5.99738 0
M  V30 2062 H 197.488 -0.0677123 0.7379 0
M  V30 2063 H 200.135 0.533807 1.8391 0
M  V30 2064 H 198.44 -1.29369 3.69825 0
M  V30 2065 H 200.137 -0.955163 3.89458 0
M  V30 2066 H 196.727 0.429987 4.26438 0
M  V30 2067 H 200.911 1.24946 4.80315 0
M  V30 2068 H 196.167 2.40056 5.62302 0
M  V30 2069 H 200.341 3.21887 6.17545 0
M  V30 2070 H 197.968 3.8003 6.58393 0
M  V30 2071 N 199.544 -1.57102 0.125237 0
M  V30 2072 C 200.79 -1.95697 -0.532035 0
M  V30 2073 C 201.123 -1.009 -1.6593 0
M  V30 2074 O 200.398 -0.047347 -1.94442 0
M  V30 2075 C 200.681 -3.44181 -1.05884 0
M  V30 2076 C 200.534 -4.49752 0.0654392 0
M  V30 2077 C 201.853 -3.94655 -1.9477 0
M  V30 2078 H 198.972 -0.711571 -0.191925 0
M  V30 2079 H 201.614 -1.88923 0.20206 0
M  V30 2080 H 199.764 -3.50085 -1.68442 0
M  V30 2081 H 201.436 -4.55943 0.700982 0
M  V30 2082 H 199.679 -4.27653 0.727709 0
M  V30 2083 H 200.35 -5.50924 -0.344505 0
M  V30 2084 H 202.826 -3.91094 -1.42074 0
M  V30 2085 H 201.702 -4.99057 -2.28546 0
M  V30 2086 H 201.963 -3.35718 -2.87656 0
M  V30 2087 N 201.022 0.148545 -1.56898 0
M  V30 2088 C 201.952 1.18524 -2.01182 0
M  V30 2089 C 202.933 1.4489 -0.891123 0
M  V30 2090 O 204.118 1.55836 -1.15882 0
M  V30 2091 C 201.248 2.51879 -2.39112 0
M  V30 2092 C 200.202 2.40038 -3.54353 0
M  V30 2093 C 199.528 3.78089 -3.78091 0
M  V30 2094 C 200.828 1.88577 -4.87069 0
M  V30 2095 H 202.522 0.817029 -2.88036 0
M  V30 2096 H 200.068 0.391575 -1.38574 0
M  V30 2097 H 202.021 3.24627 -2.68692 0
M  V30 2098 H 200.745 2.90532 -1.49193 0
M  V30 2099 H 199.404 1.69742 -3.24936 0
M  V30 2100 H 199.052 4.14175 -2.85426 0
M  V30 2101 H 198.752 3.71028 -4.55645 0
M  V30 2102 H 200.276 4.52387 -4.10095 0
M  V30 2103 H 201.69 2.51117 -5.15377 0
M  V30 2104 H 200.087 1.9241 -5.68417 0
M  V30 2105 H 201.157 0.84136 -4.77545 0
M  V30 2106 N 202.5 1.5196 0.417844 0
M  V30 2107 C 203.74 1.67262 1.17486 0
M  V30 2108 C 204.104 0.38983 1.88001 0
M  V30 2109 O 205.305 0.418845 2.65517 0
M  V30 2110 C 203.576 2.85526 2.14965 0
M  V30 2111 S 205.135 3.21263 2.98891 0
M  V30 2112 H 201.953 0.589077 0.398132 0
M  V30 2113 H 204.555 1.89927 0.463452 0
M  V30 2114 H 203.259 3.77145 1.61833 0
M  V30 2115 H 202.79 2.65107 2.90657 0
M  V30 2116 H 204.805 2.69208 4.16823 0
M  V30 2117 N 203.978 -0.674533 1.42435 0
M  V30 2118 C 204.928 -1.7807 1.4239 0
M  V30 2119 C 205.912 -1.58169 0.295202 0
M  V30 2120 O 207.104 -1.68643 0.537449 0
M  V30 2121 C 204.233 -3.16532 1.32901 0
M  V30 2122 C 203.319 -3.42055 2.50717 0
M  V30 2123 N 203.71 -3.38162 3.76139 0
M  V30 2124 C 202.008 -3.72692 2.44983 0
M  V30 2125 C 202.709 -3.63177 4.54398 0
M  V30 2126 N 201.685 -3.83954 3.84812 0
M  V30 2127 H 205.487 -1.73454 2.37257 0
M  V30 2128 H 203.001 -0.875381 1.36788 0
M  V30 2129 H 204.998 -3.958 1.30951 0
M  V30 2130 H 203.658 -3.22345 0.390363 0
M  V30 2131 H 204.669 -3.18057 4.0873 0
M  V30 2132 H 201.346 -3.85749 1.59699 0
M  V30 2133 H 202.736 -3.66125 5.63384 0
M  V30 2134 N 205.456 -1.28612 -0.910864 0
M  V30 2135 C 206.681 -1.1891 -1.69927 0
M  V30 2136 C 207.106 0.248372 -1.86453 0
M  V30 2137 O 206.464 1.17961 -1.37676 0
M  V30 2138 C 206.512 -1.89578 -3.06745 0
M  V30 2139 O 205.616 -1.20521 -3.94396 0
M  V30 2140 H 204.957 -0.412632 -0.520222 0
M  V30 2141 H 207.487 -1.69985 -1.1387 0
M  V30 2142 H 207.497 -1.97597 -3.56958 0
M  V30 2143 H 206.172 -2.94136 -2.94035 0
M  V30 2144 H 204.749 -1.20684 -3.52831 0
M  V30 2145 N 206.934 1.1197 -1.10907 0
M  V30 2146 C 208.183 1.82947 -0.849302 0
M  V30 2147 C 208.496 1.85275 0.627112 0
M  V30 2148 O 209.702 2.52296 1.00295 0
M  V30 2149 C 208.158 3.28529 -1.46959 0
M  V30 2150 C 207.766 3.34546 -2.97965 0
M  V30 2151 C 209.51 4.04443 -1.28942 0
M  V30 2152 C 207.417 4.74491 -3.53004 0
M  V30 2153 H 206.347 0.685477 -0.314065 0
M  V30 2154 H 208.998 1.2604 -1.33365 0
M  V30 2155 H 207.38 3.85333 -0.912917 0
M  V30 2156 H 208.554 2.87654 -3.59989 0
M  V30 2157 H 206.869 2.72108 -3.15192 0
M  V30 2158 H 209.466 5.07787 -1.67502 0
M  V30 2159 H 209.809 4.15656 -0.231456 0
M  V30 2160 H 210.342 3.5401 -1.81443 0
M  V30 2161 H 207.081 4.68474 -4.58489 0
M  V30 2162 H 206.601 5.21816 -2.9575 0
M  V30 2163 H 208.28 5.4344 -3.51115 0
M  V30 2164 N 208.412 0.89855 1.29475 0
M  V30 2165 C 209.375 0.380272 2.26023 0
M  V30 2166 C 210.375 -0.484891 1.53315 0
M  V30 2167 O 211.565 -0.290108 1.71767 0
M  V30 2168 C 208.697 -0.45651 3.3783 0
M  V30 2169 H 209.89 1.23295 2.73383 0
M  V30 2170 H 207.443 0.676589 1.40897 0
M  V30 2171 H 208.178 -1.32922 2.95808 0
M  V30 2172 H 207.963 0.163393 3.91759 0
M  V30 2173 H 209.453 -0.810466 4.0966 0
M  V30 2174 N 209.89 -1.43072 0.660911 0
M  V30 2175 C 211.138 -2.01323 0.177094 0
M  V30 2176 C 211.459 -1.5245 -1.2159 0
M  V30 2177 O 210.729 -0.740322 -1.81373 0
M  V30 2178 H 209.309 -0.744382 0.0624804 0
M  V30 2179 H 211.971 -1.75179 0.854305 0
M  V30 2180 H 211.067 -3.11649 0.167641 0
M  V30 2181 N 211.368 -0.403325 -1.52352 0
M  V30 2182 C 212.616 0.174003 -2.0135 0
M  V30 2183 C 212.937 1.46139 -1.29106 0
M  V30 2184 O 212.207 1.91448 -0.415253 0
M  V30 2185 H 210.787 0.0672911 -0.743963 0
M  V30 2186 H 213.449 -0.538235 -1.87321 0
M  V30 2187 H 212.545 0.374254 -3.09848 0
M  V30 2188 N 212.846 1.57033 -0.133567 0
M  V30 2189 C 214.074 2.00044 0.528195 0
M  V30 2190 C 214.489 1.01349 1.59291 0
M  V30 2191 O 213.846 0.00848369 1.82498 0
M  V30 2192 C 213.897 3.43018 1.1411 0
M  V30 2193 O 213.618 4.37939 0.11892 0
M  V30 2194 C 215.119 4.01237 1.88477 0
M  V30 2195 H 212.339 0.656517 0.138661 0
M  V30 2196 H 214.883 2.03267 -0.224196 0
M  V30 2197 H 213.038 3.40688 1.84418 0
M  V30 2198 H 213.452 5.21436 0.56613 0
M  V30 2199 H 214.926 5.03314 2.26669 0
M  V30 2200 H 215.403 3.41193 2.76558 0
M  V30 2201 H 216.009 4.07156 1.22898 0
M  V30 2202 N 214.325 -0.140222 1.56975 0
M  V30 2203 C 215.573 -0.850005 1.83356 0
M  V30 2204 C 215.894 -1.81399 0.71551 0
M  V30 2205 O 215.164 -1.94136 -0.262294 0
M  V30 2206 H 213.744 -0.316886 0.676456 0
M  V30 2207 H 216.406 -0.132608 1.94448 0
M  V30 2208 H 215.502 -1.40814 2.78528 0
M  V30 2209 N 215.803 -1.52179 -0.40978 0
M  V30 2210 C 217.028 -1.70347 -1.18308 0
M  V30 2211 C 217.453 -0.411887 -1.83535 0
M  V30 2212 O 216.811 0.630587 -1.6998 0
M  V30 2213 C 216.859 -2.83977 -2.22238 0
M  V30 2214 O 215.963 -2.495 -3.28365 0
M  V30 2215 H 215.304 -0.567103 -0.345384 0
M  V30 2216 H 217.834 -1.98879 -0.480445 0
M  V30 2217 H 217.844 -3.0887 -2.66577 0
M  V30 2218 H 216.519 -3.77685 -1.74146 0
M  V30 2219 H 215.096 -2.35277 -2.89308 0
M  V30 2220 N 217.281 0.66697 -1.42791 0
M  V30 2221 C 218.529 1.42417 -1.43394 0
M  V30 2222 C 218.85 1.94925 -0.0542373 0
M  V30 2223 O 218.12 1.73564 0.908415 0
M  V30 2224 H 216.7 0.528515 -0.527902 0
M  V30 2225 H 219.362 0.787562 -1.78279 0
M  V30 2226 H 218.458 2.27333 -2.13837 0
M  V30 2227 N 218.759 1.29093 0.90403 0
M  V30 2228 C 219.689 1.16401 2.02418 0
M  V30 2229 C 220.67 0.0593085 1.69997 0
M  V30 2230 O 221.855 0.238021 1.92736 0
M  V30 2231 C 218.985 0.835233 3.37107 0
M  V30 2232 C 217.939 1.89578 3.83724 0
M  V30 2233 C 217.265 1.42041 5.15489 0
M  V30 2234 C 218.565 3.30394 4.04521 0
M  V30 2235 H 220.259 2.10109 2.13295 0
M  V30 2236 H 217.805 1.01157 1.02486 0
M  V30 2237 H 219.758 0.733169 4.14973 0
M  V30 2238 H 218.482 -0.137543 3.2631 0
M  V30 2239 H 217.141 1.98715 3.08071 0
M  V30 2240 H 216.789 0.436426 5.01103 0
M  V30 2241 H 216.489 2.12964 5.4765 0
M  V30 2242 H 218.013 1.33176 5.959 0
M  V30 2243 H 219.427 3.24123 4.72882 0
M  V30 2244 H 217.824 3.99237 4.48029 0
M  V30 2245 H 218.894 3.73692 3.09002 0
M  V30 2246 N 220.237 -1.11381 1.11499 0
M  V30 2247 C 221.485 -1.8277 0.862524 0
M  V30 2248 C 221.806 -1.85097 -0.613534 0
M  V30 2249 O 221.076 -1.32198 -1.4457 0
M  V30 2250 H 219.656 -0.676823 0.316101 0
M  V30 2251 H 222.318 -1.34816 1.4075 0
M  V30 2252 H 221.414 -2.86614 1.23527 0
M  V30 2253 N 221.715 -0.905404 -1.28997 0
M  V30 2254 C 222.94 -0.549175 -1.99997 0
M  V30 2255 C 223.365 0.860276 -1.67275 0
M  V30 2256 O 222.723 1.57355 -0.900502 0
M  V30 2257 C 222.771 -0.755185 -3.52604 0
M  V30 2258 O 221.875 0.189692 -4.11964 0
M  V30 2259 H 221.216 -0.213899 -0.628604 0
M  V30 2260 H 223.746 -1.21856 -1.64354 0
M  V30 2261 H 223.756 -0.662045 -4.02593 0
M  V30 2262 H 222.431 -1.78271 -3.75755 0
M  V30 2263 H 221.008 0.0485257 -3.72868 0
M  V30 2264 N 223.193 1.4272 -0.668489 0
M  V30 2265 C 224.423 2.05668 -0.196063 0
M  V30 2266 C 224.831 1.5028 1.14946 0
M  V30 2267 O 224.174 0.6348 1.72383 0
M  V30 2268 C 224.236 3.59469 -0.0468879 0
M  V30 2269 C 223.9 4.37518 -1.32012 0
M  V30 2270 C 224.897 4.68584 -2.25222 0
M  V30 2271 C 222.582 4.77266 -1.56596 0
M  V30 2272 C 224.576 5.38326 -3.41297 0
M  V30 2273 C 222.263 5.4675 -2.72962 0
M  V30 2274 C 223.261 5.77204 -3.65137 0
M  V30 2275 O 222.949 6.45264 -4.79468 0
M  V30 2276 H 222.681 0.669382 -0.0943599 0
M  V30 2277 H 225.235 1.83954 -0.913788 0
M  V30 2278 H 223.465 3.79817 0.726357 0
M  V30 2279 H 225.154 4.04071 0.384852 0
M  V30 2280 H 225.92 4.38382 -2.07477 0
M  V30 2281 H 221.799 4.52959 -0.857249 0
M  V30 2282 H 225.343 5.62014 -4.13263 0
M  V30 2283 H 221.24 5.76369 -2.90635 0
M  V30 2284 H 222.008 6.63753 -4.78931 0
M  V30 2285 N 224.671 0.411399 1.52136 0
M  V30 2286 C 225.601 -0.404015 2.29978 0
M  V30 2287 C 226.582 -1.04412 1.34284 0
M  V30 2288 O 227.767 -1.0527 1.63192 0
M  V30 2289 C 224.897 -1.5197 3.12286 0
M  V30 2290 C 223.851 -1.00448 4.16046 0
M  V30 2291 C 223.177 -2.21393 4.86712 0
M  V30 2292 C 224.477 -0.0569336 5.22269 0
M  V30 2293 H 226.171 0.245529 2.98392 0
M  V30 2294 H 223.717 0.119525 1.43503 0
M  V30 2295 H 225.67 -2.09715 3.6551 0
M  V30 2296 H 224.394 -2.19716 2.41646 0
M  V30 2297 H 223.053 -0.449421 3.63835 0
M  V30 2298 H 222.701 -2.87699 4.12599 0
M  V30 2299 H 222.401 -1.87571 5.56858 0
M  V30 2300 H 223.925 -2.7974 5.4275 0
M  V30 2301 H 225.339 -0.54325 5.7072 0
M  V30 2302 H 223.736 0.192594 5.99791 0
M  V30 2303 H 224.806 0.887663 4.76706 0
M  V30 2304 N 226.149 -1.5696 0.141893 0
M  V30 2305 C 227.079 -2.19516 -0.795936 0
M  V30 2306 C 228.06 -1.14187 -1.26077 0
M  V30 2307 O 229.245 -1.42511 -1.31925 0
M  V30 2308 C 226.375 -2.81272 -2.03723 0
M  V30 2309 C 225.329 -3.92384 -1.70936 0
M  V30 2310 C 224.655 -4.41052 -3.02287 0
M  V30 2311 C 225.955 -5.13403 -0.959954 0
M  V30 2312 H 227.649 -2.98138 -0.274596 0
M  V30 2313 H 225.195 -1.43406 -0.130636 0
M  V30 2314 H 227.148 -3.237 -2.69808 0
M  V30 2315 H 225.872 -1.99973 -2.58221 0
M  V30 2316 H 224.531 -3.50566 -1.07232 0
M  V30 2317 H 224.179 -3.56582 -3.54765 0
M  V30 2318 H 223.879 -5.15993 -2.81114 0
M  V30 2319 H 225.403 -4.86146 -3.69451 0
M  V30 2320 H 226.817 -5.52706 -1.52279 0
M  V30 2321 H 225.214 -5.94073 -0.848357 0
M  V30 2322 H 226.284 -4.84875 0.0492434 0
M  V30 2323 N 227.627 0.131896 -1.57047 0
M  V30 2324 C 228.537 1.1815 -2.02676 0
M  V30 2325 C 229.553 1.46113 -0.944824 0
M  V30 2326 O 230.729 1.57485 -1.25541 0
M  V30 2327 C 227.794 2.49139 -2.41103 0
M  V30 2328 C 226.855 2.28688 -3.63318 0
M  V30 2329 C 226.088 3.53431 -3.99903 0
M  V30 2330 O 226.311 4.60223 -3.36973 0
M  V30 2331 O 225.245 3.45198 -4.93074 0
M  V30 2332 H 229.071 0.824069 -2.92306 0
M  V30 2333 H 226.656 0.341745 -1.45439 0
M  V30 2334 H 228.538 3.26338 -2.66611 0
M  V30 2335 H 227.213 2.84382 -1.54624 0
M  V30 2336 H 226.12 1.4939 -3.42977 0
M  V30 2337 H 227.453 1.98355 -4.50462 0
M  V30 2338 N 229.106 1.52395 0.401703 0
M  V30 2339 C 230.522 1.41363 0.740864 0
M  V30 2340 C 230.722 0.523982 1.94568 0
M  V30 2341 O 229.778 -0.00741204 2.52499 0
M  V30 2342 C 231.091 2.84011 0.987847 0
M  V30 2343 C 232.639 2.93404 1.09011 0
M  V30 2344 C 233.114 4.37036 1.3698 0
M  V30 2345 N 234.605 4.40304 1.43829 0
M  V30 2346 C 235.34 5.48508 1.67112 0
M  V30 2347 N 234.836 6.66819 1.87949 0
M  V30 2348 N 236.629 5.36034 1.69187 0
M  V30 2349 H 228.78 2.08765 -0.391262 0
M  V30 2350 H 231.043 0.941265 -0.112798 0
M  V30 2351 H 230.749 3.51265 0.174835 0
M  V30 2352 H 230.623 3.25502 1.906 0
M  V30 2353 H 233.01 2.26325 1.8937 0
M  V30 2354 H 233.091 2.55359 0.15015 0
M  V30 2355 H 232.735 5.04676 0.571353 0
M  V30 2356 H 232.665 4.72623 2.3224 0
M  V30 2357 H 235.156 3.55024 1.29486 0
M  V30 2358 H 235.469 7.45063 2.05185 0
M  V30 2359 H 233.814 6.6987 1.85199 0
M  V30 2360 H 237.005 4.42579 1.52451 0
M  V30 2361 H 237.178 6.20434 1.86993 0
M  V30 2362 N 230.584 -0.659388 1.43143 0
M  V30 2363 C 231.514 -1.78422 1.50625 0
M  V30 2364 C 232.495 -1.66216 0.361443 0
M  V30 2365 O 233.68 -1.85404 0.577834 0
M  V30 2366 C 230.81 -3.16815 1.42287 0
M  V30 2367 C 229.764 -3.43777 2.54954 0
M  V30 2368 C 229.09 -4.81905 2.31671 0
M  V30 2369 C 230.39 -3.39134 3.97222 0
M  V30 2370 H 232.084 -1.72417 2.44771 0
M  V30 2371 H 229.63 -0.828084 1.17808 0
M  V30 2372 H 231.583 -3.95253 1.46127 0
M  V30 2373 H 230.307 -3.23534 0.446435 0
M  V30 2374 H 228.966 -2.67707 2.50457 0
M  V30 2375 H 228.614 -4.85294 1.32284 0
M  V30 2376 H 228.314 -5.00906 3.07192 0
M  V30 2377 H 229.838 -5.62609 2.37284 0
M  V30 2378 H 231.252 -4.07518 4.03239 0
M  V30 2379 H 229.649 -3.69671 4.72719 0
M  V30 2380 H 230.719 -2.37426 4.22797 0
M  V30 2381 N 232.062 -1.29571 -0.897171 0
M  V30 2382 C 233.01 -1.14802 -2.02295 0
M  V30 2383 C 234.004 -0.0629637 -1.69283 0
M  V30 2384 O 235.21 -0.222945 -1.78614 0
M  V30 2385 H 231.585 -0.354692 -0.663097 0
M  V30 2386 H 233.556 -2.10108 -2.11889 0
M  V30 2387 C 232.305 -0.843966 -3.37302 0
M  V30 2388 H 231.628 -1.67093 -3.63208 0
M  V30 2389 H 233.068 -0.780672 -4.16751 0
M  V30 2390 C 231.527 0.452843 -3.33843 0
M  V30 2391 O 232.057 1.47813 -3.73516 0
M  V30 2392 N 230.263 0.459601 -2.86943 0
M  V30 2393 H 229.81 -0.375213 -2.54853 0
M  V30 2394 H 229.768 1.32726 -2.85011 0
M  V30 2395 N 233.54 1.10788 -1.12088 0
M  V30 2396 C 234.817 1.79136 -0.785476 0
M  V30 2397 C 235.197 1.98246 0.725377 0
M  V30 2398 O 234.545 1.57258 1.65778 0
M  V30 2399 C 234.755 3.12375 -1.55636 0
M  V30 2400 C 236.103 3.8731 -1.74001 0
M  V30 2401 O 237.127 3.22085 -1.52117 0
M  V30 2402 O 235.986 5.04369 -2.10415 0
M  V30 2403 H 233.08 0.776226 -0.285311 0
M  V30 2404 H 235.626 1.1747 -1.2247 0
M  V30 2405 H 234.398 2.93863 -2.5838 0
M  V30 2406 H 234.021 3.81758 -1.11114 0
M  V30 2407 N 235.018 0.912232 1.28515 0
M  V30 2408 C 236.434 0.610159 1.47476 0
M  V30 2409 C 236.634 -0.844955 1.82928 0
M  V30 2410 O 235.69 -1.62416 1.93332 0
M  V30 2411 C 237.003 1.54675 2.57868 0
M  V30 2412 C 238.551 1.55331 2.71738 0
M  V30 2413 C 239.026 2.47649 3.85272 0
M  V30 2414 N 240.517 2.45767 3.92623 0
M  V30 2415 C 241.252 3.13896 4.79851 0
M  V30 2416 N 240.748 3.9135 5.71679 0
M  V30 2417 N 242.541 3.02991 4.73448 0
M  V30 2418 H 234.692 1.85318 1.03783 0
M  V30 2419 H 236.955 0.794777 0.516753 0
M  V30 2420 H 236.661 2.5841 2.38574 0
M  V30 2421 H 236.535 1.27671 3.54937 0
M  V30 2422 H 238.922 0.52335 2.90422 0
M  V30 2423 H 239.003 1.86378 1.75205 0
M  V30 2424 H 238.647 3.50745 3.67342 0
M  V30 2425 H 238.577 2.13904 4.81199 0
M  V30 2426 H 241.068 1.89503 3.26951 0
M  V30 2427 H 241.381 4.40359 6.35062 0
M  V30 2428 H 239.726 3.95455 5.71524 0
M  V30 2429 H 242.917 2.41987 4.007 0
M  V30 2430 H 243.09 3.5636 5.41213 0
M  V30 2431 N 236.496 -1.42363 0.676048 0
M  V30 2432 C 237.726 -2.05561 0.206967 0
M  V30 2433 C 238.134 -1.50887 -1.14148 0
M  V30 2434 O 237.477 -0.643933 -1.72044 0
M  V30 2435 C 237.539 -3.5944 0.0659508 0
M  V30 2436 C 237.203 -4.36812 1.34331 0
M  V30 2437 C 238.2 -4.67383 2.27704 0
M  V30 2438 C 235.885 -4.76429 1.59125 0
M  V30 2439 C 237.879 -5.36509 3.44147 0
M  V30 2440 C 235.566 -5.45294 2.75857 0
M  V30 2441 C 236.564 -5.75259 3.68193 0
M  V30 2442 O 236.252 -6.42712 4.82883 0
M  V30 2443 H 235.984 -0.668872 0.0979084 0
M  V30 2444 H 238.538 -1.83467 0.923531 0
M  V30 2445 H 236.768 -3.80197 -0.706204 0
M  V30 2446 H 238.457 -4.0427 -0.363418 0
M  V30 2447 H 239.223 -4.37275 2.09799 0
M  V30 2448 H 235.102 -4.52498 0.881258 0
M  V30 2449 H 238.646 -5.59814 4.16238 0
M  V30 2450 H 234.543 -5.7482 2.93688 0
M  V30 2451 H 235.311 -6.61204 4.82444 0
M  V30 2452 N 237.974 -0.419461 -1.51915 0
M  V30 2453 C 239.385 0.0477853 -1.86639 0
M  V30 2454 C 239.736 1.43531 -1.33766 0
M  V30 2455 O 238.861 2.05401 -0.68113 0
M  V30 2456 C 239.456 0.0934885 -3.38671 0
M  V30 2457 C 238.015 0.505097 -3.72996 0
M  V30 2458 C 237.162 -0.313792 -2.75519 0
M  V30 2459 H 240.113 -0.636088 -1.45395 0
M  V30 2460 H 240.134 0.906667 -3.6954 0
M  V30 2461 H 239.646 -0.916501 -3.77123 0
M  V30 2462 H 237.747 1.52135 -3.40126 0
M  V30 2463 H 237.86 0.242309 -4.78487 0
M  V30 2464 H 236.224 0.225363 -2.53701 0
M  V30 2465 H 237.007 -1.32232 -3.16812 0
M  V30 2466 N 239.452 1.56882 -0.150215 0
M  V30 2467 C 240.399 2.16922 0.788244 0
M  V30 2468 C 241.369 1.10303 1.24187 0
M  V30 2469 O 242.554 1.38359 1.31383 0
M  V30 2470 C 239.694 2.79754 2.02068 0
M  V30 2471 C 238.807 4.00775 1.61257 0
M  V30 2472 C 237.942 4.51595 2.79705 0
M  V30 2473 C 236.981 5.65074 2.35282 0
M  V30 2474 N 236.118 6.10499 3.4675 0
M  V30 2475 H 240.958 2.96779 0.269444 0
M  V30 2476 H 238.495 1.46599 0.12128 0
M  V30 2477 H 240.453 3.14329 2.74323 0
M  V30 2478 H 239.083 2.02536 2.51354 0
M  V30 2479 H 238.135 3.72158 0.787553 0
M  V30 2480 H 239.447 4.82978 1.24633 0
M  V30 2481 H 238.601 4.88242 3.60145 0
M  V30 2482 H 237.34 3.68406 3.19576 0
M  V30 2483 H 236.345 5.28 1.53283 0
M  V30 2484 H 237.57 6.50052 1.96493 0
M  V30 2485 H 235.516 5.30243 3.86236 0
M  V30 2486 H 235.433 6.87637 3.14152 0
M  V30 2487 H 236.701 6.51791 4.27537 0
M  V30 2488 N 240.93 -0.123565 1.57115 0
M  V30 2489 C 241.877 -1.15177 2.00007 0
M  V30 2490 C 242.847 -1.41403 0.871454 0
M  V30 2491 O 244.032 -1.53346 1.13533 0
M  V30 2492 C 241.172 -2.47436 2.40561 0
M  V30 2493 C 240.285 -2.28184 3.66819 0
M  V30 2494 C 239.42 -3.53641 3.96373 0
M  V30 2495 C 238.459 -3.29528 5.15827 0
M  V30 2496 N 237.596 -4.47175 5.41275 0
M  V30 2497 H 242.436 -0.779008 2.87638 0
M  V30 2498 H 239.973 -0.373166 1.42288 0
M  V30 2499 H 241.931 -3.24584 2.62109 0
M  V30 2500 H 240.561 -2.82614 1.55978 0
M  V30 2501 H 239.613 -1.41976 3.52912 0
M  V30 2502 H 240.925 -2.0634 4.5412 0
M  V30 2503 H 240.079 -4.39209 4.18545 0
M  V30 2504 H 238.818 -3.78512 3.07538 0
M  V30 2505 H 237.823 -2.42349 4.93505 0
M  V30 2506 H 239.048 -3.06031 6.06236 0
M  V30 2507 H 236.994 -4.72175 4.55397 0
M  V30 2508 H 236.911 -4.28419 6.22891 0
M  V30 2509 H 238.179 -5.3389 5.67963 0
M  V30 2510 N 242.408 -1.52605 -0.393616 0
M  V30 2511 C 243.338 -1.80022 -1.48709 0
M  V30 2512 C 244.319 -0.651995 -1.57108 0
M  V30 2513 O 245.504 -0.89913 -1.72132 0
M  V30 2514 C 242.634 -1.96492 -2.86371 0
M  V30 2515 C 241.588 -3.12161 -2.92813 0
M  V30 2516 C 240.914 -3.13877 -4.3288 0
M  V30 2517 C 242.214 -4.51322 -2.6288 0
M  V30 2518 H 243.908 -2.71589 -1.26015 0
M  V30 2519 H 241.454 -1.30684 -0.604778 0
M  V30 2520 H 243.407 -2.14255 -3.62867 0
M  V30 2521 H 242.131 -1.01611 -3.10391 0
M  V30 2522 H 240.79 -2.94173 -2.18764 0
M  V30 2523 H 240.438 -2.16687 -4.53933 0
M  V30 2524 H 240.138 -3.91576 -4.38112 0
M  V30 2525 H 241.662 -3.33789 -5.1129 0
M  V30 2526 H 243.076 -4.69435 -3.29096 0
M  V30 2527 H 241.473 -5.31053 -2.79468 0
M  V30 2528 H 242.543 -4.58353 -1.58242 0
M  V30 2529 N 243.887 0.651787 -1.4349 0
M  V30 2530 C 245.133 1.41376 -1.45398 0
M  V30 2531 C 245.466 1.94041 -0.0784823 0
M  V30 2532 O 244.741 1.72379 0.900878 0
M  V30 2533 C 245.024 2.59414 -2.49752 0
M  V30 2534 C 244.877 2.12232 -3.96582 0
M  V30 2535 C 246.196 3.61626 -2.50827 0
M  V30 2536 H 243.315 0.512719 -0.529422 0
M  V30 2537 H 245.957 0.738796 -1.75048 0
M  V30 2538 H 244.107 3.16997 -2.246 0
M  V30 2539 H 245.779 1.59639 -4.32797 0
M  V30 2540 H 244.022 1.43592 -4.09346 0
M  V30 2541 H 244.693 2.9712 -4.65214 0
M  V30 2542 H 247.169 3.13805 -2.7325 0
M  V30 2543 H 246.045 4.41766 -3.25783 0
M  V30 2544 H 246.306 4.14314 -1.5426 0
M  V30 2545 N 245.365 1.30045 0.890287 0
M  V30 2546 C 246.297 1.11786 2.00091 0
M  V30 2547 C 247.31 0.0626307 1.62679 0
M  V30 2548 O 248.499 0.308112 1.75821 0
M  V30 2549 C 245.599 0.681527 3.31977 0
M  V30 2550 C 244.772 1.81735 3.97858 0
M  V30 2551 C 243.831 1.37045 5.08041 0
M  V30 2552 O 242.857 2.07677 5.29961 0
M  V30 2553 N 244.059 0.246525 5.79976 0
M  V30 2554 H 246.824 2.07441 2.16306 0
M  V30 2555 H 244.385 1.2211 1.06305 0
M  V30 2556 H 246.377 0.365675 4.03045 0
M  V30 2557 H 244.947 -0.182828 3.12065 0
M  V30 2558 H 244.167 2.30159 3.20032 0
M  V30 2559 H 245.455 2.57865 4.38615 0
M  V30 2560 H 244.853 -0.34215 5.64664 0
M  V30 2561 H 243.41 -0.00990438 6.51799 0
M  V30 2562 N 246.843 -1.10192 1.12674 0
M  V30 2563 C 248.071 -1.85983 0.906527 0
M  V30 2564 C 248.486 -1.80783 -0.544333 0
M  V30 2565 O 247.843 -1.19834 -1.37645 0
M  V30 2566 C 247.894 -3.34281 1.37618 0
M  V30 2567 O 247.615 -3.39401 2.77017 0
M  V30 2568 C 249.116 -4.26938 1.19325 0
M  V30 2569 H 246.336 -0.587716 0.323775 0
M  V30 2570 H 248.88 -1.39284 1.49734 0
M  V30 2571 H 247.035 -3.78436 0.828539 0
M  V30 2572 H 247.449 -4.31838 2.97684 0
M  V30 2573 H 248.923 -5.29181 1.57071 0
M  V30 2574 H 249.4 -4.38995 0.134097 0
M  V30 2575 H 250.006 -3.8859 1.72852 0
M  V30 2576 N 248.321 -0.919034 -1.28029 0
M  V30 2577 C 249.551 -0.570143 -1.98577 0
M  V30 2578 C 249.959 0.854172 -1.68821 0
M  V30 2579 O 249.302 1.57807 -0.940351 0
M  V30 2580 C 249.364 -0.705734 -3.52505 0
M  V30 2581 C 249.028 -2.10057 -4.05863 0
M  V30 2582 C 250.025 -3.07385 -4.19298 0
M  V30 2583 C 247.71 -2.41517 -4.40426 0
M  V30 2584 C 249.704 -4.34287 -4.66555 0
M  V30 2585 C 247.391 -3.68657 -4.87376 0
M  V30 2586 C 248.389 -4.64856 -5.00398 0
M  V30 2587 O 248.077 -5.89735 -5.46322 0
M  V30 2588 H 247.809 -0.215592 -0.6407 0
M  V30 2589 H 250.363 -1.23583 -1.64062 0
M  V30 2590 H 248.593 0.0170414 -3.86696 0
M  V30 2591 H 250.282 -0.363172 -4.04272 0
M  V30 2592 H 251.048 -2.84398 -3.92865 0
M  V30 2593 H 246.927 -1.67389 -4.29537 0
M  V30 2594 H 250.471 -5.09377 -4.76635 0
M  V30 2595 H 246.368 -3.91466 -5.13249 0
M  V30 2596 H 247.136 -5.92599 -5.64596 0
M  V30 2597 N 249.799 1.42003 -0.683588 0
M  V30 2598 C 251.024 2.06265 -0.216647 0
M  V30 2599 C 251.449 1.51059 1.12083 0
M  V30 2600 O 250.807 0.632638 1.69904 0
M  V30 2601 C 250.855 3.60191 -0.171759 0
M  V30 2602 O 249.959 4.03396 0.857069 0
M  V30 2603 H 249.3 0.65502 -0.108834 0
M  V30 2604 H 251.83 1.81982 -0.935077 0
M  V30 2605 H 251.84 4.08 0.0014303 0
M  V30 2606 H 250.515 3.99743 -1.14796 0
M  V30 2607 H 249.092 3.67117 0.654208 0
M  V30 2608 N 251.277 0.427512 1.51691 0
M  V30 2609 C 252.523 -0.142439 2.02299 0
M  V30 2610 C 252.856 -1.43214 1.31162 0
M  V30 2611 O 252.131 -1.89833 0.423511 0
M  V30 2612 C 252.414 -0.371301 3.58181 0
M  V30 2613 C 252.267 0.936358 4.39946 0
M  V30 2614 C 253.586 -1.14542 4.24933 0
M  V30 2615 H 250.705 -0.0502937 0.735282 0
M  V30 2616 H 253.347 0.564584 1.81418 0
M  V30 2617 H 251.497 -0.973559 3.76104 0
M  V30 2618 H 253.169 1.57184 4.33694 0
M  V30 2619 H 251.412 1.5432 4.05423 0
M  V30 2620 H 252.083 0.730388 5.47147 0
M  V30 2621 H 254.559 -0.635362 4.11221 0
M  V30 2622 H 253.435 -1.27431 5.33903 0
M  V30 2623 H 253.696 -2.17093 3.85127 0
M  V30 2624 N 252.755 -1.56801 0.158532 0
M  V30 2625 C 254.002 -1.9649 -0.489679 0
M  V30 2626 C 254.33 -1.04394 -1.6411 0
M  V30 2627 O 253.585 -0.0754401 -1.95555 0
M  V30 2628 C 253.884 -3.4235 -1.02623 0
M  V30 2629 C 253.55 -4.50899 0.00794526 0
M  V30 2630 C 252.212 -4.80312 0.292207 0
M  V30 2631 C 254.564 -5.16333 0.710584 0
M  V30 2632 C 251.892 -5.72461 1.28472 0
M  V30 2633 C 254.244 -6.09553 1.69199 0
M  V30 2634 C 252.908 -6.37339 1.98383 0
M  V30 2635 H 252.178 -0.719009 -0.179186 0
M  V30 2636 H 254.825 -1.8989 0.247798 0
M  V30 2637 H 253.13 -3.45838 -1.84128 0
M  V30 2638 H 254.827 -3.70393 -1.53656 0
M  V30 2639 H 251.417 -4.28015 -0.22379 0
M  V30 2640 H 255.601 -4.93732 0.504174 0
M  V30 2641 H 250.857 -5.92278 1.51714 0
M  V30 2642 H 255.031 -6.59327 2.24189 0
M  V30 2643 H 252.658 -7.08546 2.7544 0
M  V30 2644 N 254.233 0.115231 -1.57178 0
M  V30 2645 C 255.644 0.67197 -1.74188 0
M  V30 2646 C 255.995 1.80125 -0.777777 0
M  V30 2647 O 255.12 2.16346 0.0484376 0
M  V30 2648 C 255.715 1.22573 -3.1585 0
M  V30 2649 C 254.274 1.72872 -3.34353 0
M  V30 2650 C 253.421 0.629972 -2.70049 0
M  V30 2651 H 256.372 -0.110712 -1.58313 0
M  V30 2652 H 256.393 2.09535 -3.17609 0
M  V30 2653 H 255.905 0.403598 -3.85996 0
M  V30 2654 H 254.006 2.5755 -2.69256 0
M  V30 2655 H 254.119 1.83557 -4.42542 0
M  V30 2656 H 252.483 1.0645 -2.31388 0
M  V30 2657 H 253.266 -0.181241 -3.42821 0
M  V30 2658 N 255.711 1.52812 0.385517 0
M  V30 2659 C 256.659 1.78482 1.49155 0
M  V30 2660 C 257.653 0.652914 1.56312 0
M  V30 2661 O 258.859 0.835464 1.59436 0
M  V30 2662 H 255.234 0.5648 0.496493 0
M  V30 2663 H 257.205 2.71095 1.24699 0
M  V30 2664 C 255.954 1.97378 2.86247 0
M  V30 2665 H 255.277 2.83907 2.81491 0
M  V30 2666 H 256.717 2.19327 3.62866 0
M  V30 2667 C 255.176 0.74728 3.28508 0
M  V30 2668 O 255.706 -0.0736232 4.01633 0
M  V30 2669 N 253.912 0.576396 2.84826 0
M  V30 2670 H 253.459 1.24555 2.25486 0
M  V30 2671 H 253.417 -0.24288 3.1346 0
M  V30 2672 N 257.189 -0.644168 1.43834 0
M  V30 2673 C 258.121 -1.76955 1.45669 0
M  V30 2674 C 259.134 -1.58956 0.351666 0
M  V30 2675 O 260.323 -1.6751 0.616644 0
M  V30 2676 C 257.423 -3.14507 1.26248 0
M  V30 2677 C 256.596 -3.59083 2.49757 0
M  V30 2678 C 255.655 -4.75467 2.25427 0
M  V30 2679 O 254.681 -4.84444 2.98836 0
M  V30 2680 N 255.883 -5.66289 1.27661 0
M  V30 2681 H 258.648 -1.75856 2.42682 0
M  V30 2682 H 256.209 -0.828312 1.39106 0
M  V30 2683 H 258.201 -3.90067 1.0784 0
M  V30 2684 H 256.771 -3.10325 0.376478 0
M  V30 2685 H 255.991 -2.7387 2.8353 0
M  V30 2686 H 257.279 -3.85613 3.31934 0
M  V30 2687 H 256.677 -5.61718 0.670064 0
M  V30 2688 H 255.234 -6.41533 1.15234 0
M  V30 2689 N 258.668 -1.30515 -0.883378 0
M  V30 2690 C 259.945 -1.10086 -1.6168 0
M  V30 2691 C 260.325 0.349269 -2.08191 0
M  V30 2692 O 259.673 1.34105 -1.85008 0
M  V30 2693 C 259.883 -2.10315 -2.78511 0
M  V30 2694 C 261.231 -2.42119 -3.48803 0
M  V30 2695 O 262.255 -2.08638 -2.88702 0
M  V30 2696 O 261.114 -2.99396 -4.57192 0
M  V30 2697 H 258.208 -0.422907 -0.710689 0
M  V30 2698 H 260.754 -1.41947 -0.930015 0
M  V30 2699 H 259.526 -3.07917 -2.41459 0
M  V30 2700 H 259.149 -1.79282 -3.54886 0
M  V30 2701 N 260.146 1.09593 -1.13257 0
M  V30 2702 C 261.056 2.19739 -0.821691 0
M  V30 2703 C 262.072 1.72926 0.19302 0
M  V30 2704 O 263.248 2.01385 0.0244895 0
M  V30 2705 C 260.313 3.45482 -0.290333 0
M  V30 2706 C 259.374 4.06985 -1.36607 0
M  V30 2707 C 258.607 5.26726 -0.859975 0
M  V30 2708 O 258.83 5.69594 0.303082 0
M  V30 2709 O 257.764 5.7931 -1.63351 0
M  V30 2710 H 261.59 2.48781 -1.74189 0
M  V30 2711 H 259.175 1.18496 -0.909894 0
M  V30 2712 H 261.057 4.214 0.000674022 0
M  V30 2713 H 259.732 3.18047 0.602306 0
M  V30 2714 H 258.639 3.32712 -1.71037 0
M  V30 2715 H 259.972 4.38643 -2.23279 0
M  V30 2716 N 261.624 0.925811 1.2754 0
M  V30 2717 C 262.557 0.367836 2.25216 0
M  V30 2718 C 263.535 -0.534738 1.53556 0
M  V30 2719 O 264.719 -0.475672 1.824 0
M  V30 2720 C 261.846 -0.47298 3.35381 0
M  V30 2721 C 260.892 0.365898 4.24928 0
M  V30 2722 S 261.725 1.78025 5.05042 0
M  V30 2723 C 262.881 0.947068 6.18693 0
M  V30 2724 H 263.114 1.19568 2.72196 0
M  V30 2725 H 260.647 0.727867 1.36167 0
M  V30 2726 H 262.605 -0.952242 3.99303 0
M  V30 2727 H 261.266 -1.27533 2.87044 0
M  V30 2728 H 260.459 -0.277582 5.03235 0
M  V30 2729 H 260.061 0.779261 3.65792 0
M  V30 2730 H 262.353 0.182201 6.77255 0
M  V30 2731 H 263.296 1.70309 6.87314 0
M  V30 2732 H 263.704 0.489913 5.6237 0
M  V30 2733 N 263.102 -1.41638 0.69111 0
M  V30 2734 C 264.327 -2.06148 0.227583 0
M  V30 2735 C 264.752 -1.51652 -1.11281 0
M  V30 2736 O 264.11 -0.64164 -1.69566 0
M  V30 2737 C 264.158 -3.60095 0.190858 0
M  V30 2738 O 263.262 -4.03845 -0.835664 0
M  V30 2739 H 262.603 -0.654434 0.112306 0
M  V30 2740 H 265.133 -1.81484 0.944714 0
M  V30 2741 H 265.143 -4.07995 0.020207 0
M  V30 2742 H 263.818 -3.99129 1.16915 0
M  V30 2743 H 262.395 -3.67458 -0.63473 0
M  V30 2744 N 264.58 -0.43555 -1.51462 0
M  V30 2745 C 265.857 0.191364 -1.94662 0
M  V30 2746 C 266.237 1.60254 -1.37411 0
M  V30 2747 O 265.585 2.2152 -0.560458 0
M  V30 2748 C 265.795 0.17091 -3.48581 0
M  V30 2749 C 267.143 0.377357 -4.2292 0
M  V30 2750 O 268.167 0.249104 -3.55328 0
M  V30 2751 O 267.026 0.63247 -5.42828 0
M  V30 2752 H 264.12 0.130932 -0.816569 0
M  V30 2753 H 266.666 -0.4934 -1.62369 0
M  V30 2754 H 265.438 -0.815738 -3.82703 0
M  V30 2755 H 265.061 0.898659 -3.87311 0
M  V30 2756 N 266.058 1.56714 -0.166846 0
M  V30 2757 C 267.304 1.97039 0.479962 0
M  V30 2758 C 267.637 1.05264 1.63197 0
M  V30 2759 O 266.912 0.0988833 1.94248 0
M  V30 2760 C 267.195 3.46867 0.967212 0
M  V30 2761 C 267.048 4.49421 -0.18466 0
M  V30 2762 C 268.367 3.9968 1.84238 0
M  V30 2763 H 265.486 0.71641 0.172992 0
M  V30 2764 H 268.128 1.8832 -0.252079 0
M  V30 2765 H 266.278 3.54428 1.59101 0
M  V30 2766 H 267.95 4.53924 -0.821621 0
M  V30 2767 H 266.193 4.25573 -0.840837 0
M  V30 2768 H 266.864 5.51644 0.198317 0
M  V30 2769 H 269.34 3.94723 1.31655 0
M  V30 2770 H 268.216 5.04941 2.15234 0
M  V30 2771 H 268.477 3.43226 2.78654 0
M  V30 2772 N 267.536 -0.106894 1.57237 0
M  V30 2773 C 268.782 -0.81373 1.85759 0
M  V30 2774 C 269.115 -1.78952 0.754315 0
M  V30 2775 O 268.39 -1.93029 -0.23879 0
M  V30 2776 C 268.673 -1.55293 3.24894 0
M  V30 2777 C 268.526 -0.595929 4.45835 0
M  V30 2778 C 269.845 -2.5063 3.61763 0
M  V30 2779 H 266.964 -0.294369 0.67566 0
M  V30 2780 H 269.606 -0.0776472 1.89841 0
M  V30 2781 H 267.756 -2.1804 3.21544 0
M  V30 2782 H 269.428 0.0236262 4.61294 0
M  V30 2783 H 267.671 0.0916191 4.33703 0
M  V30 2784 H 268.342 -1.15004 5.39887 0
M  V30 2785 H 270.818 -1.97982 3.65981 0
M  V30 2786 H 269.694 -2.99376 4.60071 0
M  V30 2787 H 269.955 -3.3385 2.89821 0
M  V30 2788 N 269.014 -1.53014 -0.377408 0
M  V30 2789 C 270.26 -1.68872 -1.12294 0
M  V30 2790 C 270.593 -0.433224 -1.89306 0
M  V30 2791 O 269.868 0.569258 -1.85983 0
M  V30 2792 C 270.151 -2.93115 -2.09179 0
M  V30 2793 C 270.004 -4.28794 -1.35853 0
M  V30 2794 C 271.323 -3.12928 -3.09458 0
M  V30 2795 H 268.442 -0.614518 -0.406862 0
M  V30 2796 H 271.084 -1.85633 -0.40503 0
M  V30 2797 H 269.234 -2.78956 -2.70399 0
M  V30 2798 H 270.906 -4.54742 -0.775082 0
M  V30 2799 H 269.149 -4.28744 -0.660364 0
M  V30 2800 H 269.82 -5.11837 -2.06706 0
M  V30 2801 H 272.296 -3.26194 -2.58334 0
M  V30 2802 H 271.172 -4.01316 -3.74482 0
M  V30 2803 H 271.433 -2.27669 -3.78971 0
M  V30 2804 N 270.492 0.636531 -1.44174 0
M  V30 2805 C 271.424 1.7618 -1.46606 0
M  V30 2806 C 272.437 1.58768 -0.360091 0
M  V30 2807 O 273.626 1.67181 -0.625518 0
M  V30 2808 C 270.726 3.13833 -1.27915 0
M  V30 2809 C 269.899 3.57753 -2.51658 0
M  V30 2810 C 268.958 4.74265 -2.27945 0
M  V30 2811 O 267.984 4.82852 -3.01401 0
M  V30 2812 N 269.186 5.65604 -1.30662 0
M  V30 2813 H 271.951 1.74567 -2.43612 0
M  V30 2814 H 269.512 0.820924 -1.39544 0
M  V30 2815 H 271.504 3.8949 -1.09907 0
M  V30 2816 H 270.074 3.10121 -0.39293 0
M  V30 2817 H 269.294 2.72362 -2.84978 0
M  V30 2818 H 270.582 3.83847 -3.33974 0
M  V30 2819 H 269.98 5.61354 -0.699844 0
M  V30 2820 H 268.537 6.40913 -1.18634 0
M  V30 2821 N 271.97 1.30982 0.876444 0
M  V30 2822 C 273.381 1.18277 1.44456 0
M  V30 2823 C 273.732 -0.213265 1.95037 0
M  V30 2824 O 272.857 -1.11057 1.85729 0
M  V30 2825 C 273.452 2.1411 2.62569 0
M  V30 2826 C 272.011 2.05358 3.15444 0
M  V30 2827 C 271.158 2.03706 1.88146 0
M  V30 2828 H 274.109 1.43127 0.685584 0
M  V30 2829 H 274.13 1.72692 3.39054 0
M  V30 2830 H 273.642 3.15706 2.25724 0
M  V30 2831 H 271.743 1.06934 3.56926 0
M  V30 2832 H 271.856 2.94156 3.78166 0
M  V30 2833 H 270.22 1.48629 2.06837 0
M  V30 2834 H 271.003 3.07047 1.53547 0
M  V30 2835 N 273.449 -1.08991 1.13837 0
M  V30 2836 C 274.679 -1.84743 0.924859 0
M  V30 2837 C 275.087 -1.81629 -0.529874 0
M  V30 2838 O 274.43 -1.21397 -1.37872 0
M  V30 2839 C 274.492 -3.33568 1.34061 0
M  V30 2840 C 274.156 -3.60425 2.80968 0
M  V30 2841 C 275.153 -3.55771 3.79108 0
M  V30 2842 C 272.838 -3.88627 3.18236 0
M  V30 2843 C 274.832 -3.78939 5.12527 0
M  V30 2844 C 272.519 -4.11449 4.51833 0
M  V30 2845 C 273.517 -4.06598 5.48787 0
M  V30 2846 O 273.205 -4.28826 6.79973 0
M  V30 2847 H 272.937 -0.590258 0.329502 0
M  V30 2848 H 275.491 -1.38598 1.51591 0
M  V30 2849 H 273.721 -3.80442 0.692853 0
M  V30 2850 H 275.41 -3.90743 1.09886 0
M  V30 2851 H 276.176 -3.34005 3.51661 0
M  V30 2852 H 272.055 -3.91526 2.43369 0
M  V30 2853 H 275.599 -3.75068 5.88192 0
M  V30 2854 H 271.496 -4.32698 4.79002 0
M  V30 2855 H 272.264 -4.46264 6.86142 0
M  V30 2856 N 274.927 -0.932562 -1.27047 0
M  V30 2857 C 275.875 -0.42603 -2.28665 0
M  V30 2858 C 276.869 0.49219 -1.62092 0
M  V30 2859 O 278.075 0.371355 -1.76128 0
M  V30 2860 H 274.45 -0.119213 -0.742491 0
M  V30 2861 H 276.421 -1.29579 -2.68797 0
M  V30 2862 C 275.17 0.301426 -3.46391 0
M  V30 2863 H 274.493 -0.39595 -3.97834 0
M  V30 2864 H 275.933 0.6202 -4.1944 0
M  V30 2865 C 274.392 1.51616 -3.00856 0
M  V30 2866 O 274.922 2.61476 -3.04948 0
M  V30 2867 N 273.128 1.36969 -2.56296 0
M  V30 2868 H 272.675 0.475873 -2.53166 0
M  V30 2869 H 272.633 2.18368 -2.26192 0
M  V30 2870 N 276.405 1.4127 -0.698611 0
M  V30 2871 C 277.63 2.06024 -0.238512 0
M  V30 2872 C 278.055 1.5224 1.10475 0
M  V30 2873 O 277.413 0.650623 1.69223 0
M  V30 2874 C 277.461 3.59988 -0.209952 0
M  V30 2875 O 276.565 4.04282 0.814235 0
M  V30 2876 H 275.906 0.653829 -0.115775 0
M  V30 2877 H 278.436 1.8098 -0.954326 0
M  V30 2878 H 278.446 4.07979 -0.0418436 0
M  V30 2879 H 277.121 3.98503 -1.1903 0
M  V30 2880 H 275.698 3.6779 0.615234 0
M  V30 2881 N 277.883 0.443576 1.51229 0
M  V30 2882 C 278.813 -0.355142 2.30783 0
M  V30 2883 C 279.794 -1.0154 1.36468 0
M  V30 2884 O 280.979 -1.01785 1.65389 0
M  V30 2885 C 278.109 -1.45312 3.15439 0
M  V30 2886 C 277.063 -0.916002 4.18083 0
M  V30 2887 C 276.389 -2.1102 4.91299 0
M  V30 2888 C 277.689 0.0538602 5.22272 0
M  V30 2889 H 279.383 0.308767 2.97804 0
M  V30 2890 H 276.929 0.149937 1.43217 0
M  V30 2891 H 278.882 -2.01914 3.69876 0
M  V30 2892 H 277.606 -2.14541 2.46252 0
M  V30 2893 H 276.265 -0.372145 3.64706 0
M  V30 2894 H 275.913 -2.78882 4.18609 0
M  V30 2895 H 275.613 -1.75717 5.60712 0
M  V30 2896 H 277.137 -2.68164 5.48562 0
M  V30 2897 H 278.551 -0.422069 5.71744 0
M  V30 2898 H 276.948 0.319776 5.99247 0
M  V30 2899 H 278.018 0.98858 4.74716 0
M  V30 2900 N 279.361 -1.56624 0.175154 0
M  V30 2901 C 280.291 -2.21155 -0.749195 0
M  V30 2902 C 281.272 -1.16836 -1.23626 0
M  V30 2903 O 282.457 -1.45277 -1.28873 0
M  V30 2904 C 279.587 -2.8553 -1.97711 0
M  V30 2905 C 278.541 -3.95921 -1.62575 0
M  V30 2906 C 277.867 -4.47365 -2.92864 0
M  V30 2907 C 279.167 -5.15323 -0.850838 0
M  V30 2908 H 280.861 -2.98653 -0.211295 0
M  V30 2909 H 278.407 -1.43651 -0.100188 0
M  V30 2910 H 280.36 -3.2935 -2.62881 0
M  V30 2911 H 279.084 -2.05406 -2.53921 0
M  V30 2912 H 277.743 -3.52762 -0.997719 0
M  V30 2913 H 277.391 -3.64027 -3.47122 0
M  V30 2914 H 277.091 -5.21839 -2.70106 0
M  V30 2915 H 278.615 -4.93873 -3.59056 0
M  V30 2916 H 280.029 -5.55812 -1.40521 0
M  V30 2917 H 278.426 -5.95739 -0.722154 0
M  V30 2918 H 279.496 -4.84661 0.152082 0
M  V30 2919 N 280.839 0.0985539 -1.57292 0
M  V30 2920 C 282.067 0.816318 -1.90115 0
M  V30 2921 C 282.482 1.72451 -0.768509 0
M  V30 2922 O 281.839 1.80643 0.259687 0
M  V30 2923 C 281.89 1.63259 -3.22535 0
M  V30 2924 O 281.611 0.760934 -4.31441 0
M  V30 2925 C 283.112 2.45372 -3.69199 0
M  V30 2926 H 280.332 0.233595 -0.629027 0
M  V30 2927 H 282.876 0.0768229 -2.04356 0
M  V30 2928 H 281.031 2.32463 -3.09903 0
M  V30 2929 H 281.445 1.32595 -5.07463 0
M  V30 2930 H 282.919 2.98144 -4.64558 0
M  V30 2931 H 283.396 3.23677 -2.96867 0
M  V30 2932 H 284.002 1.81373 -3.84687 0
M  V30 2933 N 282.317 1.53212 0.369288 0
M  V30 2934 C 283.247 1.82365 1.45826 0
M  V30 2935 C 284.228 0.676907 1.56051 0
M  V30 2936 O 285.413 0.926401 1.70679 0
M  V30 2937 C 282.543 2.01023 2.83208 0
M  V30 2938 C 281.497 3.1678 2.8781 0
M  V30 2939 C 280.823 3.20724 4.27832 0
M  V30 2940 C 282.123 4.55447 2.55667 0
M  V30 2941 H 283.817 2.73559 1.21678 0
M  V30 2942 H 281.363 1.3163 0.583911 0
M  V30 2943 H 283.316 2.20001 3.59413 0
M  V30 2944 H 282.04 1.06536 3.08736 0
M  V30 2945 H 280.699 2.97616 2.14056 0
M  V30 2946 H 280.347 2.23882 4.50429 0
M  V30 2947 H 280.047 3.98496 4.31827 0
M  V30 2948 H 281.571 3.41881 5.05915 0
M  V30 2949 H 282.985 4.74611 3.21586 0
M  V30 2950 H 281.382 5.35432 2.70984 0
M  V30 2951 H 282.452 4.60812 1.5093 0
M  V30 2952 N 283.795 -0.628877 1.44509 0
M  V30 2953 C 284.742 -1.74074 1.51549 0
M  V30 2954 C 285.712 -1.62084 0.363021 0
M  V30 2955 O 286.897 -1.81975 0.573567 0
M  V30 2956 C 284.037 -3.12328 1.46784 0
M  V30 2957 C 283.15 -3.35277 2.72422 0
M  V30 2958 C 282.285 -4.63515 2.59475 0
M  V30 2959 C 281.324 -4.7965 3.80266 0
M  V30 2960 N 280.461 -5.99168 3.65981 0
M  V30 2961 H 285.301 -1.67392 2.46544 0
M  V30 2962 H 282.838 -0.816527 1.22357 0
M  V30 2963 H 284.796 -3.92286 1.42012 0
M  V30 2964 H 283.426 -3.18018 0.553544 0
M  V30 2965 H 282.478 -2.49242 2.87372 0
M  V30 2966 H 283.79 -3.43078 3.62076 0
M  V30 2967 H 282.944 -5.51638 2.52548 0
M  V30 2968 H 281.683 -4.58076 1.67384 0
M  V30 2969 H 280.688 -3.89957 3.87574 0
M  V30 2970 H 281.913 -4.86902 4.73395 0
M  V30 2971 H 279.859 -5.94814 2.76644 0
M  V30 2972 H 279.776 -6.08035 4.49254 0
M  V30 2973 H 281.044 -6.89846 3.6295 0
M  V30 2974 N 285.273 -1.31445 -0.869486 0
M  V30 2975 C 286.689 -1.10113 -1.15531 0
M  V30 2976 C 286.889 0.128087 -2.01092 0
M  V30 2977 O 285.945 0.817276 -2.38908 0
M  V30 2978 C 287.258 -2.37291 -1.84698 0
M  V30 2979 C 288.806 -2.42906 -1.97397 0
M  V30 2980 C 289.281 -3.69967 -2.69979 0
M  V30 2981 N 290.772 -3.70864 -2.77514 0
M  V30 2982 C 291.507 -4.65875 -3.34287 0
M  V30 2983 N 291.003 -5.71242 -3.91988 0
M  V30 2984 N 292.796 -4.53394 -3.3225 0
M  V30 2985 H 284.947 -2.1028 -0.299347 0
M  V30 2986 H 287.21 -0.927683 -0.195214 0
M  V30 2987 H 286.916 -3.27078 -1.29278 0
M  V30 2988 H 286.79 -2.47125 -2.84972 0
M  V30 2989 H 289.177 -1.53588 -2.51982 0
M  V30 2990 H 289.258 -2.37036 -0.961643 0
M  V30 2991 H 288.902 -4.59652 -2.16062 0
M  V30 2992 H 288.832 -3.73103 -3.7162 0
M  V30 2993 H 291.323 -2.94697 -2.36563 0
M  V30 2994 H 291.636 -6.39817 -4.33421 0
M  V30 2995 H 289.981 -5.75015 -3.90362 0
M  V30 2996 H 293.172 -3.70252 -2.8641 0
M  V30 2997 H 293.345 -5.27617 -3.76197 0
M  V30 2998 N 286.751 1.08385 -1.14413 0
M  V30 2999 C 287.681 2.17321 -0.854044 0
M  V30 3000 C 288.662 1.69024 0.191049 0
M  V30 3001 O 289.847 1.94141 0.0476779 0
M  V30 3002 C 286.977 3.45719 -0.330983 0
M  V30 3003 C 285.931 4.07409 -1.31155 0
M  V30 3004 C 285.257 5.30762 -0.64778 0
M  V30 3005 C 286.557 4.48665 -2.67388 0
M  V30 3006 H 288.251 2.41845 -1.76498 0
M  V30 3007 H 285.797 1.16233 -0.850051 0
M  V30 3008 H 287.75 4.21241 -0.115645 0
M  V30 3009 H 286.474 3.2075 0.615381 0
M  V30 3010 H 285.133 3.33919 -1.51306 0
M  V30 3011 H 284.781 5.02078 0.304398 0
M  V30 3012 H 284.481 5.72992 -1.30207 0
M  V30 3013 H 286.005 6.08998 -0.441972 0
M  V30 3014 H 287.419 5.15364 -2.51143 0
M  V30 3015 H 285.816 5.01814 -3.29093 0
M  V30 3016 H 286.886 3.60543 -3.24248 0
M  V30 3017 N 288.23 0.939286 1.26551 0
M  V30 3018 C 289.458 0.602536 1.97932 0
M  V30 3019 C 289.873 -0.82206 1.69964 0
M  V30 3020 O 289.23 -1.54789 0.966784 0
M  V30 3021 C 289.281 0.832946 3.51773 0
M  V30 3022 O 289.002 2.20151 3.78768 0
M  V30 3023 C 290.503 0.506483 4.40397 0
M  V30 3024 H 287.723 0.227248 0.631347 0
M  V30 3025 H 290.267 1.25948 1.61113 0
M  V30 3026 H 288.422 0.222644 3.8676 0
M  V30 3027 H 288.836 2.26013 4.73306 0
M  V30 3028 H 290.31 0.718333 5.47306 0
M  V30 3029 H 290.787 -0.558451 4.35635 0
M  V30 3030 H 291.393 1.09543 4.10951 0
M  V30 3031 N 289.708 -1.40897 0.706093 0
M  V30 3032 C 290.64 -2.29199 0.00815776 0
M  V30 3033 C 291.653 -1.45336 -0.733582 0
M  V30 3034 O 292.842 -1.68727 -0.582537 0
M  V30 3035 C 289.942 -3.23417 -1.01265 0
M  V30 3036 C 289.115 -4.36089 -0.338387 0
M  V30 3037 C 288.174 -5.10811 -1.26326 0
M  V30 3038 O 287.2 -5.64215 -0.751651 0
M  V30 3039 N 288.402 -5.19269 -2.595 0
M  V30 3040 H 291.167 -2.89738 0.766297 0
M  V30 3041 H 288.728 -1.52164 0.55296 0
M  V30 3042 H 290.72 -3.70276 -1.63334 0
M  V30 3043 H 289.29 -2.64112 -1.67223 0
M  V30 3044 H 288.51 -3.91479 0.462352 0
M  V30 3045 H 289.798 -5.08634 0.130031 0
M  V30 3046 H 289.196 -4.77347 -3.03573 0
M  V30 3047 H 287.753 -5.69667 -3.16737 0
M  V30 3048 N 291.186 -0.45159 -1.50991 0
M  V30 3049 C 292.134 0.366864 -2.29689 0
M  V30 3050 C 293.128 1.00809 -1.36139 0
M  V30 3051 O 294.334 0.941427 -1.53418 0
M  V30 3052 H 290.709 0.137133 -0.739391 0
M  V30 3053 H 292.68 -0.317538 -2.96706 0
M  V30 3054 C 291.429 1.44751 -3.16137 0
M  V30 3055 H 290.752 0.963473 -3.88017 0
M  V30 3056 H 292.192 1.99315 -3.74232 0
M  V30 3057 C 290.651 2.43869 -2.32442 0
M  V30 3058 O 291.181 3.4872 -1.99392 0
M  V30 3059 N 289.387 2.15105 -1.95392 0
M  V30 3060 H 288.934 1.29866 -2.22469 0
M  V30 3061 H 288.892 2.81661 -1.39693 0
M  V30 3062 N 292.664 1.56529 -0.183458 0
M  V30 3063 C 293.627 2.17324 0.728223 0
M  V30 3064 C 294.627 1.12453 1.14939 0
M  V30 3065 O 295.817 1.37902 1.06437 0
M  V30 3066 C 292.949 2.76591 1.99274 0
M  V30 3067 H 294.142 2.99241 0.198772 0
M  V30 3068 H 291.695 1.5616 0.0661391 0
M  V30 3069 H 292.43 1.98441 2.56499 0
M  V30 3070 H 292.215 3.5335 1.69959 0
M  V30 3071 H 293.705 3.23311 2.6431 0
M  V30 3072 N 294.142 -0.090211 1.57342 0
M  V30 3073 C 295.419 -0.824761 1.77361 0
M  V30 3074 C 295.799 -1.96698 0.76637 0
M  V30 3075 O 295.147 -2.27586 -0.204179 0
M  V30 3076 C 295.357 -1.31481 3.23286 0
M  V30 3077 C 296.705 -1.75563 3.86604 0
M  V30 3078 O 297.729 -1.41093 3.27065 0
M  V30 3079 O 296.588 -2.39317 4.91314 0
M  V30 3080 H 293.682 -0.393776 0.727234 0
M  V30 3081 H 296.228 -0.0717138 1.69548 0
M  V30 3082 H 295 -0.496671 3.88135 0
M  V30 3083 H 294.623 -2.12973 3.35751 0
M  V30 3084 N 295.62 -1.53406 -0.361157 0
M  V30 3085 C 296.86 -1.71507 -1.11197 0
M  V30 3086 C 297.224 -0.459337 -1.86425 0
M  V30 3087 O 298.425 -0.517102 -2.63779 0
M  V30 3088 C 296.696 -2.93307 -2.0422 0
M  V30 3089 S 298.255 -3.32135 -2.86761 0
M  V30 3090 H 295.073 -0.603448 -0.375995 0
M  V30 3091 H 297.675 -1.91516 -0.392642 0
M  V30 3092 H 296.379 -3.82891 -1.47724 0
M  V30 3093 H 295.91 -2.75712 -2.80618 0
M  V30 3094 H 297.925 -2.84493 -4.06544 0
M  V30 3095 N 297.098 0.621204 -1.44841 0
M  V30 3096 C 298.344 1.3826 -1.48365 0
M  V30 3097 C 298.677 1.93831 -0.119624 0
M  V30 3098 O 297.952 1.74251 0.864111 0
M  V30 3099 C 298.235 2.54058 -2.55199 0
M  V30 3100 C 298.088 2.03772 -4.00995 0
M  V30 3101 C 299.407 3.56225 -2.58442 0
M  V30 3102 H 296.526 0.501374 -0.540179 0
M  V30 3103 H 299.168 0.7015 -1.76576 0
M  V30 3104 H 297.318 3.12162 -2.31274 0
M  V30 3105 H 298.99 1.50423 -4.36086 0
M  V30 3106 H 297.233 1.34876 -4.12299 0
M  V30 3107 H 297.904 2.87185 -4.71411 0
M  V30 3108 H 300.38 3.07939 -2.79844 0
M  V30 3109 H 299.256 4.34756 -3.3508 0
M  V30 3110 H 299.517 4.10949 -1.63013 0
M  V30 3111 N 298.576 1.31904 0.862503 0
M  V30 3112 C 299.822 1.22197 1.61851 0
M  V30 3113 C 300.155 -0.217641 1.92977 0
M  V30 3114 O 299.43 -1.15264 1.56666 0
M  V30 3115 C 299.713 2.07378 2.94391 0
M  V30 3116 C 299.566 3.59678 2.70096 0
M  V30 3117 C 300.885 1.92891 3.95577 0
M  V30 3118 H 298.004 0.445255 0.587296 0
M  V30 3119 H 300.646 1.6177 0.99651 0
M  V30 3120 H 298.796 1.73758 3.47477 0
M  V30 3121 H 300.468 4.03472 2.23625 0
M  V30 3122 H 298.711 3.82735 2.04197 0
M  V30 3123 H 299.382 4.14595 3.64438 0
M  V30 3124 H 301.858 2.22327 3.51724 0
M  V30 3125 H 300.734 2.54781 4.86187 0
M  V30 3126 H 300.995 0.894315 4.3296 0
M  V30 3127 N 300.054 -1.07777 1.14986 0
M  V30 3128 C 301.3 -1.80557 0.923422 0
M  V30 3129 C 301.633 -1.86298 -0.548337 0
M  V30 3130 O 300.908 -1.34354 -1.40639 0
M  V30 3131 C 301.191 -3.25839 1.53299 0
M  V30 3132 C 301.044 -3.28269 3.07505 0
M  V30 3133 C 302.363 -4.22991 1.21518 0
M  V30 3134 H 299.482 -0.655493 0.336894 0
M  V30 3135 H 302.124 -1.26144 1.42083 0
M  V30 3136 H 300.274 -3.72306 1.10999 0
M  V30 3137 H 301.946 -2.90079 3.58681 0
M  V30 3138 H 300.189 -2.67355 3.4162 0
M  V30 3139 H 300.86 -4.30691 3.45266 0
M  V30 3140 H 303.336 -3.84894 1.581 0
M  V30 3141 H 302.212 -5.22945 1.66793 0
M  V30 3142 H 302.473 -4.41904 0.131505 0
M  V30 3143 N 301.532 -0.945985 -1.26051 0
M  V30 3144 C 302.462 -0.477172 -2.28572 0
M  V30 3145 C 303.443 0.472032 -1.63419 0
M  V30 3146 O 304.628 0.372853 -1.90587 0
M  V30 3147 C 301.758 0.253975 -3.4637 0
M  V30 3148 C 300.712 -0.609135 -4.23643 0
M  V30 3149 C 300.038 0.252252 -5.34105 0
M  V30 3150 C 301.338 -1.8829 -4.8718 0
M  V30 3151 H 303.032 -1.33402 -2.68038 0
M  V30 3152 H 300.578 -0.642904 -1.28852 0
M  V30 3153 H 302.531 0.593016 -4.17207 0
M  V30 3154 H 301.255 1.145 -3.05871 0
M  V30 3155 H 299.914 -0.931138 -3.54578 0
M  V30 3156 H 299.562 1.14278 -4.89846 0
M  V30 3157 H 299.262 -0.32188 -5.86718 0
M  V30 3158 H 300.786 0.586454 -6.07777 0
M  V30 3159 H 302.2 -1.61081 -5.50205 0
M  V30 3160 H 300.597 -2.40199 -5.49931 0
M  V30 3161 H 301.667 -2.59134 -4.09851 0
M  V30 3162 N 303.011 1.40521 -0.713556 0
M  V30 3163 C 304.288 1.94775 -0.17943 0
M  V30 3164 C 304.668 1.65184 1.31444 0
M  V30 3165 O 304.016 0.968429 2.06963 0
M  V30 3166 C 304.226 3.45543 -0.489986 0
M  V30 3167 C 305.574 4.22442 -0.427536 0
M  V30 3168 O 306.598 3.53644 -0.425929 0
M  V30 3169 O 305.457 5.4501 -0.403292 0
M  V30 3170 H 302.551 0.826606 -0.0255192 0
M  V30 3171 H 305.097 1.5014 -0.790949 0
M  V30 3172 H 303.869 3.60432 -1.5233 0
M  V30 3173 H 303.492 3.97311 0.151598 0
M  V30 3174 N 304.489 0.459591 1.5075 0
M  V30 3175 C 305.437 -0.354678 2.2988 0
M  V30 3176 C 306.431 -1.00086 1.36672 0
M  V30 3177 O 307.637 -0.933277 1.53915 0
M  V30 3178 H 304.012 -0.13321 0.740107 0
M  V30 3179 H 305.983 0.333269 2.96533 0
M  V30 3180 C 304.732 -1.43073 3.169 0
M  V30 3181 H 304.055 -0.942882 3.88523 0
M  V30 3182 H 305.495 -1.97328 3.75284 0
M  V30 3183 C 303.954 -2.42633 2.33732 0
M  V30 3184 O 304.484 -3.47658 2.01238 0
M  V30 3185 N 302.69 -2.14066 1.9653 0
M  V30 3186 H 302.237 -1.28685 2.23155 0
M  V30 3187 H 302.195 -2.80917 1.41185 0
M  V30 3188 N 305.967 -1.56429 0.191757 0
M  V30 3189 C 307.195 -2.01867 -0.453586 0
M  V30 3190 C 307.61 -1.07191 -1.5542 0
M  V30 3191 O 306.967 -0.0762108 -1.82341 0
M  V30 3192 C 307.018 -3.47017 -1.013 0
M  V30 3193 O 306.739 -4.38078 0.0437005 0
M  V30 3194 C 308.24 -4.07956 -1.73456 0
M  V30 3195 H 305.46 -0.661211 -0.114199 0
M  V30 3196 H 308.004 -2.02295 0.299483 0
M  V30 3197 H 306.159 -3.47298 -1.71647 0
M  V30 3198 H 306.573 -5.23178 -0.372212 0
M  V30 3199 H 308.047 -5.1138 -2.07833 0
M  V30 3200 H 308.524 -3.51222 -2.63704 0
M  V30 3201 H 309.13 -4.11437 -1.07702 0
M  V30 3202 N 307.445 0.0818655 -1.57387 0
M  V30 3203 C 308.408 1.08265 -2.02018 0
M  V30 3204 C 309.408 1.32183 -0.915664 0
M  V30 3205 O 310.598 1.28073 -1.18081 0
M  V30 3206 C 307.73 2.42871 -2.39221 0
M  V30 3207 H 308.923 0.698204 -2.91659 0
M  V30 3208 H 306.476 0.327303 -1.52835 0
M  V30 3209 H 307.211 2.86167 -1.52575 0
M  V30 3210 H 306.996 2.26855 -3.19811 0
M  V30 3211 H 308.486 3.14826 -2.74362 0
M  V30 3212 N 308.923 1.53595 0.353017 0
M  V30 3213 C 309.853 1.83902 1.43883 0
M  V30 3214 C 310.834 0.693421 1.55324 0
M  V30 3215 O 312.019 0.944452 1.69687 0
M  V30 3216 C 309.149 2.04016 2.8106 0
M  V30 3217 C 308.103 3.19814 2.84434 0
M  V30 3218 C 307.429 3.25244 4.24406 0
M  V30 3219 C 308.729 4.58133 2.50822 0
M  V30 3220 H 310.423 2.74835 1.1877 0
M  V30 3221 H 307.969 1.32242 0.569917 0
M  V30 3222 H 309.922 2.238 3.57059 0
M  V30 3223 H 308.646 1.09804 3.07588 0
M  V30 3224 H 307.305 2.9987 2.10887 0
M  V30 3225 H 306.953 2.28646 4.48029 0
M  V30 3226 H 306.653 4.03054 4.27576 0
M  V30 3227 H 308.177 3.47228 5.0226 0
M  V30 3228 H 309.591 4.77995 3.16534 0
M  V30 3229 H 307.988 5.38276 2.6529 0
M  V30 3230 H 309.058 4.62387 1.46034 0
M  V30 3231 N 310.401 -0.613514 1.45168 0
M  V30 3232 C 311.349 -1.74572 1.53712 0
M  V30 3233 C 312.343 -1.64426 0.407505 0
M  V30 3234 O 313.549 -1.70291 0.583176 0
M  V30 3235 H 309.924 -0.576641 0.48269 0
M  V30 3236 H 311.895 -1.64492 2.48968 0
M  V30 3237 C 310.644 -3.12943 1.51532 0
M  V30 3238 H 309.967 -3.21407 2.37776 0
M  V30 3239 H 311.407 -3.9201 1.61569 0
M  V30 3240 C 309.866 -3.36053 0.238798 0
M  V30 3241 O 310.396 -3.95837 -0.6838 0
M  V30 3242 N 308.602 -2.9028 0.136359 0
M  V30 3243 H 308.149 -2.41811 0.887999 0
M  V30 3244 H 308.107 -3.06116 -0.716944 0
M  V30 3245 N 311.879 -1.3236 -0.855495 0
M  V30 3246 C 313.295 -1.11332 -1.14356 0
M  V30 3247 C 313.495 0.106751 -2.01217 0
M  V30 3248 O 312.551 0.791891 -2.39761 0
M  V30 3249 C 313.864 -2.39237 -1.82171 0
M  V30 3250 C 315.412 -2.44986 -1.9481 0
M  V30 3251 C 315.887 -3.7281 -2.66039 0
M  V30 3252 N 317.378 -3.73787 -2.73565 0
M  V30 3253 C 318.113 -4.69394 -3.29327 0
M  V30 3254 N 317.609 -5.75367 -3.85907 0
M  V30 3255 N 319.402 -4.56893 -3.27423 0
M  V30 3256 H 311.553 -2.10586 -0.277027 0
M  V30 3257 H 313.816 -0.929701 -0.185364 0
M  V30 3258 H 313.522 -3.28431 -1.25802 0
M  V30 3259 H 313.396 -2.50134 -2.82335 0
M  V30 3260 H 315.783 -1.56252 -2.50338 0
M  V30 3261 H 315.864 -2.38043 -0.936448 0
M  V30 3262 H 315.508 -4.61918 -2.11174 0
M  V30 3263 H 315.438 -3.77024 -3.67642 0
M  V30 3264 H 317.929 -2.97189 -2.33424 0
M  V30 3265 H 318.242 -6.44378 -4.26611 0
M  V30 3266 H 316.587 -5.79123 -3.84242 0
M  V30 3267 H 319.778 -3.73269 -2.82467 0
M  V30 3268 H 319.951 -5.31577 -3.7058 0
M  V30 3269 N 313.357 1.07166 -1.15556 0
M  V30 3270 C 314.606 1.79181 -0.926132 0
M  V30 3271 C 314.919 1.87768 0.547967 0
M  V30 3272 O 316.125 2.56323 0.895036 0
M  V30 3273 C 314.581 3.22 -1.60761 0
M  V30 3274 C 314.189 3.21607 -3.11886 0
M  V30 3275 C 315.933 3.9861 -1.4598 0
M  V30 3276 C 313.84 4.59092 -3.72812 0
M  V30 3277 H 312.77 0.67154 -0.342856 0
M  V30 3278 H 315.421 1.2027 -1.3859 0
M  V30 3279 H 313.803 3.81115 -1.07553 0
M  V30 3280 H 314.977 2.72127 -3.71865 0
M  V30 3281 H 313.292 2.58495 -3.2645 0
M  V30 3282 H 315.889 5.00225 -1.88888 0
M  V30 3283 H 316.232 4.143 -0.407541 0
M  V30 3284 H 316.765 3.45996 -1.96295 0
M  V30 3285 H 313.504 4.48606 -4.77946 0
M  V30 3286 H 313.024 5.08803 -3.17616 0
M  V30 3287 H 314.703 5.28059 -3.73848 0
M  V30 3288 N 314.835 0.952656 1.25548 0
M  V30 3289 C 315.798 0.475794 2.24207 0
M  V30 3290 C 316.798 -0.419428 1.55234 0
M  V30 3291 O 317.988 -0.216994 1.72843 0
M  V30 3292 C 315.12 -0.312814 3.39462 0
M  V30 3293 H 316.313 1.34779 2.67908 0
M  V30 3294 H 313.866 0.735739 1.37901 0
M  V30 3295 H 314.601 -1.20257 3.01179 0
M  V30 3296 H 314.386 0.329404 3.90714 0
M  V30 3297 H 315.876 -0.635986 4.12729 0
M  V30 3298 N 316.313 -1.40141 0.720998 0
M  V30 3299 C 317.541 -2.05096 0.272656 0
M  V30 3300 C 317.956 -1.54334 -1.0875 0
M  V30 3301 O 317.313 -0.702211 -1.6845 0
M  V30 3302 C 317.364 -3.60636 0.249835 0
M  V30 3303 O 317.085 -4.09526 1.55629 0
M  V30 3304 C 318.586 -4.42772 -0.216396 0
M  V30 3305 H 315.806 -0.659897 0.121558 0
M  V30 3306 H 318.35 -1.79449 0.980723 0
M  V30 3307 H 316.505 -3.85232 -0.409237 0
M  V30 3308 H 316.919 -5.03758 1.4604 0
M  V30 3309 H 318.393 -5.51702 -0.181212 0
M  V30 3310 H 318.87 -4.20756 -1.25941 0
M  V30 3311 H 319.476 -4.23294 0.412596 0
M  V30 3312 N 317.792 -0.46758 -1.50504 0
M  V30 3313 C 319.069 0.15003 -1.95024 0
M  V30 3314 C 319.449 1.57304 -1.40779 0
M  V30 3315 O 318.797 2.20281 -0.607319 0
M  V30 3316 C 319.007 0.0969324 -3.48865 0
M  V30 3317 C 320.355 0.287565 -4.23625 0
M  V30 3318 O 321.379 0.173678 -3.55776 0
M  V30 3319 O 320.238 0.517186 -5.44047 0
M  V30 3320 H 317.332 0.113582 -0.819163 0
M  V30 3321 H 319.878 -0.52773 -1.61286 0
M  V30 3322 H 318.65 -0.896732 -3.80886 0
M  V30 3323 H 318.273 0.816303 -3.8913 0
M  V30 3324 N 319.27 1.56325 -0.20005 0
M  V30 3325 C 320.686 1.58839 0.155716 0
M  V30 3326 C 320.886 1.21636 1.60645 0
M  V30 3327 O 319.942 0.941437 2.34293 0
M  V30 3328 C 321.255 3.0032 -0.151124 0
M  V30 3329 C 322.803 3.12866 -0.0916284 0
M  V30 3330 C 323.278 4.56488 -0.371845 0
M  V30 3331 N 324.769 4.62089 -0.320641 0
M  V30 3332 C 325.504 5.71116 -0.511243 0
M  V30 3333 N 325 6.88592 -0.762461 0
M  V30 3334 N 326.793 5.60335 -0.445157 0
M  V30 3335 H 318.944 1.78788 -1.14668 0
M  V30 3336 H 321.207 0.829996 -0.458051 0
M  V30 3337 H 320.913 3.32117 -1.15721 0
M  V30 3338 H 320.787 3.73257 0.543986 0
M  V30 3339 H 323.174 2.80878 0.905065 0
M  V30 3340 H 323.255 2.42304 -0.81989 0
M  V30 3341 H 322.899 4.89189 -1.36588 0
M  V30 3342 H 322.829 5.25246 0.377362 0
M  V30 3343 H 325.32 3.77665 -0.13329 0
M  V30 3344 H 325.633 7.67581 -0.896576 0
M  V30 3345 H 323.978 6.90387 -0.799412 0
M  V30 3346 H 327.169 4.67436 -0.249278 0
M  V30 3347 H 327.342 6.45243 -0.597116 0
M  V30 3348 N 320.748 -0.0735177 1.57428 0
M  V30 3349 C 321.678 -1.0879 2.06608 0
M  V30 3350 C 322.659 -1.40473 0.959237 0
M  V30 3351 O 323.844 -1.5013 1.23185 0
M  V30 3352 C 320.974 -2.40183 2.50857 0
M  V30 3353 C 319.928 -2.22858 3.65402 0
M  V30 3354 C 319.254 -3.59619 3.957 0
M  V30 3355 C 320.554 -1.65123 4.95511 0
M  V30 3356 H 322.248 -0.678673 2.91607 0
M  V30 3357 H 319.794 -0.325013 1.40284 0
M  V30 3358 H 321.747 -3.11437 2.83874 0
M  V30 3359 H 320.471 -2.83083 1.62885 0
M  V30 3360 H 319.13 -1.54045 3.32664 0
M  V30 3361 H 318.778 -4.00086 3.04861 0
M  V30 3362 H 318.478 -3.48866 4.72828 0
M  V30 3363 H 320.002 -4.32306 4.31212 0
M  V30 3364 H 321.416 -2.26241 5.26771 0
M  V30 3365 H 319.813 -1.65071 5.7695 0
M  V30 3366 H 320.883 -0.612559 4.81015 0
M  V30 3367 N 322.226 -1.5378 -0.344866 0
M  V30 3368 C 323.176 -1.78057 -1.42407 0
M  V30 3369 C 324.16 -0.635732 -1.47808 0
M  V30 3370 O 325.352 -0.89508 -1.527 0
M  V30 3371 C 322.481 -1.99242 -2.79566 0
M  V30 3372 C 321.567 -3.19787 -2.78562 0
M  V30 3373 N 321.958 -4.41284 -2.47189 0
M  V30 3374 C 320.256 -3.2093 -3.0971 0
M  V30 3375 C 320.957 -5.23128 -2.54385 0
M  V30 3376 N 319.933 -4.59813 -2.89953 0
M  V30 3377 H 323.735 -2.69588 -1.17046 0
M  V30 3378 H 321.249 -1.52687 -0.553217 0
M  V30 3379 H 323.246 -2.14768 -3.57324 0
M  V30 3380 H 321.906 -1.08953 -3.05875 0
M  V30 3381 H 322.917 -4.68657 -2.20411 0
M  V30 3382 H 319.594 -2.40603 -3.41199 0
M  V30 3383 H 320.984 -6.30096 -2.333 0
M  V30 3384 N 323.704 0.605807 -1.45491 0
M  V30 3385 C 324.953 1.36086 -1.48874 0
M  V30 3386 C 325.266 1.95131 -0.135333 0
M  V30 3387 O 326.472 2.7146 -0.0468144 0
M  V30 3388 C 324.928 2.46518 -2.62215 0
M  V30 3389 C 324.536 1.93877 -4.03876 0
M  V30 3390 C 326.28 3.23512 -2.74846 0
M  V30 3391 C 324.187 3.01801 -5.08596 0
M  V30 3392 H 323.117 0.511497 -0.553974 0
M  V30 3393 H 325.768 0.649089 -1.71636 0
M  V30 3394 H 324.15 3.20388 -2.32739 0
M  V30 3395 H 325.324 1.26704 -4.43038 0
M  V30 3396 H 323.639 1.29622 -3.95711 0
M  V30 3397 H 326.236 4.04013 -3.50253 0
M  V30 3398 H 326.579 3.74631 -1.81542 0
M  V30 3399 H 327.112 2.56742 -3.03856 0
M  V30 3400 H 323.851 2.55597 -6.03614 0
M  V30 3401 H 323.371 3.67535 -4.74002 0
M  V30 3402 H 325.05 3.66152 -5.33424 0
M  V30 3403 N 325.182 1.32811 0.848464 0
M  V30 3404 C 326.114 1.18095 1.96433 0
M  V30 3405 C 327.127 0.114354 1.62398 0
M  V30 3406 O 328.316 0.363892 1.74751 0
M  V30 3407 C 325.416 0.786798 3.2964 0
M  V30 3408 C 324.589 1.943 3.91875 0
M  V30 3409 C 323.648 1.53138 5.03423 0
M  V30 3410 O 322.674 2.24432 5.23086 0
M  V30 3411 N 323.876 0.430915 5.78898 0
M  V30 3412 H 326.641 2.14218 2.09597 0
M  V30 3413 H 324.202 1.2543 1.02367 0
M  V30 3414 H 326.194 0.493715 4.01677 0
M  V30 3415 H 324.764 -0.0834541 3.12489 0
M  V30 3416 H 323.984 2.40224 3.12547 0
M  V30 3417 H 325.272 2.71689 4.30189 0
M  V30 3418 H 324.67 -0.162333 5.65467 0
M  V30 3419 H 323.227 0.197466 6.51501 0
M  V30 3420 N 326.66 -1.06551 1.16123 0
M  V30 3421 C 327.608 -2.16063 0.861371 0
M  V30 3422 C 328.602 -1.6856 -0.168517 0
M  V30 3423 O 329.808 -1.79986 -0.0227579 0
M  V30 3424 H 326.183 -0.705278 0.260934 0
M  V30 3425 H 328.154 -2.38567 1.79244 0
M  V30 3426 C 326.903 -3.45661 0.376018 0
M  V30 3427 H 326.226 -3.82604 1.15992 0
M  V30 3428 H 327.666 -4.23504 0.204951 0
M  V30 3429 C 326.125 -3.24546 -0.903954 0
M  V30 3430 O 326.655 -3.49865 -1.97377 0
M  V30 3431 N 324.861 -2.77992 -0.846679 0
M  V30 3432 H 324.408 -2.57589 0.0241017 0
M  V30 3433 H 324.366 -2.64244 -1.70359 0
M  V30 3434 N 328.138 -0.959301 -1.25041 0
M  V30 3435 C 329.549 -0.65667 -1.74771 0
M  V30 3436 C 329.9 0.827852 -1.77879 0
M  V30 3437 O 329.025 1.64783 -1.40269 0
M  V30 3438 C 329.62 -1.1853 -3.1739 0
M  V30 3439 C 328.179 -0.932734 -3.6466 0
M  V30 3440 C 327.326 -1.32558 -2.43564 0
M  V30 3441 H 330.277 -1.13558 -1.10862 0
M  V30 3442 H 330.298 -0.547582 -3.76539 0
M  V30 3443 H 329.81 -2.26576 -3.15095 0
M  V30 3444 H 327.911 0.13257 -3.72364 0
M  V30 3445 H 328.024 -1.57248 -4.52559 0
M  V30 3446 H 326.388 -0.743956 -2.43593 0
M  V30 3447 H 327.171 -2.41537 -2.43957 0
M  V30 3448 N 329.616 1.39756 -0.72842 0
M  V30 3449 C 330.841 2.05472 -0.282159 0
M  V30 3450 C 331.266 1.54549 1.07221 0
M  V30 3451 O 330.624 0.686372 1.67805 0
M  V30 3452 C 330.672 3.59462 -0.286264 0
M  V30 3453 O 329.776 4.05918 0.728298 0
M  V30 3454 H 329.117 0.651226 -0.129618 0
M  V30 3455 H 331.647 1.78915 -0.992499 0
M  V30 3456 H 331.657 4.07798 -0.128373 0
M  V30 3457 H 330.332 3.95889 -1.27456 0
M  V30 3458 H 328.909 3.69012 0.537081 0
M  V30 3459 N 331.094 0.475555 1.50254 0
M  V30 3460 C 332.341 -0.0778919 2.0235 0
M  V30 3461 C 332.669 -1.39319 1.35722 0
M  V30 3462 O 331.924 -1.89888 0.473395 0
M  V30 3463 C 332.223 -0.305114 3.56095 0
M  V30 3464 C 331.889 0.92903 4.41225 0
M  V30 3465 C 330.551 1.26739 4.6421 0
M  V30 3466 C 332.903 1.75054 4.90923 0
M  V30 3467 C 330.231 2.42724 5.34137 0
M  V30 3468 C 332.583 2.9017 5.62125 0
M  V30 3469 C 331.247 3.24416 5.83362 0
M  V30 3470 H 330.517 -0.0285027 0.740452 0
M  V30 3471 H 333.164 0.630543 1.80821 0
M  V30 3472 H 331.469 -1.09584 3.76163 0
M  V30 3473 H 333.166 -0.747377 3.93974 0
M  V30 3474 H 329.756 0.655428 4.23559 0
M  V30 3475 H 333.94 1.50231 4.73016 0
M  V30 3476 H 329.196 2.69525 5.48786 0
M  V30 3477 H 333.37 3.54169 5.99614 0
M  V30 3478 H 330.997 4.14396 6.37323 0
M  V30 3479 N 332.573 -1.56217 0.208337 0
M  V30 3480 C 333.798 -2.02782 -0.435222 0
M  V30 3481 C 334.223 -1.08738 -1.53485 0
M  V30 3482 O 333.581 -0.0731855 -1.81152 0
M  V30 3483 C 333.629 -3.47687 -0.956335 0
M  V30 3484 O 332.733 -3.56773 -2.06849 0
M  V30 3485 H 332.074 -0.656403 -0.100158 0
M  V30 3486 H 334.604 -2.02033 0.3231 0
M  V30 3487 H 334.614 -3.87745 -1.26955 0
M  V30 3488 H 333.289 -4.15624 -0.15143 0
M  V30 3489 H 331.866 -3.28597 -1.76292 0
M  V30 3490 N 334.051 0.0651679 -1.57465 0
M  V30 3491 C 334.983 1.10359 -2.00882 0
M  V30 3492 C 335.996 1.346 -0.915788 0
M  V30 3493 O 337.185 1.32723 -1.1936 0
M  V30 3494 C 334.285 2.45312 -2.33828 0
M  V30 3495 C 333.458 2.40934 -3.65061 0
M  V30 3496 C 332.517 3.58047 -3.85602 0
M  V30 3497 O 331.543 3.39175 -4.57109 0
M  V30 3498 N 332.745 4.78637 -3.28462 0
M  V30 3499 H 335.51 0.733807 -2.90578 0
M  V30 3500 H 333.071 0.253719 -1.599 0
M  V30 3501 H 335.063 3.22314 -2.44737 0
M  V30 3502 H 333.633 2.74267 -1.49988 0
M  V30 3503 H 332.853 1.49273 -3.64844 0
M  V30 3504 H 334.141 2.35117 -4.51218 0
M  V30 3505 H 333.539 4.96872 -2.70433 0
M  V30 3506 H 332.096 5.53127 -3.44809 0
M  V30 3507 N 335.529 1.53961 0.336706 0
M  V30 3508 C 336.778 1.70751 1.07363 0
M  V30 3509 C 337.091 0.481061 1.89592 0
M  V30 3510 O 338.297 0.530046 2.66276 0
M  V30 3511 C 336.753 3.01965 1.95818 0
M  V30 3512 C 336.361 4.31971 1.18764 0
M  V30 3513 C 338.105 3.28121 2.69327 0
M  V30 3514 C 336.012 5.54255 2.06289 0
M  V30 3515 H 334.942 0.636292 0.404535 0
M  V30 3516 H 337.593 1.80459 0.332681 0
M  V30 3517 H 335.975 2.86132 2.7376 0
M  V30 3518 H 337.149 4.5853 0.456849 0
M  V30 3519 H 335.464 4.12481 0.569946 0
M  V30 3520 H 338.061 4.16673 3.35094 0
M  V30 3521 H 338.404 2.45426 3.36261 0
M  V30 3522 H 338.937 3.44762 1.98454 0
M  V30 3523 H 335.676 6.39513 1.43885 0
M  V30 3524 H 335.196 5.31935 2.77138 0
M  V30 3525 H 336.875 5.90159 2.65182 0
M  V30 3526 N 337.007 -0.598083 1.45811 0
M  V30 3527 C 337.955 -1.72932 1.55555 0
M  V30 3528 C 338.949 -1.63984 0.424921 0
M  V30 3529 O 340.155 -1.69663 0.601205 0
M  V30 3530 H 336.53 -0.571489 0.488779 0
M  V30 3531 H 338.501 -1.61842 2.50699 0
M  V30 3532 C 337.25 -3.11318 1.54843 0
M  V30 3533 H 336.573 -3.18867 2.41172 0
M  V30 3534 H 338.013 -3.90274 1.65717 0
M  V30 3535 C 336.472 -3.3578 0.274427 0
M  V30 3536 O 337.002 -3.9654 -0.641778 0
M  V30 3537 N 335.208 -2.90119 0.167139 0
M  V30 3538 H 334.755 -2.40855 0.913596 0
M  V30 3539 H 334.713 -3.0686 -0.684435 0
M  V30 3540 N 338.485 -1.33259 -0.841409 0
M  V30 3541 C 339.417 -1.19136 -1.95804 0
M  V30 3542 C 340.43 -0.122965 -1.62335 0
M  V30 3543 O 341.619 -0.373154 -1.74556 0
M  V30 3544 C 338.719 -0.804268 -3.29218 0
M  V30 3545 C 337.892 -1.96376 -3.90839 0
M  V30 3546 C 336.951 -1.55806 -5.02604 0
M  V30 3547 O 335.977 -2.27203 -5.21888 0
M  V30 3548 N 337.179 -0.461609 -5.78662 0
M  V30 3549 H 339.944 -2.15326 -2.08458 0
M  V30 3550 H 337.505 -1.25971 -1.017 0
M  V30 3551 H 339.497 -0.51501 -4.0141 0
M  V30 3552 H 338.067 0.0668809 -3.12528 0
M  V30 3553 H 337.287 -2.41879 -3.11269 0
M  V30 3554 H 338.575 -2.73966 -4.28742 0
M  V30 3555 H 337.973 0.132343 -5.65545 0
M  V30 3556 H 336.53 -0.232013 -6.51387 0
M  V30 3557 N 339.963 1.05934 -1.16686 0
M  V30 3558 C 340.893 2.1546 -0.899949 0
M  V30 3559 C 341.874 1.69391 0.155154 0
M  V30 3560 O 343.059 1.94199 0.00648693 0
M  V30 3561 C 340.189 3.44939 -0.404241 0
M  V30 3562 C 339.143 4.04536 -1.39767 0
M  V30 3563 C 338.469 5.29268 -0.760216 0
M  V30 3564 C 339.769 4.42893 -2.76845 0
M  V30 3565 H 341.463 2.38046 -1.81588 0
M  V30 3566 H 339.009 1.14404 -0.874514 0
M  V30 3567 H 340.962 4.20901 -0.204971 0
M  V30 3568 H 339.686 3.21983 0.547206 0
M  V30 3569 H 338.345 3.30635 -1.58355 0
M  V30 3570 H 337.993 5.02611 0.197831 0
M  V30 3571 H 337.693 5.70101 -1.42332 0
M  V30 3572 H 339.217 6.07924 -0.57105 0
M  V30 3573 H 340.631 5.09921 -2.62019 0
M  V30 3574 H 339.028 4.94721 -3.39663 0
M  V30 3575 H 340.098 3.53584 -3.31823 0
M  V30 3576 N 341.441 0.965919 1.2453 0
M  V30 3577 C 342.687 0.62776 1.92839 0
M  V30 3578 C 343.02 -0.834694 1.75347 0
M  V30 3579 O 342.295 -1.60031 1.10546 0
M  V30 3580 C 342.578 1.00109 3.45905 0
M  V30 3581 C 342.431 2.52011 3.72573 0
M  V30 3582 C 343.75 0.53435 4.36844 0
M  V30 3583 H 340.869 0.229537 0.700344 0
M  V30 3584 H 343.511 1.2046 1.46933 0
M  V30 3585 H 341.661 0.510238 3.85135 0
M  V30 3586 H 343.333 3.08559 3.42912 0
M  V30 3587 H 341.576 2.95287 3.17786 0
M  V30 3588 H 342.247 2.73183 4.79661 0
M  V30 3589 H 344.723 0.955565 4.04979 0
M  V30 3590 H 343.599 0.824152 5.42678 0
M  V30 3591 H 343.86 -0.565589 4.38467 0
M  V30 3592 N 342.919 -1.39368 0.735821 0
M  V30 3593 C 344.144 -2.05319 0.293052 0
M  V30 3594 C 344.569 -1.55115 -1.064 0
M  V30 3595 O 343.927 -0.695261 -1.67439 0
M  V30 3596 C 343.975 -3.59305 0.305323 0
M  V30 3597 O 343.079 -4.06299 -0.706761 0
M  V30 3598 H 342.42 -0.650529 0.13307 0
M  V30 3599 H 344.95 -1.78386 1.00197 0
M  V30 3600 H 344.96 -4.07724 0.149997 0
M  V30 3601 H 343.635 -3.95207 1.29553 0
M  V30 3602 H 342.212 -3.69292 -0.517504 0
M  V30 3603 N 344.397 -0.483516 -1.5 0
M  V30 3604 C 345.625 0.0644831 -2.06799 0
M  V30 3605 C 346.04 1.32399 -1.34596 0
M  V30 3606 O 345.397 1.77626 -0.418946 0
M  V30 3607 C 345.448 0.339927 -3.59898 0
M  V30 3608 O 345.169 -0.869635 -4.29382 0
M  V30 3609 C 346.67 0.933515 -4.33359 0
M  V30 3610 H 343.89 -0.0126333 -0.670881 0
M  V30 3611 H 346.434 -0.675864 -1.93009 0
M  V30 3612 H 344.589 1.03022 -3.7345 0
M  V30 3613 H 345.003 -0.62179 -5.20801 0
M  V30 3614 H 346.477 1.07593 -5.41413 0
M  V30 3615 H 346.954 1.92685 -3.94676 0
M  V30 3616 H 347.56 0.281221 -4.24369 0
M  V30 3617 N 345.875 1.56104 -0.216619 0
M  V30 3618 C 347.124 1.97348 0.416744 0
M  V30 3619 C 347.437 1.10715 1.6125 0
M  V30 3620 O 348.643 1.41836 2.31506 0
M  V30 3621 C 347.099 3.51059 0.792835 0
M  V30 3622 C 346.707 4.46387 -0.379828 0
M  V30 3623 C 348.451 4.01026 1.39208 0
M  V30 3624 C 346.358 5.91397 0.0184223 0
M  V30 3625 H 345.288 0.736942 0.159475 0
M  V30 3626 H 347.939 1.80827 -0.31205 0
M  V30 3627 H 346.321 3.63162 1.57891 0
M  V30 3628 H 347.495 4.46029 -1.15737 0
M  V30 3629 H 345.81 4.06734 -0.891979 0
M  V30 3630 H 348.407 5.0686 1.70286 0
M  V30 3631 H 348.75 3.46587 2.30614 0
M  V30 3632 H 349.283 3.92125 0.669537 0
M  V30 3633 H 346.022 6.49807 -0.862002 0
M  V30 3634 H 345.542 5.94961 0.760384 0
M  V30 3635 H 347.221 6.45455 0.446818 0
M  V30 3636 N 347.353 -0.0568162 1.57498 0
M  V30 3637 C 348.286 -1.09817 2.00039 0
M  V30 3638 C 349.264 -1.3674 0.879819 0
M  V30 3639 O 350.448 -1.49863 1.14338 0
M  V30 3640 C 347.575 -2.43924 2.34986 0
M  V30 3641 C 346.621 -2.33039 3.57204 0
M  V30 3642 S 347.454 -1.7102 5.07457 0
M  V30 3643 C 348.61 -3.06674 5.45621 0
M  V30 3644 H 348.843 -0.735701 2.88053 0
M  V30 3645 H 346.376 -0.265871 1.52094 0
M  V30 3646 H 348.334 -3.2106 2.55795 0
M  V30 3647 H 346.995 -2.77327 1.47474 0
M  V30 3648 H 346.188 -3.31973 3.79223 0
M  V30 3649 H 345.79 -1.64043 3.36104 0
M  V30 3650 H 348.082 -4.03 5.44608 0
M  V30 3651 H 349.025 -2.8942 6.46252 0
M  V30 3652 H 349.433 -3.07969 4.73091 0
M  V30 3653 N 348.832 -1.54138 -0.328536 0
M  V30 3654 C 350.057 -1.76378 -1.09112 0
M  V30 3655 C 350.482 -0.508596 -1.81094 0
M  V30 3656 O 349.84 0.539598 -1.73084 0
M  V30 3657 C 349.888 -2.95358 -2.06872 0
M  V30 3658 O 348.992 -2.66556 -3.14677 0
M  V30 3659 H 348.333 -0.584614 -0.314838 0
M  V30 3660 H 350.863 -2.01146 -0.374348 0
M  V30 3661 H 350.873 -3.22566 -2.4983 0
M  V30 3662 H 349.548 -3.86385 -1.5388 0
M  V30 3663 H 348.125 -2.50282 -2.7643 0
M  V30 3664 N 350.31 0.590341 -1.46126 0
M  V30 3665 C 351.273 1.68194 -1.55703 0
M  V30 3666 C 352.273 1.54808 -0.434868 0
M  V30 3667 O 353.463 1.59564 -0.698928 0
M  V30 3668 C 350.595 3.07575 -1.47005 0
M  V30 3669 H 351.788 1.61064 -2.52979 0
M  V30 3670 H 349.341 0.807541 -1.33823 0
M  V30 3671 H 350.076 3.20268 -0.509785 0
M  V30 3672 H 349.861 3.187 -2.28414 0
M  V30 3673 H 351.351 3.87055 -1.56776 0
M  V30 3674 N 351.788 1.33704 0.83433 0
M  V30 3675 C 353.013 1.28615 1.62705 0
M  V30 3676 C 353.438 -0.139242 1.87584 0
M  V30 3677 O 352.796 -1.09734 1.4432 0
M  V30 3678 C 352.844 2.07139 2.95171 0
M  V30 3679 O 351.948 1.4331 3.86699 0
M  V30 3680 H 351.289 0.44226 0.49528 0
M  V30 3681 H 353.819 1.76335 1.03766 0
M  V30 3682 H 353.829 2.18073 3.44831 0
M  V30 3683 H 352.504 3.10779 2.76386 0
M  V30 3684 H 351.081 1.4105 3.45195 0
M  V30 3685 N 353.266 -1.05314 1.17247 0
M  V30 3686 C 354.494 -1.81971 0.984593 0
M  V30 3687 C 354.909 -1.82929 -0.467166 0
M  V30 3688 O 354.266 -1.25564 -1.32438 0
M  V30 3689 C 354.317 -3.28143 1.51672 0
M  V30 3690 O 354.038 -3.27347 2.91163 0
M  V30 3691 C 355.539 -4.21493 1.37326 0
M  V30 3692 H 352.759 -0.573455 0.348411 0
M  V30 3693 H 355.303 -1.32808 1.55506 0
M  V30 3694 H 353.458 -3.74582 0.988302 0
M  V30 3695 H 353.872 -4.18824 3.15732 0
M  V30 3696 H 355.346 -5.22043 1.79375 0
M  V30 3697 H 355.823 -4.38031 0.320169 0
M  V30 3698 H 356.429 -3.80909 1.89178 0
M  V30 3699 N 354.744 -0.972509 -1.24016 0
M  V30 3700 C 355.972 -0.654803 -1.96265 0
M  V30 3701 C 356.387 0.776708 -1.72083 0
M  V30 3702 O 355.744 1.52171 -1.00748 0
M  V30 3703 C 355.795 -0.92592 -3.49441 0
M  V30 3704 O 355.516 -2.30116 -3.72798 0
M  V30 3705 C 357.017 -0.623068 -4.38899 0
M  V30 3706 H 354.237 -0.243907 -0.6251 0
M  V30 3707 H 356.781 -1.30175 -1.57717 0
M  V30 3708 H 354.936 -0.325108 -3.86033 0
M  V30 3709 H 355.35 -2.38483 -4.67147 0
M  V30 3710 H 356.824 -0.863189 -5.45209 0
M  V30 3711 H 357.301 0.442754 -4.36963 0
M  V30 3712 H 357.907 -1.204 -4.07902 0
M  V30 3713 N 356.222 1.38976 -0.743202 0
M  V30 3714 C 357.45 2.04636 -0.30525 0
M  V30 3715 C 357.865 1.56044 1.06281 0
M  V30 3716 O 357.222 0.728921 1.67311 0
M  V30 3717 C 357.273 3.60193 -0.307177 0
M  V30 3718 O 356.994 4.06998 -1.62124 0
M  V30 3719 C 358.495 4.4306 0.145928 0
M  V30 3720 H 355.715 0.65788 -0.132041 0
M  V30 3721 H 358.259 1.77866 -1.00915 0
M  V30 3722 H 356.414 3.85835 0.347898 0
M  V30 3723 H 356.828 5.01371 -1.54036 0
M  V30 3724 H 358.302 5.51921 0.0934183 0
M  V30 3725 H 358.779 4.22706 1.19231 0
M  V30 3726 H 359.385 4.22584 -0.479886 0
M  V30 3727 N 357.7 0.491464 1.49741 0
M  V30 3728 C 358.63 -0.28154 2.31796 0
M  V30 3729 C 359.611 -0.971473 1.3963 0
M  V30 3730 O 360.796 -0.964719 1.68543 0
M  V30 3731 C 357.926 -1.35203 3.19902 0
M  V30 3732 C 356.88 -0.782529 4.20786 0
M  V30 3733 C 356.206 -1.95283 4.97764 0
M  V30 3734 C 357.506 0.21999 5.21837 0
M  V30 3735 H 359.2 0.403355 2.96671 0
M  V30 3736 H 356.746 0.195425 1.42668 0
M  V30 3737 H 358.699 -1.90045 3.76113 0
M  V30 3738 H 357.423 -2.06598 2.52953 0
M  V30 3739 H 356.082 -0.255928 3.65706 0
M  V30 3740 H 355.73 -2.65423 4.2727 0
M  V30 3741 H 355.43 -1.57789 5.66018 0
M  V30 3742 H 356.954 -2.50577 5.56816 0
M  V30 3743 H 358.368 -0.23996 5.72798 0
M  V30 3744 H 356.765 0.51026 5.97927 0
M  V30 3745 H 357.835 1.13911 4.7133 0
M  V30 3746 N 359.178 -1.55987 0.224894 0
M  V30 3747 C 360.594 -1.59066 -0.130426 0
M  V30 3748 C 360.794 -1.24176 -1.5869 0
M  V30 3749 O 359.85 -0.978592 -2.32766 0
M  V30 3750 C 361.163 -3.00042 0.198883 0
M  V30 3751 C 362.711 -3.1268 0.141391 0
M  V30 3752 C 363.186 -4.55839 0.444422 0
M  V30 3753 N 364.677 -4.6152 0.394115 0
M  V30 3754 C 365.412 -5.70231 0.602038 0
M  V30 3755 N 364.908 -6.87291 0.871914 0
M  V30 3756 N 366.701 -5.59555 0.534245 0
M  V30 3757 H 358.852 -1.76941 1.17497 0
M  V30 3758 H 361.115 -0.822604 0.471197 0
M  V30 3759 H 360.821 -3.30234 1.2099 0
M  V30 3760 H 360.695 -3.74075 -0.484535 0
M  V30 3761 H 363.082 -2.82283 -0.860265 0
M  V30 3762 H 363.163 -2.40969 0.858335 0
M  V30 3763 H 362.807 -4.86954 1.44353 0
M  V30 3764 H 362.737 -5.2578 -0.293752 0
M  V30 3765 H 365.228 -3.77405 0.193356 0
M  V30 3766 H 365.541 -7.66058 1.01858 0
M  V30 3767 H 363.886 -6.89028 0.909145 0
M  V30 3768 H 367.077 -4.6698 0.323612 0
M  V30 3769 H 367.25 -6.44211 0.699693 0
M  V30 3770 N 360.656 0.0484629 -1.57525 0
M  V30 3771 C 361.886 0.754326 -1.92337 0
M  V30 3772 C 362.294 1.70443 -0.82132 0
M  V30 3773 O 361.637 1.82466 0.21254 0
M  V30 3774 C 361.699 1.58231 -3.22805 0
M  V30 3775 C 361.363 0.799074 -4.4996 0
M  V30 3776 C 362.36 0.1079 -5.19788 0
M  V30 3777 C 360.045 0.759345 -4.96527 0
M  V30 3778 C 362.039 -0.612516 -6.3445 0
M  V30 3779 C 359.726 0.0351713 -6.1109 0
M  V30 3780 C 360.724 -0.649537 -6.79904 0
M  V30 3781 O 360.412 -1.36199 -7.92278 0
M  V30 3782 H 360.144 0.218257 -0.639797 0
M  V30 3783 H 362.698 0.0159295 -2.05394 0
M  V30 3784 H 360.928 2.36406 -3.06021 0
M  V30 3785 H 362.617 2.16898 -3.43089 0
M  V30 3786 H 363.383 0.129748 -4.84826 0
M  V30 3787 H 359.262 1.28177 -4.42822 0
M  V30 3788 H 362.806 -1.14751 -6.88097 0
M  V30 3789 H 358.703 0.0113314 -6.45499 0
M  V30 3790 H 359.471 -1.27366 -8.0853 0
M  V30 3791 N 362.134 1.5431 0.320358 0
M  V30 3792 C 363.545 1.63872 0.894594 0
M  V30 3793 C 363.896 0.534847 1.88769 0
M  V30 3794 O 363.021 -0.331732 2.13842 0
M  V30 3795 C 363.616 2.97049 1.62934 0
M  V30 3796 C 362.175 3.08796 2.15226 0
M  V30 3797 C 361.322 2.59456 0.978671 0
M  V30 3798 H 364.273 1.58398 0.0978544 0
M  V30 3799 H 364.294 2.87388 2.49376 0
M  V30 3800 H 363.806 3.7737 0.906302 0
M  V30 3801 H 361.907 2.33156 2.90636 0
M  V30 3802 H 362.02 4.14649 2.40006 0
M  V30 3803 H 360.384 2.1543 1.35875 0
M  V30 3804 H 361.167 3.42237 0.269895 0
M  V30 3805 N 363.613 -0.582584 1.46437 0
M  V30 3806 C 364.861 -1.33814 1.51453 0
M  V30 3807 C 365.182 -1.94277 0.167792 0
M  V30 3808 O 364.452 -1.78566 -0.805677 0
M  V30 3809 H 363.032 -0.496838 0.557818 0
M  V30 3810 H 365.694 -0.682281 1.82568 0
M  V30 3811 H 364.79 -2.14479 2.26728 0
M  V30 3812 N 365.091 -1.34144 -0.827227 0
M  V30 3813 C 366.321 -1.29138 -1.61267 0
M  V30 3814 C 366.729 0.137597 -1.88699 0
M  V30 3815 O 366.072 1.09379 -1.47587 0
M  V30 3816 C 366.134 -2.0097 -2.9808 0
M  V30 3817 C 365.798 -3.50242 -2.93563 0
M  V30 3818 C 366.795 -4.4523 -2.68452 0
M  V30 3819 C 364.48 -3.92592 -3.13331 0
M  V30 3820 C 366.474 -5.80542 -2.63154 0
M  V30 3821 C 364.161 -5.28005 -3.07658 0
M  V30 3822 C 365.159 -6.21792 -2.82602 0
M  V30 3823 O 364.847 -7.54723 -2.76853 0
M  V30 3824 H 364.579 -0.445851 -0.508127 0
M  V30 3825 H 367.133 -1.77263 -1.03763 0
M  V30 3826 H 365.363 -1.47451 -3.57484 0
M  V30 3827 H 367.052 -1.89309 -3.5905 0
M  V30 3828 H 367.818 -4.13832 -2.52919 0
M  V30 3829 H 363.697 -3.19994 -3.31851 0
M  V30 3830 H 367.241 -6.53717 -2.43516 0
M  V30 3831 H 363.138 -5.59023 -3.22743 0
M  V30 3832 H 363.906 -7.64409 -2.92611 0
M  V30 3833 N 366.569 1.04691 -1.17803 0
M  V30 3834 C 367.502 2.12068 -0.842765 0
M  V30 3835 C 368.48 1.61455 0.192608 0
M  V30 3836 O 369.664 1.88359 0.072995 0
M  V30 3837 C 366.791 3.37715 -0.258063 0
M  V30 3838 C 365.837 4.07164 -1.26962 0
M  V30 3839 S 366.67 4.55047 -2.82299 0
M  V30 3840 C 367.826 5.83935 -2.25323 0
M  V30 3841 H 368.059 2.4018 -1.75217 0
M  V30 3842 H 365.592 1.17366 -1.00323 0
M  V30 3843 H 367.55 4.10435 0.0727935 0
M  V30 3844 H 366.211 3.0773 0.629357 0
M  V30 3845 H 365.404 4.9746 -0.809263 0
M  V30 3846 H 365.006 3.40533 -1.54639 0
M  V30 3847 H 367.298 6.57552 -1.63192 0
M  V30 3848 H 368.241 6.34725 -3.13894 0
M  V30 3849 H 368.649 5.3874 -1.68582 0
M  V30 3850 N 368.047 0.979072 1.23499 0
M  V30 3851 C 368.995 0.510604 2.26926 0
M  V30 3852 C 369.989 -0.431691 1.63807 0
M  V30 3853 O 371.195 -0.30573 1.77385 0
M  V30 3854 H 367.57 0.146688 0.737554 0
M  V30 3855 H 369.541 1.39466 2.63803 0
M  V30 3856 C 368.29 -0.172658 3.47271 0
M  V30 3857 H 367.613 0.543331 3.96091 0
M  V30 3858 H 369.053 -0.464101 4.21452 0
M  V30 3859 C 367.512 -1.40345 3.06276 0
M  V30 3860 O 368.042 -2.49978 3.14442 0
M  V30 3861 N 366.248 -1.27362 2.61203 0
M  V30 3862 H 365.795 -0.381584 2.54758 0
M  V30 3863 H 365.753 -2.09822 2.34141 0
M  V30 3864 N 369.525 -1.3858 0.750561 0
M  V30 3865 C 370.473 -2.32339 0.110162 0
M  V30 3866 C 371.467 -1.53864 -0.708674 0
M  V30 3867 O 372.673 -1.69417 -0.608112 0
M  V30 3868 H 369.048 -0.751812 0.0168275 0
M  V30 3869 H 371.019 -2.83959 0.917053 0
M  V30 3870 C 369.768 -3.39043 -0.771067 0
M  V30 3871 H 369.091 -3.99517 -0.150374 0
M  V30 3872 H 370.531 -4.07061 -1.1865 0
M  V30 3873 C 368.99 -2.77365 -1.91234 0
M  V30 3874 O 369.52 -2.66434 -3.00626 0
M  V30 3875 N 367.726 -2.35219 -1.70646 0
M  V30 3876 H 367.273 -2.4431 -0.81673 0
M  V30 3877 H 367.231 -1.94294 -2.47178 0
M  V30 3878 N 371.003 -0.499398 -1.49478 0
M  V30 3879 C 372.28 0.108629 -1.95298 0
M  V30 3880 C 372.66 1.54282 -1.44084 0
M  V30 3881 O 372.008 2.18944 -0.653908 0
M  V30 3882 C 372.218 0.0229111 -3.48992 0
M  V30 3883 C 373.566 0.197643 -4.2414 0
M  V30 3884 O 374.59 0.0981735 -3.56065 0
M  V30 3885 O 373.449 0.401669 -5.45022 0
M  V30 3886 H 370.543 0.096181 -0.821388 0
M  V30 3887 H 373.089 -0.561822 -1.6013 0
M  V30 3888 H 371.861 -0.977321 -3.78899 0
M  V30 3889 H 371.484 0.733579 -3.90774 0
M  V30 3890 N 372.481 1.55866 -0.233164 0
M  V30 3891 C 373.411 2.23783 0.666599 0
M  V30 3892 C 374.392 1.21343 1.19205 0
M  V30 3893 O 375.577 1.4996 1.23392 0
M  V30 3894 C 372.707 2.92671 1.86978 0
M  V30 3895 C 371.661 4.01682 1.47768 0
M  V30 3896 C 370.987 4.57926 2.76058 0
M  V30 3897 C 372.287 5.18126 0.658993 0
M  V30 3898 H 373.981 2.99232 0.100306 0
M  V30 3899 H 371.527 1.43924 0.046804 0
M  V30 3900 H 373.48 3.3888 2.50476 0
M  V30 3901 H 372.204 2.14688 2.46123 0
M  V30 3902 H 370.863 3.56222 0.866106 0
M  V30 3903 H 370.511 3.76659 3.33372 0
M  V30 3904 H 370.211 5.31505 2.50552 0
M  V30 3905 H 371.735 5.06859 3.40479 0
M  V30 3906 H 373.149 5.60644 1.19795 0
M  V30 3907 H 371.546 5.98009 0.500552 0
M  V30 3908 H 372.616 4.83763 -0.331856 0
M  V30 3909 N 373.959 -0.0401083 1.57549 0
M  V30 3910 C 375.208 -0.732108 1.87944 0
M  V30 3911 C 375.521 -1.77107 0.830206 0
M  V30 3912 O 376.727 -2.51488 1.02302 0
M  V30 3913 C 375.183 -1.35315 3.33494 0
M  V30 3914 C 374.791 -0.351105 4.46622 0
M  V30 3915 C 376.535 -2.02566 3.73051 0
M  V30 3916 C 374.442 -0.979859 5.83226 0
M  V30 3917 H 373.372 -0.277188 0.701201 0
M  V30 3918 H 376.023 0.0138501 1.83495 0
M  V30 3919 H 374.405 -2.14844 3.32653 0
M  V30 3920 H 375.579 0.416674 4.58912 0
M  V30 3921 H 373.894 0.218708 4.15825 0
M  V30 3922 H 376.491 -2.50441 4.72423 0
M  V30 3923 H 376.834 -2.83904 3.04474 0
M  V30 3924 H 377.367 -1.29827 3.76018 0
M  V30 3925 H 374.106 -0.206135 6.55176 0
M  V30 3926 H 373.626 -1.71774 5.74677 0
M  V30 3927 H 375.305 -1.49046 6.29599 0
M  V30 3928 N 375.437 -1.54477 -0.31217 0
M  V30 3929 C 376.685 -1.72884 -1.04668 0
M  V30 3930 C 377.006 -0.511477 -1.88173 0
M  V30 3931 O 376.276 0.474407 -1.90069 0
M  V30 3932 H 374.856 -0.637461 -0.389425 0
M  V30 3933 H 377.518 -1.91807 -0.345852 0
M  V30 3934 H 376.614 -2.61334 -1.70619 0
M  V30 3935 N 376.915 0.57481 -1.46744 0
M  V30 3936 C 377.845 1.69337 -1.60771 0
M  V30 3937 C 378.826 1.63825 -0.457736 0
M  V30 3938 O 380.011 1.8172 -0.684947 0
M  V30 3939 C 377.141 3.0798 -1.60517 0
M  V30 3940 C 376.095 3.28327 -2.74564 0
M  V30 3941 C 375.421 4.67578 -2.59373 0
M  V30 3942 C 376.721 3.15398 -4.16319 0
M  V30 3943 H 378.415 1.57853 -2.54407 0
M  V30 3944 H 375.961 0.75799 -1.22436 0
M  V30 3945 H 377.914 3.86061 -1.68923 0
M  V30 3946 H 376.638 3.20381 -0.634305 0
M  V30 3947 H 375.297 2.52649 -2.65639 0
M  V30 3948 H 374.945 4.76755 -1.60353 0
M  V30 3949 H 374.645 4.82144 -3.35873 0
M  V30 3950 H 376.169 5.47817 -2.69682 0
M  V30 3951 H 377.583 3.83315 -4.26313 0
M  V30 3952 H 375.98 3.41482 -4.93468 0
M  V30 3953 H 377.05 2.12372 -4.3592 0
M  V30 3954 N 378.394 1.34581 0.820102 0
M  V30 3955 C 379.643 1.26437 1.57151 0
M  V30 3956 C 379.956 -0.163111 1.94919 0
M  V30 3957 O 381.162 -0.366722 2.69012 0
M  V30 3958 C 379.618 2.21658 2.83541 0
M  V30 3959 C 379.226 3.69679 2.53065 0
M  V30 3960 C 380.97 2.22428 3.61561 0
M  V30 3961 C 378.877 4.56761 3.75664 0
M  V30 3962 H 377.807 0.469707 0.589823 0
M  V30 3963 H 380.458 1.59763 0.902656 0
M  V30 3964 H 378.84 1.81287 3.52067 0
M  V30 3965 H 380.014 4.18605 1.92631 0
M  V30 3966 H 378.329 3.71384 1.88316 0
M  V30 3967 H 380.926 2.8471 4.52597 0
M  V30 3968 H 381.269 1.22434 3.97889 0
M  V30 3969 H 381.802 2.61259 2.99981 0
M  V30 3970 H 378.541 5.57702 3.44454 0
M  V30 3971 H 378.061 4.12568 4.35371 0
M  V30 3972 H 379.74 4.71509 4.43044 0
M  V30 3973 N 379.872 -1.04064 1.18357 0
M  V30 3974 C 380.835 -2.10243 0.912707 0
M  V30 3975 C 381.835 -1.60477 -0.101928 0
M  V30 3976 O 383.025 -1.73703 0.131517 0
M  V30 3977 C 380.157 -3.38893 0.369387 0
M  V30 3978 H 381.35 -2.35706 1.85426 0
M  V30 3979 H 378.903 -1.20489 0.995594 0
M  V30 3980 H 379.638 -3.19094 -0.578776 0
M  V30 3981 H 379.423 -3.76331 1.1008 0
M  V30 3982 H 380.913 -4.17128 0.198575 0
M  V30 3983 N 381.35 -0.985608 -1.22978 0
M  V30 3984 C 382.575 -0.675254 -1.961 0
M  V30 3985 C 383 0.752154 -1.72407 0
M  V30 3986 O 382.358 1.5131 -0.998751 0
M  V30 3987 C 382.406 -0.977899 -3.47087 0
M  V30 3988 O 381.51 -0.072685 -4.12336 0
M  V30 3989 H 380.851 -0.253443 -0.613728 0
M  V30 3990 H 383.381 -1.32061 -1.56272 0
M  V30 3991 H 383.391 -0.916739 -3.97567 0
M  V30 3992 H 382.066 -2.01807 -3.63657 0
M  V30 3993 H 380.643 -0.188703 -3.72422 0
M  V30 3994 N 382.828 1.3818 -0.7579 0
M  V30 3995 C 383.758 2.33027 -0.148597 0
M  V30 3996 C 384.739 1.55085 0.69875 0
M  V30 3997 O 385.924 1.83384 0.639053 0
M  V30 3998 C 383.054 3.3928 0.742034 0
M  V30 3999 C 382.008 4.28 -0.00291946 0
M  V30 4000 C 381.334 5.25146 1.00625 0
M  V30 4001 C 382.634 5.08938 -1.17385 0
M  V30 4002 H 384.328 2.84231 -0.940909 0
M  V30 4003 H 381.874 1.36659 -0.453908 0
M  V30 4004 H 383.827 4.046 1.17799 0
M  V30 4005 H 382.551 2.86569 1.56671 0
M  V30 4006 H 381.21 3.64192 -0.419504 0
M  V30 4007 H 380.858 4.68721 1.8251 0
M  V30 4008 H 380.558 5.85361 0.512428 0
M  V30 4009 H 382.082 5.93342 1.44143 0
M  V30 4010 H 383.496 5.67474 -0.815224 0
M  V30 4011 H 381.893 5.7841 -1.59882 0
M  V30 4012 H 382.963 4.42424 -1.98468 0
M  V30 4013 N 384.306 0.507319 1.49211 0
M  V30 4014 C 385.555 -0.0368315 2.01666 0
M  V30 4015 C 385.868 -1.37459 1.39156 0
M  V30 4016 O 387.074 -2.00579 1.82976 0
M  V30 4017 C 385.53 -0.116089 3.59713 0
M  V30 4018 C 385.138 1.2154 4.31198 0
M  V30 4019 C 386.882 -0.610268 4.2009 0
M  V30 4020 C 384.789 1.09796 5.81119 0
M  V30 4021 H 383.719 -0.0175376 0.753796 0
M  V30 4022 H 386.37 0.647691 1.71689 0
M  V30 4023 H 384.752 -0.8652 3.86433 0
M  V30 4024 H 385.926 1.9783 4.16173 0
M  V30 4025 H 384.241 1.64352 3.82593 0
M  V30 4026 H 386.838 -0.715742 5.29888 0
M  V30 4027 H 387.181 -1.61064 3.8388 0
M  V30 4028 H 387.714 0.0824916 3.97714 0
M  V30 4029 H 384.453 2.0728 6.21864 0
M  V30 4030 H 383.973 0.376058 5.9862 0
M  V30 4031 H 385.652 0.779281 6.4229 0
M  V30 4032 N 385.784 -1.5574 0.241426 0
M  V30 4033 C 387.195 -1.84842 -0.262755 0
M  V30 4034 C 387.546 -1.16317 -1.58003 0
M  V30 4035 O 386.671 -0.439653 -2.11887 0
M  V30 4036 C 387.266 -3.35332 -0.483523 0
M  V30 4037 C 385.825 -3.6468 -0.931977 0
M  V30 4038 C 384.972 -2.77299 -0.0061151 0
M  V30 4039 H 387.923 -1.51761 0.464129 0
M  V30 4040 H 387.944 -3.56615 -1.32688 0
M  V30 4041 H 387.456 -3.85178 0.47537 0
M  V30 4042 H 385.557 -3.20307 -1.90353 0
M  V30 4043 H 385.67 -4.72498 -0.792628 0
M  V30 4044 H 384.034 -2.49408 -0.516503 0
M  V30 4045 H 384.817 -3.2995 0.948052 0
M  V30 4046 N 387.262 0.0317525 -1.57568 0
M  V30 4047 C 388.49 0.734949 -1.93407 0
M  V30 4048 C 388.905 1.69036 -0.84096 0
M  V30 4049 O 388.262 1.81582 0.182836 0
M  V30 4050 C 388.313 1.49432 -3.29169 0
M  V30 4051 O 388.034 0.577261 -4.3428 0
M  V30 4052 C 389.535 2.29492 -3.79273 0
M  V30 4053 H 386.755 0.206706 -0.638368 0
M  V30 4054 H 389.299 -0.00992046 -2.04498 0
M  V30 4055 H 387.454 2.1911 -3.19483 0
M  V30 4056 H 387.868 1.10952 -5.1263 0
M  V30 4057 H 389.342 2.78172 -4.76785 0
M  V30 4058 H 389.819 3.10794 -3.10328 0
M  V30 4059 H 390.425 1.64894 -3.92033 0
M  V30 4060 N 388.74 1.54641 0.303973 0
M  V30 4061 C 390.151 1.64811 0.877163 0
M  V30 4062 C 390.502 0.554838 1.88191 0
M  V30 4063 O 389.627 -0.309033 2.14182 0
M  V30 4064 C 390.222 2.9876 1.59775 0
M  V30 4065 C 388.781 3.11061 2.11938 0
M  V30 4066 C 387.928 2.60479 0.951097 0
M  V30 4067 H 390.879 1.58493 0.0810486 0
M  V30 4068 H 390.9 2.90017 2.46314 0
M  V30 4069 H 390.412 3.7831 0.866226 0
M  V30 4070 H 388.513 2.36225 2.88146 0
M  V30 4071 H 388.626 4.17171 2.35595 0
M  V30 4072 H 386.99 2.16859 1.33583 0
M  V30 4073 H 387.773 3.42504 0.233581 0
M  V30 4074 N 390.218 -0.567019 1.47046 0
M  V30 4075 C 391.634 -0.891975 1.32348 0
M  V30 4076 C 391.834 -1.99154 0.306616 0
M  V30 4077 O 390.89 -2.50883 -0.28532 0
M  V30 4078 C 392.203 -1.29449 2.7141 0
M  V30 4079 C 393.751 -1.40646 2.79621 0
M  V30 4080 C 394.226 -1.84257 4.19301 0
M  V30 4081 N 395.717 -1.91424 4.21795 0
M  V30 4082 C 396.452 -2.26476 5.26779 0
M  V30 4083 N 395.948 -2.60211 6.42077 0
M  V30 4084 N 397.741 -2.27166 5.14152 0
M  V30 4085 H 389.892 0.159074 2.11803 0
M  V30 4086 H 392.155 0.00849752 0.947962 0
M  V30 4087 H 391.861 -0.560448 3.47206 0
M  V30 4088 H 391.735 -2.25273 3.02542 0
M  V30 4089 H 394.122 -2.13133 2.04104 0
M  V30 4090 H 394.203 -0.430339 2.52154 0
M  V30 4091 H 393.847 -1.12343 4.95319 0
M  V30 4092 H 393.777 -2.82855 4.44185 0
M  V30 4093 H 396.268 -1.6778 3.38612 0
M  V30 4094 H 396.581 -2.85956 7.17948 0
M  V30 4095 H 394.926 -2.57813 6.45413 0
M  V30 4096 H 398.117 -2.00244 4.23107 0
M  V30 4097 H 398.29 -2.54154 5.96079 0
M  V30 4098 N 391.696 -1.35014 -0.812953 0
M  V30 4099 C 392.626 -1.30069 -1.93919 0
M  V30 4100 C 393.607 -0.176275 -1.69184 0
M  V30 4101 O 394.792 -0.370227 -1.90638 0
M  V30 4102 C 391.922 -1.06547 -3.30552 0
M  V30 4103 C 390.876 -2.15561 -3.69753 0
M  V30 4104 C 390.202 -1.77214 -5.04479 0
M  V30 4105 C 391.502 -3.57476 -3.808 0
M  V30 4106 H 393.196 -2.24303 -1.98314 0
M  V30 4107 H 390.742 -1.07977 -0.952736 0
M  V30 4108 H 392.695 -1.01729 -4.08937 0
M  V30 4109 H 391.419 -0.0875719 -3.26483 0
M  V30 4110 H 390.078 -2.19466 -2.9365 0
M  V30 4111 H 389.726 -0.780589 -4.96906 0
M  V30 4112 H 389.426 -2.50184 -5.31678 0
M  V30 4113 H 390.95 -1.7391 -5.8531 0
M  V30 4114 H 392.364 -3.55929 -4.4943 0
M  V30 4115 H 390.761 -4.29152 -4.19462 0
M  V30 4116 H 391.831 -3.94091 -2.82525 0
M  V30 4117 N 393.175 1.03435 -1.18907 0
M  V30 4118 C 394.125 2.09924 -0.889706 0
M  V30 4119 C 395.109 1.60261 0.143216 0
M  V30 4120 O 396.301 1.76892 -0.0617122 0
M  V30 4121 C 393.43 3.40669 -0.424168 0
M  V30 4122 C 392.516 3.97082 -1.48952 0
M  V30 4123 N 392.907 4.27227 -2.70759 0
M  V30 4124 C 391.205 4.25029 -1.35152 0
M  V30 4125 C 391.906 4.7246 -3.39347 0
M  V30 4126 N 390.882 4.7366 -2.66735 0
M  V30 4127 H 394.684 2.31116 -1.81555 0
M  V30 4128 H 392.198 1.21246 -1.08042 0
M  V30 4129 H 394.195 4.16461 -0.191176 0
M  V30 4130 H 392.855 3.20901 0.495263 0
M  V30 4131 H 393.866 4.16678 -3.0757 0
M  V30 4132 H 390.543 4.14554 -0.495126 0
M  V30 4133 H 391.933 5.04751 -4.43481 0
M  V30 4134 N 394.653 0.992116 1.22453 0
M  V30 4135 C 395.9 0.667534 1.91181 0
M  V30 4136 C 396.228 -0.800317 1.77271 0
M  V30 4137 O 395.483 -1.59421 1.13505 0
M  V30 4138 C 395.782 1.01832 3.42586 0
M  V30 4139 C 395.448 2.47831 3.76684 0
M  V30 4140 C 394.11 2.87729 3.85701 0
M  V30 4141 C 396.462 3.42466 3.92895 0
M  V30 4142 C 393.79 4.21252 4.08367 0
M  V30 4143 C 396.142 4.75648 4.17064 0
M  V30 4144 C 394.806 5.15288 4.24305 0
M  V30 4145 H 394.076 0.244268 0.699581 0
M  V30 4146 H 396.723 1.24816 1.45235 0
M  V30 4147 H 395.028 0.355769 3.90181 0
M  V30 4148 H 396.725 0.745228 3.94014 0
M  V30 4149 H 393.315 2.15905 3.70247 0
M  V30 4150 H 397.499 3.12814 3.85307 0
M  V30 4151 H 392.755 4.51554 4.122 0
M  V30 4152 H 396.929 5.48924 4.2855 0
M  V30 4153 H 394.556 6.18769 4.41621 0
M  V30 4154 N 396.131 -1.37776 0.765217 0
M  V30 4155 C 397.061 -2.32945 0.160953 0
M  V30 4156 C 398.042 -1.55454 -0.690516 0
M  V30 4157 O 399.227 -1.83721 -0.629318 0
M  V30 4158 C 396.357 -3.39669 -0.724031 0
M  V30 4159 C 395.311 -4.27992 0.0256173 0
M  V30 4160 C 394.637 -5.25673 -0.978383 0
M  V30 4161 C 395.937 -5.08309 1.20082 0
M  V30 4162 H 397.631 -2.83728 0.955969 0
M  V30 4163 H 395.177 -1.36416 0.461149 0
M  V30 4164 H 397.13 -4.05219 -1.15652 0
M  V30 4165 H 395.854 -2.87396 -1.5515 0
M  V30 4166 H 394.513 -3.63964 0.438812 0
M  V30 4167 H 394.161 -4.69682 -1.80022 0
M  V30 4168 H 393.861 -5.85625 -0.481378 0
M  V30 4169 H 395.385 -5.94098 -1.40995 0
M  V30 4170 H 396.799 -5.67034 0.845307 0
M  V30 4171 H 395.196 -5.77554 1.62947 0
M  V30 4172 H 396.266 -4.41365 2.00811 0
M  V30 4173 N 397.609 -0.515225 -1.4894 0
M  V30 4174 C 398.542 0.302518 -2.26186 0
M  V30 4175 C 399.52 0.957895 -1.31389 0
M  V30 4176 O 400.704 0.985198 -1.60705 0
M  V30 4177 C 397.831 1.42719 -3.07163 0
M  V30 4178 C 396.877 0.884736 -4.17223 0
M  V30 4179 S 397.71 -0.235767 -5.34981 0
M  V30 4180 C 398.866 0.891731 -6.19515 0
M  V30 4181 H 399.099 -0.353076 -2.95196 0
M  V30 4182 H 396.632 -0.300753 -1.51443 0
M  V30 4183 H 398.59 2.07152 -3.54398 0
M  V30 4184 H 397.251 2.05445 -2.37595 0
M  V30 4185 H 396.444 1.72801 -4.73451 0
M  V30 4186 H 396.046 0.317362 -3.72651 0
M  V30 4187 H 398.338 1.79377 -6.53322 0
M  V30 4188 H 399.281 0.367751 -7.07144 0
M  V30 4189 H 399.689 1.16548 -5.52338 0
M  V30 4190 N 399.087 1.5561 -0.249682 0
M  V30 4191 C 400.315 2.03411 0.378352 0
M  V30 4192 C 400.73 1.12886 1.51335 0
M  V30 4193 O 400.087 0.143833 1.81932 0
M  V30 4194 C 400.138 3.50537 0.88351 0
M  V30 4195 O 399.859 4.37614 -0.20626 0
M  V30 4196 C 401.36 4.14113 1.58195 0
M  V30 4197 H 398.58 0.664994 0.08958 0
M  V30 4198 H 401.124 2.01044 -0.374357 0
M  V30 4199 H 399.279 3.5343 1.58639 0
M  V30 4200 H 399.693 5.24199 0.177782 0
M  V30 4201 H 401.167 5.18741 1.8871 0
M  V30 4202 H 401.644 3.60767 2.50487 0
M  V30 4203 H 402.25 4.15151 0.923573 0
M  V30 4204 N 400.565 -0.0233959 1.57583 0
M  V30 4205 C 401.813 -0.711654 1.89156 0
M  V30 4206 C 402.134 -1.75591 0.848096 0
M  V30 4207 O 401.404 -1.95547 -0.117566 0
M  V30 4208 H 399.984 -0.265835 0.698098 0
M  V30 4209 H 402.646 0.0119948 1.94896 0
M  V30 4210 H 401.742 -1.19766 2.88206 0
M  V30 4211 N 402.043 -1.548 -0.295768 0
M  V30 4212 C 403.273 -1.78069 -1.04762 0
M  V30 4213 C 403.681 -0.542847 -1.81245 0
M  V30 4214 O 403.024 0.497051 -1.76848 0
M  V30 4215 C 403.086 -2.93881 -2.07061 0
M  V30 4216 C 402.75 -4.31777 -1.49725 0
M  V30 4217 C 403.747 -5.11613 -0.924581 0
M  V30 4218 C 401.432 -4.78389 -1.5313 0
M  V30 4219 C 403.426 -6.36184 -0.393594 0
M  V30 4220 C 401.113 -6.02921 -0.996447 0
M  V30 4221 C 402.111 -6.81654 -0.428569 0
M  V30 4222 O 401.799 -8.0384 0.0981593 0
M  V30 4223 H 401.531 -0.597475 -0.316226 0
M  V30 4224 H 404.085 -2.02584 -0.338973 0
M  V30 4225 H 402.315 -2.65003 -2.81621 0
M  V30 4226 H 404.004 -3.04679 -2.6819 0
M  V30 4227 H 404.77 -4.76743 -0.891136 0
M  V30 4228 H 400.649 -4.17132 -1.9627 0
M  V30 4229 H 404.193 -6.97582 0.0503014 0
M  V30 4230 H 400.09 -6.37277 -1.02706 0
M  V30 4231 H 400.858 -8.18499 -0.0146455 0
M  V30 4232 N 403.521 0.559213 -1.47345 0
M  V30 4233 C 404.749 1.34194 -1.57479 0
M  V30 4234 C 405.164 1.87463 -0.224261 0
M  V30 4235 O 404.521 1.64888 0.782185 0
M  V30 4236 C 404.572 2.51324 -2.59843 0
M  V30 4237 O 404.293 2.00256 -3.89653 0
M  V30 4238 C 405.794 3.43563 -2.80142 0
M  V30 4239 H 403.014 0.409136 -0.531835 0
M  V30 4240 H 405.558 0.677609 -1.92947 0
M  V30 4241 H 403.713 3.13699 -2.27314 0
M  V30 4242 H 404.127 2.76708 -4.4557 0
M  V30 4243 H 405.601 4.2217 -3.55635 0
M  V30 4244 H 406.078 3.9698 -1.87892 0
M  V30 4245 H 406.684 2.87005 -3.1386 0
M  V30 4246 N 404.999 1.35443 0.805782 0
M  V30 4247 C 406.41 1.25768 1.37983 0
M  V30 4248 C 406.761 -0.10958 1.95894 0
M  V30 4249 O 405.886 -1.01056 1.91355 0
M  V30 4250 C 406.481 2.27727 2.5085 0
M  V30 4251 C 405.04 2.2179 3.04115 0
M  V30 4252 C 404.187 2.13393 1.77084 0
M  V30 4253 H 407.138 1.4656 0.608752 0
M  V30 4254 H 407.159 1.90422 3.29424 0
M  V30 4255 H 406.671 3.27227 2.08671 0
M  V30 4256 H 404.772 1.25703 3.50756 0
M  V30 4257 H 404.885 3.13788 3.62042 0
M  V30 4258 H 403.249 1.59384 1.98668 0
M  V30 4259 H 404.032 3.14755 1.37056 0
M  V30 4260 N 406.477 -1.02803 1.19454 0
M  V30 4261 C 407.407 -2.12999 0.956758 0
M  V30 4262 C 408.388 -1.69743 -0.110188 0
M  V30 4263 O 409.573 -1.94148 0.0450038 0
M  V30 4264 C 406.703 -3.43746 0.495553 0
M  V30 4265 C 405.657 -4.00688 1.50443 0
M  V30 4266 C 404.983 -5.27067 0.900275 0
M  V30 4267 C 406.283 -4.35397 2.8849 0
M  V30 4268 H 407.977 -2.33148 1.87836 0
M  V30 4269 H 405.523 -1.12045 0.904539 0
M  V30 4270 H 407.476 -4.2021 0.316493 0
M  V30 4271 H 406.2 -3.23321 -0.461646 0
M  V30 4272 H 404.859 -3.2632 1.67065 0
M  V30 4273 H 404.507 -5.02959 -0.064503 0
M  V30 4274 H 404.207 -5.66127 1.57397 0
M  V30 4275 H 405.731 -6.06196 0.73203 0
M  V30 4276 H 407.145 -5.02795 2.75446 0
M  V30 4277 H 405.542 -4.85541 3.52661 0
M  V30 4278 H 406.612 -3.44662 3.41081 0
M  V30 4279 N 407.956 -0.998596 -1.21925 0
M  V30 4280 C 409.184 -0.696286 -1.94832 0
M  V30 4281 C 409.599 0.740032 -1.73692 0
M  V30 4282 O 408.956 1.5 -1.03953 0
M  V30 4283 C 409.007 -0.999833 -3.47398 0
M  V30 4284 O 408.728 -2.37972 -3.67833 0
M  V30 4285 C 410.229 -0.716025 -4.37479 0
M  V30 4286 H 407.449 -0.257111 -0.619786 0
M  V30 4287 H 409.993 -1.33491 -1.54921 0
M  V30 4288 H 408.148 -0.406918 -3.85257 0
M  V30 4289 H 408.562 -2.48338 -4.61983 0
M  V30 4290 H 410.036 -0.978642 -5.43256 0
M  V30 4291 H 410.513 0.349968 -4.37803 0
M  V30 4292 H 411.119 -1.29025 -4.05256 0
M  V30 4293 N 409.434 1.37368 -0.772513 0
M  V30 4294 C 410.662 2.03942 -0.348588 0
M  V30 4295 C 411.077 1.58264 1.02947 0
M  V30 4296 O 410.434 0.764246 1.65727 0
M  V30 4297 C 410.485 3.5946 -0.38351 0
M  V30 4298 O 410.206 4.03468 -1.70721 0
M  V30 4299 C 411.707 4.4327 0.0519152 0
M  V30 4300 H 408.927 0.654931 -0.145966 0
M  V30 4301 H 411.471 1.75686 -1.04665 0
M  V30 4302 H 409.626 3.86486 0.265978 0
M  V30 4303 H 410.04 4.97991 -1.64636 0
M  V30 4304 H 411.514 5.51995 -0.0236733 0
M  V30 4305 H 411.991 4.2514 1.10238 0
M  V30 4306 H 412.597 4.21471 -0.569415 0
M  V30 4307 N 410.912 0.523116 1.48665 0
M  V30 4308 C 412.189 -0.0775449 1.95446 0
M  V30 4309 C 412.569 -1.5197 1.4652 0
M  V30 4310 O 411.917 -2.17876 0.688657 0
M  V30 4311 C 412.127 0.0326135 3.48985 0
M  V30 4312 C 413.475 -0.130141 4.24401 0
M  V30 4313 O 414.499 -0.0415142 3.56176 0
M  V30 4314 O 413.358 -0.31491 5.45592 0
M  V30 4315 H 410.452 -0.0831012 0.822814 0
M  V30 4316 H 412.998 0.587227 1.59216 0
M  V30 4317 H 411.77 1.03748 3.77296 0
M  V30 4318 H 411.393 -0.671317 3.91892 0
M  V30 4319 N 412.39 -1.55475 0.257931 0
M  V30 4320 C 413.322 -2.19192 -0.669881 0
M  V30 4321 C 414.335 -1.17148 -1.1305 0
M  V30 4322 O 415.524 -1.43959 -1.05537 0
M  V30 4323 C 412.624 -2.79016 -1.92363 0
M  V30 4324 C 411.797 -4.06586 -1.61265 0
M  V30 4325 C 410.856 -4.50622 -2.7171 0
M  V30 4326 O 409.882 -5.16765 -2.38627 0
M  V30 4327 N 411.084 -4.19325 -4.01431 0
M  V30 4328 H 413.849 -2.99441 -0.124635 0
M  V30 4329 H 411.41 -1.6171 0.0783311 0
M  V30 4330 H 413.402 -3.05427 -2.65511 0
M  V30 4331 H 411.972 -2.0286 -2.37837 0
M  V30 4332 H 411.192 -3.87646 -0.715811 0
M  V30 4333 H 412.48 -4.89737 -1.37967 0
M  V30 4334 H 411.878 -3.66247 -4.31138 0
M  V30 4335 H 410.435 -4.50547 -4.7101 0
M  V30 4336 N 413.868 0.0150385 -1.57593 0
M  V30 4337 C 415.093 0.718067 -1.94573 0
M  V30 4338 C 415.518 1.6734 -0.859005 0
M  V30 4339 O 414.876 1.80362 0.184147 0
M  V30 4340 C 414.924 1.43918 -3.30636 0
M  V30 4341 O 414.028 2.55299 -3.23876 0
M  V30 4342 H 413.369 0.192125 -0.635597 0
M  V30 4343 H 415.899 -0.0336708 -2.04572 0
M  V30 4344 H 415.909 1.80598 -3.65853 0
M  V30 4345 H 414.584 0.738619 -4.09289 0
M  V30 4346 H 413.161 2.21058 -3.00312 0
M  V30 4347 N 415.346 1.54954 0.287554 0
M  V30 4348 C 416.592 1.75132 1.02257 0
M  V30 4349 C 416.925 0.542858 1.86458 0
M  V30 4350 O 416.2 -0.459856 1.88986 0
M  V30 4351 C 416.483 3.04812 1.91733 0
M  V30 4352 C 416.336 4.35985 1.10622 0
M  V30 4353 C 417.655 3.30438 2.90687 0
M  V30 4354 H 414.774 0.637194 0.370341 0
M  V30 4355 H 417.416 1.87678 0.296111 0
M  V30 4356 H 415.566 2.94247 2.53675 0
M  V30 4357 H 417.238 4.58487 0.508636 0
M  V30 4358 H 415.481 4.31865 0.409271 0
M  V30 4359 H 416.152 5.23017 1.76513 0
M  V30 4360 H 418.628 3.40701 2.38877 0
M  V30 4361 H 417.504 4.22467 3.50447 0
M  V30 4362 H 417.765 2.49377 3.65053 0
M  V30 4363 N 416.824 -0.551391 1.4764 0
M  V30 4364 C 417.787 -1.64007 1.60107 0
M  V30 4365 C 418.787 -1.53601 0.47576 0
M  V30 4366 O 419.977 -1.57655 0.740988 0
M  V30 4367 C 417.109 -3.03569 1.55108 0
M  V30 4368 H 418.302 -1.543 2.57161 0
M  V30 4369 H 415.855 -0.771776 1.35917 0
M  V30 4370 H 416.59 -3.18804 0.594519 0
M  V30 4371 H 416.375 -3.12532 2.36783 0
M  V30 4372 H 417.865 -3.82762 1.66982 0
M  V30 4373 N 418.302 -1.35869 -0.798587 0
M  V30 4374 C 419.527 -1.32883 -1.59238 0
M  V30 4375 C 419.952 0.0894587 -1.87887 0
M  V30 4376 O 419.31 1.05869 -1.47178 0
M  V30 4377 C 419.358 -2.14892 -2.89575 0
M  V30 4378 O 418.462 -1.53512 -3.82763 0
M  V30 4379 H 417.803 -0.455236 -0.48338 0
M  V30 4380 H 420.333 -1.79024 -0.990539 0
M  V30 4381 H 420.343 -2.27139 -3.38928 0
M  V30 4382 H 419.018 -3.17998 -2.68049 0
M  V30 4383 H 417.595 -1.50153 -3.41334 0
M  V30 4384 N 419.78 1.02168 -1.19998 0
M  V30 4385 C 421.026 1.75945 -1.00852 0
M  V30 4386 C 421.359 1.88702 0.458828 0
M  V30 4387 O 420.634 1.40911 1.34069 0
M  V30 4388 C 420.917 3.18154 -1.68671 0
M  V30 4389 C 420.77 3.13224 -3.22817 0
M  V30 4390 C 422.089 4.16711 -1.41561 0
M  V30 4391 H 419.208 0.638673 -0.367785 0
M  V30 4392 H 421.85 1.19222 -1.4794 0
M  V30 4393 H 420 3.66586 -1.28636 0
M  V30 4394 H 421.672 2.72635 -3.72112 0
M  V30 4395 H 419.915 2.50751 -3.53986 0
M  V30 4396 H 420.586 4.13728 -3.65422 0
M  V30 4397 H 423.062 3.76913 -1.76284 0
M  V30 4398 H 421.938 5.14391 -1.91553 0
M  V30 4399 H 422.199 4.40774 -0.342193 0
M  V30 4400 N 421.258 1.00505 1.21394 0
M  V30 4401 C 422.674 0.717873 1.42544 0
M  V30 4402 C 422.874 -0.706936 1.88692 0
M  V30 4403 O 421.93 -1.47627 2.04847 0
M  V30 4404 C 423.243 1.73377 2.45684 0
M  V30 4405 C 424.791 1.75059 2.59467 0
M  V30 4406 C 425.266 2.75545 3.6584 0
M  V30 4407 N 426.757 2.74213 3.73311 0
M  V30 4408 C 427.492 3.48626 4.55245 0
M  V30 4409 N 426.988 4.32678 5.41075 0
M  V30 4410 N 428.781 3.37276 4.49668 0
M  V30 4411 H 420.932 1.92506 0.897503 0
M  V30 4412 H 423.195 0.830919 0.456375 0
M  V30 4413 H 422.901 2.75395 2.18748 0
M  V30 4414 H 422.775 1.53647 3.44489 0
M  V30 4415 H 425.162 0.737337 2.8574 0
M  V30 4416 H 425.243 1.98861 1.60897 0
M  V30 4417 H 424.887 3.77028 3.40313 0
M  V30 4418 H 424.817 2.49009 4.64007 0
M  V30 4419 H 427.308 2.13234 3.11993 0
M  V30 4420 H 427.621 4.86253 6.00648 0
M  V30 4421 H 425.966 4.3676 5.40616 0
M  V30 4422 H 429.157 2.71043 3.81646 0
M  V30 4423 H 429.33 3.95524 5.13288 0
M  V30 4424 N 422.737 -1.36956 0.779787 0
M  V30 4425 C 423.684 -2.30175 0.169697 0
M  V30 4426 C 424.654 -1.51501 -0.68094 0
M  V30 4427 O 425.839 -1.80042 -0.631629 0
M  V30 4428 C 422.979 -3.37985 -0.697131 0
M  V30 4429 C 422.092 -4.31661 0.170992 0
M  V30 4430 C 421.227 -5.2655 -0.701298 0
M  V30 4431 C 420.266 -6.11867 0.168869 0
M  V30 4432 N 419.403 -6.98973 -0.661855 0
M  V30 4433 H 424.243 -2.81767 0.970135 0
M  V30 4434 H 421.78 -1.38699 0.489994 0
M  V30 4435 H 423.738 -3.99128 -1.2146 0
M  V30 4436 H 422.368 -2.87739 -1.46309 0
M  V30 4437 H 421.42 -3.71756 0.80634 0
M  V30 4438 H 422.732 -4.91644 0.841875 0
M  V30 4439 H 421.886 -5.92937 -1.28494 0
M  V30 4440 H 420.625 -4.66998 -1.40584 0
M  V30 4441 H 419.63 -5.44452 0.764986 0
M  V30 4442 H 420.855 -6.73493 0.870863 0
M  V30 4443 H 418.801 -6.41941 -1.35086 0
M  V30 4444 H 418.718 -7.55984 -0.0484447 0
M  V30 4445 H 419.986 -7.6974 -1.22963 0
M  V30 4446 N 424.215 -0.530993 -1.48385 0
M  V30 4447 C 425.443 -0.00134122 -2.069 0
M  V30 4448 C 425.858 1.2805 -1.3874 0
M  V30 4449 O 425.215 1.76204 -0.475244 0
M  V30 4450 C 425.266 0.225256 -3.60798 0
M  V30 4451 O 424.987 -1.0058 -4.26398 0
M  V30 4452 C 426.488 0.795172 -4.3611 0
M  V30 4453 H 423.708 -0.0339704 -0.67014 0
M  V30 4454 H 426.252 -0.736926 -1.90761 0
M  V30 4455 H 424.407 0.910891 -3.76539 0
M  V30 4456 H 424.821 -0.787165 -5.1856 0
M  V30 4457 H 426.295 0.903143 -5.44562 0
M  V30 4458 H 426.772 1.80031 -4.00606 0
M  V30 4459 H 427.378 0.146069 -4.25049 0
M  V30 4460 N 425.693 1.55336 -0.266172 0
M  V30 4461 C 426.921 2.03801 0.356756 0
M  V30 4462 C 427.336 1.14485 1.50129 0
M  V30 4463 O 426.693 0.163121 1.8177 0
M  V30 4464 C 426.744 3.51455 0.846281 0
M  V30 4465 O 426.465 4.37371 -0.252663 0
M  V30 4466 C 427.966 4.15767 1.53794 0
M  V30 4467 H 425.186 0.665906 0.0825218 0
M  V30 4468 H 427.73 2.00636 -0.39566 0
M  V30 4469 H 425.885 3.55092 1.54881 0
M  V30 4470 H 426.299 5.24358 0.122173 0
M  V30 4471 H 427.773 5.20714 1.83198 0
M  V30 4472 H 428.25 3.63404 2.46646 0
M  V30 4473 H 428.856 4.16107 0.879488 0
M  V30 4474 N 427.171 -0.0066808 1.57599 0
M  V30 4475 C 428.417 -0.693947 1.90558 0
M  V30 4476 C 428.75 -1.73792 0.866594 0
M  V30 4477 O 428.025 -1.94156 -0.115548 0
M  V30 4478 C 428.308 -1.34317 3.34112 0
M  V30 4479 C 428.161 -0.311189 4.48722 0
M  V30 4480 C 429.48 -2.27116 3.7697 0
M  V30 4481 H 426.599 -0.250803 0.693013 0
M  V30 4482 H 429.241 0.043242 1.89951 0
M  V30 4483 H 427.391 -1.9715 3.3476 0
M  V30 4484 H 429.063 0.316944 4.6021 0
M  V30 4485 H 427.306 0.367253 4.32243 0
M  V30 4486 H 427.977 -0.804366 5.46108 0
M  V30 4487 H 430.453 -1.74306 3.77831 0
M  V30 4488 H 429.329 -2.69511 4.78179 0
M  V30 4489 H 429.59 -3.14743 3.10466 0
M  V30 4490 N 428.649 -1.55105 -0.279332 0
M  V30 4491 C 429.579 -1.90557 -1.34945 0
M  V30 4492 C 430.56 -0.766738 -1.51839 0
M  V30 4493 O 431.745 -1.02434 -1.64988 0
M  V30 4494 C 428.875 -2.17193 -2.71006 0
M  V30 4495 C 427.829 -3.33021 -2.68851 0
M  V30 4496 C 427.155 -3.45123 -4.08405 0
M  V30 4497 C 428.455 -4.69578 -2.28678 0
M  V30 4498 H 430.149 -2.80188 -1.05522 0
M  V30 4499 H 427.695 -1.34811 -0.506173 0
M  V30 4500 H 429.648 -2.40581 -3.45975 0
M  V30 4501 H 428.372 -1.24355 -3.01999 0
M  V30 4502 H 427.031 -3.0959 -1.9634 0
M  V30 4503 H 426.679 -2.49762 -4.3661 0
M  V30 4504 H 426.379 -4.22995 -4.07859 0
M  V30 4505 H 427.903 -3.70796 -4.85121 0
M  V30 4506 H 429.317 -4.92553 -2.93368 0
M  V30 4507 H 427.714 -5.5032 -2.39306 0
M  V30 4508 H 428.784 -4.68828 -1.23807 0
M  V30 4509 N 430.127 0.543554 -1.4793 0
M  V30 4510 C 431.404 1.30458 -1.4574 0
M  V30 4511 C 431.784 2.1048 -0.161692 0
M  V30 4512 O 431.132 2.11831 0.856734 0
M  V30 4513 C 431.342 2.19754 -2.71126 0
M  V30 4514 C 432.69 2.80334 -3.18901 0
M  V30 4515 O 433.714 2.30049 -2.71948 0
M  V30 4516 O 432.573 3.71766 -4.00565 0
M  V30 4517 H 429.667 0.588117 -0.581418 0
M  V30 4518 H 432.213 0.561328 -1.60147 0
M  V30 4519 H 430.985 1.60316 -3.56952 0
M  V30 4520 H 430.608 3.01351 -2.59371 0
M  V30 4521 N 431.605 1.3629 0.791371 0
M  V30 4522 C 432.851 1.30605 1.55146 0
M  V30 4523 C 433.184 -0.115042 1.93859 0
M  V30 4524 O 432.459 -1.06798 1.62556 0
M  V30 4525 C 432.742 2.22692 2.82985 0
M  V30 4526 C 432.595 3.73489 2.50651 0
M  V30 4527 C 433.914 2.13588 3.84796 0
M  V30 4528 H 431.033 0.475761 0.562868 0
M  V30 4529 H 433.675 1.66825 0.909358 0
M  V30 4530 H 431.825 1.91933 3.37778 0
M  V30 4531 H 433.497 4.14758 2.01924 0
M  V30 4532 H 431.74 3.93021 1.83622 0
M  V30 4533 H 432.411 4.3333 3.41949 0
M  V30 4534 H 434.887 2.40659 3.39445 0
M  V30 4535 H 433.763 2.80195 4.71998 0
M  V30 4536 H 434.024 1.12256 4.27611 0
M  V30 4537 N 433.083 -1.0153 1.20538 0
M  V30 4538 C 434.016 -2.09759 0.898695 0
M  V30 4539 C 434.994 -1.61909 -0.149733 0
M  V30 4540 O 436.178 -1.88486 -0.0230293 0
M  V30 4541 C 433.305 -3.36913 0.347512 0
M  V30 4542 C 432.351 -4.03655 1.37713 0
M  V30 4543 S 433.184 -4.47402 2.94265 0
M  V30 4544 C 434.34 -5.77756 2.40726 0
M  V30 4545 H 434.573 -2.3545 1.81523 0
M  V30 4546 H 432.106 -1.14665 1.03399 0
M  V30 4547 H 434.064 -4.10484 0.0360518 0
M  V30 4548 H 432.725 -3.09291 -0.547546 0
M  V30 4549 H 431.918 -4.9514 0.940872 0
M  V30 4550 H 431.52 -3.36313 1.63614 0
M  V30 4551 H 433.812 -6.52994 1.80569 0
M  V30 4552 H 434.755 -6.2618 3.30612 0
M  V30 4553 H 435.163 -5.34081 1.82806 0
M  V30 4554 N 434.561 -1.01147 -1.20859 0
M  V30 4555 C 435.977 -0.725422 -1.42161 0
M  V30 4556 C 436.177 0.696919 -1.89064 0
M  V30 4557 O 435.233 1.46539 -2.05627 0
M  V30 4558 C 436.546 -1.74678 -2.44761 0
M  V30 4559 C 438.094 -1.76433 -2.58535 0
M  V30 4560 C 438.569 -2.77481 -3.64374 0
M  V30 4561 N 440.06 -2.76189 -3.71852 0
M  V30 4562 C 440.795 -3.51035 -4.53389 0
M  V30 4563 N 440.291 -4.35541 -5.38773 0
M  V30 4564 N 442.084 -3.39655 -4.47873 0
M  V30 4565 H 434.235 -1.92979 -0.887282 0
M  V30 4566 H 436.498 -0.833327 -0.451962 0
M  V30 4567 H 436.204 -2.76551 -2.17285 0
M  V30 4568 H 436.078 -1.55472 -3.43669 0
M  V30 4569 H 438.465 -0.75248 -2.85345 0
M  V30 4570 H 438.546 -1.99712 -1.5984 0
M  V30 4571 H 438.19 -3.78827 -3.38308 0
M  V30 4572 H 438.12 -2.51466 -4.6268 0
M  V30 4573 H 440.611 -2.14885 -3.10858 0
M  V30 4574 H 440.924 -4.89432 -5.98061 0
M  V30 4575 H 439.269 -4.39621 -5.38292 0
M  V30 4576 H 442.46 -2.73063 -3.80203 0
M  V30 4577 H 442.633 -3.9824 -5.11184 0
M  V30 4578 N 436.039 1.36541 -0.78704 0
M  V30 4579 C 437.455 1.52571 -0.46844 0
M  V30 4580 C 437.655 1.7415 1.01361 0
M  V30 4581 O 436.711 1.77163 1.79915 0
M  V30 4582 C 438.024 2.71299 -1.29682 0
M  V30 4583 C 439.572 2.85169 -1.29027 0
M  V30 4584 C 440.047 4.06898 -2.10233 0
M  V30 4585 N 441.538 4.1404 -2.07666 0
M  V30 4586 C 442.273 5.07301 -2.67271 0
M  V30 4587 N 441.769 6.06021 -3.35724 0
M  V30 4588 N 443.562 4.99898 -2.57018 0
M  V30 4589 H 435.713 1.20788 -1.74711 0
M  V30 4590 H 437.976 0.589364 -0.742532 0
M  V30 4591 H 437.682 2.61868 -2.34773 0
M  V30 4592 H 437.556 3.6539 -0.936479 0
M  V30 4593 H 439.943 2.94062 -0.247284 0
M  V30 4594 H 440.024 1.91992 -1.69035 0
M  V30 4595 H 439.668 3.98766 -3.1456 0
M  V30 4596 H 439.598 4.99218 -1.67597 0
M  V30 4597 H 442.089 3.43357 -1.57843 0
M  V30 4598 H 442.402 6.73741 -3.78541 0
M  V30 4599 H 440.747 6.06253 -3.39826 0
M  V30 4600 H 443.938 4.21724 -2.03142 0
M  V30 4601 H 444.111 5.72392 -3.03761 0
M  V30 4602 N 437.518 0.538854 1.48102 0
M  V30 4603 C 438.448 -0.207654 2.32575 0
M  V30 4604 C 439.429 -0.926559 1.4265 0
M  V30 4605 O 440.614 -0.91061 1.71527 0
M  V30 4606 C 437.744 -1.24957 3.24042 0
M  V30 4607 C 436.698 -0.648263 4.23062 0
M  V30 4608 C 436.024 -1.79348 5.03725 0
M  V30 4609 C 437.324 0.385897 5.20872 0
M  V30 4610 H 439.018 0.497534 2.95237 0
M  V30 4611 H 436.564 0.240715 1.41974 0
M  V30 4612 H 438.517 -1.77983 3.81969 0
M  V30 4613 H 437.241 -1.98446 2.59397 0
M  V30 4614 H 435.9 -0.139452 3.66335 0
M  V30 4615 H 435.548 -2.51696 4.35498 0
M  V30 4616 H 435.248 -1.39702 5.70751 0
M  V30 4617 H 436.772 -2.32735 5.64506 0
M  V30 4618 H 438.186 -0.057607 5.73271 0
M  V30 4619 H 436.583 0.700227 5.96001 0
M  V30 4620 H 437.653 1.28848 4.67468 0
M  V30 4621 N 438.996 -1.55193 0.274407 0
M  V30 4622 C 439.926 -2.25471 -0.607032 0
M  V30 4623 C 440.907 -1.24461 -1.15946 0
M  V30 4624 O 442.092 -1.53179 -1.19373 0
M  V30 4625 C 439.222 -2.97526 -1.79153 0
M  V30 4626 C 438.176 -4.05459 -1.37067 0
M  V30 4627 C 437.502 -4.65084 -2.6382 0
M  V30 4628 C 438.802 -5.19691 -0.521389 0
M  V30 4629 H 440.496 -2.99393 -0.0209343 0
M  V30 4630 H 438.042 -1.43997 -0.00862866 0
M  V30 4631 H 439.995 -3.45402 -2.41404 0
M  V30 4632 H 438.719 -2.21138 -2.40344 0
M  V30 4633 H 437.378 -3.58393 -0.771355 0
M  V30 4634 H 437.026 -3.85365 -3.23268 0
M  V30 4635 H 436.726 -5.37961 -2.36372 0
M  V30 4636 H 438.25 -5.15708 -3.26921 0
M  V30 4637 H 439.664 -5.63623 -1.04889 0
M  V30 4638 H 438.061 -5.99126 -0.341825 0
M  V30 4639 H 439.131 -4.82713 0.46 0
M  V30 4640 N 440.474 -0.00167713 -1.576 0
M  V30 4641 C 441.406 1.0174 -2.05382 0
M  V30 4642 C 442.419 1.30595 -0.972052 0
M  V30 4643 O 443.608 1.27542 -1.24882 0
M  V30 4644 C 440.708 2.35174 -2.44022 0
M  V30 4645 C 439.881 2.25234 -3.74951 0
M  V30 4646 C 438.94 3.4137 -4.00441 0
M  V30 4647 O 437.966 3.19483 -4.71083 0
M  V30 4648 N 439.168 4.64275 -3.48467 0
M  V30 4649 H 441.933 0.609902 -2.93428 0
M  V30 4650 H 439.494 0.185672 -1.60832 0
M  V30 4651 H 441.486 3.11643 -2.58187 0
M  V30 4652 H 440.056 2.67659 -1.61485 0
M  V30 4653 H 439.276 1.33664 -3.70847 0
M  V30 4654 H 440.564 2.15767 -4.60784 0
M  V30 4655 H 439.962 4.84955 -2.91264 0
M  V30 4656 H 438.519 5.38005 -3.67959 0
M  V30 4657 N 441.952 1.55251 0.271103 0
M  V30 4658 C 443.363 1.66635 0.842007 0
M  V30 4659 C 443.714 0.594631 1.86972 0
M  V30 4660 O 442.839 -0.263532 2.14789 0
M  V30 4661 C 443.434 3.02082 1.53401 0
M  V30 4662 C 441.993 3.15487 2.05293 0
M  V30 4663 C 441.14 2.62438 0.895631 0
M  V30 4664 H 444.091 1.58629 0.0474117 0
M  V30 4665 H 444.112 2.95176 2.40107 0
M  V30 4666 H 443.624 3.80062 0.785786 0
M  V30 4667 H 441.725 2.42284 2.83071 0
M  V30 4668 H 441.838 4.22075 2.26693 0
M  V30 4669 H 440.202 2.19644 1.28953 0
M  V30 4670 H 440.985 3.42923 0.160878 0
M  V30 4671 N 443.43 -0.535701 1.48216 0
M  V30 4672 C 444.377 -1.64083 1.62312 0
M  V30 4673 C 445.347 -1.59448 0.465365 0
M  V30 4674 O 446.532 -1.77959 0.688135 0
M  V30 4675 C 443.672 -3.0236 1.66349 0
M  V30 4676 C 442.785 -3.17273 2.93193 0
M  V30 4677 C 441.92 -4.46075 2.88427 0
M  V30 4678 C 440.959 -4.54496 4.1 0
M  V30 4679 N 440.096 -5.7468 4.03345 0
M  V30 4680 H 444.936 -1.51374 2.5669 0
M  V30 4681 H 442.473 -0.737059 1.27302 0
M  V30 4682 H 444.431 -3.82461 1.66672 0
M  V30 4683 H 443.061 -3.13854 0.754672 0
M  V30 4684 H 442.113 -2.30462 3.02641 0
M  V30 4685 H 443.425 -3.19357 3.83162 0
M  V30 4686 H 442.579 -5.3446 2.87119 0
M  V30 4687 H 441.318 -4.46504 1.96177 0
M  V30 4688 H 440.323 -3.64519 4.11589 0
M  V30 4689 H 441.548 -4.5581 5.03402 0
M  V30 4690 H 439.494 -5.76017 3.13912 0
M  V30 4691 H 439.411 -5.78234 4.87013 0
M  V30 4692 H 440.679 -6.65367 4.06087 0
M  V30 4693 N 444.908 -1.36708 -0.784132 0
M  V30 4694 C 445.856 -1.31533 -1.91838 0
M  V30 4695 C 446.85 -0.206205 -1.6814 0
M  V30 4696 O 448.056 -0.373519 -1.76082 0
M  V30 4697 H 444.431 -0.409613 -0.630651 0
M  V30 4698 H 446.402 -2.2731 -1.9332 0
M  V30 4699 C 445.151 -1.12679 -3.28936 0
M  V30 4700 H 444.474 -1.97274 -3.4774 0
M  V30 4701 H 445.914 -1.13106 -4.08636 0
M  V30 4702 C 444.373 0.168281 -3.36479 0
M  V30 4703 O 444.903 1.15625 -3.84699 0
M  V30 4704 N 443.109 0.214762 -2.89805 0
M  V30 4705 H 442.656 -0.589852 -2.50756 0
M  V30 4706 H 442.614 1.08094 -2.95234 0
M  V30 4707 N 446.386 1.0089 -1.21074 0
M  V30 4708 C 447.632 1.74866 -1.02712 0
M  V30 4709 C 447.965 1.89178 0.438787 0
M  V30 4710 O 447.24 1.42325 1.32567 0
M  V30 4711 C 447.523 3.16347 -1.72036 0
M  V30 4712 C 447.376 3.09782 -3.26121 0
M  V30 4713 C 448.695 4.15187 -1.45973 0
M  V30 4714 H 445.814 0.634736 -0.374539 0
M  V30 4715 H 448.456 1.17646 -1.49196 0
M  V30 4716 H 446.606 3.65201 -1.32517 0
M  V30 4717 H 448.278 2.68673 -3.74983 0
M  V30 4718 H 446.521 2.46982 -3.56626 0
M  V30 4719 H 447.192 4.09829 -3.6979 0
M  V30 4720 H 449.668 3.75022 -1.80272 0
M  V30 4721 H 448.544 5.12331 -1.96999 0
M  V30 4722 H 448.805 4.40386 -0.388924 0
M  V30 4723 N 447.864 1.01787 1.20321 0
M  V30 4724 C 448.797 0.533882 2.21867 0
M  V30 4725 C 449.775 -0.419361 1.57099 0
M  V30 4726 O 450.959 -0.339062 1.85426 0
M  V30 4727 C 448.086 -0.222899 3.37966 0
M  V30 4728 C 447.132 0.680091 4.21043 0
M  V30 4729 S 447.965 2.14997 4.90445 0
M  V30 4730 C 449.121 1.40339 6.09964 0
M  V30 4731 H 449.354 1.39429 2.62577 0
M  V30 4732 H 446.887 0.826867 1.30393 0
M  V30 4733 H 448.845 -0.653425 4.05266 0
M  V30 4734 H 447.506 -1.0589 2.95713 0
M  V30 4735 H 446.699 0.0964704 5.03908 0
M  V30 4736 H 446.301 1.04845 3.59004 0
M  V30 4737 H 448.593 0.68407 6.74038 0
M  V30 4738 H 449.536 2.20823 6.72787 0
M  V30 4739 H 449.944 0.905716 5.57187 0
M  V30 4740 N 449.342 -1.36122 0.79427 0
M  V30 4741 C 450.588 -1.99406 0.369452 0
M  V30 4742 C 450.921 -1.62886 -1.05743 0
M  V30 4743 O 450.196 -0.886053 -1.73145 0
M  V30 4744 C 450.479 -3.56046 0.538833 0
M  V30 4745 C 450.332 -4.02404 2.00976 0
M  V30 4746 C 451.651 -4.40079 -0.0431359 0
M  V30 4747 H 448.77 -0.724397 0.135712 0
M  V30 4748 H 451.412 -1.61461 1.00151 0
M  V30 4749 H 449.562 -3.885 0.000771004 0
M  V30 4750 H 451.234 -3.80415 2.60926 0
M  V30 4751 H 449.477 -3.53765 2.51063 0
M  V30 4752 H 450.148 -5.11344 2.07922 0
M  V30 4753 H 452.624 -4.14013 0.416228 0
M  V30 4754 H 451.5 -5.48799 0.105374 0
M  V30 4755 H 451.761 -4.27264 -1.13571 0
M  V30 4756 N 450.82 -0.546701 -1.47814 0
M  V30 4757 C 452.045 -0.021268 -2.07389 0
M  V30 4758 C 452.47 1.25822 -1.39822 0
M  V30 4759 O 451.828 1.75111 -0.46968 0
M  V30 4760 C 451.876 0.168502 -3.60206 0
M  V30 4761 O 450.98 1.23347 -3.93522 0
M  V30 4762 H 450.321 -0.0466108 -0.662362 0
M  V30 4763 H 452.851 -0.759387 -1.89985 0
M  V30 4764 H 452.861 0.385982 -4.0617 0
M  V30 4765 H 451.536 -0.766075 -4.08784 0
M  V30 4766 H 450.113 0.997319 -3.59316 0
M  V30 4767 N 452.299 1.55045 -0.282633 0
M  V30 4768 C 453.527 2.04168 0.33512 0
M  V30 4769 C 453.942 1.16071 1.48906 0
M  V30 4770 O 453.299 0.182391 1.81586 0
M  V30 4771 C 453.35 3.52332 0.808957 0
M  V30 4772 O 453.071 4.37078 -0.299038 0
M  V30 4773 C 454.572 4.17375 1.49375 0
M  V30 4774 H 451.792 0.666744 0.0754543 0
M  V30 4775 H 454.336 2.00205 -0.416918 0
M  V30 4776 H 452.491 3.56715 1.51106 0
M  V30 4777 H 452.905 5.24458 0.0665514 0
M  V30 4778 H 454.379 5.22627 1.77664 0
M  V30 4779 H 454.856 3.65999 2.42778 0
M  V30 4780 H 455.462 4.17016 0.835305 0
M  V30 4781 N 453.777 0.010035 1.57597 0
M  V30 4782 C 455.025 -0.671371 1.90623 0
M  V30 4783 C 455.346 -1.73753 0.885151 0
M  V30 4784 O 454.616 -1.95752 -0.0760611 0
M  V30 4785 H 453.196 -0.250968 0.703579 0
M  V30 4786 H 455.858 0.0533325 1.94827 0
M  V30 4787 H 454.954 -1.13626 2.90681 0
M  V30 4788 N 455.255 -1.55392 -0.262866 0
M  V30 4789 C 456.671 -1.47459 -0.610582 0
M  V30 4790 C 456.871 -0.697031 -1.8906 0
M  V30 4791 O 455.927 -0.219952 -2.5154 0
M  V30 4792 C 457.24 -2.91751 -0.728131 0
M  V30 4793 C 458.788 -3.02027 -0.821517 0
M  V30 4794 C 459.263 -4.47594 -0.97076 0
M  V30 4795 N 460.754 -4.51465 -1.03603 0
M  V30 4796 C 461.489 -5.61326 -1.17049 0
M  V30 4797 N 460.985 -6.81032 -1.2715 0
M  V30 4798 N 462.778 -5.49089 -1.20239 0
M  V30 4799 H 454.929 -2.04395 0.577632 0
M  V30 4800 H 457.192 -0.927287 0.197086 0
M  V30 4801 H 456.898 -3.51413 0.142132 0
M  V30 4802 H 456.772 -3.4134 -1.6052 0
M  V30 4803 H 459.159 -2.42456 -1.68224 0
M  V30 4804 H 459.24 -2.55674 0.0803688 0
M  V30 4805 H 458.884 -5.07771 -0.114655 0
M  V30 4806 H 458.814 -4.91613 -1.88745 0
M  V30 4807 H 461.305 -3.6524 -0.96996 0
M  V30 4808 H 461.618 -7.60511 -1.37271 0
M  V30 4809 H 459.963 -6.83824 -1.24136 0
M  V30 4810 H 463.154 -4.54507 -1.11985 0
M  V30 4811 H 463.327 -6.34749 -1.30373 0
M  V30 4812 N 456.733 0.527833 -1.48498 0
M  V30 4813 C 458.01 1.28905 -1.47115 0
M  V30 4814 C 458.39 2.10297 -0.184007 0
M  V30 4815 O 457.738 2.12728 0.834218 0
M  V30 4816 C 457.948 2.16866 -2.73441 0
M  V30 4817 C 459.296 2.76936 -3.21857 0
M  V30 4818 O 460.32 2.27152 -2.74373 0
M  V30 4819 O 459.179 3.67496 -4.04486 0
M  V30 4820 H 456.273 0.581918 -0.587623 0
M  V30 4821 H 458.819 0.544311 -1.60734 0
M  V30 4822 H 457.591 1.56521 -3.58632 0
M  V30 4823 H 457.214 2.98583 -2.62553 0
M  V30 4824 N 458.211 1.37122 0.776871 0
M  V30 4825 C 459.627 1.1781 1.07671 0
M  V30 4826 C 459.827 0.0107454 2.01497 0
M  V30 4827 O 458.883 -0.650756 2.4397 0
M  V30 4828 C 460.196 2.49451 1.67913 0
M  V30 4829 C 461.744 2.55927 1.80195 0
M  V30 4830 C 462.219 3.87686 2.43851 0
M  V30 4831 N 463.71 3.891 2.51307 0
M  V30 4832 C 464.445 4.87797 3.014 0
M  V30 4833 N 463.941 5.96888 3.51705 0
M  V30 4834 N 465.734 4.75205 3.00227 0
M  V30 4835 H 457.885 2.11843 0.153778 0
M  V30 4836 H 460.148 0.938927 0.130844 0
M  V30 4837 H 459.854 3.35207 1.06439 0
M  V30 4838 H 459.728 2.66169 2.67271 0
M  V30 4839 H 462.115 1.70582 2.40803 0
M  V30 4840 H 462.196 2.43097 0.796069 0
M  V30 4841 H 461.84 4.73444 1.83884 0
M  V30 4842 H 461.77 3.97817 3.45035 0
M  V30 4843 H 464.261 3.10293 2.157 0
M  V30 4844 H 464.574 6.68155 3.88316 0
M  V30 4845 H 462.919 6.0054 3.49824 0
M  V30 4846 H 466.11 3.89103 2.60224 0
M  V30 4847 H 466.283 5.52279 3.38957 0
M  V30 4848 N 459.689 -1.00246 1.21608 0
M  V30 4849 C 460.621 -2.09244 0.935401 0
M  V30 4850 C 461.634 -1.62592 -0.0823594 0
M  V30 4851 O 462.823 -1.77865 0.150456 0
M  V30 4852 C 459.923 -3.36724 0.383453 0
M  V30 4853 C 459.096 -4.1245 1.45615 0
M  V30 4854 C 458.155 -5.18219 0.912991 0
M  V30 4855 O 457.181 -5.46337 1.59701 0
M  V30 4856 N 458.383 -5.7987 -0.270478 0
M  V30 4857 H 461.148 -2.33905 1.87373 0
M  V30 4858 H 458.709 -1.16748 1.12167 0
M  V30 4859 H 460.701 -4.047 0.00562157 0
M  V30 4860 H 459.271 -3.09201 -0.459758 0
M  V30 4861 H 458.491 -3.39241 2.00772 0
M  V30 4862 H 459.779 -4.59819 2.17817 0
M  V30 4863 H 459.177 -5.59381 -0.843195 0
M  V30 4864 H 457.734 -6.49126 -0.589794 0
M  V30 4865 N 461.167 -1.02423 -1.1978 0
M  V30 4866 C 462.395 -0.737456 -1.93311 0
M  V30 4867 C 462.81 0.703023 -1.75223 0
M  V30 4868 O 462.167 1.47761 -1.07112 0
M  V30 4869 C 462.218 -1.0733 -3.45199 0
M  V30 4870 O 461.939 -2.4572 -3.62702 0
M  V30 4871 C 463.44 -0.80866 -4.35862 0
M  V30 4872 H 460.66 -0.2702 -0.614193 0
M  V30 4873 H 463.204 -1.36747 -1.52054 0
M  V30 4874 H 461.359 -0.488545 -3.84307 0
M  V30 4875 H 461.773 -2.58081 -4.56612 0
M  V30 4876 H 463.247 -1.09365 -5.41057 0
M  V30 4877 H 463.724 0.257025 -4.38447 0
M  V30 4878 H 464.33 -1.37592 -4.02428 0
M  V30 4879 N 462.645 1.35699 -0.801477 0
M  V30 4880 C 463.593 2.3177 -0.196317 0
M  V30 4881 C 464.587 1.56388 0.651081 0
M  V30 4882 O 465.793 1.71557 0.544815 0
M  V30 4883 H 462.168 0.750669 -0.0447189 0
M  V30 4884 H 464.139 2.8036 -1.02181 0
M  V30 4885 C 462.888 3.41671 0.644702 0
M  V30 4886 H 462.211 3.998 0.0019921 0
M  V30 4887 H 463.651 4.11184 1.0346 0
M  V30 4888 C 462.11 2.84271 1.80808 0
M  V30 4889 O 462.64 2.77408 2.9053 0
M  V30 4890 N 460.846 2.41391 1.61799 0
M  V30 4891 H 460.393 2.47173 0.725493 0
M  V30 4892 H 460.351 2.03334 2.39797 0
M  V30 4893 N 464.123 0.554532 1.47522 0
M  V30 4894 C 465.073 -0.215008 2.26984 0
M  V30 4895 C 466.057 -0.88774 1.34194 0
M  V30 4896 O 467.249 -0.786489 1.58567 0
M  V30 4897 C 464.378 -1.24604 3.19889 0
M  V30 4898 C 463.464 -0.576857 4.20159 0
M  V30 4899 N 463.855 0.351541 5.04577 0
M  V30 4900 C 462.153 -0.831104 4.38188 0
M  V30 4901 C 462.854 0.739995 5.76974 0
M  V30 4902 N 461.83 0.0954407 5.43516 0
M  V30 4903 H 465.632 0.498843 2.89636 0
M  V30 4904 H 463.146 0.374279 1.58028 0
M  V30 4905 H 465.143 -1.81128 3.75498 0
M  V30 4906 H 463.803 -1.96101 2.58794 0
M  V30 4907 H 464.814 0.725556 5.12792 0
M  V30 4908 H 461.491 -1.53479 3.88266 0
M  V30 4909 H 462.881 1.50271 6.5488 0
M  V30 4910 N 465.601 -1.54893 0.290851 0
M  V30 4911 C 466.841 -2.01842 -0.322388 0
M  V30 4912 C 467.205 -1.17477 -1.51865 0
M  V30 4913 O 468.406 -1.54077 -2.20258 0
M  V30 4914 C 466.677 -3.50874 -0.679844 0
M  V30 4915 S 468.236 -4.19796 -1.27739 0
M  V30 4916 H 465.054 -0.704005 -0.0994866 0
M  V30 4917 H 467.656 -1.91015 0.416358 0
M  V30 4918 H 466.36 -4.09915 0.199435 0
M  V30 4919 H 465.891 -3.65717 -1.44964 0
M  V30 4920 H 467.906 -4.24729 -2.56554 0
M  V30 4921 N 467.08 -0.0183926 -1.57589 0
M  V30 4922 C 468.31 0.67207 -1.95363 0
M  V30 4923 C 468.718 1.66807 -0.892872 0
M  V30 4924 O 468.061 1.83204 0.134958 0
M  V30 4925 C 468.123 1.44397 -3.29226 0
M  V30 4926 C 467.787 0.607511 -4.52944 0
M  V30 4927 C 468.784 -0.112657 -5.19778 0
M  V30 4928 C 466.469 0.548068 -4.99301 0
M  V30 4929 C 468.463 -0.881057 -6.31281 0
M  V30 4930 C 466.15 -0.224044 -6.10689 0
M  V30 4931 C 467.148 -0.937323 -6.76538 0
M  V30 4932 O 466.836 -1.6968 -7.85789 0
M  V30 4933 H 466.568 0.190925 -0.648478 0
M  V30 4934 H 469.122 -0.0711994 -2.05277 0
M  V30 4935 H 467.352 2.23214 -3.15773 0
M  V30 4936 H 469.041 2.02152 -3.51979 0
M  V30 4937 H 469.807 -0.0759998 -4.8494 0
M  V30 4938 H 465.686 1.09281 -4.4786 0
M  V30 4939 H 469.23 -1.43832 -6.82611 0
M  V30 4940 H 465.127 -0.262457 -6.44966 0
M  V30 4941 H 465.895 -1.61544 -8.024 0
M  V30 4942 N 468.558 1.5553 0.254621 0
M  V30 4943 C 469.807 1.76202 0.981612 0
M  V30 4944 C 470.12 0.580883 1.86776 0
M  V30 4945 O 471.326 0.670448 2.63092 0
M  V30 4946 C 469.782 3.11921 1.79537 0
M  V30 4947 C 469.39 4.37659 0.956991 0
M  V30 4948 C 471.134 3.41936 2.51555 0
M  V30 4949 C 469.041 5.64411 1.76619 0
M  V30 4950 H 467.971 0.656841 0.370237 0
M  V30 4951 H 470.622 1.81969 0.236556 0
M  V30 4952 H 469.004 3.00241 2.58208 0
M  V30 4953 H 470.178 4.60307 0.21315 0
M  V30 4954 H 468.493 4.14922 0.350497 0
M  V30 4955 H 471.09 4.33849 3.12536 0
M  V30 4956 H 471.433 2.62905 3.22779 0
M  V30 4957 H 471.966 3.54797 1.799 0
M  V30 4958 H 468.705 6.46241 1.09783 0
M  V30 4959 H 468.225 5.45877 2.48551 0
M  V30 4960 H 469.904 6.03386 2.33527 0
M  V30 4961 N 470.036 -0.519951 1.48776 0
M  V30 4962 C 470.999 -1.60574 1.6355 0
M  V30 4963 C 471.999 -1.52557 0.508234 0
M  V30 4964 O 473.189 -1.56047 0.774262 0
M  V30 4965 C 470.321 -3.00211 1.61512 0
M  V30 4966 H 471.514 -1.4881 2.60376 0
M  V30 4967 H 469.067 -0.742772 1.37523 0
M  V30 4968 H 469.802 -3.17471 0.662009 0
M  V30 4969 H 469.587 -3.07439 2.43359 0
M  V30 4970 H 471.077 -3.79134 1.75064 0
M  V30 4971 N 471.514 -1.37532 -0.769588 0
M  V30 4972 C 472.763 -1.32183 -1.5235 0
M  V30 4973 C 473.076 0.0906555 -1.9539 0
M  V30 4974 O 474.282 0.266628 -2.70188 0
M  V30 4975 C 472.738 -2.32029 -2.75119 0
M  V30 4976 C 472.346 -3.78816 -2.3917 0
M  V30 4977 C 474.09 -2.35694 -3.53056 0
M  V30 4978 C 471.997 -4.70388 -3.58453 0
M  V30 4979 H 470.927 -0.491275 -0.571984 0
M  V30 4980 H 473.578 -1.63004 -0.842739 0
M  V30 4981 H 471.96 -1.94229 -3.45096 0
M  V30 4982 H 473.134 -4.25466 -1.76962 0
M  V30 4983 H 471.449 -3.78117 -1.74402 0
M  V30 4984 H 474.046 -3.01312 -4.41718 0
M  V30 4985 H 474.389 -1.37117 -3.93071 0
M  V30 4986 H 474.922 -2.72212 -2.90078 0
M  V30 4987 H 471.661 -5.70102 -3.23518 0
M  V30 4988 H 471.181 -4.28442 -4.19758 0
M  V30 4989 H 472.86 -4.87628 -4.25239 0
M  V30 4990 N 472.992 0.995999 -1.22138 0
M  V30 4991 C 473.922 2.10387 -1.01289 0
M  V30 4992 C 474.903 1.69975 0.0651454 0
M  V30 4993 O 476.088 1.9396 -0.0964628 0
M  V30 4994 C 473.218 3.42312 -0.586517 0
M  V30 4995 C 472.172 3.96558 -1.61014 0
M  V30 4996 C 471.498 5.24494 -1.0397 0
M  V30 4997 C 472.798 4.27595 -2.99933 0
M  V30 4998 H 474.492 2.28086 -1.93951 0
M  V30 4999 H 472.038 1.09607 -0.933928 0
M  V30 5000 H 473.991 4.19223 -0.427793 0
M  V30 5001 H 472.715 3.24431 0.375761 0
M  V30 5002 H 471.374 3.21776 -1.75658 0
M  V30 5003 H 471.022 5.02953 -0.0688703 0
M  V30 5004 H 470.722 5.61755 -1.72352 0
M  V30 5005 H 472.246 6.04042 -0.892494 0
M  V30 5006 H 473.66 4.95315 -2.8868 0
M  V30 5007 H 472.057 4.76021 -3.6541 0
M  V30 5008 H 473.127 3.35498 -3.50099 0
M  V30 5009 N 474.47 1.03057 1.19235 0
M  V30 5010 C 475.418 0.606391 2.24557 0
M  V30 5011 C 476.412 -0.361826 1.65491 0
M  V30 5012 O 477.618 -0.23022 1.78522 0
M  V30 5013 H 473.993 0.177838 0.730669 0
M  V30 5014 H 475.964 1.50529 2.5765 0
M  V30 5015 C 474.713 -0.0252127 3.47691 0
M  V30 5016 H 474.036 0.710838 3.9343 0
M  V30 5017 H 475.476 -0.284931 4.23042 0
M  V30 5018 C 473.935 -1.27229 3.11953 0
M  V30 5019 O 474.465 -2.36416 3.24762 0
M  V30 5020 N 472.671 -1.16169 2.6637 0
M  V30 5021 H 472.218 -0.273189 2.56147 0
M  V30 5022 H 472.176 -1.99703 2.42829 0
M  V30 5023 N 475.948 -1.35272 0.808662 0
M  V30 5024 C 477.197 -1.97963 0.386483 0
M  V30 5025 C 477.51 -1.64866 -1.05255 0
M  V30 5026 O 478.716 -2.20937 -1.57794 0
M  V30 5027 C 477.172 -3.54162 0.640096 0
M  V30 5028 C 476.78 -3.96166 2.0918 0
M  V30 5029 C 478.524 -4.23553 0.283376 0
M  V30 5030 C 476.431 -5.4522 2.29106 0
M  V30 5031 H 475.361 -0.740742 0.140774 0
M  V30 5032 H 478.012 -1.5431 0.993012 0
M  V30 5033 H 476.394 -3.95983 -0.0364117 0
M  V30 5034 H 477.568 -3.65491 2.80629 0
M  V30 5035 H 475.883 -3.3967 2.40859 0
M  V30 5036 H 478.48 -5.33124 0.410273 0
M  V30 5037 H 478.823 -4.09105 -0.770659 0
M  V30 5038 H 479.356 -3.8716 0.913884 0
M  V30 5039 H 476.095 -5.64638 3.32962 0
M  V30 5040 H 475.615 -5.77457 1.62184 0
M  V30 5041 H 477.294 -6.1171 2.1076 0
M  V30 5042 N 477.426 -0.562348 -1.47226 0
M  V30 5043 C 478.675 -0.038041 -2.01664 0
M  V30 5044 C 478.988 1.32199 -1.44162 0
M  V30 5045 O 480.194 1.9365 -1.90294 0
M  V30 5046 C 478.65 -0.0174958 -3.59896 0
M  V30 5047 C 478.258 -1.3746 -4.2639 0
M  V30 5048 C 480.002 0.453934 -4.22066 0
M  V30 5049 C 477.909 -1.31289 -5.76643 0
M  V30 5050 H 476.839 -0.0104511 -0.753928 0
M  V30 5051 H 479.49 -0.710966 -1.69167 0
M  V30 5052 H 477.872 0.721182 -3.89378 0
M  V30 5053 H 479.046 -2.1314 -4.08544 0
M  V30 5054 H 477.361 -1.78438 -3.7623 0
M  V30 5055 H 479.958 0.518584 -5.32179 0
M  V30 5056 H 480.301 1.46706 -3.89594 0
M  V30 5057 H 480.834 -0.230044 -3.97134 0
M  V30 5058 H 477.573 -2.30217 -6.13743 0
M  V30 5059 H 477.093 -0.597973 -5.96812 0
M  V30 5060 H 478.772 -1.01713 -6.38955 0
M  V30 5061 N 478.904 1.54736 -0.299062 0
M  V30 5062 C 479.836 2.20891 0.61153 0
M  V30 5063 C 480.849 1.20104 1.09904 0
M  V30 5064 O 482.038 1.46707 1.01683 0
M  V30 5065 C 479.138 2.84018 1.84897 0
M  V30 5066 C 478.311 4.10719 1.50428 0
M  V30 5067 C 477.37 4.57667 2.59667 0
M  V30 5068 O 476.396 5.2291 2.24842 0
M  V30 5069 N 477.598 4.29821 3.90172 0
M  V30 5070 H 480.363 2.99666 0.0452001 0
M  V30 5071 H 477.924 1.61446 -0.121178 0
M  V30 5072 H 479.916 3.1236 2.5732 0
M  V30 5073 H 478.486 2.09095 2.32375 0
M  V30 5074 H 477.706 3.89408 0.612781 0
M  V30 5075 H 478.994 4.93223 1.24934 0
M  V30 5076 H 478.392 3.77549 4.21276 0
M  V30 5077 H 476.949 4.62877 4.58899 0
M  V30 5078 N 480.382 0.0267497 1.57577 0
M  V30 5079 C 481.63 -0.651116 1.91324 0
M  V30 5080 C 481.951 -1.72804 0.90353 0
M  V30 5081 O 481.221 -1.95822 -0.0552946 0
M  V30 5082 H 479.801 -0.243491 0.706202 0
M  V30 5083 H 482.463 0.0739935 1.94759 0
M  V30 5084 H 481.559 -1.10536 2.9187 0
M  V30 5085 N 481.861 -1.55662 -0.24637 0
M  V30 5086 C 482.771 -1.93495 -1.32653 0
M  V30 5087 C 483.787 -0.835462 -1.5263 0
M  V30 5088 O 484.963 -1.1369 -1.66242 0
M  V30 5089 C 482.028 -2.22242 -2.66101 0
M  V30 5090 C 481.089 -3.45625 -2.54641 0
M  V30 5091 C 480.322 -3.72991 -3.81724 0
M  V30 5092 O 480.545 -3.02421 -4.8363 0
M  V30 5093 O 479.479 -4.66515 -3.80325 0
M  V30 5094 H 483.305 -2.85498 -1.03559 0
M  V30 5095 H 480.89 -1.42551 -0.44717 0
M  V30 5096 H 482.772 -2.42037 -3.44958 0
M  V30 5097 H 481.447 -1.33417 -2.94926 0
M  V30 5098 H 480.354 -3.31136 -1.74067 0
M  V30 5099 H 481.687 -4.34754 -2.3076 0
M  V30 5100 N 483.339 0.512053 -1.4905 0
M  V30 5101 C 484.585 1.26874 -1.58212 0
M  V30 5102 C 484.918 1.9241 -0.263073 0
M  V30 5103 O 484.193 1.80181 0.732476 0
M  V30 5104 C 484.476 2.34428 -2.73341 0
M  V30 5105 C 484.329 1.73466 -4.15006 0
M  V30 5106 C 485.648 3.36073 -2.84154 0
M  V30 5107 H 482.767 0.459924 -0.575881 0
M  V30 5108 H 485.409 0.568587 -1.81293 0
M  V30 5109 H 483.559 2.94146 -2.53792 0
M  V30 5110 H 485.231 1.17661 -4.46042 0
M  V30 5111 H 483.474 1.03921 -4.21168 0
M  V30 5112 H 484.145 2.51426 -4.91415 0
M  V30 5113 H 486.621 2.86332 -3.01916 0
M  V30 5114 H 485.497 4.08703 -3.66406 0
M  V30 5115 H 485.758 3.97725 -1.93048 0
M  V30 5116 N 484.817 1.37938 0.762283 0
M  V30 5117 C 486.094 1.24196 1.51112 0
M  V30 5118 C 486.474 -0.160409 2.1049 0
M  V30 5119 O 485.822 -1.16904 1.96331 0
M  V30 5120 C 486.032 2.34537 2.58445 0
M  V30 5121 C 487.38 2.7254 3.25588 0
M  V30 5122 O 488.404 2.33783 2.68745 0
M  V30 5123 O 487.263 3.39343 4.28379 0
M  V30 5124 H 484.357 0.485175 0.669727 0
M  V30 5125 H 486.903 1.49743 0.798438 0
M  V30 5126 H 485.675 3.28406 2.12756 0
M  V30 5127 H 485.298 2.10505 3.37303 0
M  V30 5128 N 486.295 -0.989507 1.22664 0
M  V30 5129 C 487.706 -1.54406 1.04955 0
M  V30 5130 C 488.057 -1.92366 -0.385951 0
M  V30 5131 O 487.182 -1.75111 -1.27142 0
M  V30 5132 C 487.777 -2.80578 1.89899 0
M  V30 5133 C 486.336 -3.32464 1.76478 0
M  V30 5134 C 485.483 -2.05524 1.86159 0
M  V30 5135 H 488.434 -0.810211 1.3646 0
M  V30 5136 H 488.455 -3.53075 1.4184 0
M  V30 5137 H 487.967 -2.52918 2.94371 0
M  V30 5138 H 486.068 -3.65024 0.747528 0
M  V30 5139 H 486.181 -4.02838 2.59342 0
M  V30 5140 H 484.545 -2.19241 1.29636 0
M  V30 5141 H 485.328 -1.80258 2.92168 0
M  V30 5142 N 487.773 -1.03688 -1.18687 0
M  V30 5143 C 489.001 -0.757918 -1.92518 0
M  V30 5144 C 489.416 0.684398 -1.75959 0
M  V30 5145 O 488.773 1.46617 -1.08673 0
M  V30 5146 C 488.824 -1.10985 -3.44042 0
M  V30 5147 O 488.545 -2.49554 -3.60076 0
M  V30 5148 C 490.046 -0.854844 -4.3498 0
M  V30 5149 H 487.266 -0.276699 -0.611293 0
M  V30 5150 H 489.81 -1.38352 -1.50595 0
M  V30 5151 H 487.965 -0.529279 -3.83767 0
M  V30 5152 H 488.379 -2.6291 -4.53849 0
M  V30 5153 H 489.853 -1.15098 -5.39867 0
M  V30 5154 H 490.33 0.210507 -4.38695 0
M  V30 5155 H 490.936 -1.41853 -4.00946 0
M  V30 5156 N 489.251 1.34841 -0.815825 0
M  V30 5157 C 490.183 2.28409 -0.190265 0
M  V30 5158 C 491.196 1.50705 0.615771 0
M  V30 5159 O 492.385 1.72822 0.446616 0
M  V30 5160 C 489.485 3.30441 0.752446 0
M  V30 5161 C 488.658 4.37399 -0.00922152 0
M  V30 5162 C 487.717 5.19234 0.853351 0
M  V30 5163 O 486.743 5.68404 0.300919 0
M  V30 5164 N 487.945 5.38248 2.17416 0
M  V30 5165 H 490.71 2.82732 -0.994114 0
M  V30 5166 H 488.271 1.47289 -0.672129 0
M  V30 5167 H 490.263 3.82084 1.33394 0
M  V30 5168 H 488.833 2.76565 1.45707 0
M  V30 5169 H 488.053 3.86567 -0.771979 0
M  V30 5170 H 489.341 5.05992 -0.533807 0
M  V30 5171 H 488.739 4.99961 2.6468 0
M  V30 5172 H 487.296 5.93035 2.70467 0
M  V30 5173 N 490.729 0.570148 1.46925 0
M  V30 5174 C 491.975 0.0510284 2.02736 0
M  V30 5175 C 492.308 -1.3006 1.44215 0
M  V30 5176 O 491.583 -1.84932 0.602521 0
M  V30 5177 C 491.866 -0.028215 3.60089 0
M  V30 5178 C 491.719 1.35142 4.29018 0
M  V30 5179 C 493.038 -0.735181 4.33916 0
M  V30 5180 H 490.157 0.0200178 0.736728 0
M  V30 5181 H 492.799 0.73493 1.75211 0
M  V30 5182 H 490.949 -0.610648 3.83671 0
M  V30 5183 H 492.621 1.97806 4.16738 0
M  V30 5184 H 490.864 1.9226 3.88868 0
M  V30 5185 H 491.535 1.24857 5.37694 0
M  V30 5186 H 494.011 -0.240519 4.15404 0
M  V30 5187 H 492.887 -0.759622 5.43618 0
M  V30 5188 H 493.148 -1.79397 4.04066 0
M  V30 5189 N 492.207 -1.54576 0.307264 0
M  V30 5190 C 493.157 -2.20467 -0.581249 0
M  V30 5191 C 494.141 -1.17972 -1.09414 0
M  V30 5192 O 495.333 -1.43667 -1.03387 0
M  V30 5193 C 492.462 -2.95369 -1.74963 0
M  V30 5194 C 491.548 -4.05186 -1.25241 0
M  V30 5195 N 491.939 -5.03577 -0.47364 0
M  V30 5196 C 490.237 -4.18841 -1.53259 0
M  V30 5197 C 490.938 -5.81328 -0.208083 0
M  V30 5198 N 489.914 -5.37834 -0.789651 0
M  V30 5199 H 493.716 -2.93892 0.0212221 0
M  V30 5200 H 491.23 -1.62011 0.112325 0
M  V30 5201 H 493.227 -3.41046 -2.39777 0
M  V30 5202 H 491.887 -2.23461 -2.35574 0
M  V30 5203 H 492.898 -5.17766 -0.117963 0
M  V30 5204 H 489.575 -3.58141 -2.14573 0
M  V30 5205 H 490.965 -6.706 0.417793 0
M  V30 5206 N 493.685 -0.035106 -1.57561 0
M  V30 5207 C 494.632 0.94474 -2.10578 0
M  V30 5208 C 495.602 1.3192 -1.00927 0
M  V30 5209 O 496.787 1.41147 -1.28382 0
M  V30 5210 C 493.927 2.21982 -2.64231 0
M  V30 5211 C 493.04 1.90128 -3.87911 0
M  V30 5212 C 492.175 3.11975 -4.29936 0
M  V30 5213 C 491.214 2.75968 -5.46359 0
M  V30 5214 N 490.351 3.90459 -5.83512 0
M  V30 5215 H 495.191 0.485717 -2.94015 0
M  V30 5216 H 492.728 0.228143 -1.4532 0
M  V30 5217 H 494.686 2.96572 -2.9343 0
M  V30 5218 H 493.316 2.6549 -1.83616 0
M  V30 5219 H 492.368 1.05755 -3.65404 0
M  V30 5220 H 493.68 1.59613 -4.72573 0
M  V30 5221 H 492.834 3.9488 -4.60603 0
M  V30 5222 H 491.573 3.45657 -3.44053 0
M  V30 5223 H 490.578 1.91478 -5.1538 0
M  V30 5224 H 491.803 2.43497 -6.33945 0
M  V30 5225 H 489.749 4.23971 -5.00584 0
M  V30 5226 H 489.666 3.63588 -6.62827 0
M  V30 5227 H 490.934 4.7405 -6.18787 0
M  V30 5228 N 495.163 1.55791 0.238111 0
M  V30 5229 C 496.388 1.8244 0.986432 0
M  V30 5230 C 496.813 0.613314 1.7782 0
M  V30 5231 O 496.171 -0.437767 1.75935 0
M  V30 5232 C 496.219 3.06917 1.893 0
M  V30 5233 O 495.323 2.84449 2.98601 0
M  V30 5234 H 494.664 0.601975 0.280218 0
M  V30 5235 H 497.194 2.02987 0.256437 0
M  V30 5236 H 497.204 3.36583 2.30598 0
M  V30 5237 H 495.879 3.947 1.31091 0
M  V30 5238 H 494.456 2.65972 2.61368 0
M  V30 5239 N 496.642 -0.504142 1.49319 0
M  V30 5240 C 497.572 -1.61473 1.68667 0
M  V30 5241 C 498.553 -1.61455 0.535378 0
M  V30 5242 O 499.738 -1.78245 0.770868 0
M  V30 5243 C 496.868 -2.99971 1.75028 0
M  V30 5244 C 495.822 -3.14854 2.89916 0
M  V30 5245 C 495.148 -4.54671 2.81387 0
M  V30 5246 C 496.448 -2.95176 4.30893 0
M  V30 5247 H 498.142 -1.45535 2.61648 0
M  V30 5248 H 495.688 -0.698711 1.25913 0
M  V30 5249 H 497.641 -3.77562 1.8715 0
M  V30 5250 H 496.365 -3.1699 0.786441 0
M  V30 5251 H 495.024 -2.39687 2.77391 0
M  V30 5252 H 494.672 -4.68562 1.82917 0
M  V30 5253 H 494.372 -4.6557 3.58494 0
M  V30 5254 H 495.896 -5.34327 2.95512 0
M  V30 5255 H 497.31 -3.62538 4.44116 0
M  V30 5256 H 495.707 -3.17549 5.09198 0
M  V30 5257 H 496.777 -1.91332 4.45556 0
M  V30 5258 N 498.12 -1.38341 -0.754957 0
M  V30 5259 C 499.052 -1.31347 -1.87831 0
M  V30 5260 C 500.065 -0.225955 -1.61224 0
M  V30 5261 O 501.254 -0.48341 -1.7183 0
M  V30 5262 C 498.354 -1.01201 -3.23437 0
M  V30 5263 C 497.527 -2.20834 -3.77559 0
M  V30 5264 C 496.586 -1.87454 -4.91678 0
M  V30 5265 O 495.612 -2.59934 -5.06382 0
M  V30 5266 N 496.814 -0.828682 -5.74555 0
M  V30 5267 H 499.579 -2.28147 -1.94342 0
M  V30 5268 H 497.14 -1.32184 -0.934828 0
M  V30 5269 H 499.132 -0.769249 -3.97322 0
M  V30 5270 H 497.702 -0.132011 -3.12321 0
M  V30 5271 H 496.922 -2.61184 -2.95256 0
M  V30 5272 H 498.21 -3.00678 -4.10451 0
M  V30 5273 H 497.608 -0.227591 -5.65242 0
M  V30 5274 H 496.165 -0.645802 -6.48593 0
M  V30 5275 N 499.598 0.982988 -1.23187 0
M  V30 5276 C 501.014 1.2487 -0.993967 0
M  V30 5277 C 501.214 1.99155 0.306498 0
M  V30 5278 O 500.27 2.30688 1.0266 0
M  V30 5279 C 501.583 2.05078 -2.19917 0
M  V30 5280 C 503.131 2.18227 -2.2438 0
M  V30 5281 C 503.606 3.01825 -3.44479 0
M  V30 5282 N 505.097 3.09411 -3.44702 0
M  V30 5283 C 505.832 3.74412 -4.34285 0
M  V30 5284 N 505.328 4.41259 -5.341 0
M  V30 5285 N 507.121 3.71273 -4.22035 0
M  V30 5286 H 499.272 0.485253 -2.06783 0
M  V30 5287 H 501.535 0.276979 -0.906635 0
M  V30 5288 H 501.241 1.57867 -3.14279 0
M  V30 5289 H 501.115 3.05829 -2.2079 0
M  V30 5290 H 503.502 2.64648 -1.30559 0
M  V30 5291 H 503.583 1.16873 -2.2754 0
M  V30 5292 H 503.227 2.56102 -4.38605 0
M  V30 5293 H 503.157 4.03342 -3.38559 0
M  V30 5294 H 505.648 2.61845 -2.7248 0
M  V30 5295 H 505.961 4.88629 -5.98717 0
M  V30 5296 H 504.306 4.39975 -5.38002 0
M  V30 5297 H 507.497 3.18217 -3.43301 0
M  V30 5298 H 507.67 4.21649 -4.92053 0
M  V30 5299 N 501.076 1.04316 1.18135 0
M  V30 5300 C 502.325 0.74319 1.87509 0
M  V30 5301 C 502.638 -0.732136 1.81381 0
M  V30 5302 O 503.844 -1.14572 2.46141 0
M  V30 5303 C 502.3 1.27913 3.36402 0
M  V30 5304 C 501.908 2.78326 3.51053 0
M  V30 5305 C 503.652 1.0558 4.11161 0
M  V30 5306 C 501.559 3.25266 4.93919 0
M  V30 5307 H 500.489 0.274313 0.702331 0
M  V30 5308 H 503.14 1.25931 1.33467 0
M  V30 5309 H 501.522 0.690853 3.89927 0
M  V30 5310 H 502.696 3.42933 3.07788 0
M  V30 5311 H 501.011 2.991 2.89704 0
M  V30 5312 H 503.608 1.38161 5.16542 0
M  V30 5313 H 503.951 -0.00684729 4.16299 0
M  V30 5314 H 504.484 1.60882 3.63816 0
M  V30 5315 H 501.223 4.30922 4.9395 0
M  V30 5316 H 500.743 2.65396 5.3789 0
M  V30 5317 H 502.422 3.19433 5.62647 0
M  V30 5318 N 502.554 -1.34406 0.822964 0
M  V30 5319 C 503.97 -1.51275 0.508727 0
M  V30 5320 C 504.17 -1.76776 -0.967083 0
M  V30 5321 O 503.226 -1.81871 -1.75155 0
M  V30 5322 C 504.539 -2.67765 1.36829 0
M  V30 5323 C 506.087 -2.81647 1.36542 0
M  V30 5324 C 506.562 -4.01181 2.20947 0
M  V30 5325 N 508.053 -4.08388 2.18571 0
M  V30 5326 C 508.788 -5.00036 2.80627 0
M  V30 5327 N 508.284 -5.96906 3.51674 0
M  V30 5328 N 510.077 -4.92908 2.70181 0
M  V30 5329 H 502.228 -1.16113 1.77852 0
M  V30 5330 H 504.491 -0.56947 0.757897 0
M  V30 5331 H 504.197 -2.55551 2.41633 0
M  V30 5332 H 504.071 -3.62779 1.03303 0
M  V30 5333 H 506.458 -2.93303 0.325163 0
M  V30 5334 H 506.539 -1.87443 1.74066 0
M  V30 5335 H 506.183 -3.90286 3.25022 0
M  V30 5336 H 506.113 -4.94599 1.80774 0
M  V30 5337 H 508.604 -3.39051 1.66891 0
M  V30 5338 H 508.917 -6.63468 3.96271 0
M  V30 5339 H 507.262 -5.9703 3.5578 0
M  V30 5340 H 510.453 -4.1619 2.14251 0
M  V30 5341 H 510.626 -5.64137 3.18831 0
M  V30 5342 N 504.032 -0.577932 -1.46621 0
M  V30 5343 C 504.942 0.160651 -2.34049 0
M  V30 5344 C 505.958 0.890911 -1.49462 0
M  V30 5345 O 507.134 0.855166 -1.82343 0
M  V30 5346 C 504.199 1.16447 -3.26559 0
M  V30 5347 C 503.26 0.4394 -4.27045 0
M  V30 5348 C 502.493 1.3954 -5.15135 0
M  V30 5349 O 502.716 2.63162 -5.06065 0
M  V30 5350 O 501.65 0.908585 -5.95003 0
M  V30 5351 H 505.476 -0.557057 -2.98547 0
M  V30 5352 H 503.061 -0.338369 -1.45518 0
M  V30 5353 H 504.943 1.7434 -3.83645 0
M  V30 5354 H 503.618 1.86373 -2.64663 0
M  V30 5355 H 502.525 -0.181247 -3.73661 0
M  V30 5356 H 503.858 -0.218799 -4.91713 0
M  V30 5357 N 505.51 1.54411 -0.315457 0
M  V30 5358 C 506.926 1.59556 0.037464 0
M  V30 5359 C 507.126 1.33217 1.5118 0
M  V30 5360 O 506.182 1.11264 2.26664 0
M  V30 5361 C 507.495 2.98372 -0.373477 0
M  V30 5362 C 509.043 3.11324 -0.323452 0
M  V30 5363 C 509.518 4.52472 -0.709433 0
M  V30 5364 N 511.009 4.58437 -0.662524 0
M  V30 5365 C 511.744 5.65751 -0.933474 0
M  V30 5366 N 511.24 6.81039 -1.27114 0
M  V30 5367 N 513.033 5.55489 -0.859573 0
M  V30 5368 H 505.184 1.6979 -1.27614 0
M  V30 5369 H 507.447 0.793732 -0.518356 0
M  V30 5370 H 507.153 3.22618 -1.40037 0
M  V30 5371 H 507.027 3.76264 0.265615 0
M  V30 5372 H 509.414 2.86818 0.694223 0
M  V30 5373 H 509.495 2.35555 -0.997367 0
M  V30 5374 H 509.139 4.7771 -1.72498 0
M  V30 5375 H 509.069 5.26598 -0.0132923 0
M  V30 5376 H 511.56 3.75636 -0.413065 0
M  V30 5377 H 511.873 7.58816 -1.46348 0
M  V30 5378 H 510.218 6.82555 -1.30932 0
M  V30 5379 H 513.409 4.64299 -0.595324 0
M  V30 5380 H 513.582 6.39036 -1.0741 0
M  V30 5381 N 506.988 0.0434614 1.5754 0
M  V30 5382 C 507.935 -0.93356 2.11077 0
M  V30 5383 C 508.905 -1.31383 1.01626 0
M  V30 5384 O 510.09 -1.40465 1.29129 0
M  V30 5385 C 507.23 -2.20578 2.65404 0
M  V30 5386 C 506.343 -1.88068 3.88914 0
M  V30 5387 C 505.478 -3.09691 4.31584 0
M  V30 5388 C 504.517 -2.73067 5.47815 0
M  V30 5389 N 503.654 -3.87359 5.85574 0
M  V30 5390 H 508.494 -0.470118 2.94268 0
M  V30 5391 H 506.031 -0.220434 1.45439 0
M  V30 5392 H 507.989 -2.95011 2.94999 0
M  V30 5393 H 506.619 -2.64513 1.85021 0
M  V30 5394 H 505.671 -1.03816 3.6596 0
M  V30 5395 H 506.983 -1.57104 4.73413 0
M  V30 5396 H 506.137 -3.92431 4.62691 0
M  V30 5397 H 504.876 -3.43827 3.45882 0
M  V30 5398 H 503.881 -1.88742 5.16388 0
M  V30 5399 H 505.106 -2.40131 6.35227 0
M  V30 5400 H 503.052 -4.21311 5.02825 0
M  V30 5401 H 502.969 -3.60068 6.64746 0
M  V30 5402 H 504.237 -4.70761 6.21292 0
M  V30 5403 N 508.466 -1.55915 -0.229846 0
M  V30 5404 C 509.396 -1.94754 -1.28815 0
M  V30 5405 C 510.377 -0.814657 -1.49323 0
M  V30 5406 O 511.562 -1.07631 -1.61645 0
M  V30 5407 C 508.692 -2.25705 -2.63959 0
M  V30 5408 C 507.646 -3.41406 -2.5812 0
M  V30 5409 C 506.972 -3.57941 -3.97218 0
M  V30 5410 C 508.272 -4.76616 -2.13623 0
M  V30 5411 H 509.966 -2.83404 -0.965547 0
M  V30 5412 H 507.512 -1.36353 -0.463028 0
M  V30 5413 H 509.465 -2.51467 -3.38146 0
M  V30 5414 H 508.189 -1.339 -2.9789 0
M  V30 5415 H 506.848 -3.1568 -1.86391 0
M  V30 5416 H 506.496 -2.63526 -4.28443 0
M  V30 5417 H 506.196 -4.35757 -3.94195 0
M  V30 5418 H 507.72 -3.86042 -4.73079 0
M  V30 5419 H 509.134 -5.01637 -2.77549 0
M  V30 5420 H 507.531 -5.57655 -2.21677 0
M  V30 5421 H 508.601 -4.7253 -1.08829 0
M  V30 5422 N 509.944 0.496216 -1.49584 0
M  V30 5423 C 510.907 1.57952 -1.66084 0
M  V30 5424 C 511.907 1.51729 -0.53244 0
M  V30 5425 O 513.097 1.54796 -0.79899 0
M  V30 5426 C 510.229 2.97604 -1.66268 0
M  V30 5427 H 511.422 1.44649 -2.6271 0
M  V30 5428 H 508.975 0.7208 -1.38687 0
M  V30 5429 H 509.71 3.16378 -0.712432 0
M  V30 5430 H 509.495 3.03528 -2.4822 0
M  V30 5431 H 510.985 3.76301 -1.81073 0
M  V30 5432 N 511.423 1.38739 0.74761 0
M  V30 5433 C 512.371 1.36573 1.88283 0
M  V30 5434 C 513.365 0.250712 1.67534 0
M  V30 5435 O 514.571 0.420073 1.7503 0
M  V30 5436 H 510.946 0.42619 0.619569 0
M  V30 5437 H 512.917 2.32356 1.87226 0
M  V30 5438 C 511.666 1.21361 3.25832 0
M  V30 5439 H 510.989 2.06424 3.42388 0
M  V30 5440 H 512.429 1.23901 4.05493 0
M  V30 5441 C 510.888 -0.0790099 3.36807 0
M  V30 5442 O 511.418 -1.05385 3.8763 0
M  V30 5443 N 509.624 -0.13785 2.90273 0
M  V30 5444 H 509.171 0.656128 2.49104 0
M  V30 5445 H 509.129 -1.00228 2.97996 0
M  V30 5446 N 512.901 -0.976442 1.23707 0
M  V30 5447 C 514.148 -1.71827 1.07153 0
M  V30 5448 C 514.476 -1.9053 -0.390982 0
M  V30 5449 O 513.731 -1.45779 -1.30564 0
M  V30 5450 C 514.03 -3.11814 1.74662 0
M  V30 5451 C 513.696 -3.12978 3.24585 0
M  V30 5452 C 512.358 -3.13003 3.6549 0
M  V30 5453 C 514.71 -3.07986 4.20469 0
M  V30 5454 C 512.038 -3.05757 5.00729 0
M  V30 5455 C 514.39 -3.02282 5.55705 0
M  V30 5456 C 513.054 -3.00631 5.95968 0
M  V30 5457 H 512.324 -0.628758 0.392102 0
M  V30 5458 H 514.971 -1.14239 1.53693 0
M  V30 5459 H 513.276 -3.72812 1.20492 0
M  V30 5460 H 514.973 -3.67989 1.59328 0
M  V30 5461 H 511.563 -3.13718 2.92026 0
M  V30 5462 H 515.747 -3.07103 3.89874 0
M  V30 5463 H 511.003 -3.02834 5.31132 0
M  V30 5464 H 515.177 -2.97376 6.29714 0
M  V30 5465 H 512.804 -2.94771 7.00724 0
M  V30 5466 N 514.379 -1.04941 -1.1758 0
M  V30 5467 C 515.628 -0.753124 -1.87112 0
M  V30 5468 C 515.941 0.722507 -1.81767 0
M  V30 5469 O 517.147 1.13265 -2.46746 0
M  V30 5470 C 515.603 -1.29695 -3.35719 0
M  V30 5471 C 515.211 -2.80184 -3.49572 0
M  V30 5472 C 516.955 -1.07759 -4.10595 0
M  V30 5473 C 514.862 -3.2788 -4.92187 0
M  V30 5474 H 513.792 -0.278034 -0.700866 0
M  V30 5475 H 516.443 -1.26637 -1.32798 0
M  V30 5476 H 514.825 -0.711522 -3.89555 0
M  V30 5477 H 515.999 -3.44561 -3.05965 0
M  V30 5478 H 514.314 -3.00632 -2.88113 0
M  V30 5479 H 516.911 -1.40899 -5.15802 0
M  V30 5480 H 517.254 -0.0152302 -4.16297 0
M  V30 5481 H 517.787 -1.62809 -3.62957 0
M  V30 5482 H 514.526 -4.33535 -4.91658 0
M  V30 5483 H 514.046 -2.68245 -5.36475 0
M  V30 5484 H 515.725 -3.22412 -5.60945 0
M  V30 5485 N 515.857 1.33968 -0.830081 0
M  V30 5486 C 517.268 1.80439 -0.479455 0
M  V30 5487 C 517.619 1.68756 1.00079 0
M  V30 5488 O 516.744 1.23171 1.77927 0
M  V30 5489 C 517.339 3.27611 -0.863505 0
M  V30 5490 C 515.898 3.72133 -0.565145 0
M  V30 5491 C 515.045 2.55549 -1.07657 0
M  V30 5492 H 517.996 1.21614 -1.0196 0
M  V30 5493 H 518.017 3.8012 -0.170083 0
M  V30 5494 H 517.529 3.36082 -1.94089 0
M  V30 5495 H 515.63 3.69196 0.502536 0
M  V30 5496 H 515.743 4.65963 -1.11422 0
M  V30 5497 H 514.107 2.49788 -0.497807 0
M  V30 5498 H 514.89 2.66786 -2.16055 0
M  V30 5499 N 517.335 0.585699 1.46312 0
M  V30 5500 C 518.581 0.0808731 2.03239 0
M  V30 5501 C 518.936 -1.26609 1.44872 0
M  V30 5502 O 518.229 -1.81779 0.60556 0
M  V30 5503 C 518.423 -0.0401312 3.57377 0
M  V30 5504 C 518.252 1.29356 4.30694 0
M  V30 5505 C 517.022 1.86849 4.69484 0
M  V30 5506 C 519.22 2.21742 4.64042 0
M  V30 5507 N 517.202 3.13926 5.27564 0
M  V30 5508 C 518.573 3.33408 5.22723 0
M  V30 5509 C 520.628 2.21386 4.45974 0
M  V30 5510 C 519.331 4.44852 5.65242 0
M  V30 5511 C 521.357 3.31862 4.89511 0
M  V30 5512 C 520.719 4.42248 5.48266 0
M  V30 5513 H 516.818 0.072443 0.778637 0
M  V30 5514 H 519.402 0.779254 1.78426 0
M  V30 5515 H 517.573 -0.707686 3.81898 0
M  V30 5516 H 519.305 -0.549615 4.00951 0
M  V30 5517 H 516.06 1.40307 4.52339 0
M  V30 5518 H 516.484 3.78775 5.61122 0
M  V30 5519 H 521.126 1.37314 3.99881 0
M  V30 5520 H 518.844 5.29665 6.10312 0
M  V30 5521 H 522.43 3.32708 4.7728 0
M  V30 5522 H 521.31 5.26323 5.81338 0
M  V30 5523 N 518.813 -1.54241 0.323641 0
M  V30 5524 C 520.061 -2.00174 -0.278359 0
M  V30 5525 C 520.382 -1.2134 -1.52648 0
M  V30 5526 O 519.652 -0.315244 -1.93347 0
M  V30 5527 H 518.232 -0.739463 -0.105845 0
M  V30 5528 H 520.894 -1.89864 0.440204 0
M  V30 5529 H 519.99 -3.07486 -0.5347 0
M  V30 5530 N 520.291 -0.0518155 -1.57515 0
M  V30 5531 C 521.702 0.483787 -1.80323 0
M  V30 5532 C 522.053 1.70879 -0.964099 0
M  V30 5533 O 521.178 2.15643 -0.180872 0
M  V30 5534 C 521.773 0.884459 -3.27052 0
M  V30 5535 C 520.332 1.36504 -3.50776 0
M  V30 5536 C 519.479 0.340539 -2.75201 0
M  V30 5537 H 522.43 -0.277691 -1.56252 0
M  V30 5538 H 522.451 1.74733 -3.38007 0
M  V30 5539 H 521.963 -0.00731093 -3.88099 0
M  V30 5540 H 520.064 2.27598 -2.95009 0
M  V30 5541 H 520.177 1.35675 -4.59488 0
M  V30 5542 H 518.541 0.81356 -2.41357 0
M  V30 5543 H 519.324 -0.543156 -3.38976 0
M  V30 5544 N 521.769 1.56035 0.221574 0
M  V30 5545 C 522.732 1.91584 1.2581 0
M  V30 5546 C 523.732 0.794425 1.39805 0
M  V30 5547 O 524.922 1.06217 1.38071 0
M  V30 5548 C 522.054 2.16663 2.63192 0
M  V30 5549 H 523.247 2.8429 0.954935 0
M  V30 5550 H 520.8 1.49316 0.461988 0
M  V30 5551 H 521.535 1.26508 2.98607 0
M  V30 5552 H 521.32 2.98358 2.5441 0
M  V30 5553 H 522.81 2.45262 3.37988 0
M  V30 5554 N 523.247 -0.488276 1.49845 0
M  V30 5555 C 524.472 -1.26997 1.63971 0
M  V30 5556 C 524.897 -1.85427 0.315994 0
M  V30 5557 O 524.255 -1.66475 -0.718032 0
M  V30 5558 C 524.303 -2.36689 2.72049 0
M  V30 5559 O 523.407 -3.40882 2.32107 0
M  V30 5560 H 522.748 -0.374376 0.548396 0
M  V30 5561 H 525.278 -0.583104 1.96115 0
M  V30 5562 H 525.288 -2.82262 2.94605 0
M  V30 5563 H 523.963 -1.93529 3.68129 0
M  V30 5564 H 522.54 -3.01139 2.19931 0
M  V30 5565 N 524.725 -1.39134 -0.740242 0
M  V30 5566 C 525.974 -1.35384 -1.49512 0
M  V30 5567 C 526.287 0.04919 -1.95538 0
M  V30 5568 O 527.493 0.209257 -2.70692 0
M  V30 5569 C 525.949 -2.37812 -2.70136 0
M  V30 5570 C 525.557 -3.83804 -2.31081 0
M  V30 5571 C 527.301 -2.4313 -3.47977 0
M  V30 5572 C 525.208 -4.77886 -3.48395 0
M  V30 5573 H 524.138 -0.503297 -0.561434 0
M  V30 5574 H 526.789 -1.64754 -0.807974 0
M  V30 5575 H 525.171 -2.01505 -3.40899 0
M  V30 5576 H 526.345 -4.29123 -1.67898 0
M  V30 5577 H 524.66 -3.81732 -1.66343 0
M  V30 5578 H 527.257 -3.10614 -4.35228 0
M  V30 5579 H 527.6 -1.45423 -3.90074 0
M  V30 5580 H 528.133 -2.78304 -2.84239 0
M  V30 5581 H 524.872 -5.76836 -3.11353 0
M  V30 5582 H 524.392 -4.3725 -4.10576 0
M  V30 5583 H 526.071 -4.96538 -4.148 0
M  V30 5584 N 526.204 0.969867 -1.24223 0
M  V30 5585 C 527.136 2.0669 -0.99055 0
M  V30 5586 C 528.149 1.62753 0.0392222 0
M  V30 5587 O 529.338 1.77403 -0.197561 0
M  V30 5588 C 526.438 3.35589 -0.472594 0
M  V30 5589 C 525.611 4.08444 -1.56499 0
M  V30 5590 C 524.67 5.15616 -1.05007 0
M  V30 5591 O 523.696 5.41911 -1.7413 0
M  V30 5592 N 524.898 5.80383 0.116641 0
M  V30 5593 H 527.663 2.28855 -1.93508 0
M  V30 5594 H 525.224 1.13733 -1.15223 0
M  V30 5595 H 527.216 4.04542 -0.112919 0
M  V30 5596 H 525.786 3.10311 0.377617 0
M  V30 5597 H 525.006 3.33798 -2.09696 0
M  V30 5598 H 526.294 4.53882 -2.29932 0
M  V30 5599 H 525.692 5.6142 0.694589 0
M  V30 5600 H 524.249 6.50462 0.417483 0
M  V30 5601 N 527.682 1.05563 1.17022 0
M  V30 5602 C 528.928 0.769074 1.87652 0
M  V30 5603 C 529.261 -0.702326 1.81055 0
M  V30 5604 O 528.536 -1.5139 1.22112 0
M  V30 5605 C 528.819 1.25492 3.37526 0
M  V30 5606 C 528.672 2.78953 3.52853 0
M  V30 5607 C 529.991 0.856919 4.31677 0
M  V30 5608 H 527.11 0.280854 0.681388 0
M  V30 5609 H 529.752 1.31027 1.37593 0
M  V30 5610 H 527.902 0.794516 3.80289 0
M  V30 5611 H 529.574 3.33146 3.19079 0
M  V30 5612 H 527.817 3.18046 2.95007 0
M  V30 5613 H 528.488 3.08011 4.58076 0
M  V30 5614 H 530.964 1.25334 3.96775 0
M  V30 5615 H 529.84 1.22443 5.35069 0
M  V30 5616 H 530.101 -0.238787 4.41455 0
M  V30 5617 N 529.16 -1.33526 0.837174 0
M  V30 5618 C 530.123 -2.27551 0.274421 0
M  V30 5619 C 531.123 -1.50886 -0.555881 0
M  V30 5620 O 532.313 -1.70227 -0.369918 0
M  V30 5621 C 529.445 -3.35332 -0.613605 0
M  V30 5622 H 530.638 -2.78837 1.10408 0
M  V30 5623 H 528.191 -1.439 0.610126 0
M  V30 5624 H 528.926 -2.89285 -1.46577 0
M  V30 5625 H 528.711 -3.92095 -0.0195341 0
M  V30 5626 H 530.201 -4.05433 -1.00068 0
M  V30 5627 N 530.638 -0.59345 -1.46 0
M  V30 5628 C 531.568 0.121192 -2.33185 0
M  V30 5629 C 532.549 0.872977 -1.4599 0
M  V30 5630 O 533.734 0.846321 -1.74789 0
M  V30 5631 C 530.864 1.12844 -3.28456 0
M  V30 5632 C 529.818 0.4908 -4.25177 0
M  V30 5633 C 529.144 1.60529 -5.10034 0
M  V30 5634 C 530.444 -0.578949 -5.19081 0
M  V30 5635 H 532.138 -0.606767 -2.93187 0
M  V30 5636 H 529.684 -0.293242 -1.40983 0
M  V30 5637 H 531.637 1.63684 -3.88311 0
M  V30 5638 H 530.361 1.88681 -2.66584 0
M  V30 5639 H 529.02 0.00339328 -3.666 0
M  V30 5640 H 528.668 2.35359 -4.44539 0
M  V30 5641 H 528.368 1.18422 -5.75543 0
M  V30 5642 H 529.892 2.11623 -5.72755 0
M  V30 5643 H 531.306 -0.155199 -5.7309 0
M  V30 5644 H 529.703 -0.920947 -5.92991 0
M  V30 5645 H 530.773 -1.46109 -4.62364 0
M  V30 5646 N 532.116 1.54067 -0.331816 0
M  V30 5647 C 533.341 2.05599 0.272705 0
M  V30 5648 C 533.766 1.2059 1.44359 0
M  V30 5649 O 533.124 0.216907 1.79998 0
M  V30 5650 C 533.172 3.54188 0.677021 0
M  V30 5651 O 532.276 3.72082 1.77844 0
M  V30 5652 H 531.617 0.662286 0.0476801 0
M  V30 5653 H 534.147 1.98826 -0.482624 0
M  V30 5654 H 534.157 3.96608 0.957415 0
M  V30 5655 H 532.832 4.15513 -0.179325 0
M  V30 5656 H 531.409 3.41566 1.49622 0
M  V30 5657 N 533.594 0.0601682 1.57485 0
M  V30 5658 C 535.01 -0.296422 1.56823 0
M  V30 5659 C 535.21 -1.70831 1.0686 0
M  V30 5660 O 534.266 -2.4174 0.729245 0
M  V30 5661 C 535.579 -0.116681 3.00474 0
M  V30 5662 C 537.127 -0.187103 3.1244 0
M  V30 5663 C 537.602 -0.035783 4.57986 0
M  V30 5664 N 539.093 -0.0917676 4.63109 0
M  V30 5665 C 539.828 0.00107251 5.734 0
M  V30 5666 N 539.324 0.146773 6.92645 0
M  V30 5667 N 541.117 -0.0551577 5.62073 0
M  V30 5668 H 533.268 0.983055 1.88281 0
M  V30 5669 H 535.531 0.382386 0.867459 0
M  V30 5670 H 535.237 0.85712 3.41096 0
M  V30 5671 H 535.111 -0.873929 3.66936 0
M  V30 5672 H 537.498 -1.15138 2.71712 0
M  V30 5673 H 537.579 0.601052 2.48638 0
M  V30 5674 H 537.223 0.925212 4.99402 0
M  V30 5675 H 537.153 -0.843196 5.19806 0
M  V30 5676 H 539.644 -0.203261 3.77353 0
M  V30 5677 H 539.957 0.210076 7.72514 0
M  V30 5678 H 538.302 0.181979 6.94762 0
M  V30 5679 H 541.493 -0.167605 4.678 0
M  V30 5680 H 541.666 0.020652 6.47997 0
M  V30 5681 N 535.072 -1.5615 -0.213296 0
M  V30 5682 C 536.019 -1.93086 -1.26437 0
M  V30 5683 C 536.989 -0.789086 -1.4616 0
M  V30 5684 O 538.174 -1.04569 -1.59593 0
M  V30 5685 C 535.314 -2.26003 -2.608 0
M  V30 5686 C 534.427 -3.53156 -2.48807 0
M  V30 5687 C 533.562 -3.7548 -3.7575 0
M  V30 5688 C 532.601 -4.96119 -3.58514 0
M  V30 5689 N 531.738 -5.14791 -4.77425 0
M  V30 5690 H 536.578 -2.82707 -0.942376 0
M  V30 5691 H 534.115 -1.39919 -0.454001 0
M  V30 5692 H 536.073 -2.431 -3.39055 0
M  V30 5693 H 534.703 -1.39546 -2.91079 0
M  V30 5694 H 533.755 -3.44207 -1.61944 0
M  V30 5695 H 535.067 -4.41565 -2.31996 0
M  V30 5696 H 534.221 -3.92718 -4.62447 0
M  V30 5697 H 532.96 -2.85368 -3.95495 0
M  V30 5698 H 531.965 -4.78823 -2.70201 0
M  V30 5699 H 533.19 -5.87724 -3.40231 0
M  V30 5700 H 531.136 -4.27623 -4.97468 0
M  V30 5701 H 531.053 -5.97347 -4.63371 0
M  V30 5702 H 532.321 -5.36471 -5.65525 0
M  V30 5703 N 536.55 0.480323 -1.50102 0
M  V30 5704 C 537.775 1.26126 -1.64642 0
M  V30 5705 C 538.2 1.85257 -0.325823 0
M  V30 5706 O 537.558 1.66854 0.709194 0
M  V30 5707 C 537.606 2.35243 -2.73301 0
M  V30 5708 O 536.71 3.39646 -2.33911 0
M  V30 5709 H 536.051 0.371463 -0.550374 0
M  V30 5710 H 538.581 0.572696 -1.96421 0
M  V30 5711 H 538.591 2.80695 -2.96098 0
M  V30 5712 H 537.266 1.91574 -3.6915 0
M  V30 5713 H 535.843 2.99969 -2.21525 0
M  V30 5714 N 538.028 1.39524 0.732853 0
M  V30 5715 C 539.439 1.32905 1.31122 0
M  V30 5716 C 539.79 -0.00558708 1.96199 0
M  V30 5717 O 538.915 -0.907706 1.96443 0
M  V30 5718 C 539.51 2.40704 2.38426 0
M  V30 5719 C 538.069 2.37599 2.91931 0
M  V30 5720 C 537.216 2.2248 1.65523 0
M  V30 5721 H 540.167 1.49581 0.530207 0
M  V30 5722 H 540.188 2.07616 3.18867 0
M  V30 5723 H 539.7 3.37829 1.91033 0
M  V30 5724 H 537.801 1.44119 3.43599 0
M  V30 5725 H 537.914 3.32538 3.44899 0
M  V30 5726 H 536.278 1.69691 1.8994 0
M  V30 5727 H 537.061 3.21577 1.20178 0
M  V30 5728 N 539.506 -0.963266 1.24736 0
M  V30 5729 C 540.736 -1.73913 1.11524 0
M  V30 5730 C 541.144 -1.86218 -0.334612 0
M  V30 5731 O 540.487 -1.3531 -1.24245 0
M  V30 5732 C 540.549 -3.17501 1.68622 0
M  V30 5733 C 540.213 -3.28655 3.17546 0
M  V30 5734 C 541.21 -3.13637 4.14642 0
M  V30 5735 C 538.895 -3.52753 3.5759 0
M  V30 5736 C 540.889 -3.2255 5.49764 0
M  V30 5737 C 538.576 -3.61303 4.92852 0
M  V30 5738 C 539.574 -3.46214 5.88748 0
M  V30 5739 O 539.262 -3.5443 7.2155 0
M  V30 5740 H 538.994 -0.552057 0.390139 0
M  V30 5741 H 541.548 -1.2177 1.65412 0
M  V30 5742 H 539.778 -3.70969 1.09172 0
M  V30 5743 H 541.467 -3.76914 1.50635 0
M  V30 5744 H 542.233 -2.94899 3.85045 0
M  V30 5745 H 538.112 -3.63561 2.83451 0
M  V30 5746 H 541.656 -3.1069 6.24594 0
M  V30 5747 H 537.553 -3.79556 5.22118 0
M  V30 5748 H 538.321 -3.71116 7.29531 0
M  V30 5749 N 540.985 -1.06182 -1.16461 0
M  V30 5750 C 541.915 -0.692861 -2.22984 0
M  V30 5751 C 542.896 0.314122 -1.67174 0
M  V30 5752 O 544.081 0.189499 -1.93273 0
M  V30 5753 C 541.211 -0.07732 -3.47214 0
M  V30 5754 C 540.165 -1.01015 -4.15909 0
M  V30 5755 C 539.491 -0.257973 -5.34077 0
M  V30 5756 C 540.791 -2.33868 -4.67015 0
M  V30 5757 H 542.485 -1.58343 -2.54102 0
M  V30 5758 H 540.031 -0.76279 -1.22137 0
M  V30 5759 H 541.984 0.19266 -4.20959 0
M  V30 5760 H 540.708 0.848254 -3.15392 0
M  V30 5761 H 539.367 -1.26486 -3.44088 0
M  V30 5762 H 539.015 0.670684 -4.98509 0
M  V30 5763 H 538.715 -0.879638 -5.80979 0
M  V30 5764 H 540.239 0.00448788 -6.106 0
M  V30 5765 H 541.653 -2.1279 -5.32347 0
M  V30 5766 H 540.05 -2.91522 -5.24533 0
M  V30 5767 H 541.12 -2.97019 -3.83286 0
M  V30 5768 N 542.463 1.3308 -0.844243 0
M  V30 5769 C 543.874 1.7992 -0.498566 0
M  V30 5770 C 544.225 1.69808 0.982834 0
M  V30 5771 O 543.35 1.25051 1.7661 0
M  V30 5772 C 543.945 3.26677 -0.898204 0
M  V30 5773 C 542.504 3.71513 -0.604583 0
M  V30 5774 C 541.651 2.54393 -1.10362 0
M  V30 5775 H 544.602 1.20526 -1.03244 0
M  V30 5776 H 544.623 3.79918 -0.21039 0
M  V30 5777 H 544.135 3.34004 -1.97643 0
M  V30 5778 H 542.236 3.69708 0.46335 0
M  V30 5779 H 542.349 4.64755 -1.16358 0
M  V30 5780 H 540.713 2.49246 -0.524273 0
M  V30 5781 H 541.496 2.6448 -2.18873 0
M  V30 5782 N 543.941 0.601185 1.45683 0
M  V30 5783 C 545.166 0.0982245 2.07167 0
M  V30 5784 C 545.591 -1.20546 1.44396 0
M  V30 5785 O 544.949 -1.73247 0.534347 0
M  V30 5786 C 544.997 -0.0346976 3.60583 0
M  V30 5787 O 544.101 -1.08657 3.97828 0
M  V30 5788 H 543.442 0.0711618 0.660176 0
M  V30 5789 H 545.972 0.829376 1.87036 0
M  V30 5790 H 545.982 -0.234969 4.07323 0
M  V30 5791 H 544.657 0.917265 4.05659 0
M  V30 5792 H 543.234 -0.863275 3.6277 0
M  V30 5793 N 545.419 -1.53889 0.339982 0
M  V30 5794 C 546.382 -2.23547 -0.50592 0
M  V30 5795 C 547.382 -1.23445 -1.03044 0
M  V30 5796 O 548.572 -1.47909 -0.920253 0
M  V30 5797 C 545.704 -2.95234 -1.7044 0
M  V30 5798 H 546.897 -2.99722 0.103247 0
M  V30 5799 H 544.45 -1.56033 0.0912804 0
M  V30 5800 H 545.185 -2.23236 -2.35236 0
M  V30 5801 H 544.97 -3.68654 -1.33553 0
M  V30 5802 H 546.46 -3.48258 -2.30447 0
M  V30 5803 N 546.897 -0.0685191 -1.57451 0
M  V30 5804 C 547.847 0.909895 -2.09057 0
M  V30 5805 C 548.831 1.26088 -0.999528 0
M  V30 5806 O 550.023 1.24041 -1.26265 0
M  V30 5807 C 547.152 2.17863 -2.65312 0
M  V30 5808 C 546.238 1.85427 -3.81415 0
M  V30 5809 N 546.629 1.23426 -4.9051 0
M  V30 5810 C 544.927 2.15196 -3.90649 0
M  V30 5811 C 545.628 1.09008 -5.71395 0
M  V30 5812 N 544.604 1.59871 -5.1956 0
M  V30 5813 H 548.406 0.426145 -2.90794 0
M  V30 5814 H 545.92 0.135462 -1.61834 0
M  V30 5815 H 547.917 2.88872 -3.00597 0
M  V30 5816 H 546.577 2.66829 -1.85021 0
M  V30 5817 H 547.588 0.904305 -5.09944 0
M  V30 5818 H 544.265 2.66562 -3.21327 0
M  V30 5819 H 545.655 0.607305 -6.6915 0
M  V30 5820 N 548.375 1.56261 0.205012 0
M  V30 5821 C 549.791 1.49623 0.555433 0
M  V30 5822 C 549.991 0.766719 1.86343 0
M  V30 5823 O 549.047 0.313158 2.50551 0
M  V30 5824 C 550.36 2.94253 0.619347 0
M  V30 5825 C 551.908 3.04868 0.708855 0
M  V30 5826 C 552.383 4.50888 0.803969 0
M  V30 5827 N 553.874 4.54999 0.867758 0
M  V30 5828 C 554.609 5.65284 0.96135 0
M  V30 5829 N 554.105 6.85282 1.01786 0
M  V30 5830 N 555.898 5.53174 0.997771 0
M  V30 5831 H 548.049 2.0211 -0.653094 0
M  V30 5832 H 550.312 0.919333 -0.231366 0
M  V30 5833 H 550.018 3.50643 -0.272458 0
M  V30 5834 H 549.892 3.47063 1.47741 0
M  V30 5835 H 552.279 2.48532 1.5911 0
M  V30 5836 H 552.36 2.55199 -0.175205 0
M  V30 5837 H 552.004 5.07846 -0.0738798 0
M  V30 5838 H 551.934 4.98279 1.70369 0
M  V30 5839 H 554.425 3.68588 0.833735 0
M  V30 5840 H 554.738 7.65081 1.08951 0
M  V30 5841 H 553.083 6.8796 0.986706 0
M  V30 5842 H 556.274 4.5835 0.950392 0
M  V30 5843 H 556.447 6.39151 1.06725 0
M  V30 5844 N 549.853 -0.472356 1.50355 0
M  V30 5845 C 551.099 -1.22634 1.6152 0
M  V30 5846 C 551.432 -1.91645 0.313995 0
M  V30 5847 O 550.707 -1.82059 -0.684446 0
M  V30 5848 C 550.99 -2.27099 2.7946 0
M  V30 5849 C 550.843 -1.62402 4.19459 0
M  V30 5850 C 552.162 -3.28421 2.92964 0
M  V30 5851 H 549.281 -0.444494 0.587873 0
M  V30 5852 H 551.923 -0.520321 1.82737 0
M  V30 5853 H 550.073 -2.87314 2.61501 0
M  V30 5854 H 551.745 -1.05793 4.49005 0
M  V30 5855 H 549.988 -0.927184 4.23776 0
M  V30 5856 H 550.659 -2.38309 4.97909 0
M  V30 5857 H 553.135 -2.78227 3.09401 0
M  V30 5858 H 552.011 -3.98845 3.77113 0
M  V30 5859 H 552.272 -3.92467 2.03525 0
M  V30 5860 N 551.331 -1.39911 -0.725443 0
M  V30 5861 C 552.556 -1.41137 -1.5197 0
M  V30 5862 C 552.981 -0.010262 -1.88097 0
M  V30 5863 O 552.339 0.979184 -1.52583 0
M  V30 5864 C 552.387 -2.2994 -2.77777 0
M  V30 5865 O 551.491 -1.73586 -3.74088 0
M  V30 5866 H 550.832 -0.480219 -0.458569 0
M  V30 5867 H 553.362 -1.84023 -0.894249 0
M  V30 5868 H 553.372 -2.44785 -3.26411 0
M  V30 5869 H 552.047 -3.31759 -2.50816 0
M  V30 5870 H 550.624 -1.68035 -3.32894 0
M  V30 5871 N 552.809 0.956637 -1.25245 0
M  V30 5872 C 554.057 1.69764 -1.09657 0
M  V30 5873 C 554.378 1.91583 0.363464 0
M  V30 5874 O 553.648 1.50149 1.25825 0
M  V30 5875 H 552.228 0.629097 -0.402798 0
M  V30 5876 H 554.89 1.15026 -1.57337 0
M  V30 5877 H 553.986 2.67769 -1.60331 0
M  V30 5878 N 554.287 1.06798 1.15896 0
M  V30 5879 C 555.217 0.704677 2.22613 0
M  V30 5880 C 556.198 -0.305252 1.67339 0
M  V30 5881 O 557.383 -0.179247 1.93371 0
M  V30 5882 C 554.513 0.0957325 3.47168 0
M  V30 5883 C 553.467 1.0322 4.15367 0
M  V30 5884 C 552.793 0.286293 5.33933 0
M  V30 5885 C 554.093 2.36341 4.65768 0
M  V30 5886 H 555.787 1.59688 2.53259 0
M  V30 5887 H 553.333 0.769257 1.21731 0
M  V30 5888 H 555.286 -0.170333 4.21056 0
M  V30 5889 H 554.01 -0.831516 3.15838 0
M  V30 5890 H 552.669 1.28309 3.43413 0
M  V30 5891 H 552.317 -0.644237 4.98857 0
M  V30 5892 H 552.017 0.910436 5.80504 0
M  V30 5893 H 553.541 0.0278938 6.10594 0
M  V30 5894 H 554.955 2.1561 5.31211 0
M  V30 5895 H 553.352 2.94299 5.2298 0
M  V30 5896 H 554.422 2.99047 3.81705 0
M  V30 5897 N 555.766 -1.3263 0.851289 0
M  V30 5898 C 556.699 -2.26952 0.238318 0
M  V30 5899 C 557.677 -1.50243 -0.621757 0
M  V30 5900 O 558.861 -1.79378 -0.579298 0
M  V30 5901 C 555.988 -3.32124 -0.664178 0
M  V30 5902 C 555.034 -4.26325 0.122067 0
M  V30 5903 S 555.867 -5.14404 1.48824 0
M  V30 5904 C 557.023 -6.231 0.591372 0
M  V30 5905 H 557.256 -2.78594 1.03791 0
M  V30 5906 H 554.789 -1.4011 0.648731 0
M  V30 5907 H 556.747 -3.93197 -1.17924 0
M  V30 5908 H 555.408 -2.79273 -1.43755 0
M  V30 5909 H 554.601 -5.00821 -0.565181 0
M  V30 5910 H 554.203 -3.69652 0.568602 0
M  V30 5911 H 556.495 -6.77187 -0.205762 0
M  V30 5912 H 557.438 -6.95936 1.30687 0
M  V30 5913 H 557.846 -5.64252 0.167206 0
M  V30 5914 N 557.244 -0.608902 -1.45362 0
M  V30 5915 C 558.177 0.158059 -2.27652 0
M  V30 5916 C 559.155 0.872397 -1.37215 0
M  V30 5917 O 560.339 0.881002 -1.66645 0
M  V30 5918 C 557.466 1.22896 -3.15617 0
M  V30 5919 C 556.512 0.617607 -4.22005 0
M  V30 5920 S 557.345 -0.575518 -5.32398 0
M  V30 5921 C 558.501 0.495938 -6.23932 0
M  V30 5922 H 558.734 -0.540095 -2.92353 0
M  V30 5923 H 556.267 -0.396456 -1.49223 0
M  V30 5924 H 558.225 1.84195 -3.66855 0
M  V30 5925 H 556.886 1.89919 -2.50179 0
M  V30 5926 H 556.079 1.42341 -4.83482 0
M  V30 5927 H 555.681 0.0797273 -3.73915 0
M  V30 5928 H 557.973 1.37465 -6.63408 0
M  V30 5929 H 558.916 -0.0827108 -7.08052 0
M  V30 5930 H 559.324 0.811856 -5.58631 0
M  V30 5931 N 558.722 1.53707 -0.348139 0
M  V30 5932 C 559.685 2.23812 0.494058 0
M  V30 5933 C 560.685 1.23989 1.02388 0
M  V30 5934 O 561.875 1.48395 0.912396 0
M  V30 5935 C 559.007 2.96133 1.68872 0
M  V30 5936 H 560.2 2.99663 -0.119141 0
M  V30 5937 H 557.753 1.55983 -0.0995539 0
M  V30 5938 H 558.488 2.24481 2.34049 0
M  V30 5939 H 558.273 3.69357 1.31596 0
M  V30 5940 H 559.763 3.49475 2.28597 0
M  V30 5941 N 560.2 0.0768682 1.57412 0
M  V30 5942 C 561.148 -0.906229 2.1422 0
M  V30 5943 C 562.142 -1.30477 1.08037 0
M  V30 5944 O 563.348 -1.28143 1.2641 0
M  V30 5945 H 559.723 -0.310207 0.685037 0
M  V30 5946 H 561.694 -0.402228 2.95677 0
M  V30 5947 C 560.443 -2.16245 2.72274 0
M  V30 5948 H 559.766 -1.86463 3.53655 0
M  V30 5949 H 561.206 -2.83134 3.15613 0
M  V30 5950 C 559.665 -2.92437 1.67279 0
M  V30 5951 O 560.195 -3.86322 1.10081 0
M  V30 5952 N 558.401 -2.55637 1.38195 0
M  V30 5953 H 557.948 -1.79363 1.84897 0
M  V30 5954 H 557.906 -3.06919 0.681787 0
M  V30 5955 N 561.678 -1.56367 -0.196722 0
M  V30 5956 C 562.628 -1.9082 -1.24787 0
M  V30 5957 C 563.612 -0.773719 -1.41076 0
M  V30 5958 O 564.804 -1.03655 -1.43474 0
M  V30 5959 C 561.933 -2.24982 -2.59303 0
M  V30 5960 C 561.019 -3.44882 -2.46814 0
M  V30 5961 N 561.41 -4.62835 -2.04003 0
M  V30 5962 C 559.708 -3.48988 -2.77711 0
M  V30 5963 C 560.409 -5.44993 -2.03366 0
M  V30 5964 N 559.385 -4.85356 -2.44807 0
M  V30 5965 H 563.187 -2.79516 -0.908175 0
M  V30 5966 H 560.701 -1.57265 -0.405166 0
M  V30 5967 H 562.698 -2.47848 -3.35227 0
M  V30 5968 H 561.358 -1.37611 -2.94098 0
M  V30 5969 H 562.369 -4.87532 -1.74738 0
M  V30 5970 H 559.046 -2.72029 -3.16712 0
M  V30 5971 H 560.436 -6.49464 -1.72181 0
M  V30 5972 N 563.156 0.464375 -1.50603 0
M  V30 5973 C 564.384 1.23907 -1.65695 0
M  V30 5974 C 564.799 1.85658 -0.343027 0
M  V30 5975 O 564.156 1.69529 0.675739 0
M  V30 5976 C 564.207 2.3429 -2.75301 0
M  V30 5977 O 563.928 1.7507 -4.01599 0
M  V30 5978 C 565.429 3.25051 -3.01424 0
M  V30 5979 H 562.649 0.374485 -0.556778 0
M  V30 5980 H 565.193 0.55353 -1.96866 0
M  V30 5981 H 563.348 2.98607 -2.46804 0
M  V30 5982 H 563.762 2.47812 -4.62266 0
M  V30 5983 H 565.236 3.98699 -3.81763 0
M  V30 5984 H 565.713 3.84227 -2.12758 0
M  V30 5985 H 566.319 2.66463 -3.31477 0
M  V30 5986 N 564.634 1.40294 0.718013 0
M  V30 5987 C 565.859 1.41941 1.5122 0
M  V30 5988 C 566.284 0.0202371 1.88089 0
M  V30 5989 O 565.642 -0.971078 1.53101 0
M  V30 5990 C 565.69 2.3141 2.76554 0
M  V30 5991 O 564.794 1.75567 3.73162 0
M  V30 5992 H 564.135 0.482644 0.456016 0
M  V30 5993 H 566.665 1.84494 0.884478 0
M  V30 5994 H 566.675 2.46513 3.25108 0
M  V30 5995 H 565.35 3.33085 2.49053 0
M  V30 5996 H 563.927 1.69798 3.31999 0
M  V30 5997 N 566.112 -0.949982 1.2575 0
M  V30 5998 C 567.361 -1.68956 1.10168 0
M  V30 5999 C 567.674 -1.92327 -0.356309 0
M  V30 6000 O 568.88 -2.64026 -0.632657 0
M  V30 6001 C 567.336 -3.04196 1.92336 0
M  V30 6002 C 566.944 -2.88603 3.42655 0
M  V30 6003 C 568.688 -3.81904 1.85336 0
M  V30 6004 C 566.595 -4.19262 4.17101 0
M  V30 6005 H 565.525 -0.633645 0.408668 0
M  V30 6006 H 568.176 -1.05719 1.49986 0
M  V30 6007 H 566.558 -3.68363 1.45344 0
M  V30 6008 H 567.732 -2.3334 3.97353 0
M  V30 6009 H 566.047 -2.24345 3.50796 0
M  V30 6010 H 568.644 -4.78688 2.38248 0
M  V30 6011 H 568.987 -4.08099 0.822226 0
M  V30 6012 H 569.52 -3.24495 2.30104 0
M  V30 6013 H 566.259 -3.98254 5.20648 0
M  V30 6014 H 565.779 -4.74273 3.67186 0
M  V30 6015 H 567.458 -4.87775 4.25071 0
M  V30 6016 N 567.59 -1.07411 -1.15328 0
M  V30 6017 C 568.815 -0.818856 -1.90551 0
M  V30 6018 C 569.24 0.622194 -1.77512 0
M  V30 6019 O 568.598 1.43484 -1.10824 0
M  V30 6020 C 568.646 -1.23267 -3.38877 0
M  V30 6021 O 567.75 -0.378345 -4.10661 0
M  V30 6022 H 567.091 -0.29827 -0.593238 0
M  V30 6023 H 569.621 -1.43289 -1.46046 0
M  V30 6024 H 569.631 -1.20912 -3.89672 0
M  V30 6025 H 568.306 -2.28226 -3.47686 0
M  V30 6026 H 566.883 -0.464437 -3.69996 0
M  V30 6027 N 569.068 1.32177 -0.85831 0
M  V30 6028 C 570.293 2.01847 -0.476718 0
M  V30 6029 C 570.718 1.64065 0.920021 0
M  V30 6030 O 570.076 0.843189 1.60499 0
M  V30 6031 C 570.124 3.55097 -0.627578 0
M  V30 6032 O 569.228 4.11012 0.338086 0
M  V30 6033 H 568.569 0.635907 -0.191099 0
M  V30 6034 H 571.099 1.68641 -1.15851 0
M  V30 6035 H 571.109 4.04718 -0.516476 0
M  V30 6036 H 569.784 3.81938 -1.64609 0
M  V30 6037 H 568.361 3.72451 0.182917 0
M  V30 6038 N 570.547 0.616602 1.45037 0
M  V30 6039 C 571.477 -0.0840787 2.33349 0
M  V30 6040 C 572.458 -0.849641 1.4736 0
M  V30 6041 O 573.643 -0.818407 1.76113 0
M  V30 6042 C 570.773 -1.07604 3.3021 0
M  V30 6043 C 569.727 -0.423096 4.25904 0
M  V30 6044 C 569.053 -1.52394 5.12523 0
M  V30 6045 C 570.353 0.661457 5.18095 0
M  V30 6046 H 572.047 0.653333 2.92185 0
M  V30 6047 H 569.593 0.315634 1.40498 0
M  V30 6048 H 571.546 -1.57485 3.90866 0
M  V30 6049 H 570.27 -1.84416 2.69552 0
M  V30 6050 H 568.929 0.05493 3.66559 0
M  V30 6051 H 568.577 -2.28257 4.48227 0
M  V30 6052 H 568.277 -1.09251 5.77354 0
M  V30 6053 H 569.801 -2.02485 5.76049 0
M  V30 6054 H 571.215 0.246353 5.7277 0
M  V30 6055 H 569.612 1.01517 5.91451 0
M  V30 6056 H 570.682 1.53446 4.59981 0
M  V30 6057 N 572.025 -1.5352 0.356285 0
M  V30 6058 C 573.272 -2.01117 -0.236303 0
M  V30 6059 C 573.6 -1.24381 -1.49531 0
M  V30 6060 O 572.855 -0.323057 -1.93015 0
M  V30 6061 C 573.154 -3.52607 -0.583369 0
M  V30 6062 C 572.82 -4.47151 0.58023 0
M  V30 6063 C 571.482 -4.72718 0.899528 0
M  V30 6064 C 573.834 -5.03137 1.36024 0
M  V30 6065 C 571.162 -5.51523 2.00098 0
M  V30 6066 C 573.514 -5.83145 2.45204 0
M  V30 6067 C 572.178 -6.07001 2.77679 0
M  V30 6068 H 571.448 -0.735938 -0.0864695 0
M  V30 6069 H 574.095 -1.85209 0.48683 0
M  V30 6070 H 572.4 -3.66413 -1.38739 0
M  V30 6071 H 574.097 -3.86901 -1.05397 0
M  V30 6072 H 570.687 -4.27394 0.321322 0
M  V30 6073 H 574.871 -4.83339 1.12682 0
M  V30 6074 H 570.127 -5.68229 2.25668 0
M  V30 6075 H 574.301 -6.25537 3.06067 0
M  V30 6076 H 571.928 -6.67851 3.63151 0
M  V30 6077 N 573.503 -0.0852151 -1.57369 0
M  V30 6078 C 574.413 0.891712 -2.16992 0
M  V30 6079 C 575.429 1.3174 -1.13669 0
M  V30 6080 O 576.605 1.38735 -1.45995 0
M  V30 6081 C 573.67 2.13635 -2.73059 0
M  V30 6082 C 572.731 1.7658 -3.91303 0
M  V30 6083 C 571.964 2.95111 -4.44686 0
M  V30 6084 O 572.187 4.09539 -3.97032 0
M  V30 6085 O 571.121 2.74149 -5.35841 0
M  V30 6086 H 574.947 0.414477 -3.00858 0
M  V30 6087 H 572.532 0.138598 -1.48756 0
M  V30 6088 H 574.414 2.86595 -3.08935 0
M  V30 6089 H 573.089 2.6043 -1.92244 0
M  V30 6090 H 571.996 1.00831 -3.60255 0
M  V30 6091 H 573.329 1.34557 -4.7345 0
M  V30 6092 N 574.981 1.5647 0.188427 0
M  V30 6093 C 576.397 1.50204 0.539532 0
M  V30 6094 C 576.597 0.78644 1.85519 0
M  V30 6095 O 575.653 0.339714 2.50204 0
M  V30 6096 C 576.966 2.94893 0.588103 0
M  V30 6097 C 578.514 3.05602 0.67648 0
M  V30 6098 C 578.989 4.51716 0.756101 0
M  V30 6099 N 580.48 4.55894 0.819451 0
M  V30 6100 C 581.215 5.66272 0.90134 0
M  V30 6101 N 580.711 6.86323 0.945118 0
M  V30 6102 N 582.504 5.54201 0.939043 0
M  V30 6103 H 574.655 2.01406 -0.674493 0
M  V30 6104 H 576.918 0.916828 -0.241103 0
M  V30 6105 H 576.624 3.50334 -0.309633 0
M  V30 6106 H 576.498 3.4861 1.44051 0
M  V30 6107 H 578.885 2.50206 1.56465 0
M  V30 6108 H 578.966 2.54999 -0.202262 0
M  V30 6109 H 578.61 5.07739 -0.12774 0
M  V30 6110 H 578.54 5.00058 1.65074 0
M  V30 6111 H 581.031 3.69452 0.794594 0
M  V30 6112 H 581.344 7.66194 1.0083 0
M  V30 6113 H 579.689 6.88968 0.913683 0
M  V30 6114 H 582.88 4.59333 0.901725 0
M  V30 6115 H 583.053 6.40247 0.999402 0
M  V30 6116 N 576.459 -0.456382 1.50847 0
M  V30 6117 C 577.687 -1.23026 1.66349 0
M  V30 6118 C 578.102 -1.85473 0.352868 0
M  V30 6119 O 577.459 -1.69885 -0.666739 0
M  V30 6120 C 577.51 -2.32827 2.76539 0
M  V30 6121 O 577.231 -1.72938 4.02522 0
M  V30 6122 C 578.732 -3.23448 3.03144 0
M  V30 6123 H 575.952 -0.371527 0.558756 0
M  V30 6124 H 578.496 -0.543082 1.97157 0
M  V30 6125 H 576.651 -2.97294 2.48384 0
M  V30 6126 H 577.065 -2.45357 4.63573 0
M  V30 6127 H 578.539 -3.96669 3.83872 0
M  V30 6128 H 579.016 -3.83094 2.14793 0
M  V30 6129 H 579.622 -2.64702 3.32886 0
M  V30 6130 N 577.937 -1.40673 -0.710563 0
M  V30 6131 C 579.177 -1.40677 -1.48288 0
M  V30 6132 C 579.541 -0.0097193 -1.91998 0
M  V30 6133 O 580.742 0.115381 -2.68552 0
M  V30 6134 C 579.013 -2.37289 -2.67262 0
M  V30 6135 S 580.572 -2.55694 -3.56603 0
M  V30 6136 H 577.39 -0.498545 -0.506926 0
M  V30 6137 H 579.992 -1.76984 -0.830472 0
M  V30 6138 H 578.696 -3.37617 -2.3333 0
M  V30 6139 H 578.227 -2.02282 -3.3741 0
M  V30 6140 H 580.242 -1.81311 -4.61888 0
M  V30 6141 N 579.415 0.9433 -1.26252 0
M  V30 6142 C 580.831 1.21644 -1.03319 0
M  V30 6143 C 581.031 2.0003 0.242983 0
M  V30 6144 O 580.087 2.33838 0.952688 0
M  V30 6145 C 581.4 1.97978 -2.2633 0
M  V30 6146 C 582.948 2.10978 -2.31209 0
M  V30 6147 C 583.423 2.90713 -3.53907 0
M  V30 6148 N 584.914 2.98287 -3.54371 0
M  V30 6149 C 585.649 3.60406 -4.45976 0
M  V30 6150 N 585.145 4.24043 -5.47868 0
M  V30 6151 N 586.938 3.57658 -4.33633 0
M  V30 6152 H 579.089 0.419221 -2.08222 0
M  V30 6153 H 581.352 0.247995 -0.914988 0
M  V30 6154 H 581.058 1.47788 -3.19142 0
M  V30 6155 H 580.932 2.9865 -2.30408 0
M  V30 6156 H 583.319 2.6036 -1.38913 0
M  V30 6157 H 583.4 1.09575 -2.31143 0
M  V30 6158 H 583.044 2.42018 -4.46531 0
M  V30 6159 H 582.974 3.92367 -3.5122 0
M  V30 6160 H 585.465 2.53044 -2.80673 0
M  V30 6161 H 585.778 4.69334 -6.13959 0
M  V30 6162 H 584.123 4.22637 -5.51728 0
M  V30 6163 H 587.314 3.07134 -3.53251 0
M  V30 6164 H 587.487 4.05782 -5.05218 0
M  V30 6165 N 580.893 1.08022 1.14757 0
M  V30 6166 C 581.825 0.664566 2.19354 0
M  V30 6167 C 582.838 -0.286374 1.60261 0
M  V30 6168 O 584.027 -0.0746362 1.78344 0
M  V30 6169 C 581.127 -0.0434634 3.38872 0
M  V30 6170 C 580.3 0.925381 4.27499 0
M  V30 6171 C 579.359 0.253398 5.2559 0
M  V30 6172 O 578.385 0.896581 5.62094 0
M  V30 6173 N 579.587 -0.998263 5.71852 0
M  V30 6174 H 582.352 1.56438 2.55631 0
M  V30 6175 H 579.913 0.965788 1.29939 0
M  V30 6176 H 581.905 -0.503857 4.01551 0
M  V30 6177 H 580.475 -0.845321 3.00954 0
M  V30 6178 H 579.695 1.56472 3.61815 0
M  V30 6179 H 580.983 1.58203 4.8358 0
M  V30 6180 H 580.381 -1.54063 5.44317 0
M  V30 6181 H 578.938 -1.40222 6.36538 0
M  V30 6182 N 582.371 -1.3172 0.865308 0
M  V30 6183 C 583.601 -2.00765 0.487543 0
M  V30 6184 C 584.009 -1.65145 -0.92325 0
M  V30 6185 O 583.352 -0.874294 -1.61561 0
M  V30 6186 C 583.414 -3.55122 0.559369 0
M  V30 6187 C 583.078 -4.14202 1.93095 0
M  V30 6188 C 584.075 -4.3165 2.89784 0
M  V30 6189 C 581.76 -4.50036 2.23099 0
M  V30 6190 C 583.754 -4.84114 4.14623 0
M  V30 6191 C 581.441 -5.02203 3.48189 0
M  V30 6192 C 582.439 -5.19192 4.43767 0
M  V30 6193 O 582.127 -5.70241 5.6664 0
M  V30 6194 H 581.859 -0.649066 0.188915 0
M  V30 6195 H 584.413 -1.69032 1.16694 0
M  V30 6196 H 582.643 -3.86295 -0.176926 0
M  V30 6197 H 584.332 -4.05428 0.195694 0
M  V30 6198 H 585.098 -4.04288 2.6791 0
M  V30 6199 H 580.977 -4.36091 1.49485 0
M  V30 6200 H 584.521 -4.9729 4.89233 0
M  V30 6201 H 580.418 -5.28997 3.69908 0
M  V30 6202 H 581.186 -5.88617 5.68746 0
M  V30 6203 N 583.85 -0.624285 -1.44708 0
M  V30 6204 C 585.127 -0.0572781 -1.95516 0
M  V30 6205 C 585.507 1.41516 -1.56641 0
M  V30 6206 O 584.855 2.12614 -0.837111 0
M  V30 6207 C 585.065 -0.272944 -3.47931 0
M  V30 6208 C 586.413 -0.162529 -4.24289 0
M  V30 6209 O 587.437 -0.203946 -3.55616 0
M  V30 6210 O 586.296 -0.0616847 -5.46465 0
M  V30 6211 H 583.389 0.0262219 -0.826584 0
M  V30 6212 H 585.936 -0.695512 -1.54793 0
M  V30 6213 H 584.707 -1.29492 -3.69253 0
M  V30 6214 H 584.331 0.399756 -3.95585 0
M  V30 6215 N 585.328 1.53329 -0.364422 0
M  V30 6216 C 586.275 2.25698 0.482607 0
M  V30 6217 C 587.245 1.26325 1.07848 0
M  V30 6218 O 588.43 1.55104 1.11119 0
M  V30 6219 C 585.57 3.04873 1.61699 0
M  V30 6220 C 584.683 4.19135 1.0464 0
M  V30 6221 C 583.818 4.85754 2.14979 0
M  V30 6222 C 582.857 5.9205 1.5538 0
M  V30 6223 N 581.994 6.52365 2.59547 0
M  V30 6224 H 586.834 2.97666 -0.141032 0
M  V30 6225 H 584.371 1.46875 -0.0813692 0
M  V30 6226 H 586.329 3.49051 2.28516 0
M  V30 6227 H 584.959 2.35162 2.2113 0
M  V30 6228 H 584.011 3.79451 0.268553 0
M  V30 6229 H 585.323 4.95525 0.570653 0
M  V30 6230 H 584.477 5.3311 2.89619 0
M  V30 6231 H 583.216 4.08834 2.65906 0
M  V30 6232 H 582.221 5.44058 0.792549 0
M  V30 6233 H 583.446 6.7089 1.0528 0
M  V30 6234 H 581.392 5.78298 3.09689 0
M  V30 6235 H 581.309 7.2429 2.16655 0
M  V30 6236 H 582.577 7.0437 3.33892 0
M  V30 6237 N 586.806 0.0935595 1.57322 0
M  V30 6238 C 587.736 -0.863062 2.16964 0
M  V30 6239 C 588.717 -1.29528 1.10256 0
M  V30 6240 O 589.902 -1.36245 1.38387 0
M  V30 6241 C 587.032 -2.12276 2.74875 0
M  V30 6242 C 585.986 -1.82921 3.86942 0
M  V30 6243 C 585.312 -3.15707 4.31548 0
M  V30 6244 C 586.612 -1.11737 5.10208 0
M  V30 6245 H 588.306 -0.366145 2.97153 0
M  V30 6246 H 585.852 -0.174673 1.42937 0
M  V30 6247 H 587.805 -2.79634 3.1525 0
M  V30 6248 H 586.529 -2.64248 1.91938 0
M  V30 6249 H 585.188 -1.17961 3.47103 0
M  V30 6250 H 584.836 -3.65563 3.45504 0
M  V30 6251 H 584.536 -2.96849 5.07104 0
M  V30 6252 H 586.06 -3.84226 4.74555 0
M  V30 6253 H 587.474 -1.69203 5.47762 0
M  V30 6254 H 585.871 -1.03064 5.91183 0
M  V30 6255 H 586.941 -0.0998818 4.84797 0
M  V30 6256 N 588.284 -1.56567 -0.180126 0
M  V30 6257 C 589.7 -1.50488 -0.531559 0
M  V30 6258 C 589.9 -0.796267 -1.851 0
M  V30 6259 O 588.956 -0.352978 -2.50021 0
M  V30 6260 C 590.269 -2.95201 -0.572456 0
M  V30 6261 C 591.817 -3.05957 -0.660264 0
M  V30 6262 C 592.292 -4.5211 -0.732135 0
M  V30 6263 N 593.783 -4.56322 -0.795262 0
M  V30 6264 C 594.518 -5.66742 -0.871296 0
M  V30 6265 N 594.014 -6.86815 -0.908708 0
M  V30 6266 N 595.807 -5.54691 -0.909639 0
M  V30 6267 H 587.958 -2.01045 0.685165 0
M  V30 6268 H 590.221 -0.915536 0.245962 0
M  V30 6269 H 589.927 -3.50165 0.328208 0
M  V30 6270 H 589.801 -3.49369 -1.422 0
M  V30 6271 H 592.188 -2.51032 -1.55136 0
M  V30 6272 H 592.269 -2.54888 0.215783 0
M  V30 6273 H 591.913 -5.07664 0.154664 0
M  V30 6274 H 591.843 -5.00926 -1.6242 0
M  V30 6275 H 594.334 -3.69868 -0.77499 0
M  V30 6276 H 594.647 -7.66718 -0.967654 0
M  V30 6277 H 592.992 -6.89443 -0.877132 0
M  V30 6278 H 596.183 -4.59804 -0.877353 0
M  V30 6279 H 596.356 -6.40768 -0.965434 0
M  V30 6280 N 589.762 0.448376 -1.51087 0
M  V30 6281 C 590.709 1.54341 -1.71603 0
M  V30 6282 C 591.679 1.56463 -0.557536 0
M  V30 6283 O 592.864 1.73644 -0.79072 0
M  V30 6284 C 590.004 2.92148 -1.83695 0
M  V30 6285 C 589.117 2.99639 -3.11192 0
M  V30 6286 C 588.252 4.285 -3.13944 0
M  V30 6287 C 587.291 4.29819 -4.35801 0
M  V30 6288 N 586.428 5.50186 -4.36164 0
M  V30 6289 H 591.268 1.36151 -2.65079 0
M  V30 6290 H 588.805 0.661585 -1.31383 0
M  V30 6291 H 590.763 3.72093 -1.88687 0
M  V30 6292 H 589.393 3.0892 -0.936374 0
M  V30 6293 H 588.445 2.12425 -3.15562 0
M  V30 6294 H 589.757 2.96474 -4.01129 0
M  V30 6295 H 588.911 5.16811 -3.17791 0
M  V30 6296 H 587.65 4.34307 -2.21876 0
M  V30 6297 H 586.655 3.39902 -4.32142 0
M  V30 6298 H 587.88 4.25685 -5.29121 0
M  V30 6299 H 585.826 5.56735 -3.46961 0
M  V30 6300 H 585.743 5.48856 -5.19897 0
M  V30 6301 H 587.011 6.40559 -4.44189 0
M  V30 6302 N 591.24 1.41047 0.703093 0
M  V30 6303 C 592.656 1.23351 1.01275 0
M  V30 6304 C 592.856 0.11754 2.01157 0
M  V30 6305 O 591.912 -0.520518 2.47077 0
M  V30 6306 C 593.225 2.58001 1.54454 0
M  V30 6307 C 594.773 2.65119 1.66376 0
M  V30 6308 C 595.248 4.00067 2.22958 0
M  V30 6309 N 596.739 4.01875 2.30328 0
M  V30 6310 C 597.474 5.03087 2.75119 0
M  V30 6311 N 596.97 6.14692 3.19571 0
M  V30 6312 N 598.763 4.90451 2.74616 0
M  V30 6313 H 590.914 2.1236 0.0412686 0
M  V30 6314 H 593.177 0.944543 0.08089 0
M  V30 6315 H 592.883 3.40378 0.88521 0
M  V30 6316 H 592.757 2.79962 2.52786 0
M  V30 6317 H 595.144 1.83106 2.31422 0
M  V30 6318 H 595.225 2.46975 0.666089 0
M  V30 6319 H 594.869 4.82526 1.58529 0
M  V30 6320 H 594.799 4.15547 3.23462 0
M  V30 6321 H 597.29 3.21291 1.98949 0
M  V30 6322 H 597.603 6.87799 3.52352 0
M  V30 6323 H 595.948 6.18239 3.17498 0
M  V30 6324 H 599.139 4.0235 2.39233 0
M  V30 6325 H 599.312 5.6947 3.09206 0
M  V30 6326 N 592.718 -0.936591 1.26751 0
M  V30 6327 C 593.628 -2.06949 1.10496 0
M  V30 6328 C 594.644 -1.7396 0.037271 0
M  V30 6329 O 595.82 -1.99941 0.241944 0
M  V30 6330 C 592.885 -3.38612 0.744491 0
M  V30 6331 C 591.946 -3.85355 1.89209 0
M  V30 6332 C 591.179 -5.10735 1.54873 0
M  V30 6333 O 591.402 -5.68602 0.452546 0
M  V30 6334 O 590.336 -5.52632 2.38499 0
M  V30 6335 H 594.162 -2.23571 2.05547 0
M  V30 6336 H 591.747 -1.05428 1.05855 0
M  V30 6337 H 593.629 -4.17711 0.556396 0
M  V30 6338 H 592.304 -3.23218 -0.176582 0
M  V30 6339 H 591.211 -3.07182 2.13518 0
M  V30 6340 H 592.544 -4.05277 2.79305 0
M  V30 6341 N 594.196 -1.08629 -1.14182 0
M  V30 6342 C 595.159 -0.722027 -2.1753 0
M  V30 6343 C 596.159 0.244305 -1.58933 0
M  V30 6344 O 597.349 0.0235545 -1.74184 0
M  V30 6345 C 594.481 -0.0663966 -3.40835 0
M  V30 6346 H 595.674 -1.63719 -2.51269 0
M  V30 6347 H 593.227 -0.884442 -1.28869 0
M  V30 6348 H 593.962 0.860389 -3.12678 0
M  V30 6349 H 593.747 -0.761598 -3.84632 0
M  V30 6350 H 595.237 0.173346 -4.1724 0
M  V30 6351 N 595.674 1.31259 -0.872281 0
M  V30 6352 C 596.921 1.96622 -0.484365 0
M  V30 6353 C 597.249 1.68939 0.963841 0
M  V30 6354 O 596.504 0.97974 1.6941 0
M  V30 6355 C 596.803 3.50659 -0.690889 0
M  V30 6356 C 596.469 3.98366 -2.11224 0
M  V30 6357 C 595.131 4.11104 -2.50094 0
M  V30 6358 C 597.483 4.23425 -3.0391 0
M  V30 6359 C 594.811 4.46254 -3.80887 0
M  V30 6360 C 597.163 4.60039 -4.3422 0
M  V30 6361 C 595.827 4.70984 -4.73001 0
M  V30 6362 H 595.097 0.71949 -0.177242 0
M  V30 6363 H 597.744 1.56353 -1.10571 0
M  V30 6364 H 596.049 3.91798 0.0135782 0
M  V30 6365 H 597.746 3.99284 -0.370534 0
M  V30 6366 H 594.336 3.88949 -1.80047 0
M  V30 6367 H 598.52 4.13075 -2.75104 0
M  V30 6368 H 593.776 4.52926 -4.10692 0
M  V30 6369 H 597.95 4.78381 -5.06088 0
M  V30 6370 H 595.577 4.97977 -5.7439 0
M  V30 6371 N 597.152 0.631951 1.44375 0
M  V30 6372 C 598.082 -0.0593243 2.33425 0
M  V30 6373 C 599.063 -0.833964 1.48253 0
M  V30 6374 O 600.248 -0.799682 1.76971 0
M  V30 6375 C 597.378 -1.04096 3.31333 0
M  V30 6376 C 596.332 -0.377899 4.26328 0
M  V30 6377 C 595.658 -1.4695 5.14111 0
M  V30 6378 C 596.958 0.716371 5.17364 0
M  V30 6379 H 598.652 0.684287 2.91475 0
M  V30 6380 H 596.198 0.330518 1.40156 0
M  V30 6381 H 598.151 -1.53331 3.92514 0
M  V30 6382 H 596.875 -1.81547 2.71493 0
M  V30 6383 H 595.534 0.0938054 3.6648 0
M  V30 6384 H 595.182 -2.2349 4.50623 0
M  V30 6385 H 594.882 -1.03121 5.78481 0
M  V30 6386 H 596.406 -1.96363 5.78164 0
M  V30 6387 H 597.82 0.307089 5.72477 0
M  V30 6388 H 596.217 1.07784 5.90341 0
M  V30 6389 H 597.287 1.58316 4.58327 0
M  V30 6390 N 598.631 -1.53133 0.372548 0
M  V30 6391 C 599.541 -2.29671 -0.478379 0
M  V30 6392 C 600.557 -1.35913 -1.08644 0
M  V30 6393 O 601.733 -1.68975 -1.09588 0
M  V30 6394 C 598.798 -3.07625 -1.599 0
M  V30 6395 C 597.859 -4.17061 -1.01776 0
M  V30 6396 C 597.092 -4.91289 -2.08497 0
M  V30 6397 O 597.315 -4.65442 -3.29727 0
M  V30 6398 O 596.249 -5.7705 -1.71164 0
M  V30 6399 H 600.075 -3.03355 0.144649 0
M  V30 6400 H 597.66 -1.48773 0.136729 0
M  V30 6401 H 599.542 -3.56281 -2.25038 0
M  V30 6402 H 598.217 -2.3677 -2.2073 0
M  V30 6403 H 597.124 -3.72641 -0.330098 0
M  V30 6404 H 598.457 -4.90102 -0.453915 0
M  V30 6405 N 600.109 -0.101901 -1.5727 0
M  V30 6406 C 601.041 0.884723 -2.11436 0
M  V30 6407 C 602.054 1.24149 -1.05314 0
M  V30 6408 O 603.243 1.19341 -1.3274 0
M  V30 6409 C 600.343 2.19179 -2.58484 0
M  V30 6410 C 599.516 2.00933 -3.88516 0
M  V30 6411 C 598.575 3.15213 -4.2134 0
M  V30 6412 O 597.601 2.88877 -4.90448 0
M  V30 6413 N 598.803 4.41174 -3.77288 0
M  V30 6414 H 601.568 0.422058 -2.96713 0
M  V30 6415 H 599.129 0.0830128 -1.61687 0
M  V30 6416 H 601.121 2.94593 -2.77484 0
M  V30 6417 H 599.691 2.56847 -1.7818 0
M  V30 6418 H 598.911 1.09809 -3.78597 0
M  V30 6419 H 600.199 1.86026 -4.73573 0
M  V30 6420 H 599.597 4.6545 -3.21516 0
M  V30 6421 H 598.154 5.13515 -4.01429 0
M  V30 6422 N 601.587 1.56661 0.17182 0
M  V30 6423 C 602.834 1.81965 0.888529 0
M  V30 6424 C 603.162 0.6789 1.82267 0
M  V30 6425 O 602.417 -0.333875 1.92831 0
M  V30 6426 C 602.716 3.13435 1.71736 0
M  V30 6427 C 602.382 4.41159 0.932184 0
M  V30 6428 C 601.044 4.75851 0.715481 0
M  V30 6429 C 603.396 5.19803 0.381387 0
M  V30 6430 C 600.724 5.86666 -0.063126 0
M  V30 6431 C 603.076 6.31433 -0.384129 0
M  V30 6432 C 601.74 6.64692 -0.611637 0
M  V30 6433 H 601.01 0.665859 0.325136 0
M  V30 6434 H 603.657 1.90884 0.153495 0
M  V30 6435 H 601.962 2.99857 2.52177 0
M  V30 6436 H 603.659 3.30224 2.27493 0
M  V30 6437 H 600.249 4.13947 1.11112 0
M  V30 6438 H 604.433 4.93396 0.536148 0
M  V30 6439 H 599.689 6.10892 -0.249136 0
M  V30 6440 H 603.863 6.91577 -0.818185 0
M  V30 6441 H 601.49 7.50398 -1.21684 0
M  V30 6442 N 603.065 -0.440357 1.51323 0
M  V30 6443 C 604.481 -0.7766 1.39431 0
M  V30 6444 C 604.681 -1.95838 0.474296 0
M  V30 6445 O 603.737 -2.52398 -0.0716692 0
M  V30 6446 C 605.05 -1.05981 2.81405 0
M  V30 6447 C 606.598 -1.16442 2.90534 0
M  V30 6448 C 607.073 -1.48058 4.33408 0
M  V30 6449 N 608.564 -1.54988 4.36501 0
M  V30 6450 C 609.299 -1.81017 5.44078 0
M  V30 6451 N 608.795 -2.04858 6.61819 0
M  V30 6452 N 610.588 -1.82774 5.31554 0
M  V30 6453 H 602.739 0.338006 2.09693 0
M  V30 6454 H 605.002 0.0888072 0.943831 0
M  V30 6455 H 604.708 -0.264173 3.50706 0
M  V30 6456 H 604.582 -1.98822 3.20546 0
M  V30 6457 H 606.969 -1.95068 2.21432 0
M  V30 6458 H 607.05 -0.215088 2.54894 0
M  V30 6459 H 606.694 -0.699605 5.03059 0
M  V30 6460 H 606.624 -2.44192 4.66559 0
M  V30 6461 H 609.115 -1.38479 3.51613 0
M  V30 6462 H 609.428 -2.2408 7.396 0
M  V30 6463 H 607.773 -2.02187 6.6494 0
M  V30 6464 H 610.964 -1.63665 4.38556 0
M  V30 6465 H 611.137 -2.02722 6.15474 0
M  V30 6466 N 604.543 -1.41418 -0.695603 0
M  V30 6467 C 605.49 -1.43264 -1.80954 0
M  V30 6468 C 606.46 -0.287016 -1.63601 0
M  V30 6469 O 607.645 -0.488054 -1.84452 0
M  V30 6470 C 604.785 -1.32054 -3.18835 0
M  V30 6471 C 603.898 -2.56485 -3.4762 0
M  V30 6472 C 603.033 -2.3757 -4.75115 0
M  V30 6473 C 602.072 -3.57477 -4.96867 0
M  V30 6474 N 601.209 -3.37632 -6.15588 0
M  V30 6475 H 606.049 -2.38467 -1.78711 0
M  V30 6476 H 603.586 -1.18415 -0.872715 0
M  V30 6477 H 605.544 -1.23558 -3.98484 0
M  V30 6478 H 604.174 -0.404592 -3.20254 0
M  V30 6479 H 603.226 -2.75432 -2.62376 0
M  V30 6480 H 604.538 -3.45678 -3.59594 0
M  V30 6481 H 603.692 -2.2654 -5.62818 0
M  V30 6482 H 602.431 -1.45834 -4.65386 0
M  V30 6483 H 601.436 -3.68961 -4.07612 0
M  V30 6484 H 602.661 -4.50167 -5.08455 0
M  V30 6485 H 600.607 -2.48596 -6.07072 0
M  V30 6486 H 600.524 -4.20401 -6.2833 0
M  V30 6487 H 601.792 -3.30375 -7.06026 0
M  V30 6488 N 606.021 0.929856 -1.27246 0
M  V30 6489 C 606.931 2.0636 -1.11592 0
M  V30 6490 C 607.947 1.73938 -0.046496 0
M  V30 6491 O 609.123 1.9981 -0.252544 0
M  V30 6492 C 606.188 3.38213 -0.762437 0
M  V30 6493 C 605.249 3.84346 -1.9125 0
M  V30 6494 C 604.482 5.09906 -1.57579 0
M  V30 6495 O 604.705 5.68354 -0.482694 0
M  V30 6496 O 603.639 5.51359 -2.41426 0
M  V30 6497 H 607.465 2.22478 -2.0673 0
M  V30 6498 H 605.05 1.04865 -1.06413 0
M  V30 6499 H 606.932 4.1741 -0.57854 0
M  V30 6500 H 605.607 3.23307 0.159439 0
M  V30 6501 H 604.514 3.06045 -2.15144 0
M  V30 6502 H 605.847 4.0379 -2.81451 0
M  V30 6503 N 607.499 1.09233 1.13605 0
M  V30 6504 C 608.776 0.739633 1.81077 0
M  V30 6505 C 609.156 -0.775595 1.96336 0
M  V30 6506 O 608.504 -1.69726 1.52988 0
M  V30 6507 C 608.714 1.47636 3.16235 0
M  V30 6508 C 610.062 1.64087 3.91613 0
M  V30 6509 O 611.086 1.43871 3.25852 0
M  V30 6510 O 609.945 1.97511 5.0956 0
M  V30 6511 H 607.039 0.265464 0.783236 0
M  V30 6512 H 609.585 1.19441 1.20549 0
M  V30 6513 H 608.357 2.50818 3.00344 0
M  V30 6514 H 607.98 1.01362 3.84462 0
M  V30 6515 N 608.977 -1.30795 0.87923 0
M  V30 6516 C 609.91 -2.26396 0.286404 0
M  V30 6517 C 610.888 -1.51528 -0.589748 0
M  V30 6518 O 612.072 -1.80566 -0.541119 0
M  V30 6519 C 609.199 -3.33458 -0.593581 0
M  V30 6520 C 608.245 -4.2597 0.21247 0
M  V30 6521 S 609.078 -5.11132 1.59702 0
M  V30 6522 C 610.234 -6.21705 0.723408 0
M  V30 6523 H 610.467 -2.7633 1.09677 0
M  V30 6524 H 608 -1.38703 0.678305 0
M  V30 6525 H 609.958 -3.9561 -1.09557 0
M  V30 6526 H 608.619 -2.82259 -1.37799 0
M  V30 6527 H 607.812 -5.01907 -0.458822 0
M  V30 6528 H 607.414 -3.68363 0.646883 0
M  V30 6529 H 609.706 -6.77472 -0.0620739 0
M  V30 6530 H 610.649 -6.93007 1.4542 0
M  V30 6531 H 611.057 -5.63771 0.286855 0
M  V30 6532 N 610.455 -0.639598 -1.44038 0
M  V30 6533 C 611.702 -0.14748 -2.01962 0
M  V30 6534 C 612.03 1.23372 -1.50365 0
M  V30 6535 O 611.285 1.8345 -0.681501 0
M  V30 6536 C 611.584 -0.0925348 -3.5728 0
M  V30 6537 C 611.25 -1.41365 -4.28167 0
M  V30 6538 C 609.912 -1.77545 -4.47248 0
M  V30 6539 C 612.264 -2.2853 -4.68427 0
M  V30 6540 C 609.592 -3.00583 -5.03852 0
M  V30 6541 C 611.944 -3.50846 -5.26393 0
M  V30 6542 C 610.608 -3.8724 -5.43692 0
M  V30 6543 H 609.878 -0.0539666 -0.739032 0
M  V30 6544 H 612.525 -0.827599 -1.72694 0
M  V30 6545 H 610.83 0.670987 -3.86012 0
M  V30 6546 H 612.527 0.304891 -3.99839 0
M  V30 6547 H 609.117 -1.1221 -4.13651 0
M  V30 6548 H 613.301 -2.0187 -4.5339 0
M  V30 6549 H 608.557 -3.28846 -5.15432 0
M  V30 6550 H 612.731 -4.18616 -5.56537 0
M  V30 6551 H 610.358 -4.8266 -5.87319 0
M  V30 6552 N 611.933 1.52934 -0.380664 0
M  V30 6553 C 612.88 2.26197 0.458641 0
M  V30 6554 C 613.85 1.27462 1.06502 0
M  V30 6555 O 615.035 1.56274 1.09467 0
M  V30 6556 C 612.175 3.06571 1.58456 0
M  V30 6557 C 611.288 4.20222 1.00189 0
M  V30 6558 C 610.423 4.88007 2.09815 0
M  V30 6559 C 609.462 5.93665 1.49092 0
M  V30 6560 N 608.599 6.55081 2.52613 0
M  V30 6561 H 613.439 2.975 -0.172595 0
M  V30 6562 H 610.976 1.4678 -0.0969426 0
M  V30 6563 H 612.934 3.51455 2.24801 0
M  V30 6564 H 611.564 2.37494 2.18624 0
M  V30 6565 H 610.616 3.79714 0.228292 0
M  V30 6566 H 611.928 4.96102 0.518064 0
M  V30 6567 H 611.082 5.36151 2.83948 0
M  V30 6568 H 609.821 4.11632 2.61555 0
M  V30 6569 H 608.826 5.44868 0.7348 0
M  V30 6570 H 610.051 6.71969 0.981582 0
M  V30 6571 H 607.997 5.8155 3.03538 0
M  V30 6572 H 607.914 7.26548 2.08961 0
M  V30 6573 H 609.182 7.07871 3.26402 0
M  V30 6574 N 613.412 0.11024 1.57214 0
M  V30 6575 C 614.689 -0.592956 1.86396 0
M  V30 6576 C 615.069 -1.85379 1.00985 0
M  V30 6577 O 614.417 -2.28337 0.0863592 0
M  V30 6578 C 614.627 -0.893816 3.3736 0
M  V30 6579 C 615.975 -1.25069 4.05762 0
M  V30 6580 O 616.999 -0.984356 3.42329 0
M  V30 6581 O 615.858 -1.75017 5.17718 0
M  V30 6582 H 612.952 -0.29828 0.771335 0
M  V30 6583 H 615.498 0.144083 1.69087 0
M  V30 6584 H 614.27 2.6031e-05 3.913 0
M  V30 6585 H 613.893 -1.68631 3.60068 0
M  V30 6586 N 614.89 -1.56749 -0.16351 0
M  V30 6587 C 615.838 -1.97939 -1.22159 0
M  V30 6588 C 616.832 -0.869288 -1.45395 0
M  V30 6589 O 618.038 -1.05443 -1.45883 0
M  V30 6590 H 614.413 -0.629869 -0.410815 0
M  V30 6591 H 616.384 -2.86115 -0.847381 0
M  V30 6592 C 615.133 -2.36206 -2.55151 0
M  V30 6593 H 614.456 -3.2117 -2.38097 0
M  V30 6594 H 615.896 -2.68863 -3.27854 0
M  V30 6595 C 614.355 -1.20841 -3.14482 0
M  V30 6596 O 614.885 -0.500258 -3.98573 0
M  V30 6597 N 613.091 -0.976943 -2.73686 0
M  V30 6598 H 612.638 -1.55457 -2.05404 0
M  V30 6599 H 612.596 -0.206912 -3.13718 0
M  V30 6600 N 616.368 0.432326 -1.51554 0
M  V30 6601 C 617.615 1.18134 -1.64471 0
M  V30 6602 C 617.943 1.91076 -0.363349 0
M  V30 6603 O 617.198 1.84492 0.65279 0
M  V30 6604 C 617.497 2.21907 -2.80164 0
M  V30 6605 C 617.163 1.65941 -4.19255 0
M  V30 6606 C 615.825 1.50401 -4.57092 0
M  V30 6607 C 618.177 1.24843 -5.06027 0
M  V30 6608 C 615.505 0.922443 -5.79403 0
M  V30 6609 C 617.857 0.68113 -6.28922 0
M  V30 6610 C 616.521 0.512673 -6.65528 0
M  V30 6611 H 615.791 0.432283 -0.601841 0
M  V30 6612 H 618.438 0.471701 -1.856 0
M  V30 6613 H 616.743 2.98928 -2.53277 0
M  V30 6614 H 618.44 2.79691 -2.87357 0
M  V30 6615 H 615.03 1.79014 -3.89425 0
M  V30 6616 H 619.214 1.35667 -4.77397 0
M  V30 6617 H 614.47 0.779733 -6.06408 0
M  V30 6618 H 618.644 0.35418 -6.95499 0
M  V30 6619 H 616.271 0.0599084 -7.60176 0
M  V30 6620 N 617.846 1.41785 0.688094 0
M  V30 6621 C 619.123 1.32031 1.44316 0
M  V30 6622 C 619.503 -0.0486079 2.11044 0
M  V30 6623 O 618.851 -1.06332 2.02252 0
M  V30 6624 C 619.061 2.47906 2.45649 0
M  V30 6625 C 620.409 2.89415 3.10683 0
M  V30 6626 O 621.433 2.477 2.55975 0
M  V30 6627 O 620.292 3.61573 4.09789 0
M  V30 6628 H 617.386 0.519994 0.643067 0
M  V30 6629 H 619.932 1.53765 0.71794 0
M  V30 6630 H 618.704 3.39222 1.95048 0
M  V30 6631 H 618.327 2.28089 3.25671 0
M  V30 6632 N 619.324 -0.923095 1.27737 0
M  V30 6633 C 620.234 -2.05765 1.12685 0
M  V30 6634 C 621.25 -1.73911 0.0557197 0
M  V30 6635 O 622.426 -1.99674 0.263137 0
M  V30 6636 C 619.491 -3.37804 0.780363 0
M  V30 6637 C 618.552 -3.83326 1.93286 0
M  V30 6638 C 617.785 -5.09064 1.60281 0
M  V30 6639 O 618.008 -5.6809 0.512828 0
M  V30 6640 O 616.942 -5.50071 2.44347 0
M  V30 6641 H 620.768 -2.21378 2.07907 0
M  V30 6642 H 618.353 -1.04299 1.06968 0
M  V30 6643 H 620.235 -4.17097 0.600668 0
M  V30 6644 H 618.91 -3.23387 -0.142291 0
M  V30 6645 H 617.817 -3.049 2.16764 0
M  V30 6646 H 619.15 -4.02292 2.83588 0
M  V30 6647 N 620.802 -1.09834 -1.13024 0
M  V30 6648 C 621.735 -0.685453 -2.17662 0
M  V30 6649 C 622.713 0.310142 -1.59615 0
M  V30 6650 O 623.897 0.21052 -1.87321 0
M  V30 6651 C 621.024 -0.0104476 -3.38698 0
M  V30 6652 C 620.07 -0.968522 -4.15358 0
M  V30 6653 S 620.903 -2.48272 -4.74469 0
M  V30 6654 C 622.059 -1.82025 -5.98847 0
M  V30 6655 H 622.292 -1.57187 -2.52348 0
M  V30 6656 H 619.825 -0.914728 -1.24387 0
M  V30 6657 H 621.783 0.372694 -4.08805 0
M  V30 6658 H 620.444 0.852673 -3.02305 0
M  V30 6659 H 619.637 -0.443373 -5.02046 0
M  V30 6660 H 619.239 -1.29327 -3.50928 0
M  V30 6661 H 621.531 -1.14678 -6.67724 0
M  V30 6662 H 622.474 -2.66645 -6.55977 0
M  V30 6663 H 622.882 -1.2874 -5.49624 0
M  V30 6664 N 622.28 1.30327 -0.886154 0
M  V30 6665 C 623.557 1.90922 -0.425217 0
M  V30 6666 C 623.937 1.80533 1.09413 0
M  V30 6667 O 623.285 1.2233 1.92996 0
M  V30 6668 C 623.495 3.36529 -0.924638 0
M  V30 6669 C 624.843 4.13598 -0.960305 0
M  V30 6670 O 625.867 3.45377 -0.871382 0
M  V30 6671 O 624.726 5.35482 -1.09184 0
M  V30 6672 H 621.82 0.81668 -0.130238 0
M  V30 6673 H 624.366 1.38886 -0.975132 0
M  V30 6674 H 623.138 3.38181 -1.96849 0
M  V30 6675 H 622.761 3.96021 -0.353955 0
M  V30 6676 N 623.758 0.647228 1.43697 0
M  V30 6677 C 624.986 0.16575 2.06235 0
M  V30 6678 C 625.401 -1.1662 1.48476 0
M  V30 6679 O 624.758 -1.7187 0.613762 0
M  V30 6680 C 624.809 0.0621651 3.61447 0
M  V30 6681 O 624.53 1.34146 4.17057 0
M  V30 6682 C 626.031 -0.446102 4.4105 0
M  V30 6683 H 623.251 0.0871158 0.665321 0
M  V30 6684 H 625.795 0.886183 1.84301 0
M  V30 6685 H 623.95 -0.608794 3.82587 0
M  V30 6686 H 624.364 1.19675 5.10664 0
M  V30 6687 H 625.838 -0.46755 5.50016 0
M  V30 6688 H 626.315 -1.47627 4.13646 0
M  V30 6689 H 626.921 0.192159 4.24866 0
M  V30 6690 N 625.236 -1.5273 0.388769 0
M  V30 6691 C 626.461 -2.0647 -0.19621 0
M  V30 6692 C 626.886 -1.25865 -1.39784 0
M  V30 6693 O 626.244 -0.283562 -1.79069 0
M  V30 6694 C 626.292 -3.56456 -0.5451 0
M  V30 6695 O 625.396 -3.78426 -1.63912 0
M  V30 6696 H 624.737 -0.663599 -0.023067 0
M  V30 6697 H 627.267 -1.96898 0.556084 0
M  V30 6698 H 627.277 -3.99888 -0.809557 0
M  V30 6699 H 625.952 -4.14561 0.333417 0
M  V30 6700 H 624.529 -3.46884 -1.36842 0
M  V30 6701 N 626.714 -0.118576 -1.57153 0
M  V30 6702 C 628.13 0.238014 -1.57815 0
M  V30 6703 C 628.33 1.66747 -1.13127 0
M  V30 6704 O 627.386 2.38867 -0.818462 0
M  V30 6705 C 628.699 0.00508207 -3.007 0
M  V30 6706 C 630.247 0.0710139 -3.12919 0
M  V30 6707 C 630.722 -0.13422 -4.57803 0
M  V30 6708 N 632.213 -0.0801755 -4.63131 0
M  V30 6709 C 632.948 -0.213885 -5.73001 0
M  V30 6710 N 632.444 -0.403742 -6.91623 0
M  V30 6711 N 634.237 -0.15349 -5.6189 0
M  V30 6712 H 626.388 -1.05226 -1.84503 0
M  V30 6713 H 628.651 -0.414318 -0.852669 0
M  V30 6714 H 628.357 -0.983125 -3.3768 0
M  V30 6715 H 628.231 0.73714 -3.69927 0
M  V30 6716 H 630.618 1.04975 -2.75798 0
M  V30 6717 H 630.699 -0.692918 -2.46236 0
M  V30 6718 H 630.343 -1.10992 -4.95624 0
M  V30 6719 H 630.273 0.649692 -5.22577 0
M  V30 6720 H 632.764 0.0630689 -3.77847 0
M  V30 6721 H 633.077 -0.496645 -7.71202 0
M  V30 6722 H 631.422 -0.43971 -6.93608 0
M  V30 6723 H 634.613 -0.00613174 -4.681 0
M  V30 6724 H 634.786 -0.261138 -6.47474 0
M  V30 6725 N 628.193 1.56834 0.155195 0
M  V30 6726 C 629.103 2.009 1.21146 0
M  V30 6727 C 630.119 0.923029 1.475 0
M  V30 6728 O 631.295 1.23189 1.59331 0
M  V30 6729 C 628.36 2.37378 2.52691 0
M  V30 6730 C 627.421 3.59883 2.34057 0
M  V30 6731 C 626.654 3.94612 3.59329 0
M  V30 6732 O 626.877 3.30104 4.65175 0
M  V30 6733 O 625.811 4.87895 3.52479 0
M  V30 6734 H 629.637 2.9105 0.867371 0
M  V30 6735 H 627.222 1.44916 0.363298 0
M  V30 6736 H 629.104 2.61737 3.3026 0
M  V30 6737 H 627.779 1.50385 2.86646 0
M  V30 6738 H 626.686 3.40722 1.54465 0
M  V30 6739 H 628.019 4.47468 2.0502 0
M  V30 6740 N 629.671 -0.424282 1.51781 0
M  V30 6741 C 630.92 -1.16961 1.64326 0
M  V30 6742 C 631.233 -1.92035 0.371749 0
M  V30 6743 O 632.439 -2.68873 0.37676 0
M  V30 6744 C 630.895 -2.12782 2.90262 0
M  V30 6745 C 630.503 -1.43295 4.24465 0
M  V30 6746 C 632.247 -2.87667 3.12166 0
M  V30 6747 C 630.154 -2.37676 5.41538 0
M  V30 6748 H 629.084 -0.440293 0.612093 0
M  V30 6749 H 631.735 -0.435431 1.78259 0
M  V30 6750 H 630.117 -2.8969 2.69992 0
M  V30 6751 H 631.291 -0.718564 4.55163 0
M  V30 6752 H 629.606 -0.805118 4.08542 0
M  V30 6753 H 632.203 -3.58395 3.96808 0
M  V30 6754 H 632.546 -3.49758 2.25776 0
M  V30 6755 H 633.079 -2.17863 3.32837 0
M  V30 6756 H 629.818 -1.80255 6.30229 0
M  V30 6757 H 629.338 -3.07132 5.15199 0
M  V30 6758 H 631.017 -2.98529 5.74012 0
M  V30 6759 N 631.149 -1.42148 -0.680565 0
M  V30 6760 C 632.395 -1.42521 -1.44277 0
M  V30 6761 C 632.728 -0.0393718 -1.9416 0
M  V30 6762 O 632.003 0.935425 -1.70529 0
M  V30 6763 C 632.286 -2.44475 -2.64394 0
M  V30 6764 C 632.139 -3.92226 -2.20179 0
M  V30 6765 C 633.458 -2.43491 -3.66606 0
M  V30 6766 H 630.577 -0.518985 -0.523282 0
M  V30 6767 H 633.219 -1.73524 -0.773914 0
M  V30 6768 H 631.369 -2.18168 -3.21458 0
M  V30 6769 H 633.041 -4.29493 -1.68327 0
M  V30 6770 H 631.284 -4.0637 -1.5181 0
M  V30 6771 H 631.955 -4.59133 -3.06433 0
M  V30 6772 H 634.431 -2.66872 -3.19247 0
M  V30 6773 H 633.307 -3.16816 -4.4824 0
M  V30 6774 H 633.568 -1.45881 -4.17338 0
M  V30 6775 N 632.627 0.916307 -1.28225 0
M  V30 6776 C 633.559 2.02303 -1.07732 0
M  V30 6777 C 634.572 1.62773 -0.0298421 0
M  V30 6778 O 635.761 1.76406 -0.272626 0
M  V30 6779 C 632.861 3.33282 -0.614504 0
M  V30 6780 C 632.034 4.01439 -1.73682 0
M  V30 6781 C 631.093 5.10698 -1.26781 0
M  V30 6782 O 630.119 5.34038 -1.96958 0
M  V30 6783 N 631.321 5.80355 -0.129624 0
M  V30 6784 H 634.086 2.20442 -2.03041 0
M  V30 6785 H 631.647 1.08744 -1.19943 0
M  V30 6786 H 633.639 4.03699 -0.284397 0
M  V30 6787 H 632.209 3.11633 0.245664 0
M  V30 6788 H 631.429 3.24604 -2.23665 0
M  V30 6789 H 632.717 4.43721 -2.48976 0
M  V30 6790 H 632.115 5.6386 0.455847 0
M  V30 6791 H 630.672 6.51647 0.141224 0
M  V30 6792 N 634.105 1.10431 1.1244 0
M  V30 6793 C 635.037 0.710945 2.17895 0
M  V30 6794 C 636.05 -0.252315 1.60833 0
M  V30 6795 O 637.239 -0.03679 1.78462 0
M  V30 6796 C 634.339 0.0284262 3.38888 0
M  V30 6797 C 633.512 1.01585 4.2544 0
M  V30 6798 C 632.571 0.364826 5.24934 0
M  V30 6799 O 631.597 1.01561 5.60066 0
M  V30 6800 N 632.799 -0.87674 5.73841 0
M  V30 6801 H 635.564 1.61826 2.52255 0
M  V30 6802 H 633.125 0.993132 1.27861 0
M  V30 6803 H 635.117 -0.418568 4.0253 0
M  V30 6804 H 633.687 -0.781294 3.02679 0
M  V30 6805 H 632.907 1.64111 3.58415 0
M  V30 6806 H 634.195 1.68425 4.80115 0
M  V30 6807 H 633.593 -1.42483 5.47462 0
M  V30 6808 H 632.15 -1.26688 6.39369 0
M  V30 6809 N 635.583 -1.29855 0.893053 0
M  V30 6810 C 636.513 -2.3035 0.382249 0
M  V30 6811 C 637.494 -1.61328 -0.539203 0
M  V30 6812 O 638.679 -1.88882 -0.451342 0
M  V30 6813 C 635.809 -3.45024 -0.396983 0
M  V30 6814 C 634.763 -4.258 0.433437 0
M  V30 6815 C 634.089 -5.32605 -0.472889 0
M  V30 6816 C 635.389 -4.94549 1.67984 0
M  V30 6817 H 637.083 -2.73325 1.22205 0
M  V30 6818 H 634.629 -1.314 0.589073 0
M  V30 6819 H 636.582 -4.14398 -0.765024 0
M  V30 6820 H 635.306 -3.00875 -1.2705 0
M  V30 6821 H 633.965 -3.58125 0.783723 0
M  V30 6822 H 633.613 -4.84702 -1.34435 0
M  V30 6823 H 633.313 -5.87547 0.0789958 0
M  V30 6824 H 634.837 -6.04832 -0.837269 0
M  V30 6825 H 636.251 -5.56395 1.38192 0
M  V30 6826 H 634.648 -5.59393 2.17254 0
M  V30 6827 H 635.718 -4.20215 2.41965 0
M  V30 6828 N 637.061 -0.65484 -1.43351 0
M  V30 6829 C 638.31 -0.166215 -2.01014 0
M  V30 6830 C 638.623 1.22764 -1.52278 0
M  V30 6831 O 639.829 1.81156 -2.02224 0
M  V30 6832 C 638.285 -0.246341 -3.59056 0
M  V30 6833 C 637.893 -1.64299 -4.16785 0
M  V30 6834 C 639.637 0.184597 -4.24098 0
M  V30 6835 C 637.544 -1.67695 -5.67126 0
M  V30 6836 H 636.474 -0.0583769 -0.751737 0
M  V30 6837 H 639.125 -0.817111 -1.64303 0
M  V30 6838 H 637.507 0.472092 -3.93176 0
M  V30 6839 H 638.681 -2.3869 -3.94162 0
M  V30 6840 H 636.996 -2.02004 -3.6412 0
M  V30 6841 H 639.593 0.179088 -5.344 0
M  V30 6842 H 639.936 1.21632 -3.98135 0
M  V30 6843 H 640.469 -0.482141 -3.94867 0
M  V30 6844 H 637.208 -2.68783 -5.9786 0
M  V30 6845 H 636.728 -0.976313 -5.91801 0
M  V30 6846 H 638.407 -1.42142 -6.31193 0
M  V30 6847 N 638.539 1.52521 -0.396863 0
M  V30 6848 C 639.816 1.94112 0.240842 0
M  V30 6849 C 640.196 1.33288 1.637 0
M  V30 6850 O 639.544 0.503901 2.22875 0
M  V30 6851 C 639.754 3.48033 0.259567 0
M  V30 6852 C 641.102 4.21822 0.484866 0
M  V30 6853 O 642.126 3.54579 0.339453 0
M  V30 6854 O 640.985 5.41042 0.770412 0
M  V30 6855 H 638.079 0.812973 0.151671 0
M  V30 6856 H 640.625 1.63572 -0.451918 0
M  V30 6857 H 639.397 3.84655 -0.718078 0
M  V30 6858 H 639.02 3.84899 0.996937 0
M  V30 6859 N 640.017 0.126909 1.57088 0
M  V30 6860 C 640.927 -0.833867 2.1928 0
M  V30 6861 C 641.943 -1.2868 1.17122 0
M  V30 6862 O 643.119 -1.34815 1.49622 0
M  V30 6863 C 640.184 -2.0632 2.78627 0
M  V30 6864 C 639.245 -1.66143 3.95847 0
M  V30 6865 C 638.478 -2.83217 4.52354 0
M  V30 6866 O 638.701 -3.98868 4.0775 0
M  V30 6867 O 637.635 -2.59846 5.42922 0
M  V30 6868 H 641.461 -0.334564 3.01852 0
M  V30 6869 H 639.046 -0.0991091 1.49071 0
M  V30 6870 H 640.928 -2.78304 3.16425 0
M  V30 6871 H 639.603 -2.55242 1.99082 0
M  V30 6872 H 638.51 -0.912435 3.62802 0
M  V30 6873 H 639.843 -1.21957 4.76852 0
M  V30 6874 N 641.495 -1.56914 -0.146875 0
M  V30 6875 C 642.725 -1.87243 -0.873126 0
M  V30 6876 C 643.133 -0.713127 -1.75246 0
M  V30 6877 O 642.476 0.326228 -1.8078 0
M  V30 6878 C 642.538 -3.12279 -1.78107 0
M  V30 6879 C 642.202 -4.44082 -1.07889 0
M  V30 6880 C 643.199 -5.18096 -0.432734 0
M  V30 6881 C 640.884 -4.90807 -1.06836 0
M  V30 6882 C 642.878 -6.37039 0.214569 0
M  V30 6883 C 640.565 -6.09674 -0.417243 0
M  V30 6884 C 641.563 -6.82636 0.223093 0
M  V30 6885 O 641.251 -7.99245 0.863884 0
M  V30 6886 H 640.983 -0.624896 -0.257839 0
M  V30 6887 H 643.537 -2.04892 -0.14434 0
M  V30 6888 H 641.767 -2.90639 -2.5508 0
M  V30 6889 H 643.456 -3.28854 -2.37929 0
M  V30 6890 H 644.222 -4.83066 -0.432677 0
M  V30 6891 H 640.101 -4.3394 -1.55618 0
M  V30 6892 H 643.645 -6.93927 0.714965 0
M  V30 6893 H 639.542 -6.44165 -0.414967 0
M  V30 6894 H 640.31 -8.14912 0.765564 0
M  V30 6895 N 642.974 0.416227 -1.52004 0
M  V30 6896 C 643.924 1.50558 -1.7122 0
M  V30 6897 C 644.908 1.50613 -0.56609 0
M  V30 6898 O 646.1 1.56709 -0.822874 0
M  V30 6899 C 643.229 2.88556 -1.85984 0
M  V30 6900 C 642.315 2.93177 -3.06445 0
M  V30 6901 N 642.706 2.67505 -4.29272 0
M  V30 6902 C 641.004 3.24343 -3.06133 0
M  V30 6903 C 641.705 2.78511 -5.10692 0
M  V30 6904 N 640.681 3.11087 -4.45787 0
M  V30 6905 H 644.483 1.29494 -2.63834 0
M  V30 6906 H 641.997 0.62384 -1.4994 0
M  V30 6907 H 643.994 3.66954 -1.97865 0
M  V30 6908 H 642.654 3.10624 -0.945654 0
M  V30 6909 H 643.665 2.42033 -4.57865 0
M  V30 6910 H 640.342 3.52051 -2.24425 0
M  V30 6911 H 641.732 2.62438 -6.18527 0
M  V30 6912 N 644.452 1.42507 0.673017 0
M  V30 6913 C 645.415 1.4582 1.76831 0
M  V30 6914 C 646.415 0.345542 1.57043 0
M  V30 6915 O 647.605 0.606447 1.63303 0
M  V30 6916 C 644.737 1.29158 3.15485 0
M  V30 6917 H 645.93 2.43345 1.7528 0
M  V30 6918 H 643.483 1.28981 0.882817 0
M  V30 6919 H 644.218 0.325626 3.22661 0
M  V30 6920 H 644.003 2.09797 3.31252 0
M  V30 6921 H 645.493 1.34363 3.95394 0
M  V30 6922 N 645.93 -0.909495 1.28709 0
M  V30 6923 C 646.893 -1.99399 1.13016 0
M  V30 6924 C 647.893 -1.60654 0.068536 0
M  V30 6925 O 649.083 -1.71334 0.314671 0
M  V30 6926 C 646.215 -3.33078 0.726085 0
M  V30 6927 H 647.408 -2.14751 2.09338 0
M  V30 6928 H 644.961 -1.09272 1.11756 0
M  V30 6929 H 645.696 -3.23428 -0.23771 0
M  V30 6930 H 645.481 -3.62562 1.49302 0
M  V30 6931 H 646.971 -4.12681 0.639058 0
M  V30 6932 N 647.408 -1.11026 -1.11852 0
M  V30 6933 C 648.636 -0.878818 -1.87308 0
M  V30 6934 C 649.051 0.57111 -1.79955 0
M  V30 6935 O 648.408 1.39409 -1.17777 0
M  V30 6936 C 648.459 -1.3264 -3.36287 0
M  V30 6937 O 648.18 -2.71948 -3.43476 0
M  V30 6938 C 649.681 -1.12974 -4.28663 0
M  V30 6939 H 646.901 -0.315015 -0.592458 0
M  V30 6940 H 649.445 -1.47649 -1.41492 0
M  V30 6941 H 647.6 -0.772269 -3.79625 0
M  V30 6942 H 648.014 -2.91241 -4.3621 0
M  V30 6943 H 649.488 -1.49198 -5.31454 0
M  V30 6944 H 649.965 -0.0689127 -4.39146 0
M  V30 6945 H 650.571 -1.67064 -3.91113 0
M  V30 6946 N 648.886 1.2938 -0.899927 0
M  V30 6947 C 650.302 1.48052 -0.596059 0
M  V30 6948 C 650.502 1.82114 0.862372 0
M  V30 6949 O 649.558 1.91774 1.64253 0
M  V30 6950 C 650.871 2.59332 -1.52208 0
M  V30 6951 C 652.419 2.73208 -1.5273 0
M  V30 6952 C 652.894 3.87617 -2.43961 0
M  V30 6953 N 654.385 3.9495 -2.42009 0
M  V30 6954 C 655.12 4.82824 -3.09303 0
M  V30 6955 N 654.616 5.75387 -3.85877 0
M  V30 6956 N 656.409 4.76317 -2.98459 0
M  V30 6957 H 648.56 1.05546 -1.8432 0
M  V30 6958 H 650.823 0.524314 -0.78981 0
M  V30 6959 H 650.529 2.41029 -2.56121 0
M  V30 6960 H 650.403 3.56139 -1.24278 0
M  V30 6961 H 652.79 2.90908 -0.495614 0
M  V30 6962 H 652.871 1.76975 -1.84698 0
M  V30 6963 H 652.515 3.70672 -3.47224 0
M  V30 6964 H 652.445 4.83218 -2.09303 0
M  V30 6965 H 654.936 3.28744 -1.86375 0
M  V30 6966 H 655.249 6.39235 -4.34279 0
M  V30 6967 H 653.594 5.75272 -3.89984 0
M  V30 6968 H 656.785 4.0299 -2.38152 0
M  V30 6969 H 656.958 5.44589 -3.51179 0
M  V30 6970 N 650.364 0.662433 1.43002 0
M  V30 6971 C 651.775 0.258315 1.84904 0
M  V30 6972 C 652.126 -1.19703 1.55453 0
M  V30 6973 O 651.251 -1.91484 1.00811 0
M  V30 6974 C 651.846 0.462047 3.35635 0
M  V30 6975 C 650.405 0.112165 3.76233 0
M  V30 6976 C 649.552 0.760479 2.66668 0
M  V30 6977 H 652.503 0.865467 1.33024 0
M  V30 6978 H 652.524 -0.289646 3.79396 0
M  V30 6979 H 652.036 1.52135 3.57039 0
M  V30 6980 H 650.137 -0.944179 3.60439 0
M  V30 6981 H 650.25 0.544058 4.76001 0
M  V30 6982 H 648.614 0.192887 2.53969 0
M  V30 6983 H 649.397 1.82299 2.90898 0
M  V30 6984 N 651.842 -1.52309 0.404946 0
M  V30 6985 C 653.119 -1.94237 -0.230544 0
M  V30 6986 C 653.499 -1.34154 -1.6299 0
M  V30 6987 O 652.847 -0.515713 -2.22604 0
M  V30 6988 C 653.057 -3.48166 -0.241106 0
M  V30 6989 C 654.405 -4.22074 -0.462488 0
M  V30 6990 O 655.429 -3.54754 -0.320644 0
M  V30 6991 O 654.288 -5.41443 -0.741708 0
M  V30 6992 H 651.382 -0.813766 -0.147358 0
M  V30 6993 H 653.928 -1.6333 0.460587 0
M  V30 6994 H 652.7 -3.84269 0.738467 0
M  V30 6995 H 652.323 -3.85422 -0.97651 0
M  V30 6996 N 653.32 -0.135238 -1.57019 0
M  V30 6997 C 654.55 0.525303 -1.9981 0
M  V30 6998 C 654.958 1.59724 -1.01415 0
M  V30 6999 O 654.301 1.837 -0.00130938 0
M  V30 7000 C 654.363 1.19578 -3.3903 0
M  V30 7001 C 654.027 0.269855 -4.56203 0
M  V30 7002 C 655.024 -0.497905 -5.1751 0
M  V30 7003 C 652.709 0.176188 -5.01991 0
M  V30 7004 C 654.703 -1.3469 -6.23007 0
M  V30 7005 C 652.39 -0.676422 -6.07345 0
M  V30 7006 C 653.388 -1.43658 -6.67721 0
M  V30 7007 O 653.076 -2.27501 -7.71037 0
M  V30 7008 H 652.808 0.142296 -0.660854 0
M  V30 7009 H 655.362 -0.223272 -2.04183 0
M  V30 7010 H 653.592 1.99176 -3.3146 0
M  V30 7011 H 655.281 1.75486 -3.66005 0
M  V30 7012 H 656.047 -0.435507 -4.83041 0
M  V30 7013 H 651.926 0.757583 -4.54733 0
M  V30 7014 H 655.47 -1.9407 -6.70062 0
M  V30 7015 H 651.367 -0.740154 -6.41243 0
M  V30 7016 H 652.135 -2.20619 -7.88206 0
M  V30 7017 N 654.798 1.5699 0.138552 0
M  V30 7018 C 656.047 1.82998 0.848205 0
M  V30 7019 C 656.36 0.717829 1.81952 0
M  V30 7020 O 657.566 0.863756 2.57394 0
M  V30 7021 C 656.022 3.24379 1.55904 0
M  V30 7022 C 655.63 4.43552 0.62971 0
M  V30 7023 C 657.374 3.59654 2.25498 0
M  V30 7024 C 655.281 5.75957 1.34266 0
M  V30 7025 H 654.211 0.682495 0.320495 0
M  V30 7026 H 656.862 1.83222 0.100924 0
M  V30 7027 H 655.244 3.18567 2.35226 0
M  V30 7028 H 656.418 4.6062 -0.128882 0
M  V30 7029 H 654.733 4.16379 0.0417526 0
M  V30 7030 H 657.33 4.55837 2.79493 0
M  V30 7031 H 657.673 2.86124 3.02388 0
M  V30 7032 H 658.206 3.67164 1.53087 0
M  V30 7033 H 654.945 6.52604 0.615441 0
M  V30 7034 H 654.465 5.62811 2.07375 0
M  V30 7035 H 656.144 6.19046 1.88126 0
M  V30 7036 N 656.276 -0.40816 1.52223 0
M  V30 7037 C 657.501 -1.18127 1.70472 0
M  V30 7038 C 657.926 -1.83491 0.41384 0
M  V30 7039 O 657.284 -1.70047 -0.628778 0
M  V30 7040 C 657.332 -2.21935 2.84213 0
M  V30 7041 O 656.436 -3.28099 2.4985 0
M  V30 7042 H 655.777 -0.344781 0.56747 0
M  V30 7043 H 658.307 -0.478328 1.9893 0
M  V30 7044 H 658.317 -2.66248 3.09153 0
M  V30 7045 H 656.992 -1.73744 3.7787 0
M  V30 7046 H 655.569 -2.89058 2.35584 0
M  V30 7047 N 657.755 -1.42862 -0.66545 0
M  V30 7048 C 659.001 -1.4504 -1.426 0
M  V30 7049 C 659.356 -0.0690217 -1.92276 0
M  V30 7050 O 658.649 0.91036 -1.68591 0
M  V30 7051 C 658.843 -2.4175 -2.63233 0
M  V30 7052 C 658.672 -3.89155 -2.25362 0
M  V30 7053 C 657.442 -4.57619 -2.14273 0
M  V30 7054 C 659.64 -4.79326 -1.86417 0
M  V30 7055 N 657.622 -5.90006 -1.69604 0
M  V30 7056 C 658.993 -6.00892 -1.52738 0
M  V30 7057 C 661.048 -4.66696 -1.73492 0
M  V30 7058 C 659.751 -7.11232 -1.0743 0
M  V30 7059 C 661.777 -5.77027 -1.29589 0
M  V30 7060 C 661.139 -6.97712 -0.968393 0
M  V30 7061 H 657.238 -0.585889 -0.517936 0
M  V30 7062 H 659.822 -1.78956 -0.767002 0
M  V30 7063 H 657.993 -2.09881 -3.26809 0
M  V30 7064 H 659.725 -2.34447 -3.29874 0
M  V30 7065 H 656.48 -4.11957 -2.33641 0
M  V30 7066 H 656.904 -6.60249 -1.49666 0
M  V30 7067 H 661.546 -3.7386 -1.97455 0
M  V30 7068 H 659.264 -8.03907 -0.822147 0
M  V30 7069 H 662.85 -5.6927 -1.20095 0
M  V30 7070 H 661.73 -7.81634 -0.63384 0
M  V30 7071 N 659.233 0.902656 -1.29189 0
M  V30 7072 C 660.481 1.6496 -1.16758 0
M  V30 7073 C 660.802 1.92952 0.28188 0
M  V30 7074 O 660.072 1.55351 1.19344 0
M  V30 7075 H 658.652 0.611447 -0.429118 0
M  V30 7076 H 661.314 1.0825 -1.62074 0
M  V30 7077 H 660.41 2.60728 -1.71544 0
M  V30 7078 N 660.711 1.11618 1.11262 0
M  V30 7079 C 661.939 0.888739 1.8684 0
M  V30 7080 C 662.354 -0.561558 1.80255 0
M  V30 7081 O 661.711 -1.38782 1.18515 0
M  V30 7082 C 661.762 1.34422 3.35579 0
M  V30 7083 O 661.483 2.73766 3.42029 0
M  V30 7084 C 662.984 1.15246 4.28058 0
M  V30 7085 H 660.204 0.318152 0.590779 0
M  V30 7086 H 662.748 1.48398 1.40707 0
M  V30 7087 H 660.903 0.79239 3.7921 0
M  V30 7088 H 661.317 2.9355 4.34659 0
M  V30 7089 H 662.791 1.52015 5.30656 0
M  V30 7090 H 663.268 0.0922007 4.39103 0
M  V30 7091 H 663.874 1.69136 3.90222 0
M  V30 7092 N 662.189 -1.289 0.906776 0
M  V30 7093 C 663.121 -2.26556 0.347159 0
M  V30 7094 C 664.134 -1.54589 -0.51049 0
M  V30 7095 O 665.323 -1.75489 -0.326501 0
M  V30 7096 C 662.423 -3.3484 -0.523024 0
M  V30 7097 C 661.596 -4.36296 0.310515 0
M  V30 7098 C 660.655 -5.23879 -0.493634 0
M  V30 7099 O 659.681 -5.69127 0.0913569 0
M  V30 7100 N 660.883 -5.51946 -1.7982 0
M  V30 7101 H 663.648 -2.75212 1.18652 0
M  V30 7102 H 661.209 -1.42309 0.771996 0
M  V30 7103 H 663.201 -3.90366 -1.06756 0
M  V30 7104 H 661.771 -2.85946 -1.26309 0
M  V30 7105 H 660.991 -3.80331 1.03644 0
M  V30 7106 H 662.279 -5.01113 0.881106 0
M  V30 7107 H 661.677 -5.17006 -2.2961 0
M  V30 7108 H 660.234 -6.10258 -2.28971 0
M  V30 7109 N 663.667 -0.670007 -1.42649 0
M  V30 7110 C 664.577 0.0114788 -2.34597 0
M  V30 7111 C 665.593 0.794055 -1.54825 0
M  V30 7112 O 666.769 0.737472 -1.87412 0
M  V30 7113 C 663.834 0.954436 -3.33304 0
M  V30 7114 C 662.895 0.166925 -4.28975 0
M  V30 7115 C 662.128 1.06497 -5.22967 0
M  V30 7116 O 662.351 2.30446 -5.21777 0
M  V30 7117 O 661.285 0.528347 -5.99577 0
M  V30 7118 H 665.111 -0.745794 -2.944 0
M  V30 7119 H 662.696 -0.430228 -1.43071 0
M  V30 7120 H 664.578 1.49589 -3.93956 0
M  V30 7121 H 663.253 1.69164 -2.7598 0
M  V30 7122 H 662.16 -0.418515 -3.71752 0
M  V30 7123 H 663.493 -0.531067 -4.89327 0
M  V30 7124 N 665.145 1.52092 -0.413018 0
M  V30 7125 C 666.077 2.24819 0.445994 0
M  V30 7126 C 667.09 1.27925 1.00692 0
M  V30 7127 O 668.279 1.53845 0.905204 0
M  V30 7128 C 665.379 2.96951 1.6332 0
M  V30 7129 C 664.552 4.20746 1.19548 0
M  V30 7130 C 663.611 4.75668 2.25003 0
M  V30 7131 O 662.637 5.38148 1.85434 0
M  V30 7132 N 663.839 4.57579 3.57214 0
M  V30 7133 H 666.604 2.99176 -0.177209 0
M  V30 7134 H 664.165 1.60102 -0.240601 0
M  V30 7135 H 666.157 3.30586 2.33441 0
M  V30 7136 H 664.727 2.25756 2.16225 0
M  V30 7137 H 663.947 3.92881 0.32224 0
M  V30 7138 H 665.235 5.01132 0.880033 0
M  V30 7139 H 664.633 4.07758 3.92109 0
M  V30 7140 H 663.19 4.95642 4.23299 0
M  V30 7141 O 666.662 0.284301 1.58978 0
M  V30 7142 H 667.353 -0.283792 1.9161 0
M  V30 END ATOM
M  V30 BEGIN BOND
M  V30 END BOND
M  V30 END CTAB
M  END
$$$$
