drugbank_target|P23234 Indole-3-pyruvate decarboxylase (DB01987)
 OpenBabel12092120293D

  0  0  0     0  0            999 V3000
M  V30 BEGIN CTAB
M  V30 COUNTS 8381 8478 0 0 0
M  V30 BEGIN ATOM
M  V30 1 H -0.908 1.98254 -0.117106 0
M  V30 2 N 0 1.576 0 0
M  V30 3 C 0.933 2.03868 1.02534 0
M  V30 4 C 1.911 0.928543 1.3348 0
M  V30 5 O 3.095 1.19667 1.45644 0
M  V30 6 C 0.222 2.43627 2.35294 0
M  V30 7 C -0.732 3.65373 2.2001 0
M  V30 8 S 0.101 5.13292 1.52614 0
M  V30 9 C 1.257 5.56322 2.86805 0
M  V30 10 H 1.49 2.90518 0.631377 0
M  V30 11 H -0.977 1.52953 0.210867 0
M  V30 12 H 0.981 2.67203 3.11629 0
M  V30 13 H -0.358 1.57376 2.7183 0
M  V30 14 H -1.165 3.90944 3.18086 0
M  V30 15 H -1.563 3.418 1.51819 0
M  V30 16 H 0.729 5.58782 3.83104 0
M  V30 17 H 1.672 6.56266 2.65933 0
M  V30 18 H 2.08 4.83886 2.90714 0
M  V30 19 N 1.4781 -0.272755 1.55222 0
M  V30 20 C 2.8941 -0.619959 1.47067 0
M  V30 21 C 3.0941 -1.895 0.684978 0
M  V30 22 O 2.1501 -2.51675 0.203931 0
M  V30 23 C 3.4631 -0.746693 2.91282 0
M  V30 24 C 5.0111 -0.840731 3.01497 0
M  V30 25 C 5.4861 -0.99924 4.46967 0
M  V30 26 N 6.9771 -1.06476 4.50796 0
M  V30 27 C 7.7121 -1.20621 5.6057 0
M  V30 28 N 7.2081 -1.31483 6.80209 0
M  V30 29 N 9.0011 -1.23733 5.48312 0
M  V30 30 H 1.1521 0.564606 2.04758 0
M  V30 31 H 3.4151 0.191177 0.928523 0
M  V30 32 H 3.1211 0.119753 3.51496 0
M  V30 33 H 2.9951 -1.6269 3.40311 0
M  V30 34 H 5.3821 -1.69764 2.41379 0
M  V30 35 H 5.4631 0.0640874 2.5572 0
M  V30 36 H 5.1071 -0.146984 5.07687 0
M  V30 37 H 5.0371 -1.91871 4.90401 0
M  V30 38 H 7.5281 -0.993196 3.64615 0
M  V30 39 H 7.8411 -1.42111 7.59621 0
M  V30 40 H 6.1861 -1.28487 6.8302 0
M  V30 41 H 9.3771 -1.14877 4.53785 0
M  V30 42 H 9.5501 -1.34412 6.33906 0
M  V30 43 N 2.9562 -1.48159 -0.537278 0
M  V30 44 C 4.1842 -1.59454 -1.31841 0
M  V30 45 C 4.5992 -0.252065 -1.8711 0
M  V30 46 O 3.9562 0.757621 -1.66031 0
M  V30 47 C 4.0072 -2.63546 -2.47439 0
M  V30 48 O 3.7282 -3.92583 -1.94449 0
M  V30 49 C 5.2292 -2.85212 -3.39366 0
M  V30 50 H 2.4492 -0.53785 -0.401196 0
M  V30 51 H 4.9932 -1.93932 -0.648891 0
M  V30 52 H 3.1482 -2.31946 -3.1029 0
M  V30 53 H 3.5622 -4.49629 -2.70063 0
M  V30 54 H 5.0362 -3.61863 -4.16844 0
M  V30 55 H 5.5132 -1.93765 -3.94147 0
M  V30 56 H 6.1192 -3.18086 -2.82314 0
M  V30 57 N 4.4343 0.785586 -1.36625 0
M  V30 58 C 5.8453 1.36101 -1.27803 0
M  V30 59 C 6.1963 1.96035 0.0804875 0
M  V30 60 O 5.3213 1.92834 0.982042 0
M  V30 61 C 5.9163 2.47442 -2.31426 0
M  V30 62 C 4.4753 3.00789 -2.26281 0
M  V30 63 C 3.6223 1.73896 -2.15999 0
M  V30 64 H 6.5733 0.586928 -1.47448 0
M  V30 65 H 6.5943 3.2656 -1.95291 0
M  V30 66 H 6.1063 2.03791 -3.30289 0
M  V30 67 H 4.2073 3.48851 -1.30896 0
M  V30 68 H 4.3203 3.57343 -3.19128 0
M  V30 69 H 2.6843 1.9628 -1.62316 0
M  V30 70 H 3.4673 1.32368 -3.16755 0
M  V30 71 N 5.9124 1.20967 1.01018 0
M  V30 72 C 7.1424 1.04803 1.78044 0
M  V30 73 C 7.5504 -0.405462 1.84804 0
M  V30 74 O 6.8934 -1.2932 1.30468 0
M  V30 75 C 6.9554 1.56377 3.23707 0
M  V30 76 C 6.6194 3.04767 3.40538 0
M  V30 77 C 7.6164 4.02366 3.29239 0
M  V30 78 C 5.3014 3.43862 3.66147 0
M  V30 79 C 7.2954 5.37049 3.43304 0
M  V30 80 C 4.9824 4.78699 3.79855 0
M  V30 81 C 5.9804 5.75101 3.68439 0
M  V30 82 O 5.6684 7.07493 3.81719 0
M  V30 83 H 5.4004 0.368778 0.56655 0
M  V30 84 H 7.9544 1.60642 1.27997 0
M  V30 85 H 6.1844 0.949297 3.74867 0
M  V30 86 H 7.8734 1.36136 3.8239 0
M  V30 87 H 8.6394 3.73506 3.09384 0
M  V30 88 H 4.5184 2.69364 3.74118 0
M  V30 89 H 8.0624 6.12277 3.34309 0
M  V30 90 H 3.9594 5.07247 3.99213 0
M  V30 91 H 4.7274 7.1483 3.98697 0
M  V30 92 N 7.3905 -1.2043 1.01659 0
M  V30 93 C 8.6305 -1.91507 0.714456 0
M  V30 94 C 8.9945 -1.77073 -0.742237 0
M  V30 95 O 10.1955 -2.42631 -1.15688 0
M  V30 96 C 8.4665 -3.38795 1.13809 0
M  V30 97 S 10.0255 -4.28216 0.957925 0
M  V30 98 H 6.8435 -0.661571 0.260471 0
M  V30 99 H 9.4455 -1.45671 1.30384 0
M  V30 100 H 8.1495 -3.46822 2.19415 0
M  V30 101 H 7.6805 -3.89656 0.541474 0
M  V30 102 H 9.6955 -4.96007 -0.138531 0
M  V30 103 N 8.8686 -0.792821 -1.36206 0
M  V30 104 C 10.1146 -0.36733 -1.99446 0
M  V30 105 C 10.4476 1.05917 -1.62774 0
M  V30 106 O 9.7226 1.7324 -0.88421 0
M  V30 107 C 10.0056 -0.535044 -3.56103 0
M  V30 108 C 9.8586 -2.00548 -4.02617 0
M  V30 109 C 11.1776 0.0478191 -4.40074 0
M  V30 110 H 8.2966 -0.134941 -0.724541 0
M  V30 111 H 10.9386 -0.999794 -1.61568 0
M  V30 112 H 9.0886 0.00336329 -3.885 0
M  V30 113 H 10.7606 -2.60521 -3.80692 0
M  V30 114 H 9.0036 -2.50686 -3.54032 0
M  V30 115 H 9.6746 -2.07377 -5.11565 0
M  V30 116 H 12.1506 -0.411822 -4.14057 0
M  V30 117 H 11.0266 -0.0995336 -5.4881 0
M  V30 118 H 11.2876 1.14025 -4.27142 0
M  V30 119 N 10.3467 1.47872 -0.545128 0
M  V30 120 C 11.3097 2.28337 0.198717 0
M  V30 121 C 12.3097 1.36255 0.853888 0
M  V30 122 O 13.4997 1.59003 0.711606 0
M  V30 123 C 10.6317 3.15585 1.28915 0
M  V30 124 H 11.8247 2.95567 -0.507941 0
M  V30 125 H 9.3777 1.53362 -0.301616 0
M  V30 126 H 10.1127 2.53019 2.02859 0
M  V30 127 H 9.8977 3.83337 0.824309 0
M  V30 128 H 11.3877 3.76243 1.81194 0
M  V30 129 N 11.8248 0.280983 1.55075 0
M  V30 130 C 13.1018 -0.386207 1.91749 0
M  V30 131 C 13.4818 -1.73264 1.20594 0
M  V30 132 O 12.8298 -2.26034 0.334784 0
M  V30 133 C 13.0398 -0.520687 3.45094 0
M  V30 134 C 14.3878 -0.800865 4.16979 0
M  V30 135 O 15.4118 -0.605271 3.5102 0
M  V30 136 O 14.2708 -1.1753 5.33712 0
M  V30 137 H 11.3648 -0.212408 0.799257 0
M  V30 138 H 13.9108 0.327568 1.66509 0
M  V30 139 H 12.6828 0.426633 3.88967 0
M  V30 140 H 12.3058 -1.2837 3.76307 0
M  V30 141 N 13.3029 -1.57598 0.00835791 0
M  V30 142 C 14.5329 -1.94931 -0.684496 0
M  V30 143 C 14.9409 -0.882233 -1.67372 0
M  V30 144 O 14.2839 0.146621 -1.83114 0
M  V30 145 C 14.3459 -3.283 -1.4649 0
M  V30 146 C 14.0099 -4.52548 -0.63634 0
M  V30 147 C 15.0069 -5.19839 0.0795586 0
M  V30 148 C 12.6919 -4.98942 -0.579849 0
M  V30 149 C 14.6859 -6.3183 0.840843 0
M  V30 150 C 12.3729 -6.10819 0.185155 0
M  V30 151 C 13.3709 -6.77121 0.894227 0
M  V30 152 O 13.0589 -7.86853 1.64673 0
M  V30 153 H 12.7909 -0.647249 -0.19505 0
M  V30 154 H 15.3449 -2.05318 0.0581272 0
M  V30 155 H 13.5749 -3.14345 -2.2522 0
M  V30 156 H 15.2639 -3.50685 -2.04389 0
M  V30 157 H 16.0299 -4.84979 0.0451202 0
M  V30 158 H 11.9089 -4.47155 -1.1213 0
M  V30 159 H 15.4529 -6.83513 1.39483 0
M  V30 160 H 11.3499 -6.4512 0.221384 0
M  V30 161 H 12.1179 -8.03412 1.56432 0
M  V30 162 N 14.781 0.264519 -1.55364 0
M  V30 163 C 15.711 1.33121 -1.91836 0
M  V30 164 C 16.692 1.51101 -0.781192 0
M  V30 165 O 17.877 1.64003 -1.04003 0
M  V30 166 C 15.007 2.68921 -2.19769 0
M  V30 167 C 13.961 2.65661 -3.35571 0
M  V30 168 C 13.287 4.05093 -3.49004 0
M  V30 169 C 14.587 2.24187 -4.71739 0
M  V30 170 H 16.281 1.02844 -2.81182 0
M  V30 171 H 13.827 0.493286 -1.35287 0
M  V30 172 H 15.78 3.43663 -2.43872 0
M  V30 173 H 14.504 3.00799 -1.27231 0
M  V30 174 H 13.163 1.93377 -3.1145 0
M  V30 175 H 12.811 4.34206 -2.53917 0
M  V30 176 H 12.511 4.03804 -4.26868 0
M  V30 177 H 14.035 4.81561 -3.75408 0
M  V30 178 H 15.449 2.88654 -4.9533 0
M  V30 179 H 13.846 2.34044 -5.52579 0
M  V30 180 H 14.916 1.19327 -4.69988 0
M  V30 181 N 16.2591 1.48442 0.529413 0
M  V30 182 C 17.1891 1.65902 1.64313 0
M  V30 183 C 18.1701 0.507897 1.6234 0
M  V30 184 O 19.3551 0.740503 1.79528 0
M  V30 185 C 16.4851 1.69911 3.02898 0
M  V30 186 C 15.4391 2.8453 3.19729 0
M  V30 187 C 14.7651 2.73629 4.59381 0
M  V30 188 C 16.0651 4.25821 3.02447 0
M  V30 189 H 17.7591 2.5914 1.49955 0
M  V30 190 H 15.3051 1.24709 0.719982 0
M  V30 191 H 17.2581 1.80715 3.80684 0
M  V30 192 H 15.9821 0.732524 3.18279 0
M  V30 193 H 14.6411 2.73283 2.44361 0
M  V30 194 H 14.2891 1.74938 4.71599 0
M  V30 195 H 13.9891 3.50541 4.71588 0
M  V30 196 H 15.5131 2.86401 5.39265 0
M  V30 197 H 16.9271 4.37898 3.70024 0
M  V30 198 H 15.3241 5.03735 3.26146 0
M  V30 199 H 16.3941 4.42244 1.98867 0
M  V30 200 N 17.7372 -0.778329 1.37039 0
M  V30 201 C 19.0142 -1.52551 1.22424 0
M  V30 202 C 19.3942 -2.10288 -0.184964 0
M  V30 203 O 18.7422 -1.94953 -1.19187 0
M  V30 204 C 18.9522 -2.61164 2.31504 0
M  V30 205 C 20.3002 -3.28746 2.68721 0
M  V30 206 O 21.3242 -2.71455 2.30631 0
M  V30 207 O 20.1832 -4.3231 3.3432 0
M  V30 208 H 17.2772 -0.675343 0.477326 0
M  V30 209 H 19.8232 -0.815859 1.48801 0
M  V30 210 H 18.5952 -2.16574 3.25901 0
M  V30 211 H 18.2182 -3.39737 2.06554 0
M  V30 212 N 19.2153 -1.21501 -1.00376 0
M  V30 213 C 20.6313 -0.972629 -1.26539 0
M  V30 214 C 20.8313 0.340257 -1.98606 0
M  V30 215 O 19.8873 1.06561 -2.28913 0
M  V30 216 C 21.2003 -2.16404 -2.08781 0
M  V30 217 C 22.7483 -2.20643 -2.22004 0
M  V30 218 C 23.2233 -3.39306 -3.07629 0
M  V30 219 N 24.7143 -3.39401 -3.15217 0
M  V30 220 C 25.4493 -4.27867 -3.81729 0
M  V30 221 N 24.9453 -5.26533 -4.5026 0
M  V30 222 N 26.7383 -4.15672 -3.78382 0
M  V30 223 H 18.8893 -2.05929 -0.520281 0
M  V30 224 H 21.1523 -0.901803 -0.292328 0
M  V30 225 H 20.8583 -3.11554 -1.63178 0
M  V30 226 H 20.7323 -2.15567 -3.09533 0
M  V30 227 H 23.1193 -1.26048 -2.66825 0
M  V30 228 H 23.2003 -2.25523 -1.20718 0
M  V30 229 H 22.8443 -4.34195 -2.63509 0
M  V30 230 H 22.7743 -3.31665 -4.09031 0
M  V30 231 H 25.2653 -2.67997 -2.66432 0
M  V30 232 H 25.5783 -5.90337 -4.98721 0
M  V30 233 H 23.9233 -5.30457 -4.49044 0
M  V30 234 H 27.1143 -3.3785 -3.23998 0
M  V30 235 H 27.2873 -4.84825 -4.2994 0
M  V30 236 N 20.6934 1.19889 -1.02296 0
M  V30 237 C 21.6234 2.25141 -0.619174 0
M  V30 238 C 22.6044 1.66051 0.368915 0
M  V30 239 O 23.7894 1.92546 0.252941 0
M  V30 240 C 20.9194 3.4728 0.0368783 0
M  V30 241 C 19.8734 4.19005 -0.872865 0
M  V30 242 C 19.1994 5.34637 -0.0822402 0
M  V30 243 C 20.4994 4.74452 -2.18387 0
M  V30 244 H 22.1934 2.59171 -1.49903 0
M  V30 245 H 19.7394 1.24579 -0.722222 0
M  V30 246 H 21.6924 4.20098 0.330958 0
M  V30 247 H 20.4164 3.12433 0.95149 0
M  V30 248 H 19.0754 3.48061 -1.15105 0
M  V30 249 H 18.7234 4.96034 0.83422 0
M  V30 250 H 18.4234 5.83557 -0.688149 0
M  V30 251 H 19.9474 6.10255 0.205238 0
M  V30 252 H 21.3614 5.39055 -1.95172 0
M  V30 253 H 19.7584 5.33834 -2.74119 0
M  V30 254 H 20.8284 3.92844 -2.84257 0
M  V30 255 N 22.1715 0.800033 1.35784 0
M  V30 256 C 23.3995 0.389606 2.03199 0
M  V30 257 C 23.8145 -0.997375 1.60306 0
M  V30 258 O 23.1715 -1.64154 0.797481 0
M  V30 259 C 23.2225 0.455855 3.58614 0
M  V30 260 O 22.9435 1.78815 3.99946 0
M  V30 261 C 24.4445 0.0374032 4.43284 0
M  V30 262 H 21.6645 0.159132 0.651857 0
M  V30 263 H 24.2085 1.08183 1.73541 0
M  V30 264 H 22.3635 -0.188057 3.86943 0
M  V30 265 H 22.7775 1.74636 4.94573 0
M  V30 266 H 24.2515 0.134882 5.51835 0
M  V30 267 H 24.7285 -1.01651 4.27275 0
M  V30 268 H 25.3345 0.654215 4.20238 0
M  V30 269 N 23.6496 -1.47581 0.552962 0
M  V30 270 C 24.9266 -1.95563 -0.0381515 0
M  V30 271 C 25.3066 -1.49552 -1.48988 0
M  V30 272 O 24.6546 -0.732414 -2.16444 0
M  V30 273 C 24.8646 -3.48848 0.102919 0
M  V30 274 C 26.2126 -4.24577 -0.0446082 0
M  V30 275 O 27.2366 -3.56187 0.0302548 0
M  V30 276 O 26.0956 -5.46116 -0.204923 0
M  V30 277 H 23.1896 -0.824321 -0.0665067 0
M  V30 278 H 25.7356 -1.58001 0.619186 0
M  V30 279 H 24.5076 -3.75129 1.11328 0
M  V30 280 H 24.1306 -3.93165 -0.592224 0
M  V30 281 N 25.1277 -0.289203 -1.54924 0
M  V30 282 C 26.3677 0.324536 -2.01807 0
M  V30 283 C 26.7317 1.5199 -1.17316 0
M  V30 284 O 27.9327 2.20422 -1.53843 0
M  V30 285 C 26.2037 0.683578 -3.50802 0
M  V30 286 S 27.7627 1.28185 -4.19659 0
M  V30 287 H 24.5807 0.100236 -0.703899 0
M  V30 288 H 27.1827 -0.414325 -1.91059 0
M  V30 289 H 25.8867 -0.195073 -4.09936 0
M  V30 290 H 25.4177 1.45354 -3.65562 0
M  V30 291 H 27.4327 2.57006 -4.24456 0
M  V30 292 N 26.6058 1.57591 -0.0167156 0
M  V30 293 C 27.8538 1.90906 0.663285 0
M  V30 294 C 28.1748 0.892509 1.73376 0
M  V30 295 O 27.4448 -0.0677623 1.95783 0
M  V30 296 H 26.0248 0.704637 0.247983 0
M  V30 297 H 28.6868 1.94803 -0.0615909 0
M  V30 298 H 27.7828 2.9116 1.12393 0
M  V30 299 N 28.0839 -0.256276 1.55502 0
M  V30 300 C 29.0469 -1.30047 1.88734 0
M  V30 301 C 30.0469 -1.4154 0.763086 0
M  V30 302 O 31.2369 -1.40403 1.03115 0
M  V30 303 C 28.3689 -2.67953 2.10747 0
M  V30 304 H 29.5619 -1.01802 2.82093 0
M  V30 305 H 27.1149 -0.495134 1.4825 0
M  V30 306 H 27.8499 -3.01351 1.19825 0
M  V30 307 H 27.6349 -2.60993 2.92617 0
M  V30 308 H 29.1249 -3.43368 2.37673 0
M  V30 309 N 29.562 -1.4872 -0.521534 0
M  V30 310 C 30.839 -1.4766 -1.2828 0
M  V30 311 C 31.219 -0.19292 -2.10217 0
M  V30 312 O 30.567 0.825193 -2.13079 0
M  V30 313 C 30.777 -2.74358 -2.15705 0
M  V30 314 C 32.125 -3.23028 -2.75569 0
M  V30 315 O 33.149 -2.75333 -2.25987 0
M  V30 316 O 32.008 -4.0604 -3.65778 0
M  V30 317 H 29.102 -0.590085 -0.579421 0
M  V30 318 H 31.648 -1.60963 -0.537492 0
M  V30 319 H 30.42 -3.59292 -1.54999 0
M  V30 320 H 30.043 -2.63816 -2.97467 0
M  V30 321 N 31.0401 0.771051 -1.3745 0
M  V30 322 C 31.9901 1.87456 -1.29785 0
M  V30 323 C 32.9741 1.59827 -0.185541 0
M  V30 324 O 34.1661 1.71945 -0.419997 0
M  V30 325 C 31.2951 3.24935 -1.1078 0
M  V30 326 C 30.3811 3.58514 -2.26558 0
M  V30 327 N 30.7721 3.6327 -3.5195 0
M  V30 328 C 29.0701 3.88683 -2.18727 0
M  V30 329 C 29.7711 3.93616 -4.283 0
M  V30 330 N 28.7471 4.09551 -3.57448 0
M  V30 331 H 32.5491 1.89386 -2.24745 0
M  V30 332 H 30.0631 0.967531 -1.30432 0
M  V30 333 H 32.0601 4.03881 -1.03374 0
M  V30 334 H 30.7201 3.24268 -0.16738 0
M  V30 335 H 31.7311 3.45458 -3.85848 0
M  V30 336 H 28.4081 3.95834 -1.32746 0
M  V30 337 H 29.7981 4.04066 -5.36824 0
M  V30 338 N 32.5182 1.22032 0.997298 0
M  V30 339 C 33.4482 1.01065 2.10495 0
M  V30 340 C 34.4292 -0.0669542 1.69968 0
M  V30 341 O 35.6142 0.0943987 1.9397 0
M  V30 342 C 32.7442 0.582874 3.42374 0
M  V30 343 C 31.6982 1.60592 3.96729 0
M  V30 344 C 31.0242 1.03412 5.24605 0
M  V30 345 C 32.3242 2.99478 4.27914 0
M  V30 346 H 34.0182 1.93708 2.28292 0
M  V30 347 H 31.5642 0.932761 1.09707 0
M  V30 348 H 33.5172 0.423332 4.19268 0
M  V30 349 H 32.2412 -0.379213 3.24391 0
M  V30 350 H 30.9002 1.75316 3.21963 0
M  V30 351 H 30.5482 0.063518 5.0296 0
M  V30 352 H 30.2482 1.71754 5.61938 0
M  V30 353 H 31.7722 0.886066 6.04137 0
M  V30 354 H 33.1862 2.88153 4.95622 0
M  V30 355 H 31.5832 3.64903 4.76409 0
M  V30 356 H 32.6532 3.49742 3.3587 0
M  V30 357 N 33.9963 -1.19345 1.0293 0
M  V30 358 C 35.2433 -1.89038 0.726008 0
M  V30 359 C 35.5713 -1.79649 -0.745427 0
M  V30 360 O 34.8263 -1.18354 -1.55855 0
M  V30 361 C 35.1253 -3.39292 1.12319 0
M  V30 362 C 34.7913 -3.68885 2.59297 0
M  V30 363 C 33.4533 -3.76671 2.99453 0
M  V30 364 C 35.8053 -3.82178 3.54386 0
M  V30 365 C 33.1333 -3.9522 4.33611 0
M  V30 366 C 35.4853 -4.0224 4.88248 0
M  V30 367 C 34.1493 -4.08259 5.28092 0
M  V30 368 H 33.4193 -0.691739 0.265665 0
M  V30 369 H 36.0663 -1.41328 1.29223 0
M  V30 370 H 34.3713 -3.88903 0.475584 0
M  V30 371 H 36.0683 -3.91536 0.866037 0
M  V30 372 H 32.6583 -3.63433 2.27189 0
M  V30 373 H 36.8423 -3.75505 3.24514 0
M  V30 374 H 32.0983 -3.98119 4.64016 0
M  V30 375 H 36.2723 -4.11468 5.61843 0
M  V30 376 H 33.8993 -4.22384 6.32057 0
M  V30 377 N 35.4744 -0.807222 -1.35358 0
M  V30 378 C 36.7224 -0.387122 -1.98358 0
M  V30 379 C 37.0434 1.04942 -1.64354 0
M  V30 380 O 36.3134 1.72615 -0.926339 0
M  V30 381 H 34.8934 -0.140154 -0.733734 0
M  V30 382 H 37.5554 -1.0332 -1.6526 0
M  V30 383 H 36.6514 -0.493352 -3.08176 0
M  V30 384 N 36.9525 1.47285 -0.560781 0
M  V30 385 C 38.1985 2.02764 -0.0381184 0
M  V30 386 C 38.5315 1.43384 1.30976 0
M  V30 387 O 37.8065 0.590733 1.85312 0
M  V30 388 C 38.0895 3.60064 0.0511427 0
M  V30 389 C 37.9425 4.2987 -1.32408 0
M  V30 390 C 39.2615 4.33439 0.762795 0
M  V30 391 H 36.3805 0.736841 -0.0153264 0
M  V30 392 H 39.0225 1.75675 -0.723759 0
M  V30 393 H 37.1725 3.83274 0.635065 0
M  V30 394 H 38.8445 4.17989 -1.95148 0
M  V30 395 H 37.0875 3.90085 -1.8978 0
M  V30 396 H 37.7585 5.38478 -1.21431 0
M  V30 397 H 40.2345 4.15243 0.266965 0
M  V30 398 H 39.1105 5.43124 0.794221 0
M  V30 399 H 39.3715 4.02915 1.81966 0
M  V30 400 N 38.4306 0.297415 1.54768 0
M  V30 401 C 39.8416 -0.195947 1.85669 0
M  V30 402 C 40.1926 -1.53707 1.21937 0
M  V30 403 O 39.3176 -2.10164 0.515754 0
M  V30 404 C 39.9126 -0.362318 3.36857 0
M  V30 405 C 38.4716 -0.799901 3.67802 0
M  V30 406 C 37.6186 0.0938578 2.77141 0
M  V30 407 H 40.5696 0.518538 1.4999 0
M  V30 408 H 40.5906 -1.19745 3.61167 0
M  V30 409 H 40.1026 0.613921 3.83214 0
M  V30 410 H 38.2036 -1.78682 3.26961 0
M  V30 411 H 38.3166 -0.621773 4.75048 0
M  V30 412 H 36.6806 -0.426254 2.51108 0
M  V30 413 H 37.4636 1.06639 3.26318 0
M  V30 414 N 39.9087 -1.5758 0.0250728 0
M  V30 415 C 41.1567 -1.91255 -0.653151 0
M  V30 416 C 41.4777 -0.901691 -1.729 0
M  V30 417 O 40.7477 0.0573785 -1.95816 0
M  V30 418 H 39.3277 -0.705942 -0.244243 0
M  V30 419 H 41.9897 -1.94767 0.0719209 0
M  V30 420 H 41.0857 -2.91752 -1.10847 0
M  V30 421 N 41.3868 0.248026 -1.55636 0
M  V30 422 C 42.6638 0.998988 -1.68165 0
M  V30 423 C 43.0438 2.03409 -0.564621 0
M  V30 424 O 42.3918 2.24378 0.432076 0
M  V30 425 C 42.6018 1.63334 -3.0842 0
M  V30 426 C 43.9498 2.13562 -3.66983 0
M  V30 427 O 44.9738 1.73277 -3.11213 0
M  V30 428 O 43.8328 2.87526 -4.64749 0
M  V30 429 H 40.9268 0.464933 -0.683935 0
M  V30 430 H 43.4728 0.241902 -1.67967 0
M  V30 431 H 42.2448 0.884583 -3.8117 0
M  V30 432 H 41.8678 2.45666 -3.12624 0
M  V30 433 N 42.8649 1.48995 0.513639 0
M  V30 434 C 44.0949 1.61297 1.291 0
M  V30 435 C 44.5029 0.278656 1.87137 0
M  V30 436 O 43.8459 -0.744325 1.67945 0
M  V30 437 C 43.9079 2.61326 2.46879 0
M  V30 438 C 43.5719 4.05993 2.09807 0
M  V30 439 C 44.5689 4.93183 1.64519 0
M  V30 440 C 42.2539 4.51642 2.19829 0
M  V30 441 C 44.2479 6.24056 1.2974 0
M  V30 442 C 41.9349 5.82532 1.84662 0
M  V30 443 C 42.9329 6.68562 1.3969 0
M  V30 444 O 42.6209 7.97014 1.04992 0
M  V30 445 H 42.3529 0.546236 0.39825 0
M  V30 446 H 44.9069 1.95673 0.62459 0
M  V30 447 H 43.1369 2.22104 3.16554 0
M  V30 448 H 44.8259 2.6329 3.08923 0
M  V30 449 H 45.5919 4.59147 1.56233 0
M  V30 450 H 41.4709 3.84855 2.53786 0
M  V30 451 H 45.0149 6.91161 0.945659 0
M  V30 452 H 40.9119 6.16099 1.92594 0
M  V30 453 H 41.6799 8.09913 1.18249 0
M  V30 454 N 44.343 -0.763751 1.37857 0
M  V30 455 C 45.291 -1.89864 1.34367 0
M  V30 456 C 46.285 -1.67816 0.231143 0
M  V30 457 O 47.491 -1.75508 0.399617 0
M  V30 458 H 43.866 -0.624501 0.41893 0
M  V30 459 H 45.837 -1.89925 2.30155 0
M  V30 460 C 44.586 -3.27227 1.1755 0
M  V30 461 H 43.909 -3.44773 2.02414 0
M  V30 462 H 45.349 -4.06911 1.1916 0
M  V30 463 C 43.808 -3.36692 -0.118311 0
M  V30 464 O 44.338 -3.86374 -1.09902 0
M  V30 465 N 42.544 -2.90092 -0.171717 0
M  V30 466 H 42.091 -2.49853 0.627012 0
M  V30 467 H 42.049 -2.96806 -1.03699 0
M  V30 468 N 45.8211 -1.22559 -0.990812 0
M  V30 469 C 46.7511 -1.0218 -2.09956 0
M  V30 470 C 47.7321 0.0579394 -1.70001 0
M  V30 471 O 48.9171 -0.104684 -1.93918 0
M  V30 472 C 46.0471 -0.601023 -3.4206 0
M  V30 473 C 45.0011 -1.62694 -3.95872 0
M  V30 474 C 44.3271 -1.06193 -5.24049 0
M  V30 475 C 45.6271 -3.01743 -4.2632 0
M  V30 476 H 47.3211 -1.94916 -2.27262 0
M  V30 477 H 44.8671 -0.938566 -1.09211 0
M  V30 478 H 46.8201 -0.445561 -4.19038 0
M  V30 479 H 45.5441 0.362005 -3.24588 0
M  V30 480 H 44.2031 -1.77021 -3.21028 0
M  V30 481 H 43.8511 -0.0901903 -5.02919 0
M  V30 482 H 43.5511 -1.74732 -5.61019 0
M  V30 483 H 45.0751 -0.918092 -6.03658 0
M  V30 484 H 46.4891 -2.90777 -4.94087 0
M  V30 485 H 44.8861 -3.67425 -4.74467 0
M  V30 486 H 45.9561 -3.51518 -3.34011 0
M  V30 487 N 47.2992 1.18797 -1.03562 0
M  V30 488 C 48.2312 2.21731 -0.580337 0
M  V30 489 C 49.2442 1.59051 0.347349 0
M  V30 490 O 50.4332 1.77929 0.142669 0
M  V30 491 C 47.5332 3.38459 0.172805 0
M  V30 492 C 46.7062 4.3072 -0.761496 0
M  V30 493 C 45.7652 5.26174 -0.0525547 0
M  V30 494 O 44.7912 5.65108 -0.681333 0
M  V30 495 N 45.9932 5.67624 1.21586 0
M  V30 496 H 48.7582 2.61417 -1.46565 0
M  V30 497 H 46.3192 1.33531 -0.915476 0
M  V30 498 H 48.3112 3.99335 0.656793 0
M  V30 499 H 46.8812 2.97507 0.959602 0
M  V30 500 H 46.1012 3.67525 -1.42544 0
M  V30 501 H 47.3892 4.89267 -1.39626 0
M  V30 502 H 46.7872 5.38038 1.74732 0
M  V30 503 H 45.3442 6.30721 1.64421 0
M  V30 504 N 48.7773 0.814389 1.34928 0
M  V30 505 C 50.0243 0.398423 1.98542 0
M  V30 506 C 50.3523 -1.03638 1.64589 0
M  V30 507 O 49.6073 -1.73509 0.90516 0
M  V30 508 C 49.9063 0.537781 3.53331 0
M  V30 509 C 49.5723 1.93704 4.07172 0
M  V30 510 C 48.2343 2.31984 4.21589 0
M  V30 511 C 50.5863 2.85213 4.36237 0
M  V30 512 C 47.9143 3.61125 4.62391 0
M  V30 513 C 50.2663 4.13809 4.78482 0
M  V30 514 C 48.9303 4.52077 4.91104 0
M  V30 515 H 48.2003 0.145793 0.726516 0
M  V30 516 H 50.8473 1.03669 1.61012 0
M  V30 517 H 49.1523 -0.183906 3.91368 0
M  V30 518 H 50.8493 0.196588 4.00518 0
M  V30 519 H 47.4393 1.62966 3.96409 0
M  V30 520 H 51.6233 2.56885 4.24645 0
M  V30 521 H 46.8793 3.90612 4.70353 0
M  V30 522 H 51.0533 4.84811 4.99932 0
M  V30 523 H 48.6803 5.52196 5.22478 0
M  V30 524 N 50.2554 -1.46986 0.568584 0
M  V30 525 C 51.1854 -2.32946 -0.160753 0
M  V30 526 C 52.1664 -1.44487 -0.897631 0
M  V30 527 O 53.3514 -1.73327 -0.875867 0
M  V30 528 C 50.4814 -3.26494 -1.18403 0
M  V30 529 C 49.4354 -4.24282 -0.562895 0
M  V30 530 C 48.7614 -5.07236 -1.69163 0
M  V30 531 C 50.0614 -5.19989 0.490761 0
M  V30 532 H 51.7554 -2.94175 0.556916 0
M  V30 533 H 49.3014 -1.4146 0.26927 0
M  V30 534 H 51.2544 -3.85477 -1.70251 0
M  V30 535 H 49.9784 -2.63343 -1.93179 0
M  V30 536 H 48.6374 -3.66541 -0.0656164 0
M  V30 537 H 48.2854 -4.4048 -2.42871 0
M  V30 538 H 47.9854 -5.7345 -1.28174 0
M  V30 539 H 49.5094 -5.6908 -2.21314 0
M  V30 540 H 50.9234 -5.73271 0.0579047 0
M  V30 541 H 49.3204 -5.94469 0.820165 0
M  V30 542 H 50.3904 -4.64777 1.3824 0
M  V30 543 N 51.7335 -0.305618 -1.54608 0
M  V30 544 C 53.0105 0.355652 -1.92339 0
M  V30 545 C 53.3905 1.71324 -1.23335 0
M  V30 546 O 52.7385 2.25473 -0.370702 0
M  V30 547 C 52.9485 0.46572 -3.45879 0
M  V30 548 C 54.2965 0.734426 -4.182 0
M  V30 549 O 55.3205 0.54935 -3.51938 0
M  V30 550 O 54.1795 1.09024 -5.35515 0
M  V30 551 H 51.2735 0.199666 -0.802535 0
M  V30 552 H 53.8195 -0.354017 -1.65966 0
M  V30 553 H 52.5915 -0.488461 -3.88239 0
M  V30 554 H 52.2145 1.22367 -3.78301 0
M  V30 555 N 53.2116 1.57565 -0.0334293 0
M  V30 556 C 54.1616 2.06978 0.956237 0
M  V30 557 C 55.1456 0.971193 1.28283 0
M  V30 558 O 56.3376 1.23471 1.26822 0
M  V30 559 C 53.4666 2.60393 2.23719 0
M  V30 560 C 52.5526 3.7719 1.93877 0
M  V30 561 N 52.9436 4.87639 1.34321 0
M  V30 562 C 51.2416 3.85758 2.23845 0
M  V30 563 C 51.9426 5.68825 1.21709 0
M  V30 564 N 50.9186 5.1587 1.71404 0
M  V30 565 H 54.7206 2.89773 0.490815 0
M  V30 566 H 52.2346 1.61492 0.171478 0
M  V30 567 H 54.2316 2.94088 2.95496 0
M  V30 568 H 52.8916 1.79031 2.70884 0
M  V30 569 H 53.9026 5.07803 1.01767 0
M  V30 570 H 50.5796 3.1531 2.73653 0
M  V30 571 H 51.9696 6.67631 0.75621 0
M  V30 572 N 54.6897 -0.239769 1.55765 0
M  V30 573 C 55.9357 -0.968234 1.78194 0
M  V30 574 C 56.2687 -1.84701 0.599938 0
M  V30 575 O 55.5437 -1.9031 -0.401524 0
M  V30 576 C 55.8267 -1.8227 3.10564 0
M  V30 577 C 55.6797 -0.971633 4.3918 0
M  V30 578 C 56.9987 -2.80388 3.39221 0
M  V30 579 H 54.1177 -0.350572 0.648281 0
M  V30 580 H 56.7597 -0.238259 1.885 0
M  V30 581 H 54.9097 -2.44507 3.01908 0
M  V30 582 H 56.5817 -0.367408 4.59835 0
M  V30 583 H 54.8247 -0.276276 4.32919 0
M  V30 584 H 55.4957 -1.60346 5.28198 0
M  V30 585 H 57.9717 -2.28287 3.47885 0
M  V30 586 H 56.8477 -3.3729 4.33044 0
M  V30 587 H 57.1087 -3.57212 2.60484 0
M  V30 588 N 56.1678 -1.49265 -0.50573 0
M  V30 589 C 57.4168 -1.57761 -1.25675 0
M  V30 590 C 57.7298 -0.267371 -1.93764 0
M  V30 591 O 58.9358 -0.230827 -2.70517 0
M  V30 592 C 57.3918 -2.78332 -2.28165 0
M  V30 593 C 56.9998 -4.16096 -1.66037 0
M  V30 594 C 58.7438 -2.96155 -3.04125 0
M  V30 595 C 56.6508 -5.27895 -2.6661 0
M  V30 596 H 55.5808 -0.587391 -0.472745 0
M  V30 597 H 58.2318 -1.75644 -0.53118 0
M  V30 598 H 56.6138 -2.53934 -3.03865 0
M  V30 599 H 57.7878 -4.50612 -0.963622 0
M  V30 600 H 56.1028 -4.03591 -1.02484 0
M  V30 601 H 58.6998 -3.76849 -3.79327 0
M  V30 602 H 59.0428 -2.06534 -3.61455 0
M  V30 603 H 59.5758 -3.2057 -2.35541 0
M  V30 604 H 56.3148 -6.1956 -2.14068 0
M  V30 605 H 55.8348 -4.97839 -3.34539 0
M  V30 606 H 57.5138 -5.57031 -3.29129 0
M  V30 607 N 57.6459 0.756429 -1.3826 0
M  V30 608 C 58.9229 1.50584 -1.24835 0
M  V30 609 C 59.3029 2.10556 0.151485 0
M  V30 610 O 58.6509 1.96825 1.1607 0
M  V30 611 C 58.8609 2.57448 -2.3563 0
M  V30 612 C 60.2089 3.24429 -2.73917 0
M  V30 613 O 61.2329 2.67751 -2.34921 0
M  V30 614 O 60.0919 4.26937 -3.41156 0
M  V30 615 H 57.1859 0.667664 -0.48801 0
M  V30 616 H 59.7319 0.792083 -1.5008 0
M  V30 617 H 58.5039 2.11362 -3.29305 0
M  V30 618 H 58.1269 3.36408 -2.11933 0
M  V30 619 N 59.124 1.23083 0.984299 0
M  V30 620 C 60.349 1.088 1.76571 0
M  V30 621 C 60.774 -0.356657 1.84688 0
M  V30 622 O 60.132 -1.25788 1.30565 0
M  V30 623 C 60.18 1.71371 3.17277 0
M  V30 624 O 59.284 0.973213 4.00752 0
M  V30 625 H 58.625 0.381599 0.543395 0
M  V30 626 H 61.155 1.63057 1.23587 0
M  V30 627 H 61.165 1.76449 3.67872 0
M  V30 628 H 59.84 2.76493 3.10684 0
M  V30 629 H 58.417 0.999078 3.59267 0
M  V30 630 N 60.6021 -1.18246 1.0419 0
M  V30 631 C 62.0131 -1.69914 0.773698 0
M  V30 632 C 62.3641 -1.83085 -0.705297 0
M  V30 633 O 61.4891 -1.51123 -1.5489 0
M  V30 634 C 62.0841 -3.08619 1.39784 0
M  V30 635 C 60.6431 -3.57494 1.17792 0
M  V30 636 C 59.7901 -2.34013 1.48773 0
M  V30 637 H 62.7411 -1.02904 1.20816 0
M  V30 638 H 62.7621 -3.71958 0.801714 0
M  V30 639 H 62.2741 -2.99001 2.47426 0
M  V30 640 H 60.3751 -3.72406 0.120295 0
M  V30 641 H 60.4881 -4.40852 1.87581 0
M  V30 642 H 58.8521 -2.37986 0.907463 0
M  V30 643 H 59.6351 -2.27013 2.57527 0
M  V30 644 N 62.0802 -0.821533 -1.34494 0
M  V30 645 C 63.3572 -0.33159 -1.92769 0
M  V30 646 C 63.7372 1.18088 -1.74981 0
M  V30 647 O 63.0852 1.98733 -1.12772 0
M  V30 648 C 63.2952 -0.759398 -3.40638 0
M  V30 649 C 64.6432 -0.757433 -4.1779 0
M  V30 650 O 65.6672 -0.70189 -3.49216 0
M  V30 651 O 64.5262 -0.829361 -5.4017 0
M  V30 652 H 61.6202 -0.0902502 -0.822061 0
M  V30 653 H 64.1662 -0.906231 -1.43477 0
M  V30 654 H 62.9382 -1.8012 -3.47379 0
M  V30 655 H 62.5612 -0.160378 -3.97276 0
M  V30 656 N 63.5583 1.46682 -0.576371 0
M  V30 657 C 64.8073 2.01619 -0.0572825 0
M  V30 658 C 65.1203 1.45417 1.30818 0
M  V30 659 O 66.3263 1.92133 1.91825 0
M  V30 660 C 64.7823 3.59863 -0.0518371 0
M  V30 661 C 64.3903 4.25059 -1.41523 0
M  V30 662 C 66.1343 4.2248 0.413639 0
M  V30 663 C 64.0413 5.75364 -1.36785 0
M  V30 664 H 62.9713 0.753794 -0.0176448 0
M  V30 665 H 65.6223 1.68481 -0.727076 0
M  V30 666 H 64.0043 3.90048 0.683994 0
M  V30 667 H 65.1783 4.06491 -2.17029 0
M  V30 668 H 63.4933 3.7451 -1.8202 0
M  V30 669 H 66.0903 5.3265 0.467779 0
M  V30 670 H 66.4333 3.90976 1.42982 0
M  V30 671 H 66.9663 3.96897 -0.267929 0
M  V30 672 H 63.7053 6.11518 -2.36063 0
M  V30 673 H 63.2253 5.96214 -0.654895 0
M  V30 674 H 64.9043 6.37955 -1.07805 0
M  V30 675 N 65.0364 0.313813 1.54444 0
M  V30 676 C 66.2764 -0.292389 2.02298 0
M  V30 677 C 66.6404 -1.50105 1.19719 0
M  V30 678 O 67.8414 -2.17947 1.5733 0
M  V30 679 C 66.1124 -0.627682 3.51845 0
M  V30 680 S 67.6714 -1.21493 4.21646 0
M  V30 681 H 64.4894 -0.0890247 0.705405 0
M  V30 682 H 67.0914 0.444668 1.90376 0
M  V30 683 H 65.7954 0.260265 4.09574 0
M  V30 684 H 65.3264 -1.39519 3.67829 0
M  V30 685 H 67.3414 -2.5022 4.28491 0
M  V30 686 N 66.5145 -1.57545 0.0417849 0
M  V30 687 C 67.7605 -1.93424 -0.629168 0
M  V30 688 C 68.1155 -0.919564 -1.69002 0
M  V30 689 O 67.4085 0.0626178 -1.91498 0
M  V30 690 C 67.6025 -3.33794 -1.27735 0
M  V30 691 C 67.4315 -4.48822 -0.280806 0
M  V30 692 C 66.2015 -5.05148 0.123869 0
M  V30 693 C 68.3995 -5.12148 0.470012 0
M  V30 694 N 66.3815 -6.03703 1.11426 0
M  V30 695 C 67.7525 -6.05921 1.31377 0
M  V30 696 C 69.8075 -4.95078 0.529343 0
M  V30 697 C 68.5105 -6.84459 2.21152 0
M  V30 698 C 70.5365 -5.74235 1.41448 0
M  V30 699 C 69.8985 -6.67634 2.24598 0
M  V30 700 H 65.9975 -0.755418 -0.202158 0
M  V30 701 H 68.5815 -1.94378 0.111923 0
M  V30 702 H 66.7525 -3.33635 -1.98852 0
M  V30 703 H 68.4845 -3.56988 -1.90635 0
M  V30 704 H 65.2395 -4.72923 -0.253178 0
M  V30 705 H 65.6635 -6.57674 1.60607 0
M  V30 706 H 70.3055 -4.22683 -0.0992798 0
M  V30 707 H 68.0235 -7.56151 2.85063 0
M  V30 708 H 71.6095 -5.63057 1.46484 0
M  V30 709 H 70.4895 -7.27817 2.9198 0
M  V30 710 N 67.9926 0.231505 -1.5589 0
M  V30 711 C 69.2386 0.95877 -1.78705 0
M  V30 712 C 69.5716 1.8438 -0.609725 0
M  V30 713 O 68.8466 1.90521 0.391426 0
M  V30 714 C 69.1296 1.8062 -3.11526 0
M  V30 715 C 68.9826 0.948328 -4.39689 0
M  V30 716 C 70.3016 2.78585 -3.40703 0
M  V30 717 H 67.4206 0.347129 -0.650131 0
M  V30 718 H 70.0626 0.228259 -1.88624 0
M  V30 719 H 68.2126 2.42902 -3.03201 0
M  V30 720 H 69.8846 0.343016 -4.60023 0
M  V30 721 H 68.1276 0.253314 -4.3306 0
M  V30 722 H 68.7986 1.57543 -5.29041 0
M  V30 723 H 71.2746 2.26439 -3.49091 0
M  V30 724 H 70.1506 3.34988 -4.34826 0
M  V30 725 H 70.4116 3.55825 -2.62375 0
M  V30 726 N 69.4707 1.49531 0.497807 0
M  V30 727 C 70.7187 1.58865 1.24926 0
M  V30 728 C 71.0397 0.278721 1.92998 0
M  V30 729 O 70.3097 -0.702144 1.82885 0
M  V30 730 H 68.8897 0.585343 0.464094 0
M  V30 731 H 71.5517 1.86174 0.57666 0
M  V30 732 H 70.6477 2.38633 2.01149 0
M  V30 733 N 70.9488 -0.749086 1.3866 0
M  V30 734 C 72.1888 -1.52112 1.36534 0
M  V30 735 C 72.5528 -1.91951 -0.0432316 0
M  V30 736 O 73.7538 -2.68132 -0.189396 0
M  V30 737 C 72.0248 -2.73704 2.29828 0
M  V30 738 S 73.5838 -3.63519 2.45763 0
M  V30 739 H 70.4018 -0.520482 0.484375 0
M  V30 740 H 73.0038 -0.878963 1.74627 0
M  V30 741 H 71.7078 -2.42552 3.31054 0
M  V30 742 H 71.2388 -3.4286 1.929 0
M  V30 743 H 73.2538 -4.66712 1.68505 0
M  V30 744 N 72.4269 -1.23603 -0.977757 0
M  V30 745 C 73.3899 -1.02069 -2.05218 0
M  V30 746 C 74.3899 0.0184305 -1.60789 0
M  V30 747 O 75.5799 -0.221569 -1.72785 0
M  V30 748 C 72.7119 -0.544926 -3.36517 0
M  V30 749 H 73.9049 -1.9742 -2.25755 0
M  V30 750 H 71.4579 -1.05684 -1.15155 0
M  V30 751 H 72.1929 0.412241 -3.21669 0
M  V30 752 H 71.9779 -1.2948 -3.70105 0
M  V30 753 H 73.4679 -0.414985 -4.15533 0
M  V30 754 N 73.905 1.17692 -1.04816 0
M  V30 755 C 74.853 2.23632 -0.63966 0
M  V30 756 C 75.847 1.6601 0.337219 0
M  V30 757 O 77.053 1.78844 0.203693 0
M  V30 758 H 73.428 0.727949 -0.188665 0
M  V30 759 H 75.399 2.55387 -1.54337 0
M  V30 760 C 74.148 3.4769 -0.0264051 0
M  V30 761 H 73.471 3.92331 -0.769164 0
M  V30 762 H 74.911 4.23418 0.222098 0
M  V30 763 C 73.37 3.13807 1.22584 0
M  V30 764 O 73.9 3.28236 2.31569 0
M  V30 765 N 72.106 2.68065 1.12202 0
M  V30 766 H 71.653 2.56525 0.235133 0
M  V30 767 H 71.611 2.45767 1.96076 0
M  V30 768 N 75.3831 0.828654 1.34056 0
M  V30 769 C 76.2931 0.256725 2.33191 0
M  V30 770 C 77.3091 -0.611898 1.62886 0
M  V30 771 O 78.4851 -0.51844 1.94613 0
M  V30 772 C 75.5501 -0.567238 3.42028 0
M  V30 773 C 74.6111 0.324458 4.28072 0
M  V30 774 C 73.8441 -0.460274 5.31712 0
M  V30 775 O 74.0671 -1.693 5.44696 0
M  V30 776 O 73.0011 0.160391 6.01686 0
M  V30 777 H 76.8271 1.07739 2.83947 0
M  V30 778 H 74.4121 0.59093 1.37217 0
M  V30 779 H 76.2941 -1.03582 4.08471 0
M  V30 780 H 74.9691 -1.36513 2.93506 0
M  V30 781 H 73.8761 0.840659 3.64532 0
M  V30 782 H 75.2091 1.08685 4.8005 0
M  V30 783 N 76.8612 -1.46375 0.584142 0
M  V30 784 C 77.7912 -2.33103 -0.136037 0
M  V30 785 C 78.7722 -1.45431 -0.882255 0
M  V30 786 O 79.9572 -1.74246 -0.857434 0
M  V30 787 C 77.0872 -3.27731 -1.14933 0
M  V30 788 C 76.0412 -4.24855 -0.517862 0
M  V30 789 C 75.3672 -5.09001 -1.63773 0
M  V30 790 C 76.6672 -5.19439 0.545886 0
M  V30 791 H 78.3612 -2.93568 0.588086 0
M  V30 792 H 75.9072 -1.41166 0.284259 0
M  V30 793 H 77.8602 -3.87261 -1.66153 0
M  V30 794 H 76.5842 -2.65377 -1.90375 0
M  V30 795 H 75.2432 -3.6659 -0.0267361 0
M  V30 796 H 74.8912 -4.43031 -2.38185 0
M  V30 797 H 74.5912 -5.74777 -1.22085 0
M  V30 798 H 76.1152 -5.71396 -2.15266 0
M  V30 799 H 77.5292 -5.73177 0.118704 0
M  V30 800 H 75.9262 -5.93566 0.88317 0
M  V30 801 H 76.9962 -4.63285 1.43162 0
M  V30 802 N 78.3393 -0.321999 -1.54275 0
M  V30 803 C 79.2873 0.560206 -2.25753 0
M  V30 804 C 80.2813 1.11984 -1.27106 0
M  V30 805 O 81.4873 1.06806 -1.44888 0
M  V30 806 H 77.8623 0.199304 -0.725108 0
M  V30 807 H 79.8333 -0.0649365 -2.98329 0
M  V30 808 C 78.5823 1.71023 -3.02731 0
M  V30 809 H 77.9053 1.28885 -3.78456 0
M  V30 810 H 79.3453 2.30314 -3.55993 0
M  V30 811 C 77.8043 2.62692 -2.10938 0
M  V30 812 O 78.3343 3.64364 -1.6912 0
M  V30 813 N 76.5403 2.30891 -1.76459 0
M  V30 814 H 76.0873 1.48253 -2.10663 0
M  V30 815 H 76.0453 2.92487 -1.1532 0
M  V30 816 N 79.8174 1.5752 -0.0501392 0
M  V30 817 C 80.7804 2.1037 0.909786 0
M  V30 818 C 81.7804 1.02308 1.24056 0
M  V30 819 O 82.9704 1.28385 1.17741 0
M  V30 820 C 80.1024 2.58708 2.21998 0
M  V30 821 H 81.2954 2.96479 0.451665 0
M  V30 822 H 78.8484 1.55038 0.198248 0
M  V30 823 H 79.5834 1.75989 2.72394 0
M  V30 824 H 79.3684 3.37675 1.99295 0
M  V30 825 H 80.8584 2.99747 2.9076 0
M  V30 826 N 81.2955 -0.223234 1.56011 0
M  V30 827 C 82.5205 -0.968978 1.83373 0
M  V30 828 C 82.9455 -1.77227 0.630254 0
M  V30 829 O 82.3035 -1.76345 -0.420959 0
M  V30 830 C 82.3515 -1.86363 3.08709 0
M  V30 831 O 81.4555 -2.95873 2.87285 0
M  V30 832 H 80.7965 -0.274461 0.604622 0
M  V30 833 H 83.3265 -0.237056 2.03222 0
M  V30 834 H 83.3365 -2.27376 3.38768 0
M  V30 835 H 82.0115 -1.27319 3.95933 0
M  V30 836 H 80.5885 -2.58818 2.68454 0
M  V30 837 N 82.7736 -1.49793 -0.48987 0
M  V30 838 C 84.0036 -1.6333 -1.26518 0
M  V30 839 C 84.4116 -0.308392 -1.8667 0
M  V30 840 O 83.7546 0.717512 -1.69108 0
M  V30 841 C 83.8166 -2.6522 -2.4269 0
M  V30 842 C 83.4806 -4.09279 -2.03321 0
M  V30 843 C 84.4776 -4.95738 -1.56652 0
M  V30 844 C 82.1626 -4.55082 -2.12616 0
M  V30 845 C 84.1566 -6.26041 -1.19795 0
M  V30 846 C 81.8436 -5.85396 -1.75371 0
M  V30 847 C 82.8416 -6.707 -1.29036 0
M  V30 848 O 82.5296 -7.98584 -0.92299 0
M  V30 849 H 82.2616 -0.552502 -0.389509 0
M  V30 850 H 84.8156 -1.96642 -0.593381 0
M  V30 851 H 83.0456 -2.27112 -3.12981 0
M  V30 852 H 84.7346 -2.68171 -3.04695 0
M  V30 853 H 85.5006 -4.61575 -1.48908 0
M  V30 854 H 81.3796 -3.88844 -2.47631 0
M  V30 855 H 84.9236 -6.92578 -0.835582 0
M  V30 856 H 80.8206 -6.19085 -1.82768 0
M  V30 857 H 81.5886 -8.11692 -1.05349 0
M  V30 858 N 84.2517 0.741722 -1.39055 0
M  V30 859 C 85.2147 1.83733 -1.37021 0
M  V30 860 C 86.2147 1.58542 -0.268534 0
M  V30 861 O 87.4047 1.66067 -0.526076 0
M  V30 862 C 84.5367 3.2141 -1.13617 0
M  V30 863 H 85.7297 1.86941 -2.34506 0
M  V30 864 H 83.2827 0.944676 -1.24521 0
M  V30 865 H 84.0177 3.23865 -0.167863 0
M  V30 866 H 83.8027 3.4109 -1.93391 0
M  V30 867 H 85.2927 4.01477 -1.14918 0
M  V30 868 N 85.7298 1.2412 0.971189 0
M  V30 869 C 86.6928 1.03156 2.04674 0
M  V30 870 C 87.6928 -0.00990322 1.60797 0
M  V30 871 O 88.8828 0.230729 1.72665 0
M  V30 872 C 86.0148 0.562765 3.36223 0
M  V30 873 H 87.2078 1.98614 2.24705 0
M  V30 874 H 84.7608 1.06293 1.14593 0
M  V30 875 H 85.4958 -0.395176 3.21883 0
M  V30 876 H 85.2808 1.31441 3.69413 0
M  V30 877 H 86.7708 0.437015 4.15307 0
M  V30 878 N 87.2079 -1.17134 1.05439 0
M  V30 879 C 88.4849 -1.83411 0.679699 0
M  V30 880 C 88.8649 -1.9368 -0.839726 0
M  V30 881 O 88.2129 -1.47325 -1.74664 0
M  V30 882 C 88.4229 -3.20918 1.37159 0
M  V30 883 C 89.7709 -3.96796 1.51123 0
M  V30 884 O 90.7949 -3.30406 1.3308 0
M  V30 885 O 89.6539 -5.15778 1.80651 0
M  V30 886 H 86.7479 -0.79154 0.239569 0
M  V30 887 H 89.2939 -1.24411 1.15413 0
M  V30 888 H 88.0659 -3.08428 2.40807 0
M  V30 889 H 87.6889 -3.87587 0.886674 0
M  V30 890 N 88.686 -0.835752 -1.33615 0
M  V30 891 C 89.934 -0.429109 -1.97492 0
M  V30 892 C 90.255 1.01433 -1.66543 0
M  V30 893 O 89.525 1.70611 -0.962744 0
M  V30 894 H 88.105 -0.155686 -0.730596 0
M  V30 895 H 90.767 -1.06802 -1.63031 0
M  V30 896 H 89.863 -0.55861 -3.0706 0
M  V30 897 N 90.1641 1.46063 -0.591896 0
M  V30 898 C 91.3941 2.06418 -0.0867676 0
M  V30 899 C 91.8021 1.43975 1.22751 0
M  V30 900 O 91.1451 0.542531 1.75506 0
M  V30 901 C 91.2071 3.59213 0.143725 0
M  V30 902 C 90.8711 4.439 -1.08635 0
M  V30 903 C 91.8681 4.79864 -2.00067 0
M  V30 904 C 89.5531 4.84896 -1.31077 0
M  V30 905 C 91.5471 5.55661 -3.12282 0
M  V30 906 C 89.2341 5.6045 -2.43596 0
M  V30 907 C 90.2321 5.95747 -3.34027 0
M  V30 908 O 89.9201 6.69772 -4.4459 0
M  V30 909 H 89.6521 0.673443 -0.0587447 0
M  V30 910 H 92.2061 1.88539 -0.814994 0
M  V30 911 H 90.4361 3.75433 0.926668 0
M  V30 912 H 92.1251 4.01463 0.5985 0
M  V30 913 H 92.8911 4.48763 -1.83947 0
M  V30 914 H 88.7701 4.56867 -0.61594 0
M  V30 915 H 92.3141 5.8313 -3.82891 0
M  V30 916 H 88.2111 5.90965 -2.59674 0
M  V30 917 H 88.9791 6.88207 -4.43073 0
M  V30 918 N 91.6422 0.330177 1.54103 0
M  V30 919 C 92.6052 -0.520144 2.2322 0
M  V30 920 C 93.6052 -1.03828 1.22786 0
M  V30 921 O 94.7952 -0.929652 1.4732 0
M  V30 922 C 91.9272 -1.72317 2.94142 0
M  V30 923 H 93.1202 0.0841605 2.99782 0
M  V30 924 H 90.6732 0.0813433 1.56088 0
M  V30 925 H 91.4082 -2.36653 2.21734 0
M  V30 926 H 91.1932 -1.35898 3.67796 0
M  V30 927 H 92.6832 -2.3266 3.46784 0
M  V30 928 N 93.1203 -1.57491 0.0584922 0
M  V30 929 C 94.5363 -1.56792 -0.298091 0
M  V30 930 C 94.7363 -1.06679 -1.70944 0
M  V30 931 O 93.7923 -0.726672 -2.41818 0
M  V30 932 C 95.1053 -3.00461 -0.119879 0
M  V30 933 C 96.6533 -3.1242 -0.190428 0
M  V30 934 C 97.1283 -4.57982 -0.0406567 0
M  V30 935 N 98.6193 -4.63099 -0.0966958 0
M  V30 936 C 99.3543 -5.734 -0.00502943 0
M  V30 937 N 98.8503 -6.9266 0.139402 0
M  V30 938 N 100.643 -5.62067 -0.0611391 0
M  V30 939 H 92.7943 -1.88386 0.98105 0
M  V30 940 H 95.0573 -0.867865 0.381463 0
M  V30 941 H 94.7633 -3.41187 0.85349 0
M  V30 942 H 94.6373 -3.66843 -0.877833 0
M  V30 943 H 97.0243 -2.71589 -1.15427 0
M  V30 944 H 97.1053 -2.48702 0.598405 0
M  V30 945 H 96.7493 -4.995 0.919897 0
M  V30 946 H 96.6793 -5.19715 -0.848727 0
M  V30 947 H 99.1703 -3.77331 -0.207277 0
M  V30 948 H 99.4833 -7.72536 0.201855 0
M  V30 949 H 97.8283 -6.94781 0.174586 0
M  V30 950 H 101.019 -4.67782 -0.172583 0
M  V30 951 H 101.192 -6.47999 0.0137562 0
M  V30 952 N 94.5984 0.214957 -1.56127 0
M  V30 953 C 95.8384 0.945364 -1.81224 0
M  V30 954 C 96.2024 1.81265 -0.633005 0
M  V30 955 O 97.4034 2.57731 -0.763423 0
M  V30 956 C 95.6744 1.75665 -3.1125 0
M  V30 957 S 97.2334 2.54179 -3.57685 0
M  V30 958 H 94.0514 0.317443 -0.6362 0
M  V30 959 H 96.6534 0.210381 -1.94365 0
M  V30 960 H 95.3574 1.10977 -3.9511 0
M  V30 961 H 94.8884 2.53381 -3.00934 0
M  V30 962 H 96.9034 3.7792 -3.21545 0
M  V30 963 N 96.0765 1.50051 0.48192 0
M  V30 964 C 97.0235 1.68122 1.58125 0
M  V30 965 C 97.9935 0.522545 1.57666 0
M  V30 966 O 99.1785 0.751844 1.75362 0
M  V30 967 C 96.3185 1.77142 2.96167 0
M  V30 968 C 95.4315 3.0444 3.06497 0
M  V30 969 C 94.5665 3.04321 4.35387 0
M  V30 970 C 93.6055 4.26118 4.3942 0
M  V30 971 N 92.7425 4.238 5.59766 0
M  V30 972 H 97.5825 2.6198 1.42022 0
M  V30 973 H 95.1195 1.29877 0.690687 0
M  V30 974 H 97.0775 1.80352 3.76203 0
M  V30 975 H 95.7075 0.867329 3.1093 0
M  V30 976 H 94.7595 3.10752 2.19402 0
M  V30 977 H 96.0715 3.94426 3.05336 0
M  V30 978 H 95.2255 3.062 5.23762 0
M  V30 979 H 93.9645 2.12147 4.39141 0
M  V30 980 H 92.9695 4.24463 3.49444 0
M  V30 981 H 94.1945 5.19507 4.37366 0
M  V30 982 H 92.1405 3.34474 5.64326 0
M  V30 983 H 92.0575 5.07542 5.60301 0
M  V30 984 H 93.3255 4.2981 6.50295 0
M  V30 985 N 97.5546 -0.734337 1.39446 0
M  V30 986 C 98.8026 -1.49096 1.36436 0
M  V30 987 C 99.1236 -1.94961 -0.0388255 0
M  V30 988 O 98.3936 -1.69033 -0.990191 0
M  V30 989 H 96.9736 -0.5531 0.502085 0
M  V30 990 H 99.6356 -0.871725 1.74319 0
M  V30 991 H 98.7316 -2.37276 2.02747 0
M  V30 992 N 99.0327 -1.24633 -0.964593 0
M  V30 993 C 100.28 -1.08788 -1.70796 0
M  V30 994 C 100.608 0.372783 -1.90894 0
M  V30 995 O 99.8627 1.29167 -1.47018 0
M  V30 996 C 100.162 -1.7763 -3.10133 0
M  V30 997 C 99.8277 -3.27557 -3.09866 0
M  V30 998 C 98.4897 -3.6846 -3.09501 0
M  V30 999 C 100.842 -4.23389 -3.03959 0
M  V30 1000 C 98.1697 -5.03624 -3.00965 0
M  V30 1001 C 100.522 -5.58565 -2.96965 0
M  V30 1002 C 99.1857 -5.98809 -2.9493 0
M  V30 1003 H 98.4557 -0.398084 -0.624988 0
M  V30 1004 H 101.103 -1.54777 -1.12767 0
M  V30 1005 H 99.4077 -1.24044 -3.71645 0
M  V30 1006 H 101.105 -1.62832 -3.66451 0
M  V30 1007 H 97.6947 -2.95006 -3.10917 0
M  V30 1008 H 101.879 -3.92787 -3.03368 0
M  V30 1009 H 97.1347 -5.33998 -2.97752 0
M  V30 1010 H 101.309 -6.32523 -2.91354 0
M  V30 1011 H 98.9357 -7.03505 -2.88071 0
M  V30 1012 N 100.511 1.16574 -1.06058 0
M  V30 1013 C 101.474 2.19085 -0.673392 0
M  V30 1014 C 102.474 1.5835 0.279648 0
M  V30 1015 O 103.664 1.74088 0.0623488 0
M  V30 1016 C 100.796 3.40899 0.00954234 0
M  V30 1017 H 101.989 2.54853 -1.58081 0
M  V30 1018 H 99.5418 1.30808 -0.855516 0
M  V30 1019 H 100.277 3.10684 0.929826 0
M  V30 1020 H 100.062 3.86233 -0.67573 0
M  V30 1021 H 101.552 4.1675 0.266245 0
M  V30 1022 N 101.989 0.842826 1.3317 0
M  V30 1023 C 102.952 0.284065 2.27433 0
M  V30 1024 C 103.952 -0.54948 1.5112 0
M  V30 1025 O 105.142 -0.362699 1.70382 0
M  V30 1026 C 102.274 -0.599384 3.35589 0
M  V30 1027 H 103.467 1.11589 2.78366 0
M  V30 1028 H 101.02 0.616221 1.4364 0
M  V30 1029 H 101.755 -1.45349 2.89904 0
M  V30 1030 H 101.54 -0.00291266 3.921 0
M  V30 1031 H 103.03 -0.983488 4.05854 0
M  V30 1032 N 103.467 -1.45747 0.599634 0
M  V30 1033 C 104.397 -2.33235 -0.111306 0
M  V30 1034 C 105.378 -1.46359 -0.866781 0
M  V30 1035 O 106.563 -1.75146 -0.838904 0
M  V30 1036 C 103.693 -3.28932 -1.11451 0
M  V30 1037 C 102.647 -4.25381 -0.472772 0
M  V30 1038 C 101.973 -5.1071 -1.58365 0
M  V30 1039 C 103.273 -5.18831 0.600948 0
M  V30 1040 H 104.967 -2.92927 0.61919 0
M  V30 1041 H 102.513 -1.40857 0.299215 0
M  V30 1042 H 104.466 -3.89002 -1.62036 0
M  V30 1043 H 103.19 -2.67381 -1.8755 0
M  V30 1044 H 101.849 -3.66598 0.0121472 0
M  V30 1045 H 101.497 -4.45533 -2.33473 0
M  V30 1046 H 101.197 -5.7604 -1.15982 0
M  V30 1047 H 102.721 -5.73647 -2.09194 0
M  V30 1048 H 104.135 -5.73019 0.179491 0
M  V30 1049 H 102.532 -5.92595 0.946076 0
M  V30 1050 H 103.602 -4.6174 1.48068 0
M  V30 1051 N 104.945 -0.338344 -1.53925 0
M  V30 1052 C 105.875 0.51328 -2.27789 0
M  V30 1053 C 106.856 1.107 -1.29149 0
M  V30 1054 O 108.041 1.12937 -1.57984 0
M  V30 1055 C 105.171 1.66697 -3.04679 0
M  V30 1056 C 104.125 1.20183 -4.1078 0
M  V30 1057 C 103.451 2.44363 -4.75595 0
M  V30 1058 C 104.751 0.30605 -5.21403 0
M  V30 1059 H 106.445 -0.102883 -2.99223 0
M  V30 1060 H 103.991 -0.0509219 -1.4391 0
M  V30 1061 H 105.944 2.26915 -3.55088 0
M  V30 1062 H 104.668 2.30995 -2.30887 0
M  V30 1063 H 103.327 0.622499 -3.61276 0
M  V30 1064 H 102.975 3.07057 -3.98403 0
M  V30 1065 H 102.675 2.13925 -5.47275 0
M  V30 1066 H 104.199 3.05317 -5.28786 0
M  V30 1067 H 105.613 0.814929 -5.67478 0
M  V30 1068 H 104.01 0.0937929 -6.00027 0
M  V30 1069 H 105.08 -0.65921 -4.80398 0
M  V30 1070 N 106.423 1.57458 -0.0668435 0
M  V30 1071 C 107.651 1.97624 0.612565 0
M  V30 1072 C 108.066 0.94502 1.63447 0
M  V30 1073 O 107.423 -0.0689276 1.8237 0
M  V30 1074 C 107.474 3.37869 1.28555 0
M  V30 1075 O 107.195 4.3704 0.304557 0
M  V30 1076 C 108.696 3.92882 2.05325 0
M  V30 1077 H 105.916 0.650045 0.166381 0
M  V30 1078 H 108.46 2.04035 -0.137782 0
M  V30 1079 H 106.615 3.3256 1.98702 0
M  V30 1080 H 107.029 5.18565 0.786779 0
M  V30 1081 H 108.503 4.93247 2.47812 0
M  V30 1082 H 108.98 3.29156 2.9078 0
M  V30 1083 H 109.586 4.01577 1.40056 0
M  V30 1084 N 107.901 -0.206675 1.56239 0
M  V30 1085 C 109.129 -0.945345 1.8404 0
M  V30 1086 C 109.544 -1.77336 0.647885 0
M  V30 1087 O 108.901 -1.78425 -0.383511 0
M  V30 1088 C 108.952 -1.8509 3.10522 0
M  V30 1089 O 108.673 -1.05634 4.25174 0
M  V30 1090 C 110.174 -2.70222 3.51418 0
M  V30 1091 H 107.394 -0.276372 0.61144 0
M  V30 1092 H 109.938 -0.217417 2.03341 0
M  V30 1093 H 108.093 -2.53259 2.93153 0
M  V30 1094 H 108.507 -1.67238 4.97124 0
M  V30 1095 H 109.981 -3.29438 4.42916 0
M  V30 1096 H 110.458 -3.43358 2.73864 0
M  V30 1097 H 111.064 -2.07443 3.71278 0
M  V30 1098 N 109.379 -1.50304 -0.473955 0
M  V30 1099 C 110.626 -1.6115 -1.22625 0
M  V30 1100 C 110.954 -0.310517 -1.92005 0
M  V30 1101 O 110.209 0.703419 -1.82621 0
M  V30 1102 C 110.508 -2.73938 -2.29549 0
M  V30 1103 C 110.174 -4.14519 -1.7744 0
M  V30 1104 C 108.836 -4.5277 -1.62949 0
M  V30 1105 C 111.188 -5.02392 -1.3875 0
M  V30 1106 C 108.516 -5.76639 -1.08187 0
M  V30 1107 C 110.868 -6.26805 -0.854309 0
M  V30 1108 C 109.532 -6.63861 -0.696011 0
M  V30 1109 H 108.802 -0.589691 -0.448715 0
M  V30 1110 H 111.449 -1.84228 -0.522705 0
M  V30 1111 H 109.754 -2.44937 -3.05799 0
M  V30 1112 H 111.451 -2.79534 -2.87509 0
M  V30 1113 H 108.041 -3.8434 -1.89685 0
M  V30 1114 H 112.225 -4.73474 -1.4878 0
M  V30 1115 H 107.481 -6.04027 -0.946666 0
M  V30 1116 H 111.655 -6.94258 -0.545843 0
M  V30 1117 H 109.282 -7.59722 -0.26952 0
M  V30 1118 N 110.857 0.726932 -1.39834 0
M  V30 1119 C 112.105 1.4837 -1.37225 0
M  V30 1120 C 112.426 1.94979 0.0284857 0
M  V30 1121 O 111.696 1.69555 0.981213 0
M  V30 1122 H 110.276 0.55043 -0.505011 0
M  V30 1123 H 112.938 0.862468 -1.74778 0
M  V30 1124 H 112.034 2.36198 -2.04003 0
M  V30 1125 N 112.336 1.25143 0.95797 0
M  V30 1126 C 113.582 1.09855 1.70469 0
M  V30 1127 C 113.915 -0.360187 1.90831 0
M  V30 1128 O 113.19 -1.26568 1.47685 0
M  V30 1129 C 113.473 1.8497 3.08963 0
M  V30 1130 C 113.326 3.38652 2.96032 0
M  V30 1131 C 114.645 1.63016 4.08795 0
M  V30 1132 H 111.764 0.400465 0.618706 0
M  V30 1133 H 114.406 1.53933 1.11376 0
M  V30 1134 H 112.556 1.47505 3.59409 0
M  V30 1135 H 114.228 3.85772 2.52938 0
M  V30 1136 H 112.471 3.66534 2.32025 0
M  V30 1137 H 113.142 3.8642 3.94187 0
M  V30 1138 H 115.618 1.95625 3.67247 0
M  V30 1139 H 114.494 2.18015 5.03747 0
M  V30 1140 H 114.755 0.570692 4.38401 0
M  V30 1141 N 113.814 -1.1601 1.06675 0
M  V30 1142 C 115.062 -1.86264 0.784229 0
M  V30 1143 C 115.383 -1.82328 -0.691488 0
M  V30 1144 O 114.653 -1.25947 -1.50047 0
M  V30 1145 H 113.233 -0.689621 0.28711 0
M  V30 1146 H 115.895 -1.40664 1.34906 0
M  V30 1147 H 114.991 -2.91595 1.11259 0
M  V30 1148 N 115.292 -0.849877 -1.32721 0
M  V30 1149 C 116.202 -0.293791 -2.32753 0
M  V30 1150 C 117.218 0.585906 -1.63839 0
M  V30 1151 O 118.394 0.487413 -1.95413 0
M  V30 1152 C 115.459 0.512752 -3.42887 0
M  V30 1153 C 114.52 -0.39252 -4.27502 0
M  V30 1154 C 113.753 0.375625 -5.32377 0
M  V30 1155 O 113.976 1.60613 -5.4732 0
M  V30 1156 O 112.91 -0.256094 -6.01355 0
M  V30 1157 H 116.736 -1.12242 -2.82197 0
M  V30 1158 H 114.321 -0.612685 -1.36259 0
M  V30 1159 H 116.203 0.970704 -4.10067 0
M  V30 1160 H 114.878 1.31826 -2.95641 0
M  V30 1161 H 113.785 -0.898547 -3.63149 0
M  V30 1162 H 115.118 -1.16309 -4.7826 0
M  V30 1163 N 116.77 1.45427 -0.607355 0
M  V30 1164 C 117.7 2.3329 0.0989352 0
M  V30 1165 C 118.681 1.46816 0.859007 0
M  V30 1166 O 119.866 1.75588 0.829604 0
M  V30 1167 C 116.996 3.29518 1.09705 0
M  V30 1168 C 115.95 4.25626 0.450206 0
M  V30 1169 C 115.276 5.11542 1.55655 0
M  V30 1170 C 116.576 5.18505 -0.628455 0
M  V30 1171 H 118.27 2.92595 -0.634716 0
M  V30 1172 H 115.816 1.40696 -0.306681 0
M  V30 1173 H 117.769 3.89855 1.59971 0
M  V30 1174 H 116.493 2.68372 1.86129 0
M  V30 1175 H 115.152 3.66586 -0.0315886 0
M  V30 1176 H 114.8 4.46765 2.31107 0
M  V30 1177 H 114.5 5.76647 1.12925 0
M  V30 1178 H 116.024 5.74748 2.06148 0
M  V30 1179 H 117.438 5.72916 -0.209877 0
M  V30 1180 H 115.835 5.92085 -0.977489 0
M  V30 1181 H 116.905 4.60948 -1.50514 0
M  V30 1182 N 118.248 0.346503 1.53744 0
M  V30 1183 C 119.473 -0.253074 2.0585 0
M  V30 1184 C 119.898 -1.43202 1.21962 0
M  V30 1185 O 119.256 -1.79783 0.234073 0
M  V30 1186 C 119.304 -0.643193 3.54817 0
M  V30 1187 O 118.408 -1.74286 3.73762 0
M  V30 1188 H 117.749 -0.0413583 0.662711 0
M  V30 1189 H 120.279 0.501574 1.98357 0
M  V30 1190 H 120.289 -0.919526 3.97503 0
M  V30 1191 H 118.964 0.218966 4.15323 0
M  V30 1192 H 117.541 -1.46356 3.42979 0
M  V30 1193 N 119.726 -1.57421 0.075193 0
M  V30 1194 C 120.689 -2.11791 -0.876203 0
M  V30 1195 C 121.689 -1.04268 -1.22412 0
M  V30 1196 O 122.879 -1.30242 -1.15684 0
M  V30 1197 C 120.011 -2.62207 -2.17854 0
M  V30 1198 H 121.204 -2.9716 -0.40444 0
M  V30 1199 H 118.757 -1.55333 -0.173557 0
M  V30 1200 H 119.492 -1.803 -2.6956 0
M  V30 1201 H 119.277 -3.40802 -1.93897 0
M  V30 1202 H 120.767 -3.04335 -2.85955 0
M  V30 1203 N 121.204 0.198386 -1.56346 0
M  V30 1204 C 122.137 1.27381 -1.89339 0
M  V30 1205 C 123.115 1.44106 -0.753134 0
M  V30 1206 O 124.299 1.59549 -1.00381 0
M  V30 1207 C 121.426 2.6409 -2.12071 0
M  V30 1208 C 120.472 2.64253 -3.34772 0
M  V30 1209 S 121.305 2.16013 -4.89999 0
M  V30 1210 C 122.461 3.54553 -5.15794 0
M  V30 1211 H 122.694 0.992058 -2.8026 0
M  V30 1212 H 120.227 0.401726 -1.49082 0
M  V30 1213 H 122.185 3.42786 -2.2585 0
M  V30 1214 H 120.846 2.89478 -1.21906 0
M  V30 1215 H 120.039 3.64768 -3.47794 0
M  V30 1216 H 119.641 1.93637 -3.1997 0
M  V30 1217 H 121.933 4.50396 -5.06112 0
M  V30 1218 H 122.876 3.46428 -6.1757 0
M  V30 1219 H 123.284 3.49313 -4.43442 0
M  V30 1220 N 122.682 1.50554 0.465978 0
M  V30 1221 C 123.63 1.70324 1.58406 0
M  V30 1222 C 124.624 0.569139 1.59553 0
M  V30 1223 O 125.83 0.749776 1.63641 0
M  V30 1224 H 122.205 0.537688 0.525734 0
M  V30 1225 H 124.176 2.64104 1.38894 0
M  V30 1226 C 122.925 1.81928 2.96307 0
M  V30 1227 H 122.248 2.68586 2.96144 0
M  V30 1228 H 123.688 1.99784 3.73982 0
M  V30 1229 C 122.147 0.572095 3.32007 0
M  V30 1230 O 122.677 -0.286416 4.00678 0
M  V30 1231 N 120.883 0.424606 2.87481 0
M  V30 1232 H 120.43 1.12427 2.31771 0
M  V30 1233 H 120.388 -0.408697 3.11732 0
M  V30 1234 N 124.16 -0.719506 1.40217 0
M  V30 1235 C 125.408 -1.47641 1.3801 0
M  V30 1236 C 125.729 -1.94992 -0.018145 0
M  V30 1237 O 124.999 -1.70073 -0.972207 0
M  V30 1238 H 123.579 -0.547744 0.507923 0
M  V30 1239 H 126.241 -0.853187 1.75233 0
M  V30 1240 H 125.337 -2.35112 2.05253 0
M  V30 1241 N 125.638 -1.25649 -0.95132 0
M  V30 1242 C 126.887 -1.09988 -1.69073 0
M  V30 1243 C 127.2 0.358355 -1.92289 0
M  V30 1244 O 128.406 0.635466 -2.63958 0
M  V30 1245 C 126.862 -1.92012 -3.044 0
M  V30 1246 C 126.47 -3.42347 -2.88968 0
M  V30 1247 C 128.214 -1.8493 -3.82101 0
M  V30 1248 C 126.121 -4.16655 -4.19705 0
M  V30 1249 H 125.051 -0.407993 -0.63408 0
M  V30 1250 H 127.702 -1.49873 -1.05879 0
M  V30 1251 H 126.084 -1.44952 -3.68517 0
M  V30 1252 H 127.258 -3.97104 -2.33762 0
M  V30 1253 H 125.573 -3.50557 -2.24719 0
M  V30 1254 H 128.17 -2.37739 -4.78941 0
M  V30 1255 H 128.513 -0.817883 -4.08187 0
M  V30 1256 H 129.046 -2.29758 -3.2474 0
M  V30 1257 H 125.785 -5.20224 -3.98807 0
M  V30 1258 H 125.305 -3.66681 -4.74663 0
M  V30 1259 H 126.984 -4.24551 -4.88227 0
M  V30 1260 N 127.117 1.15442 -1.07289 0
M  V30 1261 C 128.08 2.18358 -0.696591 0
M  V30 1262 C 129.08 1.58637 0.262837 0
M  V30 1263 O 130.27 1.74145 0.0438809 0
M  V30 1264 C 127.402 3.4089 -0.0266151 0
M  V30 1265 H 128.595 2.53162 -1.60776 0
M  V30 1266 H 126.148 1.29893 -0.869342 0
M  V30 1267 H 126.883 3.11653 0.896822 0
M  V30 1268 H 126.668 3.85495 -0.716657 0
M  V30 1269 H 128.158 4.17009 0.222028 0
M  V30 1270 N 128.595 0.856903 1.32268 0
M  V30 1271 C 129.843 0.460474 1.96784 0
M  V30 1272 C 130.164 -0.987701 1.68135 0
M  V30 1273 O 129.434 -1.69058 0.989765 0
M  V30 1274 H 128.014 0.167289 0.728027 0
M  V30 1275 H 130.676 1.09383 1.61312 0
M  V30 1276 H 129.772 0.60739 3.06133 0
M  V30 1277 N 130.073 -1.45103 0.615059 0
M  V30 1278 C 131.298 -2.07064 0.117988 0
M  V30 1279 C 131.723 -1.4554 -1.19163 0
M  V30 1280 O 131.081 -0.550855 -1.72729 0
M  V30 1281 C 131.129 -3.606 -0.000288387 0
M  V30 1282 O 130.233 -3.98847 -1.04856 0
M  V30 1283 H 129.574 -0.659467 0.0774581 0
M  V30 1284 H 132.104 -1.86236 0.847186 0
M  V30 1285 H 132.114 -4.07529 -0.196091 0
M  V30 1286 H 130.789 -4.04765 0.955932 0
M  V30 1287 H 129.366 -3.63577 -0.828619 0
M  V30 1288 N 131.551 -0.354651 -1.53558 0
M  V30 1289 C 132.781 0.239167 -2.05211 0
M  V30 1290 C 133.189 1.43879 -1.22863 0
M  V30 1291 O 132.532 1.81857 -0.259565 0
M  V30 1292 C 132.594 0.707251 -3.52474 0
M  V30 1293 C 132.258 -0.374212 -4.55465 0
M  V30 1294 C 133.255 -1.22054 -5.0537 0
M  V30 1295 C 130.94 -0.531323 -4.99482 0
M  V30 1296 C 132.934 -2.20942 -5.97882 0
M  V30 1297 C 130.621 -1.52358 -5.91802 0
M  V30 1298 C 131.619 -2.36108 -6.40892 0
M  V30 1299 O 131.307 -3.33643 -7.31394 0
M  V30 1300 H 131.039 0.0479716 -0.674296 0
M  V30 1301 H 133.593 -0.508121 -1.99016 0
M  V30 1302 H 131.823 1.50596 -3.56171 0
M  V30 1303 H 133.512 1.22285 -3.87042 0
M  V30 1304 H 134.278 -1.1103 -4.7212 0
M  V30 1305 H 130.157 0.110738 -4.60867 0
M  V30 1306 H 133.701 -2.86348 -6.36121 0
M  V30 1307 H 129.598 -1.63434 -6.24467 0
M  V30 1308 H 130.366 -3.29244 -7.4936 0
M  V30 1309 N 133.029 1.57378 -0.0835403 0
M  V30 1310 C 133.992 2.12252 0.864959 0
M  V30 1311 C 134.992 1.04916 1.21858 0
M  V30 1312 O 136.182 1.30853 1.14991 0
M  V30 1313 C 133.314 2.63358 2.16461 0
M  V30 1314 H 134.507 2.97371 0.388676 0
M  V30 1315 H 132.06 1.55423 0.165317 0
M  V30 1316 H 132.795 1.81727 2.686 0
M  V30 1317 H 132.58 3.41826 1.92087 0
M  V30 1318 H 134.07 3.05847 2.84337 0
M  V30 1319 N 134.507 -0.190092 1.56449 0
M  V30 1320 C 135.417 -1.25591 1.98152 0
M  V30 1321 C 136.433 -1.49519 0.889944 0
M  V30 1322 O 137.609 -1.62036 1.19609 0
M  V30 1323 C 134.674 -2.57916 2.3169 0
M  V30 1324 C 133.735 -2.42015 3.5458 0
M  V30 1325 C 132.968 -3.6803 3.8651 0
M  V30 1326 O 133.191 -4.72413 3.1966 0
M  V30 1327 O 132.125 -3.6326 4.79923 0
M  V30 1328 H 135.951 -0.931988 2.89046 0
M  V30 1329 H 133.536 -0.395488 1.4407 0
M  V30 1330 H 135.418 -3.36008 2.54316 0
M  V30 1331 H 134.093 -2.89925 1.43963 0
M  V30 1332 H 133 -1.62017 3.37196 0
M  V30 1333 H 134.333 -2.14937 4.4279 0
M  V30 1334 N 135.985 -1.50799 -0.457987 0
M  V30 1335 C 136.935 -1.67003 -1.55222 0
M  V30 1336 C 137.919 -0.52434 -1.52117 0
M  V30 1337 O 139.111 -0.779345 -1.58919 0
M  V30 1338 C 136.24 -1.77956 -2.93576 0
M  V30 1339 C 135.326 -2.98243 -3.01516 0
M  V30 1340 N 135.717 -4.21732 -2.79241 0
M  V30 1341 C 134.015 -2.97072 -3.32662 0
M  V30 1342 C 134.716 -5.02817 -2.92489 0
M  V30 1343 N 133.692 -4.37038 -3.23262 0
M  V30 1344 H 137.494 -2.60163 -1.36721 0
M  V30 1345 H 135.008 -1.48163 -0.664952 0
M  V30 1346 H 137.005 -1.87671 -3.72271 0
M  V30 1347 H 135.665 -0.859634 -3.13114 0
M  V30 1348 H 136.676 -4.51016 -2.54567 0
M  V30 1349 H 133.353 -2.14631 -3.58106 0
M  V30 1350 H 134.743 -6.11054 -2.79396 0
M  V30 1351 N 137.463 0.71206 -1.40597 0
M  V30 1352 C 138.709 1.47416 -1.39271 0
M  V30 1353 C 139.042 1.942 0.00388791 0
M  V30 1354 O 138.317 1.68403 0.973179 0
M  V30 1355 C 138.6 2.69774 -2.38525 0
M  V30 1356 C 138.453 2.28861 -3.87224 0
M  V30 1357 C 139.772 3.71939 -2.35264 0
M  V30 1358 H 136.891 0.534713 -0.5072 0
M  V30 1359 H 139.533 0.812375 -1.71757 0
M  V30 1360 H 137.683 3.26238 -2.10953 0
M  V30 1361 H 139.355 1.77852 -4.25636 0
M  V30 1362 H 137.598 1.60824 -4.02887 0
M  V30 1363 H 138.269 3.16584 -4.52193 0
M  V30 1364 H 140.745 3.25113 -2.59694 0
M  V30 1365 H 139.621 4.55186 -3.06753 0
M  V30 1366 H 139.882 4.20484 -1.36549 0
M  V30 1367 N 138.941 1.26152 0.944643 0
M  V30 1368 C 140.352 1.10454 1.50522 0
M  V30 1369 C 140.703 -0.31635 1.93633 0
M  V30 1370 O 139.828 -1.20746 1.79581 0
M  V30 1371 C 140.423 1.99891 2.73549 0
M  V30 1372 C 138.982 1.88348 3.25886 0
M  V30 1373 C 138.129 1.93447 1.9868 0
M  V30 1374 H 141.08 1.39292 0.760489 0
M  V30 1375 H 141.101 1.54477 3.47732 0
M  V30 1376 H 140.613 3.03297 2.42141 0
M  V30 1377 H 138.714 0.878636 3.62092 0
M  V30 1378 H 138.827 2.73696 3.93227 0
M  V30 1379 H 137.191 1.37456 2.14425 0
M  V30 1380 H 137.974 2.98476 1.69607 0
M  V30 1381 N 140.419 -1.14872 1.07899 0
M  V30 1382 C 141.665 -1.86064 0.806725 0
M  V30 1383 C 141.998 -1.82434 -0.665706 0
M  V30 1384 O 141.273 -1.25138 -1.48899 0
M  V30 1385 C 141.556 -3.34929 1.32267 0
M  V30 1386 C 141.409 -3.47161 2.86006 0
M  V30 1387 C 142.728 -4.29863 0.943717 0
M  V30 1388 H 139.847 -0.675591 0.294526 0
M  V30 1389 H 142.489 -1.34925 1.33773 0
M  V30 1390 H 140.639 -3.78611 0.870974 0
M  V30 1391 H 142.311 -3.12302 3.39507 0
M  V30 1392 H 140.554 -2.88539 3.23925 0
M  V30 1393 H 141.225 -4.51777 3.17177 0
M  V30 1394 H 143.701 -3.9417 1.33302 0
M  V30 1395 H 142.577 -5.32494 1.33198 0
M  V30 1396 H 142.838 -4.41846 -0.149796 0
M  V30 1397 N 141.898 -0.863906 -1.31812 0
M  V30 1398 C 142.828 -0.330843 -2.31144 0
M  V30 1399 C 143.809 0.575005 -1.60087 0
M  V30 1400 O 144.994 0.493304 -1.8783 0
M  V30 1401 C 142.124 0.47374 -3.44054 0
M  V30 1402 C 141.078 -0.338481 -4.26659 0
M  V30 1403 C 140.404 0.591412 -5.31419 0
M  V30 1404 C 141.704 -1.56926 -4.98168 0
M  V30 1405 H 143.398 -1.16086 -2.75979 0
M  V30 1406 H 140.944 -0.559657 -1.32679 0
M  V30 1407 H 142.897 0.857143 -4.12591 0
M  V30 1408 H 141.621 1.33721 -2.9797 0
M  V30 1409 H 140.28 -0.703754 -3.59782 0
M  V30 1410 H 139.928 1.45199 -4.81587 0
M  V30 1411 H 139.628 0.0519022 -5.87577 0
M  V30 1412 H 141.152 0.97179 -6.02817 0
M  V30 1413 H 142.566 -1.25764 -5.59336 0
M  V30 1414 H 140.963 -2.04739 -5.64094 0
M  V30 1415 H 142.033 -2.32544 -4.25501 0
M  V30 1416 N 143.376 1.44774 -0.622745 0
M  V30 1417 C 144.326 2.2774 0.108889 0
M  V30 1418 C 145.31 1.38189 0.824175 0
M  V30 1419 O 146.502 1.62063 0.711664 0
M  V30 1420 C 143.631 3.25353 1.09546 0
M  V30 1421 C 142.717 4.22392 0.380232 0
M  V30 1422 N 143.108 5.02388 -0.586535 0
M  V30 1423 C 141.406 4.41588 0.625792 0
M  V30 1424 C 142.107 5.72894 -1.00834 0
M  V30 1425 N 141.083 5.42479 -0.348878 0
M  V30 1426 H 144.885 2.86993 -0.63341 0
M  V30 1427 H 142.399 1.5611 -0.447589 0
M  V30 1428 H 144.396 3.83538 1.63414 0
M  V30 1429 H 143.056 2.6766 1.83815 0
M  V30 1430 H 144.067 5.0885 -0.963975 0
M  V30 1431 H 140.744 3.95003 1.352 0
M  V30 1432 H 142.134 6.47158 -1.80656 0
M  V30 1433 N 144.854 0.36279 1.53368 0
M  V30 1434 C 146.103 -0.22888 2.00397 0
M  V30 1435 C 146.416 -1.50096 1.25421 0
M  V30 1436 O 147.622 -2.17106 1.63025 0
M  V30 1437 C 146.078 -0.458417 3.56969 0
M  V30 1438 C 145.686 0.798877 4.4082 0
M  V30 1439 C 147.43 -1.00789 4.12361 0
M  V30 1440 C 145.337 0.539078 5.88938 0
M  V30 1441 H 144.267 -0.089305 0.748693 0
M  V30 1442 H 146.918 0.481099 1.77081 0
M  V30 1443 H 145.3 -1.22959 3.76427 0
M  V30 1444 H 146.474 1.57262 4.33134 0
M  V30 1445 H 144.789 1.27137 3.96516 0
M  V30 1446 H 147.386 -1.21754 5.20653 0
M  V30 1447 H 147.729 -1.9692 3.66781 0
M  V30 1448 H 148.262 -0.296961 3.9669 0
M  V30 1449 H 145.001 1.47064 6.3879 0
M  V30 1450 H 144.521 -0.196222 5.99479 0
M  V30 1451 H 146.2 0.163542 6.46793 0
M  V30 1452 N 146.332 -1.57332 0.0918853 0
M  V30 1453 C 147.578 -1.94524 -0.573425 0
M  V30 1454 C 147.911 -0.973578 -1.68033 0
M  V30 1455 O 147.186 -0.00609226 -1.94499 0
M  V30 1456 C 147.469 -3.41858 -1.13161 0
M  V30 1457 C 147.322 -4.4979 -0.0299747 0
M  V30 1458 C 148.641 -3.90435 -2.03098 0
M  V30 1459 H 145.76 -0.70734 -0.206975 0
M  V30 1460 H 148.402 -1.89309 0.161942 0
M  V30 1461 H 146.552 -3.46433 -1.7583 0
M  V30 1462 H 148.224 -4.57327 0.604112 0
M  V30 1463 H 146.467 -4.291 0.636833 0
M  V30 1464 H 147.138 -5.50069 -0.461287 0
M  V30 1465 H 149.614 -3.87992 -1.50338 0
M  V30 1466 H 148.49 -4.94097 -2.39081 0
M  V30 1467 H 148.751 -3.29541 -2.94712 0
M  V30 1468 N 147.81 0.181792 -1.56548 0
M  V30 1469 C 149.058 0.89832 -1.81038 0
M  V30 1470 C 149.379 1.83232 -0.667164 0
M  V30 1471 O 148.649 1.93372 0.313673 0
M  V30 1472 H 147.229 0.33471 -0.667816 0
M  V30 1473 H 149.891 0.184116 -1.94028 0
M  V30 1474 H 148.987 1.4815 -2.74696 0
M  V30 1475 N 149.288 1.51039 0.449983 0
M  V30 1476 C 150.251 1.70863 1.5277 0
M  V30 1477 C 151.251 0.578846 1.5002 0
M  V30 1478 O 152.441 0.846213 1.52266 0
M  V30 1479 C 149.573 1.75341 2.9235 0
M  V30 1480 H 150.766 2.67034 1.36502 0
M  V30 1481 H 148.319 1.40838 0.677812 0
M  V30 1482 H 149.054 0.809383 3.14037 0
M  V30 1483 H 148.839 2.57436 2.95752 0
M  V30 1484 H 150.329 1.92559 3.70555 0
M  V30 1485 N 150.766 -0.704594 1.40972 0
M  V30 1486 C 152.177 -1.28418 1.3552 0
M  V30 1487 C 152.528 -1.96171 0.0339434 0
M  V30 1488 O 151.653 -1.98231 -0.867944 0
M  V30 1489 C 152.248 -2.33528 2.45459 0
M  V30 1490 C 150.807 -2.87085 2.43433 0
M  V30 1491 C 149.954 -1.61007 2.2577 0
M  V30 1492 H 152.905 -0.499963 1.50619 0
M  V30 1493 H 152.926 -3.14619 2.13998 0
M  V30 1494 H 152.438 -1.84187 3.41609 0
M  V30 1495 H 150.539 -3.40626 1.51013 0
M  V30 1496 H 150.652 -3.3813 3.39419 0
M  V30 1497 H 149.016 -1.86482 1.73483 0
M  V30 1498 H 149.799 -1.13675 3.23933 0
M  V30 1499 N 152.244 -1.26651 -0.937939 0
M  V30 1500 C 153.492 -1.12165 -1.68118 0
M  V30 1501 C 153.813 0.334983 -1.92101 0
M  V30 1502 O 153.083 1.23583 -1.52 0
M  V30 1503 H 151.663 -0.412093 -0.623048 0
M  V30 1504 H 154.325 -1.59027 -1.12678 0
M  V30 1505 H 153.421 -1.64289 -2.6536 0
M  V30 1506 N 153.722 1.14298 -1.08507 0
M  V30 1507 C 154.95 1.89219 -0.836876 0
M  V30 1508 C 155.365 1.78638 0.611054 0
M  V30 1509 O 154.722 1.14643 1.41998 0
M  V30 1510 C 154.773 3.39158 -1.25116 0
M  V30 1511 O 154.494 3.49449 -2.64229 0
M  V30 1512 C 155.995 4.31073 -1.03398 0
M  V30 1513 H 153.215 0.599328 -0.301739 0
M  V30 1514 H 155.759 1.44746 -1.44461 0
M  V30 1515 H 153.914 3.81251 -0.687514 0
M  V30 1516 H 154.328 4.42589 -2.81452 0
M  V30 1517 H 155.802 5.34646 -1.37323 0
M  V30 1518 H 156.279 4.3919 0.0289259 0
M  V30 1519 H 156.885 3.94738 -1.58311 0
M  V30 1520 N 155.201 0.870884 1.31352 0
M  V30 1521 C 156.164 0.332243 2.26779 0
M  V30 1522 C 157.164 -0.517302 1.52252 0
M  V30 1523 O 158.354 -0.326477 1.71113 0
M  V30 1524 C 155.486 -0.528066 3.36785 0
M  V30 1525 H 156.679 1.17469 2.75937 0
M  V30 1526 H 154.232 0.64655 1.423 0
M  V30 1527 H 154.967 -1.39167 2.92922 0
M  V30 1528 H 154.752 0.0802582 3.92018 0
M  V30 1529 H 156.242 -0.897179 4.07849 0
M  V30 1530 N 156.679 -1.44442 0.630414 0
M  V30 1531 C 157.642 -2.29107 -0.0652523 0
M  V30 1532 C 158.642 -1.41002 -0.772995 0
M  V30 1533 O 159.832 -1.62881 -0.617692 0
M  V30 1534 C 156.964 -3.22564 -1.10296 0
M  V30 1535 H 158.157 -2.92103 0.679401 0
M  V30 1536 H 155.71 -1.51343 0.390517 0
M  V30 1537 H 156.445 -2.64416 -1.87762 0
M  V30 1538 H 156.23 -3.87491 -0.59941 0
M  V30 1539 H 157.72 -3.86167 -1.5895 0
M  V30 1540 N 158.157 -0.370918 -1.53173 0
M  V30 1541 C 159.089 0.507823 -2.23503 0
M  V30 1542 C 160.102 1.04182 -1.251 0
M  V30 1543 O 161.291 0.947286 -1.5129 0
M  V30 1544 C 158.391 1.71447 -2.92334 0
M  V30 1545 C 157.564 1.31105 -4.17289 0
M  V30 1546 C 156.623 2.38035 -4.69282 0
M  V30 1547 O 155.649 2.00204 -5.32829 0
M  V30 1548 N 156.851 3.69697 -4.47554 0
M  V30 1549 H 159.616 -0.0946382 -2.99551 0
M  V30 1550 H 157.177 -0.196358 -1.60705 0
M  V30 1551 H 159.169 2.42469 -3.24023 0
M  V30 1552 H 157.739 2.22368 -2.19707 0
M  V30 1553 H 156.959 0.430462 -3.91843 0
M  V30 1554 H 158.247 1.0179 -4.98514 0
M  V30 1555 H 157.645 4.03205 -3.9679 0
M  V30 1556 H 156.202 4.36807 -4.8378 0
M  V30 1557 N 159.635 1.57281 -0.100228 0
M  V30 1558 C 160.567 2.11342 0.886972 0
M  V30 1559 C 161.58 1.05182 1.24261 0
M  V30 1560 O 162.769 1.32613 1.19483 0
M  V30 1561 C 159.869 2.5825 2.19454 0
M  V30 1562 C 159.042 3.88302 2.01346 0
M  V30 1563 C 158.101 4.21004 3.15661 0
M  V30 1564 O 157.127 4.9014 2.89398 0
M  V30 1565 N 158.329 3.76818 4.41575 0
M  V30 1566 H 161.094 2.96668 0.425216 0
M  V30 1567 H 158.655 1.61678 0.0847334 0
M  V30 1568 H 160.647 2.7717 2.94888 0
M  V30 1569 H 159.217 1.77907 2.57037 0
M  V30 1570 H 158.437 3.7848 1.10212 0
M  V30 1571 H 159.725 4.73375 1.8653 0
M  V30 1572 H 159.123 3.2102 4.65792 0
M  V30 1573 H 157.68 4.00882 5.13942 0
M  V30 1574 N 161.113 -0.173488 1.56642 0
M  V30 1575 C 162.529 -0.525174 1.50712 0
M  V30 1576 C 162.729 -1.8476 0.804107 0
M  V30 1577 O 161.785 -2.49869 0.363574 0
M  V30 1578 C 163.098 -0.559937 2.95441 0
M  V30 1579 C 164.646 -0.647288 3.06234 0
M  V30 1580 C 165.121 -0.712963 4.52417 0
M  V30 1581 N 166.612 -0.775911 4.56655 0
M  V30 1582 C 167.347 -0.847264 5.67106 0
M  V30 1583 N 166.843 -0.879585 6.87194 0
M  V30 1584 N 168.636 -0.886117 5.55071 0
M  V30 1585 H 160.787 0.693681 2.00753 0
M  V30 1586 H 163.05 0.249841 0.914485 0
M  V30 1587 H 162.756 0.343049 3.50023 0
M  V30 1588 H 162.63 -1.40718 3.49969 0
M  V30 1589 H 165.017 -1.5407 2.51687 0
M  V30 1590 H 165.098 0.226586 2.54794 0
M  V30 1591 H 164.742 0.176183 5.07594 0
M  V30 1592 H 164.672 -1.60295 5.0161 0
M  V30 1593 H 167.163 -0.759304 3.70193 0
M  V30 1594 H 167.476 -0.935144 7.67121 0
M  V30 1595 H 165.821 -0.847898 6.89808 0
M  V30 1596 H 169.012 -0.857853 4.60172 0
M  V30 1597 H 169.185 -0.938263 6.41171 0
M  V30 1598 N 162.591 -1.51276 -0.441967 0
M  V30 1599 C 163.839 -1.63392 -1.18943 0
M  V30 1600 C 164.16 -0.350159 -1.9183 0
M  V30 1601 O 163.43 0.633784 -1.85364 0
M  V30 1602 H 162.01 -0.602164 -0.442049 0
M  V30 1603 H 164.672 -1.88186 -0.507165 0
M  V30 1604 H 163.768 -2.45934 -1.92154 0
M  V30 1605 N 164.069 0.697108 -1.41344 0
M  V30 1606 C 164.979 1.84088 -1.45427 0
M  V30 1607 C 165.995 1.70545 -0.34501 0
M  V30 1608 O 167.171 1.92488 -0.592492 0
M  V30 1609 C 164.236 3.20056 -1.33286 0
M  V30 1610 C 163.297 3.45718 -2.54514 0
M  V30 1611 C 162.53 4.75199 -2.42944 0
M  V30 1612 O 162.753 5.51579 -1.45318 0
M  V30 1613 O 161.687 5.0161 -3.32672 0
M  V30 1614 H 165.513 1.836 -2.41919 0
M  V30 1615 H 163.098 0.849966 -1.22866 0
M  V30 1616 H 164.98 4.01236 -1.28794 0
M  V30 1617 H 163.655 3.2123 -0.39909 0
M  V30 1618 H 162.562 2.64474 -2.64583 0
M  V30 1619 H 163.895 3.49356 -3.46715 0
M  V30 1620 N 165.547 1.27147 0.931209 0
M  V30 1621 C 166.477 1.12081 2.04842 0
M  V30 1622 C 167.458 0.0232364 1.70084 0
M  V30 1623 O 168.643 0.197085 1.93197 0
M  V30 1624 C 165.773 0.76354 3.38803 0
M  V30 1625 C 164.727 1.81396 3.87659 0
M  V30 1626 C 164.053 1.31075 5.18385 0
M  V30 1627 C 165.353 3.21739 4.11438 0
M  V30 1628 H 167.047 2.05537 2.17703 0
M  V30 1629 H 164.593 0.989603 1.04608 0
M  V30 1630 H 166.546 0.644982 4.16435 0
M  V30 1631 H 165.27 -0.206727 3.25945 0
M  V30 1632 H 163.929 1.92136 3.12217 0
M  V30 1633 H 163.577 0.330037 5.01916 0
M  V30 1634 H 163.277 2.013 5.52044 0
M  V30 1635 H 164.801 1.20506 5.98591 0
M  V30 1636 H 166.215 3.14019 4.79651 0
M  V30 1637 H 164.612 3.89644 4.56397 0
M  V30 1638 H 165.682 3.67054 3.16859 0
M  V30 1639 N 167.025 -1.13721 1.09112 0
M  V30 1640 C 167.955 -2.21148 0.749385 0
M  V30 1641 C 168.936 -1.6792 -0.271475 0
M  V30 1642 O 170.121 -1.93693 -0.140251 0
M  V30 1643 C 167.251 -3.46905 0.165659 0
M  V30 1644 C 166.205 -4.13203 1.11567 0
M  V30 1645 C 165.531 -5.33248 0.393809 0
M  V30 1646 C 166.831 -4.60912 2.45678 0
M  V30 1647 H 168.525 -2.4999 1.64758 0
M  V30 1648 H 166.071 -1.20156 0.793626 0
M  V30 1649 H 168.024 -4.21313 -0.085466 0
M  V30 1650 H 166.748 -3.17449 -0.767714 0
M  V30 1651 H 165.407 -3.40758 1.35202 0
M  V30 1652 H 165.055 -5.00054 -0.543599 0
M  V30 1653 H 164.755 -5.78552 1.02721 0
M  V30 1654 H 166.279 -6.10413 0.150908 0
M  V30 1655 H 167.693 -5.26759 2.26269 0
M  V30 1656 H 166.09 -5.16944 3.04776 0
M  V30 1657 H 167.16 -3.75603 3.06677 0
M  V30 1658 N 168.503 -0.877838 -1.30888 0
M  V30 1659 C 169.453 -0.310872 -2.25871 0
M  V30 1660 C 170.437 0.556596 -1.50966 0
M  V30 1661 O 171.629 0.402187 -1.7237 0
M  V30 1662 C 168.758 0.479821 -3.3993 0
M  V30 1663 C 167.844 -0.401333 -4.22197 0
M  V30 1664 N 168.235 -1.49848 -4.83093 0
M  V30 1665 C 166.533 -0.195167 -4.45573 0
M  V30 1666 C 167.234 -2.0425 -5.44662 0
M  V30 1667 N 166.21 -1.33843 -5.26865 0
M  V30 1668 H 170.012 -1.1493 -2.70496 0
M  V30 1669 H 167.526 -0.726458 -1.45246 0
M  V30 1670 H 169.523 0.902582 -4.07012 0
M  V30 1671 H 168.183 1.31577 -2.96846 0
M  V30 1672 H 169.194 -1.88137 -4.82519 0
M  V30 1673 H 165.871 0.604192 -4.13105 0
M  V30 1674 H 167.261 -2.96345 -6.03017 0
M  V30 1675 N 169.982 1.44106 -0.638065 0
M  V30 1676 C 170.932 2.27843 0.0847285 0
M  V30 1677 C 171.916 1.39055 0.809471 0
M  V30 1678 O 173.108 1.62808 0.694435 0
M  V30 1679 C 170.237 3.26497 1.06089 0
M  V30 1680 C 169.323 4.22772 0.33541 0
M  V30 1681 N 169.714 5.01737 -0.639787 0
M  V30 1682 C 168.012 4.42227 0.578921 0
M  V30 1683 C 168.713 5.71792 -1.06904 0
M  V30 1684 N 167.689 5.42079 -0.406395 0
M  V30 1685 H 171.491 2.86305 -0.663814 0
M  V30 1686 H 169.005 1.55627 -0.464122 0
M  V30 1687 H 171.002 3.8525 1.59337 0
M  V30 1688 H 169.662 2.69595 1.80966 0
M  V30 1689 H 170.673 5.07799 -1.01789 0
M  V30 1690 H 167.35 3.96415 1.31003 0
M  V30 1691 H 168.74 6.45205 -1.8751 0
M  V30 1692 N 171.46 0.379036 1.52974 0
M  V30 1693 C 172.688 -0.20679 2.05864 0
M  V30 1694 C 173.103 -1.41356 1.25155 0
M  V30 1695 O 172.46 -1.8009 0.295588 0
M  V30 1696 C 172.511 -0.587045 3.56702 0
M  V30 1697 O 172.232 0.571776 4.34353 0
M  V30 1698 C 173.733 -1.22983 4.25899 0
M  V30 1699 H 170.953 -0.0336123 0.670158 0
M  V30 1700 H 173.497 0.541298 1.97206 0
M  V30 1701 H 171.652 -1.28504 3.65466 0
M  V30 1702 H 172.066 0.261544 5.23847 0
M  V30 1703 H 173.54 -1.44635 5.32715 0
M  V30 1704 H 174.017 -2.19416 3.80465 0
M  V30 1705 H 174.623 -0.572892 4.21424 0
M  V30 1706 N 172.938 -1.57226 0.108567 0
M  V30 1707 C 173.868 -2.17778 -0.84232 0
M  V30 1708 C 174.849 -1.11487 -1.2847 0
M  V30 1709 O 176.034 -1.39681 -1.34918 0
M  V30 1710 C 173.164 -2.76888 -2.09644 0
M  V30 1711 C 172.118 -3.88669 -1.79221 0
M  V30 1712 C 171.444 -4.34541 -3.11574 0
M  V30 1713 C 172.744 -5.11251 -1.06864 0
M  V30 1714 H 174.438 -2.97489 -0.337774 0
M  V30 1715 H 171.984 -1.43097 -0.161025 0
M  V30 1716 H 173.937 -3.17904 -2.76614 0
M  V30 1717 H 172.661 -1.94451 -2.62405 0
M  V30 1718 H 171.32 -3.48213 -1.14644 0
M  V30 1719 H 170.968 -3.48977 -3.62249 0
M  V30 1720 H 170.668 -5.09914 -2.91996 0
M  V30 1721 H 172.192 -4.782 -3.7968 0
M  V30 1722 H 173.606 -5.49352 -1.63968 0
M  V30 1723 H 172.003 -5.9214 -0.974178 0
M  V30 1724 H 173.073 -4.8487 -0.0536168 0
M  V30 1725 N 174.416 0.165178 -1.56732 0
M  V30 1726 C 175.664 0.879068 -1.8198 0
M  V30 1727 C 175.985 1.82514 -0.686561 0
M  V30 1728 O 175.255 1.93694 0.293146 0
M  V30 1729 H 173.835 0.327608 -0.671329 0
M  V30 1730 H 176.497 0.163526 -1.94213 0
M  V30 1731 H 175.593 1.45228 -2.76252 0
M  V30 1732 N 175.894 1.51508 0.433938 0
M  V30 1733 C 177.171 1.54888 1.19453 0
M  V30 1734 C 177.551 0.315154 2.08734 0
M  V30 1735 O 176.899 -0.699558 2.17528 0
M  V30 1736 C 177.109 2.86467 1.99342 0
M  V30 1737 C 178.457 3.38545 2.56267 0
M  V30 1738 O 179.481 2.88041 2.0955 0
M  V30 1739 O 178.34 4.26675 3.41483 0
M  V30 1740 H 175.434 0.622863 0.544032 0
M  V30 1741 H 177.98 1.63823 0.442732 0
M  V30 1742 H 176.752 3.67718 1.33788 0
M  V30 1743 H 176.375 2.8071 2.8158 0
M  V30 1744 N 177.372 -0.689602 1.41712 0
M  V30 1745 C 178.62 -1.4468 1.4111 0
M  V30 1746 C 178.941 -1.94986 0.0232196 0
M  V30 1747 O 178.211 -1.72097 -0.935913 0
M  V30 1748 H 176.791 -0.536847 0.519427 0
M  V30 1749 H 179.453 -0.815825 1.77004 0
M  V30 1750 H 178.549 -2.30706 2.10193 0
M  V30 1751 N 178.85 -1.27639 -0.924453 0
M  V30 1752 C 179.76 -1.12466 -2.05885 0
M  V30 1753 C 180.776 -0.053869 -1.73917 0
M  V30 1754 O 181.952 -0.261012 -1.99702 0
M  V30 1755 C 179.017 -0.776768 -3.37886 0
M  V30 1756 C 178.078 -1.92878 -3.83532 0
M  V30 1757 C 177.311 -1.59739 -5.09234 0
M  V30 1758 O 177.534 -0.506782 -5.68144 0
M  V30 1759 O 176.468 -2.43761 -5.50331 0
M  V30 1760 H 180.294 -2.07671 -2.21599 0
M  V30 1761 H 177.879 -1.06857 -1.04413 0
M  V30 1762 H 179.761 -0.596229 -4.17161 0
M  V30 1763 H 178.436 0.145732 -3.23372 0
M  V30 1764 H 177.343 -2.1644 -3.0513 0
M  V30 1765 H 178.676 -2.8316 -4.02593 0
M  V30 1766 N 180.328 1.1314 -1.09713 0
M  V30 1767 C 181.575 1.84484 -0.834987 0
M  V30 1768 C 181.903 1.83689 0.639418 0
M  V30 1769 O 181.158 1.2724 1.4869 0
M  V30 1770 C 181.457 3.32167 -1.3191 0
M  V30 1771 C 181.123 3.53139 -2.80363 0
M  V30 1772 C 179.785 3.58571 -3.20905 0
M  V30 1773 C 182.137 3.60866 -3.76065 0
M  V30 1774 C 179.465 3.69267 -4.55916 0
M  V30 1775 C 181.817 3.73089 -5.10869 0
M  V30 1776 C 180.481 3.76775 -5.50996 0
M  V30 1777 H 179.751 0.675073 -0.305544 0
M  V30 1778 H 182.398 1.33554 -1.37243 0
M  V30 1779 H 180.703 3.85469 -0.701517 0
M  V30 1780 H 182.4 3.85821 -1.09284 0
M  V30 1781 H 178.99 3.49569 -2.47991 0
M  V30 1782 H 183.174 3.55946 -3.45855 0
M  V30 1783 H 178.43 3.70388 -4.86438 0
M  V30 1784 H 182.604 3.78011 -5.84877 0
M  V30 1785 H 180.231 3.84815 -6.55608 0
M  V30 1786 N 181.806 0.884767 1.30421 0
M  V30 1787 C 183.222 0.57874 1.48737 0
M  V30 1788 C 183.422 -0.883567 1.81095 0
M  V30 1789 O 182.478 -1.6648 1.89844 0
M  V30 1790 C 183.791 1.49171 2.61091 0
M  V30 1791 C 185.339 1.49532 2.74971 0
M  V30 1792 C 185.814 2.39421 3.90438 0
M  V30 1793 N 187.305 2.37383 3.97748 0
M  V30 1794 C 188.04 3.03647 4.86401 0
M  V30 1795 N 187.536 3.79136 5.79852 0
M  V30 1796 N 189.329 2.9288 4.79768 0
M  V30 1797 H 181.48 1.83075 1.0769 0
M  V30 1798 H 183.743 0.783637 0.533495 0
M  V30 1799 H 183.449 2.53291 2.44001 0
M  V30 1800 H 183.323 1.20113 3.57565 0
M  V30 1801 H 185.71 0.46163 2.91467 0
M  V30 1802 H 185.791 1.8262 1.79119 0
M  V30 1803 H 185.435 3.42874 3.74699 0
M  V30 1804 H 185.365 2.03649 4.85628 0
M  V30 1805 H 187.856 1.82525 3.30897 0
M  V30 1806 H 188.169 4.26789 6.4426 0
M  V30 1807 H 186.514 3.83243 5.79784 0
M  V30 1808 H 189.705 2.33433 4.05742 0
M  V30 1809 H 189.878 3.448 5.4865 0
M  V30 1810 N 183.284 -1.43765 0.645699 0
M  V30 1811 C 184.234 -2.27884 -0.0726442 0
M  V30 1812 C 185.218 -1.39483 -0.802086 0
M  V30 1813 O 186.41 -1.63174 -0.685791 0
M  V30 1814 C 183.539 -3.27055 -1.04356 0
M  V30 1815 C 182.625 -4.22944 -0.312985 0
M  V30 1816 N 183.016 -5.01391 0.666386 0
M  V30 1817 C 181.314 -4.42528 -0.55546 0
M  V30 1818 C 182.015 -5.71217 1.09935 0
M  V30 1819 N 180.991 -5.41856 0.435137 0
M  V30 1820 H 184.793 -2.85949 0.678988 0
M  V30 1821 H 182.307 -1.55378 0.472368 0
M  V30 1822 H 184.304 -3.86089 -1.57292 0
M  V30 1823 H 182.964 -2.70551 -1.79534 0
M  V30 1824 H 183.975 -5.07252 1.04481 0
M  V30 1825 H 180.652 -3.97104 -1.28899 0
M  V30 1826 H 182.042 -6.44202 1.90929 0
M  V30 1827 N 184.763 -0.387143 -1.52771 0
M  V30 1828 C 186.01 0.195735 -2.01552 0
M  V30 1829 C 186.338 1.46995 -1.27369 0
M  V30 1830 O 185.593 1.92325 -0.361879 0
M  V30 1831 C 185.892 0.512209 -3.53711 0
M  V30 1832 C 185.558 -0.670202 -4.45891 0
M  V30 1833 C 184.22 -0.994586 -4.70809 0
M  V30 1834 C 186.572 -1.46134 -5.00294 0
M  V30 1835 C 183.9 -2.11169 -5.4738 0
M  V30 1836 C 186.252 -2.56903 -5.78086 0
M  V30 1837 C 184.916 -2.89852 -6.01284 0
M  V30 1838 H 184.186 0.0716246 -0.73753 0
M  V30 1839 H 186.833 -0.524046 -1.8419 0
M  V30 1840 H 185.138 1.31329 -3.69134 0
M  V30 1841 H 186.835 0.975804 -3.88946 0
M  V30 1842 H 183.425 -0.407366 -4.2666 0
M  V30 1843 H 187.609 -1.22397 -4.80971 0
M  V30 1844 H 182.865 -2.3707 -5.63567 0
M  V30 1845 H 187.039 -3.18608 -6.19243 0
M  V30 1846 H 184.666 -3.76533 -6.60399 0
M  V30 1847 N 186.241 1.57166 -0.116904 0
M  V30 1848 C 187.471 1.99184 0.548586 0
M  V30 1849 C 187.879 0.995436 1.60897 0
M  V30 1850 O 187.222 -0.0201293 1.83689 0
M  V30 1851 C 187.284 3.37611 1.23526 0
M  V30 1852 C 186.948 4.55857 0.323077 0
M  V30 1853 C 187.945 5.18056 -0.437476 0
M  V30 1854 C 185.63 5.01751 0.234761 0
M  V30 1855 C 187.624 6.24536 -1.2741 0
M  V30 1856 C 185.311 6.08093 -0.605496 0
M  V30 1857 C 186.309 6.69352 -1.35856 0
M  V30 1858 O 185.997 7.7364 -2.18487 0
M  V30 1859 H 185.729 0.659148 0.149999 0
M  V30 1860 H 188.283 2.0443 -0.199428 0
M  V30 1861 H 186.513 3.29113 2.0303 0
M  V30 1862 H 188.202 3.63932 1.79745 0
M  V30 1863 H 188.968 4.83516 -0.379105 0
M  V30 1864 H 184.847 4.53817 0.810601 0
M  V30 1865 H 188.391 6.72281 -1.86237 0
M  V30 1866 H 184.288 6.42063 -0.665268 0
M  V30 1867 H 185.056 7.90727 -2.11406 0
M  V30 1868 N 187.719 -0.156864 1.56817 0
M  V30 1869 C 188.669 -1.19891 1.93934 0
M  V30 1870 C 189.653 -1.39061 0.809372 0
M  V30 1871 O 190.845 -1.40789 1.07273 0
M  V30 1872 C 187.974 -2.53493 2.31508 0
M  V30 1873 C 187.06 -2.37957 3.51052 0
M  V30 1874 N 187.451 -1.92158 4.67877 0
M  V30 1875 C 185.749 -2.68739 3.55943 0
M  V30 1876 C 186.45 -1.8943 5.49992 0
M  V30 1877 N 185.426 -2.32375 4.91429 0
M  V30 1878 H 189.228 -0.836746 2.81737 0
M  V30 1879 H 186.742 -0.365012 1.58245 0
M  V30 1880 H 188.739 -3.28811 2.56299 0
M  V30 1881 H 187.399 -2.905 1.45051 0
M  V30 1882 H 188.41 -1.62274 4.91821 0
M  V30 1883 H 185.087 -3.09687 2.80001 0
M  V30 1884 H 186.477 -1.55596 6.53636 0
M  V30 1885 N 189.197 -1.51736 -0.425897 0
M  V30 1886 C 190.13 -1.68574 -1.53812 0
M  V30 1887 C 191.108 -0.53328 -1.53606 0
M  V30 1888 O 192.292 -0.758555 -1.72564 0
M  V30 1889 C 189.419 -1.70977 -2.92377 0
M  V30 1890 C 188.465 -2.92324 -3.10563 0
M  V30 1891 S 189.298 -4.52952 -2.85648 0
M  V30 1892 C 190.454 -4.58117 -4.26474 0
M  V30 1893 H 190.687 -2.62647 -1.39298 0
M  V30 1894 H 188.22 -1.41564 -0.616361 0
M  V30 1895 H 190.178 -1.73047 -3.72243 0
M  V30 1896 H 188.839 -0.78061 -3.04245 0
M  V30 1897 H 188.032 -2.90439 -4.11899 0
M  V30 1898 H 187.634 -2.88055 -2.38538 0
M  V30 1899 H 189.926 -4.34462 -5.19855 0
M  V30 1900 H 190.869 -5.59983 -4.33388 0
M  V30 1901 H 191.277 -3.8732 -4.10662 0
M  V30 1902 N 190.675 0.682077 -1.42076 0
M  V30 1903 C 191.9 1.47558 -1.45744 0
M  V30 1904 C 192.325 1.87977 -0.0680981 0
M  V30 1905 O 191.683 1.55522 0.9318 0
M  V30 1906 C 191.731 2.70575 -2.38373 0
M  V30 1907 O 190.835 3.68573 -1.85007 0
M  V30 1908 H 190.176 0.443585 -0.494093 0
M  V30 1909 H 192.706 0.837238 -1.86686 0
M  V30 1910 H 192.716 3.18729 -2.54707 0
M  V30 1911 H 191.391 2.40495 -3.39315 0
M  V30 1912 H 189.968 3.2757 -1.78192 0
M  V30 1913 N 192.153 1.28127 0.917671 0
M  V30 1914 C 193.063 1.13556 2.05286 0
M  V30 1915 C 194.079 0.0630914 1.73886 0
M  V30 1916 O 195.255 0.271598 1.9956 0
M  V30 1917 C 192.32 0.794676 3.3747 0
M  V30 1918 C 191.381 1.94909 3.82504 0
M  V30 1919 C 190.614 1.62437 5.0838 0
M  V30 1920 O 190.837 0.536905 5.67867 0
M  V30 1921 O 189.771 2.46677 5.4903 0
M  V30 1922 H 193.597 2.08844 2.20495 0
M  V30 1923 H 191.182 1.07409 1.03845 0
M  V30 1924 H 193.064 0.618344 4.16839 0
M  V30 1925 H 191.739 -0.128581 3.23445 0
M  V30 1926 H 190.646 2.18055 3.03978 0
M  V30 1927 H 191.979 2.85291 4.01086 0
M  V30 1928 N 193.631 -1.12557 1.10312 0
M  V30 1929 C 195.042 -1.65574 0.862678 0
M  V30 1930 C 195.393 -1.86566 -0.607256 0
M  V30 1931 O 194.518 -1.59121 -1.46662 0
M  V30 1932 C 195.113 -3.00776 1.55947 0
M  V30 1933 C 193.672 -3.50748 1.36576 0
M  V30 1934 C 192.819 -2.25797 1.60968 0
M  V30 1935 H 195.77 -0.963552 1.26101 0
M  V30 1936 H 195.791 -3.67185 0.997753 0
M  V30 1937 H 195.303 -2.85465 2.62928 0
M  V30 1938 H 193.404 -3.71245 0.317531 0
M  V30 1939 H 193.517 -4.30289 2.10686 0
M  V30 1940 H 191.881 -2.32841 1.03234 0
M  V30 1941 H 192.664 -2.13043 2.69198 0
M  V30 1942 N 195.109 -0.891671 -1.2995 0
M  V30 1943 C 196.358 -0.509521 -1.95158 0
M  V30 1944 C 196.671 0.947388 -1.71125 0
M  V30 1945 O 197.877 1.43669 -2.30372 0
M  V30 1946 C 196.333 -0.860315 -3.49466 0
M  V30 1947 C 195.941 -2.33545 -3.8231 0
M  V30 1948 C 197.685 -0.547687 -4.20952 0
M  V30 1949 C 195.592 -2.62752 -5.29826 0
M  V30 1950 H 194.522 -0.18682 -0.730489 0
M  V30 1951 H 197.173 -1.08756 -1.47798 0
M  V30 1952 H 195.555 -0.211285 -3.95436 0
M  V30 1953 H 196.729 -3.02936 -3.47227 0
M  V30 1954 H 195.044 -2.61629 -3.23944 0
M  V30 1955 H 197.641 -0.742854 -5.29515 0
M  V30 1956 H 197.984 0.51332 -4.13123 0
M  V30 1957 H 198.517 -1.1542 -3.80688 0
M  V30 1958 H 195.256 -3.6762 -5.42712 0
M  V30 1959 H 194.776 -1.97977 -5.66185 0
M  V30 1960 H 196.455 -2.48601 -5.97333 0
M  V30 1961 N 196.587 1.43421 -0.653314 0
M  V30 1962 C 197.815 2.06163 -0.174491 0
M  V30 1963 C 198.23 1.48969 1.1599 0
M  V30 1964 O 197.587 0.621042 1.71608 0
M  V30 1965 C 197.638 3.61417 -0.0774865 0
M  V30 1966 O 197.359 4.16485 -1.35912 0
M  V30 1967 C 198.86 4.41235 0.427402 0
M  V30 1968 H 196.08 0.664946 -0.0899353 0
M  V30 1969 H 198.624 1.83924 -0.893988 0
M  V30 1970 H 196.779 3.82841 0.59257 0
M  V30 1971 H 197.193 5.10153 -1.21839 0
M  V30 1972 H 198.667 5.5021 0.44423 0
M  V30 1973 H 199.144 4.14268 1.45873 0
M  V30 1974 H 199.75 4.2478 -0.210167 0
M  V30 1975 N 198.065 0.39524 1.52563 0
M  V30 1976 C 199.311 -0.185318 2.01952 0
M  V30 1977 C 199.644 -1.45964 1.28095 0
M  V30 1978 O 198.919 -1.90689 0.38315 0
M  V30 1979 C 199.202 -0.447193 3.57312 0
M  V30 1980 C 199.055 0.842828 4.41833 0
M  V30 1981 C 200.374 -1.23529 4.22408 0
M  V30 1982 H 197.493 -0.0658788 0.73405 0
M  V30 1983 H 200.135 0.525975 1.82575 0
M  V30 1984 H 198.285 -1.05312 3.73954 0
M  V30 1985 H 199.957 1.4795 4.36931 0
M  V30 1986 H 198.2 1.45686 4.08605 0
M  V30 1987 H 198.871 0.614165 5.48573 0
M  V30 1988 H 201.347 -0.722445 4.0978 0
M  V30 1989 H 200.223 -1.38727 5.3108 0
M  V30 1990 H 200.484 -2.25213 3.80436 0
M  V30 1991 N 199.544 -1.57102 0.125237 0
M  V30 1992 C 200.507 -2.14471 -0.80838 0
M  V30 1993 C 201.507 -1.0811 -1.19033 0
M  V30 1994 O 202.697 -1.33856 -1.11482 0
M  V30 1995 C 199.829 -2.69005 -2.09402 0
M  V30 1996 H 201.022 -2.98297 -0.309696 0
M  V30 1997 H 198.575 -1.55807 -0.124051 0
M  V30 1998 H 199.31 -1.88785 -2.63687 0
M  V30 1999 H 199.095 -3.46799 -1.82957 0
M  V30 2000 H 200.585 -3.13278 -2.76128 0
M  V30 2001 N 201.022 0.148545 -1.56898 0
M  V30 2002 C 201.954 1.20852 -1.9475 0
M  V30 2003 C 202.967 1.39265 -0.843152 0
M  V30 2004 O 204.156 1.38864 -1.12156 0
M  V30 2005 C 201.256 2.57362 -2.20495 0
M  V30 2006 C 200.429 2.59947 -3.51776 0
M  V30 2007 C 199.488 3.77984 -3.6608 0
M  V30 2008 O 198.514 3.62929 -4.38487 0
M  V30 2009 N 199.716 4.95375 -3.02629 0
M  V30 2010 H 202.481 0.886804 -2.86279 0
M  V30 2011 H 200.042 0.338121 -1.5833 0
M  V30 2012 H 202.034 3.34833 -2.27307 0
M  V30 2013 H 200.604 2.81832 -1.35238 0
M  V30 2014 H 199.824 1.68403 -3.56419 0
M  V30 2015 H 201.112 2.58704 -4.38121 0
M  V30 2016 H 200.51 5.10509 -2.43715 0
M  V30 2017 H 199.067 5.70627 -3.15004 0
M  V30 2018 N 202.5 1.5196 0.417844 0
M  V30 2019 C 203.463 1.74065 1.49111 0
M  V30 2020 C 204.463 0.610537 1.48758 0
M  V30 2021 O 205.653 0.87832 1.50437 0
M  V30 2022 C 202.785 1.81502 2.88565 0
M  V30 2023 H 203.978 2.69869 1.30807 0
M  V30 2024 H 201.531 1.42244 0.647785 0
M  V30 2025 H 202.266 0.875813 3.1225 0
M  V30 2026 H 202.051 2.63651 2.90225 0
M  V30 2027 H 203.541 2.00376 3.66387 0
M  V30 2028 N 203.978 -0.674533 1.42435 0
M  V30 2029 C 205.224 -1.43671 1.43131 0
M  V30 2030 C 205.557 -1.94142 0.0476021 0
M  V30 2031 O 204.832 -1.70924 -0.928188 0
M  V30 2032 C 205.115 -2.63355 2.45594 0
M  V30 2033 C 204.968 -2.18514 3.93156 0
M  V30 2034 C 206.287 -3.65571 2.45043 0
M  V30 2035 H 203.406 -0.521077 0.521198 0
M  V30 2036 H 206.048 -0.766551 1.7385 0
M  V30 2037 H 204.198 -3.2053 2.19528 0
M  V30 2038 H 205.87 -1.66504 4.30202 0
M  V30 2039 H 204.113 -1.50086 4.07009 0
M  V30 2040 H 204.784 -3.04484 4.60428 0
M  V30 2041 H 207.26 -3.18113 2.68223 0
M  V30 2042 H 206.136 -4.46893 3.18713 0
M  V30 2043 H 206.397 -4.16716 1.47649 0
M  V30 2044 N 205.456 -1.28612 -0.910864 0
M  V30 2045 C 206.386 -1.15326 -2.03032 0
M  V30 2046 C 207.367 -0.0502924 -1.70026 0
M  V30 2047 O 208.552 -0.227797 -1.92859 0
M  V30 2048 C 205.682 -0.817343 -3.37545 0
M  V30 2049 C 204.636 -1.8754 -3.84724 0
M  V30 2050 C 203.962 -1.39305 -5.16235 0
M  V30 2051 C 205.262 -3.28244 -4.06267 0
M  V30 2052 H 206.956 -2.08975 -2.14406 0
M  V30 2053 H 204.502 -1.00612 -1.03021 0
M  V30 2054 H 206.455 -0.711151 -4.15356 0
M  V30 2055 H 205.179 0.154846 -3.26233 0
M  V30 2056 H 203.838 -1.97079 -3.09121 0
M  V30 2057 H 203.486 -0.409846 -5.01328 0
M  V30 2058 H 203.186 -2.10057 -5.48771 0
M  V30 2059 H 204.71 -1.30014 -5.96598 0
M  V30 2060 H 206.124 -3.21611 -4.74594 0
M  V30 2061 H 204.521 -3.96855 -4.5014 0
M  V30 2062 H 205.591 -3.72048 -3.10979 0
M  V30 2063 N 206.934 1.1197 -1.10907 0
M  V30 2064 C 208.162 1.87402 -0.876824 0
M  V30 2065 C 208.577 1.79894 0.573025 0
M  V30 2066 O 207.934 1.17629 1.39534 0
M  V30 2067 C 207.985 3.36428 -1.32282 0
M  V30 2068 O 207.706 3.43765 -2.71582 0
M  V30 2069 C 209.207 4.28783 -1.12518 0
M  V30 2070 H 206.427 0.592793 -0.314384 0
M  V30 2071 H 208.971 1.41649 -1.47499 0
M  V30 2072 H 207.126 3.79706 -0.768229 0
M  V30 2073 H 207.54 4.3652 -2.90776 0
M  V30 2074 H 209.014 5.31613 -1.48633 0
M  V30 2075 H 209.491 4.39153 -0.0642394 0
M  V30 2076 H 210.097 3.91291 -1.66648 0
M  V30 2077 N 208.412 0.89855 1.29475 0
M  V30 2078 C 209.322 0.379974 2.31502 0
M  V30 2079 C 210.338 -0.524695 1.659 0
M  V30 2080 O 211.514 -0.414551 1.97087 0
M  V30 2081 C 208.579 -0.385138 3.44554 0
M  V30 2082 C 207.64 0.550914 4.2575 0
M  V30 2083 C 206.873 -0.177778 5.33404 0
M  V30 2084 O 207.096 -1.40189 5.52904 0
M  V30 2085 O 206.03 0.479106 5.9999 0
M  V30 2086 H 209.856 1.22639 2.77837 0
M  V30 2087 H 207.441 0.662834 1.33891 0
M  V30 2088 H 209.323 -0.817841 4.13388 0
M  V30 2089 H 207.998 -1.20763 3.0033 0
M  V30 2090 H 206.905 1.03271 3.59564 0
M  V30 2091 H 208.238 1.33979 4.73614 0
M  V30 2092 N 209.89 -1.43072 0.660911 0
M  V30 2093 C 210.822 -2.29108 -0.0647641 0
M  V30 2094 C 211.835 -1.42928 -0.779448 0
M  V30 2095 O 213.024 -1.66788 -0.635921 0
M  V30 2096 C 210.124 -3.20032 -1.11503 0
M  V30 2097 C 209.297 -4.34792 -0.476955 0
M  V30 2098 C 208.356 -5.06534 -1.42513 0
M  V30 2099 O 207.382 -5.61538 -0.930771 0
M  V30 2100 N 208.584 -5.1075 -2.75889 0
M  V30 2101 H 211.349 -2.92029 0.673731 0
M  V30 2102 H 208.91 -1.53846 0.50427 0
M  V30 2103 H 210.902 -3.64892 -1.75032 0
M  V30 2104 H 209.472 -2.58658 -1.75541 0
M  V30 2105 H 208.692 -3.92752 0.337572 0
M  V30 2106 H 209.98 -5.0879 -0.0318525 0
M  V30 2107 H 209.378 -4.67447 -3.18606 0
M  V30 2108 H 207.935 -5.59302 -3.347 0
M  V30 2109 N 211.368 -0.403325 -1.52352 0
M  V30 2110 C 212.316 0.439752 -2.28405 0
M  V30 2111 C 213.31 1.05089 -1.32863 0
M  V30 2112 O 214.516 0.989759 -1.50345 0
M  V30 2113 H 210.891 0.160587 -0.734653 0
M  V30 2114 H 212.862 -0.222983 -2.97566 0
M  V30 2115 C 211.611 1.54736 -3.11371 0
M  V30 2116 H 210.934 1.08643 -3.84755 0
M  V30 2117 H 212.374 2.1112 -3.67701 0
M  V30 2118 C 210.833 2.51141 -2.24566 0
M  V30 2119 O 211.363 3.54887 -1.88196 0
M  V30 2120 N 209.569 2.21213 -1.8845 0
M  V30 2121 H 209.116 1.36878 -2.18225 0
M  V30 2122 H 209.074 2.85963 -1.30662 0
M  V30 2123 N 212.846 1.57033 -0.133567 0
M  V30 2124 C 213.809 2.14897 0.796995 0
M  V30 2125 C 214.809 1.0874 1.18458 0
M  V30 2126 O 215.999 1.34446 1.1077 0
M  V30 2127 C 213.131 2.70112 2.07973 0
M  V30 2128 H 214.324 2.98457 0.293873 0
M  V30 2129 H 211.877 1.55871 0.115787 0
M  V30 2130 H 212.612 1.9018 2.62682 0
M  V30 2131 H 212.397 3.47764 1.81115 0
M  V30 2132 H 213.887 3.14738 2.74462 0
M  V30 2133 N 214.325 -0.140222 1.56975 0
M  V30 2134 C 215.565 -0.857823 1.85528 0
M  V30 2135 C 215.929 -1.78039 0.718768 0
M  V30 2136 O 217.13 -2.53795 0.885521 0
M  V30 2137 C 215.401 -1.60615 3.19277 0
M  V30 2138 S 216.96 -2.36824 3.69405 0
M  V30 2139 H 213.778 -0.286727 0.650622 0
M  V30 2140 H 216.38 -0.117408 1.95147 0
M  V30 2141 H 215.084 -0.919994 3.99955 0
M  V30 2142 H 214.615 -2.38735 3.12681 0
M  V30 2143 H 216.63 -3.62148 3.3921 0
M  V30 2144 N 215.803 -1.52179 -0.40978 0
M  V30 2145 C 217.033 -1.69807 -1.17682 0
M  V30 2146 C 217.441 -0.406908 -1.84773 0
M  V30 2147 O 216.784 0.626863 -1.72673 0
M  V30 2148 C 216.846 -2.77712 -2.2829 0
M  V30 2149 C 216.51 -4.19481 -1.81341 0
M  V30 2150 C 217.507 -5.03345 -1.30154 0
M  V30 2151 C 215.192 -4.65713 -1.88194 0
M  V30 2152 C 217.186 -6.31511 -0.864416 0
M  V30 2153 C 214.873 -5.93869 -1.44093 0
M  V30 2154 C 215.871 -6.76597 -0.933023 0
M  V30 2155 O 215.559 -8.02354 -0.49838 0
M  V30 2156 H 215.291 -0.572372 -0.359675 0
M  V30 2157 H 217.845 -1.99511 -0.488311 0
M  V30 2158 H 216.075 -2.43383 -3.00502 0
M  V30 2159 H 217.764 -2.83946 -2.90051 0
M  V30 2160 H 218.53 -4.68819 -1.24232 0
M  V30 2161 H 214.409 -4.01424 -2.26671 0
M  V30 2162 H 217.953 -6.96033 -0.467286 0
M  V30 2163 H 213.85 -6.27903 -1.49694 0
M  V30 2164 H 214.618 -8.16135 -0.621747 0
M  V30 2165 N 217.281 0.66697 -1.42791 0
M  V30 2166 C 218.191 1.80962 -1.49299 0
M  V30 2167 C 219.207 1.69775 -0.381108 0
M  V30 2168 O 220.383 1.91188 -0.633188 0
M  V30 2169 C 217.448 3.17156 -1.40045 0
M  V30 2170 C 216.509 3.40242 -2.6179 0
M  V30 2171 C 215.742 4.69939 -2.52969 0
M  V30 2172 O 215.965 5.48372 -1.56985 0
M  V30 2173 O 214.899 4.94441 -3.43237 0
M  V30 2174 H 218.725 1.78427 -2.45759 0
M  V30 2175 H 216.31 0.823713 -1.24641 0
M  V30 2176 H 218.192 3.98413 -1.37276 0
M  V30 2177 H 216.867 3.20312 -0.467138 0
M  V30 2178 H 215.774 2.58802 -2.70134 0
M  V30 2179 H 217.107 3.41923 -3.54047 0
M  V30 2180 N 218.759 1.29093 0.90403 0
M  V30 2181 C 220.008 1.16187 1.64874 0
M  V30 2182 C 220.321 -0.286742 1.93487 0
M  V30 2183 O 221.527 -0.537062 2.66135 0
M  V30 2184 C 219.983 2.03177 2.97064 0
M  V30 2185 C 219.591 3.52836 2.76062 0
M  V30 2186 C 221.335 1.98984 3.74974 0
M  V30 2187 C 219.242 4.31945 4.03952 0
M  V30 2188 H 218.172 0.431246 0.618501 0
M  V30 2189 H 220.823 1.53699 1.00243 0
M  V30 2190 H 219.205 1.5853 3.62883 0
M  V30 2191 H 220.379 4.05507 2.18863 0
M  V30 2192 H 218.694 3.58656 2.11553 0
M  V30 2193 H 221.291 2.55351 4.69787 0
M  V30 2194 H 221.634 0.968815 4.0487 0
M  V30 2195 H 222.167 2.41652 3.15989 0
M  V30 2196 H 218.906 5.34667 3.79225 0
M  V30 2197 H 218.426 3.84045 4.60727 0
M  V30 2198 H 220.105 4.42379 4.72133 0
M  V30 2199 N 220.237 -1.11381 1.11499 0
M  V30 2200 C 221.514 -1.7955 0.775965 0
M  V30 2201 C 221.894 -1.97859 -0.73588 0
M  V30 2202 O 221.242 -1.56376 -1.66609 0
M  V30 2203 C 221.452 -3.13196 1.53977 0
M  V30 2204 C 222.8 -3.88227 1.71944 0
M  V30 2205 O 223.824 -3.22887 1.50407 0
M  V30 2206 O 222.683 -5.05477 2.07738 0
M  V30 2207 H 219.777 -0.777728 0.28119 0
M  V30 2208 H 222.323 -1.18118 1.21845 0
M  V30 2209 H 221.095 -2.95229 2.56818 0
M  V30 2210 H 220.718 -3.82342 1.09088 0
M  V30 2211 N 221.715 -0.905404 -1.28997 0
M  V30 2212 C 223.131 -0.60233 -1.47798 0
M  V30 2213 C 223.331 0.854645 -1.82478 0
M  V30 2214 O 222.387 1.63439 -1.92468 0
M  V30 2215 C 223.7 -1.53306 -2.58685 0
M  V30 2216 C 225.248 -1.53887 -2.72558 0
M  V30 2217 C 225.723 -2.45602 -3.86579 0
M  V30 2218 N 227.214 -2.43681 -3.93921 0
M  V30 2219 C 227.949 -3.11347 -4.81509 0
M  V30 2220 N 227.445 -3.88313 -5.73746 0
M  V30 2221 N 229.238 -3.00476 -4.75048 0
M  V30 2222 H 221.389 -1.84765 -1.04764 0
M  V30 2223 H 223.652 -0.792025 -0.520961 0
M  V30 2224 H 223.358 -2.57141 -2.39941 0
M  V30 2225 H 223.232 -1.25787 -3.55609 0
M  V30 2226 H 225.619 -0.507941 -2.90696 0
M  V30 2227 H 225.7 -1.85447 -1.76191 0
M  V30 2228 H 225.344 -3.48792 -3.69197 0
M  V30 2229 H 225.274 -2.11349 -4.82327 0
M  V30 2230 H 227.765 -1.87767 -3.27951 0
M  V30 2231 H 228.078 -4.36985 -6.37389 0
M  V30 2232 H 226.423 -3.92419 -5.73614 0
M  V30 2233 H 229.614 -2.39858 -4.01977 0
M  V30 2234 H 229.787 -3.53485 -5.43095 0
M  V30 2235 N 223.193 1.4272 -0.668489 0
M  V30 2236 C 224.439 2.01923 -0.188419 0
M  V30 2237 C 224.772 1.52704 1.19979 0
M  V30 2238 O 224.047 0.726566 1.8042 0
M  V30 2239 C 224.33 3.59451 -0.216085 0
M  V30 2240 C 224.183 4.18864 -1.6393 0
M  V30 2241 C 225.502 4.37903 0.439179 0
M  V30 2242 H 222.621 0.733674 -0.0699412 0
M  V30 2243 H 225.263 1.69822 -0.852076 0
M  V30 2244 H 223.413 3.86929 0.349012 0
M  V30 2245 H 225.085 4.02362 -2.25616 0
M  V30 2246 H 223.328 3.74933 -2.18193 0
M  V30 2247 H 223.999 5.27987 -1.61039 0
M  V30 2248 H 226.475 4.16079 -0.0417878 0
M  V30 2249 H 225.351 5.47519 0.389157 0
M  V30 2250 H 225.612 4.15303 1.51577 0
M  V30 2251 N 224.671 0.411399 1.52136 0
M  V30 2252 C 225.601 -0.404015 2.29978 0
M  V30 2253 C 226.582 -1.04412 1.34284 0
M  V30 2254 O 227.767 -1.0527 1.63192 0
M  V30 2255 C 224.897 -1.5197 3.12286 0
M  V30 2256 C 223.851 -1.00448 4.16046 0
M  V30 2257 C 223.177 -2.21393 4.86712 0
M  V30 2258 C 224.477 -0.0569336 5.22269 0
M  V30 2259 H 226.171 0.245529 2.98392 0
M  V30 2260 H 223.717 0.119525 1.43503 0
M  V30 2261 H 225.67 -2.09715 3.6551 0
M  V30 2262 H 224.394 -2.19716 2.41646 0
M  V30 2263 H 223.053 -0.449421 3.63835 0
M  V30 2264 H 222.701 -2.87699 4.12599 0
M  V30 2265 H 222.401 -1.87571 5.56858 0
M  V30 2266 H 223.925 -2.7974 5.4275 0
M  V30 2267 H 225.339 -0.54325 5.7072 0
M  V30 2268 H 223.736 0.192594 5.99791 0
M  V30 2269 H 224.806 0.887663 4.76706 0
M  V30 2270 N 226.149 -1.5696 0.141893 0
M  V30 2271 C 227.377 -2.00322 -0.517579 0
M  V30 2272 C 227.792 -1.02193 -1.58752 0
M  V30 2273 O 227.149 -0.0181619 -1.82491 0
M  V30 2274 C 227.2 -3.43618 -1.12289 0
M  V30 2275 O 226.921 -4.37995 -0.0956929 0
M  V30 2276 C 228.422 -4.02231 -1.86347 0
M  V30 2277 H 225.642 -0.657243 -0.135177 0
M  V30 2278 H 228.186 -2.03146 0.234973 0
M  V30 2279 H 226.341 -3.41662 -1.82609 0
M  V30 2280 H 226.755 -5.21729 -0.538469 0
M  V30 2281 H 228.229 -5.04509 -2.23997 0
M  V30 2282 H 228.706 -3.42655 -2.74744 0
M  V30 2283 H 229.312 -4.07802 -1.20737 0
M  V30 2284 N 227.627 0.131896 -1.57047 0
M  V30 2285 C 228.855 0.856461 -1.88341 0
M  V30 2286 C 229.27 1.74042 -0.731757 0
M  V30 2287 O 228.627 1.80051 0.297945 0
M  V30 2288 C 228.678 1.70064 -3.18999 0
M  V30 2289 O 228.399 0.852278 -4.2973 0
M  V30 2290 C 229.9 2.53148 -3.63911 0
M  V30 2291 H 227.12 0.246885 -0.62393 0
M  V30 2292 H 229.664 0.120152 -2.04147 0
M  V30 2293 H 227.819 2.38984 -3.04902 0
M  V30 2294 H 228.233 1.43329 -5.04537 0
M  V30 2295 H 229.707 3.07931 -4.58129 0
M  V30 2296 H 230.184 3.29901 -2.89935 0
M  V30 2297 H 230.79 1.89492 -3.80753 0
M  V30 2298 N 229.106 1.52395 0.401703 0
M  V30 2299 C 230.039 1.70999 1.51111 0
M  V30 2300 C 231.017 0.55765 1.52738 0
M  V30 2301 O 232.201 0.785912 1.71335 0
M  V30 2302 C 229.328 1.75607 2.8962 0
M  V30 2303 C 228.374 2.97227 3.05873 0
M  V30 2304 S 229.207 4.57439 2.78405 0
M  V30 2305 C 230.363 4.64844 4.19131 0
M  V30 2306 H 230.596 2.6483 1.35102 0
M  V30 2307 H 228.129 1.42527 0.593762 0
M  V30 2308 H 230.087 1.78947 3.69443 0
M  V30 2309 H 228.748 0.828914 3.02965 0
M  V30 2310 H 227.941 2.96955 4.07227 0
M  V30 2311 H 227.543 2.91813 2.33925 0
M  V30 2312 H 229.835 4.42677 5.12877 0
M  V30 2313 H 230.778 5.66807 4.24424 0
M  V30 2314 H 231.186 3.93804 4.04448 0
M  V30 2315 N 230.584 -0.659388 1.43143 0
M  V30 2316 C 231.514 -1.78422 1.50625 0
M  V30 2317 C 232.495 -1.66216 0.361443 0
M  V30 2318 O 233.68 -1.85404 0.577834 0
M  V30 2319 C 230.81 -3.16815 1.42287 0
M  V30 2320 C 229.764 -3.43777 2.54954 0
M  V30 2321 C 229.09 -4.81905 2.31671 0
M  V30 2322 C 230.39 -3.39134 3.97222 0
M  V30 2323 H 232.084 -1.72417 2.44771 0
M  V30 2324 H 229.63 -0.828084 1.17808 0
M  V30 2325 H 231.583 -3.95253 1.46127 0
M  V30 2326 H 230.307 -3.23534 0.446435 0
M  V30 2327 H 228.966 -2.67707 2.50457 0
M  V30 2328 H 228.614 -4.85294 1.32284 0
M  V30 2329 H 228.314 -5.00906 3.07192 0
M  V30 2330 H 229.838 -5.62609 2.37284 0
M  V30 2331 H 231.252 -4.07518 4.03239 0
M  V30 2332 H 229.649 -3.69671 4.72719 0
M  V30 2333 H 230.719 -2.37426 4.22797 0
M  V30 2334 N 232.062 -1.29571 -0.897171 0
M  V30 2335 C 233.478 -1.07637 -1.17841 0
M  V30 2336 C 233.678 0.170713 -2.00776 0
M  V30 2337 O 232.734 0.867768 -2.3712 0
M  V30 2338 C 234.047 -2.3332 -1.8969 0
M  V30 2339 C 235.595 -2.38664 -2.02505 0
M  V30 2340 C 236.07 -3.64157 -2.77765 0
M  V30 2341 N 237.561 -3.64894 -2.85318 0
M  V30 2342 C 238.296 -4.58679 -3.44094 0
M  V30 2343 N 237.792 -5.62799 -4.04017 0
M  V30 2344 N 239.585 -4.46245 -3.41793 0
M  V30 2345 H 231.736 -2.09598 -0.343883 0
M  V30 2346 H 233.999 -0.923333 -0.214848 0
M  V30 2347 H 233.705 -3.24262 -1.36187 0
M  V30 2348 H 233.579 -2.41025 -2.9015 0
M  V30 2349 H 235.966 -1.48208 -2.55183 0
M  V30 2350 H 236.047 -2.34943 -1.01171 0
M  V30 2351 H 235.691 -4.54965 -2.25763 0
M  V30 2352 H 235.621 -3.65137 -3.7945 0
M  V30 2353 H 238.112 -2.89613 -2.42761 0
M  V30 2354 H 238.425 -6.3048 -4.46895 0
M  V30 2355 H 236.77 -5.66605 -4.02472 0
M  V30 2356 H 239.961 -3.64094 -2.94199 0
M  V30 2357 H 240.134 -5.19518 -3.87304 0
M  V30 2358 N 233.54 1.10788 -1.12088 0
M  V30 2359 C 234.45 2.20599 -0.798338 0
M  V30 2360 C 235.466 1.72712 0.21135 0
M  V30 2361 O 236.642 2.01348 0.0458477 0
M  V30 2362 C 233.707 3.45771 -0.253674 0
M  V30 2363 C 232.768 4.08411 -1.32283 0
M  V30 2364 C 232.001 5.27608 -0.80406 0
M  V30 2365 O 232.224 5.69241 0.363478 0
M  V30 2366 O 231.158 5.8101 -1.57198 0
M  V30 2367 H 234.984 2.50614 -1.7154 0
M  V30 2368 H 232.569 1.19454 -0.897275 0
M  V30 2369 H 234.451 4.21376 0.0453691 0
M  V30 2370 H 233.126 3.1739 0.636005 0
M  V30 2371 H 232.033 3.34507 -1.67499 0
M  V30 2372 H 233.366 4.40986 -2.18614 0
M  V30 2373 N 235.018 0.912232 1.28515 0
M  V30 2374 C 236.434 0.610159 1.47476 0
M  V30 2375 C 236.634 -0.844955 1.82928 0
M  V30 2376 O 235.69 -1.62416 1.93332 0
M  V30 2377 C 237.003 1.54675 2.57868 0
M  V30 2378 C 238.551 1.55331 2.71738 0
M  V30 2379 C 239.026 2.47649 3.85272 0
M  V30 2380 N 240.517 2.45767 3.92623 0
M  V30 2381 C 241.252 3.13896 4.79851 0
M  V30 2382 N 240.748 3.9135 5.71679 0
M  V30 2383 N 242.541 3.02991 4.73448 0
M  V30 2384 H 234.692 1.85318 1.03783 0
M  V30 2385 H 236.955 0.794777 0.516753 0
M  V30 2386 H 236.661 2.5841 2.38574 0
M  V30 2387 H 236.535 1.27671 3.54937 0
M  V30 2388 H 238.922 0.52335 2.90422 0
M  V30 2389 H 239.003 1.86378 1.75205 0
M  V30 2390 H 238.647 3.50745 3.67342 0
M  V30 2391 H 238.577 2.13904 4.81199 0
M  V30 2392 H 241.068 1.89503 3.26951 0
M  V30 2393 H 241.381 4.40359 6.35062 0
M  V30 2394 H 239.726 3.95455 5.71524 0
M  V30 2395 H 242.917 2.41987 4.007 0
M  V30 2396 H 243.09 3.5636 5.41213 0
M  V30 2397 N 236.496 -1.42363 0.676048 0
M  V30 2398 C 237.912 -1.55811 0.345718 0
M  V30 2399 C 238.112 -1.65544 -1.14879 0
M  V30 2400 O 237.168 -1.62306 -1.93424 0
M  V30 2401 C 238.481 -2.80746 1.07713 0
M  V30 2402 C 240.029 -2.9452 1.05958 0
M  V30 2403 C 240.504 -4.22318 1.77233 0
M  V30 2404 N 241.995 -4.29233 1.74108 0
M  V30 2405 C 242.73 -5.26935 2.26113 0
M  V30 2406 N 242.226 -6.30783 2.86505 0
M  V30 2407 N 244.019 -5.18741 2.1648 0
M  V30 2408 H 236.17 -1.34289 1.6456 0
M  V30 2409 H 238.433 -0.646506 0.69335 0
M  V30 2410 H 238.139 -2.79696 2.13221 0
M  V30 2411 H 238.013 -3.71676 0.64316 0
M  V30 2412 H 240.4 -2.95097 0.0128255 0
M  V30 2413 H 240.481 -2.04817 1.53244 0
M  V30 2414 H 240.125 -4.22502 2.81877 0
M  V30 2415 H 240.055 -5.10958 1.27396 0
M  V30 2416 H 242.546 -3.54814 1.30059 0
M  V30 2417 H 242.859 -7.01691 3.23805 0
M  V30 2418 H 241.204 -6.31341 2.90575 0
M  V30 2419 H 244.395 -4.36533 1.68987 0
M  V30 2420 H 244.568 -5.94721 2.57316 0
M  V30 2421 N 237.974 -0.419461 -1.51915 0
M  V30 2422 C 239.385 0.0477853 -1.86639 0
M  V30 2423 C 239.736 1.43531 -1.33766 0
M  V30 2424 O 238.861 2.05401 -0.68113 0
M  V30 2425 C 239.456 0.0934885 -3.38671 0
M  V30 2426 C 238.015 0.505097 -3.72996 0
M  V30 2427 C 237.162 -0.313792 -2.75519 0
M  V30 2428 H 240.113 -0.636088 -1.45395 0
M  V30 2429 H 240.134 0.906667 -3.6954 0
M  V30 2430 H 239.646 -0.916501 -3.77123 0
M  V30 2431 H 237.747 1.52135 -3.40126 0
M  V30 2432 H 237.86 0.242309 -4.78487 0
M  V30 2433 H 236.224 0.225363 -2.53701 0
M  V30 2434 H 237.007 -1.32232 -3.16812 0
M  V30 2435 N 239.452 1.56882 -0.150215 0
M  V30 2436 C 240.7 1.9584 0.499105 0
M  V30 2437 C 241.021 1.03623 1.65188 0
M  V30 2438 O 240.291 0.0984084 1.95653 0
M  V30 2439 H 238.871 0.723119 0.187373 0
M  V30 2440 H 241.533 1.9358 -0.226466 0
M  V30 2441 H 240.629 2.99638 0.873122 0
M  V30 2442 N 240.93 -0.123565 1.57115 0
M  V30 2443 C 242.16 -0.845233 1.88519 0
M  V30 2444 C 242.568 -1.74168 0.739064 0
M  V30 2445 O 241.911 -1.81244 -0.299355 0
M  V30 2446 C 241.973 -1.73452 3.14888 0
M  V30 2447 C 241.637 -1.01285 4.45635 0
M  V30 2448 C 242.634 -0.355774 5.18681 0
M  V30 2449 C 240.319 -0.99538 4.92339 0
M  V30 2450 C 242.313 0.309114 6.3665 0
M  V30 2451 C 240 -0.32669 6.10226 0
M  V30 2452 C 240.998 0.324406 6.82229 0
M  V30 2453 O 240.686 0.982437 7.97874 0
M  V30 2454 H 240.418 -0.248534 0.628655 0
M  V30 2455 H 242.972 -0.113907 2.05084 0
M  V30 2456 H 241.202 -2.50737 2.94394 0
M  V30 2457 H 242.891 -2.33021 3.32349 0
M  V30 2458 H 243.657 -0.360918 4.83655 0
M  V30 2459 H 239.536 -1.49159 4.36202 0
M  V30 2460 H 243.08 0.8179 6.92789 0
M  V30 2461 H 238.977 -0.319294 6.4471 0
M  V30 2462 H 239.745 0.886454 8.13686 0
M  V30 2463 N 242.408 -1.52605 -0.393616 0
M  V30 2464 C 243.338 -1.80022 -1.48709 0
M  V30 2465 C 244.319 -0.651995 -1.57108 0
M  V30 2466 O 245.504 -0.89913 -1.72132 0
M  V30 2467 C 242.634 -1.96492 -2.86371 0
M  V30 2468 C 241.588 -3.12161 -2.92813 0
M  V30 2469 C 240.914 -3.13877 -4.3288 0
M  V30 2470 C 242.214 -4.51322 -2.6288 0
M  V30 2471 H 243.908 -2.71589 -1.26015 0
M  V30 2472 H 241.454 -1.30684 -0.604778 0
M  V30 2473 H 243.407 -2.14255 -3.62867 0
M  V30 2474 H 242.131 -1.01611 -3.10391 0
M  V30 2475 H 240.79 -2.94173 -2.18764 0
M  V30 2476 H 240.438 -2.16687 -4.53933 0
M  V30 2477 H 240.138 -3.91576 -4.38112 0
M  V30 2478 H 241.662 -3.33789 -5.1129 0
M  V30 2479 H 243.076 -4.69435 -3.29096 0
M  V30 2480 H 241.473 -5.31053 -2.79468 0
M  V30 2481 H 242.543 -4.58353 -1.58242 0
M  V30 2482 N 243.887 0.651787 -1.4349 0
M  V30 2483 C 244.82 1.77668 -1.43211 0
M  V30 2484 C 245.798 1.59931 -0.29338 0
M  V30 2485 O 246.982 1.82095 -0.487191 0
M  V30 2486 C 244.109 3.14986 -1.24505 0
M  V30 2487 C 243.155 3.51421 -2.41673 0
M  V30 2488 S 243.988 3.51234 -4.04222 0
M  V30 2489 C 245.144 4.91206 -3.87902 0
M  V30 2490 H 245.377 1.77635 -2.38397 0
M  V30 2491 H 242.91 0.824558 -1.30539 0
M  V30 2492 H 244.868 3.94237 -1.144 0
M  V30 2493 H 243.529 3.1258 -0.308651 0
M  V30 2494 H 242.722 4.51291 -2.24393 0
M  V30 2495 H 242.324 2.79585 -2.48411 0
M  V30 2496 H 244.616 5.79902 -3.50315 0
M  V30 2497 H 245.559 5.13537 -4.8753 0
M  V30 2498 H 245.967 4.64808 -3.20334 0
M  V30 2499 N 245.365 1.30045 0.890287 0
M  V30 2500 C 246.295 1.18541 2.01172 0
M  V30 2501 C 247.276 0.0773356 1.69924 0
M  V30 2502 O 248.461 0.25845 1.92473 0
M  V30 2503 C 245.591 0.870941 3.36202 0
M  V30 2504 C 244.545 1.93637 3.81692 0
M  V30 2505 C 243.871 1.475 5.13953 0
M  V30 2506 C 245.171 3.34666 4.00994 0
M  V30 2507 H 246.865 2.12359 2.11054 0
M  V30 2508 H 244.411 1.02238 1.01407 0
M  V30 2509 H 246.364 0.777141 4.14172 0
M  V30 2510 H 245.088 -0.102926 3.26438 0
M  V30 2511 H 243.747 2.01972 3.05946 0
M  V30 2512 H 243.395 0.489551 5.00612 0
M  V30 2513 H 243.095 2.1876 5.4536 0
M  V30 2514 H 244.619 1.39489 5.94454 0
M  V30 2515 H 246.033 3.2912 4.69417 0
M  V30 2516 H 244.43 4.03966 4.43769 0
M  V30 2517 H 245.5 3.76949 3.05021 0
M  V30 2518 N 246.843 -1.10192 1.12674 0
M  V30 2519 C 248.254 -1.63707 0.897604 0
M  V30 2520 C 248.605 -1.87812 -0.567546 0
M  V30 2521 O 247.73 -1.62196 -1.43253 0
M  V30 2522 C 248.325 -2.974 1.62292 0
M  V30 2523 C 246.884 -3.47772 1.43986 0
M  V30 2524 C 246.031 -2.22332 1.65722 0
M  V30 2525 H 248.982 -0.936587 1.28116 0
M  V30 2526 H 249.003 -3.64986 1.07541 0
M  V30 2527 H 248.515 -2.79824 2.68924 0
M  V30 2528 H 246.616 -3.70487 0.396206 0
M  V30 2529 H 246.729 -4.25723 2.19765 0
M  V30 2530 H 245.093 -2.30599 1.08149 0
M  V30 2531 H 245.876 -2.07285 2.73657 0
M  V30 2532 N 248.321 -0.919034 -1.28029 0
M  V30 2533 C 249.284 -0.416182 -2.2539 0
M  V30 2534 C 250.284 0.460438 -1.54067 0
M  V30 2535 O 251.474 0.262744 -1.72207 0
M  V30 2536 C 248.606 0.402707 -3.38513 0
M  V30 2537 H 249.799 -1.27629 -2.71387 0
M  V30 2538 H 247.352 -0.698919 -1.39803 0
M  V30 2539 H 248.087 1.282 -2.97885 0
M  V30 2540 H 247.872 -0.225698 -3.9145 0
M  V30 2541 H 249.362 0.745191 -4.10897 0
M  V30 2542 N 249.799 1.42003 -0.683588 0
M  V30 2543 C 251.076 1.95112 -0.138075 0
M  V30 2544 C 251.456 1.62359 1.34918 0
M  V30 2545 O 250.804 0.924311 2.08971 0
M  V30 2546 C 251.014 3.46505 -0.416581 0
M  V30 2547 C 252.362 4.23254 -0.337834 0
M  V30 2548 O 253.386 3.54468 -0.35082 0
M  V30 2549 O 252.245 5.45743 -0.287596 0
M  V30 2550 H 249.339 0.826961 -0.00797996 0
M  V30 2551 H 251.885 1.51784 -0.758924 0
M  V30 2552 H 250.657 3.63582 -1.4465 0
M  V30 2553 H 250.28 3.969 0.235839 0
M  V30 2554 N 251.277 0.427512 1.51691 0
M  V30 2555 C 252.523 -0.142439 2.02299 0
M  V30 2556 C 252.856 -1.43214 1.31162 0
M  V30 2557 O 252.131 -1.89833 0.423511 0
M  V30 2558 C 252.414 -0.371301 3.58181 0
M  V30 2559 C 252.267 0.936358 4.39946 0
M  V30 2560 C 253.586 -1.14542 4.24933 0
M  V30 2561 H 250.705 -0.0502937 0.735282 0
M  V30 2562 H 253.347 0.564584 1.81418 0
M  V30 2563 H 251.497 -0.973559 3.76104 0
M  V30 2564 H 253.169 1.57184 4.33694 0
M  V30 2565 H 251.412 1.5432 4.05423 0
M  V30 2566 H 252.083 0.730388 5.47147 0
M  V30 2567 H 254.559 -0.635362 4.11221 0
M  V30 2568 H 253.435 -1.27431 5.33903 0
M  V30 2569 H 253.696 -2.17093 3.85127 0
M  V30 2570 N 252.755 -1.56801 0.158532 0
M  V30 2571 C 253.718 -2.16138 -0.762705 0
M  V30 2572 C 254.718 -1.1061 -1.16713 0
M  V30 2573 O 255.908 -1.36191 -1.08617 0
M  V30 2574 C 253.04 -2.73386 -2.03649 0
M  V30 2575 H 254.233 -2.98886 -0.246354 0
M  V30 2576 H 251.786 -1.56035 -0.0909744 0
M  V30 2577 H 252.521 -1.94335 -2.59623 0
M  V30 2578 H 252.306 -3.50601 -1.75559 0
M  V30 2579 H 253.796 -3.19065 -2.6942 0
M  V30 2580 N 254.233 0.115231 -1.57178 0
M  V30 2581 C 255.18 1.14115 -2.00615 0
M  V30 2582 C 256.15 1.40939 -0.878941 0
M  V30 2583 O 257.335 1.52741 -1.14345 0
M  V30 2584 C 254.475 2.46156 -2.4187 0
M  V30 2585 C 253.588 2.26236 -3.68024 0
M  V30 2586 C 252.723 3.51534 -3.98243 0
M  V30 2587 C 251.762 3.26787 -5.17568 0
M  V30 2588 N 250.899 4.44298 -5.43639 0
M  V30 2589 H 255.739 0.763743 -2.88047 0
M  V30 2590 H 253.276 0.365615 -1.42484 0
M  V30 2591 H 255.234 3.23189 -2.63827 0
M  V30 2592 H 253.864 2.81783 -1.57475 0
M  V30 2593 H 252.916 1.40102 -3.5366 0
M  V30 2594 H 254.228 2.03929 -4.55208 0
M  V30 2595 H 253.382 4.36984 -4.20868 0
M  V30 2596 H 252.121 3.76876 -3.09541 0
M  V30 2597 H 251.126 2.39729 -4.94783 0
M  V30 2598 H 252.351 3.02812 -6.0785 0
M  V30 2599 H 250.297 4.69754 -4.57895 0
M  V30 2600 H 250.214 4.25109 -6.25154 0
M  V30 2601 H 251.482 5.3087 -5.70786 0
M  V30 2602 N 255.711 1.52812 0.385517 0
M  V30 2603 C 256.658 1.77838 1.47113 0
M  V30 2604 C 257.628 0.621757 1.54024 0
M  V30 2605 O 258.813 0.861846 1.70226 0
M  V30 2606 C 255.953 1.95618 2.84302 0
M  V30 2607 C 255.066 3.23316 2.86515 0
M  V30 2608 C 254.201 3.31394 4.15152 0
M  V30 2609 C 253.24 4.53201 4.1143 0
M  V30 2610 N 252.377 4.58542 5.3168 0
M  V30 2611 H 257.217 2.70482 1.25073 0
M  V30 2612 H 254.754 1.34006 0.606692 0
M  V30 2613 H 256.712 2.03912 3.63972 0
M  V30 2614 H 255.342 1.06331 3.04784 0
M  V30 2615 H 254.394 3.24076 1.99195 0
M  V30 2616 H 255.706 4.13045 2.79634 0
M  V30 2617 H 254.86 3.3889 5.03228 0
M  V30 2618 H 253.599 2.39645 4.24761 0
M  V30 2619 H 252.604 4.45827 3.21742 0
M  V30 2620 H 253.829 5.46271 4.03442 0
M  V30 2621 H 251.775 3.69686 5.41912 0
M  V30 2622 H 251.692 5.42148 5.26889 0
M  V30 2623 H 252.96 4.70296 6.21644 0
M  V30 2624 N 257.189 -0.644168 1.43834 0
M  V30 2625 C 258.152 -1.73857 1.49353 0
M  V30 2626 C 259.152 -1.56315 0.377112 0
M  V30 2627 O 260.342 -1.62048 0.639226 0
M  V30 2628 C 257.474 -3.12819 1.35488 0
M  V30 2629 H 258.667 -1.70342 2.46827 0
M  V30 2630 H 256.22 -0.856652 1.30733 0
M  V30 2631 H 256.955 -3.2194 0.390569 0
M  V30 2632 H 256.74 -3.26958 2.16428 0
M  V30 2633 H 258.23 -3.92606 1.42302 0
M  V30 2634 N 258.668 -1.30515 -0.883378 0
M  V30 2635 C 259.631 -1.1701 -1.97082 0
M  V30 2636 C 260.631 -0.10089 -1.60483 0
M  V30 2637 O 261.821 -0.349127 -1.70666 0
M  V30 2638 C 258.953 -0.793045 -3.31547 0
M  V30 2639 H 260.146 -2.13622 -2.10489 0
M  V30 2640 H 257.699 -1.13935 -1.06998 0
M  V30 2641 H 258.434 0.172499 -3.23841 0
M  V30 2642 H 258.219 -1.56576 -3.5948 0
M  V30 2643 H 259.709 -0.722073 -4.1131 0
M  V30 2644 N 260.146 1.09593 -1.13257 0
M  V30 2645 C 261.374 1.855 -0.916378 0
M  V30 2646 C 261.789 1.81069 0.534738 0
M  V30 2647 O 261.146 1.20562 1.37007 0
M  V30 2648 C 261.197 3.33546 -1.39388 0
M  V30 2649 O 260.918 3.37927 -2.78813 0
M  V30 2650 C 262.419 4.26299 -1.21588 0
M  V30 2651 H 259.639 0.585991 -0.326887 0
M  V30 2652 H 262.183 1.38488 -1.5047 0
M  V30 2653 H 260.338 3.77992 -0.848597 0
M  V30 2654 H 260.752 4.30254 -2.9997 0
M  V30 2655 H 262.226 5.28341 -1.59876 0
M  V30 2656 H 262.703 4.38918 -0.157376 0
M  V30 2657 H 263.309 3.87668 -1.7491 0
M  V30 2658 N 261.624 0.925811 1.2754 0
M  V30 2659 C 263.035 0.610102 1.7645 0
M  V30 2660 C 263.386 -0.874723 1.75622 0
M  V30 2661 O 262.511 -1.68444 1.35851 0
M  V30 2662 C 263.106 1.10073 3.20421 0
M  V30 2663 C 261.665 0.835723 3.67005 0
M  V30 2664 C 260.812 1.26054 2.46993 0
M  V30 2665 H 263.763 1.10579 1.13833 0
M  V30 2666 H 263.784 0.447557 3.77859 0
M  V30 2667 H 263.296 2.18143 3.20991 0
M  V30 2668 H 261.397 -0.231249 3.71882 0
M  V30 2669 H 261.51 1.45193 4.56569 0
M  V30 2670 H 259.874 0.679111 2.45479 0
M  V30 2671 H 260.657 2.34984 2.50275 0
M  V30 2672 N 263.102 -1.41638 0.69111 0
M  V30 2673 C 264.513 -1.84346 0.295517 0
M  V30 2674 C 264.864 -1.57833 -1.16547 0
M  V30 2675 O 263.989 -1.04648 -1.89414 0
M  V30 2676 C 264.584 -3.34636 0.529575 0
M  V30 2677 C 263.143 -3.7593 0.187944 0
M  V30 2678 C 262.29 -2.65082 0.814052 0
M  V30 2679 H 265.241 -1.31253 0.892092 0
M  V30 2680 H 265.262 -3.79903 -0.213148 0
M  V30 2681 H 264.774 -3.53901 1.59297 0
M  V30 2682 H 262.875 -3.62268 -0.871367 0
M  V30 2683 H 262.988 -4.74808 0.63985 0
M  V30 2684 H 261.352 -2.53528 0.244017 0
M  V30 2685 H 262.135 -2.87167 1.88123 0
M  V30 2686 N 264.58 -0.43555 -1.51462 0
M  V30 2687 C 265.826 0.131709 -2.02372 0
M  V30 2688 C 266.159 1.42516 -1.3192 0
M  V30 2689 O 265.434 1.89606 -0.433573 0
M  V30 2690 C 265.717 0.352301 -3.58373 0
M  V30 2691 C 265.57 -0.959676 -4.39443 0
M  V30 2692 C 266.889 1.12286 -4.25535 0
M  V30 2693 H 264.008 0.0463936 -0.735538 0
M  V30 2694 H 266.65 -0.574197 -1.81116 0
M  V30 2695 H 264.8 0.9536 -3.76615 0
M  V30 2696 H 266.472 -1.59482 -4.32855 0
M  V30 2697 H 264.715 -1.56468 -4.04599 0
M  V30 2698 H 265.386 -0.759394 -5.46752 0
M  V30 2699 H 267.862 0.613545 -4.11552 0
M  V30 2700 H 266.738 1.24598 -5.34571 0
M  V30 2701 H 266.999 2.15048 -3.86273 0
M  V30 2702 N 266.058 1.56714 -0.166846 0
M  V30 2703 C 267.006 2.19056 0.782123 0
M  V30 2704 C 268 1.15328 1.24079 0
M  V30 2705 O 269.206 1.33537 1.20697 0
M  V30 2706 H 265.581 0.70167 0.270486 0
M  V30 2707 H 267.552 2.97494 0.232322 0
M  V30 2708 C 266.301 2.84206 2.00306 0
M  V30 2709 H 265.624 3.63748 1.65914 0
M  V30 2710 H 267.064 3.31302 2.64604 0
M  V30 2711 C 265.523 1.83744 2.82382 0
M  V30 2712 O 266.053 1.32014 3.79388 0
M  V30 2713 N 264.259 1.52601 2.47308 0
M  V30 2714 H 263.806 1.9486 1.68485 0
M  V30 2715 H 263.764 0.856351 3.02513 0
M  V30 2716 N 267.536 -0.106894 1.57237 0
M  V30 2717 C 268.499 -1.11466 2.0027 0
M  V30 2718 C 269.499 -1.33623 0.894519 0
M  V30 2719 O 270.689 -1.29935 1.16028 0
M  V30 2720 C 267.821 -2.46646 2.35327 0
M  V30 2721 H 269.014 -0.744516 2.90512 0
M  V30 2722 H 266.567 -0.351576 1.52295 0
M  V30 2723 H 267.302 -2.88558 1.48003 0
M  V30 2724 H 267.087 -2.31915 3.16161 0
M  V30 2725 H 268.577 -3.19151 2.69318 0
M  V30 2726 N 269.014 -1.53014 -0.377408 0
M  V30 2727 C 269.944 -1.81589 -1.46791 0
M  V30 2728 C 270.925 -0.668622 -1.56408 0
M  V30 2729 O 272.11 -0.917337 -1.71168 0
M  V30 2730 C 269.24 -1.99519 -2.8427 0
M  V30 2731 C 268.194 -3.15249 -2.89486 0
M  V30 2732 C 267.52 -3.18451 -4.29527 0
M  V30 2733 C 268.82 -4.54084 -2.58079 0
M  V30 2734 H 270.514 -2.7291 -1.23127 0
M  V30 2735 H 268.06 -1.31319 -0.590883 0
M  V30 2736 H 270.013 -2.18092 -3.60575 0
M  V30 2737 H 268.737 -1.04897 -3.09296 0
M  V30 2738 H 267.396 -2.96477 -2.15631 0
M  V30 2739 H 267.044 -2.2149 -4.5161 0
M  V30 2740 H 266.744 -3.962 -4.33934 0
M  V30 2741 H 268.268 -3.39193 -5.07721 0
M  V30 2742 H 269.682 -4.72899 -3.24098 0
M  V30 2743 H 268.079 -5.33987 -2.7382 0
M  V30 2744 H 269.149 -4.60006 -1.53372 0
M  V30 2745 N 270.492 0.636531 -1.44174 0
M  V30 2746 C 271.72 1.42353 -1.50144 0
M  V30 2747 C 272.135 1.88389 -0.124575 0
M  V30 2748 O 271.492 1.6051 0.868489 0
M  V30 2749 C 271.543 2.64744 -2.46156 0
M  V30 2750 O 271.264 2.20629 -3.7849 0
M  V30 2751 C 272.765 3.57929 -2.61537 0
M  V30 2752 H 269.985 0.436752 -0.5094 0
M  V30 2753 H 272.529 0.778933 -1.89084 0
M  V30 2754 H 270.684 3.25307 -2.10366 0
M  V30 2755 H 271.098 2.99938 -4.30276 0
M  V30 2756 H 272.572 4.40428 -3.32757 0
M  V30 2757 H 273.049 4.06382 -1.66585 0
M  V30 2758 H 273.655 3.03238 -2.98206 0
M  V30 2759 N 271.97 1.30982 0.876444 0
M  V30 2760 C 272.92 1.14688 1.97055 0
M  V30 2761 C 273.904 0.0596593 1.60789 0
M  V30 2762 O 275.096 0.283892 1.74708 0
M  V30 2763 C 272.225 0.849627 3.3262 0
M  V30 2764 C 271.311 1.97752 3.75173 0
M  V30 2765 N 271.702 3.22384 3.89746 0
M  V30 2766 C 270 1.8758 4.04635 0
M  V30 2767 C 270.701 3.96121 4.25985 0
M  V30 2768 N 269.677 3.24237 4.36315 0
M  V30 2769 H 273.479 2.09204 2.06424 0
M  V30 2770 H 270.993 1.22445 1.06682 0
M  V30 2771 H 272.99 0.713895 4.10742 0
M  V30 2772 H 271.65 -0.087376 3.24582 0
M  V30 2773 H 272.661 3.57575 3.74647 0
M  V30 2774 H 269.338 1.01303 4.05024 0
M  V30 2775 H 270.728 5.03491 4.44911 0
M  V30 2776 N 273.449 -1.08991 1.13837 0
M  V30 2777 C 274.396 -2.15748 0.819835 0
M  V30 2778 C 275.366 -1.64636 -0.220026 0
M  V30 2779 O 276.551 -1.90582 -0.0912757 0
M  V30 2780 C 273.691 -3.4382 0.296913 0
M  V30 2781 C 272.804 -4.0881 1.39636 0
M  V30 2782 C 271.939 -5.24655 0.831314 0
M  V30 2783 C 270.978 -5.81575 1.90886 0
M  V30 2784 N 270.115 -6.88774 1.36142 0
M  V30 2785 H 274.955 -2.42338 1.73426 0
M  V30 2786 H 272.492 -1.18935 0.865613 0
M  V30 2787 H 274.45 -4.17193 -0.0244339 0
M  V30 2788 H 273.08 -3.17535 -0.580628 0
M  V30 2789 H 272.132 -3.33258 1.83422 0
M  V30 2790 H 273.444 -4.47141 2.21058 0
M  V30 2791 H 272.598 -6.04942 0.461515 0
M  V30 2792 H 271.337 -4.87698 -0.013932 0
M  V30 2793 H 270.342 -4.99946 2.28767 0
M  V30 2794 H 271.567 -6.20592 2.75758 0
M  V30 2795 H 269.513 -6.53788 0.538254 0
M  V30 2796 H 269.43 -7.25898 2.11208 0
M  V30 2797 H 270.698 -7.72806 1.01933 0
M  V30 2798 N 274.927 -0.932562 -1.27047 0
M  V30 2799 C 275.859 -0.392734 -2.2581 0
M  V30 2800 C 276.872 0.479241 -1.55586 0
M  V30 2801 O 278.061 0.291078 -1.76111 0
M  V30 2802 C 275.161 0.455456 -3.35826 0
M  V30 2803 C 274.334 -0.398355 -4.35582 0
M  V30 2804 C 273.393 0.387985 -5.24768 0
M  V30 2805 O 272.419 -0.206003 -5.68827 0
M  V30 2806 N 273.621 1.68664 -5.55457 0
M  V30 2807 H 276.386 -1.24173 -2.72766 0
M  V30 2808 H 273.947 -0.800511 -1.40725 0
M  V30 2809 H 275.939 0.988692 -3.92437 0
M  V30 2810 H 274.509 1.20522 -2.88432 0
M  V30 2811 H 273.729 -1.11286 -3.78165 0
M  V30 2812 H 275.017 -0.981889 -4.99236 0
M  V30 2813 H 274.415 2.19147 -5.21528 0
M  V30 2814 H 272.972 2.1663 -6.14748 0
M  V30 2815 N 276.405 1.4127 -0.698611 0
M  V30 2816 C 277.368 2.29158 -0.044132 0
M  V30 2817 C 278.368 1.44529 0.704841 0
M  V30 2818 O 279.558 1.65643 0.539276 0
M  V30 2819 C 276.69 3.27459 0.947809 0
M  V30 2820 H 277.883 2.88529 -0.817994 0
M  V30 2821 H 275.436 1.49307 -0.46228 0
M  V30 2822 H 276.171 2.73073 1.74933 0
M  V30 2823 H 275.956 3.8991 0.41385 0
M  V30 2824 H 277.446 3.93311 1.40344 0
M  V30 2825 N 277.883 0.443576 1.51229 0
M  V30 2826 C 278.833 -0.382787 2.24764 0
M  V30 2827 C 279.817 -0.984836 1.27239 0
M  V30 2828 O 281.009 -0.901943 1.52296 0
M  V30 2829 C 278.138 -1.47989 3.09765 0
M  V30 2830 C 277.224 -0.886931 4.14722 0
M  V30 2831 N 277.615 -0.0237103 5.05794 0
M  V30 2832 C 275.913 -1.15385 4.30816 0
M  V30 2833 C 276.614 0.309971 5.80874 0
M  V30 2834 N 275.59 -0.307989 5.42727 0
M  V30 2835 H 279.392 0.282624 2.92538 0
M  V30 2836 H 276.906 0.256027 1.60369 0
M  V30 2837 H 278.903 -2.08482 3.61027 0
M  V30 2838 H 277.563 -2.14758 2.43535 0
M  V30 2839 H 278.574 0.34318 5.16762 0
M  V30 2840 H 275.251 -1.81857 3.75812 0
M  V30 2841 H 276.641 1.01279 6.64223 0
M  V30 2842 N 279.361 -1.56624 0.175154 0
M  V30 2843 C 280.324 -2.16934 -0.739738 0
M  V30 2844 C 281.324 -1.11842 -1.15533 0
M  V30 2845 O 282.514 -1.37335 -1.07167 0
M  V30 2846 C 279.646 -2.75531 -2.00738 0
M  V30 2847 H 280.839 -2.99131 -0.214639 0
M  V30 2848 H 278.392 -1.56123 -0.0744197 0
M  V30 2849 H 279.127 -1.97078 -2.57548 0
M  V30 2850 H 278.912 -3.52444 -1.71831 0
M  V30 2851 H 280.402 -3.21904 -2.66021 0
M  V30 2852 N 280.839 0.0985539 -1.57292 0
M  V30 2853 C 282.116 0.834155 -1.76921 0
M  V30 2854 C 282.496 1.97101 -0.755928 0
M  V30 2855 O 281.844 2.27474 0.216245 0
M  V30 2856 C 282.054 1.33194 -3.22584 0
M  V30 2857 C 283.402 1.77611 -3.85668 0
M  V30 2858 O 284.426 1.42825 -3.26312 0
M  V30 2859 O 283.285 2.4192 -4.90038 0
M  V30 2860 H 280.379 0.397628 -0.725135 0
M  V30 2861 H 282.925 0.0807044 -1.69508 0
M  V30 2862 H 281.697 0.517248 -3.87866 0
M  V30 2863 H 281.32 2.1475 -3.34616 0
M  V30 2864 N 282.317 1.53212 0.369288 0
M  V30 2865 C 283.542 1.73423 1.1375 0
M  V30 2866 C 283.967 0.460404 1.82378 0
M  V30 2867 O 283.325 -0.585298 1.71592 0
M  V30 2868 C 283.373 2.89769 2.1463 0
M  V30 2869 O 282.477 2.58119 3.21634 0
M  V30 2870 H 281.818 0.576061 0.330227 0
M  V30 2871 H 284.348 2.00083 0.427547 0
M  V30 2872 H 284.358 3.15829 2.58294 0
M  V30 2873 H 283.033 3.8217 1.64071 0
M  V30 2874 H 281.61 2.42864 2.82969 0
M  V30 2875 N 283.795 -0.628877 1.44509 0
M  V30 2876 C 284.758 -1.72263 1.51188 0
M  V30 2877 C 285.758 -1.55907 0.39367 0
M  V30 2878 O 286.948 -1.61361 0.656377 0
M  V30 2879 C 284.08 -3.11365 1.38798 0
M  V30 2880 H 285.273 -1.67714 2.4862 0
M  V30 2881 H 282.826 -0.842737 1.31634 0
M  V30 2882 H 283.561 -3.21507 0.424693 0
M  V30 2883 H 283.346 -3.24644 2.19884 0
M  V30 2884 H 284.836 -3.91075 1.46458 0
M  V30 2885 N 285.273 -1.31445 -0.869486 0
M  V30 2886 C 286.513 -1.22458 -1.63656 0
M  V30 2887 C 286.877 0.213846 -1.90805 0
M  V30 2888 O 288.078 0.427212 -2.65383 0
M  V30 2889 C 286.349 -2.04564 -2.93067 0
M  V30 2890 S 287.908 -2.12445 -3.83944 0
M  V30 2891 H 284.726 -0.436145 -0.561514 0
M  V30 2892 H 287.328 -1.66114 -1.03085 0
M  V30 2893 H 286.032 -3.0816 -2.71045 0
M  V30 2894 H 285.563 -1.6163 -3.58663 0
M  V30 2895 H 287.578 -1.26312 -4.79854 0
M  V30 2896 N 286.751 1.08385 -1.14413 0
M  V30 2897 C 287.681 2.17321 -0.854044 0
M  V30 2898 C 288.662 1.69024 0.191049 0
M  V30 2899 O 289.847 1.94141 0.0476779 0
M  V30 2900 C 286.977 3.45719 -0.330983 0
M  V30 2901 C 285.931 4.07409 -1.31155 0
M  V30 2902 C 285.257 5.30762 -0.64778 0
M  V30 2903 C 286.557 4.48665 -2.67388 0
M  V30 2904 H 288.251 2.41845 -1.76498 0
M  V30 2905 H 285.797 1.16233 -0.850051 0
M  V30 2906 H 287.75 4.21241 -0.115645 0
M  V30 2907 H 286.474 3.2075 0.615381 0
M  V30 2908 H 285.133 3.33919 -1.51306 0
M  V30 2909 H 284.781 5.02078 0.304398 0
M  V30 2910 H 284.481 5.72992 -1.30207 0
M  V30 2911 H 286.005 6.08998 -0.441972 0
M  V30 2912 H 287.419 5.15364 -2.51143 0
M  V30 2913 H 285.816 5.01814 -3.29093 0
M  V30 2914 H 286.886 3.60543 -3.24248 0
M  V30 2915 N 288.23 0.939286 1.26551 0
M  V30 2916 C 289.177 0.446088 2.26448 0
M  V30 2917 C 290.147 -0.493234 1.58608 0
M  V30 2918 O 291.332 -0.409857 1.86346 0
M  V30 2919 C 288.472 -0.284375 3.43926 0
M  V30 2920 C 287.585 0.690399 4.26448 0
M  V30 2921 C 286.72 -0.0610712 5.31165 0
M  V30 2922 C 285.759 0.905649 6.05363 0
M  V30 2923 N 284.896 0.186055 7.01853 0
M  V30 2924 H 289.736 1.30291 2.68008 0
M  V30 2925 H 287.273 0.65371 1.31776 0
M  V30 2926 H 289.231 -0.724313 4.10864 0
M  V30 2927 H 287.861 -1.10535 3.03285 0
M  V30 2928 H 286.913 1.24885 3.59316 0
M  V30 2929 H 288.225 1.42873 4.779 0
M  V30 2930 H 287.379 -0.56038 6.04106 0
M  V30 2931 H 286.118 -0.832297 4.80546 0
M  V30 2932 H 285.123 1.4161 5.3125 0
M  V30 2933 H 286.348 1.67685 6.58072 0
M  V30 2934 H 284.294 -0.566714 6.53548 0
M  V30 2935 H 284.211 0.863752 7.51049 0
M  V30 2936 H 285.479 -0.292221 7.78952 0
M  V30 2937 N 289.708 -1.40897 0.706093 0
M  V30 2938 C 290.671 -2.29131 0.0562841 0
M  V30 2939 C 291.671 -1.44901 -0.697166 0
M  V30 2940 O 292.861 -1.65926 -0.530484 0
M  V30 2941 C 289.993 -3.27957 -0.93043 0
M  V30 2942 H 291.186 -2.88091 0.833284 0
M  V30 2943 H 288.739 -1.4906 0.470192 0
M  V30 2944 H 289.474 -2.73997 -1.73482 0
M  V30 2945 H 289.259 -3.90124 -0.393166 0
M  V30 2946 H 290.749 -3.94049 -1.38256 0
M  V30 2947 N 291.186 -0.45159 -1.50991 0
M  V30 2948 C 292.433 0.110074 -2.02201 0
M  V30 2949 C 292.761 1.4146 -1.33489 0
M  V30 2950 O 292.016 1.90617 -0.443125 0
M  V30 2951 C 292.315 0.361728 -3.55565 0
M  V30 2952 C 291.981 -0.858717 -4.42648 0
M  V30 2953 C 290.643 -1.19338 -4.66167 0
M  V30 2954 C 292.995 -1.67221 -4.93646 0
M  V30 2955 C 290.323 -2.34195 -5.37931 0
M  V30 2956 C 292.675 -2.8119 -5.6667 0
M  V30 2957 C 291.339 -3.15094 -5.88449 0
M  V30 2958 H 290.609 0.040279 -0.739904 0
M  V30 2959 H 293.256 -0.601696 -1.81802 0
M  V30 2960 H 291.561 1.15554 -3.74372 0
M  V30 2961 H 293.258 0.80996 -3.92735 0
M  V30 2962 H 289.848 -0.58796 -4.24548 0
M  V30 2963 H 294.032 -1.42686 -4.75347 0
M  V30 2964 H 289.288 -2.6076 -5.53005 0
M  V30 2965 H 293.462 -3.44585 -6.05173 0
M  V30 2966 H 291.089 -4.04204 -6.43835 0
M  V30 2967 N 292.664 1.56529 -0.183458 0
M  V30 2968 C 294.08 1.58664 0.172554 0
M  V30 2969 C 294.28 1.19925 1.61926 0
M  V30 2970 O 293.336 0.916534 2.35278 0
M  V30 2971 C 294.649 3.00463 -0.119262 0
M  V30 2972 C 296.197 3.12945 -0.0584396 0
M  V30 2973 C 296.672 4.56857 -0.323408 0
M  V30 2974 N 298.163 4.62403 -0.271612 0
M  V30 2975 C 298.898 5.71626 -0.450639 0
M  V30 2976 N 298.394 6.89362 -0.689384 0
M  V30 2977 N 300.187 5.60775 -0.385701 0
M  V30 2978 H 292.338 1.79994 -1.12765 0
M  V30 2979 H 294.601 0.834808 -0.449222 0
M  V30 2980 H 294.307 3.33326 -1.12192 0
M  V30 2981 H 294.181 3.72659 0.583544 0
M  V30 2982 H 296.568 2.79902 0.934805 0
M  V30 2983 H 296.649 2.4316 -0.794144 0
M  V30 2984 H 296.293 4.9061 -1.31392 0
M  V30 2985 H 296.223 5.24816 0.43305 0
M  V30 2986 H 298.714 3.77785 -0.0932256 0
M  V30 2987 H 299.027 7.68489 -0.815113 0
M  V30 2988 H 297.372 6.91196 -0.726142 0
M  V30 2989 H 300.563 4.67674 -0.199687 0
M  V30 2990 H 300.736 6.4584 -0.528646 0
M  V30 2991 N 294.142 -0.090211 1.57342 0
M  V30 2992 C 295.419 -0.824761 1.77361 0
M  V30 2993 C 295.799 -1.96698 0.76637 0
M  V30 2994 O 295.147 -2.27586 -0.204179 0
M  V30 2995 C 295.357 -1.31481 3.23286 0
M  V30 2996 C 296.705 -1.75563 3.86604 0
M  V30 2997 O 297.729 -1.41093 3.27065 0
M  V30 2998 O 296.588 -2.39317 4.91314 0
M  V30 2999 H 293.682 -0.393776 0.727234 0
M  V30 3000 H 296.228 -0.0717138 1.69548 0
M  V30 3001 H 295 -0.496671 3.88135 0
M  V30 3002 H 294.623 -2.12973 3.35751 0
M  V30 3003 N 295.62 -1.53406 -0.361157 0
M  V30 3004 C 296.583 -1.79479 -1.42548 0
M  V30 3005 C 297.583 -0.665327 -1.4639 0
M  V30 3006 O 298.773 -0.933549 -1.47073 0
M  V30 3007 C 295.905 -1.92087 -2.8163 0
M  V30 3008 H 297.098 -2.74538 -1.20701 0
M  V30 3009 H 294.651 -1.4455 -0.594546 0
M  V30 3010 H 295.386 -0.991099 -3.08784 0
M  V30 3011 H 295.171 -2.74241 -2.80239 0
M  V30 3012 H 296.661 -2.13836 -3.58697 0
M  V30 3013 N 297.098 0.621204 -1.44841 0
M  V30 3014 C 298.061 1.71459 -1.521 0
M  V30 3015 C 299.061 1.55696 -0.401933 0
M  V30 3016 O 300.251 1.61011 -0.664925 0
M  V30 3017 C 297.383 3.10624 -1.40447 0
M  V30 3018 H 298.576 1.66394 -2.49506 0
M  V30 3019 H 296.129 0.835745 -1.3208 0
M  V30 3020 H 296.864 3.21277 -0.441737 0
M  V30 3021 H 296.649 3.23473 -2.21602 0
M  V30 3022 H 298.139 3.90293 -1.4853 0
M  V30 3023 N 298.576 1.31904 0.862503 0
M  V30 3024 C 299.486 1.22161 2.00285 0
M  V30 3025 C 300.502 0.136785 1.73462 0
M  V30 3026 O 301.678 0.355994 1.98229 0
M  V30 3027 C 298.743 0.937093 3.33796 0
M  V30 3028 C 297.804 2.10957 3.73893 0
M  V30 3029 C 297.037 1.83853 5.01033 0
M  V30 3030 O 297.26 0.777274 5.65079 0
M  V30 3031 O 296.194 2.69741 5.38074 0
M  V30 3032 H 300.02 2.18008 2.11439 0
M  V30 3033 H 297.605 1.11716 0.991957 0
M  V30 3034 H 299.487 0.794583 4.13841 0
M  V30 3035 H 298.162 0.00871894 3.23699 0
M  V30 3036 H 297.069 2.30752 2.94456 0
M  V30 3037 H 298.402 3.02046 3.88625 0
M  V30 3038 N 300.054 -1.07777 1.14986 0
M  V30 3039 C 301.002 -2.16964 0.838406 0
M  V30 3040 C 301.996 -1.68372 -0.186386 0
M  V30 3041 O 303.202 -1.79951 -0.0418465 0
M  V30 3042 H 299.577 -0.708006 0.253439 0
M  V30 3043 H 301.548 -2.40454 1.76704 0
M  V30 3044 C 300.297 -3.4604 0.339335 0
M  V30 3045 H 299.62 -3.83813 1.11927 0
M  V30 3046 H 301.06 -4.23698 0.160021 0
M  V30 3047 C 299.519 -3.23569 -0.938325 0
M  V30 3048 O 300.049 -3.47752 -2.01077 0
M  V30 3049 N 298.255 -2.77079 -0.876117 0
M  V30 3050 H 297.802 -2.576 -0.00322037 0
M  V30 3051 H 297.76 -2.62422 -1.73153 0
M  V30 3052 N 301.532 -0.945985 -1.26051 0
M  V30 3053 C 302.479 -0.45809 -2.26208 0
M  V30 3054 C 303.449 0.484816 -1.58867 0
M  V30 3055 O 304.634 0.399969 -1.86561 0
M  V30 3056 C 301.774 0.266131 -3.44072 0
M  V30 3057 C 300.887 -0.713005 -4.26075 0
M  V30 3058 C 300.022 0.0329013 -5.3119 0
M  V30 3059 C 299.061 -0.93774 -6.04874 0
M  V30 3060 N 298.198 -0.223274 -7.01745 0
M  V30 3061 H 303.038 -1.3171 -2.67313 0
M  V30 3062 H 300.575 -0.66069 -1.31428 0
M  V30 3063 H 302.533 0.702514 -4.11243 0
M  V30 3064 H 301.163 1.08925 -3.03867 0
M  V30 3065 H 300.215 -1.26789 -3.58648 0
M  V30 3066 H 301.527 -1.45406 -4.77136 0
M  V30 3067 H 300.681 0.528335 -6.04395 0
M  V30 3068 H 299.42 0.806801 -4.8098 0
M  V30 3069 H 298.425 -1.44425 -5.30492 0
M  V30 3070 H 299.65 -1.71172 -6.57173 0
M  V30 3071 H 297.596 0.532046 -6.53839 0
M  V30 3072 H 297.513 -0.90357 -7.50581 0
M  V30 3073 H 298.781 0.250907 -7.79096 0
M  V30 3074 N 303.011 1.40521 -0.713556 0
M  V30 3075 C 303.941 2.33381 -0.0743864 0
M  V30 3076 C 304.922 1.52784 0.747735 0
M  V30 3077 O 306.107 1.81258 0.697071 0
M  V30 3078 C 303.237 3.36748 0.849598 0
M  V30 3079 C 302.191 4.27793 0.133247 0
M  V30 3080 C 301.517 5.21679 1.17281 0
M  V30 3081 C 302.817 5.12415 -1.01134 0
M  V30 3082 H 304.511 2.87081 -0.850007 0
M  V30 3083 H 302.057 1.38034 -0.410201 0
M  V30 3084 H 304.01 4.00648 1.30612 0
M  V30 3085 H 302.734 2.81439 1.65709 0
M  V30 3086 H 301.393 3.65342 -0.303426 0
M  V30 3087 H 301.041 4.62677 1.9733 0
M  V30 3088 H 300.741 5.83435 0.698397 0
M  V30 3089 H 302.265 5.88456 1.62947 0
M  V30 3090 H 303.679 5.69781 -0.634274 0
M  V30 3091 H 302.076 5.83203 -1.41399 0
M  V30 3092 H 303.146 4.48514 -1.84292 0
M  V30 3093 N 304.489 0.459591 1.5075 0
M  V30 3094 C 305.452 -0.329093 2.26825 0
M  V30 3095 C 306.452 -0.930481 1.31144 0
M  V30 3096 O 307.642 -0.801453 1.54669 0
M  V30 3097 C 304.774 -1.46768 3.07688 0
M  V30 3098 H 305.967 0.337924 2.9799 0
M  V30 3099 H 303.52 0.213336 1.54837 0
M  V30 3100 H 304.255 -2.17009 2.40993 0
M  V30 3101 H 304.04 -1.04238 3.77991 0
M  V30 3102 H 305.53 -2.02433 3.65254 0
M  V30 3103 N 305.967 -1.56429 0.191757 0
M  V30 3104 C 306.9 -2.14829 -0.76967 0
M  V30 3105 C 307.878 -1.08405 -1.2119 0
M  V30 3106 O 309.062 -1.36498 -1.30002 0
M  V30 3107 C 306.189 -2.70446 -2.03903 0
M  V30 3108 C 305.235 -3.89428 -1.7392 0
M  V30 3109 S 306.068 -5.28048 -0.890265 0
M  V30 3110 C 307.224 -5.87085 -2.16984 0
M  V30 3111 H 307.457 -2.96042 -0.273204 0
M  V30 3112 H 304.99 -1.54383 -0.0231975 0
M  V30 3113 H 306.948 -3.03134 -2.76803 0
M  V30 3114 H 305.609 -1.89281 -2.50662 0
M  V30 3115 H 304.802 -4.26742 -2.68155 0
M  V30 3116 H 304.404 -3.57732 -1.09103 0
M  V30 3117 H 306.696 -6.01244 -3.12269 0
M  V30 3118 H 307.639 -6.83747 -1.84108 0
M  V30 3119 H 308.047 -5.15663 -2.29678 0
M  V30 3120 N 307.445 0.0818655 -1.57387 0
M  V30 3121 C 308.67 0.799946 -1.91352 0
M  V30 3122 C 309.095 1.70833 -0.787258 0
M  V30 3123 O 308.453 1.79419 0.26048 0
M  V30 3124 C 308.501 1.57812 -3.24234 0
M  V30 3125 O 307.605 2.68806 -3.12757 0
M  V30 3126 H 306.946 0.21891 -0.626877 0
M  V30 3127 H 309.476 0.0531256 -2.04531 0
M  V30 3128 H 309.486 1.95952 -3.57864 0
M  V30 3129 H 308.161 0.911548 -4.05788 0
M  V30 3130 H 306.738 2.33597 -2.90666 0
M  V30 3131 N 308.923 1.53595 0.353017 0
M  V30 3132 C 309.87 1.80919 1.43308 0
M  V30 3133 C 310.84 0.654288 1.5267 0
M  V30 3134 O 312.025 0.897759 1.6836 0
M  V30 3135 C 309.165 2.01605 2.80089 0
M  V30 3136 C 308.278 3.29321 2.79593 0
M  V30 3137 C 307.413 3.40125 4.0803 0
M  V30 3138 C 306.452 4.61826 4.01725 0
M  V30 3139 N 305.589 4.69716 5.21834 0
M  V30 3140 H 310.429 2.73074 1.19308 0
M  V30 3141 H 307.966 1.35263 0.578131 0
M  V30 3142 H 309.924 2.11586 3.59565 0
M  V30 3143 H 308.554 1.12772 3.0246 0
M  V30 3144 H 307.606 3.28229 1.92276 0
M  V30 3145 H 308.918 4.18884 2.70809 0
M  V30 3146 H 308.072 3.49488 4.95927 0
M  V30 3147 H 306.811 2.48601 4.19582 0
M  V30 3148 H 305.816 4.52552 3.12213 0
M  V30 3149 H 307.041 5.54705 3.91764 0
M  V30 3150 H 304.987 3.81097 5.33948 0
M  V30 3151 H 304.904 5.53202 5.1527 0
M  V30 3152 H 306.172 4.83376 6.11529 0
M  V30 3153 N 310.401 -0.613514 1.45168 0
M  V30 3154 C 311.817 -0.933629 1.29443 0
M  V30 3155 C 312.017 -2.00028 0.243101 0
M  V30 3156 O 311.073 -2.49848 -0.364992 0
M  V30 3157 C 312.386 -1.38018 2.67155 0
M  V30 3158 C 313.934 -1.49471 2.75004 0
M  V30 3159 C 314.409 -1.97503 4.13227 0
M  V30 3160 N 315.9 -2.04746 4.15491 0
M  V30 3161 C 316.635 -2.43121 5.19307 0
M  V30 3162 N 316.131 -2.80506 6.33473 0
M  V30 3163 N 317.924 -2.43408 5.06664 0
M  V30 3164 H 310.075 0.0916097 2.12202 0
M  V30 3165 H 312.338 -0.0216655 0.947752 0
M  V30 3166 H 312.044 -0.670625 3.45247 0
M  V30 3167 H 311.918 -2.34784 2.95222 0
M  V30 3168 H 314.305 -2.19519 1.9722 0
M  V30 3169 H 314.386 -0.510342 2.50657 0
M  V30 3170 H 314.03 -1.28045 4.91495 0
M  V30 3171 H 313.96 -2.96843 4.34962 0
M  V30 3172 H 316.451 -1.78468 3.33103 0
M  V30 3173 H 316.764 -3.08652 7.08487 0
M  V30 3174 H 315.109 -2.78216 6.36884 0
M  V30 3175 H 318.3 -2.13604 4.16523 0
M  V30 3176 H 318.473 -2.72989 5.87691 0
M  V30 3177 N 311.879 -1.3236 -0.855495 0
M  V30 3178 C 313.107 -1.2587 -1.64208 0
M  V30 3179 C 313.522 0.173457 -1.88002 0
M  V30 3180 O 312.879 1.11027 -1.44842 0
M  V30 3181 C 312.93 -2.01424 -3.00184 0
M  V30 3182 O 312.651 -3.39051 -2.77445 0
M  V30 3183 C 314.152 -2.01948 -3.94629 0
M  V30 3184 H 311.372 -0.434318 -0.511477 0
M  V30 3185 H 313.916 -1.74469 -1.0668 0
M  V30 3186 H 312.071 -1.56549 -3.5436 0
M  V30 3187 H 312.485 -3.77711 -3.63916 0
M  V30 3188 H 313.959 -2.59297 -4.87308 0
M  V30 3189 H 314.436 -1.00554 -4.27534 0
M  V30 3190 H 315.042 -2.46767 -3.4639 0
M  V30 3191 N 313.357 1.07166 -1.15556 0
M  V30 3192 C 314.32 2.12589 -0.856644 0
M  V30 3193 C 315.32 1.6015 0.14444 0
M  V30 3194 O 316.51 1.7399 -0.0854163 0
M  V30 3195 C 313.642 3.39753 -0.279405 0
M  V30 3196 H 314.835 2.40539 -1.79112 0
M  V30 3197 H 312.388 1.23086 -0.963298 0
M  V30 3198 H 313.123 3.17447 0.663174 0
M  V30 3199 H 312.908 3.79117 -1.00063 0
M  V30 3200 H 314.398 4.17507 -0.0879113 0
M  V30 3201 N 314.835 0.952656 1.25548 0
M  V30 3202 C 315.765 0.489287 2.28316 0
M  V30 3203 C 316.746 -0.463359 1.63667 0
M  V30 3204 O 317.931 -0.36274 1.90782 0
M  V30 3205 C 315.061 -0.235603 3.465 0
M  V30 3206 C 314.015 0.631593 4.23314 0
M  V30 3207 C 313.341 -0.223923 5.34231 0
M  V30 3208 C 314.641 1.90871 4.86174 0
M  V30 3209 H 316.335 1.34822 2.67326 0
M  V30 3210 H 313.881 0.649728 1.28509 0
M  V30 3211 H 315.834 -0.570882 4.17515 0
M  V30 3212 H 314.558 -1.12877 3.06474 0
M  V30 3213 H 313.217 0.949929 3.54079 0
M  V30 3214 H 312.865 -1.11678 4.90446 0
M  V30 3215 H 312.565 0.35299 5.86539 0
M  V30 3216 H 314.089 -0.554214 6.0808 0
M  V30 3217 H 315.503 1.63997 5.49343 0
M  V30 3218 H 313.9 2.43112 5.4865 0
M  V30 3219 H 314.97 2.61304 4.08471 0
M  V30 3220 N 316.313 -1.40141 0.720998 0
M  V30 3221 C 317.243 -2.33339 0.0867621 0
M  V30 3222 C 318.224 -1.53178 -0.739622 0
M  V30 3223 O 319.409 -1.81625 -0.687449 0
M  V30 3224 C 316.539 -3.37194 -0.831728 0
M  V30 3225 C 315.493 -4.27857 -0.110558 0
M  V30 3226 C 314.819 -5.22294 -1.14513 0
M  V30 3227 C 316.119 -5.11872 1.0385 0
M  V30 3228 H 317.813 -2.86626 0.865219 0
M  V30 3229 H 315.359 -1.37814 0.417516 0
M  V30 3230 H 317.312 -4.01335 -1.28485 0
M  V30 3231 H 316.036 -2.82314 -1.64214 0
M  V30 3232 H 314.695 -3.65176 0.322797 0
M  V30 3233 H 314.343 -4.63717 -1.94874 0
M  V30 3234 H 314.043 -5.83797 -0.667446 0
M  V30 3235 H 315.567 -5.89312 -1.59824 0
M  V30 3236 H 316.981 -5.69436 0.664482 0
M  V30 3237 H 315.378 -5.82445 1.4449 0
M  V30 3238 H 316.448 -4.4753 1.86668 0
M  V30 3239 N 317.792 -0.46758 -1.50504 0
M  V30 3240 C 318.755 0.317059 -2.26996 0
M  V30 3241 C 319.755 0.923513 -1.31635 0
M  V30 3242 O 320.945 0.793239 -1.55091 0
M  V30 3243 C 318.077 1.45134 -3.08462 0
M  V30 3244 H 319.27 -0.353723 -2.97807 0
M  V30 3245 H 316.823 -0.221545 -1.54722 0
M  V30 3246 H 317.558 2.15728 -2.4214 0
M  V30 3247 H 317.343 1.02232 -3.78538 0
M  V30 3248 H 318.833 2.00493 -3.66323 0
M  V30 3249 N 319.27 1.56325 -0.20005 0
M  V30 3250 C 320.547 1.89484 0.48529 0
M  V30 3251 C 320.927 1.1143 1.79294 0
M  V30 3252 O 320.275 0.216919 2.27468 0
M  V30 3253 C 320.485 3.41923 0.699243 0
M  V30 3254 C 321.833 4.12256 1.01638 0
M  V30 3255 O 322.857 3.47402 0.786792 0
M  V30 3256 O 321.716 5.26887 1.45095 0
M  V30 3257 H 318.81 0.787144 0.253639 0
M  V30 3258 H 321.356 1.67985 -0.240633 0
M  V30 3259 H 320.128 3.90658 -0.224008 0
M  V30 3260 H 319.751 3.69131 1.47744 0
M  V30 3261 N 320.748 -0.0735177 1.57428 0
M  V30 3262 C 321.995 -0.772999 1.87166 0
M  V30 3263 C 322.323 -1.77665 0.791551 0
M  V30 3264 O 321.578 -1.94541 -0.212636 0
M  V30 3265 C 321.877 -1.51799 3.23561 0
M  V30 3266 C 321.543 -0.654484 4.46125 0
M  V30 3267 C 320.205 -0.416511 4.79394 0
M  V30 3268 C 322.557 -0.0555862 5.2117 0
M  V30 3269 C 319.885 0.429869 5.85123 0
M  V30 3270 C 322.237 0.778239 6.27795 0
M  V30 3271 C 320.901 1.0261 6.59566 0
M  V30 3272 H 320.171 -0.282861 0.684888 0
M  V30 3273 H 322.818 -0.0338272 1.9147 0
M  V30 3274 H 321.123 -2.32932 3.1504 0
M  V30 3275 H 322.82 -2.06397 3.43804 0
M  V30 3276 H 319.41 -0.850091 4.20085 0
M  V30 3277 H 323.594 -0.226558 4.95783 0
M  V30 3278 H 318.85 0.630665 6.08139 0
M  V30 3279 H 323.024 1.24906 6.85107 0
M  V30 3280 H 320.651 1.68371 7.4132 0
M  V30 3281 N 322.226 -1.5378 -0.344866 0
M  V30 3282 C 323.156 -1.84662 -1.42906 0
M  V30 3283 C 324.137 -0.701648 -1.54955 0
M  V30 3284 O 325.322 -0.953438 -1.69184 0
M  V30 3285 C 322.452 -2.05503 -2.79974 0
M  V30 3286 C 321.406 -3.21318 -2.82734 0
M  V30 3287 C 320.732 -3.2749 -4.22675 0
M  V30 3288 C 322.032 -4.59456 -2.48389 0
M  V30 3289 H 323.726 -2.75461 -1.17311 0
M  V30 3290 H 321.272 -1.32542 -0.562896 0
M  V30 3291 H 323.225 -2.25691 -3.55867 0
M  V30 3292 H 321.949 -1.11434 -3.07002 0
M  V30 3293 H 320.608 -3.00984 -2.09294 0
M  V30 3294 H 320.256 -2.31019 -4.4681 0
M  V30 3295 H 319.956 -4.05316 -4.25433 0
M  V30 3296 H 321.48 -3.49887 -5.00412 0
M  V30 3297 H 322.894 -4.79667 -3.13995 0
M  V30 3298 H 321.291 -5.39675 -2.62432 0
M  V30 3299 H 322.361 -4.63155 -1.4358 0
M  V30 3300 N 323.704 0.605807 -1.45491 0
M  V30 3301 C 324.95 1.36679 -1.49823 0
M  V30 3302 C 325.283 1.93693 -0.140175 0
M  V30 3303 O 324.558 1.75158 0.845581 0
M  V30 3304 C 324.841 2.51337 -2.57879 0
M  V30 3305 C 324.694 1.99508 -4.03134 0
M  V30 3306 C 326.013 3.53463 -2.62205 0
M  V30 3307 H 323.132 0.495617 -0.545466 0
M  V30 3308 H 325.774 0.682732 -1.7731 0
M  V30 3309 H 323.924 3.09691 -2.34571 0
M  V30 3310 H 325.596 1.45789 -4.37656 0
M  V30 3311 H 323.839 1.30496 -4.13707 0
M  V30 3312 H 324.51 2.82169 -4.74431 0
M  V30 3313 H 326.986 3.04953 -2.83095 0
M  V30 3314 H 325.862 4.31178 -3.39672 0
M  V30 3315 H 326.123 4.09197 -1.67363 0
M  V30 3316 N 325.182 1.32811 0.848464 0
M  V30 3317 C 326.112 1.24882 1.97299 0
M  V30 3318 C 327.093 0.131357 1.69592 0
M  V30 3319 O 328.278 0.319553 1.91553 0
M  V30 3320 C 325.408 0.97746 3.33261 0
M  V30 3321 C 324.362 2.05682 3.75338 0
M  V30 3322 C 323.688 1.63777 5.09 0
M  V30 3323 C 324.988 3.47254 3.90144 0
M  V30 3324 H 326.682 2.18966 2.04191 0
M  V30 3325 H 324.228 1.05413 0.981029 0
M  V30 3326 H 326.181 0.908513 4.1149 0
M  V30 3327 H 324.905 0.000980011 3.266 0
M  V30 3328 H 323.564 2.11603 2.99366 0
M  V30 3329 H 323.212 0.648569 4.98801 0
M  V30 3330 H 322.912 2.36 5.38124 0
M  V30 3331 H 324.436 1.5833 5.89715 0
M  V30 3332 H 325.85 3.43888 4.58709 0
M  V30 3333 H 324.247 4.1788 4.30693 0
M  V30 3334 H 325.317 3.86462 2.92874 0
M  V30 3335 N 326.66 -1.06551 1.16123 0
M  V30 3336 C 328.076 -1.3142 0.905585 0
M  V30 3337 C 328.276 -1.96571 -0.442964 0
M  V30 3338 O 327.332 -2.23068 -1.18308 0
M  V30 3339 C 328.645 -2.19741 2.05267 0
M  V30 3340 C 330.193 -2.33165 2.08813 0
M  V30 3341 C 330.668 -3.24838 3.22868 0
M  V30 3342 N 332.159 -3.32421 3.22568 0
M  V30 3343 C 332.894 -4.0344 4.0746 0
M  V30 3344 N 332.39 -4.77003 5.02434 0
M  V30 3345 N 334.183 -3.99464 3.95456 0
M  V30 3346 H 326.334 -0.626548 2.02949 0
M  V30 3347 H 328.597 -0.338777 0.8854 0
M  V30 3348 H 328.303 -1.79142 3.02657 0
M  V30 3349 H 328.177 -3.20313 1.99198 0
M  V30 3350 H 330.564 -2.73013 1.12018 0
M  V30 3351 H 330.645 -1.3227 2.18948 0
M  V30 3352 H 330.289 -2.85708 4.19921 0
M  V30 3353 H 330.219 -4.25707 3.0997 0
M  V30 3354 H 332.71 -2.79994 2.53795 0
M  V30 3355 H 333.023 -5.28712 5.63634 0
M  V30 3356 H 331.368 -4.75992 5.06415 0
M  V30 3357 H 334.559 -3.4111 3.20564 0
M  V30 3358 H 334.732 -4.54544 4.61837 0
M  V30 3359 N 328.138 -0.959301 -1.25041 0
M  V30 3360 C 329.088 -0.453888 -2.23436 0
M  V30 3361 C 330.072 0.459461 -1.542 0
M  V30 3362 O 331.264 0.291752 -1.74579 0
M  V30 3363 C 328.393 0.262667 -3.42294 0
M  V30 3364 C 327.479 -0.669022 -4.1879 0
M  V30 3365 N 327.87 -1.80267 -4.72586 0
M  V30 3366 C 326.168 -0.47814 -4.4343 0
M  V30 3367 C 326.869 -2.38475 -5.3057 0
M  V30 3368 N 325.845 -1.67078 -5.17287 0
M  V30 3369 H 329.647 -1.319 -2.6264 0
M  V30 3370 H 327.161 -0.817358 -1.40332 0
M  V30 3371 H 329.158 0.641911 -4.11929 0
M  V30 3372 H 327.818 1.12432 -3.04613 0
M  V30 3373 H 328.829 -2.18442 -4.69578 0
M  V30 3374 H 325.506 0.340249 -4.16111 0
M  V30 3375 H 326.896 -3.34094 -5.8295 0
M  V30 3376 N 329.616 1.39756 -0.72842 0
M  V30 3377 C 330.864 2.00248 -0.272946 0
M  V30 3378 C 331.185 1.58077 1.14178 0
M  V30 3379 O 330.455 0.826014 1.77634 0
M  V30 3380 H 329.035 0.740554 -0.0979247 0
M  V30 3381 H 331.697 1.70903 -0.936912 0
M  V30 3382 H 330.793 3.10495 -0.316142 0
M  V30 3383 N 331.094 0.475555 1.50254 0
M  V30 3384 C 332.024 -0.30611 2.31485 0
M  V30 3385 C 333.005 -0.986228 1.38591 0
M  V30 3386 O 334.19 -0.982541 1.67511 0
M  V30 3387 C 331.32 -1.38588 3.1845 0
M  V30 3388 C 330.274 -0.827115 4.19932 0
M  V30 3389 C 329.6 -2.00551 4.95665 0
M  V30 3390 C 330.9 0.16463 5.2204 0
M  V30 3391 H 332.594 0.371866 2.97082 0
M  V30 3392 H 330.14 0.180282 1.42867 0
M  V30 3393 H 332.093 -1.94023 3.74076 0
M  V30 3394 H 330.817 -2.09269 2.50747 0
M  V30 3395 H 329.476 -0.294702 3.65414 0
M  V30 3396 H 329.124 -2.6994 4.2443 0
M  V30 3397 H 328.824 -1.63784 5.64313 0
M  V30 3398 H 330.348 -2.56468 5.54127 0
M  V30 3399 H 331.762 -0.300699 5.72511 0
M  V30 3400 H 330.159 0.446813 5.98434 0
M  V30 3401 H 331.229 1.08905 4.72512 0
M  V30 3402 N 332.573 -1.56217 0.208337 0
M  V30 3403 C 333.52 -2.19699 -0.707192 0
M  V30 3404 C 334.49 -1.14836 -1.20008 0
M  V30 3405 O 335.675 -1.4314 -1.26157 0
M  V30 3406 C 332.815 -2.87061 -1.91546 0
M  V30 3407 C 331.928 -4.06483 -1.46271 0
M  V30 3408 C 331.063 -4.61665 -2.62752 0
M  V30 3409 C 330.102 -5.73417 -2.14147 0
M  V30 3410 N 329.239 -6.22948 -3.23853 0
M  V30 3411 H 334.079 -2.97575 -0.159111 0
M  V30 3412 H 331.616 -1.46948 -0.0667874 0
M  V30 3413 H 333.574 -3.24294 -2.62468 0
M  V30 3414 H 332.204 -2.11725 -2.43664 0
M  V30 3415 H 331.256 -3.74825 -0.648886 0
M  V30 3416 H 332.568 -4.87271 -1.06622 0
M  V30 3417 H 331.722 -5.01272 -3.41776 0
M  V30 3418 H 330.461 -3.80013 -3.05682 0
M  V30 3419 H 329.466 -5.33326 -1.33581 0
M  V30 3420 H 330.691 -6.56897 -1.72232 0
M  V30 3421 H 328.637 -5.44213 -3.6629 0
M  V30 3422 H 328.554 -6.98823 -2.88414 0
M  V30 3423 H 329.822 -6.6721 -4.03052 0
M  V30 3424 N 334.051 0.0651679 -1.57465 0
M  V30 3425 C 335.001 1.0838 -2.00594 0
M  V30 3426 C 335.985 1.34106 -0.889071 0
M  V30 3427 O 337.177 1.34295 -1.15299 0
M  V30 3428 C 334.306 2.39565 -2.45894 0
M  V30 3429 C 333.392 2.17085 -3.64328 0
M  V30 3430 N 333.783 1.64553 -4.78285 0
M  V30 3431 C 332.081 2.4753 -3.71006 0
M  V30 3432 C 332.782 1.57042 -5.60101 0
M  V30 3433 N 331.758 2.03328 -5.04141 0
M  V30 3434 H 335.56 0.671062 -2.86136 0
M  V30 3435 H 333.074 0.27213 -1.60104 0
M  V30 3436 H 335.071 3.13308 -2.75034 0
M  V30 3437 H 333.731 2.81549 -1.61741 0
M  V30 3438 H 334.742 1.33323 -5.00445 0
M  V30 3439 H 331.419 2.92835 -2.9758 0
M  V30 3440 H 332.809 1.17223 -6.61595 0
M  V30 3441 N 335.529 1.53961 0.336706 0
M  V30 3442 C 336.492 1.81724 1.39675 0
M  V30 3443 C 337.492 0.688532 1.45313 0
M  V30 3444 O 338.682 0.956829 1.45569 0
M  V30 3445 C 335.814 1.96543 2.78538 0
M  V30 3446 H 337.007 2.76424 1.16318 0
M  V30 3447 H 334.56 1.45478 0.571474 0
M  V30 3448 H 335.295 1.0401 3.07168 0
M  V30 3449 H 335.08 2.78665 2.75841 0
M  V30 3450 H 336.57 2.19516 3.5525 0
M  V30 3451 N 337.007 -0.598083 1.45811 0
M  V30 3452 C 337.937 -1.71873 1.58057 0
M  V30 3453 C 338.918 -1.64533 0.431615 0
M  V30 3454 O 340.103 -1.82787 0.65595 0
M  V30 3455 C 337.233 -3.10495 1.55597 0
M  V30 3456 C 336.187 -3.32654 2.69305 0
M  V30 3457 C 335.513 -4.71646 2.51902 0
M  V30 3458 C 336.813 -3.21981 4.11248 0
M  V30 3459 H 338.507 -1.61881 2.51863 0
M  V30 3460 H 336.053 -0.777372 1.21214 0
M  V30 3461 H 338.006 -3.88699 1.6276 0
M  V30 3462 H 336.73 -3.2135 0.583255 0
M  V30 3463 H 335.389 -2.56843 2.61586 0
M  V30 3464 H 335.037 -4.79246 1.52748 0
M  V30 3465 H 334.737 -4.87426 3.2816 0
M  V30 3466 H 336.261 -5.52038 2.60933 0
M  V30 3467 H 337.675 -3.90049 4.20161 0
M  V30 3468 H 336.072 -3.49289 4.87972 0
M  V30 3469 H 337.142 -2.1928 4.32486 0
M  V30 3470 N 338.485 -1.33259 -0.841409 0
M  V30 3471 C 339.417 -1.19136 -1.95804 0
M  V30 3472 C 340.43 -0.122965 -1.62335 0
M  V30 3473 O 341.619 -0.373154 -1.74556 0
M  V30 3474 C 338.719 -0.804268 -3.29218 0
M  V30 3475 C 337.892 -1.96376 -3.90839 0
M  V30 3476 C 336.951 -1.55806 -5.02604 0
M  V30 3477 O 335.977 -2.27203 -5.21888 0
M  V30 3478 N 337.179 -0.461609 -5.78662 0
M  V30 3479 H 339.944 -2.15326 -2.08458 0
M  V30 3480 H 337.505 -1.25971 -1.017 0
M  V30 3481 H 339.497 -0.51501 -4.0141 0
M  V30 3482 H 338.067 0.0668809 -3.12528 0
M  V30 3483 H 337.287 -2.41879 -3.11269 0
M  V30 3484 H 338.575 -2.73966 -4.28742 0
M  V30 3485 H 337.973 0.132343 -5.65545 0
M  V30 3486 H 336.53 -0.232013 -6.51387 0
M  V30 3487 N 339.963 1.05934 -1.16686 0
M  V30 3488 C 340.91 2.13499 -0.876748 0
M  V30 3489 C 341.88 1.65162 0.176299 0
M  V30 3490 O 343.065 1.90757 0.0407143 0
M  V30 3491 C 340.205 3.42912 -0.387967 0
M  V30 3492 C 339.318 4.04964 -1.50426 0
M  V30 3493 C 338.453 5.22266 -0.970125 0
M  V30 3494 C 337.492 5.76309 -2.06238 0
M  V30 3495 N 336.629 6.84922 -1.54356 0
M  V30 3496 H 341.469 2.37654 -1.7979 0
M  V30 3497 H 339.006 1.16598 -0.896843 0
M  V30 3498 H 340.964 4.17111 -0.086186 0
M  V30 3499 H 339.594 3.18963 0.496235 0
M  V30 3500 H 338.646 3.28277 -1.92193 0
M  V30 3501 H 339.958 4.41122 -2.32836 0
M  V30 3502 H 339.112 6.03506 -0.621743 0
M  V30 3503 H 337.851 4.87564 -0.115377 0
M  V30 3504 H 336.856 4.93704 -2.41942 0
M  V30 3505 H 338.081 6.13062 -2.92115 0
M  V30 3506 H 336.027 6.52131 -0.711406 0
M  V30 3507 H 335.944 7.20043 -2.30379 0
M  V30 3508 H 337.212 7.69832 -1.22387 0
M  V30 3509 N 341.441 0.965919 1.2453 0
M  V30 3510 C 342.687 0.637349 1.93156 0
M  V30 3511 C 343.042 -0.818261 1.74133 0
M  V30 3512 O 342.335 -1.58079 1.08266 0
M  V30 3513 C 342.529 0.945428 3.44669 0
M  V30 3514 C 342.358 2.42944 3.78429 0
M  V30 3515 C 341.128 3.08895 3.9989 0
M  V30 3516 C 343.326 3.40941 3.8505 0
M  V30 3517 N 341.308 4.47052 4.20735 0
M  V30 3518 C 342.679 4.64448 4.10717 0
M  V30 3519 C 344.734 3.35624 3.67779 0
M  V30 3520 C 343.437 5.83292 4.20907 0
M  V30 3521 C 345.463 4.53818 3.79214 0
M  V30 3522 C 344.825 5.76114 4.05304 0
M  V30 3523 H 340.924 0.284034 0.728594 0
M  V30 3524 H 343.508 1.24041 1.50073 0
M  V30 3525 H 341.679 0.371193 3.86622 0
M  V30 3526 H 343.411 0.575613 4.00586 0
M  V30 3527 H 340.166 2.59432 3.96222 0
M  V30 3528 H 340.59 5.18634 4.35141 0
M  V30 3529 H 345.232 2.4211 3.46616 0
M  V30 3530 H 342.95 6.77236 4.40883 0
M  V30 3531 H 346.536 4.51263 3.67224 0
M  V30 3532 H 345.416 6.66045 4.13949 0
M  V30 3533 N 342.919 -1.39368 0.735821 0
M  V30 3534 C 344.165 -2.00794 0.284544 0
M  V30 3535 C 344.498 -1.58255 -1.12557 0
M  V30 3536 O 343.773 -0.811819 -1.76748 0
M  V30 3537 C 344.056 -3.58011 0.387337 0
M  V30 3538 C 343.909 -4.10566 1.83728 0
M  V30 3539 C 345.228 -4.395 -0.22975 0
M  V30 3540 H 342.347 -0.729501 0.104866 0
M  V30 3541 H 344.989 -1.65564 0.93213 0
M  V30 3542 H 343.139 -3.88154 -0.164006 0
M  V30 3543 H 344.811 -3.91139 2.44556 0
M  V30 3544 H 343.054 -3.64095 2.35833 0
M  V30 3545 H 343.725 -5.19702 1.86047 0
M  V30 3546 H 346.201 -4.15406 0.240257 0
M  V30 3547 H 345.077 -5.48752 -0.127485 0
M  V30 3548 H 345.338 -4.22062 -1.3159 0
M  V30 3549 N 344.397 -0.483516 -1.5 0
M  V30 3550 C 345.344 0.304164 -2.28787 0
M  V30 3551 C 346.314 0.976114 -1.34392 0
M  V30 3552 O 347.499 0.986156 -1.63339 0
M  V30 3553 C 344.639 1.37298 -3.16612 0
M  V30 3554 C 343.752 0.714561 -4.26049 0
M  V30 3555 C 342.887 1.76232 -5.01114 0
M  V30 3556 C 341.926 1.08483 -6.0241 0
M  V30 3557 N 341.063 2.076 -6.70706 0
M  V30 3558 H 345.903 -0.373981 -2.95644 0
M  V30 3559 H 343.44 -0.196275 -1.45785 0
M  V30 3560 H 345.398 2.00445 -3.65893 0
M  V30 3561 H 344.028 2.02012 -2.51776 0
M  V30 3562 H 343.08 -0.0297798 -3.80388 0
M  V30 3563 H 344.392 0.180383 -4.98474 0
M  V30 3564 H 343.546 2.46929 -5.54176 0
M  V30 3565 H 342.285 2.33033 -4.28424 0
M  V30 3566 H 341.29 0.363545 -5.48597 0
M  V30 3567 H 342.515 0.523551 -6.77079 0
M  V30 3568 H 340.461 2.63394 -6.00799 0
M  V30 3569 H 340.378 1.59201 -7.39047 0
M  V30 3570 H 341.646 2.77639 -7.2838 0
M  V30 3571 N 345.875 1.56104 -0.216619 0
M  V30 3572 C 346.785 2.23694 0.706982 0
M  V30 3573 C 347.801 1.24295 1.21765 0
M  V30 3574 O 348.977 1.57094 1.2603 0
M  V30 3575 C 346.042 2.8998 1.90033 0
M  V30 3576 C 345.103 4.04708 1.43213 0
M  V30 3577 C 344.336 4.67824 2.56859 0
M  V30 3578 O 344.559 4.29913 3.74874 0
M  V30 3579 O 343.493 5.56905 2.28343 0
M  V30 3580 H 347.319 3.03272 0.161235 0
M  V30 3581 H 344.904 1.49394 0.0136177 0
M  V30 3582 H 346.786 3.31837 2.59735 0
M  V30 3583 H 345.461 2.13365 2.43428 0
M  V30 3584 H 344.368 3.6743 0.70327 0
M  V30 3585 H 345.701 4.83051 0.944615 0
M  V30 3586 N 347.353 -0.0568162 1.57498 0
M  V30 3587 C 348.599 -0.75422 1.88253 0
M  V30 3588 C 348.932 -1.76461 0.810865 0
M  V30 3589 O 348.207 -1.93691 -0.177259 0
M  V30 3590 C 348.49 -1.44878 3.2967 0
M  V30 3591 C 348.343 -0.453789 4.47505 0
M  V30 3592 C 349.662 -2.38994 3.69554 0
M  V30 3593 H 346.781 -0.272724 0.684683 0
M  V30 3594 H 349.423 -0.0172113 1.89992 0
M  V30 3595 H 347.573 -2.077 3.28318 0
M  V30 3596 H 349.245 0.170371 4.60985 0
M  V30 3597 H 347.488 0.229552 4.33192 0
M  V30 3598 H 348.159 -0.977699 5.43273 0
M  V30 3599 H 350.635 -1.86239 3.72095 0
M  V30 3600 H 349.511 -2.84587 4.69363 0
M  V30 3601 H 349.772 -3.24461 3.00296 0
M  V30 3602 N 348.832 -1.54138 -0.328536 0
M  V30 3603 C 350.243 -1.63395 -0.903272 0
M  V30 3604 C 350.594 -0.524828 -1.8905 0
M  V30 3605 O 349.719 0.343068 -2.13663 0
M  V30 3606 C 350.314 -2.9618 -1.64507 0
M  V30 3607 C 348.873 -3.0765 -2.1686 0
M  V30 3608 C 348.02 -2.58933 -0.992416 0
M  V30 3609 H 350.971 -1.58344 -0.106253 0
M  V30 3610 H 350.992 -2.86061 -2.50897 0
M  V30 3611 H 350.504 -3.76884 -0.926302 0
M  V30 3612 H 348.605 -2.31611 -2.91868 0
M  V30 3613 H 348.718 -4.1337 -2.42202 0
M  V30 3614 H 347.082 -2.14706 -1.37016 0
M  V30 3615 H 347.865 -3.42089 -0.288041 0
M  V30 3616 N 350.31 0.590341 -1.46126 0
M  V30 3617 C 351.243 1.71434 -1.50617 0
M  V30 3618 C 352.221 1.58543 -0.360948 0
M  V30 3619 O 353.405 1.79865 -0.563985 0
M  V30 3620 C 350.532 3.09422 -1.37753 0
M  V30 3621 C 349.578 3.40854 -2.5636 0
M  V30 3622 S 350.411 3.33773 -4.18755 0
M  V30 3623 C 351.567 4.74312 -4.08386 0
M  V30 3624 H 351.8 1.67364 -2.45717 0
M  V30 3625 H 349.333 0.76845 -1.33919 0
M  V30 3626 H 351.291 3.8903 -1.31018 0
M  V30 3627 H 349.952 3.10989 -0.440949 0
M  V30 3628 H 349.145 4.41368 -2.43332 0
M  V30 3629 H 348.747 2.68798 -2.60046 0
M  V30 3630 H 351.039 5.64522 -3.74595 0
M  V30 3631 H 351.982 4.92397 -5.08872 0
M  V30 3632 H 352.39 4.50803 -3.3976 0
M  V30 3633 N 351.788 1.33704 0.83433 0
M  V30 3634 C 352.751 1.24244 1.92603 0
M  V30 3635 C 353.751 0.160383 1.59998 0
M  V30 3636 O 354.941 0.412228 1.69252 0
M  V30 3637 C 352.073 0.91555 3.28376 0
M  V30 3638 H 353.266 2.21287 2.02416 0
M  V30 3639 H 350.819 1.17827 1.02696 0
M  V30 3640 H 351.554 -0.0521886 3.24258 0
M  V30 3641 H 351.339 1.69811 3.53422 0
M  V30 3642 H 352.829 0.874231 4.08347 0
M  V30 3643 N 353.266 -1.05314 1.17247 0
M  V30 3644 C 354.216 -2.11313 0.856196 0
M  V30 3645 C 355.2 -1.60013 -0.168694 0
M  V30 3646 O 356.392 -1.76968 0.0335624 0
M  V30 3647 C 353.521 -3.41301 0.369917 0
M  V30 3648 C 352.607 -3.99401 1.42616 0
M  V30 3649 N 352.998 -4.31481 2.63928 0
M  V30 3650 C 351.296 -4.27126 1.28373 0
M  V30 3651 C 351.997 -4.77799 3.31787 0
M  V30 3652 N 350.973 -4.77843 2.59166 0
M  V30 3653 H 354.775 -2.33976 1.77856 0
M  V30 3654 H 352.289 -1.2295 1.06099 0
M  V30 3655 H 354.286 -4.16713 0.124897 0
M  V30 3656 H 352.946 -3.20072 -0.546253 0
M  V30 3657 H 353.957 -4.21519 3.00902 0
M  V30 3658 H 350.634 -4.15289 0.429111 0
M  V30 3659 H 352.024 -5.11743 4.35395 0
M  V30 3660 N 354.744 -0.972509 -1.24016 0
M  V30 3661 C 355.707 -0.511403 -2.23422 0
M  V30 3662 C 356.707 0.394679 -1.55881 0
M  V30 3663 O 357.897 0.189469 -1.73167 0
M  V30 3664 C 355.029 0.258769 -3.39916 0
M  V30 3665 H 356.222 -1.39024 -2.6573 0
M  V30 3666 H 353.775 -0.757585 -1.36713 0
M  V30 3667 H 354.51 1.1545 -3.03054 0
M  V30 3668 H 354.295 -0.391522 -3.9014 0
M  V30 3669 H 355.785 0.570244 -4.13688 0
M  V30 3670 N 356.222 1.38976 -0.743202 0
M  V30 3671 C 357.45 2.04636 -0.30525 0
M  V30 3672 C 357.865 1.56044 1.06281 0
M  V30 3673 O 357.222 0.728921 1.67311 0
M  V30 3674 C 357.273 3.60193 -0.307177 0
M  V30 3675 O 356.994 4.06998 -1.62124 0
M  V30 3676 C 358.495 4.4306 0.145928 0
M  V30 3677 H 355.715 0.65788 -0.132041 0
M  V30 3678 H 358.259 1.77866 -1.00915 0
M  V30 3679 H 356.414 3.85835 0.347898 0
M  V30 3680 H 356.828 5.01371 -1.54036 0
M  V30 3681 H 358.302 5.51921 0.0934183 0
M  V30 3682 H 358.779 4.22706 1.19231 0
M  V30 3683 H 359.385 4.22584 -0.479886 0
M  V30 3684 N 357.7 0.491464 1.49741 0
M  V30 3685 C 358.633 -0.338464 2.25676 0
M  V30 3686 C 359.611 -0.978676 1.29849 0
M  V30 3687 O 360.795 -1.01064 1.59117 0
M  V30 3688 C 357.922 -1.47588 3.04853 0
M  V30 3689 C 356.968 -0.951 4.15762 0
M  V30 3690 S 357.801 0.150626 5.35288 0
M  V30 3691 C 358.957 -0.990178 6.18018 0
M  V30 3692 H 359.19 0.306068 2.9572 0
M  V30 3693 H 356.723 0.276622 1.51902 0
M  V30 3694 H 358.681 -2.12764 3.51058 0
M  V30 3695 H 357.342 -2.09199 2.34296 0
M  V30 3696 H 356.535 -1.80311 4.70642 0
M  V30 3697 H 356.137 -0.376607 3.72099 0
M  V30 3698 H 358.429 -1.89748 6.50386 0
M  V30 3699 H 359.372 -0.480205 7.0647 0
M  V30 3700 H 359.78 -1.25321 5.50413 0
M  V30 3701 N 359.178 -1.55987 0.224894 0
M  V30 3702 C 360.108 -2.23426 -0.678457 0
M  V30 3703 C 361.089 -1.20709 -1.19847 0
M  V30 3704 O 362.274 -1.49304 -1.24186 0
M  V30 3705 C 359.404 -2.91676 -1.88527 0
M  V30 3706 C 358.358 -4.00893 -1.49896 0
M  V30 3707 C 357.684 -4.56455 -2.78483 0
M  V30 3708 C 358.984 -5.17769 -0.686461 0
M  V30 3709 H 360.678 -2.99175 -0.116173 0
M  V30 3710 H 358.224 -1.43897 -0.054436 0
M  V30 3711 H 360.177 -3.37547 -2.5227 0
M  V30 3712 H 358.901 -2.1338 -2.47258 0
M  V30 3713 H 357.56 -3.55758 -0.884985 0
M  V30 3714 H 357.208 -3.74886 -3.35365 0
M  V30 3715 H 356.908 -5.30169 -2.53368 0
M  V30 3716 H 358.432 -5.05047 -3.43162 0
M  V30 3717 H 359.846 -5.60001 -1.22767 0
M  V30 3718 H 358.243 -5.97735 -0.532259 0
M  V30 3719 H 359.313 -4.83932 0.306196 0
M  V30 3720 N 360.656 0.0484629 -1.57525 0
M  V30 3721 C 361.589 1.08755 -2.00618 0
M  V30 3722 C 362.567 1.36272 -0.887058 0
M  V30 3723 O 363.751 1.49255 -1.15131 0
M  V30 3724 C 360.878 2.42675 -2.36277 0
M  V30 3725 C 359.924 2.31142 -3.58435 0
M  V30 3726 S 360.757 1.68326 -5.08357 0
M  V30 3727 C 361.913 3.03776 -5.47239 0
M  V30 3728 H 362.146 0.720415 -2.88439 0
M  V30 3729 H 359.679 0.257801 -1.52233 0
M  V30 3730 H 361.637 3.19699 -2.57494 0
M  V30 3731 H 360.298 2.76541 -1.48942 0
M  V30 3732 H 359.491 3.29957 -3.80978 0
M  V30 3733 H 359.093 1.62258 -3.36969 0
M  V30 3734 H 361.385 4.00106 -5.46737 0
M  V30 3735 H 362.328 2.85988 -6.47778 0
M  V30 3736 H 362.736 3.05456 -4.74718 0
M  V30 3737 N 362.134 1.5431 0.320358 0
M  V30 3738 C 363.382 1.72327 1.05583 0
M  V30 3739 C 363.703 0.50149 1.88441 0
M  V30 3740 O 362.973 -0.48448 1.89815 0
M  V30 3741 H 361.553 0.635387 0.3928 0
M  V30 3742 H 364.215 1.91621 0.356019 0
M  V30 3743 H 363.311 2.60426 1.72003 0
M  V30 3744 N 363.613 -0.582584 1.46437 0
M  V30 3745 C 364.56 -1.69164 1.5701 0
M  V30 3746 C 365.53 -1.60847 0.414403 0
M  V30 3747 O 366.715 -1.80058 0.631171 0
M  V30 3748 C 363.855 -3.075 1.56646 0
M  V30 3749 C 362.968 -3.2644 2.82951 0
M  V30 3750 C 362.103 -4.55026 2.7409 0
M  V30 3751 C 361.142 -4.6731 3.95333 0
M  V30 3752 N 360.279 -5.87221 3.84858 0
M  V30 3753 H 365.119 -1.59464 2.51744 0
M  V30 3754 H 362.656 -0.777186 1.24893 0
M  V30 3755 H 364.614 -3.8757 1.5442 0
M  V30 3756 H 363.244 -3.16096 0.654439 0
M  V30 3757 H 362.296 -2.39974 2.95155 0
M  V30 3758 H 363.608 -3.31385 3.72808 0
M  V30 3759 H 362.762 -5.43324 2.6997 0
M  V30 3760 H 361.501 -4.52519 1.81873 0
M  V30 3761 H 360.506 -3.77429 3.99784 0
M  V30 3762 H 361.731 -4.71595 4.88646 0
M  V30 3763 H 359.677 -5.85712 2.95427 0
M  V30 3764 H 359.594 -5.93435 4.6837 0
M  V30 3765 H 360.862 -6.7795 3.84713 0
M  V30 3766 N 365.091 -1.34144 -0.827227 0
M  V30 3767 C 366.339 -1.26009 -1.58007 0
M  V30 3768 C 366.66 0.170971 -1.94249 0
M  V30 3769 O 365.93 1.10256 -1.61927 0
M  V30 3770 H 364.51 -0.463414 -0.585881 0
M  V30 3771 H 367.172 -1.68005 -0.987951 0
M  V30 3772 H 366.268 -1.86187 -2.50481 0
M  V30 3773 N 366.569 1.04691 -1.17803 0
M  V30 3774 C 367.818 1.77176 -0.963931 0
M  V30 3775 C 368.131 1.88888 0.508015 0
M  V30 3776 O 369.337 2.58164 0.840465 0
M  V30 3777 C 367.793 3.18518 -1.67555 0
M  V30 3778 C 367.401 3.14919 -3.18637 0
M  V30 3779 C 369.145 3.95424 -1.54402 0
M  V30 3780 C 367.052 4.51081 -3.82466 0
M  V30 3781 H 365.982 0.664116 -0.357023 0
M  V30 3782 H 368.633 1.17303 -1.4111 0
M  V30 3783 H 367.015 3.78748 -1.15613 0
M  V30 3784 H 368.189 2.64178 -3.77554 0
M  V30 3785 H 366.504 2.51512 -3.31859 0
M  V30 3786 H 369.101 4.96106 -1.99456 0
M  V30 3787 H 369.444 4.13343 -0.495329 0
M  V30 3788 H 369.977 3.41754 -2.0359 0
M  V30 3789 H 366.716 4.38368 -4.87354 0
M  V30 3790 H 366.236 5.01951 -3.28337 0
M  V30 3791 H 367.915 5.2001 -3.84965 0
M  V30 3792 N 368.047 0.979072 1.23499 0
M  V30 3793 C 369.294 0.647219 1.91878 0
M  V30 3794 C 369.622 -0.819074 1.76413 0
M  V30 3795 O 368.877 -1.60616 1.11808 0
M  V30 3796 C 369.176 0.981932 3.43646 0
M  V30 3797 C 368.842 2.43822 3.79291 0
M  V30 3798 C 367.504 2.83622 3.88731 0
M  V30 3799 C 369.856 3.3828 3.96505 0
M  V30 3800 C 367.184 4.16897 4.12812 0
M  V30 3801 C 369.536 4.71197 4.22085 0
M  V30 3802 C 368.2 5.10758 4.29747 0
M  V30 3803 H 367.47 0.236834 0.702133 0
M  V30 3804 H 370.117 1.23268 1.46551 0
M  V30 3805 H 368.422 0.314365 3.90537 0
M  V30 3806 H 370.119 0.703395 3.94783 0
M  V30 3807 H 366.709 2.11966 3.72516 0
M  V30 3808 H 370.893 3.0871 3.88603 0
M  V30 3809 H 366.149 4.47157 4.16966 0
M  V30 3810 H 370.323 5.44348 4.34348 0
M  V30 3811 H 367.95 6.1405 4.48159 0
M  V30 3812 N 369.525 -1.3858 0.750561 0
M  V30 3813 C 370.802 -1.94231 0.231009 0
M  V30 3814 C 371.182 -1.68611 -1.27018 0
M  V30 3815 O 370.53 -1.02296 -2.04323 0
M  V30 3816 C 370.74 -3.44123 0.581428 0
M  V30 3817 C 372.088 -4.2116 0.539389 0
M  V30 3818 O 373.112 -3.52391 0.519541 0
M  V30 3819 O 371.971 -5.43749 0.54765 0
M  V30 3820 H 369.065 -0.825639 0.0474263 0
M  V30 3821 H 371.611 -1.4799 0.830478 0
M  V30 3822 H 370.383 -3.56267 1.61833 0
M  V30 3823 H 370.006 -3.97573 -0.0462047 0
M  V30 3824 N 371.003 -0.499398 -1.49478 0
M  V30 3825 C 371.913 0.284489 -2.32869 0
M  V30 3826 C 372.929 0.968885 -1.44529 0
M  V30 3827 O 374.105 0.95062 -1.77553 0
M  V30 3828 C 371.17 1.33594 -3.19928 0
M  V30 3829 C 370.231 0.665149 -4.24116 0
M  V30 3830 C 369.464 1.6665 -5.07014 0
M  V30 3831 O 369.687 2.89618 -4.91404 0
M  V30 3832 O 368.621 1.22271 -5.8935 0
M  V30 3833 H 372.447 -0.39802 -3.01081 0
M  V30 3834 H 370.032 -0.260758 -1.47107 0
M  V30 3835 H 371.914 1.94431 -3.73864 0
M  V30 3836 H 370.589 2.0014 -2.54412 0
M  V30 3837 H 369.496 0.0170769 -3.74096 0
M  V30 3838 H 370.829 0.0421555 -4.92182 0
M  V30 3839 N 372.481 1.55866 -0.233164 0
M  V30 3840 C 373.897 1.59133 0.121988 0
M  V30 3841 C 374.097 1.25016 1.58029 0
M  V30 3842 O 373.153 0.990922 2.32243 0
M  V30 3843 C 374.466 2.99932 -0.214792 0
M  V30 3844 C 376.014 3.12601 -0.157971 0
M  V30 3845 C 376.489 4.55597 -0.46859 0
M  V30 3846 N 377.98 4.61305 -0.418585 0
M  V30 3847 C 378.715 5.69903 -0.63227 0
M  V30 3848 N 378.211 6.86819 -0.90835 0
M  V30 3849 N 380.004 5.59264 -0.563913 0
M  V30 3850 H 372.155 1.76315 -1.18434 0
M  V30 3851 H 374.418 0.820093 -0.475553 0
M  V30 3852 H 374.124 3.29588 -1.22739 0
M  V30 3853 H 373.998 3.74327 0.464691 0
M  V30 3854 H 376.385 2.82735 0.845283 0
M  V30 3855 H 376.466 2.40511 -0.871102 0
M  V30 3856 H 376.11 4.86182 -1.46934 0
M  V30 3857 H 376.04 5.25928 0.265865 0
M  V30 3858 H 378.531 3.77297 -0.213368 0
M  V30 3859 H 378.844 7.65507 -1.05919 0
M  V30 3860 H 377.189 6.88536 -0.945673 0
M  V30 3861 H 380.38 4.66802 -0.348372 0
M  V30 3862 H 380.553 6.43831 -0.733847 0
M  V30 3863 N 373.959 -0.0401083 1.57549 0
M  V30 3864 C 374.891 -1.07149 2.02612 0
M  V30 3865 C 375.904 -1.33126 0.937085 0
M  V30 3866 O 377.093 -1.30808 1.21456 0
M  V30 3867 C 374.193 -2.41561 2.37701 0
M  V30 3868 C 373.366 -2.35096 3.68848 0
M  V30 3869 C 372.425 -3.51867 3.91249 0
M  V30 3870 O 371.451 -3.3186 4.62447 0
M  V30 3871 N 372.653 -4.73351 3.36035 0
M  V30 3872 H 375.418 -0.687485 2.91708 0
M  V30 3873 H 372.979 -0.228248 1.60283 0
M  V30 3874 H 374.971 -3.18379 2.49833 0
M  V30 3875 H 373.541 -2.71846 1.54332 0
M  V30 3876 H 372.761 -1.4345 3.67173 0
M  V30 3877 H 374.049 -2.27908 4.54901 0
M  V30 3878 H 373.447 -4.92507 2.78304 0
M  V30 3879 H 372.004 -5.47572 3.53565 0
M  V30 3880 N 375.437 -1.54477 -0.31217 0
M  V30 3881 C 376.4 -1.83923 -1.36766 0
M  V30 3882 C 377.4 -0.711563 -1.44199 0
M  V30 3883 O 378.59 -0.979866 -1.44029 0
M  V30 3884 C 375.722 -2.0095 -2.75376 0
M  V30 3885 H 376.915 -2.78239 -1.11906 0
M  V30 3886 H 374.468 -1.46369 -0.548257 0
M  V30 3887 H 375.203 -1.08883 -3.05475 0
M  V30 3888 H 374.988 -2.83018 -2.71373 0
M  V30 3889 H 376.478 -2.2514 -3.51713 0
M  V30 3890 N 376.915 0.57481 -1.46744 0
M  V30 3891 C 378.163 1.33009 -1.52161 0
M  V30 3892 C 378.484 1.94185 -0.178092 0
M  V30 3893 O 377.754 1.7899 0.796196 0
M  V30 3894 H 376.334 0.493873 -0.560445 0
M  V30 3895 H 378.996 0.672589 -1.82927 0
M  V30 3896 H 378.092 2.13273 -2.27862 0
M  V30 3897 N 378.394 1.34581 0.820102 0
M  V30 3898 C 379.641 1.27096 1.57648 0
M  V30 3899 C 379.969 -0.158317 1.93855 0
M  V30 3900 O 379.224 -1.12028 1.60463 0
M  V30 3901 C 379.523 2.10997 2.8847 0
M  V30 3902 C 379.189 3.59966 2.71543 0
M  V30 3903 C 377.851 4.00575 2.66634 0
M  V30 3904 C 380.203 4.54548 2.55021 0
M  V30 3905 C 377.531 5.33953 2.43128 0
M  V30 3906 C 379.883 5.88109 2.33047 0
M  V30 3907 C 378.547 6.27878 2.26552 0
M  V30 3908 H 377.817 0.465078 0.576874 0
M  V30 3909 H 380.464 1.6635 0.948671 0
M  V30 3910 H 378.769 1.6458 3.55557 0
M  V30 3911 H 380.466 2.0255 3.46084 0
M  V30 3912 H 377.056 3.27733 2.76205 0
M  V30 3913 H 381.24 4.24069 2.57835 0
M  V30 3914 H 376.496 5.63781 2.3656 0
M  V30 3915 H 380.67 6.60985 2.19251 0
M  V30 3916 H 378.297 7.31162 2.081 0
M  V30 3917 N 379.872 -1.04064 1.18357 0
M  V30 3918 C 381.102 -1.80654 1.00238 0
M  V30 3919 C 381.51 -1.83713 -0.452362 0
M  V30 3920 O 380.853 -1.27135 -1.32599 0
M  V30 3921 C 380.915 -3.27582 1.48088 0
M  V30 3922 C 380.579 -3.48184 2.96002 0
M  V30 3923 C 381.576 -3.39372 3.93856 0
M  V30 3924 C 379.261 -3.7478 3.34433 0
M  V30 3925 C 381.255 -3.5686 5.28138 0
M  V30 3926 C 378.942 -3.91915 4.68877 0
M  V30 3927 C 379.94 -3.82956 5.65539 0
M  V30 3928 O 379.628 -3.996 6.97549 0
M  V30 3929 H 379.36 -0.575751 0.354241 0
M  V30 3930 H 381.914 -1.32044 1.57333 0
M  V30 3931 H 380.144 -3.77161 0.853588 0
M  V30 3932 H 381.833 -3.8573 1.2636 0
M  V30 3933 H 382.599 -3.18789 3.65511 0
M  V30 3934 H 378.478 -3.80852 2.59756 0
M  V30 3935 H 382.022 -3.49783 6.03571 0
M  V30 3936 H 377.919 -4.11992 4.96923 0
M  V30 3937 H 378.687 -4.1676 7.04452 0
M  V30 3938 N 381.35 -0.985608 -1.22978 0
M  V30 3939 C 382.598 -0.656087 -1.91154 0
M  V30 3940 C 382.919 0.813561 -1.77218 0
M  V30 3941 O 382.189 1.58244 -1.1548 0
M  V30 3942 H 380.769 -0.239674 -0.707506 0
M  V30 3943 H 383.431 -1.25054 -1.49491 0
M  V30 3944 H 382.527 -0.912253 -2.9847 0
M  V30 3945 N 382.828 1.3818 -0.7579 0
M  V30 3946 C 384.056 2.04301 -0.326937 0
M  V30 3947 C 384.471 1.57163 1.0462 0
M  V30 3948 O 383.828 0.746626 1.66529 0
M  V30 3949 C 383.879 3.59846 -0.345363 0
M  V30 3950 O 383.6 4.05256 -1.66432 0
M  V30 3951 C 385.101 4.4319 0.098927 0
M  V30 3952 H 382.321 0.656443 -0.139012 0
M  V30 3953 H 384.865 1.76786 -1.02796 0
M  V30 3954 H 383.02 3.86182 0.306955 0
M  V30 3955 H 383.434 4.99709 -1.59345 0
M  V30 3956 H 384.908 5.51989 0.0348745 0
M  V30 3957 H 385.385 4.23947 1.14741 0
M  V30 3958 H 385.991 4.22051 -0.52468 0
M  V30 3959 N 384.306 0.507319 1.49211 0
M  V30 3960 C 385.536 -0.0315292 2.06576 0
M  V30 3961 C 385.944 -1.30791 1.36713 0
M  V30 3962 O 385.287 -1.78324 0.441181 0
M  V30 3963 C 385.349 -0.349104 3.57801 0
M  V30 3964 C 385.013 0.830475 4.49391 0
M  V30 3965 C 386.01 1.72271 4.90529 0
M  V30 3966 C 383.695 1.03107 4.91604 0
M  V30 3967 C 385.689 2.79964 5.72625 0
M  V30 3968 C 383.376 2.11116 5.73475 0
M  V30 3969 C 384.374 2.99379 6.1389 0
M  V30 3970 O 384.062 4.05523 6.94123 0
M  V30 3971 H 383.794 0.0201002 0.675701 0
M  V30 3972 H 386.348 0.705737 1.92895 0
M  V30 3973 H 384.578 -1.14005 3.69513 0
M  V30 3974 H 386.267 -0.827319 3.97379 0
M  V30 3975 H 387.033 1.57958 4.58557 0
M  V30 3976 H 382.912 0.353417 4.59643 0
M  V30 3977 H 386.456 3.48884 6.04091 0
M  V30 3978 H 382.353 2.25421 6.0486 0
M  V30 3979 H 383.121 4.02953 7.1244 0
M  V30 3980 N 385.784 -1.5574 0.241426 0
M  V30 3981 C 387.009 -2.0366 -0.392111 0
M  V30 3982 C 387.434 -1.11969 -1.51144 0
M  V30 3983 O 386.792 -0.111594 -1.80956 0
M  V30 3984 C 386.84 -3.49638 -0.882371 0
M  V30 3985 O 385.944 -3.6108 -1.99235 0
M  V30 3986 H 385.285 -0.658379 -0.0862122 0
M  V30 3987 H 387.815 -2.01302 0.365881 0
M  V30 3988 H 387.825 -3.90351 -1.18702 0
M  V30 3989 H 386.5 -4.15852 -0.0632361 0
M  V30 3990 H 385.077 -3.32262 -1.69282 0
M  V30 3991 N 387.262 0.0317525 -1.57568 0
M  V30 3992 C 388.51 0.721676 -1.88776 0
M  V30 3993 C 388.831 1.76039 -0.838772 0
M  V30 3994 O 388.101 1.95482 0.127935 0
M  V30 3995 H 386.681 0.269534 -0.696678 0
M  V30 3996 H 389.343 -0.00165879 -1.949 0
M  V30 3997 H 388.439 1.21293 -2.87566 0
M  V30 3998 N 388.74 1.54641 0.303973 0
M  V30 3999 C 389.965 1.78092 1.06292 0
M  V30 4000 C 390.39 0.537342 1.80262 0
M  V30 4001 O 389.748 -0.511993 1.7392 0
M  V30 4002 C 389.796 2.98612 2.02147 0
M  V30 4003 O 388.9 2.71528 3.10397 0
M  V30 4004 H 388.241 0.589548 0.305497 0
M  V30 4005 H 390.771 2.01716 0.3423 0
M  V30 4006 H 390.781 3.265 2.44667 0
M  V30 4007 H 389.456 3.88785 1.47714 0
M  V30 4008 H 388.033 2.54648 2.72413 0
M  V30 4009 N 390.218 -0.567019 1.47046 0
M  V30 4010 C 391.181 -1.65696 1.58359 0
M  V30 4011 C 392.181 -1.54097 0.459441 0
M  V30 4012 O 393.371 -1.58432 0.724225 0
M  V30 4013 C 390.503 -3.05197 1.51879 0
M  V30 4014 H 391.696 -1.57019 2.5551 0
M  V30 4015 H 389.249 -0.786148 1.3509 0
M  V30 4016 H 389.984 -3.19417 0.560673 0
M  V30 4017 H 389.769 -3.15025 2.33455 0
M  V30 4018 H 391.259 -3.84511 1.62913 0
M  V30 4019 N 391.696 -1.35014 -0.812953 0
M  V30 4020 C 392.921 -1.31187 -1.60639 0
M  V30 4021 C 393.346 0.109382 -1.87782 0
M  V30 4022 O 392.704 1.07424 -1.46047 0
M  V30 4023 C 392.752 -2.11809 -2.91838 0
M  V30 4024 O 391.856 -1.49444 -3.8437 0
M  V30 4025 H 391.197 -0.450084 -0.488181 0
M  V30 4026 H 393.727 -1.77963 -1.00947 0
M  V30 4027 H 393.737 -2.23531 -3.41318 0
M  V30 4028 H 392.412 -3.15137 -2.71407 0
M  V30 4029 H 390.989 -1.46524 -3.42907 0
M  V30 4030 N 393.175 1.03435 -1.18907 0
M  V30 4031 C 394.403 1.80381 -1.01342 0
M  V30 4032 C 394.818 1.83649 0.438005 0
M  V30 4033 O 394.175 1.27655 1.30424 0
M  V30 4034 C 394.226 3.25689 -1.56873 0
M  V30 4035 O 393.947 3.22673 -2.96334 0
M  V30 4036 C 395.448 4.19255 -1.44014 0
M  V30 4037 H 392.668 0.56784 -0.35749 0
M  V30 4038 H 395.212 1.30317 -1.576 0
M  V30 4039 H 393.367 3.72962 -1.04777 0
M  V30 4040 H 393.781 4.13748 -3.22355 0
M  V30 4041 H 395.255 5.19123 -1.87657 0
M  V30 4042 H 395.732 4.37467 -0.389815 0
M  V30 4043 H 396.338 3.77851 -1.95214 0
M  V30 4044 N 394.653 0.992116 1.22453 0
M  V30 4045 C 395.901 0.666215 1.90804 0
M  V30 4046 C 396.222 -0.804152 1.77647 0
M  V30 4047 O 395.492 -1.57629 1.16318 0
M  V30 4048 H 394.072 0.243423 0.706225 0
M  V30 4049 H 396.734 1.25845 1.48825 0
M  V30 4050 H 395.83 0.928069 2.97982 0
M  V30 4051 N 396.131 -1.37776 0.765217 0
M  V30 4052 C 397.094 -2.28686 0.153416 0
M  V30 4053 C 398.094 -1.47727 -0.635081 0
M  V30 4054 O 399.284 -1.68027 -0.459632 0
M  V30 4055 C 396.416 -3.31608 -0.790495 0
M  V30 4056 H 397.609 -2.84297 0.954723 0
M  V30 4057 H 395.162 -1.46932 0.53299 0
M  V30 4058 H 395.897 -2.81109 -1.61705 0
M  V30 4059 H 395.682 -3.9144 -0.227348 0
M  V30 4060 H 397.172 -3.99559 -1.21419 0
M  V30 4061 N 397.609 -0.515225 -1.4894 0
M  V30 4062 C 398.855 0.0242508 -2.02785 0
M  V30 4063 C 399.188 1.35323 -1.39289 0
M  V30 4064 O 398.463 1.87041 -0.533469 0
M  V30 4065 C 398.746 0.16184 -3.59736 0
M  V30 4066 C 398.599 -1.19127 -4.33738 0
M  V30 4067 C 399.918 0.895719 -4.30888 0
M  V30 4068 H 397.037 0.00733914 -0.736963 0
M  V30 4069 H 399.679 -0.669395 -1.77818 0
M  V30 4070 H 397.829 0.752624 -3.8114 0
M  V30 4071 H 399.501 -1.82202 -4.23792 0
M  V30 4072 H 397.744 -1.77695 -3.95736 0
M  V30 4073 H 398.415 -1.04815 -5.41957 0
M  V30 4074 H 400.891 0.394528 -4.14225 0
M  V30 4075 H 399.767 0.960859 -5.40425 0
M  V30 4076 H 400.028 1.9427 -3.97129 0
M  V30 4077 N 399.087 1.5561 -0.249682 0
M  V30 4078 C 400.034 2.21496 0.648694 0
M  V30 4079 C 401.004 1.17977 1.16921 0
M  V30 4080 O 402.189 1.46434 1.22318 0
M  V30 4081 C 399.329 2.92039 1.83868 0
M  V30 4082 C 398.442 4.10219 1.35442 0
M  V30 4083 C 397.577 4.6847 2.50419 0
M  V30 4084 C 396.616 5.78893 1.98869 0
M  V30 4085 N 395.753 6.31315 3.07223 0
M  V30 4086 H 400.593 2.97892 0.0801582 0
M  V30 4087 H 398.13 1.47074 0.0278031 0
M  V30 4088 H 400.088 3.31138 2.53778 0
M  V30 4089 H 398.718 2.18111 2.37965 0
M  V30 4090 H 397.77 3.76413 0.54928 0
M  V30 4091 H 399.082 4.89927 0.936649 0
M  V30 4092 H 398.236 5.10158 3.28366 0
M  V30 4093 H 396.975 3.87984 2.95499 0
M  V30 4094 H 395.98 5.3668 1.19393 0
M  V30 4095 H 397.205 6.61232 1.54755 0
M  V30 4096 H 395.151 5.53733 3.51732 0
M  V30 4097 H 395.068 7.06224 2.69784 0
M  V30 4098 H 396.336 6.77662 3.8522 0
M  V30 4099 N 400.565 -0.0233959 1.57583 0
M  V30 4100 C 401.475 -1.03907 2.10334 0
M  V30 4101 C 402.491 -1.39257 1.04323 0
M  V30 4102 O 403.667 -1.48462 1.36091 0
M  V30 4103 C 400.732 -2.31938 2.57693 0
M  V30 4104 C 399.793 -2.03117 3.78209 0
M  V30 4105 C 399.026 -3.25043 4.233 0
M  V30 4106 O 399.249 -4.35916 3.67876 0
M  V30 4107 O 398.183 -3.10411 5.15683 0
M  V30 4108 H 402.009 -0.620748 2.97288 0
M  V30 4109 H 399.594 -0.240743 1.47448 0
M  V30 4110 H 401.476 -3.07196 2.88458 0
M  V30 4111 H 400.151 -2.73055 1.73847 0
M  V30 4112 H 399.058 -1.25408 3.52454 0
M  V30 4113 H 400.391 -1.66852 4.63056 0
M  V30 4114 N 402.043 -1.548 -0.295768 0
M  V30 4115 C 403.006 -1.85363 -1.34808 0
M  V30 4116 C 404.006 -0.726817 -1.43436 0
M  V30 4117 O 405.196 -0.995088 -1.42981 0
M  V30 4118 C 402.328 -2.03859 -2.73229 0
M  V30 4119 H 403.521 -2.7941 -1.08949 0
M  V30 4120 H 401.074 -1.46942 -0.532702 0
M  V30 4121 H 401.809 -1.12117 -3.04303 0
M  V30 4122 H 401.594 -2.8588 -2.68356 0
M  V30 4123 H 403.084 -2.28857 -3.49305 0
M  V30 4124 N 403.521 0.559213 -1.47345 0
M  V30 4125 C 404.77 1.31281 -1.53128 0
M  V30 4126 C 405.083 1.94602 -0.197344 0
M  V30 4127 O 406.289 2.71173 -0.133154 0
M  V30 4128 C 404.745 2.38051 -2.69925 0
M  V30 4129 C 404.353 1.8093 -4.0984 0
M  V30 4130 C 406.097 3.14604 -2.84999 0
M  V30 4131 C 404.004 2.85468 -5.1794 0
M  V30 4132 H 402.934 0.493614 -0.569966 0
M  V30 4133 H 405.585 0.594155 -1.73615 0
M  V30 4134 H 403.967 3.12822 -2.42814 0
M  V30 4135 H 405.141 1.12544 -4.46845 0
M  V30 4136 H 403.456 1.16967 -3.99634 0
M  V30 4137 H 406.053 3.92666 -3.62929 0
M  V30 4138 H 406.396 3.68665 -1.93369 0
M  V30 4139 H 406.929 2.46945 -3.1187 0
M  V30 4140 H 403.668 2.36264 -6.1144 0
M  V30 4141 H 403.188 3.52269 -4.85455 0
M  V30 4142 H 404.867 3.48996 -5.44803 0
M  V30 4143 N 404.999 1.35443 0.805782 0
M  V30 4144 C 405.909 1.30546 1.94923 0
M  V30 4145 C 406.925 0.210233 1.72725 0
M  V30 4146 O 408.101 0.43975 1.9654 0
M  V30 4147 C 405.166 1.07782 3.29521 0
M  V30 4148 C 404.227 2.26625 3.64609 0
M  V30 4149 C 403.46 2.04938 4.92784 0
M  V30 4150 O 403.683 1.01624 5.61274 0
M  V30 4151 O 402.617 2.9232 5.26149 0
M  V30 4152 H 406.443 2.26779 2.02002 0
M  V30 4153 H 404.028 1.15823 0.943682 0
M  V30 4154 H 405.91 0.969392 4.10098 0
M  V30 4155 H 404.585 0.146003 3.23371 0
M  V30 4156 H 403.492 2.43033 2.84404 0
M  V30 4157 H 404.825 3.18257 3.75464 0
M  V30 4158 N 406.477 -1.02803 1.19454 0
M  V30 4159 C 407.725 -1.75869 0.995722 0
M  V30 4160 C 408.046 -1.89138 -0.474543 0
M  V30 4161 O 407.316 -1.42558 -1.34366 0
M  V30 4162 H 405.896 -0.651511 0.365435 0
M  V30 4163 H 408.558 -1.24004 1.50363 0
M  V30 4164 H 407.654 -2.76661 1.44447 0
M  V30 4165 N 407.956 -0.998596 -1.21925 0
M  V30 4166 C 408.919 -0.558679 -2.22287 0
M  V30 4167 C 409.919 0.361525 -1.56683 0
M  V30 4168 O 411.109 0.152695 -1.73529 0
M  V30 4169 C 408.241 0.18661 -3.40389 0
M  V30 4170 H 409.434 -1.4463 -2.62721 0
M  V30 4171 H 406.987 -0.786413 -1.35075 0
M  V30 4172 H 407.722 1.08996 -3.05435 0
M  V30 4173 H 407.507 -0.474188 -3.89222 0
M  V30 4174 H 408.997 0.482367 -4.14805 0
M  V30 4175 N 409.434 1.37368 -0.772513 0
M  V30 4176 C 410.711 1.93839 -0.26188 0
M  V30 4177 C 411.091 1.7061 1.24319 0
M  V30 4178 O 410.439 1.05534 2.02669 0
M  V30 4179 C 410.649 3.43154 -0.636102 0
M  V30 4180 C 411.997 4.20249 -0.606324 0
M  V30 4181 O 413.021 3.5152 -0.575538 0
M  V30 4182 O 411.88 5.42809 -0.634086 0
M  V30 4183 H 408.974 0.82478 -0.0605555 0
M  V30 4184 H 411.52 1.4665 -0.853917 0
M  V30 4185 H 410.292 3.53647 -1.6748 0
M  V30 4186 H 409.915 3.97596 -0.0170516 0
M  V30 4187 N 410.912 0.523116 1.48665 0
M  V30 4188 C 412.14 -0.0096312 2.06898 0
M  V30 4189 C 412.555 -1.28784 1.38059 0
M  V30 4190 O 411.912 -1.76453 0.465893 0
M  V30 4191 C 411.963 -0.244386 3.60673 0
M  V30 4192 O 411.684 0.983172 4.26925 0
M  V30 4193 C 413.185 -0.818289 4.35682 0
M  V30 4194 H 410.405 0.0304161 0.67031 0
M  V30 4195 H 412.949 0.726799 1.91149 0
M  V30 4196 H 411.104 -0.930847 3.76051 0
M  V30 4197 H 411.518 0.759653 5.1897 0
M  V30 4198 H 412.992 -0.93201 5.44075 0
M  V30 4199 H 413.469 -1.82153 3.99646 0
M  V30 4200 H 414.075 -0.168609 4.24966 0
M  V30 4201 N 412.39 -1.55475 0.257931 0
M  V30 4202 C 413.636 -1.99502 -0.364266 0
M  V30 4203 C 413.969 -1.146 -1.56782 0
M  V30 4204 O 413.244 -0.211968 -1.93342 0
M  V30 4205 C 413.527 -3.51917 -0.763333 0
M  V30 4206 C 413.38 -4.4758 0.446371 0
M  V30 4207 C 414.699 -4.09742 -1.60623 0
M  V30 4208 H 411.818 -0.725277 -0.130929 0
M  V30 4209 H 414.46 -1.8653 0.361446 0
M  V30 4210 H 412.61 -3.63101 -1.38166 0
M  V30 4211 H 414.282 -4.48362 1.08487 0
M  V30 4212 H 412.525 -4.19947 1.08753 0
M  V30 4213 H 413.196 -5.51862 0.123645 0
M  V30 4214 H 415.672 -4.01727 -1.08418 0
M  V30 4215 H 414.548 -5.16631 -1.85429 0
M  V30 4216 H 414.809 -3.58889 -2.58169 0
M  V30 4217 N 413.868 0.0150385 -1.57593 0
M  V30 4218 C 414.798 1.01047 -2.10503 0
M  V30 4219 C 415.779 1.36816 -1.01071 0
M  V30 4220 O 416.964 1.45455 -1.28672 0
M  V30 4221 C 414.094 2.30708 -2.59598 0
M  V30 4222 C 413.048 2.09142 -3.73421 0
M  V30 4223 C 412.374 3.44685 -4.08774 0
M  V30 4224 C 413.674 1.46619 -5.01298 0
M  V30 4225 H 415.368 0.569978 -2.93925 0
M  V30 4226 H 412.914 0.272724 -1.41394 0
M  V30 4227 H 414.867 3.00687 -2.95238 0
M  V30 4228 H 413.591 2.76843 -1.73279 0
M  V30 4229 H 412.25 1.41592 -3.38153 0
M  V30 4230 H 411.898 3.88495 -3.195 0
M  V30 4231 H 411.598 3.31077 -4.8545 0
M  V30 4232 H 413.122 4.16004 -4.4696 0
M  V30 4233 H 414.536 2.06535 -5.34805 0
M  V30 4234 H 412.933 1.43544 -5.82679 0
M  V30 4235 H 414.003 0.433611 -4.82957 0
M  V30 4236 N 415.346 1.54954 0.287554 0
M  V30 4237 C 416.586 1.76617 1.02887 0
M  V30 4238 C 416.95 0.547759 1.84021 0
M  V30 4239 O 418.151 0.642365 2.61012 0
M  V30 4240 C 416.422 3.02717 1.89993 0
M  V30 4241 S 417.981 3.45438 2.70588 0
M  V30 4242 H 414.799 0.6207 0.346775 0
M  V30 4243 H 417.401 1.93172 0.30082 0
M  V30 4244 H 416.105 3.89503 1.29287 0
M  V30 4245 H 415.636 2.88787 2.67144 0
M  V30 4246 H 417.651 3.03566 3.92508 0
M  V30 4247 N 416.824 -0.551391 1.4764 0
M  V30 4248 C 418.07 -1.31024 1.54792 0
M  V30 4249 C 418.403 -1.9304 0.211967 0
M  V30 4250 O 417.678 -1.78175 -0.77999 0
M  V30 4251 C 417.961 -2.41593 2.67029 0
M  V30 4252 C 417.814 -1.84408 4.10261 0
M  V30 4253 C 419.133 -3.43488 2.75143 0
M  V30 4254 H 416.252 -0.475031 0.563485 0
M  V30 4255 H 418.894 -0.616454 1.79722 0
M  V30 4256 H 417.044 -3.00772 2.45904 0
M  V30 4257 H 418.716 -1.29445 4.42766 0
M  V30 4258 H 416.959 -1.15051 4.18265 0
M  V30 4259 H 417.63 -2.64367 4.84576 0
M  V30 4260 H 420.106 -2.94236 2.94218 0
M  V30 4261 H 418.982 -4.18274 3.55441 0
M  V30 4262 H 419.243 -4.02703 1.82435 0
M  V30 4263 N 418.302 -1.35869 -0.798587 0
M  V30 4264 C 419.55 -1.29332 -1.55298 0
M  V30 4265 C 419.871 0.129729 -1.94568 0
M  V30 4266 O 419.141 1.06796 -1.6423 0
M  V30 4267 H 417.721 -0.475737 -0.57592 0
M  V30 4268 H 420.383 -1.70062 -0.952093 0
M  V30 4269 H 419.479 -1.91458 -2.46476 0
M  V30 4270 N 419.78 1.02168 -1.19998 0
M  V30 4271 C 421.008 1.79296 -1.03249 0
M  V30 4272 C 421.423 1.84103 0.418502 0
M  V30 4273 O 420.78 1.29031 1.29063 0
M  V30 4274 C 420.831 3.24007 -1.60319 0
M  V30 4275 O 420.552 3.19512 -2.99739 0
M  V30 4276 C 422.053 4.17704 -1.48453 0
M  V30 4277 H 419.273 0.564016 -0.363493 0
M  V30 4278 H 421.817 1.28639 -1.58973 0
M  V30 4279 H 419.972 3.7183 -1.08727 0
M  V30 4280 H 420.386 4.10306 -3.26725 0
M  V30 4281 H 421.86 5.17104 -1.93153 0
M  V30 4282 H 422.337 4.37029 -0.436193 0
M  V30 4283 H 422.943 3.7576 -1.99211 0
M  V30 4284 N 421.258 1.00505 1.21394 0
M  V30 4285 C 422.674 0.717873 1.42544 0
M  V30 4286 C 422.874 -0.706936 1.88692 0
M  V30 4287 O 421.93 -1.47627 2.04847 0
M  V30 4288 C 423.243 1.73377 2.45684 0
M  V30 4289 C 424.791 1.75059 2.59467 0
M  V30 4290 C 425.266 2.75545 3.6584 0
M  V30 4291 N 426.757 2.74213 3.73311 0
M  V30 4292 C 427.492 3.48626 4.55245 0
M  V30 4293 N 426.988 4.32678 5.41075 0
M  V30 4294 N 428.781 3.37276 4.49668 0
M  V30 4295 H 420.932 1.92506 0.897503 0
M  V30 4296 H 423.195 0.830919 0.456375 0
M  V30 4297 H 422.901 2.75395 2.18748 0
M  V30 4298 H 422.775 1.53647 3.44489 0
M  V30 4299 H 425.162 0.737337 2.8574 0
M  V30 4300 H 425.243 1.98861 1.60897 0
M  V30 4301 H 424.887 3.77028 3.40313 0
M  V30 4302 H 424.817 2.49009 4.64007 0
M  V30 4303 H 427.308 2.13234 3.11993 0
M  V30 4304 H 427.621 4.86253 6.00648 0
M  V30 4305 H 425.966 4.3676 5.40616 0
M  V30 4306 H 429.157 2.71043 3.81646 0
M  V30 4307 H 429.33 3.95524 5.13288 0
M  V30 4308 N 422.737 -1.36956 0.779787 0
M  V30 4309 C 423.984 -1.99491 0.347766 0
M  V30 4310 C 424.312 -1.61898 -1.07793 0
M  V30 4311 O 423.567 -0.86071 -1.75756 0
M  V30 4312 C 423.866 -3.54585 0.447686 0
M  V30 4313 C 423.532 -4.1197 1.83279 0
M  V30 4314 C 422.194 -4.27356 2.2118 0
M  V30 4315 C 424.546 -4.43354 2.74019 0
M  V30 4316 C 421.874 -4.71432 3.4924 0
M  V30 4317 C 424.226 -4.88858 4.01497 0
M  V30 4318 C 422.89 -5.0245 4.39432 0
M  V30 4319 H 422.16 -0.729991 0.127257 0
M  V30 4320 H 424.807 -1.63599 0.995376 0
M  V30 4321 H 423.112 -3.90773 -0.283447 0
M  V30 4322 H 424.809 -4.00888 0.0945948 0
M  V30 4323 H 421.399 -4.00428 1.52825 0
M  V30 4324 H 425.583 -4.31045 2.45995 0
M  V30 4325 H 420.839 -4.80141 3.78516 0
M  V30 4326 H 425.013 -5.12108 4.71931 0
M  V30 4327 H 422.64 -5.36362 5.38721 0
M  V30 4328 N 424.215 -0.530993 -1.48385 0
M  V30 4329 C 425.443 -0.00134122 -2.069 0
M  V30 4330 C 425.858 1.2805 -1.3874 0
M  V30 4331 O 425.215 1.76204 -0.475244 0
M  V30 4332 C 425.266 0.225256 -3.60798 0
M  V30 4333 O 424.987 -1.0058 -4.26398 0
M  V30 4334 C 426.488 0.795172 -4.3611 0
M  V30 4335 H 423.708 -0.0339704 -0.67014 0
M  V30 4336 H 426.252 -0.736926 -1.90761 0
M  V30 4337 H 424.407 0.910891 -3.76539 0
M  V30 4338 H 424.821 -0.787165 -5.1856 0
M  V30 4339 H 426.295 0.903143 -5.44562 0
M  V30 4340 H 426.772 1.80031 -4.00606 0
M  V30 4341 H 427.378 0.146069 -4.25049 0
M  V30 4342 N 425.693 1.55336 -0.266172 0
M  V30 4343 C 426.97 1.91372 0.404486 0
M  V30 4344 C 427.35 1.18935 1.74407 0
M  V30 4345 O 426.698 0.3132 2.26343 0
M  V30 4346 C 426.908 3.44581 0.553593 0
M  V30 4347 C 428.256 4.16196 0.840618 0
M  V30 4348 O 429.28 3.50426 0.638739 0
M  V30 4349 O 428.139 5.32567 1.22618 0
M  V30 4350 H 425.233 0.797194 0.220025 0
M  V30 4351 H 427.779 1.66813 -0.311664 0
M  V30 4352 H 426.551 3.89357 -0.389498 0
M  V30 4353 H 426.174 3.75065 1.31955 0
M  V30 4354 N 427.171 -0.0066808 1.57599 0
M  V30 4355 C 428.399 -0.704087 1.94551 0
M  V30 4356 C 428.814 -1.67677 0.867746 0
M  V30 4357 O 428.171 -1.8185 -0.153925 0
M  V30 4358 C 428.222 -1.44177 3.31505 0
M  V30 4359 O 427.943 -0.508097 4.35144 0
M  V30 4360 C 429.444 -2.23429 3.82876 0
M  V30 4361 H 426.664 -0.196523 0.641576 0
M  V30 4362 H 429.208 0.042453 2.04456 0
M  V30 4363 H 427.363 -2.13999 3.22929 0
M  V30 4364 H 427.777 -1.02782 5.14331 0
M  V30 4365 H 429.251 -2.70552 4.8115 0
M  V30 4366 H 429.728 -3.05818 3.15233 0
M  V30 4367 H 430.334 -1.58636 3.94607 0
M  V30 4368 N 428.649 -1.55105 -0.279332 0
M  V30 4369 C 429.579 -1.90557 -1.34945 0
M  V30 4370 C 430.56 -0.766738 -1.51839 0
M  V30 4371 O 431.745 -1.02434 -1.64988 0
M  V30 4372 C 428.875 -2.17193 -2.71006 0
M  V30 4373 C 427.829 -3.33021 -2.68851 0
M  V30 4374 C 427.155 -3.45123 -4.08405 0
M  V30 4375 C 428.455 -4.69578 -2.28678 0
M  V30 4376 H 430.149 -2.80188 -1.05522 0
M  V30 4377 H 427.695 -1.34811 -0.506173 0
M  V30 4378 H 429.648 -2.40581 -3.45975 0
M  V30 4379 H 428.372 -1.24355 -3.01999 0
M  V30 4380 H 427.031 -3.0959 -1.9634 0
M  V30 4381 H 426.679 -2.49762 -4.3661 0
M  V30 4382 H 426.379 -4.22995 -4.07859 0
M  V30 4383 H 427.903 -3.70796 -4.85121 0
M  V30 4384 H 429.317 -4.92553 -2.93368 0
M  V30 4385 H 427.714 -5.5032 -2.39306 0
M  V30 4386 H 428.784 -4.68828 -1.23807 0
M  V30 4387 N 430.127 0.543554 -1.4793 0
M  V30 4388 C 431.355 1.32516 -1.58894 0
M  V30 4389 C 431.77 1.87215 -0.244131 0
M  V30 4390 O 431.127 1.65709 0.764652 0
M  V30 4391 C 431.178 2.48554 -2.62494 0
M  V30 4392 O 430.899 1.96112 -3.91755 0
M  V30 4393 C 432.4 3.40572 -2.8377 0
M  V30 4394 H 429.62 0.403472 -0.536145 0
M  V30 4395 H 432.164 0.657106 -1.93655 0
M  V30 4396 H 430.319 3.1127 -2.30629 0
M  V30 4397 H 430.733 2.71967 -4.4848 0
M  V30 4398 H 432.207 4.18375 -3.60093 0
M  V30 4399 H 432.684 3.94965 -1.92092 0
M  V30 4400 H 433.29 2.8366 -3.16887 0
M  V30 4401 N 431.605 1.3629 0.791371 0
M  V30 4402 C 432.568 1.30309 1.88553 0
M  V30 4403 C 433.568 0.211204 1.59407 0
M  V30 4404 O 434.758 0.465865 1.67855 0
M  V30 4405 C 431.89 1.01956 3.25297 0
M  V30 4406 H 433.083 2.27614 1.95273 0
M  V30 4407 H 430.636 1.21035 0.988953 0
M  V30 4408 H 431.371 0.050998 3.2426 0
M  V30 4409 H 431.156 1.80968 3.4784 0
M  V30 4410 H 432.646 1.0037 4.05359 0
M  V30 4411 N 433.083 -1.0153 1.20538 0
M  V30 4412 C 434.331 -1.74803 1.01432 0
M  V30 4413 C 434.652 -1.8963 -0.454456 0
M  V30 4414 O 433.922 -1.43975 -1.32846 0
M  V30 4415 H 432.502 -0.647598 0.372324 0
M  V30 4416 H 435.164 -1.22402 1.5167 0
M  V30 4417 H 434.26 -2.75114 1.47373 0
M  V30 4418 N 434.561 -1.01147 -1.20859 0
M  V30 4419 C 435.808 -0.697865 -1.90095 0
M  V30 4420 C 436.136 0.772014 -1.78522 0
M  V30 4421 O 435.391 1.57595 -1.16027 0
M  V30 4422 C 435.69 -1.0727 -3.40922 0
M  V30 4423 C 435.356 -2.53792 -3.72693 0
M  V30 4424 C 434.018 -2.93829 -3.81075 0
M  V30 4425 C 436.37 -3.48674 -3.87397 0
M  V30 4426 C 433.698 -4.27696 -4.01613 0
M  V30 4427 C 436.05 -4.82223 -4.09444 0
M  V30 4428 C 434.714 -5.21973 -4.16054 0
M  V30 4429 H 433.984 -0.255367 -0.695607 0
M  V30 4430 H 436.631 -1.27111 -1.43231 0
M  V30 4431 H 434.936 -0.417799 -3.89566 0
M  V30 4432 H 436.633 -0.807818 -3.92779 0
M  V30 4433 H 433.223 -2.21768 -3.66765 0
M  V30 4434 H 437.407 -3.18904 -3.80281 0
M  V30 4435 H 432.663 -4.58055 -4.04964 0
M  V30 4436 H 436.837 -5.55672 -4.19763 0
M  V30 4437 H 434.464 -6.25717 -4.31721 0
M  V30 4438 N 436.039 1.36541 -0.78704 0
M  V30 4439 C 437.267 2.03561 -0.370199 0
M  V30 4440 C 437.682 1.59347 1.01263 0
M  V30 4441 O 437.039 0.781781 1.64907 0
M  V30 4442 C 437.09 3.59033 -0.421614 0
M  V30 4443 O 436.811 4.01634 -1.7499 0
M  V30 4444 C 438.312 4.433 0.00489763 0
M  V30 4445 H 435.532 0.653346 -0.152904 0
M  V30 4446 H 438.076 1.74566 -1.06522 0
M  V30 4447 H 436.231 3.86746 0.224971 0
M  V30 4448 H 436.645 4.96217 -1.69909 0
M  V30 4449 H 438.119 5.51939 -0.0822184 0
M  V30 4450 H 438.596 4.26285 1.05723 0
M  V30 4451 H 439.202 4.20843 -0.614085 0
M  V30 4452 N 437.518 0.538854 1.48102 0
M  V30 4453 C 438.468 -0.23907 2.26743 0
M  V30 4454 C 439.452 -0.901923 1.33245 0
M  V30 4455 O 440.644 -0.803263 1.57723 0
M  V30 4456 C 437.773 -1.2799 3.18549 0
M  V30 4457 C 436.859 -0.621388 4.19523 0
M  V30 4458 N 437.25 0.298004 5.04921 0
M  V30 4459 C 435.548 -0.877533 4.37282 0
M  V30 4460 C 436.249 0.678757 5.77726 0
M  V30 4461 N 435.225 0.0377881 5.43587 0
M  V30 4462 H 439.027 0.468096 2.90148 0
M  V30 4463 H 436.541 0.357497 1.58416 0
M  V30 4464 H 438.538 -1.851 3.73555 0
M  V30 4465 H 437.198 -1.98835 2.567 0
M  V30 4466 H 438.209 0.671126 5.13533 0
M  V30 4467 H 434.886 -1.57588 3.86616 0
M  V30 4468 H 436.276 1.43316 6.56437 0
M  V30 4469 N 438.996 -1.55193 0.274407 0
M  V30 4470 C 439.928 -2.1989 -0.646595 0
M  V30 4471 C 440.941 -1.1834 -1.11801 0
M  V30 4472 O 442.13 -1.4507 -1.04004 0
M  V30 4473 C 439.23 -2.8104 -1.89393 0
M  V30 4474 C 438.403 -4.08274 -1.56943 0
M  V30 4475 C 437.462 -4.53478 -2.66916 0
M  V30 4476 O 436.488 -5.19267 -2.33132 0
M  V30 4477 N 437.69 -4.2356 -3.9696 0
M  V30 4478 H 440.455 -2.99556 -0.0928686 0
M  V30 4479 H 438.016 -1.61618 0.0954783 0
M  V30 4480 H 440.008 -3.08226 -2.62257 0
M  V30 4481 H 438.578 -2.05372 -2.35672 0
M  V30 4482 H 437.798 -3.88384 -0.674655 0
M  V30 4483 H 439.086 -4.91173 -1.32764 0
M  V30 4484 H 438.484 -3.70799 -4.27229 0
M  V30 4485 H 437.041 -4.55518 -4.66205 0
M  V30 4486 N 440.474 -0.00167713 -1.576 0
M  V30 4487 C 441.404 0.988091 -2.11563 0
M  V30 4488 C 442.385 1.35736 -1.02517 0
M  V30 4489 O 443.57 1.44082 -1.30208 0
M  V30 4490 C 440.7 2.27941 -2.62031 0
M  V30 4491 C 439.654 2.0517 -3.75619 0
M  V30 4492 C 438.98 3.4033 -4.12407 0
M  V30 4493 C 440.28 1.41294 -5.02825 0
M  V30 4494 H 441.974 0.538771 -2.94513 0
M  V30 4495 H 439.52 0.257712 -1.41675 0
M  V30 4496 H 441.473 2.97539 -2.9841 0
M  V30 4497 H 440.197 2.74989 -1.76205 0
M  V30 4498 H 438.856 1.37998 -3.39635 0
M  V30 4499 H 438.504 3.85085 -3.23603 0
M  V30 4500 H 438.204 3.25909 -4.88935 0
M  V30 4501 H 439.728 4.1124 -4.51347 0
M  V30 4502 H 441.142 2.00851 -5.36965 0
M  V30 4503 H 439.539 1.37356 -5.84169 0
M  V30 4504 H 440.609 0.382362 -4.8339 0
M  V30 4505 N 441.952 1.55251 0.271103 0
M  V30 4506 C 443.18 1.79974 1.02064 0
M  V30 4507 C 443.595 0.574003 1.79863 0
M  V30 4508 O 442.952 -0.456962 1.76686 0
M  V30 4509 C 443.003 3.02603 1.97772 0
M  V30 4510 O 442.724 4.20443 1.23124 0
M  V30 4511 C 444.225 3.39944 2.84522 0
M  V30 4512 H 441.445 0.599489 0.301419 0
M  V30 4513 H 443.989 2.02268 0.301313 0
M  V30 4514 H 442.144 2.8243 2.65165 0
M  V30 4515 H 442.558 4.89783 1.87651 0
M  V30 4516 H 444.032 4.28915 3.47471 0
M  V30 4517 H 444.509 2.59432 3.54389 0
M  V30 4518 H 445.115 3.62383 2.22618 0
M  V30 4519 N 443.43 -0.535701 1.48216 0
M  V30 4520 C 444.841 -1.11769 1.49548 0
M  V30 4521 C 445.192 -1.94442 0.26207 0
M  V30 4522 O 444.317 -2.06987 -0.631287 0
M  V30 4523 C 444.912 -2.03367 2.70975 0
M  V30 4524 C 443.471 -2.56795 2.75196 0
M  V30 4525 C 442.618 -1.33631 2.42977 0
M  V30 4526 H 445.569 -0.321232 1.55415 0
M  V30 4527 H 445.59 -2.87569 2.49167 0
M  V30 4528 H 445.102 -1.43169 3.60727 0
M  V30 4529 H 443.203 -3.20731 1.89638 0
M  V30 4530 H 443.316 -2.9632 3.76472 0
M  V30 4531 H 441.68 -1.6502 1.94012 0
M  V30 4532 H 442.463 -0.75194 3.34964 0
M  V30 4533 N 444.908 -1.36708 -0.784132 0
M  V30 4534 C 445.871 -1.31307 -1.87859 0
M  V30 4535 C 446.871 -0.219654 -1.59293 0
M  V30 4536 O 448.061 -0.47476 -1.67606 0
M  V30 4537 C 445.193 -1.03679 -3.24751 0
M  V30 4538 H 446.386 -2.28647 -1.94064 0
M  V30 4539 H 443.939 -1.21558 -0.98252 0
M  V30 4540 H 444.674 -0.0681936 -3.24228 0
M  V30 4541 H 444.459 -1.82811 -3.46876 0
M  V30 4542 H 445.949 -1.02518 -4.04821 0
M  V30 4543 N 446.386 1.0089 -1.21074 0
M  V30 4544 C 447.318 2.09737 -0.924291 0
M  V30 4545 C 448.331 1.62546 0.0909809 0
M  V30 4546 O 449.52 1.77942 -0.141021 0
M  V30 4547 C 446.62 3.36922 -0.36559 0
M  V30 4548 C 445.793 4.13216 -1.43426 0
M  V30 4549 C 444.852 5.18696 -0.885496 0
M  V30 4550 O 443.878 5.47176 -1.56801 0
M  V30 4551 N 445.08 5.79718 0.301227 0
M  V30 4552 H 447.845 2.34895 -1.8613 0
M  V30 4553 H 445.406 1.17341 -1.11546 0
M  V30 4554 H 447.398 4.04697 0.0158407 0
M  V30 4555 H 445.968 3.08952 0.476149 0
M  V30 4556 H 445.188 3.40301 -1.9897 0
M  V30 4557 H 446.476 4.60967 -2.15376 0
M  V30 4558 H 445.874 5.58926 0.872849 0
M  V30 4559 H 444.431 6.48804 0.624211 0
M  V30 4560 N 447.864 1.01787 1.20321 0
M  V30 4561 C 449.092 0.727194 1.937 0
M  V30 4562 C 449.507 -0.712305 1.74848 0
M  V30 4563 O 448.864 -1.48327 1.06327 0
M  V30 4564 C 448.915 1.05497 3.45764 0
M  V30 4565 O 448.636 2.43794 3.64 0
M  V30 4566 C 450.137 0.785534 4.36285 0
M  V30 4567 H 447.357 0.266939 0.615617 0
M  V30 4568 H 449.901 1.35939 1.52777 0
M  V30 4569 H 448.056 0.468158 3.84561 0
M  V30 4570 H 448.47 2.55656 4.57974 0
M  V30 4571 H 449.944 1.06495 5.4163 0
M  V30 4572 H 450.421 -0.280273 4.38305 0
M  V30 4573 H 451.027 1.35456 4.03152 0
M  V30 4574 N 449.342 -1.36122 0.79427 0
M  V30 4575 C 450.591 -1.98361 0.365464 0
M  V30 4576 C 450.904 -1.6374 -1.06997 0
M  V30 4577 O 452.11 -2.19251 -1.60129 0
M  V30 4578 C 450.566 -3.54821 0.602496 0
M  V30 4579 C 450.174 -3.98362 2.04967 0
M  V30 4580 C 451.918 -4.2383 0.238437 0
M  V30 4581 C 449.825 -5.47619 2.2331 0
M  V30 4582 H 448.755 -0.742193 0.13291 0
M  V30 4583 H 451.406 -1.55354 0.976589 0
M  V30 4584 H 449.788 -3.95922 -0.078409 0
M  V30 4585 H 450.962 -3.68447 2.76737 0
M  V30 4586 H 449.277 -3.42206 2.37243 0
M  V30 4587 H 451.874 -5.33529 0.353705 0
M  V30 4588 H 452.217 -4.08264 -0.814006 0
M  V30 4589 H 452.75 -3.88108 0.872769 0
M  V30 4590 H 449.489 -5.68138 3.26955 0
M  V30 4591 H 449.009 -5.79145 1.5605 0
M  V30 4592 H 450.688 -6.13911 2.0426 0
M  V30 4593 N 450.82 -0.546701 -1.47814 0
M  V30 4594 C 451.73 0.21026 -2.33656 0
M  V30 4595 C 452.746 0.922413 -1.47538 0
M  V30 4596 O 453.922 0.893652 -1.80488 0
M  V30 4597 C 450.987 1.23348 -3.24016 0
M  V30 4598 C 450.048 0.529883 -4.26017 0
M  V30 4599 C 449.281 1.50435 -5.12059 0
M  V30 4600 O 449.504 2.73837 -5.00369 0
M  V30 4601 O 448.438 1.03459 -5.92942 0
M  V30 4602 H 452.264 -0.493605 -2.99662 0
M  V30 4603 H 449.849 -0.307427 -1.46203 0
M  V30 4604 H 451.731 1.82438 -3.79861 0
M  V30 4605 H 450.406 1.91945 -2.60651 0
M  V30 4606 H 449.313 -0.101948 -3.73961 0
M  V30 4607 H 450.646 -0.11445 -4.92067 0
M  V30 4608 N 452.299 1.55045 -0.282633 0
M  V30 4609 C 453.545 2.00056 0.332481 0
M  V30 4610 C 453.878 1.1708 1.54939 0
M  V30 4611 O 453.153 0.2427 1.9298 0
M  V30 4612 C 453.436 3.53086 0.70725 0
M  V30 4613 C 453.289 4.46813 -0.517521 0
M  V30 4614 C 454.608 4.12245 1.54084 0
M  V30 4615 H 451.727 0.727268 0.119373 0
M  V30 4616 H 454.369 1.85932 -0.391076 0
M  V30 4617 H 452.519 3.65253 1.32372 0
M  V30 4618 H 454.191 4.46579 -1.15607 0
M  V30 4619 H 452.434 4.18163 -1.1542 0
M  V30 4620 H 453.105 5.51595 -0.211426 0
M  V30 4621 H 455.581 4.03401 1.02013 0
M  V30 4622 H 454.457 5.19515 1.77186 0
M  V30 4623 H 454.718 3.62951 2.52427 0
M  V30 4624 N 453.777 0.010035 1.57597 0
M  V30 4625 C 454.709 -1.00649 2.05918 0
M  V30 4626 C 455.722 -1.30077 0.978964 0
M  V30 4627 O 456.911 -1.26878 1.25556 0
M  V30 4628 C 454.011 -2.33876 2.45265 0
M  V30 4629 C 453.184 -2.23242 3.7614 0
M  V30 4630 C 452.243 -3.39242 4.02245 0
M  V30 4631 O 451.269 -3.1698 4.72771 0
M  V30 4632 N 452.471 -4.6242 3.50924 0
M  V30 4633 H 455.236 -0.594333 2.93748 0
M  V30 4634 H 452.797 -0.17714 1.60928 0
M  V30 4635 H 454.789 -3.1027 2.59836 0
M  V30 4636 H 453.359 -2.66799 1.62902 0
M  V30 4637 H 452.579 -1.31696 3.71551 0
M  V30 4638 H 453.867 -2.13321 4.61922 0
M  V30 4639 H 453.265 -4.83404 2.93832 0
M  V30 4640 H 451.822 -5.36046 3.70807 0
M  V30 4641 N 455.255 -1.55392 -0.262866 0
M  V30 4642 C 456.666 -1.67079 -0.833158 0
M  V30 4643 C 457.017 -0.604539 -1.86654 0
M  V30 4644 O 456.142 0.252138 -2.14926 0
M  V30 4645 C 456.737 -3.02891 -1.51797 0
M  V30 4646 C 455.296 -3.16571 -2.03617 0
M  V30 4647 C 454.443 -2.62909 -0.881701 0
M  V30 4648 H 457.394 -1.58652 -0.0389986 0
M  V30 4649 H 457.415 -2.96445 -2.38538 0
M  V30 4650 H 456.927 -3.80473 -0.765619 0
M  V30 4651 H 455.028 -2.43782 -2.81782 0
M  V30 4652 H 455.141 -4.23271 -2.24452 0
M  V30 4653 H 453.505 -2.20324 -1.27786 0
M  V30 4654 H 454.288 -3.43003 -0.14269 0
M  V30 4655 N 456.733 0.527833 -1.48498 0
M  V30 4656 C 457.683 1.62844 -1.5958 0
M  V30 4657 C 458.667 1.54397 -0.452809 0
M  V30 4658 O 459.859 1.62381 -0.704364 0
M  V30 4659 C 456.988 3.01557 -1.64067 0
M  V30 4660 C 456.074 3.151 -2.83853 0
M  V30 4661 N 456.465 2.9861 -4.08247 0
M  V30 4662 C 454.763 3.46158 -2.8123 0
M  V30 4663 C 455.464 3.15626 -4.88626 0
M  V30 4664 N 454.44 3.43298 -4.21483 0
M  V30 4665 H 458.242 1.48708 -2.53502 0
M  V30 4666 H 455.756 0.733343 -1.44899 0
M  V30 4667 H 457.753 3.8062 -1.70101 0
M  V30 4668 H 456.413 3.16783 -0.712636 0
M  V30 4669 H 457.424 2.75329 -4.3865 0
M  V30 4670 H 454.101 3.67728 -1.97692 0
M  V30 4671 H 455.491 3.07596 -5.97356 0
M  V30 4672 N 458.211 1.37122 0.776871 0
M  V30 4673 C 459.174 1.32301 1.8716 0
M  V30 4674 C 460.174 0.228099 1.59174 0
M  V30 4675 O 461.364 0.483642 1.67352 0
M  V30 4676 C 458.496 1.054 3.24197 0
M  V30 4677 H 459.689 2.29673 1.92848 0
M  V30 4678 H 457.242 1.22077 0.97606 0
M  V30 4679 H 457.977 0.0853872 3.24188 0
M  V30 4680 H 457.762 1.84648 3.45901 0
M  V30 4681 H 459.252 1.04664 4.04271 0
M  V30 4682 N 459.689 -1.00246 1.21608 0
M  V30 4683 C 460.652 -2.07233 0.979133 0
M  V30 4684 C 461.652 -1.6072 -0.0508219 0
M  V30 4685 O 462.842 -1.73196 0.186712 0
M  V30 4686 C 459.974 -3.37546 0.477016 0
M  V30 4687 H 461.167 -2.29687 1.92831 0
M  V30 4688 H 458.72 -1.17261 1.03342 0
M  V30 4689 H 459.455 -3.20773 -0.476966 0
M  V30 4690 H 459.24 -3.72638 1.21997 0
M  V30 4691 H 460.73 -4.16285 0.331181 0
M  V30 4692 N 461.167 -1.02423 -1.1978 0
M  V30 4693 C 462.583 -0.740459 -1.41384 0
M  V30 4694 C 462.783 0.676827 -1.89793 0
M  V30 4695 O 461.839 1.4435 -2.0717 0
M  V30 4696 C 463.152 -1.77264 -2.42895 0
M  V30 4697 C 464.7 -1.79165 -2.56649 0
M  V30 4698 C 465.175 -2.8133 -3.6141 0
M  V30 4699 N 466.666 -2.80118 -3.68901 0
M  V30 4700 C 467.401 -3.55824 -4.49641 0
M  V30 4701 N 466.897 -4.41231 -5.34123 0
M  V30 4702 N 468.69 -3.44387 -4.44246 0
M  V30 4703 H 460.841 -1.9391 -0.866764 0
M  V30 4704 H 463.104 -0.838074 -0.443098 0
M  V30 4705 H 462.81 -2.7884 -2.14339 0
M  V30 4706 H 462.684 -1.59108 -3.42001 0
M  V30 4707 H 465.071 -0.782702 -2.84531 0
M  V30 4708 H 465.152 -2.01396 -1.57713 0
M  V30 4709 H 464.796 -3.82394 -3.34271 0
M  V30 4710 H 464.726 -2.56359 -4.59986 0
M  V30 4711 H 467.217 -2.1817 -3.08562 0
M  V30 4712 H 467.53 -4.95747 -5.92836 0
M  V30 4713 H 465.875 -4.45306 -5.33599 0
M  V30 4714 H 469.066 -2.7708 -3.77285 0
M  V30 4715 H 469.239 -4.0364 -5.06931 0
M  V30 4716 N 462.645 1.35699 -0.801477 0
M  V30 4717 C 463.891 1.99208 -0.380022 0
M  V30 4718 C 464.224 1.63445 1.04878 0
M  V30 4719 O 463.499 0.895223 1.72673 0
M  V30 4720 C 463.782 3.55755 -0.557708 0
M  V30 4721 C 463.635 4.01332 -2.03107 0
M  V30 4722 C 464.954 4.40096 0.0197968 0
M  V30 4723 H 462.073 0.723667 -0.139552 0
M  V30 4724 H 464.715 1.60928 -1.01006 0
M  V30 4725 H 462.865 3.88494 -0.0213741 0
M  V30 4726 H 464.537 3.79026 -2.62939 0
M  V30 4727 H 462.78 3.52429 -2.52936 0
M  V30 4728 H 463.451 5.10234 -2.1063 0
M  V30 4729 H 465.927 4.13786 -0.438179 0
M  V30 4730 H 464.803 5.48735 -0.134477 0
M  V30 4731 H 465.064 4.2786 1.11303 0
M  V30 4732 N 464.123 0.554532 1.47522 0
M  V30 4733 C 465.371 0.0294208 2.02079 0
M  V30 4734 C 465.692 -1.32411 1.43151 0
M  V30 4735 O 464.962 -1.863 0.605728 0
M  V30 4736 H 463.542 0.00788672 0.746958 0
M  V30 4737 H 466.204 0.723934 1.80956 0
M  V30 4738 H 465.3 -0.0606745 3.12041 0
M  V30 4739 N 465.601 -1.54893 0.290851 0
M  V30 4740 C 466.878 -1.91991 -0.373989 0
M  V30 4741 C 467.258 -1.21694 -1.72493 0
M  V30 4742 O 466.606 -0.34917 -2.25816 0
M  V30 4743 C 466.816 -3.45419 -0.498703 0
M  V30 4744 C 468.164 -4.1748 -0.774298 0
M  V30 4745 O 469.188 -3.51398 -0.582908 0
M  V30 4746 O 468.047 -5.3445 -1.14129 0
M  V30 4747 H 465.141 -0.800593 -0.207315 0
M  V30 4748 H 467.687 -1.66297 0.338164 0
M  V30 4749 H 466.459 -3.88688 0.451392 0
M  V30 4750 H 466.082 -3.77117 -1.25972 0
M  V30 4751 N 467.08 -0.0183926 -1.57589 0
M  V30 4752 C 468.326 0.663543 -1.91638 0
M  V30 4753 C 468.659 1.72392 -0.894134 0
M  V30 4754 O 467.934 1.94316 0.0846449 0
M  V30 4755 C 468.217 1.28984 -3.36207 0
M  V30 4756 C 468.07 0.239761 -4.49161 0
M  V30 4757 C 469.389 2.2109 -3.80536 0
M  V30 4758 H 466.508 0.239746 -0.696915 0
M  V30 4759 H 469.15 -0.073456 -1.89858 0
M  V30 4760 H 467.3 1.91799 -3.37854 0
M  V30 4761 H 468.972 -0.390119 -4.59647 0
M  V30 4762 H 467.215 -0.435972 -4.31604 0
M  V30 4763 H 467.886 0.717383 -5.47319 0
M  V30 4764 H 470.362 1.68273 -3.80557 0
M  V30 4765 H 469.238 2.61869 -4.82406 0
M  V30 4766 H 469.499 3.09764 -3.15434 0
M  V30 4767 N 468.558 1.5553 0.254621 0
M  V30 4768 C 469.804 1.7818 0.980989 0
M  V30 4769 C 470.159 0.586059 1.83257 0
M  V30 4770 O 469.452 -0.420889 1.8692 0
M  V30 4771 C 469.646 3.03891 1.88109 0
M  V30 4772 C 469.475 4.35578 1.11812 0
M  V30 4773 C 468.245 4.98497 0.826343 0
M  V30 4774 C 470.443 5.11869 0.499486 0
M  V30 4775 N 468.425 6.13888 0.0385095 0
M  V30 4776 C 469.796 6.1981 -0.153292 0
M  V30 4777 C 471.851 4.96216 0.409175 0
M  V30 4778 C 470.554 7.13801 -0.8877 0
M  V30 4779 C 472.58 5.90578 -0.311683 0
M  V30 4780 C 471.942 6.97922 -0.953129 0
M  V30 4781 H 468.041 0.704057 0.340335 0
M  V30 4782 H 470.625 1.93025 0.254855 0
M  V30 4783 H 468.796 2.90389 2.57932 0
M  V30 4784 H 470.528 3.14869 2.54244 0
M  V30 4785 H 467.283 4.59769 1.13621 0
M  V30 4786 H 467.707 6.76129 -0.343275 0
M  V30 4787 H 472.349 4.1331 0.890765 0
M  V30 4788 H 470.067 7.96214 -1.38092 0
M  V30 4789 H 473.653 5.80544 -0.382125 0
M  V30 4790 H 472.533 7.69681 -1.50203 0
M  V30 4791 N 470.036 -0.519951 1.48776 0
M  V30 4792 C 471.283 -1.27522 1.57303 0
M  V30 4793 C 471.611 -1.92869 0.251328 0
M  V30 4794 O 470.866 -1.80372 -0.759243 0
M  V30 4795 C 471.165 -2.37864 2.6675 0
M  V30 4796 C 470.831 -1.90103 4.08867 0
M  V30 4797 C 469.493 -1.76795 4.47546 0
M  V30 4798 C 471.845 -1.54133 4.97888 0
M  V30 4799 C 469.173 -1.25868 5.73039 0
M  V30 4800 C 471.525 -1.04665 6.23881 0
M  V30 4801 C 470.189 -0.899823 6.61407 0
M  V30 4802 H 469.459 -0.466636 0.575614 0
M  V30 4803 H 472.106 -0.579109 1.82534 0
M  V30 4804 H 470.411 -3.13186 2.35418 0
M  V30 4805 H 472.108 -2.95969 2.70561 0
M  V30 4806 H 468.698 -2.01414 3.78326 0
M  V30 4807 H 472.882 -1.6327 4.68675 0
M  V30 4808 H 468.138 -1.13196 6.0083 0
M  V30 4809 H 472.312 -0.759074 6.92251 0
M  V30 4810 H 469.939 -0.503011 7.58534 0
M  V30 4811 N 471.514 -1.37532 -0.769588 0
M  V30 4812 C 472.742 -1.36059 -1.55871 0
M  V30 4813 C 473.157 0.053544 -1.88724 0
M  V30 4814 O 472.514 1.01591 -1.5161 0
M  V30 4815 C 472.565 -2.20107 -2.86767 0
M  V30 4816 O 472.286 -3.56009 -2.55321 0
M  V30 4817 C 473.787 -2.26636 -3.80987 0
M  V30 4818 H 471.007 -0.465967 -0.482821 0
M  V30 4819 H 473.551 -1.80901 -0.953686 0
M  V30 4820 H 471.706 -1.78768 -3.43687 0
M  V30 4821 H 472.12 -4.0009 -3.39158 0
M  V30 4822 H 473.594 -2.89763 -4.69831 0
M  V30 4823 H 474.071 -1.2754 -4.20274 0
M  V30 4824 H 474.677 -2.68296 -3.29996 0
M  V30 4825 N 472.992 0.995999 -1.22138 0
M  V30 4826 C 474.24 1.73167 -1.042 0
M  V30 4827 C 474.561 1.90329 0.42423 0
M  V30 4828 O 473.831 1.4607 1.30539 0
M  V30 4829 H 472.411 0.641593 -0.38258 0
M  V30 4830 H 475.073 1.19974 -1.53598 0
M  V30 4831 H 474.169 2.72734 -1.51731 0
M  V30 4832 N 474.47 1.03057 1.19235 0
M  V30 4833 C 475.719 0.72326 1.88287 0
M  V30 4834 C 476.032 -0.751333 1.80594 0
M  V30 4835 O 477.238 -1.17176 2.44912 0
M  V30 4836 C 475.694 1.24338 3.3774 0
M  V30 4837 C 475.302 2.74587 3.53986 0
M  V30 4838 C 477.046 1.01213 4.12257 0
M  V30 4839 C 474.953 3.20009 4.97341 0
M  V30 4840 H 473.883 0.266848 0.705201 0
M  V30 4841 H 476.534 1.24509 1.34795 0
M  V30 4842 H 474.916 0.649457 3.90638 0
M  V30 4843 H 476.09 3.39649 3.11408 0
M  V30 4844 H 474.405 2.9601 2.9286 0
M  V30 4845 H 477.002 1.32675 5.17978 0
M  V30 4846 H 477.345 -0.051001 4.16269 0
M  V30 4847 H 477.878 1.57014 3.65501 0
M  V30 4848 H 474.617 4.25659 4.98493 0
M  V30 4849 H 474.137 2.59676 5.40674 0
M  V30 4850 H 475.816 3.13447 5.66003 0
M  V30 4851 N 475.948 -1.35272 0.808662 0
M  V30 4852 C 477.359 -1.81179 0.450688 0
M  V30 4853 C 477.71 -1.67143 -1.02751 0
M  V30 4854 O 476.835 -1.20325 -1.79864 0
M  V30 4855 C 477.43 -3.28943 0.811275 0
M  V30 4856 C 475.989 -3.72985 0.505871 0
M  V30 4857 C 475.136 -2.57229 1.03578 0
M  V30 4858 H 478.087 -1.2322 1.00012 0
M  V30 4859 H 478.108 -3.80342 0.109588 0
M  V30 4860 H 477.62 -3.39127 1.88718 0
M  V30 4861 H 475.721 -3.68349 -0.561209 0
M  V30 4862 H 475.834 -4.67677 1.03995 0
M  V30 4863 H 474.198 -2.50548 0.458005 0
M  V30 4864 H 474.981 -2.7019 2.11784 0
M  V30 4865 N 477.426 -0.562348 -1.47226 0
M  V30 4866 C 478.359 0.230405 -2.27034 0
M  V30 4867 C 479.337 0.915609 -1.3437 0
M  V30 4868 O 480.521 0.933573 -1.63758 0
M  V30 4869 C 477.648 1.32874 -3.11548 0
M  V30 4870 C 476.694 0.751552 -4.19826 0
M  V30 4871 S 477.527 -0.405848 -5.3396 0
M  V30 4872 C 478.683 0.694186 -6.22038 0
M  V30 4873 H 478.916 -0.446811 -2.93923 0
M  V30 4874 H 476.449 -0.348781 -1.50409 0
M  V30 4875 H 478.407 1.95773 -3.60809 0
M  V30 4876 H 477.068 1.97782 -2.44011 0
M  V30 4877 H 476.261 1.57651 -4.78709 0
M  V30 4878 H 475.863 0.198645 -3.73472 0
M  V30 4879 H 478.155 1.58501 -6.58698 0
M  V30 4880 H 479.098 0.142592 -7.07956 0
M  V30 4881 H 479.506 0.989169 -5.55766 0
M  V30 4882 N 478.904 1.54736 -0.299062 0
M  V30 4883 C 479.852 2.24897 0.593658 0
M  V30 4884 C 480.846 1.25429 1.13859 0
M  V30 4885 O 482.052 1.43286 1.08945 0
M  V30 4886 H 478.427 0.72207 0.210046 0
M  V30 4887 H 480.398 2.98393 -0.0206421 0
M  V30 4888 C 479.147 3.00159 1.75499 0
M  V30 4889 H 478.47 3.76501 1.34489 0
M  V30 4890 H 479.91 3.52535 2.35574 0
M  V30 4891 C 478.369 2.07015 2.65794 0
M  V30 4892 O 478.899 1.63692 3.66835 0
M  V30 4893 N 477.105 1.73012 2.33485 0
M  V30 4894 H 476.652 2.08439 1.51364 0
M  V30 4895 H 476.61 1.10965 2.94167 0
M  V30 4896 N 480.382 0.0267497 1.57577 0
M  V30 4897 C 481.314 -0.984594 2.06974 0
M  V30 4898 C 482.327 -1.29032 0.992705 0
M  V30 4899 O 483.516 -1.25539 1.26895 0
M  V30 4900 C 480.616 -2.31262 2.47732 0
M  V30 4901 C 479.789 -2.1924 3.78487 0
M  V30 4902 C 478.848 -3.34956 4.05821 0
M  V30 4903 O 477.874 -3.11948 4.76106 0
M  V30 4904 N 479.076 -4.58672 3.55809 0
M  V30 4905 H 481.841 -0.563143 2.94362 0
M  V30 4906 H 479.402 -0.160061 1.61107 0
M  V30 4907 H 481.394 -3.07496 2.63112 0
M  V30 4908 H 479.964 -2.65056 1.65723 0
M  V30 4909 H 479.184 -1.27747 3.72927 0
M  V30 4910 H 480.472 -2.08409 4.64158 0
M  V30 4911 H 479.87 -4.8026 2.98942 0
M  V30 4912 H 478.427 -5.32083 3.76472 0
M  V30 4913 N 481.861 -1.55662 -0.24637 0
M  V30 4914 C 482.824 -1.89558 -1.28842 0
M  V30 4915 C 483.824 -0.772082 -1.41052 0
M  V30 4916 O 485.014 -1.04007 -1.39743 0
M  V30 4917 C 482.146 -2.12449 -2.66605 0
M  V30 4918 H 483.339 -2.82735 -1.00004 0
M  V30 4919 H 480.892 -1.48562 -0.485684 0
M  V30 4920 H 481.627 -1.21742 -3.00582 0
M  V30 4921 H 481.412 -2.94273 -2.59125 0
M  V30 4922 H 482.902 -2.39854 -3.41847 0
M  V30 4923 N 483.339 0.512053 -1.4905 0
M  V30 4924 C 484.588 1.26343 -1.57227 0
M  V30 4925 C 484.901 1.93876 -0.259155 0
M  V30 4926 O 486.107 2.70612 -0.219358 0
M  V30 4927 C 484.563 2.29343 -2.77362 0
M  V30 4928 C 484.171 1.67799 -4.15388 0
M  V30 4929 C 485.915 3.05378 -2.94864 0
M  V30 4930 C 483.822 2.68845 -5.2676 0
M  V30 4931 H 482.752 0.475231 -0.585382 0
M  V30 4932 H 485.403 0.53862 -1.75417 0
M  V30 4933 H 483.785 3.04938 -2.52643 0
M  V30 4934 H 484.959 0.982715 -4.50199 0
M  V30 4935 H 483.274 1.04194 -4.03153 0
M  V30 4936 H 485.871 3.80921 -3.75238 0
M  V30 4937 H 486.214 3.62327 -2.05 0
M  V30 4938 H 486.747 2.36898 -3.19569 0
M  V30 4939 H 483.486 2.16692 -6.18647 0
M  V30 4940 H 483.006 3.36647 -4.96416 0
M  V30 4941 H 484.685 3.31487 -5.5563 0
M  V30 4942 N 484.817 1.37938 0.762283 0
M  V30 4943 C 485.727 1.36681 1.90671 0
M  V30 4944 C 486.743 0.265078 1.71969 0
M  V30 4945 O 487.919 0.502055 1.95042 0
M  V30 4946 C 484.984 1.18211 3.25925 0
M  V30 4947 C 484.045 2.3811 3.57214 0
M  V30 4948 C 483.278 2.20512 4.86014 0
M  V30 4949 O 483.501 1.19429 5.57757 0
M  V30 4950 O 482.435 3.08911 5.16583 0
M  V30 4951 H 486.261 2.33091 1.94685 0
M  V30 4952 H 483.846 1.18767 0.906356 0
M  V30 4953 H 485.728 1.09937 4.06807 0
M  V30 4954 H 484.403 0.248807 3.22742 0
M  V30 4955 H 483.31 2.51958 2.76529 0
M  V30 4956 H 484.643 3.30041 3.65149 0
M  V30 4957 N 486.295 -0.989507 1.22664 0
M  V30 4958 C 487.523 -1.76496 1.07967 0
M  V30 4959 C 487.938 -1.85148 -0.369543 0
M  V30 4960 O 487.295 -1.32408 -1.25596 0
M  V30 4961 C 487.346 -3.19642 1.68853 0
M  V30 4962 O 487.067 -3.11453 3.08105 0
M  V30 4963 C 488.568 -4.13621 1.59475 0
M  V30 4964 H 485.788 -0.55418 0.378319 0
M  V30 4965 H 488.332 -1.24378 1.62328 0
M  V30 4966 H 486.487 -3.68816 1.18547 0
M  V30 4967 H 486.901 -4.01499 3.37489 0
M  V30 4968 H 488.375 -5.11801 2.06795 0
M  V30 4969 H 488.852 -4.35718 0.55191 0
M  V30 4970 H 489.458 -3.70346 2.09103 0
M  V30 4971 N 487.773 -1.03688 -1.18687 0
M  V30 4972 C 488.703 -0.645407 -2.24403 0
M  V30 4973 C 489.684 0.349511 -1.66471 0
M  V30 4974 O 490.869 0.230453 -1.92828 0
M  V30 4975 C 487.999 -0.00365337 -3.473 0
M  V30 4976 C 486.953 -0.921705 -4.17958 0
M  V30 4977 C 486.279 -0.144629 -5.34504 0
M  V30 4978 C 487.579 -2.23909 -4.71871 0
M  V30 4979 H 489.273 -1.52917 -2.57404 0
M  V30 4980 H 486.819 -0.736711 -1.23728 0
M  V30 4981 H 488.772 0.281908 -4.20456 0
M  V30 4982 H 487.496 0.914963 -3.13522 0
M  V30 4983 H 486.155 -1.19159 -3.46694 0
M  V30 4984 H 485.803 0.776274 -4.96974 0
M  V30 4985 H 485.503 -0.756206 -5.82714 0
M  V30 4986 H 487.027 0.134004 -6.10453 0
M  V30 4987 H 488.441 -2.0145 -5.36741 0
M  V30 4988 H 486.838 -2.8033 -5.30599 0
M  V30 4989 H 487.908 -2.88822 -3.895 0
M  V30 4990 N 489.251 1.34841 -0.815825 0
M  V30 4991 C 490.497 1.98793 -0.401129 0
M  V30 4992 C 490.83 1.64548 1.03139 0
M  V30 4993 O 490.105 0.913487 1.71714 0
M  V30 4994 C 490.388 3.55143 -0.595409 0
M  V30 4995 C 490.241 3.99155 -2.07352 0
M  V30 4996 C 491.56 4.40092 -0.0268823 0
M  V30 4997 H 488.679 0.722146 -0.14722 0
M  V30 4998 H 491.321 1.59847 -1.02707 0
M  V30 4999 H 489.471 3.8845 -0.0625779 0
M  V30 5000 H 491.143 3.76216 -2.66945 0
M  V30 5001 H 489.386 3.49726 -2.56659 0
M  V30 5002 H 490.057 5.07971 -2.1603 0
M  V30 5003 H 492.533 4.13298 -0.482042 0
M  V30 5004 H 491.409 5.48562 -0.19267 0
M  V30 5005 H 491.67 4.29016 1.06759 0
M  V30 5006 N 490.729 0.570148 1.46925 0
M  V30 5007 C 491.639 -0.173061 2.33961 0
M  V30 5008 C 492.655 -0.898825 1.48987 0
M  V30 5009 O 493.831 -0.864825 1.81887 0
M  V30 5010 C 490.896 -1.18177 3.25937 0
M  V30 5011 C 489.957 -0.462041 4.26806 0
M  V30 5012 C 489.19 -1.4227 5.14388 0
M  V30 5013 O 489.413 -2.65842 5.04662 0
M  V30 5014 O 488.347 -0.940127 5.94513 0
M  V30 5015 H 492.173 0.541216 2.98839 0
M  V30 5016 H 489.758 0.330647 1.45695 0
M  V30 5017 H 491.64 -1.76372 3.82715 0
M  V30 5018 H 490.315 -1.87774 2.63671 0
M  V30 5019 H 489.222 0.161429 3.73752 0
M  V30 5020 H 490.555 0.192719 4.91823 0
M  V30 5021 N 492.207 -1.54576 0.307264 0
M  V30 5022 C 493.137 -2.26708 -0.55907 0
M  V30 5023 C 494.118 -1.26893 -1.1328 0
M  V30 5024 O 495.303 -1.55677 -1.16097 0
M  V30 5025 C 492.433 -3.01259 -1.72801 0
M  V30 5026 C 491.387 -4.08275 -1.28435 0
M  V30 5027 C 490.713 -4.70575 -2.53895 0
M  V30 5028 C 492.013 -5.2068 -0.411038 0
M  V30 5029 H 493.707 -2.9937 0.042576 0
M  V30 5030 H 491.253 -1.43983 0.0219173 0
M  V30 5031 H 493.206 -3.50444 -2.34023 0
M  V30 5032 H 491.93 -2.26187 -2.356 0
M  V30 5033 H 490.589 -3.59949 -0.695161 0
M  V30 5034 H 490.237 -3.92136 -3.15021 0
M  V30 5035 H 489.937 -5.42854 -2.24908 0
M  V30 5036 H 491.461 -5.22527 -3.15908 0
M  V30 5037 H 492.875 -5.65721 -0.929097 0
M  V30 5038 H 491.272 -5.99716 -0.214664 0
M  V30 5039 H 492.342 -4.81629 0.562287 0
M  V30 5040 N 493.685 -0.035106 -1.57561 0
M  V30 5041 C 494.925 0.646316 -1.93913 0
M  V30 5042 C 495.289 1.68947 -0.912185 0
M  V30 5043 O 496.49 2.42381 -1.1621 0
M  V30 5044 C 494.761 1.24136 -3.35149 0
M  V30 5045 S 496.32 1.94302 -3.93436 0
M  V30 5046 H 493.138 0.212642 -0.678457 0
M  V30 5047 H 495.74 -0.100203 -1.95243 0
M  V30 5048 H 494.444 0.46979 -4.07702 0
M  V30 5049 H 493.975 2.02505 -3.37276 0
M  V30 5050 H 495.99 3.22205 -3.77357 0
M  V30 5051 N 495.163 1.55791 0.238111 0
M  V30 5052 C 496.11 1.9105 1.29493 0
M  V30 5053 C 497.08 0.765733 1.47397 0
M  V30 5054 O 498.265 1.02017 1.61236 0
M  V30 5055 C 495.405 2.21826 2.64362 0
M  V30 5056 C 494.518 3.49153 2.54394 0
M  V30 5057 C 493.653 3.69455 3.81676 0
M  V30 5058 C 492.692 4.90353 3.66361 0
M  V30 5059 N 491.829 5.07131 4.85554 0
M  V30 5060 H 496.669 2.81172 0.987233 0
M  V30 5061 H 494.206 1.39179 0.476203 0
M  V30 5062 H 496.164 2.37675 3.4288 0
M  V30 5063 H 494.794 1.34897 2.93262 0
M  V30 5064 H 493.846 3.41587 1.67399 0
M  V30 5065 H 495.158 4.37818 2.38991 0
M  V30 5066 H 494.312 3.85311 4.68636 0
M  V30 5067 H 493.051 2.7904 3.99985 0
M  V30 5068 H 492.056 4.74464 2.77784 0
M  V30 5069 H 493.281 5.82237 3.49538 0
M  V30 5070 H 491.227 4.19654 5.04209 0
M  V30 5071 H 491.144 5.89899 4.72816 0
M  V30 5072 H 492.412 5.27407 5.73988 0
M  V30 5073 N 496.642 -0.504142 1.49319 0
M  V30 5074 C 497.574 -1.62265 1.61872 0
M  V30 5075 C 498.587 -1.54881 0.501573 0
M  V30 5076 O 499.776 -1.6087 0.773497 0
M  V30 5077 C 496.876 -3.01042 1.55651 0
M  V30 5078 C 496.049 -3.33642 2.82845 0
M  V30 5079 C 495.108 -4.51816 2.69719 0
M  V30 5080 O 494.134 -4.53755 3.4365 0
M  V30 5081 N 495.336 -5.51543 1.81055 0
M  V30 5082 H 498.101 -1.51924 2.58339 0
M  V30 5083 H 495.662 -0.691954 1.46368 0
M  V30 5084 H 497.654 -3.78013 1.44528 0
M  V30 5085 H 496.224 -3.05323 0.670546 0
M  V30 5086 H 495.444 -2.45598 3.08343 0
M  V30 5087 H 496.732 -3.5222 3.67177 0
M  V30 5088 H 496.13 -5.52774 1.20241 0
M  V30 5089 H 494.687 -6.27629 1.75856 0
M  V30 5090 N 498.12 -1.38341 -0.754957 0
M  V30 5091 C 499.07 -1.31964 -1.85929 0
M  V30 5092 C 500.054 -0.204181 -1.59599 0
M  V30 5093 O 501.246 -0.440036 -1.71443 0
M  V30 5094 C 498.375 -1.14565 -3.2362 0
M  V30 5095 C 497.461 -2.30727 -3.55846 0
M  V30 5096 N 497.852 -3.56165 -3.59138 0
M  V30 5097 C 496.15 -2.23249 -3.86104 0
M  V30 5098 C 496.851 -4.32865 -3.88591 0
M  V30 5099 N 495.827 -3.62203 -4.05351 0
M  V30 5100 H 499.629 -2.2694 -1.8675 0
M  V30 5101 H 497.143 -1.31553 -0.952243 0
M  V30 5102 H 499.14 -1.0808 -4.02647 0
M  V30 5103 H 497.8 -0.205212 -3.24051 0
M  V30 5104 H 498.811 -3.89854 -3.40932 0
M  V30 5105 H 495.488 -1.37357 -3.94258 0
M  V30 5106 H 496.878 -5.41504 -3.97773 0
M  V30 5107 N 499.598 0.982988 -1.23187 0
M  V30 5108 C 500.844 1.72648 -1.06398 0
M  V30 5109 C 501.177 1.90066 0.398561 0
M  V30 5110 O 500.452 1.45105 1.29518 0
M  V30 5111 C 500.735 3.12627 -1.78707 0
M  V30 5112 C 500.588 3.02795 -3.32618 0
M  V30 5113 C 501.907 4.11997 -1.54747 0
M  V30 5114 H 499.026 0.626649 -0.387918 0
M  V30 5115 H 501.668 1.14455 -1.51658 0
M  V30 5116 H 499.818 3.62308 -1.40234 0
M  V30 5117 H 501.49 2.60659 -3.80598 0
M  V30 5118 H 499.733 2.39362 -3.61785 0
M  V30 5119 H 500.404 4.01893 -3.78399 0
M  V30 5120 H 502.88 3.71114 -1.88186 0
M  V30 5121 H 501.756 5.08037 -2.07821 0
M  V30 5122 H 502.017 4.39462 -0.482249 0
M  V30 5123 N 501.076 1.04316 1.18135 0
M  V30 5124 C 502.026 0.606731 2.19779 0
M  V30 5125 C 503.01 -0.352144 1.56999 0
M  V30 5126 O 504.202 -0.170795 1.76174 0
M  V30 5127 C 501.331 -0.0262443 3.4329 0
M  V30 5128 C 500.417 0.955928 4.13186 0
M  V30 5129 N 500.808 2.12395 4.59045 0
M  V30 5130 C 499.106 0.782473 4.39082 0
M  V30 5131 C 499.807 2.74458 5.12882 0
M  V30 5132 N 498.783 2.02316 5.04548 0
M  V30 5133 H 502.585 1.49679 2.5293 0
M  V30 5134 H 500.099 0.912088 1.34368 0
M  V30 5135 H 502.096 -0.356617 4.15372 0
M  V30 5136 H 500.756 -0.911811 3.11635 0
M  V30 5137 H 501.767 2.50272 4.53414 0
M  V30 5138 H 498.444 -0.0527906 4.17467 0
M  V30 5139 H 499.834 3.73459 5.5855 0
M  V30 5140 N 502.554 -1.34406 0.822964 0
M  V30 5141 C 503.517 -2.2783 0.250271 0
M  V30 5142 C 504.517 -1.50288 -0.571854 0
M  V30 5143 O 505.707 -1.69825 -0.387952 0
M  V30 5144 C 502.839 -3.34663 -0.649137 0
M  V30 5145 H 504.032 -2.79992 1.07444 0
M  V30 5146 H 501.585 -1.44539 0.594829 0
M  V30 5147 H 502.32 -2.87714 -1.49637 0
M  V30 5148 H 502.105 -3.92052 -0.0611199 0
M  V30 5149 H 503.595 -4.04349 -1.04363 0
M  V30 5150 N 504.032 -0.577932 -1.46621 0
M  V30 5151 C 505.28 -0.061566 -2.02006 0
M  V30 5152 C 505.601 1.30117 -1.4524 0
M  V30 5153 O 504.871 1.85313 -0.63529 0
M  V30 5154 H 503.451 -0.0197692 -0.746738 0
M  V30 5155 H 506.113 -0.752631 -1.79782 0
M  V30 5156 H 505.209 0.0110238 -3.12098 0
M  V30 5157 N 505.51 1.54411 -0.315457 0
M  V30 5158 C 506.44 2.27002 0.547039 0
M  V30 5159 C 507.421 1.27492 1.12605 0
M  V30 5160 O 508.606 1.5629 1.15269 0
M  V30 5161 C 505.736 3.02171 1.71201 0
M  V30 5162 C 504.69 4.0895 1.26268 0
M  V30 5163 C 504.016 4.71915 2.51396 0
M  V30 5164 C 505.316 5.20891 0.383419 0
M  V30 5165 H 507.01 2.99343 -0.0584517 0
M  V30 5166 H 504.556 1.4397 -0.0295527 0
M  V30 5167 H 506.509 3.51681 2.32161 0
M  V30 5168 H 505.233 2.27433 2.34397 0
M  V30 5169 H 503.892 3.60312 0.676062 0
M  V30 5170 H 503.54 3.93801 3.12937 0
M  V30 5171 H 503.24 5.44039 2.22026 0
M  V30 5172 H 504.764 5.24195 3.13133 0
M  V30 5173 H 506.178 5.66206 0.899082 0
M  V30 5174 H 504.575 5.99821 0.182857 0
M  V30 5175 H 505.645 4.81324 -0.587821 0
M  V30 5176 N 506.988 0.0434614 1.5754 0
M  V30 5177 C 507.921 -0.968729 2.06618 0
M  V30 5178 C 508.899 -1.30868 0.965 0
M  V30 5179 O 510.083 -1.42288 1.23638 0
M  V30 5180 C 507.21 -2.28486 2.50023 0
M  V30 5181 C 506.256 -2.09851 3.71302 0
M  V30 5182 S 507.089 -1.38401 5.17306 0
M  V30 5183 C 508.245 -2.71354 5.64019 0
M  V30 5184 H 508.478 -0.551021 2.92149 0
M  V30 5185 H 506.011 -0.168607 1.53477 0
M  V30 5186 H 507.969 -3.04142 2.75695 0
M  V30 5187 H 506.63 -2.67387 1.64812 0
M  V30 5188 H 505.823 -3.07184 3.99567 0
M  V30 5189 H 505.425 -1.42336 3.45856 0
M  V30 5190 H 507.717 -3.67549 5.69134 0
M  V30 5191 H 508.66 -2.47734 6.6335 0
M  V30 5192 H 509.068 -2.77259 4.91719 0
M  V30 5193 N 508.466 -1.55915 -0.229846 0
M  V30 5194 C 509.691 -1.8296 -0.976743 0
M  V30 5195 C 510.116 -0.622735 -1.77493 0
M  V30 5196 O 509.474 0.428431 -1.76165 0
M  V30 5197 C 509.522 -3.07916 -1.8767 0
M  V30 5198 O 508.626 -2.86028 -2.97088 0
M  V30 5199 H 507.967 -0.603453 -0.277021 0
M  V30 5200 H 510.497 -2.0312 -0.245669 0
M  V30 5201 H 510.507 -3.37802 -2.2881 0
M  V30 5202 H 509.182 -3.95389 -1.28996 0
M  V30 5203 H 507.759 -2.67355 -2.59954 0
M  V30 5204 N 509.944 0.496216 -1.49584 0
M  V30 5205 C 511.169 1.27865 -1.63295 0
M  V30 5206 C 511.594 1.85592 -0.306156 0
M  V30 5207 O 510.952 1.66092 0.726851 0
M  V30 5208 C 511 2.38128 -2.7079 0
M  V30 5209 O 510.104 3.42108 -2.30296 0
M  V30 5210 H 509.445 0.377279 -0.546403 0
M  V30 5211 H 511.975 0.593497 -1.95803 0
M  V30 5212 H 511.985 2.8382 -2.93104 0
M  V30 5213 H 510.66 1.95479 -3.67098 0
M  V30 5214 H 509.237 3.02301 -2.18331 0
M  V30 5215 N 511.423 1.38739 0.74761 0
M  V30 5216 C 512.648 1.38702 1.54197 0
M  V30 5217 C 513.073 -0.019664 1.8809 0
M  V30 5218 O 512.431 -1.00333 1.51006 0
M  V30 5219 C 512.479 2.25492 2.814 0
M  V30 5220 O 511.583 1.67613 3.76802 0
M  V30 5221 H 510.924 0.472863 0.466151 0
M  V30 5222 H 513.454 1.82577 0.923413 0
M  V30 5223 H 513.464 2.39561 3.30264 0
M  V30 5224 H 512.139 3.27727 2.56062 0
M  V30 5225 H 510.716 1.62718 3.35526 0
M  V30 5226 N 512.901 -0.976442 1.23707 0
M  V30 5227 C 514.126 -1.75875 1.09922 0
M  V30 5228 C 514.551 -1.84911 -0.34489 0
M  V30 5229 O 513.909 -1.31363 -1.24954 0
M  V30 5230 C 513.957 -3.16179 1.73388 0
M  V30 5231 O 513.061 -4.00124 0.99871 0
M  V30 5232 H 512.402 -0.540954 0.385052 0
M  V30 5233 H 514.932 -1.22546 1.6384 0
M  V30 5234 H 514.942 -3.66741 1.78788 0
M  V30 5235 H 513.617 -3.08917 2.78466 0
M  V30 5236 H 512.194 -3.58624 1.02193 0
M  V30 5237 N 514.379 -1.04941 -1.1758 0
M  V30 5238 C 515.627 -0.756492 -1.87408 0
M  V30 5239 C 515.948 0.718478 -1.81281 0
M  V30 5240 O 515.218 1.519 -1.23706 0
M  V30 5241 H 513.798 -0.276841 -0.693807 0
M  V30 5242 H 516.46 -1.32803 -1.42652 0
M  V30 5243 H 515.556 -1.06918 -2.93215 0
M  V30 5244 N 515.857 1.33968 -0.830081 0
M  V30 5245 C 516.82 2.27694 -0.26235 0
M  V30 5246 C 517.82 1.50589 0.563876 0
M  V30 5247 O 519.01 1.70028 0.378941 0
M  V30 5248 C 516.142 3.35002 0.63138 0
M  V30 5249 H 517.335 2.79419 -1.08928 0
M  V30 5250 H 514.888 1.44221 -0.602486 0
M  V30 5251 H 515.623 2.88504 1.48109 0
M  V30 5252 H 515.408 3.92079 0.0403276 0
M  V30 5253 H 516.898 4.04897 1.02217 0
M  V30 5254 N 517.335 0.585699 1.46312 0
M  V30 5255 C 518.584 0.0701192 2.01578 0
M  V30 5256 C 518.897 -1.29889 1.46247 0
M  V30 5257 O 520.103 -1.90598 1.93351 0
M  V30 5258 C 518.559 0.0747499 3.59822 0
M  V30 5259 C 518.167 1.44226 4.24149 0
M  V30 5260 C 519.911 -0.38673 4.22735 0
M  V30 5261 C 517.818 1.40446 5.74481 0
M  V30 5262 H 516.748 0.0224441 0.753666 0
M  V30 5263 H 519.399 0.737789 1.68015 0
M  V30 5264 H 517.781 -0.659144 3.90476 0
M  V30 5265 H 518.955 2.19612 4.05101 0
M  V30 5266 H 517.27 1.84401 3.73343 0
M  V30 5267 H 519.867 -0.433853 5.32937 0
M  V30 5268 H 520.21 -1.40489 3.91878 0
M  V30 5269 H 520.743 0.293195 3.96718 0
M  V30 5270 H 517.482 2.39952 6.10003 0
M  V30 5271 H 517.002 0.692845 5.95785 0
M  V30 5272 H 518.681 1.11865 6.37256 0
M  V30 5273 N 518.813 -1.54241 0.323641 0
M  V30 5274 C 520.224 -1.85975 -0.164405 0
M  V30 5275 C 520.575 -1.24529 -1.51615 0
M  V30 5276 O 519.7 -0.551351 -2.09258 0
M  V30 5277 C 520.295 -3.37424 -0.305091 0
M  V30 5278 C 518.854 -3.69107 -0.737358 0
M  V30 5279 C 518.001 -2.76942 0.140884 0
M  V30 5280 H 520.952 -1.49088 0.543922 0
M  V30 5281 H 520.973 -3.63147 -1.13598 0
M  V30 5282 H 520.485 -3.82116 0.678876 0
M  V30 5283 H 518.586 -3.29947 -1.73107 0
M  V30 5284 H 518.699 -4.76035 -0.541053 0
M  V30 5285 H 517.063 -2.51795 -0.383572 0
M  V30 5286 H 517.846 -3.24461 1.12162 0
M  V30 5287 N 520.291 -0.0518155 -1.57515 0
M  V30 5288 C 521.538 0.621823 -1.92716 0
M  V30 5289 C 521.866 1.70813 -0.930229 0
M  V30 5290 O 521.121 1.95616 0.0573708 0
M  V30 5291 C 521.42 1.25607 -3.34601 0
M  V30 5292 C 521.086 0.297901 -4.49915 0
M  V30 5293 C 519.748 0.034243 -4.81188 0
M  V30 5294 C 522.1 -0.358738 -5.19964 0
M  V30 5295 C 519.428 -0.893479 -5.79857 0
M  V30 5296 C 521.78 -1.27466 -6.19625 0
M  V30 5297 C 520.444 -1.54698 -6.49326 0
M  V30 5298 H 519.714 0.227541 -0.705199 0
M  V30 5299 H 522.361 -0.118432 -1.91133 0
M  V30 5300 H 520.666 2.07161 -3.32553 0
M  V30 5301 H 522.363 1.78424 -3.59118 0
M  V30 5302 H 518.953 0.513581 -4.25512 0
M  V30 5303 H 523.137 -0.168133 -4.96015 0
M  V30 5304 H 518.393 -1.11193 -6.01204 0
M  V30 5305 H 522.567 -1.78953 -6.73015 0
M  V30 5306 H 520.194 -2.26748 -7.25596 0
M  V30 5307 N 521.769 1.56035 0.221574 0
M  V30 5308 C 523.18 1.69229 0.788567 0
M  V30 5309 C 523.531 0.653814 1.84986 0
M  V30 5310 O 522.656 -0.195065 2.15519 0
M  V30 5311 C 523.251 3.06809 1.43713 0
M  V30 5312 C 521.81 3.21858 1.95152 0
M  V30 5313 C 520.957 2.65155 0.811685 0
M  V30 5314 H 523.908 1.587 -0.00307894 0
M  V30 5315 H 523.929 3.02666 2.30594 0
M  V30 5316 H 523.441 3.82369 0.664475 0
M  V30 5317 H 521.542 2.51167 2.7522 0
M  V30 5318 H 521.655 4.29073 2.1315 0
M  V30 5319 H 520.019 2.23635 1.21899 0
M  V30 5320 H 520.802 3.43261 0.0516987 0
M  V30 5321 N 523.247 -0.488276 1.49845 0
M  V30 5322 C 524.179 -1.60539 1.63584 0
M  V30 5323 C 525.192 -1.5434 0.517972 0
M  V30 5324 O 526.381 -1.60041 0.790516 0
M  V30 5325 C 523.481 -2.99374 1.58835 0
M  V30 5326 C 522.654 -3.30624 2.86368 0
M  V30 5327 C 521.713 -4.4893 2.74496 0
M  V30 5328 O 520.739 -4.50085 3.48443 0
M  V30 5329 N 521.941 -5.49591 1.86894 0
M  V30 5330 H 524.706 -1.49176 2.59936 0
M  V30 5331 H 522.267 -0.67639 1.47094 0
M  V30 5332 H 524.259 -3.76459 1.48529 0
M  V30 5333 H 522.829 -3.04595 0.702892 0
M  V30 5334 H 522.049 -2.42314 3.1093 0
M  V30 5335 H 523.337 -3.48305 3.70892 0
M  V30 5336 H 522.735 -5.51467 1.26097 0
M  V30 5337 H 521.292 -6.25728 1.82503 0
M  V30 5338 N 524.725 -1.39134 -0.740242 0
M  V30 5339 C 526.136 -1.32208 -1.31825 0
M  V30 5340 C 526.487 0.0159919 -1.96193 0
M  V30 5341 O 525.612 0.918111 -1.95958 0
M  V30 5342 C 526.207 -2.39436 -2.39699 0
M  V30 5343 C 524.766 -2.36048 -2.93187 0
M  V30 5344 C 523.913 -2.21599 -1.66701 0
M  V30 5345 H 526.864 -1.49298 -0.538133 0
M  V30 5346 H 526.885 -2.05922 -3.19963 0
M  V30 5347 H 526.397 -3.36811 -1.92821 0
M  V30 5348 H 524.498 -1.42295 -3.44359 0
M  V30 5349 H 524.611 -3.30704 -3.46658 0
M  V30 5350 H 522.975 -1.68681 -1.90837 0
M  V30 5351 H 523.758 -3.20936 -1.21882 0
M  V30 5352 N 526.204 0.969867 -1.24223 0
M  V30 5353 C 527.481 1.68774 -0.988664 0
M  V30 5354 C 527.861 2.05342 0.489673 0
M  V30 5355 O 527.209 1.75486 1.46345 0
M  V30 5356 C 527.419 2.92135 -1.90941 0
M  V30 5357 C 528.767 3.64422 -2.17903 0
M  V30 5358 O 529.791 3.02188 -1.88576 0
M  V30 5359 O 528.65 4.76446 -2.67697 0
M  V30 5360 H 525.744 0.737736 -0.37373 0
M  V30 5361 H 528.29 1.02415 -1.35312 0
M  V30 5362 H 527.062 2.61788 -2.90831 0
M  V30 5363 H 526.685 3.66228 -1.54798 0
M  V30 5364 N 527.682 1.05563 1.17022 0
M  V30 5365 C 528.93 0.76642 1.87004 0
M  V30 5366 C 529.251 -0.708854 1.8166 0
M  V30 5367 O 528.521 -1.51242 1.2451 0
M  V30 5368 H 527.101 0.280516 0.692329 0
M  V30 5369 H 529.763 1.33557 1.41945 0
M  V30 5370 H 528.859 1.08472 2.92644 0
M  V30 5371 N 529.16 -1.33526 0.837174 0
M  V30 5372 C 530.385 -2.0258 0.444545 0
M  V30 5373 C 530.81 -1.6258 -0.946006 0
M  V30 5374 O 530.168 -0.817548 -1.6182 0
M  V30 5375 C 530.216 -3.5605 0.571006 0
M  V30 5376 O 529.32 -4.10422 -0.403431 0
M  V30 5377 H 528.661 -0.638866 0.180958 0
M  V30 5378 H 531.191 -1.70462 1.13154 0
M  V30 5379 H 531.201 -4.05488 0.452024 0
M  V30 5380 H 529.876 -3.84509 1.58512 0
M  V30 5381 H 528.453 -3.72113 -0.242147 0
M  V30 5382 N 530.638 -0.59345 -1.46 0
M  V30 5383 C 531.568 0.121192 -2.33185 0
M  V30 5384 C 532.549 0.872977 -1.4599 0
M  V30 5385 O 533.734 0.846321 -1.74789 0
M  V30 5386 C 530.864 1.12844 -3.28456 0
M  V30 5387 C 529.818 0.4908 -4.25177 0
M  V30 5388 C 529.144 1.60529 -5.10034 0
M  V30 5389 C 530.444 -0.578949 -5.19081 0
M  V30 5390 H 532.138 -0.606767 -2.93187 0
M  V30 5391 H 529.684 -0.293242 -1.40983 0
M  V30 5392 H 531.637 1.63684 -3.88311 0
M  V30 5393 H 530.361 1.88681 -2.66584 0
M  V30 5394 H 529.02 0.00339328 -3.666 0
M  V30 5395 H 528.668 2.35359 -4.44539 0
M  V30 5396 H 528.368 1.18422 -5.75543 0
M  V30 5397 H 529.892 2.11623 -5.72755 0
M  V30 5398 H 531.306 -0.155199 -5.7309 0
M  V30 5399 H 529.703 -0.920947 -5.92991 0
M  V30 5400 H 530.773 -1.46109 -4.62364 0
M  V30 5401 N 532.116 1.54067 -0.331816 0
M  V30 5402 C 533.344 2.05131 0.269996 0
M  V30 5403 C 533.759 1.20749 1.45138 0
M  V30 5404 O 533.116 0.240069 1.80914 0
M  V30 5405 C 533.167 3.54728 0.696456 0
M  V30 5406 O 532.888 4.35906 -0.43794 0
M  V30 5407 C 534.389 4.21916 1.36021 0
M  V30 5408 H 531.609 0.668807 0.0542042 0
M  V30 5409 H 534.153 1.98777 -0.4804 0
M  V30 5410 H 532.308 3.61342 1.39681 0
M  V30 5411 H 532.722 5.24404 -0.100334 0
M  V30 5412 H 534.196 5.28015 1.60947 0
M  V30 5413 H 534.673 3.73538 2.31011 0
M  V30 5414 H 535.279 4.19463 0.702212 0
M  V30 5415 N 533.594 0.0601682 1.57485 0
M  V30 5416 C 534.526 -0.94047 2.09016 0
M  V30 5417 C 535.539 -1.26897 1.01985 0
M  V30 5418 O 536.728 -1.22819 1.29529 0
M  V30 5419 C 533.828 -2.25955 2.52582 0
M  V30 5420 C 533.001 -2.11163 3.83052 0
M  V30 5421 C 532.06 -3.26273 4.12835 0
M  V30 5422 O 531.086 -3.01779 4.82616 0
M  V30 5423 N 532.288 -4.51022 3.65458 0
M  V30 5424 H 535.053 -0.500578 2.9549 0
M  V30 5425 H 532.614 -0.125852 1.6141 0
M  V30 5426 H 534.606 -3.01846 2.69575 0
M  V30 5427 H 533.176 -2.61481 1.71308 0
M  V30 5428 H 532.396 -1.19808 3.75552 0
M  V30 5429 H 533.684 -1.98517 4.68475 0
M  V30 5430 H 533.082 -4.73811 3.09062 0
M  V30 5431 H 531.639 -5.23978 3.87673 0
M  V30 5432 N 535.072 -1.5615 -0.213296 0
M  V30 5433 C 535.982 -1.96265 -1.28519 0
M  V30 5434 C 536.998 -0.86765 -1.50824 0
M  V30 5435 O 538.174 -1.17191 -1.63793 0
M  V30 5436 C 535.239 -2.27836 -2.61327 0
M  V30 5437 C 534.3 -3.50949 -2.47252 0
M  V30 5438 C 533.533 -3.81004 -3.73727 0
M  V30 5439 O 533.756 -3.12612 -4.77106 0
M  V30 5440 O 532.69 -4.74477 -3.70344 0
M  V30 5441 H 536.516 -2.87631 -0.974795 0
M  V30 5442 H 534.101 -1.43467 -0.416832 0
M  V30 5443 H 535.983 -2.49299 -3.39747 0
M  V30 5444 H 534.658 -1.39643 -2.9203 0
M  V30 5445 H 533.565 -3.34754 -1.67004 0
M  V30 5446 H 534.898 -4.39551 -2.21486 0
M  V30 5447 N 536.55 0.480323 -1.50102 0
M  V30 5448 C 537.498 1.60024 -1.68805 0
M  V30 5449 C 538.492 1.60089 -0.553888 0
M  V30 5450 O 539.698 1.64349 -0.734127 0
M  V30 5451 H 536.073 0.530841 -0.532646 0
M  V30 5452 H 538.044 1.41408 -2.62767 0
M  V30 5453 C 536.793 2.98029 -1.79092 0
M  V30 5454 H 536.116 2.98694 -2.65748 0
M  V30 5455 H 537.556 3.75871 -1.96206 0
M  V30 5456 C 536.015 3.32538 -0.540388 0
M  V30 5457 O 536.545 4.00386 0.324637 0
M  V30 5458 N 534.751 2.87873 -0.397154 0
M  V30 5459 H 534.298 2.32834 -1.1021 0
M  V30 5460 H 534.256 3.11328 0.438425 0
M  V30 5461 N 538.028 1.39524 0.732853 0
M  V30 5462 C 539.275 1.36865 1.49246 0
M  V30 5463 C 539.603 -0.0347118 1.94469 0
M  V30 5464 O 538.858 -1.01596 1.67262 0
M  V30 5465 C 539.157 2.28916 2.74468 0
M  V30 5466 C 538.823 3.76506 2.481 0
M  V30 5467 C 537.485 4.16721 2.40619 0
M  V30 5468 C 539.837 4.69846 2.25598 0
M  V30 5469 C 537.165 5.48334 2.08679 0
M  V30 5470 C 539.517 6.01739 1.95174 0
M  V30 5471 C 538.181 6.41015 1.86163 0
M  V30 5472 H 537.451 0.500824 0.546129 0
M  V30 5473 H 540.098 1.72047 0.840958 0
M  V30 5474 H 538.403 1.86859 3.4437 0
M  V30 5475 H 540.1 2.2415 3.32502 0
M  V30 5476 H 536.69 3.44635 2.54803 0
M  V30 5477 H 540.874 4.39608 2.30344 0
M  V30 5478 H 536.13 5.77685 2.00226 0
M  V30 5479 H 540.304 6.73591 1.76771 0
M  V30 5480 H 537.931 7.42917 1.61179 0
M  V30 5481 N 539.506 -0.963266 1.24736 0
M  V30 5482 C 540.752 -1.71 1.10139 0
M  V30 5483 C 541.107 -1.89089 -0.35541 0
M  V30 5484 O 540.4 -1.44451 -1.25875 0
M  V30 5485 C 540.594 -3.09944 1.7796 0
M  V30 5486 C 540.423 -3.05408 3.30085 0
M  V30 5487 C 539.193 -3.09643 3.99311 0
M  V30 5488 C 541.391 -2.87241 4.26611 0
M  V30 5489 N 539.373 -2.95174 5.3828 0
M  V30 5490 C 540.744 -2.81114 5.52607 0
M  V30 5491 C 542.799 -2.71856 4.17132 0
M  V30 5492 C 541.502 -2.61174 6.70209 0
M  V30 5493 C 543.528 -2.53284 5.34417 0
M  V30 5494 C 542.89 -2.4787 6.59348 0
M  V30 5495 H 538.989 -0.634078 0.457678 0
M  V30 5496 H 541.573 -1.14169 1.57713 0
M  V30 5497 H 539.744 -3.64958 1.32893 0
M  V30 5498 H 541.476 -3.73348 1.56183 0
M  V30 5499 H 538.231 -3.18498 3.50508 0
M  V30 5500 H 538.655 -2.91168 6.11188 0
M  V30 5501 H 543.297 -2.74821 3.21299 0
M  V30 5502 H 541.015 -2.56952 7.6616 0
M  V30 5503 H 544.601 -2.42317 5.28936 0
M  V30 5504 H 543.481 -2.33685 7.48573 0
M  V30 5505 N 540.985 -1.06182 -1.16461 0
M  V30 5506 C 542.401 -0.785065 -1.38956 0
M  V30 5507 C 542.601 0.616103 -1.9185 0
M  V30 5508 O 541.657 1.37686 -2.11657 0
M  V30 5509 C 542.97 -1.84902 -2.37132 0
M  V30 5510 C 544.518 -1.8724 -2.50819 0
M  V30 5511 C 544.993 -2.92686 -3.52277 0
M  V30 5512 N 546.484 -2.91712 -3.59803 0
M  V30 5513 C 547.219 -3.69949 -4.38093 0
M  V30 5514 N 546.715 -4.58 -5.19815 0
M  V30 5515 N 548.508 -3.58346 -4.33064 0
M  V30 5516 H 540.659 -1.96569 -0.804634 0
M  V30 5517 H 542.922 -0.851747 -0.416211 0
M  V30 5518 H 542.628 -2.85518 -2.0536 0
M  V30 5519 H 542.502 -1.69908 -3.36766 0
M  V30 5520 H 544.889 -0.872827 -2.81897 0
M  V30 5521 H 544.97 -2.06311 -1.51226 0
M  V30 5522 H 544.614 -3.92835 -3.21937 0
M  V30 5523 H 544.544 -2.70864 -4.51598 0
M  V30 5524 H 547.035 -2.27876 -3.01464 0
M  V30 5525 H 547.348 -5.14357 -5.76764 0
M  V30 5526 H 545.693 -4.62056 -5.19162 0
M  V30 5527 H 548.884 -2.88943 -3.68279 0
M  V30 5528 H 549.057 -4.19563 -4.93833 0
M  V30 5529 N 542.463 1.3308 -0.844243 0
M  V30 5530 C 543.691 2.01808 -0.456203 0
M  V30 5531 C 544.106 1.63498 0.944131 0
M  V30 5532 O 543.463 0.85102 1.61443 0
M  V30 5533 C 543.514 3.56922 -0.573513 0
M  V30 5534 O 543.235 3.93851 -1.91868 0
M  V30 5535 C 544.736 4.42922 -0.183125 0
M  V30 5536 H 541.956 0.646273 -0.180477 0
M  V30 5537 H 544.5 1.69891 -1.1383 0
M  V30 5538 H 542.655 3.87352 0.0607367 0
M  V30 5539 H 543.069 4.88564 -1.90802 0
M  V30 5540 H 544.543 5.51093 -0.316241 0
M  V30 5541 H 545.02 4.30386 0.875477 0
M  V30 5542 H 545.626 4.1786 -0.792027 0
M  V30 5543 N 543.941 0.601185 1.45683 0
M  V30 5544 C 544.871 -0.108824 2.33246 0
M  V30 5545 C 545.852 -0.865223 1.46451 0
M  V30 5546 O 547.037 -0.83704 1.75235 0
M  V30 5547 C 544.167 -1.11101 3.2905 0
M  V30 5548 C 543.121 -0.468244 4.25431 0
M  V30 5549 C 542.447 -1.57822 5.10878 0
M  V30 5550 C 543.747 0.606469 5.18767 0
M  V30 5551 H 545.441 0.622306 2.92861 0
M  V30 5552 H 542.987 0.300714 1.40825 0
M  V30 5553 H 544.94 -1.61622 3.89174 0
M  V30 5554 H 543.664 -1.87265 2.67581 0
M  V30 5555 H 542.323 0.0160484 3.66596 0
M  V30 5556 H 541.971 -2.32998 4.45781 0
M  V30 5557 H 541.671 -1.15369 5.76163 0
M  V30 5558 H 543.195 -2.08583 5.73869 0
M  V30 5559 H 544.609 0.185589 5.73 0
M  V30 5560 H 543.006 0.952381 5.92494 0
M  V30 5561 H 544.076 1.48559 4.61582 0
M  V30 5562 N 545.419 -1.53889 0.339982 0
M  V30 5563 C 546.351 -2.22435 -0.55275 0
M  V30 5564 C 547.364 -1.22975 -1.06681 0
M  V30 5565 O 548.553 -1.49351 -0.977575 0
M  V30 5566 C 545.653 -2.8882 -1.77302 0
M  V30 5567 C 544.826 -4.14563 -1.39486 0
M  V30 5568 C 543.885 -4.64391 -2.47442 0
M  V30 5569 O 542.911 -5.28687 -2.10899 0
M  V30 5570 N 544.113 -4.40015 -3.78639 0
M  V30 5571 H 546.878 -2.9968 0.0342669 0
M  V30 5572 H 544.439 -1.61068 0.16394 0
M  V30 5573 H 546.431 -3.19072 -2.48948 0
M  V30 5574 H 545.001 -2.15182 -2.26749 0
M  V30 5575 H 544.221 -3.90896 -0.509321 0
M  V30 5576 H 545.509 -4.96362 -1.11813 0
M  V30 5577 H 544.907 -3.88586 -4.11118 0
M  V30 5578 H 543.464 -4.74881 -4.46465 0
M  V30 5579 N 546.897 -0.0685191 -1.57451 0
M  V30 5580 C 548.125 0.610462 -1.97689 0
M  V30 5581 C 548.54 1.63346 -0.946758 0
M  V30 5582 O 547.897 1.82377 0.0669868 0
M  V30 5583 C 547.948 1.28196 -3.38006 0
M  V30 5584 O 547.669 0.299906 -4.37072 0
M  V30 5585 C 549.17 2.04907 -3.931 0
M  V30 5586 H 546.39 0.165689 -0.650222 0
M  V30 5587 H 548.934 -0.139953 -2.04021 0
M  V30 5588 H 547.089 1.98348 -3.32771 0
M  V30 5589 H 547.503 0.78126 -5.18649 0
M  V30 5590 H 548.977 2.47287 -4.93511 0
M  V30 5591 H 549.454 2.9043 -3.29465 0
M  V30 5592 H 550.06 1.39629 -4.01726 0
M  V30 5593 N 548.375 1.56261 0.205012 0
M  V30 5594 C 549.622 1.8004 0.926927 0
M  V30 5595 C 549.95 0.640086 1.83666 0
M  V30 5596 O 549.205 -0.374702 1.92079 0
M  V30 5597 C 549.504 3.09722 1.78345 0
M  V30 5598 C 549.17 4.39082 1.02555 0
M  V30 5599 C 547.832 4.74226 0.816256 0
M  V30 5600 C 550.184 5.18877 0.491559 0
M  V30 5601 C 547.512 5.86668 0.0613287 0
M  V30 5602 C 549.864 6.32105 -0.250107 0
M  V30 5603 C 548.528 6.6584 -0.470508 0
M  V30 5604 H 547.798 0.658812 0.339187 0
M  V30 5605 H 550.445 1.90515 0.19395 0
M  V30 5606 H 548.75 2.9444 2.5848 0
M  V30 5607 H 550.447 3.25324 2.34446 0
M  V30 5608 H 547.037 4.11497 1.19868 0
M  V30 5609 H 551.221 4.92147 0.640684 0
M  V30 5610 H 546.477 6.11283 -0.119501 0
M  V30 5611 H 550.651 6.93157 -0.671307 0
M  V30 5612 H 548.278 7.5281 -1.05739 0
M  V30 5613 N 549.853 -0.472356 1.50355 0
M  V30 5614 C 551.102 -1.2213 1.60522 0
M  V30 5615 C 551.415 -1.9312 0.310466 0
M  V30 5616 O 552.621 -2.69936 0.291029 0
M  V30 5617 C 551.077 -2.21909 2.83345 0
M  V30 5618 C 550.685 -1.56727 4.19691 0
M  V30 5619 C 552.429 -2.97453 3.02856 0
M  V30 5620 C 550.336 -2.54785 5.33703 0
M  V30 5621 H 549.266 -0.459543 0.597776 0
M  V30 5622 H 551.917 -0.491922 1.76783 0
M  V30 5623 H 550.299 -2.98133 2.60639 0
M  V30 5624 H 551.473 -0.863007 4.52646 0
M  V30 5625 H 549.788 -0.934685 4.05774 0
M  V30 5626 H 552.385 -3.70838 3.85205 0
M  V30 5627 H 552.728 -3.56764 2.14534 0
M  V30 5628 H 553.261 -2.28342 3.25737 0
M  V30 5629 H 550 -2.00214 6.24175 0
M  V30 5630 H 549.52 -3.23367 5.05167 0
M  V30 5631 H 551.199 -3.16639 5.64224 0
M  V30 5632 N 551.331 -1.39911 -0.725443 0
M  V30 5633 C 552.747 -1.21725 -1.03224 0
M  V30 5634 C 552.947 -0.0855224 -2.01318 0
M  V30 5635 O 552.003 0.55976 -2.46217 0
M  V30 5636 C 553.316 -2.55511 -1.58539 0
M  V30 5637 C 554.864 -2.62439 -1.70572 0
M  V30 5638 C 555.339 -3.9647 -2.29294 0
M  V30 5639 N 556.83 -3.98159 -2.36692 0
M  V30 5640 C 557.565 -4.98647 -2.83088 0
M  V30 5641 N 557.061 -6.0953 -3.2931 0
M  V30 5642 N 558.854 -4.8602 -2.82384 0
M  V30 5643 H 551.005 -2.12267 -0.075048 0
M  V30 5644 H 553.268 -0.943136 -0.0959066 0
M  V30 5645 H 552.974 -3.38926 -0.939249 0
M  V30 5646 H 552.848 -2.75905 -2.57208 0
M  V30 5647 H 555.235 -1.79401 -2.34306 0
M  V30 5648 H 555.316 -2.45885 -0.705297 0
M  V30 5649 H 554.96 -4.79942 -1.66186 0
M  V30 5650 H 554.89 -4.10349 -3.30032 0
M  V30 5651 H 557.381 -3.18085 -2.04035 0
M  V30 5652 H 557.694 -6.82106 -3.6325 0
M  V30 5653 H 556.039 -6.1311 -3.27294 0
M  V30 5654 H 559.23 -3.98493 -2.45603 0
M  V30 5655 H 559.403 -5.64478 -3.18226 0
M  V30 5656 N 552.809 0.956637 -1.25245 0
M  V30 5657 C 554.22 1.51569 -1.09012 0
M  V30 5658 C 554.571 1.93322 0.334813 0
M  V30 5659 O 553.696 1.78421 1.22454 0
M  V30 5660 C 554.291 2.75444 -1.97271 0
M  V30 5661 C 552.85 3.27669 -1.8523 0
M  V30 5662 C 551.997 2.00517 -1.91542 0
M  V30 5663 H 554.948 0.773746 -1.3856 0
M  V30 5664 H 554.969 3.4919 -1.51151 0
M  V30 5665 H 554.481 2.45024 -3.00973 0
M  V30 5666 H 552.582 3.62914 -0.844045 0
M  V30 5667 H 552.695 3.9582 -2.69932 0
M  V30 5668 H 551.059 2.15727 -1.35404 0
M  V30 5669 H 551.842 1.72448 -2.96844 0
M  V30 5670 N 554.287 1.06798 1.15896 0
M  V30 5671 C 555.535 0.786211 1.8618 0
M  V30 5672 C 555.856 -0.689547 1.82401 0
M  V30 5673 O 555.126 -1.49913 1.26107 0
M  V30 5674 H 553.706 0.287843 0.689315 0
M  V30 5675 H 556.368 1.35055 1.40521 0
M  V30 5676 H 555.464 1.1157 2.91477 0
M  V30 5677 N 555.766 -1.3263 0.851289 0
M  V30 5678 C 557.043 -1.91982 0.374448 0
M  V30 5679 C 557.423 -1.77568 -1.14161 0
M  V30 5680 O 556.771 -1.1717 -1.96172 0
M  V30 5681 C 556.981 -3.38862 0.835088 0
M  V30 5682 C 558.329 -4.15999 0.850309 0
M  V30 5683 O 559.353 -3.47566 0.779505 0
M  V30 5684 O 558.212 -5.38189 0.949481 0
M  V30 5685 H 555.306 -0.819846 0.10854 0
M  V30 5686 H 557.852 -1.41422 0.937966 0
M  V30 5687 H 556.624 -3.43281 1.87814 0
M  V30 5688 H 556.247 -3.96821 0.248833 0
M  V30 5689 N 557.244 -0.608902 -1.45362 0
M  V30 5690 C 558.493 -0.10218 -2.01441 0
M  V30 5691 C 558.806 1.27546 -1.48295 0
M  V30 5692 O 560.012 1.87498 -1.96359 0
M  V30 5693 C 558.468 -0.131985 -3.59658 0
M  V30 5694 C 558.076 -1.50956 -4.21801 0
M  V30 5695 C 559.82 0.319427 -4.23296 0
M  V30 5696 C 557.727 -1.49568 -5.72174 0
M  V30 5697 H 556.657 -0.0344314 -0.753213 0
M  V30 5698 H 559.308 -0.764426 -1.6682 0
M  V30 5699 H 557.69 0.596939 -3.91475 0
M  V30 5700 H 558.864 -2.26029 -4.01556 0
M  V30 5701 H 557.179 -1.90318 -3.70362 0
M  V30 5702 H 559.776 0.349013 -5.3356 0
M  V30 5703 H 560.119 1.34237 -3.94064 0
M  V30 5704 H 560.652 -0.356273 -3.96201 0
M  V30 5705 H 557.391 -2.49626 -6.06108 0
M  V30 5706 H 556.911 -0.787542 -5.94607 0
M  V30 5707 H 558.59 -1.21989 -6.35396 0
M  V30 5708 N 558.722 1.53707 -0.348139 0
M  V30 5709 C 559.971 2.0017 0.247992 0
M  V30 5710 C 560.284 1.23983 1.51286 0
M  V30 5711 O 561.49 1.60946 2.18652 0
M  V30 5712 C 559.946 3.56515 0.492459 0
M  V30 5713 C 559.554 4.41562 -0.756777 0
M  V30 5714 C 561.298 4.11381 1.0472 0
M  V30 5715 C 559.205 5.89426 -0.482856 0
M  V30 5716 H 558.135 0.747806 0.0964452 0
M  V30 5717 H 560.786 1.77532 -0.464179 0
M  V30 5718 H 559.168 3.75236 1.26545 0
M  V30 5719 H 560.342 4.34615 -1.53122 0
M  V30 5720 H 558.657 3.97711 -1.23348 0
M  V30 5721 H 561.254 5.19468 1.26717 0
M  V30 5722 H 561.597 3.64885 2.00411 0
M  V30 5723 H 562.13 3.96389 0.334801 0
M  V30 5724 H 558.869 6.40164 -1.40962 0
M  V30 5725 H 558.389 5.99264 0.253416 0
M  V30 5726 H 560.068 6.4692 -0.101816 0
M  V30 5727 N 560.2 0.0768682 1.57412 0
M  V30 5728 C 561.13 -0.886026 2.16037 0
M  V30 5729 C 562.111 -1.30691 1.08876 0
M  V30 5730 O 563.296 -1.37705 1.36934 0
M  V30 5731 C 560.426 -2.1518 2.72608 0
M  V30 5732 C 559.38 -1.87015 3.8498 0
M  V30 5733 C 558.706 -3.20266 4.28175 0
M  V30 5734 C 560.006 -1.17143 5.08994 0
M  V30 5735 H 561.7 -0.397642 2.96748 0
M  V30 5736 H 559.246 -0.189823 1.42743 0
M  V30 5737 H 561.199 -2.82962 3.12266 0
M  V30 5738 H 559.923 -2.66269 1.89125 0
M  V30 5739 H 558.582 -1.21636 3.45833 0
M  V30 5740 H 558.23 -3.69207 3.41607 0
M  V30 5741 H 557.93 -3.0221 5.03927 0
M  V30 5742 H 559.454 -3.89237 4.70454 0
M  V30 5743 H 560.868 -1.75003 5.45937 0
M  V30 5744 H 559.265 -1.09328 5.90057 0
M  V30 5745 H 560.335 -0.151295 4.84664 0
M  V30 5746 N 561.678 -1.56367 -0.196722 0
M  V30 5747 C 562.641 -1.93561 -1.22746 0
M  V30 5748 C 563.641 -0.816566 -1.38524 0
M  V30 5749 O 564.831 -1.084 -1.36363 0
M  V30 5750 C 561.963 -2.20823 -2.59712 0
M  V30 5751 H 563.156 -2.85774 -0.909586 0
M  V30 5752 H 560.709 -1.50032 -0.438174 0
M  V30 5753 H 561.444 -1.31243 -2.96557 0
M  V30 5754 H 561.229 -3.02368 -2.49632 0
M  V30 5755 H 562.719 -2.50608 -3.34044 0
M  V30 5756 N 563.156 0.464375 -1.50603 0
M  V30 5757 C 564.433 1.22549 -1.5245 0
M  V30 5758 C 564.813 2.09327 -0.273035 0
M  V30 5759 O 564.161 2.16074 0.743242 0
M  V30 5760 C 564.371 2.05074 -2.82393 0
M  V30 5761 C 565.719 2.63036 -3.33313 0
M  V30 5762 O 566.743 2.1531 -2.8376 0
M  V30 5763 O 565.602 3.5001 -4.19709 0
M  V30 5764 H 562.696 0.556471 -0.611775 0
M  V30 5765 H 565.242 0.475648 -1.62898 0
M  V30 5766 H 564.014 1.41169 -3.64948 0
M  V30 5767 H 563.637 2.87179 -2.7498 0
M  V30 5768 N 564.634 1.40294 0.718013 0
M  V30 5769 C 565.566 1.36281 1.84283 0
M  V30 5770 C 566.579 0.268621 1.60569 0
M  V30 5771 O 567.768 0.528798 1.70487 0
M  V30 5772 C 564.868 1.09741 3.2064 0
M  V30 5773 C 564.041 2.30767 3.71571 0
M  V30 5774 C 563.1 2.00424 4.86535 0
M  V30 5775 O 562.126 2.73268 4.99313 0
M  V30 5776 N 563.328 0.980724 5.72156 0
M  V30 5777 H 566.093 2.3322 1.88225 0
M  V30 5778 H 563.654 1.34616 0.899453 0
M  V30 5779 H 565.646 0.874322 3.95143 0
M  V30 5780 H 564.216 0.214771 3.11861 0
M  V30 5781 H 563.436 2.68921 2.88228 0
M  V30 5782 H 564.724 3.11455 4.02335 0
M  V30 5783 H 564.122 0.377375 5.6444 0
M  V30 5784 H 562.679 0.817538 6.46653 0
M  V30 5785 N 566.112 -0.949982 1.2575 0
M  V30 5786 C 567.36 -1.6918 1.10555 0
M  V30 5787 C 567.681 -1.91773 -0.353298 0
M  V30 5788 O 566.951 -1.50814 -1.25027 0
M  V30 5789 H 565.531 -0.626952 0.406129 0
M  V30 5790 H 568.193 -1.1419 1.57945 0
M  V30 5791 H 567.289 -2.66915 1.61749 0
M  V30 5792 N 567.59 -1.07411 -1.15328 0
M  V30 5793 C 568.818 -0.818782 -1.90009 0
M  V30 5794 C 569.233 0.628072 -1.78047 0
M  V30 5795 O 568.59 1.43085 -1.13282 0
M  V30 5796 C 568.641 -1.21874 -3.40337 0
M  V30 5797 O 568.362 -2.60883 -3.51954 0
M  V30 5798 C 569.863 -0.992796 -4.3204 0
M  V30 5799 H 567.083 -0.296007 -0.60218 0
M  V30 5800 H 569.627 -1.43073 -1.46117 0
M  V30 5801 H 567.782 -0.651103 -3.81889 0
M  V30 5802 H 568.196 -2.77216 -4.45255 0
M  V30 5803 H 569.67 -1.32215 -5.35932 0
M  V30 5804 H 570.147 0.0708331 -4.39143 0
M  V30 5805 H 570.753 -1.54537 -3.9623 0
M  V30 5806 N 569.068 1.32177 -0.85831 0
M  V30 5807 C 570.293 2.01847 -0.476718 0
M  V30 5808 C 570.718 1.64065 0.920021 0
M  V30 5809 O 570.076 0.843189 1.60499 0
M  V30 5810 C 570.124 3.55097 -0.627578 0
M  V30 5811 O 569.228 4.11012 0.338086 0
M  V30 5812 H 568.569 0.635907 -0.191099 0
M  V30 5813 H 571.099 1.68641 -1.15851 0
M  V30 5814 H 571.109 4.04718 -0.516476 0
M  V30 5815 H 569.784 3.81938 -1.64609 0
M  V30 5816 H 568.361 3.72451 0.182917 0
M  V30 5817 N 570.547 0.616602 1.45037 0
M  V30 5818 C 571.51 -0.0871112 2.29034 0
M  V30 5819 C 572.51 -0.786414 1.40258 0
M  V30 5820 O 573.7 -0.633207 1.62284 0
M  V30 5821 C 570.832 -1.13369 3.21497 0
M  V30 5822 H 572.025 0.651497 2.92738 0
M  V30 5823 H 569.578 0.376058 1.51709 0
M  V30 5824 H 570.313 -1.90277 2.62612 0
M  V30 5825 H 570.098 -0.636358 3.86902 0
M  V30 5826 H 571.588 -1.62627 3.84633 0
M  V30 5827 N 572.025 -1.5352 0.356285 0
M  V30 5828 C 573.272 -2.01117 -0.236303 0
M  V30 5829 C 573.6 -1.24381 -1.49531 0
M  V30 5830 O 572.855 -0.323057 -1.93015 0
M  V30 5831 C 573.154 -3.52607 -0.583369 0
M  V30 5832 C 572.82 -4.47151 0.58023 0
M  V30 5833 C 571.482 -4.72718 0.899528 0
M  V30 5834 C 573.834 -5.03137 1.36024 0
M  V30 5835 C 571.162 -5.51523 2.00098 0
M  V30 5836 C 573.514 -5.83145 2.45204 0
M  V30 5837 C 572.178 -6.07001 2.77679 0
M  V30 5838 H 571.448 -0.735938 -0.0864695 0
M  V30 5839 H 574.095 -1.85209 0.48683 0
M  V30 5840 H 572.4 -3.66413 -1.38739 0
M  V30 5841 H 574.097 -3.86901 -1.05397 0
M  V30 5842 H 570.687 -4.27394 0.321322 0
M  V30 5843 H 574.871 -4.83339 1.12682 0
M  V30 5844 H 570.127 -5.68229 2.25668 0
M  V30 5845 H 574.301 -6.25537 3.06067 0
M  V30 5846 H 571.928 -6.67851 3.63151 0
M  V30 5847 N 573.503 -0.0852151 -1.57369 0
M  V30 5848 C 574.751 0.579658 -1.93609 0
M  V30 5849 C 575.072 1.69332 -0.967043 0
M  V30 5850 O 574.342 1.95892 -0.0174215 0
M  V30 5851 H 572.922 0.217113 -0.714752 0
M  V30 5852 H 575.584 -0.146226 -1.94351 0
M  V30 5853 H 574.68 0.996276 -2.95771 0
M  V30 5854 N 574.981 1.5647 0.188427 0
M  V30 5855 C 575.944 1.9421 1.21718 0
M  V30 5856 C 576.944 0.823901 1.38089 0
M  V30 5857 O 578.134 1.09122 1.35787 0
M  V30 5858 C 575.266 2.22197 2.58537 0
M  V30 5859 H 576.459 2.86252 0.894418 0
M  V30 5860 H 574.012 1.50263 0.430211 0
M  V30 5861 H 574.747 1.32814 2.95856 0
M  V30 5862 H 574.532 3.03688 2.48025 0
M  V30 5863 H 576.022 2.52376 3.3271 0
M  V30 5864 N 576.459 -0.456382 1.50847 0
M  V30 5865 C 577.708 -1.2042 1.61808 0
M  V30 5866 C 578.021 -1.9278 0.330932 0
M  V30 5867 O 579.227 -2.69612 0.319643 0
M  V30 5868 C 577.683 -2.18891 2.85683 0
M  V30 5869 C 577.291 -1.52267 4.2133 0
M  V30 5870 C 579.035 -2.94224 3.05994 0
M  V30 5871 C 576.942 -2.4911 5.36375 0
M  V30 5872 H 575.872 -0.453177 0.602616 0
M  V30 5873 H 578.523 -0.473144 1.77295 0
M  V30 5874 H 576.905 -2.95351 2.63787 0
M  V30 5875 H 578.079 -0.814949 4.53536 0
M  V30 5876 H 576.394 -0.891594 4.06743 0
M  V30 5877 H 578.991 -3.66732 3.89117 0
M  V30 5878 H 579.334 -3.54469 2.18306 0
M  V30 5879 H 579.867 -2.24874 3.28141 0
M  V30 5880 H 576.606 -1.93582 6.26264 0
M  V30 5881 H 576.126 -3.17991 5.08569 0
M  V30 5882 H 577.805 -3.10637 5.67551 0
M  V30 5883 N 577.937 -1.40673 -0.710563 0
M  V30 5884 C 579.214 -1.29718 -1.46398 0
M  V30 5885 C 579.594 0.082177 -2.1094 0
M  V30 5886 O 578.942 1.09536 -2.00534 0
M  V30 5887 C 579.152 -2.43967 -2.49562 0
M  V30 5888 C 580.5 -2.84436 -3.15248 0
M  V30 5889 O 581.524 -2.43597 -2.59883 0
M  V30 5890 O 580.383 -3.55008 -4.1549 0
M  V30 5891 H 577.477 -0.509697 -0.651258 0
M  V30 5892 H 580.023 -1.52603 -0.742312 0
M  V30 5893 H 578.795 -3.36076 -2.0042 0
M  V30 5894 H 578.418 -2.22879 -3.29258 0
M  V30 5895 N 579.415 0.9433 -1.26252 0
M  V30 5896 C 580.345 2.05902 -1.10122 0
M  V30 5897 C 581.326 1.70099 -0.00700552 0
M  V30 5898 O 582.511 1.93377 -0.178641 0
M  V30 5899 C 579.641 3.39516 -0.731175 0
M  V30 5900 C 578.595 3.89372 -1.77688 0
M  V30 5901 C 577.921 5.19613 -1.26122 0
M  V30 5902 C 579.221 4.14489 -3.17799 0
M  V30 5903 H 580.915 2.19655 -2.03451 0
M  V30 5904 H 578.461 1.05548 -0.979576 0
M  V30 5905 H 580.414 4.17031 -0.605215 0
M  V30 5906 H 579.138 3.25733 0.23782 0
M  V30 5907 H 577.797 3.14036 -1.89148 0
M  V30 5908 H 577.445 5.02208 -0.282128 0
M  V30 5909 H 577.145 5.53939 -1.96023 0
M  V30 5910 H 578.669 5.99713 -1.14789 0
M  V30 5911 H 580.083 4.82625 -3.09428 0
M  V30 5912 H 578.48 4.60094 -3.85271 0
M  V30 5913 H 579.55 3.20347 -3.64014 0
M  V30 5914 N 580.893 1.08022 1.14757 0
M  V30 5915 C 582.309 0.807072 1.3769 0
M  V30 5916 C 582.509 -0.585504 1.92806 0
M  V30 5917 O 581.565 -1.34301 2.13821 0
M  V30 5918 C 582.878 1.88651 2.34161 0
M  V30 5919 C 584.426 1.91206 2.47809 0
M  V30 5920 C 584.901 2.98253 3.47576 0
M  V30 5921 N 586.392 2.974 3.55117 0
M  V30 5922 C 587.127 3.76872 4.32152 0
M  V30 5923 N 586.623 4.66212 5.12463 0
M  V30 5924 N 588.416 3.6519 4.27309 0
M  V30 5925 H 580.567 1.97824 0.77326 0
M  V30 5926 H 582.83 0.85826 0.402608 0
M  V30 5927 H 582.536 2.88749 2.00791 0
M  V30 5928 H 582.41 1.75244 3.3402 0
M  V30 5929 H 584.797 0.917564 2.80472 0
M  V30 5930 H 584.878 2.08691 1.47925 0
M  V30 5931 H 584.522 3.97907 3.15646 0
M  V30 5932 H 584.452 2.78014 4.47231 0
M  V30 5933 H 586.943 2.32643 2.97801 0
M  V30 5934 H 587.256 5.23468 5.68508 0
M  V30 5935 H 585.601 4.70257 5.11745 0
M  V30 5936 H 588.792 2.94765 3.63636 0
M  V30 5937 H 588.965 4.27366 4.87095 0
M  V30 5938 N 582.371 -1.3172 0.865308 0
M  V30 5939 C 583.301 -2.31109 0.333302 0
M  V30 5940 C 584.282 -1.60148 -0.573301 0
M  V30 5941 O 585.467 -1.87882 -0.491305 0
M  V30 5942 C 582.597 -3.44104 -0.470078 0
M  V30 5943 C 581.551 -4.26623 0.343021 0
M  V30 5944 C 580.877 -5.31482 -0.585756 0
M  V30 5945 C 582.177 -4.98001 1.57456 0
M  V30 5946 H 583.871 -2.75855 1.1638 0
M  V30 5947 H 581.417 -1.3262 0.561069 0
M  V30 5948 H 583.37 -4.12682 -0.852752 0
M  V30 5949 H 582.094 -2.98112 -1.33404 0
M  V30 5950 H 580.753 -3.59707 0.707583 0
M  V30 5951 H 580.401 -4.81741 -1.44686 0
M  V30 5952 H 580.101 -5.87582 -0.0456494 0
M  V30 5953 H 581.625 -6.0292 -0.965375 0
M  V30 5954 H 583.039 -5.59201 1.26359 0
M  V30 5955 H 581.436 -5.63876 2.05339 0
M  V30 5956 H 582.506 -4.25253 2.32997 0
M  V30 5957 N 583.85 -0.624285 -1.44708 0
M  V30 5958 C 585.26 -0.2092 -1.85524 0
M  V30 5959 C 585.611 1.23783 -1.52225 0
M  V30 5960 O 584.736 1.94089 -0.956986 0
M  V30 5961 C 585.332 -0.372897 -3.36742 0
M  V30 5962 C 583.891 -0.012374 -3.76398 0
M  V30 5963 C 583.038 -0.68951 -2.68591 0
M  V30 5964 H 585.989 -0.829894 -1.35272 0
M  V30 5965 H 586.01 0.390134 -3.78495 0
M  V30 5966 H 585.522 -1.42615 -3.60947 0
M  V30 5967 H 583.623 1.03941 -3.57809 0
M  V30 5968 H 583.736 -0.417663 -4.77276 0
M  V30 5969 H 582.1 -0.125484 -2.54391 0
M  V30 5970 H 582.883 -1.74522 -2.9563 0
M  V30 5971 N 585.328 1.53329 -0.364422 0
M  V30 5972 C 586.291 2.24323 0.470292 0
M  V30 5973 C 587.291 1.25068 1.01067 0
M  V30 5974 O 588.481 1.49354 0.896605 0
M  V30 5975 C 585.613 2.97908 1.65722 0
M  V30 5976 H 586.806 2.9952 -0.150917 0
M  V30 5977 H 584.359 1.55868 -0.116092 0
M  V30 5978 H 585.094 2.2695 2.31655 0
M  V30 5979 H 584.879 3.70732 1.27671 0
M  V30 5980 H 586.369 3.5188 2.24878 0
M  V30 5981 N 586.806 0.0935595 1.57322 0
M  V30 5982 C 588.083 -0.612692 1.85756 0
M  V30 5983 C 588.463 -1.86439 0.99013 0
M  V30 5984 O 587.811 -2.28416 0.0621362 0
M  V30 5985 C 588.021 -0.929547 3.36393 0
M  V30 5986 C 589.369 -1.29366 4.04413 0
M  V30 5987 O 590.393 -1.02061 3.41265 0
M  V30 5988 O 589.252 -1.80498 5.15832 0
M  V30 5989 H 586.346 -0.306444 0.768128 0
M  V30 5990 H 588.892 0.126141 1.69231 0
M  V30 5991 H 587.664 -0.0414766 3.91278 0
M  V30 5992 H 587.287 -1.72441 3.5826 0
M  V30 5993 N 588.284 -1.56567 -0.180126 0
M  V30 5994 C 589.53 -1.81761 -0.899497 0
M  V30 5995 C 589.863 -0.670015 -1.82276 0
M  V30 5996 O 589.138 0.328575 -1.91705 0
M  V30 5997 C 589.421 -3.17296 -1.7028 0
M  V30 5998 C 589.274 -4.4257 -0.803255 0
M  V30 5999 C 590.593 -3.49678 -2.67233 0
M  V30 6000 H 587.712 -0.661192 -0.325567 0
M  V30 6001 H 590.354 -1.89272 -0.16612 0
M  V30 6002 H 588.504 -3.11023 -2.32802 0
M  V30 6003 H 590.176 -4.60902 -0.191585 0
M  V30 6004 H 588.419 -4.33658 -0.110796 0
M  V30 6005 H 589.09 -5.33935 -1.40064 0
M  V30 6006 H 591.566 -3.56347 -2.14839 0
M  V30 6007 H 590.442 -4.45605 -3.20511 0
M  V30 6008 H 590.703 -2.73932 -3.47007 0
M  V30 6009 N 589.762 0.448376 -1.51087 0
M  V30 6010 C 590.71 1.56407 -1.72161 0
M  V30 6011 C 591.704 1.58878 -0.587721 0
M  V30 6012 O 592.91 1.62755 -0.768822 0
M  V30 6013 H 589.285 0.519423 -0.543786 0
M  V30 6014 H 591.256 1.35803 -2.65707 0
M  V30 6015 C 590.005 2.94163 -1.85373 0
M  V30 6016 H 589.328 2.9299 -2.72024 0
M  V30 6017 H 590.768 3.71625 -2.04135 0
M  V30 6018 C 589.227 3.31317 -0.610803 0
M  V30 6019 O 589.757 4.00985 0.239636 0
M  V30 6020 N 587.963 2.86966 -0.458127 0
M  V30 6021 H 587.51 2.30443 -1.15124 0
M  V30 6022 H 587.468 3.12188 0.372289 0
M  V30 6023 N 591.24 1.41047 0.703093 0
M  V30 6024 C 592.487 1.4 1.46309 0
M  V30 6025 C 592.815 0.00654574 1.94499 0
M  V30 6026 O 592.07 -0.980255 1.6938 0
M  V30 6027 C 592.369 2.34686 2.6955 0
M  V30 6028 C 592.035 3.81684 2.40058 0
M  V30 6029 C 590.697 4.21731 2.31725 0
M  V30 6030 C 593.049 4.74525 2.15581 0
M  V30 6031 C 590.377 5.52637 1.97001 0
M  V30 6032 C 592.729 6.05744 1.82366 0
M  V30 6033 C 591.393 6.44819 1.72524 0
M  V30 6034 H 590.663 0.512295 0.535382 0
M  V30 6035 H 593.31 1.73792 0.804275 0
M  V30 6036 H 591.615 1.94122 3.40329 0
M  V30 6037 H 593.312 2.31152 3.27673 0
M  V30 6038 H 589.902 3.49963 2.47435 0
M  V30 6039 H 594.086 4.44395 2.20968 0
M  V30 6040 H 589.342 5.81802 1.87928 0
M  V30 6041 H 593.516 6.77189 1.62444 0
M  V30 6042 H 591.143 7.46168 1.45385 0
M  V30 6043 N 592.718 -0.936591 1.26751 0
M  V30 6044 C 593.967 -1.67778 1.11953 0
M  V30 6045 C 594.28 -1.92694 -0.33589 0
M  V30 6046 O 595.486 -2.64682 -0.604618 0
M  V30 6047 C 593.942 -3.02138 1.95551 0
M  V30 6048 C 593.55 -2.84953 3.45696 0
M  V30 6049 C 595.294 -3.79917 1.89377 0
M  V30 6050 C 593.201 -4.14814 4.21525 0
M  V30 6051 H 592.131 -0.629275 0.415366 0
M  V30 6052 H 594.782 -1.04122 1.51099 0
M  V30 6053 H 593.164 -3.668 1.49243 0
M  V30 6054 H 594.338 -2.29112 3.99805 0
M  V30 6055 H 592.653 -2.20612 3.53156 0
M  V30 6056 H 595.25 -4.76134 2.43312 0
M  V30 6057 H 595.593 -4.07204 0.865464 0
M  V30 6058 H 596.126 -3.22037 2.33532 0
M  V30 6059 H 592.865 -3.92709 5.24843 0
M  V30 6060 H 592.385 -4.70352 3.72195 0
M  V30 6061 H 594.064 -4.83239 4.3022 0
M  V30 6062 N 594.196 -1.08629 -1.14182 0
M  V30 6063 C 595.442 -0.818556 -1.85546 0
M  V30 6064 C 595.775 0.654076 -1.82854 0
M  V30 6065 O 595.05 1.48099 -1.26083 0
M  V30 6066 C 595.333 -1.34397 -3.3408 0
M  V30 6067 C 595.186 -2.8821 -3.45333 0
M  V30 6068 C 596.505 -0.971069 -4.29253 0
M  V30 6069 H 593.624 -0.298821 -0.673702 0
M  V30 6070 H 596.266 -1.34629 -1.34071 0
M  V30 6071 H 594.416 -0.895064 -3.78049 0
M  V30 6072 H 596.088 -3.41488 -3.10134 0
M  V30 6073 H 594.331 -3.25756 -2.86471 0
M  V30 6074 H 595.002 -3.20047 -4.49749 0
M  V30 6075 H 597.478 -1.35809 -3.93313 0
M  V30 6076 H 596.354 -1.36586 -5.31635 0
M  V30 6077 H 596.615 0.121659 -4.41933 0
M  V30 6078 N 595.674 1.31259 -0.872281 0
M  V30 6079 C 596.606 2.27396 -0.28697 0
M  V30 6080 C 597.619 1.53181 0.551297 0
M  V30 6081 O 598.808 1.74561 0.372914 0
M  V30 6082 C 595.908 3.33335 0.611617 0
M  V30 6083 C 595.081 4.36966 -0.194729 0
M  V30 6084 C 594.14 5.22387 0.632358 0
M  V30 6085 O 593.166 5.69169 0.0595691 0
M  V30 6086 N 594.368 5.46985 1.94391 0
M  V30 6087 H 597.133 2.78261 -1.11314 0
M  V30 6088 H 594.694 1.44306 -0.733994 0
M  V30 6089 H 596.686 3.87398 1.17068 0
M  V30 6090 H 595.256 2.82496 1.33846 0
M  V30 6091 H 594.476 3.82945 -0.935241 0
M  V30 6092 H 595.764 5.03273 -0.747935 0
M  V30 6093 H 595.162 5.10737 2.43237 0
M  V30 6094 H 593.719 6.03973 2.45071 0
M  V30 6095 N 597.152 0.631951 1.44375 0
M  V30 6096 C 598.563 0.219036 1.85411 0
M  V30 6097 C 598.914 -1.22974 1.52879 0
M  V30 6098 O 598.039 -1.93579 0.967266 0
M  V30 6099 C 598.634 0.39075 3.36539 0
M  V30 6100 C 597.193 0.0323351 3.76386 0
M  V30 6101 C 596.34 0.703744 2.68221 0
M  V30 6102 H 599.291 0.837056 1.3483 0
M  V30 6103 H 599.312 -0.370056 3.78696 0
M  V30 6104 H 598.824 1.44527 3.60185 0
M  V30 6105 H 596.925 -1.02042 3.58355 0
M  V30 6106 H 597.038 0.442969 4.77048 0
M  V30 6107 H 595.402 0.138974 2.54321 0
M  V30 6108 H 596.185 1.76088 2.947 0
M  V30 6109 N 598.631 -1.53133 0.372548 0
M  V30 6110 C 599.561 -2.28876 -0.462412 0
M  V30 6111 C 600.542 -1.31583 -1.07796 0
M  V30 6112 O 601.727 -1.60461 -1.09389 0
M  V30 6113 C 598.857 -3.08317 -1.59868 0
M  V30 6114 C 597.811 -4.13355 -1.11003 0
M  V30 6115 C 597.137 -4.8092 -2.33708 0
M  V30 6116 C 598.437 -5.21955 -0.18983 0
M  V30 6117 H 600.131 -2.9892 0.169511 0
M  V30 6118 H 597.677 -1.43761 0.0829658 0
M  V30 6119 H 599.63 -3.60055 -2.18949 0
M  V30 6120 H 598.354 -2.35976 -2.25794 0
M  V30 6121 H 597.013 -3.62573 -0.541869 0
M  V30 6122 H 596.661 -4.05144 -2.98106 0
M  V30 6123 H 596.361 -5.51904 -2.01682 0
M  V30 6124 H 597.885 -5.35455 -2.93462 0
M  V30 6125 H 599.299 -5.69153 -0.688319 0
M  V30 6126 H 597.696 -6.00087 0.0398887 0
M  V30 6127 H 598.766 -4.78811 0.766057 0
M  V30 6128 N 600.109 -0.101901 -1.5727 0
M  V30 6129 C 601.355 0.554864 -1.95686 0
M  V30 6130 C 601.71 1.65368 -0.983415 0
M  V30 6131 O 601.003 1.91597 -0.0105374 0
M  V30 6132 C 601.197 1.14898 -3.38427 0
M  V30 6133 C 601.026 0.109251 -4.49567 0
M  V30 6134 C 599.796 -0.316633 -5.04307 0
M  V30 6135 C 601.994 -0.665196 -5.0998 0
M  V30 6136 N 599.976 -1.34393 -5.99009 0
M  V30 6137 C 601.347 -1.54413 -6.00464 0
M  V30 6138 C 603.402 -0.717966 -4.92696 0
M  V30 6139 C 602.105 -2.47122 -6.75517 0
M  V30 6140 C 604.131 -1.63268 -5.68417 0
M  V30 6141 C 603.493 -2.49923 -6.58572 0
M  V30 6142 H 599.592 0.17317 -0.762585 0
M  V30 6143 H 602.176 -0.18605 -1.93809 0
M  V30 6144 H 600.347 1.85969 -3.40984 0
M  V30 6145 H 602.079 1.76867 -3.64006 0
M  V30 6146 H 598.834 0.0724419 -4.73545 0
M  V30 6147 H 599.258 -1.85598 -6.51062 0
M  V30 6148 H 603.9 -0.0621637 -4.22754 0
M  V30 6149 H 601.618 -3.13724 -7.44717 0
M  V30 6150 H 605.204 -1.67874 -5.57054 0
M  V30 6151 H 604.084 -3.19553 -7.16139 0
M  V30 6152 N 601.587 1.56661 0.17182 0
M  V30 6153 C 602.835 1.81606 0.886774 0
M  V30 6154 C 603.156 0.678818 1.82803 0
M  V30 6155 O 602.426 -0.301354 1.93568 0
M  V30 6156 H 601.006 0.669934 0.330451 0
M  V30 6157 H 603.668 1.94142 0.171757 0
M  V30 6158 H 602.764 2.75634 1.46398 0
M  V30 6159 N 603.065 -0.440357 1.51323 0
M  V30 6160 C 604.29 -1.21716 1.67928 0
M  V30 6161 C 604.715 -1.84328 0.374826 0
M  V30 6162 O 604.073 -1.68675 -0.664706 0
M  V30 6163 C 604.121 -2.27914 2.79442 0
M  V30 6164 O 603.225 -3.33325 2.42834 0
M  V30 6165 H 602.566 -0.35674 0.560029 0
M  V30 6166 H 605.096 -0.520417 1.97871 0
M  V30 6167 H 605.106 -2.72746 3.03436 0
M  V30 6168 H 603.781 -1.8172 3.741 0
M  V30 6169 H 602.358 -2.9399 2.294 0
M  V30 6170 N 604.543 -1.41418 -0.695603 0
M  V30 6171 C 605.792 -1.40073 -1.4513 0
M  V30 6172 C 606.105 -0.0130439 -1.95596 0
M  V30 6173 O 607.311 0.123032 -2.71221 0
M  V30 6174 C 605.767 -2.46286 -2.62433 0
M  V30 6175 C 605.375 -3.90962 -2.18753 0
M  V30 6176 C 607.119 -2.54077 -3.40066 0
M  V30 6177 C 605.026 -4.88728 -3.33015 0
M  V30 6178 H 603.956 -0.520903 -0.545138 0
M  V30 6179 H 606.607 -1.67242 -0.75515 0
M  V30 6180 H 604.989 -2.12248 -3.34315 0
M  V30 6181 H 606.163 -4.34248 -1.54161 0
M  V30 6182 H 604.478 -3.86831 -1.54114 0
M  V30 6183 H 607.075 -3.24303 -4.25125 0
M  V30 6184 H 607.418 -1.5776 -3.8525 0
M  V30 6185 H 607.951 -2.87206 -2.75241 0
M  V30 6186 H 604.69 -5.86449 -2.92844 0
M  V30 6187 H 604.21 -4.50091 -3.96457 0
M  V30 6188 H 605.889 -5.09483 -3.98793 0
M  V30 6189 N 606.021 0.929856 -1.27246 0
M  V30 6190 C 607.269 1.674 -1.13233 0
M  V30 6191 C 607.59 1.92311 0.322744 0
M  V30 6192 O 606.86 1.52784 1.22612 0
M  V30 6193 H 605.44 0.620411 -0.416052 0
M  V30 6194 H 608.102 1.11663 -1.59741 0
M  V30 6195 H 607.198 2.64308 -1.65975 0
M  V30 6196 N 607.499 1.09233 1.13605 0
M  V30 6197 C 608.729 0.847677 1.88409 0
M  V30 6198 C 609.137 -0.604524 1.79282 0
M  V30 6199 O 608.48 -1.42773 1.15592 0
M  V30 6200 C 608.542 1.20153 3.38827 0
M  V30 6201 C 608.206 2.65824 3.71735 0
M  V30 6202 C 609.203 3.64072 3.71143 0
M  V30 6203 C 606.888 3.01894 4.01454 0
M  V30 6204 C 608.882 4.96419 3.99808 0
M  V30 6205 C 606.569 4.34433 4.29781 0
M  V30 6206 C 607.567 5.31505 4.28942 0
M  V30 6207 O 607.255 6.61659 4.56576 0
M  V30 6208 H 606.987 0.304813 0.603378 0
M  V30 6209 H 609.541 1.4573 1.44748 0
M  V30 6210 H 607.771 0.534946 3.82982 0
M  V30 6211 H 609.46 0.936349 3.94952 0
M  V30 6212 H 610.226 3.37549 3.4826 0
M  V30 6213 H 606.105 2.26971 4.01255 0
M  V30 6214 H 609.649 5.7218 3.99069 0
M  V30 6215 H 605.546 4.607 4.52135 0
M  V30 6216 H 606.314 6.67102 4.74254 0
M  V30 6217 N 608.977 -1.30795 0.87923 0
M  V30 6218 C 610.205 -2.00527 0.509548 0
M  V30 6219 C 610.62 -1.65944 -0.90045 0
M  V30 6220 O 609.977 -0.893525 -1.5913 0
M  V30 6221 C 610.028 -3.55276 0.667943 0
M  V30 6222 O 609.749 -3.88625 2.02242 0
M  V30 6223 C 611.25 -4.4228 0.300494 0
M  V30 6224 H 608.47 -0.641261 0.197549 0
M  V30 6225 H 611.014 -1.66813 1.18295 0
M  V30 6226 H 609.169 -3.87377 0.0419843 0
M  V30 6227 H 609.583 -4.83334 2.03688 0
M  V30 6228 H 611.057 -5.50061 0.462242 0
M  V30 6229 H 611.534 -4.32556 -0.76106 0
M  V30 6230 H 612.14 -4.15613 0.902536 0
M  V30 6231 N 610.455 -0.639598 -1.44038 0
M  V30 6232 C 611.385 0.0469443 -2.33453 0
M  V30 6233 C 612.366 0.82609 -1.48694 0
M  V30 6234 O 613.551 0.790285 -1.77393 0
M  V30 6235 C 610.681 1.02338 -3.3188 0
M  V30 6236 C 609.635 0.355284 -4.26523 0
M  V30 6237 C 608.961 1.44221 -5.14883 0
M  V30 6238 C 610.261 -0.743798 -5.16977 0
M  V30 6239 H 611.955 -0.699735 -2.91108 0
M  V30 6240 H 609.501 -0.337946 -1.39978 0
M  V30 6241 H 611.454 1.51247 -3.93322 0
M  V30 6242 H 610.178 1.80105 -2.72451 0
M  V30 6243 H 608.837 -0.113239 -3.66425 0
M  V30 6244 H 608.485 2.21097 -4.51802 0
M  V30 6245 H 608.185 1.00052 -5.79019 0
M  V30 6246 H 609.709 1.93295 -5.79197 0
M  V30 6247 H 611.123 -0.337444 -5.72306 0
M  V30 6248 H 609.52 -1.10914 -5.89761 0
M  V30 6249 H 610.59 -1.60745 -4.57481 0
M  V30 6250 N 611.933 1.52934 -0.380664 0
M  V30 6251 C 612.896 2.24809 0.446473 0
M  V30 6252 C 613.896 1.26133 0.997347 0
M  V30 6253 O 615.086 1.50297 0.880714 0
M  V30 6254 C 612.218 2.99649 1.62553 0
M  V30 6255 H 613.411 2.99343 -0.182677 0
M  V30 6256 H 610.964 1.55736 -0.132618 0
M  V30 6257 H 611.699 2.29395 2.29235 0
M  V30 6258 H 611.484 3.72066 1.23732 0
M  V30 6259 H 612.974 3.54246 2.21133 0
M  V30 6260 N 613.412 0.11024 1.57214 0
M  V30 6261 C 614.375 -0.828808 2.1369 0
M  V30 6262 C 615.375 -1.20059 1.06969 0
M  V30 6263 O 616.565 -1.12754 1.32786 0
M  V30 6264 C 613.697 -2.11959 2.66994 0
M  V30 6265 H 614.89 -0.338146 2.97988 0
M  V30 6266 H 612.443 -0.138913 1.55681 0
M  V30 6267 H 613.178 -2.65476 1.8626 0
M  V30 6268 H 612.963 -1.86258 3.45037 0
M  V30 6269 H 614.453 -2.79105 3.10629 0
M  V30 6270 N 614.89 -1.56749 -0.16351 0
M  V30 6271 C 615.853 -1.96121 -1.18613 0
M  V30 6272 C 616.853 -0.845765 -1.36761 0
M  V30 6273 O 618.043 -1.11268 -1.34033 0
M  V30 6274 C 615.175 -2.26282 -2.54969 0
M  V30 6275 H 616.368 -2.87639 -0.848764 0
M  V30 6276 H 613.921 -1.50928 -0.406251 0
M  V30 6277 H 614.656 -1.37504 -2.93706 0
M  V30 6278 H 614.441 -3.07595 -2.43162 0
M  V30 6279 H 615.931 -2.57638 -3.28653 0
M  V30 6280 N 616.368 0.432326 -1.51554 0
M  V30 6281 C 617.615 1.18134 -1.64471 0
M  V30 6282 C 617.943 1.91076 -0.363349 0
M  V30 6283 O 617.198 1.84492 0.65279 0
M  V30 6284 C 617.497 2.21907 -2.80164 0
M  V30 6285 C 617.163 1.65941 -4.19255 0
M  V30 6286 C 615.825 1.50401 -4.57092 0
M  V30 6287 C 618.177 1.24843 -5.06027 0
M  V30 6288 C 615.505 0.922443 -5.79403 0
M  V30 6289 C 617.857 0.68113 -6.28922 0
M  V30 6290 C 616.521 0.512673 -6.65528 0
M  V30 6291 H 615.791 0.432283 -0.601841 0
M  V30 6292 H 618.438 0.471701 -1.856 0
M  V30 6293 H 616.743 2.98928 -2.53277 0
M  V30 6294 H 618.44 2.79691 -2.87357 0
M  V30 6295 H 615.03 1.79014 -3.89425 0
M  V30 6296 H 619.214 1.35667 -4.77397 0
M  V30 6297 H 614.47 0.779733 -6.06408 0
M  V30 6298 H 618.644 0.35418 -6.95499 0
M  V30 6299 H 616.271 0.0599084 -7.60176 0
M  V30 6300 N 617.846 1.41785 0.688094 0
M  V30 6301 C 619.094 1.41264 1.4453 0
M  V30 6302 C 619.415 0.0252946 1.94984 0
M  V30 6303 O 618.685 -0.934081 1.72197 0
M  V30 6304 H 617.265 0.519998 0.536294 0
M  V30 6305 H 619.927 1.7709 0.813941 0
M  V30 6306 H 619.023 2.10439 2.30482 0
M  V30 6307 N 619.324 -0.923095 1.27737 0
M  V30 6308 C 620.287 -2.00587 1.10894 0
M  V30 6309 C 621.287 -1.60718 0.0514927 0
M  V30 6310 O 622.477 -1.71658 0.296481 0
M  V30 6311 C 619.609 -3.33829 0.690717 0
M  V30 6312 H 620.802 -2.16959 2.07048 0
M  V30 6313 H 618.355 -1.10451 1.1059 0
M  V30 6314 H 619.09 -3.23157 -0.272 0
M  V30 6315 H 618.875 -3.64125 1.45448 0
M  V30 6316 H 620.365 -4.13336 0.595252 0
M  V30 6317 N 620.802 -1.09834 -1.13024 0
M  V30 6318 C 621.734 -0.699379 -2.18269 0
M  V30 6319 C 622.747 0.260841 -1.60697 0
M  V30 6320 O 623.936 0.0462538 -1.7844 0
M  V30 6321 C 621.036 -0.0104537 -3.38898 0
M  V30 6322 C 620.209 -0.993275 -4.25973 0
M  V30 6323 C 619.268 -0.336982 -5.2512 0
M  V30 6324 O 618.294 -0.985892 -5.60597 0
M  V30 6325 N 619.496 0.90716 -5.73368 0
M  V30 6326 H 622.261 -1.60486 -2.5311 0
M  V30 6327 H 619.822 -0.986337 -1.28386 0
M  V30 6328 H 621.814 0.43991 -4.02302 0
M  V30 6329 H 620.384 0.797335 -3.0226 0
M  V30 6330 H 619.604 -1.62208 -3.5928 0
M  V30 6331 H 620.892 -1.65876 -4.81002 0
M  V30 6332 H 620.29 1.45384 -5.46699 0
M  V30 6333 H 618.847 1.30077 -6.38689 0
M  V30 6334 N 622.28 1.30327 -0.886154 0
M  V30 6335 C 623.508 2.00254 -0.520176 0
M  V30 6336 C 623.923 1.66419 0.891637 0
M  V30 6337 O 623.28 0.901951 1.58654 0
M  V30 6338 C 623.331 3.54916 -0.686775 0
M  V30 6339 O 623.052 3.87547 -2.04301 0
M  V30 6340 C 624.553 4.42115 -0.323945 0
M  V30 6341 H 621.773 0.640204 -0.200947 0
M  V30 6342 H 624.317 1.66183 -1.19178 0
M  V30 6343 H 622.472 3.8735 -0.0625273 0
M  V30 6344 H 622.886 4.82247 -2.06249 0
M  V30 6345 H 624.36 5.49808 -0.491407 0
M  V30 6346 H 624.837 4.32953 0.73811 0
M  V30 6347 H 625.443 4.15129 -0.924565 0
M  V30 6348 N 623.758 0.647228 1.43697 0
M  V30 6349 C 624.721 -0.0385101 2.29168 0
M  V30 6350 C 625.721 -0.756487 1.41894 0
M  V30 6351 O 626.911 -0.598641 1.63591 0
M  V30 6352 C 624.043 -1.06524 3.23829 0
M  V30 6353 H 625.236 0.713445 2.9129 0
M  V30 6354 H 622.789 0.408153 1.50877 0
M  V30 6355 H 623.524 -1.84664 2.66589 0
M  V30 6356 H 623.309 -0.554147 3.88164 0
M  V30 6357 H 624.799 -1.54432 3.87996 0
M  V30 6358 N 625.236 -1.5273 0.388769 0
M  V30 6359 C 626.476 -2.03483 -0.193372 0
M  V30 6360 C 626.84 -1.26897 -1.44087 0
M  V30 6361 O 628.041 -1.67773 -2.10014 0
M  V30 6362 C 626.312 -3.54488 -0.455325 0
M  V30 6363 S 627.871 -4.27069 -1.00783 0
M  V30 6364 H 624.689 -0.708907 -0.0545131 0
M  V30 6365 H 627.291 -1.8798 0.536993 0
M  V30 6366 H 625.995 -4.07817 0.459722 0
M  V30 6367 H 625.526 -3.74196 -1.21413 0
M  V30 6368 H 627.541 -4.40185 -2.29023 0
M  V30 6369 N 626.714 -0.118576 -1.57153 0
M  V30 6370 C 628.125 0.40687 -1.82213 0
M  V30 6371 C 628.476 1.66636 -1.03571 0
M  V30 6372 O 627.601 2.14682 -0.272171 0
M  V30 6373 C 628.196 0.744949 -3.30509 0
M  V30 6374 C 626.755 1.21503 -3.5625 0
M  V30 6375 C 625.902 0.223511 -2.76398 0
M  V30 6376 H 628.853 -0.343712 -1.54933 0
M  V30 6377 H 628.874 1.6024 -3.45114 0
M  V30 6378 H 628.386 -0.171911 -3.87719 0
M  V30 6379 H 626.487 2.1488 -3.04396 0
M  V30 6380 H 626.6 1.16065 -4.64829 0
M  V30 6381 H 624.964 0.71046 -2.44591 0
M  V30 6382 H 625.747 -0.686439 -3.36367 0
M  V30 6383 N 628.193 1.56834 0.155195 0
M  V30 6384 C 629.141 1.98584 1.21107 0
M  V30 6385 C 630.135 0.876987 1.44932 0
M  V30 6386 O 631.341 1.06215 1.45322 0
M  V30 6387 H 627.716 0.632039 0.407469 0
M  V30 6388 H 629.687 2.86561 0.832195 0
M  V30 6389 C 628.436 2.37555 2.53895 0
M  V30 6390 H 627.759 3.22428 2.3639 0
M  V30 6391 H 629.199 2.70598 3.26424 0
M  V30 6392 C 627.658 1.22507 3.13837 0
M  V30 6393 O 628.188 0.521388 3.98302 0
M  V30 6394 N 626.394 0.991444 2.73164 0
M  V30 6395 H 625.941 1.56544 2.04577 0
M  V30 6396 H 625.899 0.223546 3.13604 0
M  V30 6397 N 629.671 -0.424282 1.51781 0
M  V30 6398 C 631.087 -0.761768 1.40247 0
M  V30 6399 C 631.287 -1.95324 0.495041 0
M  V30 6400 O 630.343 -2.5246 -0.0448949 0
M  V30 6401 C 631.656 -1.0299 2.82513 0
M  V30 6402 C 633.204 -1.13354 2.91753 0
M  V30 6403 C 633.679 -1.43453 4.34954 0
M  V30 6404 N 635.17 -1.5035 4.3812 0
M  V30 6405 C 635.905 -1.75236 5.45967 0
M  V30 6406 N 635.401 -1.97827 6.63955 0
M  V30 6407 N 637.194 -1.77126 5.33463 0
M  V30 6408 H 629.345 0.360228 2.09323 0
M  V30 6409 H 631.608 0.0988128 0.942836 0
M  V30 6410 H 631.314 -0.226961 3.50967 0
M  V30 6411 H 631.188 -1.95411 3.22637 0
M  V30 6412 H 633.575 -1.92709 2.23489 0
M  V30 6413 H 633.656 -0.188041 2.55108 0
M  V30 6414 H 633.3 -0.646209 5.03772 0
M  V30 6415 H 633.23 -2.3923 4.69123 0
M  V30 6416 H 635.721 -1.34742 3.53062 0
M  V30 6417 H 636.034 -2.16223 7.41935 0
M  V30 6418 H 634.379 -1.95123 6.67047 0
M  V30 6419 H 637.57 -1.59005 4.40267 0
M  V30 6420 H 637.743 -1.96182 6.17589 0
M  V30 6421 N 631.149 -1.42148 -0.680565 0
M  V30 6422 C 632.565 -1.24947 -0.992995 0
M  V30 6423 C 632.765 -0.149527 -2.00944 0
M  V30 6424 O 631.821 0.481145 -2.47873 0
M  V30 6425 C 633.134 -2.60426 -1.5033 0
M  V30 6426 C 634.682 -2.67733 -1.62137 0
M  V30 6427 C 635.157 -4.03564 -2.16565 0
M  V30 6428 N 636.648 -4.05488 -2.23905 0
M  V30 6429 C 637.383 -5.07401 -2.67081 0
M  V30 6430 N 636.879 -6.19698 -3.09751 0
M  V30 6431 N 638.672 -4.94758 -2.66778 0
M  V30 6432 H 630.823 -2.12399 -0.0074788 0
M  V30 6433 H 633.086 -0.94571 -0.0658529 0
M  V30 6434 H 632.792 -3.41743 -0.830947 0
M  V30 6435 H 632.666 -2.83949 -2.483 0
M  V30 6436 H 635.053 -1.86765 -2.2848 0
M  V30 6437 H 635.134 -2.48004 -0.626713 0
M  V30 6438 H 634.778 -4.84987 -1.50833 0
M  V30 6439 H 634.708 -4.20641 -3.1681 0
M  V30 6440 H 637.199 -3.24415 -1.93812 0
M  V30 6441 H 637.512 -6.93318 -3.41365 0
M  V30 6442 H 635.857 -6.23212 -3.07623 0
M  V30 6443 H 639.048 -4.06105 -2.32801 0
M  V30 6444 H 639.221 -5.74317 -3.00107 0
M  V30 6445 N 632.627 0.916307 -1.28225 0
M  V30 6446 C 633.873 1.66765 -1.154 0
M  V30 6447 C 634.206 1.91912 0.297251 0
M  V30 6448 O 633.481 1.51766 1.21644 0
M  V30 6449 C 633.764 3.02715 -1.95028 0
M  V30 6450 C 633.617 2.84738 -3.48201 0
M  V30 6451 C 634.936 4.03215 -1.76369 0
M  V30 6452 H 632.055 0.605205 -0.42059 0
M  V30 6453 H 634.697 1.06255 -1.57512 0
M  V30 6454 H 632.847 3.54365 -1.59242 0
M  V30 6455 H 634.519 2.40118 -3.9388 0
M  V30 6456 H 632.762 2.19848 -3.73964 0
M  V30 6457 H 633.433 3.8127 -3.99171 0
M  V30 6458 H 635.909 3.60617 -2.07593 0
M  V30 6459 H 634.785 4.96306 -2.34459 0
M  V30 6460 H 635.046 4.36288 -0.71452 0
M  V30 6461 N 634.105 1.10431 1.1244 0
M  V30 6462 C 635.354 0.841539 1.83306 0
M  V30 6463 C 635.667 -0.634961 1.85007 0
M  V30 6464 O 636.873 -1.01363 2.51869 0
M  V30 6465 C 635.329 1.45565 3.29149 0
M  V30 6466 C 634.937 2.96544 3.35806 0
M  V30 6467 C 636.681 1.27227 4.04986 0
M  V30 6468 C 634.588 3.5099 4.75983 0
M  V30 6469 H 633.518 0.311156 0.686803 0
M  V30 6470 H 636.169 1.32829 1.26604 0
M  V30 6471 H 634.551 0.896574 3.85717 0
M  V30 6472 H 635.725 3.58766 2.89177 0
M  V30 6473 H 634.04 3.14036 2.73442 0
M  V30 6474 H 636.637 1.65348 5.08492 0
M  V30 6475 H 636.98 0.213834 4.1575 0
M  V30 6476 H 637.513 1.79941 3.54776 0
M  V30 6477 H 634.252 4.56499 4.70413 0
M  V30 6478 H 633.772 2.93535 5.23065 0
M  V30 6479 H 635.451 3.48808 5.44924 0
M  V30 6480 N 635.583 -1.29855 0.893053 0
M  V30 6481 C 636.829 -1.96116 0.516349 0
M  V30 6482 C 637.162 -1.70281 -0.933695 0
M  V30 6483 O 636.437 -1.01205 -1.66096 0
M  V30 6484 C 636.72 -3.51068 0.801455 0
M  V30 6485 C 636.573 -3.86387 2.30272 0
M  V30 6486 C 637.892 -4.39186 0.283423 0
M  V30 6487 H 635.011 -0.712335 0.189072 0
M  V30 6488 H 637.653 -1.53587 1.11852 0
M  V30 6489 H 635.803 -3.87424 0.288949 0
M  V30 6490 H 637.475 -3.60012 2.88425 0
M  V30 6491 H 635.718 -3.34167 2.76613 0
M  V30 6492 H 636.389 -4.94512 2.45279 0
M  V30 6493 H 638.865 -4.09785 0.722187 0
M  V30 6494 H 637.741 -5.46505 0.512169 0
M  V30 6495 H 638.002 -4.34511 -0.815643 0
M  V30 6496 N 637.061 -0.65484 -1.43351 0
M  V30 6497 C 637.991 0.0221809 -2.33489 0
M  V30 6498 C 638.972 0.810272 -1.49561 0
M  V30 6499 O 640.157 0.771426 -1.78221 0
M  V30 6500 C 637.287 0.988117 -3.32947 0
M  V30 6501 C 636.241 0.310026 -4.26876 0
M  V30 6502 C 635.567 1.38752 -5.16384 0
M  V30 6503 C 636.867 -0.798589 -5.16159 0
M  V30 6504 H 638.561 -0.730571 -2.9035 0
M  V30 6505 H 636.107 -0.352773 -1.39612 0
M  V30 6506 H 638.06 1.47067 -3.94904 0
M  V30 6507 H 636.784 1.77205 -2.74346 0
M  V30 6508 H 635.443 -0.152097 -3.66284 0
M  V30 6509 H 635.091 2.16293 -4.54121 0
M  V30 6510 H 634.791 0.939051 -5.80048 0
M  V30 6511 H 636.315 1.87141 -5.81215 0
M  V30 6512 H 637.729 -0.398126 -5.71916 0
M  V30 6513 H 636.126 -1.17163 -5.88552 0
M  V30 6514 H 637.196 -1.65588 -4.55751 0
M  V30 6515 N 638.539 1.52521 -0.396863 0
M  V30 6516 C 639.767 2.06091 0.18275 0
M  V30 6517 C 640.182 1.26796 1.39886 0
M  V30 6518 O 639.539 0.316585 1.79733 0
M  V30 6519 C 639.59 3.57362 0.545377 0
M  V30 6520 O 639.311 4.33656 -0.622428 0
M  V30 6521 C 640.812 4.27305 1.18004 0
M  V30 6522 H 638.032 0.670504 0.025789 0
M  V30 6523 H 640.576 1.96561 -0.564276 0
M  V30 6524 H 638.731 3.66941 1.2423 0
M  V30 6525 H 639.145 5.23507 -0.322662 0
M  V30 6526 H 640.619 5.34366 1.38408 0
M  V30 6527 H 641.096 3.83 2.1496 0
M  V30 6528 H 641.702 4.22064 0.523671 0
M  V30 6529 N 640.017 0.126909 1.57088 0
M  V30 6530 C 641.265 -0.528123 1.95078 0
M  V30 6531 C 641.586 -1.66708 1.0116 0
M  V30 6532 O 640.856 -1.95777 0.0693527 0
M  V30 6533 H 639.436 -0.198087 0.720257 0
M  V30 6534 H 642.098 0.197703 1.93895 0
M  V30 6535 H 641.194 -0.917507 2.98309 0
M  V30 6536 N 641.495 -1.56914 -0.146875 0
M  V30 6537 C 642.772 -1.74273 -0.888165 0
M  V30 6538 C 643.152 -0.69496 -1.99333 0
M  V30 6539 O 642.5 0.286093 -2.26702 0
M  V30 6540 C 642.71 -3.18336 -1.43051 0
M  V30 6541 C 644.058 -3.80024 -1.89387 0
M  V30 6542 O 645.082 -3.21765 -1.52792 0
M  V30 6543 O 643.941 -4.82367 -2.56874 0
M  V30 6544 H 641.035 -0.712565 -0.419738 0
M  V30 6545 H 643.581 -1.6918 -0.132791 0
M  V30 6546 H 642.353 -3.86092 -0.636274 0
M  V30 6547 H 641.976 -3.27854 -2.24938 0
M  V30 6548 N 642.974 0.416227 -1.52004 0
M  V30 6549 C 644.222 1.16153 -1.65387 0
M  V30 6550 C 644.543 1.91208 -0.382669 0
M  V30 6551 O 643.813 1.86413 0.602231 0
M  V30 6552 H 642.393 0.431765 -0.60958 0
M  V30 6553 H 645.055 0.475151 -1.89019 0
M  V30 6554 H 644.151 1.87952 -2.4916 0
M  V30 6555 N 644.452 1.42507 0.673017 0
M  V30 6556 C 645.415 1.4582 1.76831 0
M  V30 6557 C 646.415 0.345542 1.57043 0
M  V30 6558 O 647.605 0.606447 1.63303 0
M  V30 6559 C 644.737 1.29158 3.15485 0
M  V30 6560 H 645.93 2.43345 1.7528 0
M  V30 6561 H 643.483 1.28981 0.882817 0
M  V30 6562 H 644.218 0.325626 3.22661 0
M  V30 6563 H 644.003 2.09797 3.31252 0
M  V30 6564 H 645.493 1.34363 3.95394 0
M  V30 6565 N 645.93 -0.909495 1.28709 0
M  V30 6566 C 646.893 -1.99399 1.13016 0
M  V30 6567 C 647.893 -1.60654 0.068536 0
M  V30 6568 O 649.083 -1.71334 0.314671 0
M  V30 6569 C 646.215 -3.33078 0.726085 0
M  V30 6570 H 647.408 -2.14751 2.09338 0
M  V30 6571 H 644.961 -1.09272 1.11756 0
M  V30 6572 H 645.696 -3.23428 -0.23771 0
M  V30 6573 H 645.481 -3.62562 1.49302 0
M  V30 6574 H 646.971 -4.12681 0.639058 0
M  V30 6575 N 647.408 -1.11026 -1.11852 0
M  V30 6576 C 648.34 -0.72249 -2.17515 0
M  V30 6577 C 649.353 0.243782 -1.60964 0
M  V30 6578 O 650.542 0.0273252 -1.78479 0
M  V30 6579 C 647.642 -0.0463979 -3.38868 0
M  V30 6580 C 646.815 -1.0384 -4.24895 0
M  V30 6581 C 645.874 -0.392659 -5.24733 0
M  V30 6582 O 644.9 -1.0453 -5.5952 0
M  V30 6583 N 646.102 0.846296 -5.74298 0
M  V30 6584 H 648.867 -1.63161 -2.51393 0
M  V30 6585 H 646.428 -0.999899 -1.27333 0
M  V30 6586 H 648.42 0.397215 -4.02746 0
M  V30 6587 H 646.99 0.765231 -3.03089 0
M  V30 6588 H 646.21 -1.6601 -3.57539 0
M  V30 6589 H 647.498 -1.70968 -4.79215 0
M  V30 6590 H 646.896 1.39578 -5.4821 0
M  V30 6591 H 645.453 1.23296 -6.40032 0
M  V30 6592 N 648.886 1.2938 -0.899927 0
M  V30 6593 C 649.816 2.30144 -0.39446 0
M  V30 6594 C 650.797 1.61611 0.530639 0
M  V30 6595 O 651.982 1.89119 0.441319 0
M  V30 6596 C 649.112 3.45229 0.37868 0
M  V30 6597 C 648.066 4.25564 -0.456012 0
M  V30 6598 C 647.392 5.32848 0.444637 0
M  V30 6599 C 648.692 4.93651 -1.70605 0
M  V30 6600 H 650.386 2.72673 -1.23653 0
M  V30 6601 H 647.932 1.31086 -0.596034 0
M  V30 6602 H 649.885 4.14797 0.743037 0
M  V30 6603 H 648.609 3.01545 1.25453 0
M  V30 6604 H 647.268 3.57704 -0.802704 0
M  V30 6605 H 646.916 4.85408 1.31863 0
M  V30 6606 H 646.616 5.87497 -0.110154 0
M  V30 6607 H 648.14 6.05268 0.805182 0
M  V30 6608 H 649.554 5.55655 -1.41141 0
M  V30 6609 H 647.951 5.58233 -2.20217 0
M  V30 6610 H 649.021 4.18926 -2.4419 0
M  V30 6611 N 650.364 0.662433 1.43002 0
M  V30 6612 C 651.592 0.187615 2.06048 0
M  V30 6613 C 652.007 -1.15039 1.49705 0
M  V30 6614 O 651.364 -1.71209 0.631956 0
M  V30 6615 C 651.415 0.100498 3.6136 0
M  V30 6616 O 651.136 1.38562 4.15611 0
M  V30 6617 C 652.637 -0.399298 4.41498 0
M  V30 6618 H 649.857 0.0941675 0.664359 0
M  V30 6619 H 652.401 0.905681 1.83351 0
M  V30 6620 H 650.556 -0.568181 3.83211 0
M  V30 6621 H 650.97 1.25084 5.09366 0
M  V30 6622 H 652.444 -0.409187 5.50481 0
M  V30 6623 H 652.921 -1.43232 4.15188 0
M  V30 6624 H 653.527 0.23721 4.24638 0
M  V30 6625 N 651.842 -1.52309 0.404946 0
M  V30 6626 C 653.091 -2.00952 -0.173529 0
M  V30 6627 C 653.404 -1.29512 -1.46581 0
M  V30 6628 O 654.61 -1.6895 -2.12528 0
M  V30 6629 C 653.066 -3.58097 -0.359801 0
M  V30 6630 C 652.674 -4.38449 0.920138 0
M  V30 6631 C 654.418 -4.14984 -0.893794 0
M  V30 6632 C 652.325 -5.87227 0.701285 0
M  V30 6633 H 651.255 -0.750871 -0.0686244 0
M  V30 6634 H 653.906 -1.75687 0.529749 0
M  V30 6635 H 652.288 -3.79675 -1.12531 0
M  V30 6636 H 653.462 -4.28633 1.69147 0
M  V30 6637 H 651.777 -3.92859 1.38024 0
M  V30 6638 H 654.374 -5.23813 -1.0735 0
M  V30 6639 H 654.717 -3.72072 -1.8673 0
M  V30 6640 H 655.25 -3.97358 -0.187453 0
M  V30 6641 H 651.989 -6.34491 1.64624 0
M  V30 6642 H 651.509 -5.99792 -0.0308288 0
M  V30 6643 H 653.188 -6.46096 0.341846 0
M  V30 6644 N 653.32 -0.135238 -1.57019 0
M  V30 6645 C 654.252 0.839675 -2.13265 0
M  V30 6646 C 655.265 1.21887 -1.07923 0
M  V30 6647 O 656.454 1.16499 -1.35241 0
M  V30 6648 C 653.554 2.13647 -2.63075 0
M  V30 6649 C 652.727 1.92646 -3.92691 0
M  V30 6650 C 651.786 3.06205 -4.27931 0
M  V30 6651 O 650.812 2.78409 -4.96465 0
M  V30 6652 N 652.014 4.33072 -3.86561 0
M  V30 6653 H 654.779 0.359026 -2.97542 0
M  V30 6654 H 652.34 0.0486979 -1.61827 0
M  V30 6655 H 654.332 2.88641 -2.8367 0
M  V30 6656 H 652.902 2.5301 -1.83588 0
M  V30 6657 H 652.122 1.01754 -3.80841 0
M  V30 6658 H 653.41 1.75939 -4.77413 0
M  V30 6659 H 652.808 4.58526 -3.31316 0
M  V30 6660 H 651.365 5.04885 -4.12231 0
M  V30 6661 N 654.798 1.5699 0.138552 0
M  V30 6662 C 655.708 2.02174 1.19008 0
M  V30 6663 C 656.724 0.938622 1.46512 0
M  V30 6664 O 657.9 1.24872 1.58016 0
M  V30 6665 C 654.965 2.40045 2.50159 0
M  V30 6666 C 654.026 3.62346 2.30226 0
M  V30 6667 C 653.259 3.98401 3.55123 0
M  V30 6668 O 653.482 3.35019 4.61647 0
M  V30 6669 O 652.416 4.91606 3.47285 0
M  V30 6670 H 656.242 2.91954 0.836452 0
M  V30 6671 H 653.827 1.45293 0.347907 0
M  V30 6672 H 655.709 2.65225 3.27465 0
M  V30 6673 H 654.384 1.53417 2.85035 0
M  V30 6674 H 653.291 3.42341 1.50843 0
M  V30 6675 H 654.624 4.49617 2.00262 0
M  V30 6676 N 656.276 -0.40816 1.52223 0
M  V30 6677 C 657.206 -1.5042 1.78595 0
M  V30 6678 C 658.187 -1.57723 0.636974 0
M  V30 6679 O 659.372 -1.72982 0.882664 0
M  V30 6680 C 656.502 -2.88232 1.93751 0
M  V30 6681 C 655.456 -2.95779 3.09352 0
M  V30 6682 C 654.782 -4.35855 3.09732 0
M  V30 6683 C 656.082 -2.67175 4.48793 0
M  V30 6684 H 657.776 -1.28601 2.70374 0
M  V30 6685 H 655.322 -0.617221 1.30101 0
M  V30 6686 H 657.275 -3.64895 2.10783 0
M  V30 6687 H 655.999 -3.11347 0.986443 0
M  V30 6688 H 654.658 -2.21561 2.92072 0
M  V30 6689 H 654.306 -4.55981 2.12346 0
M  V30 6690 H 654.006 -4.41829 3.87377 0
M  V30 6691 H 655.53 -5.14451 3.28895 0
M  V30 6692 H 656.944 -3.3356 4.66273 0
M  V30 6693 H 655.341 -2.84523 5.28362 0
M  V30 6694 H 656.411 -1.62609 4.56822 0
M  V30 6695 N 657.755 -1.42862 -0.66545 0
M  V30 6696 C 659.003 -1.43546 -1.42264 0
M  V30 6697 C 659.324 -0.0563116 -1.94919 0
M  V30 6698 O 658.594 0.906568 -1.73661 0
M  V30 6699 H 657.174 -0.528464 -0.527953 0
M  V30 6700 H 659.836 -1.78363 -0.785665 0
M  V30 6701 H 658.932 -2.14079 -2.27105 0
M  V30 6702 N 659.233 0.902656 -1.29189 0
M  V30 6703 C 660.458 1.69167 -1.19989 0
M  V30 6704 C 660.883 1.86607 0.236495 0
M  V30 6705 O 660.241 1.38425 1.17082 0
M  V30 6706 C 660.289 3.05532 -1.91527 0
M  V30 6707 O 659.393 3.93621 -1.2303 0
M  V30 6708 H 658.734 0.517584 -0.415936 0
M  V30 6709 H 661.264 1.12785 -1.70706 0
M  V30 6710 H 661.274 3.55693 -1.99866 0
M  V30 6711 H 659.949 2.92156 -2.96003 0
M  V30 6712 H 658.526 3.52055 -1.22928 0
M  V30 6713 N 660.711 1.11618 1.11262 0
M  V30 6714 C 661.644 0.719995 2.16544 0
M  V30 6715 C 662.622 -0.28471 1.60088 0
M  V30 6716 O 663.806 -0.180693 1.87632 0
M  V30 6717 C 660.933 0.0643302 3.38639 0
M  V30 6718 C 659.979 1.03448 4.13764 0
M  V30 6719 S 660.812 2.55789 4.70459 0
M  V30 6720 C 661.968 1.91529 5.95875 0
M  V30 6721 H 662.201 1.61181 2.49816 0
M  V30 6722 H 659.734 0.934401 1.22916 0
M  V30 6723 H 661.692 -0.307609 4.09346 0
M  V30 6724 H 660.353 -0.804471 3.03623 0
M  V30 6725 H 659.546 0.523188 5.01277 0
M  V30 6726 H 659.148 1.34893 3.48826 0
M  V30 6727 H 661.44 1.25286 6.65815 0
M  V30 6728 H 662.383 2.77047 6.51652 0
M  V30 6729 H 662.791 1.37468 5.47506 0
M  V30 6730 N 662.189 -1.289 0.906776 0
M  V30 6731 C 663.119 -2.29932 0.406659 0
M  V30 6732 C 664.1 -1.6189 -0.522061 0
M  V30 6733 O 665.285 -1.8935 -0.431283 0
M  V30 6734 C 662.415 -3.45425 -0.360366 0
M  V30 6735 C 661.369 -4.25316 0.478574 0
M  V30 6736 C 660.695 -5.33076 -0.416373 0
M  V30 6737 C 661.995 -4.92739 1.7322 0
M  V30 6738 H 663.689 -2.72013 1.25097 0
M  V30 6739 H 661.235 -1.30768 0.602977 0
M  V30 6740 H 663.188 -4.15186 -0.721029 0
M  V30 6741 H 661.912 -3.02206 -1.23852 0
M  V30 6742 H 660.571 -3.57273 0.821662 0
M  V30 6743 H 660.219 -4.86101 -1.29287 0
M  V30 6744 H 659.919 -5.8743 0.141309 0
M  V30 6745 H 661.443 -6.05686 -0.773072 0
M  V30 6746 H 662.857 -5.54898 1.44086 0
M  V30 6747 H 661.254 -5.57057 2.23175 0
M  V30 6748 H 662.324 -4.17625 2.46408 0
M  V30 6749 N 663.667 -0.670007 -1.42649 0
M  V30 6750 C 665.083 -0.33911 -1.55956 0
M  V30 6751 C 665.283 1.1558 -1.65056 0
M  V30 6752 O 664.339 1.94111 -1.61485 0
M  V30 6753 C 665.652 -1.06522 -2.812 0
M  V30 6754 C 667.2 -1.04708 -2.94966 0
M  V30 6755 C 667.675 -1.75442 -4.23065 0
M  V30 6756 N 669.166 -1.72286 -4.29967 0
M  V30 6757 C 669.901 -2.23877 -5.27889 0
M  V30 6758 N 669.397 -2.83829 -6.31991 0
M  V30 6759 N 671.19 -2.14279 -5.19654 0
M  V30 6760 H 663.341 -1.6399 -1.34986 0
M  V30 6761 H 665.604 -0.690603 -0.649439 0
M  V30 6762 H 665.31 -2.12033 -2.80597 0
M  V30 6763 H 665.184 -0.627398 -3.71946 0
M  V30 6764 H 667.571 -0.000315966 -2.951 0
M  V30 6765 H 667.652 -1.52374 -2.05465 0
M  V30 6766 H 667.296 -2.80084 -4.23693 0
M  V30 6767 H 667.226 -1.25229 -5.11493 0
M  V30 6768 H 669.717 -1.28554 -3.55362 0
M  V30 6769 H 670.03 -3.20827 -7.03057 0
M  V30 6770 H 668.375 -2.87896 -6.32567 0
M  V30 6771 H 671.566 -1.67135 -4.37245 0
M  V30 6772 H 671.739 -2.54792 -5.95806 0
M  V30 6773 N 665.145 1.52092 -0.413018 0
M  V30 6774 C 666.422 1.94356 0.22024 0
M  V30 6775 C 666.802 1.35017 1.62277 0
M  V30 6776 O 666.15 0.527511 2.22328 0
M  V30 6777 C 666.36 3.48289 0.222638 0
M  V30 6778 C 667.708 4.22313 0.440098 0
M  V30 6779 O 668.732 3.54919 0.301826 0
M  V30 6780 O 667.591 5.41829 0.712984 0
M  V30 6781 H 664.685 0.814536 0.14304 0
M  V30 6782 H 667.231 1.63083 -0.469242 0
M  V30 6783 H 666.003 3.83872 -0.758836 0
M  V30 6784 H 665.626 3.85934 0.956057 0
M  V30 6785 N 666.623 0.143563 1.56945 0
M  V30 6786 C 667.57 -0.797433 2.16586 0
M  V30 6787 C 668.54 -1.24654 1.09775 0
M  V30 6788 O 669.725 -1.31968 1.37801 0
M  V30 6789 C 666.865 -2.03253 2.78895 0
M  V30 6790 C 665.978 -1.62954 4.00087 0
M  V30 6791 C 665.113 -2.81617 4.50406 0
M  V30 6792 C 664.152 -2.37675 5.64072 0
M  V30 6793 N 663.289 -3.49335 6.09023 0
M  V30 6794 H 668.129 -0.282023 2.96662 0
M  V30 6795 H 665.666 -0.127494 1.46546 0
M  V30 6796 H 667.624 -2.75653 3.13163 0
M  V30 6797 H 666.254 -2.52211 2.01469 0
M  V30 6798 H 665.306 -0.803322 3.71821 0
M  V30 6799 H 666.618 -1.26679 4.82446 0
M  V30 6800 H 665.772 -3.62212 4.86711 0
M  V30 6801 H 664.511 -3.21134 3.67048 0
M  V30 6802 H 663.516 -1.55519 5.27346 0
M  V30 6803 H 664.741 -1.99247 6.49213 0
M  V30 6804 H 662.687 -3.8848 5.28601 0
M  V30 6805 H 662.604 -3.17064 6.86299 0
M  V30 6806 H 663.872 -4.30297 6.49973 0
M  V30 6807 N 668.101 -1.57061 -0.130224 0
M  V30 6808 C 669.033 -1.96147 -1.18571 0
M  V30 6809 C 670.046 -0.859347 -1.38272 0
M  V30 6810 O 671.235 -1.13769 -1.37545 0
M  V30 6811 C 668.335 -2.23484 -2.54771 0
M  V30 6812 C 667.508 -3.54786 -2.55824 0
M  V30 6813 C 666.567 -3.70467 -3.73686 0
M  V30 6814 O 665.593 -4.42693 -3.57787 0
M  V30 6815 N 666.795 -3.08389 -4.91809 0
M  V30 6816 H 669.56 -2.87295 -0.853333 0
M  V30 6817 H 667.121 -1.58714 -0.319621 0
M  V30 6818 H 669.113 -2.312 -3.32158 0
M  V30 6819 H 667.683 -1.38518 -2.80235 0
M  V30 6820 H 666.903 -3.5836 -1.64232 0
M  V30 6821 H 668.191 -4.4111 -2.53573 0
M  V30 6822 H 667.589 -2.49656 -5.0763 0
M  V30 6823 H 666.146 -3.21642 -5.66912 0
M  V30 6824 N 669.579 0.400081 -1.52437 0
M  V30 6825 C 670.529 1.48734 -1.72807 0
M  V30 6826 C 671.513 1.50004 -0.582032 0
M  V30 6827 O 672.705 1.55828 -0.839449 0
M  V30 6828 C 669.834 2.86568 -1.89034 0
M  V30 6829 C 668.92 2.8991 -3.09537 0
M  V30 6830 N 669.311 2.62937 -4.32086 0
M  V30 6831 C 667.609 3.21078 -3.09556 0
M  V30 6832 C 668.31 2.73079 -5.13617 0
M  V30 6833 N 667.286 3.06342 -4.49061 0
M  V30 6834 H 671.088 1.26689 -2.65193 0
M  V30 6835 H 668.602 0.607902 -1.50593 0
M  V30 6836 H 670.599 3.64834 -2.01746 0
M  V30 6837 H 669.259 3.09604 -0.978547 0
M  V30 6838 H 670.27 2.37163 -4.60406 0
M  V30 6839 H 666.947 3.49651 -2.28146 0
M  V30 6840 H 668.337 2.55863 -6.21276 0
M  V30 6841 N 671.057 1.43213 0.657864 0
M  V30 6842 C 672.468 1.39669 1.23893 0
M  V30 6843 C 672.819 0.0984217 1.95953 0
M  V30 6844 O 671.944 -0.8023 2.00978 0
M  V30 6845 C 672.539 2.53004 2.25332 0
M  V30 6846 C 671.098 2.5274 2.78926 0
M  V30 6847 C 670.245 2.30941 1.53497 0
M  V30 6848 H 673.196 1.52181 0.450172 0
M  V30 6849 H 673.217 2.24226 3.07413 0
M  V30 6850 H 672.729 3.4748 1.72856 0
M  V30 6851 H 670.83 1.6213 3.35477 0
M  V30 6852 H 670.943 3.50352 3.26787 0
M  V30 6853 H 669.307 1.7952 1.80678 0
M  V30 6854 H 670.09 3.27496 1.02963 0
M  V30 6855 N 672.536 -0.895792 1.29666 0
M  V30 6856 C 673.785 -1.64131 1.17234 0
M  V30 6857 C 674.098 -1.93665 -0.274416 0
M  V30 6858 O 675.304 -2.66472 -0.520105 0
M  V30 6859 C 673.76 -2.95764 2.05065 0
M  V30 6860 C 673.368 -2.7381 3.54587 0
M  V30 6861 C 675.112 -3.737 2.01367 0
M  V30 6862 C 673.019 -4.01194 4.34508 0
M  V30 6863 H 671.949 -0.615742 0.435175 0
M  V30 6864 H 674.6 -0.992626 1.54335 0
M  V30 6865 H 672.982 -3.61867 1.60837 0
M  V30 6866 H 674.156 -2.16277 4.06892 0
M  V30 6867 H 672.471 -2.09265 3.59996 0
M  V30 6868 H 675.068 -4.68152 2.58337 0
M  V30 6869 H 675.411 -4.04245 0.994575 0
M  V30 6870 H 675.944 -3.14444 2.43659 0
M  V30 6871 H 672.683 -3.75813 5.37071 0
M  V30 6872 H 672.203 -4.58272 3.86971 0
M  V30 6873 H 673.882 -4.69307 4.45376 0
M  V30 6874 N 674.014 -1.12206 -1.10668 0
M  V30 6875 C 675.263 -0.870595 -1.81944 0
M  V30 6876 C 675.576 0.605447 -1.85994 0
M  V30 6877 O 676.782 0.973433 -2.53449 0
M  V30 6878 C 675.238 -1.50783 -3.26791 0
M  V30 6879 C 674.846 -3.01849 -3.31046 0
M  V30 6880 C 676.59 -1.33653 -4.02911 0
M  V30 6881 C 674.497 -3.58518 -4.70339 0
M  V30 6882 H 673.427 -0.322043 -0.681765 0
M  V30 6883 H 676.078 -1.34827 -1.24475 0
M  V30 6884 H 674.46 -0.957825 -3.84242 0
M  V30 6885 H 675.634 -3.63321 -2.83433 0
M  V30 6886 H 673.949 -3.18346 -2.68411 0
M  V30 6887 H 676.546 -1.73416 -5.05797 0
M  V30 6888 H 676.889 -0.279949 -4.15358 0
M  V30 6889 H 677.422 -1.85562 -3.51868 0
M  V30 6890 H 674.161 -4.63925 -4.63091 0
M  V30 6891 H 673.681 -3.01819 -5.18329 0
M  V30 6892 H 675.36 -3.57434 -5.39305 0
M  V30 6893 N 675.492 1.28418 -0.913599 0
M  V30 6894 C 676.422 2.29713 -0.418847 0
M  V30 6895 C 677.403 1.62165 0.513469 0
M  V30 6896 O 678.588 1.89576 0.421235 0
M  V30 6897 C 675.718 3.45612 0.342042 0
M  V30 6898 C 674.672 4.25056 -0.501123 0
M  V30 6899 C 673.998 5.3329 0.388097 0
M  V30 6900 C 675.298 4.91814 -1.75831 0
M  V30 6901 H 676.992 2.71346 -1.26538 0
M  V30 6902 H 674.538 1.30446 -0.609903 0
M  V30 6903 H 676.491 4.15562 0.699 0
M  V30 6904 H 675.215 3.02858 1.22248 0
M  V30 6905 H 673.874 3.56833 -0.840598 0
M  V30 6906 H 673.522 4.8678 1.26707 0
M  V30 6907 H 673.222 5.87347 -0.172459 0
M  V30 6908 H 674.746 6.06088 0.74094 0
M  V30 6909 H 676.16 5.54126 -1.47026 0
M  V30 6910 H 674.557 5.55866 -2.26126 0
M  V30 6911 H 675.627 4.16313 -2.4862 0
M  V30 6912 N 676.97 0.677563 1.42291 0
M  V30 6913 C 678.216 0.201272 2.01799 0
M  V30 6914 C 678.549 -1.19004 1.53465 0
M  V30 6915 O 677.824 -1.79953 0.738039 0
M  V30 6916 C 678.107 0.238968 3.59306 0
M  V30 6917 C 677.96 1.66594 4.17812 0
M  V30 6918 C 679.279 -0.411287 4.38174 0
M  V30 6919 H 676.398 0.0746114 0.733214 0
M  V30 6920 H 679.04 0.862872 1.69276 0
M  V30 6921 H 677.19 -0.324368 3.87144 0
M  V30 6922 H 678.862 2.28173 4.00917 0
M  V30 6923 H 677.105 2.20576 3.73536 0
M  V30 6924 H 677.776 1.64398 5.26951 0
M  V30 6925 H 680.252 0.0682804 4.16044 0
M  V30 6926 H 679.128 -0.354286 5.47755 0
M  V30 6927 H 679.389 -1.4893 4.1626 0
M  V30 6928 N 678.448 -1.51871 0.421078 0
M  V30 6929 C 679.378 -2.30231 -0.389363 0
M  V30 6930 C 680.359 -1.34946 -1.03555 0
M  V30 6931 O 681.544 -1.63859 -1.04229 0
M  V30 6932 C 678.674 -3.13247 -1.49979 0
M  V30 6933 C 677.628 -4.16677 -0.977966 0
M  V30 6934 C 676.954 -4.88112 -2.1829 0
M  V30 6935 C 678.254 -5.22295 -0.0236775 0
M  V30 6936 H 679.948 -2.98229 0.264524 0
M  V30 6937 H 677.494 -1.43424 0.12866 0
M  V30 6938 H 679.447 -3.66838 -2.07383 0
M  V30 6939 H 678.171 -2.4304 -2.18173 0
M  V30 6940 H 676.83 -3.64114 -0.426245 0
M  V30 6941 H 676.478 -4.14423 -2.85066 0
M  V30 6942 H 676.178 -5.58041 -1.84021 0
M  V30 6943 H 677.702 -5.44521 -2.76278 0
M  V30 6944 H 679.116 -5.71055 -0.506899 0
M  V30 6945 H 677.513 -5.99656 0.230782 0
M  V30 6946 H 678.583 -4.76131 0.917999 0
M  V30 6947 N 679.926 -0.151884 -1.56866 0
M  V30 6948 C 680.874 0.80299 -2.183 0
M  V30 6949 C 681.868 1.25174 -1.14139 0
M  V30 6950 O 683.074 1.21966 -1.3238 0
M  V30 6951 H 679.449 0.277169 -0.699057 0
M  V30 6952 H 681.42 0.260699 -2.97259 0
M  V30 6953 C 680.169 2.03009 -2.82281 0
M  V30 6954 H 679.492 1.69377 -3.62148 0
M  V30 6955 H 680.932 2.67753 -3.28762 0
M  V30 6956 C 679.391 2.84123 -1.81041 0
M  V30 6957 O 679.921 3.8063 -1.28388 0
M  V30 6958 N 678.127 2.48753 -1.50234 0
M  V30 6959 H 677.674 1.70337 -1.93244 0
M  V30 6960 H 677.632 3.03316 -0.827445 0
M  V30 6961 N 681.404 1.57128 0.121893 0
M  V30 6962 C 682.352 2.01109 1.16868 0
M  V30 6963 C 683.346 0.907532 1.43039 0
M  V30 6964 O 684.552 1.09274 1.43036 0
M  V30 6965 H 680.927 0.640539 0.393971 0
M  V30 6966 H 682.898 2.88261 0.771224 0
M  V30 6967 C 681.647 2.42887 2.48799 0
M  V30 6968 H 680.97 3.2737 2.29498 0
M  V30 6969 H 682.41 2.77461 3.20611 0
M  V30 6970 C 680.869 1.29137 3.11168 0
M  V30 6971 O 681.399 0.605756 3.97106 0
M  V30 6972 N 679.605 1.04916 2.71 0
M  V30 6973 H 679.152 1.60848 2.01211 0
M  V30 6974 H 679.11 0.290016 3.1306 0
M  V30 6975 N 682.882 -0.391992 1.52647 0
M  V30 6976 C 683.792 -1.503 1.80131 0
M  V30 6977 C 684.808 -1.59825 0.687882 0
M  V30 6978 O 685.984 -1.76218 0.975149 0
M  V30 6979 C 683.049 -2.85863 1.96171 0
M  V30 6980 C 682.11 -2.86084 3.20085 0
M  V30 6981 C 681.343 -4.15181 3.35351 0
M  V30 6982 O 681.566 -5.09981 2.55491 0
M  V30 6983 O 680.5 -4.22603 4.28591 0
M  V30 6984 H 684.326 -1.30007 2.74466 0
M  V30 6985 H 681.911 -0.579539 1.37701 0
M  V30 6986 H 683.793 -3.66236 2.08445 0
M  V30 6987 H 682.468 -3.06189 1.05025 0
M  V30 6988 H 681.375 -2.04504 3.13256 0
M  V30 6989 H 682.708 -2.7071 4.11068 0
M  V30 6990 N 684.36 -1.4356 -0.65026 0
M  V30 6991 C 685.608 -1.45046 -1.40734 0
M  V30 6992 C 685.929 -0.0769822 -1.94848 0
M  V30 6993 O 685.199 0.888098 -1.74613 0
M  V30 6994 H 683.779 -0.534034 -0.522318 0
M  V30 6995 H 686.441 -1.79186 -0.766703 0
M  V30 6996 H 685.537 -2.16476 -2.24822 0
M  V30 6997 N 685.838 0.888903 -1.30139 0
M  V30 6998 C 687.068 1.67115 -1.21474 0
M  V30 6999 C 687.476 1.87852 0.225472 0
M  V30 7000 O 686.819 1.42324 1.16145 0
M  V30 7001 C 686.881 3.0713 -1.86846 0
M  V30 7002 C 686.545 3.09582 -3.36167 0
M  V30 7003 C 687.542 2.88929 -4.32222 0
M  V30 7004 C 685.227 3.31304 -3.77549 0
M  V30 7005 C 687.221 2.89949 -5.67634 0
M  V30 7006 C 684.908 3.31954 -5.13079 0
M  V30 7007 C 685.906 3.113 -6.07932 0
M  V30 7008 O 685.594 3.11758 -7.40987 0
M  V30 7009 H 685.326 0.528372 -0.421662 0
M  V30 7010 H 687.88 1.11919 -1.7223 0
M  V30 7011 H 686.11 3.63973 -1.30615 0
M  V30 7012 H 687.799 3.6749 -1.72354 0
M  V30 7013 H 688.565 2.71948 -4.01584 0
M  V30 7014 H 684.444 3.46417 -3.04165 0
M  V30 7015 H 687.988 2.73746 -6.41645 0
M  V30 7016 H 683.885 3.48469 -5.43359 0
M  V30 7017 H 684.653 3.27951 -7.49927 0
M  V30 7018 N 687.317 1.12792 1.10072 0
M  V30 7019 C 688.545 0.908506 1.85886 0
M  V30 7020 C 688.96 -0.542408 1.80841 0
M  V30 7021 O 688.317 -1.37517 1.1998 0
M  V30 7022 C 688.368 1.37973 3.34134 0
M  V30 7023 O 688.089 2.77378 3.39106 0
M  V30 7024 C 689.59 1.1978 4.26811 0
M  V30 7025 H 686.81 0.3244 0.587372 0
M  V30 7026 H 689.354 1.49882 1.39125 0
M  V30 7027 H 687.509 0.832566 3.78348 0
M  V30 7028 H 687.923 2.98144 4.31521 0
M  V30 7029 H 689.397 1.57635 5.29014 0
M  V30 7030 H 689.874 0.138768 4.38981 0
M  V30 7031 H 690.48 1.73266 3.88406 0
M  V30 7032 N 688.795 -1.27931 0.920396 0
M  V30 7033 C 690.041 -1.94977 0.557832 0
M  V30 7034 C 690.374 -1.72224 -0.897365 0
M  V30 7035 O 689.649 -1.04705 -1.63912 0
M  V30 7036 C 689.932 -3.49289 0.875741 0
M  V30 7037 C 689.785 -3.81416 2.38416 0
M  V30 7038 C 691.104 -4.38486 0.376517 0
M  V30 7039 H 688.223 -0.708164 0.20414 0
M  V30 7040 H 690.865 -1.5118 1.15085 0
M  V30 7041 H 689.015 -3.86724 0.371062 0
M  V30 7042 H 690.687 -3.53813 2.95997 0
M  V30 7043 H 688.93 -3.28225 2.83639 0
M  V30 7044 H 689.601 -4.89198 2.55713 0
M  V30 7045 H 692.077 -4.08161 0.808945 0
M  V30 7046 H 690.953 -5.45296 0.627976 0
M  V30 7047 H 691.214 -4.36143 -0.723293 0
M  V30 7048 N 690.273 -0.685099 -1.4193 0
M  V30 7049 C 691.183 -0.013404 -2.34596 0
M  V30 7050 C 692.199 0.777589 -1.55658 0
M  V30 7051 O 693.375 0.717553 -1.88184 0
M  V30 7052 C 690.44 0.919031 -3.34297 0
M  V30 7053 C 689.501 0.121417 -4.29128 0
M  V30 7054 C 688.734 1.00944 -5.24067 0
M  V30 7055 O 688.957 2.24898 -5.24192 0
M  V30 7056 O 687.891 0.464724 -6.00103 0
M  V30 7057 H 691.717 -0.776978 -2.93593 0
M  V30 7058 H 689.302 -0.445379 -1.42607 0
M  V30 7059 H 691.184 1.45402 -3.9552 0
M  V30 7060 H 689.859 1.66228 -2.77759 0
M  V30 7061 H 688.766 -0.45792 -3.71287 0
M  V30 7062 H 690.099 -0.582937 -4.88736 0
M  V30 7063 N 691.751 1.51645 -0.429126 0
M  V30 7064 C 693.167 1.59394 -0.080994 0
M  V30 7065 C 693.367 1.44064 1.40882 0
M  V30 7066 O 692.423 1.27771 2.17786 0
M  V30 7067 C 693.736 2.94779 -0.593773 0
M  V30 7068 C 695.284 3.08067 -0.553494 0
M  V30 7069 C 695.759 4.45963 -1.04311 0
M  V30 7070 N 697.25 4.5226 -1.00076 0
M  V30 7071 C 697.985 5.57268 -1.35056 0
M  V30 7072 N 697.481 6.69734 -1.77282 0
M  V30 7073 N 699.274 5.47582 -1.26925 0
M  V30 7074 H 691.425 1.59856 -1.39857 0
M  V30 7075 H 693.688 0.753095 -0.575805 0
M  V30 7076 H 693.394 3.11342 -1.63583 0
M  V30 7077 H 693.268 3.77197 -0.0142202 0
M  V30 7078 H 695.655 2.91177 0.479556 0
M  V30 7079 H 695.736 2.27508 -1.16935 0
M  V30 7080 H 695.38 4.63598 -2.07459 0
M  V30 7081 H 695.31 5.25049 -0.403873 0
M  V30 7082 H 697.801 3.71537 -0.690564 0
M  V30 7083 H 698.114 7.4587 -2.02232 0
M  V30 7084 H 696.459 6.70963 -1.81202 0
M  V30 7085 H 699.65 4.58604 -0.93809 0
M  V30 7086 H 699.823 6.29308 -1.54516 0
M  V30 7087 N 693.229 0.160201 1.56784 0
M  V30 7088 C 694.192 -0.760405 2.16219 0
M  V30 7089 C 695.192 -1.16595 1.10735 0
M  V30 7090 O 696.382 -1.08472 1.36306 0
M  V30 7091 C 693.514 -2.03358 2.73603 0
M  V30 7092 H 694.707 -0.243173 2.98912 0
M  V30 7093 H 692.26 -0.0893139 1.56045 0
M  V30 7094 H 692.995 -2.59416 1.94612 0
M  V30 7095 H 692.78 -1.75186 3.50788 0
M  V30 7096 H 694.27 -2.69081 3.19351 0
M  V30 7097 N 694.707 -1.5719 -0.113559 0
M  V30 7098 C 695.956 -1.84325 -0.818984 0
M  V30 7099 C 696.269 -0.746685 -1.80787 0
M  V30 7100 O 697.475 -0.904596 -2.55987 0
M  V30 7101 C 695.931 -3.26818 -1.50724 0
M  V30 7102 C 695.539 -4.44498 -0.559065 0
M  V30 7103 C 697.283 -3.63196 -2.19748 0
M  V30 7104 C 695.19 -5.7802 -1.25086 0
M  V30 7105 H 694.12 -0.687507 -0.309596 0
M  V30 7106 H 696.771 -1.8336 -0.0717621 0
M  V30 7107 H 695.153 -3.22269 -2.30128 0
M  V30 7108 H 696.327 -4.60356 0.202146 0
M  V30 7109 H 694.642 -4.16393 0.024495 0
M  V30 7110 H 697.239 -4.60226 -2.72206 0
M  V30 7111 H 697.582 -2.90899 -2.97798 0
M  V30 7112 H 698.115 -3.69553 -1.47226 0
M  V30 7113 H 694.854 -6.53501 -0.511539 0
M  V30 7114 H 694.374 -5.66038 -1.98395 0
M  V30 7115 H 696.053 -6.2196 -1.78253 0
M  V30 7116 N 696.185 0.383891 -1.52853 0
M  V30 7117 C 697.135 1.46892 -1.74375 0
M  V30 7118 C 698.119 1.49378 -0.597909 0
M  V30 7119 O 699.311 1.54929 -0.855929 0
M  V30 7120 C 696.44 2.84547 -1.92063 0
M  V30 7121 C 695.526 2.8661 -3.12594 0
M  V30 7122 N 695.917 2.58339 -4.3485 0
M  V30 7123 C 694.215 3.17777 -3.12944 0
M  V30 7124 C 694.916 2.67616 -5.16485 0
M  V30 7125 N 693.892 3.01561 -4.52285 0
M  V30 7126 H 697.694 1.23869 -2.66522 0
M  V30 7127 H 695.208 0.591895 -1.51229 0
M  V30 7128 H 697.205 3.62674 -2.05604 0
M  V30 7129 H 695.865 3.08549 -1.01133 0
M  V30 7130 H 696.876 2.32266 -4.62896 0
M  V30 7131 H 693.553 3.47211 -2.31842 0
M  V30 7132 H 694.943 2.4926 -6.23955 0
M  V30 7133 N 697.663 1.43903 0.642637 0
M  V30 7134 C 698.911 1.45791 1.39962 0
M  V30 7135 C 699.232 0.0873144 1.94804 0
M  V30 7136 O 698.502 -0.878825 1.75081 0
M  V30 7137 H 697.082 0.536797 0.519479 0
M  V30 7138 H 699.744 1.7959 0.757189 0
M  V30 7139 H 698.84 2.17665 2.2367 0
M  V30 7140 N 699.141 -0.881989 1.30609 0
M  V30 7141 C 700.104 -1.96957 1.1722 0
M  V30 7142 C 701.104 -1.60472 0.102598 0
M  V30 7143 O 702.294 -1.70628 0.350943 0
M  V30 7144 C 699.426 -3.31463 0.796572 0
M  V30 7145 H 700.619 -2.10262 2.13846 0
M  V30 7146 H 698.172 -1.06877 1.14048 0
M  V30 7147 H 698.907 -3.23859 -0.169053 0
M  V30 7148 H 698.692 -3.59314 1.56959 0
M  V30 7149 H 700.182 -4.11233 0.72645 0
M  V30 7150 N 700.619 -1.13374 -1.09472 0
M  V30 7151 C 701.529 -0.824029 -2.19652 0
M  V30 7152 C 702.545 0.19118 -1.72947 0
M  V30 7153 O 703.721 0.0223464 -2.01388 0
M  V30 7154 C 700.786 -0.294009 -3.45451 0
M  V30 7155 C 699.847 -1.3704 -4.0684 0
M  V30 7156 C 699.08 -0.86558 -5.26634 0
M  V30 7157 O 699.303 0.29702 -5.69626 0
M  V30 7158 O 698.237 -1.63968 -5.79136 0
M  V30 7159 H 702.063 -1.74454 -2.48595 0
M  V30 7160 H 699.648 -0.911155 -1.18399 0
M  V30 7161 H 701.53 -0.00381039 -4.214 0
M  V30 7162 H 700.205 0.598921 -3.18111 0
M  V30 7163 H 699.112 -1.71391 -3.3253 0
M  V30 7164 H 700.445 -2.23746 -4.38405 0
M  V30 7165 N 702.098 1.27442 -0.927168 0
M  V30 7166 C 703.03 2.25975 -0.383158 0
M  V30 7167 C 704.043 1.55382 0.485832 0
M  V30 7168 O 705.232 1.75986 0.298541 0
M  V30 7169 C 702.332 3.35629 0.469688 0
M  V30 7170 C 701.505 4.35747 -0.379886 0
M  V30 7171 C 700.564 5.24598 0.410227 0
M  V30 7172 O 699.59 5.68909 -0.181888 0
M  V30 7173 N 700.792 5.54737 1.71017 0
M  V30 7174 H 703.557 2.7329 -1.23015 0
M  V30 7175 H 701.118 1.41063 -0.794539 0
M  V30 7176 H 703.11 3.92015 1.00532 0
M  V30 7177 H 701.68 2.87919 1.21744 0
M  V30 7178 H 700.9 3.78634 -1.09682 0
M  V30 7179 H 702.188 4.99648 -0.960717 0
M  V30 7180 H 701.586 5.20594 2.21356 0
M  V30 7181 H 700.143 6.13824 2.19234 0
M  V30 7182 N 703.576 0.692616 1.41565 0
M  V30 7183 C 704.992 0.363878 1.55397 0
M  V30 7184 C 705.192 -1.1294 1.66874 0
M  V30 7185 O 704.248 -1.91517 1.64552 0
M  V30 7186 C 705.561 1.10982 2.7947 0
M  V30 7187 C 707.109 1.09387 2.93263 0
M  V30 7188 C 707.584 1.8215 4.20221 0
M  V30 7189 N 709.075 1.79105 4.27172 0
M  V30 7190 C 709.81 2.32247 5.2426 0
M  V30 7191 N 709.306 2.93847 6.27396 0
M  V30 7192 N 711.099 2.22519 5.1618 0
M  V30 7193 H 703.25 1.66116 1.3236 0
M  V30 7194 H 705.513 0.700848 0.63837 0
M  V30 7195 H 705.219 2.1647 2.77188 0
M  V30 7196 H 705.093 0.686492 3.709 0
M  V30 7197 H 707.48 0.0472638 2.95062 0
M  V30 7198 H 707.561 1.55623 2.03015 0
M  V30 7199 H 707.205 2.86789 4.19183 0
M  V30 7200 H 707.135 1.33351 5.09436 0
M  V30 7201 H 709.626 1.34191 3.53272 0
M  V30 7202 H 709.939 3.31972 6.97864 0
M  V30 7203 H 708.284 2.97924 6.27906 0
M  V30 7204 H 711.475 1.7407 4.34531 0
M  V30 7205 H 711.648 2.64239 5.91677 0
M  V30 7206 N 705.054 -1.51416 0.437162 0
M  V30 7207 C 706.284 -2.06204 -0.127859 0
M  V30 7208 C 706.692 -1.30463 -1.37026 0
M  V30 7209 O 706.035 -0.357516 -1.80187 0
M  V30 7210 C 706.097 -3.55783 -0.515632 0
M  V30 7211 C 705.761 -4.52776 0.619937 0
M  V30 7212 C 706.758 -4.98031 1.49201 0
M  V30 7213 C 704.443 -4.95878 0.800618 0
M  V30 7214 C 706.437 -5.85061 2.52947 0
M  V30 7215 C 704.124 -5.82699 1.84135 0
M  V30 7216 C 705.122 -6.27188 2.70416 0
M  V30 7217 O 704.81 -7.12284 3.72702 0
M  V30 7218 H 704.542 -0.675903 -0.011442 0
M  V30 7219 H 707.096 -1.95977 0.614986 0
M  V30 7220 H 705.326 -3.63793 -1.31118 0
M  V30 7221 H 707.015 -3.93087 -1.01179 0
M  V30 7222 H 707.781 -4.65426 1.36395 0
M  V30 7223 H 703.66 -4.60792 0.138617 0
M  V30 7224 H 707.204 -6.19708 3.20325 0
M  V30 7225 H 703.101 -6.14717 1.9696 0
M  V30 7226 H 703.869 -7.30462 3.69281 0
M  V30 7227 N 706.532 -0.168513 -1.56696 0
M  V30 7228 C 707.48 0.779791 -2.19139 0
M  V30 7229 C 708.474 1.23957 -1.1546 0
M  V30 7230 O 709.68 1.20555 -1.33666 0
M  V30 7231 H 706.055 0.269739 -0.701958 0
M  V30 7232 H 708.026 0.229156 -2.97519 0
M  V30 7233 C 706.775 2.00003 -2.84419 0
M  V30 7234 H 706.098 1.65527 -3.63924 0
M  V30 7235 H 707.538 2.64251 -3.31583 0
M  V30 7236 C 705.997 2.82187 -1.84044 0
M  V30 7237 O 706.527 3.79247 -1.32418 0
M  V30 7238 N 704.733 2.47145 -1.52864 0
M  V30 7239 H 704.28 1.68277 -1.9504 0
M  V30 7240 H 704.238 3.02422 -0.859569 0
M  V30 7241 N 708.01 1.57248 0.105221 0
M  V30 7242 C 709.287 1.76566 0.841647 0
M  V30 7243 C 709.667 0.747566 1.9742 0
M  V30 7244 O 709.015 -0.225886 2.27381 0
M  V30 7245 C 709.225 3.22016 1.3456 0
M  V30 7246 C 710.573 3.84911 1.79244 0
M  V30 7247 O 711.597 3.25703 1.44207 0
M  V30 7248 O 710.456 4.89008 2.43995 0
M  V30 7249 H 707.55 0.723443 0.400698 0
M  V30 7250 H 710.096 1.69472 0.0878893 0
M  V30 7251 H 708.868 3.87644 0.533685 0
M  V30 7252 H 708.491 3.33703 2.16167 0
M  V30 7253 N 709.488 -0.375779 1.53054 0
M  V30 7254 C 710.737 -1.11674 1.67964 0
M  V30 7255 C 711.05 -1.90755 0.432655 0
M  V30 7256 O 712.256 -2.67538 0.462109 0
M  V30 7257 C 710.712 -2.0344 2.96884 0
M  V30 7258 C 710.32 -1.29719 4.28809 0
M  V30 7259 C 712.064 -2.7759 3.2116 0
M  V30 7260 C 709.971 -2.20327 5.48826 0
M  V30 7261 H 708.901 -0.420597 0.625791 0
M  V30 7262 H 711.552 -0.378499 1.79554 0
M  V30 7263 H 709.934 -2.80953 2.79072 0
M  V30 7264 H 711.108 -0.573394 4.57219 0
M  V30 7265 H 709.423 -0.674735 4.10897 0
M  V30 7266 H 712.02 -3.4559 4.0801 0
M  V30 7267 H 712.363 -3.42399 2.36789 0
M  V30 7268 H 712.896 -2.07164 3.396 0
M  V30 7269 H 709.635 -1.60113 6.35645 0
M  V30 7270 H 709.155 -2.90585 5.2471 0
M  V30 7271 H 710.834 -2.80116 5.83219 0
M  V30 7272 N 710.966 -1.44241 -0.634997 0
M  V30 7273 C 711.929 -1.50457 -1.72903 0
M  V30 7274 C 712.929 -0.387058 -1.56072 0
M  V30 7275 O 714.119 -0.649531 -1.61638 0
M  V30 7276 C 711.251 -1.37477 -3.1195 0
M  V30 7277 H 712.444 -2.47907 -1.68767 0
M  V30 7278 H 709.997 -1.31276 -0.84831 0
M  V30 7279 H 710.732 -0.41106 -3.21684 0
M  V30 7280 H 710.517 -2.18506 -3.25573 0
M  V30 7281 H 712.007 -1.44799 -3.91692 0
M  V30 7282 N 712.444 0.87505 -1.31075 0
M  V30 7283 C 713.374 1.99775 -1.20881 0
M  V30 7284 C 714.355 1.69822 -0.0971612 0
M  V30 7285 O 715.54 1.92158 -0.280895 0
M  V30 7286 C 712.67 3.35163 -0.910118 0
M  V30 7287 C 711.624 3.79406 -1.98078 0
M  V30 7288 C 710.95 5.12197 -1.53488 0
M  V30 7289 C 712.25 3.97061 -3.39323 0
M  V30 7290 H 713.944 2.08562 -2.14808 0
M  V30 7291 H 711.49 1.00207 -1.03415 0
M  V30 7292 H 713.443 4.13237 -0.825423 0
M  V30 7293 H 712.167 3.26536 0.064822 0
M  V30 7294 H 710.826 3.03568 -2.05528 0
M  V30 7295 H 710.474 5.00007 -0.547941 0
M  V30 7296 H 710.174 5.4277 -2.2511 0
M  V30 7297 H 711.698 5.92785 -1.46417 0
M  V30 7298 H 713.112 4.65545 -3.34576 0
M  V30 7299 H 711.509 4.39025 -4.09118 0
M  V30 7300 H 712.579 3.00601 -3.80483 0
M  V30 7301 N 713.922 1.13953 1.08869 0
M  V30 7302 C 715.168 0.916103 1.81602 0
M  V30 7303 C 715.523 -0.551633 1.84322 0
M  V30 7304 O 714.816 -1.40322 1.30462 0
M  V30 7305 C 715.01 1.44495 3.26888 0
M  V30 7306 C 714.839 2.96257 3.38322 0
M  V30 7307 C 713.609 3.64658 3.49789 0
M  V30 7308 C 715.807 3.94156 3.30372 0
M  V30 7309 N 713.789 5.04379 3.49965 0
M  V30 7310 C 715.16 5.20101 3.37484 0
M  V30 7311 C 717.215 3.86342 3.14077 0
M  V30 7312 C 715.918 6.39145 3.29979 0
M  V30 7313 C 717.944 5.04927 3.07901 0
M  V30 7314 C 717.306 6.29738 3.1561 0
M  V30 7315 H 713.405 0.388701 0.678554 0
M  V30 7316 H 715.989 1.44879 1.3007 0
M  V30 7317 H 714.16 0.939102 3.76876 0
M  V30 7318 H 715.892 1.16193 3.87661 0
M  V30 7319 H 712.647 3.15196 3.5348 0
M  V30 7320 H 713.071 5.77305 3.53622 0
M  V30 7321 H 717.713 2.90726 3.06982 0
M  V30 7322 H 715.431 7.3501 3.35836 0
M  V30 7323 H 719.017 5.00626 2.9642 0
M  V30 7324 H 717.897 7.19958 3.10854 0
M  V30 7325 N 715.4 -1.26948 0.933913 0
M  V30 7326 C 716.348 -2.2862 0.428463 0
M  V30 7327 C 717.342 -1.62144 -0.490464 0
M  V30 7328 O 718.548 -1.76167 -0.36948 0
M  V30 7329 H 714.923 -0.742363 0.120003 0
M  V30 7330 H 716.894 -2.68659 1.29865 0
M  V30 7331 C 715.643 -3.46423 -0.29774 0
M  V30 7332 H 714.966 -3.97792 0.400183 0
M  V30 7333 H 716.406 -4.19505 -0.615736 0
M  V30 7334 C 714.865 -3.01017 -1.51295 0
M  V30 7335 O 715.395 -3.05226 -2.61151 0
M  V30 7336 N 713.601 -2.56442 -1.36696 0
M  V30 7337 H 713.148 -2.53217 -0.473178 0
M  V30 7338 H 713.106 -2.26424 -2.18127 0
M  V30 7339 N 716.879 -0.700114 -1.41195 0
M  V30 7340 C 718.125 -0.242122 -2.01954 0
M  V30 7341 C 718.48 1.14697 -1.54475 0
M  V30 7342 O 717.773 1.76392 -0.748095 0
M  V30 7343 C 717.967 -0.243986 -3.56566 0
M  V30 7344 C 717.796 -1.63172 -4.19053 0
M  V30 7345 C 716.566 -2.23566 -4.53152 0
M  V30 7346 C 718.764 -2.57916 -4.44954 0
M  V30 7347 N 716.746 -3.54856 -5.00949 0
M  V30 7348 C 718.117 -3.73892 -4.94576 0
M  V30 7349 C 720.172 -2.56125 -4.26971 0
M  V30 7350 C 718.875 -4.88363 -5.28104 0
M  V30 7351 C 720.901 -3.69712 -4.61592 0
M  V30 7352 C 720.263 -4.84418 -5.11389 0
M  V30 7353 H 716.362 -0.134088 -0.770418 0
M  V30 7354 H 718.946 -0.918576 -1.71669 0
M  V30 7355 H 717.117 0.401971 -3.86314 0
M  V30 7356 H 718.849 0.229261 -4.0405 0
M  V30 7357 H 715.604 -1.75809 -4.39759 0
M  V30 7358 H 716.028 -4.22167 -5.29249 0
M  V30 7359 H 720.67 -1.68656 -3.87705 0
M  V30 7360 H 718.388 -5.76488 -5.66292 0
M  V30 7361 H 721.974 -3.69583 -4.49332 0
M  V30 7362 H 720.854 -5.70855 -5.37675 0
M  V30 7363 N 718.357 1.51182 -0.445186 0
M  V30 7364 C 719.585 2.06568 0.117091 0
M  V30 7365 C 720 1.31182 1.35781 0
M  V30 7366 O 719.357 0.373605 1.78635 0
M  V30 7367 C 719.408 3.58917 0.431408 0
M  V30 7368 O 719.129 4.31456 -0.760078 0
M  V30 7369 C 720.63 4.30843 1.0435 0
M  V30 7370 H 717.85 0.670985 0.00444436 0
M  V30 7371 H 720.394 1.94666 -0.626525 0
M  V30 7372 H 718.549 3.70708 1.12493 0
M  V30 7373 H 718.963 5.22215 -0.489048 0
M  V30 7374 H 720.437 5.38499 1.21337 0
M  V30 7375 H 720.914 3.89644 2.02667 0
M  V30 7376 H 721.52 4.23516 0.38913 0
M  V30 7377 N 719.835 0.176821 1.56605 0
M  V30 7378 C 720.785 -0.763718 2.14829 0
M  V30 7379 C 721.769 -1.18903 1.08401 0
M  V30 7380 O 722.961 -1.15048 1.3451 0
M  V30 7381 C 720.09 -1.99069 2.7969 0
M  V30 7382 C 719.176 -1.58711 3.93283 0
M  V30 7383 N 719.567 -0.893423 4.97847 0
M  V30 7384 C 717.865 -1.87774 4.04545 0
M  V30 7385 C 718.566 -0.693866 5.77547 0
M  V30 7386 N 717.542 -1.23699 5.29339 0
M  V30 7387 H 721.344 -0.224811 2.93039 0
M  V30 7388 H 718.858 -0.0236563 1.62383 0
M  V30 7389 H 720.855 -2.67478 3.19783 0
M  V30 7390 H 719.515 -2.53449 2.02962 0
M  V30 7391 H 720.526 -0.550868 5.14962 0
M  V30 7392 H 717.203 -2.43793 3.38927 0
M  V30 7393 H 718.593 -0.144899 6.71744 0
M  V30 7394 N 721.313 -1.57302 -0.09688 0
M  V30 7395 C 722.562 -1.85183 -0.799388 0
M  V30 7396 C 722.875 -0.765818 -1.79985 0
M  V30 7397 O 724.081 -0.931696 -2.55013 0
M  V30 7398 C 722.537 -3.28399 -1.47249 0
M  V30 7399 C 722.145 -4.45066 -0.511888 0
M  V30 7400 C 723.889 -3.65506 -2.15883 0
M  V30 7401 C 721.796 -5.79315 -1.18948 0
M  V30 7402 H 720.726 -0.690752 -0.302287 0
M  V30 7403 H 723.377 -1.83425 -0.0523104 0
M  V30 7404 H 721.759 -3.24692 -2.26697 0
M  V30 7405 H 722.933 -4.60116 0.250962 0
M  V30 7406 H 721.248 -4.16343 0.0686576 0
M  V30 7407 H 723.845 -4.63087 -2.67309 0
M  V30 7408 H 724.188 -2.94041 -2.94696 0
M  V30 7409 H 724.721 -3.71094 -1.43298 0
M  V30 7410 H 721.46 -6.54007 -0.442198 0
M  V30 7411 H 720.98 -5.68111 -1.9238 0
M  V30 7412 H 722.659 -6.23816 -1.71646 0
M  V30 7413 N 722.791 0.367657 -1.53252 0
M  V30 7414 C 724.202 0.944563 -1.61043 0
M  V30 7415 C 724.553 1.90325 -0.476546 0
M  V30 7416 O 723.678 2.12721 0.397333 0
M  V30 7417 C 724.273 1.71992 -2.91898 0
M  V30 7418 C 722.832 2.2462 -3.02031 0
M  V30 7419 C 721.979 1.05799 -2.56324 0
M  V30 7420 H 724.93 0.146516 -1.58022 0
M  V30 7421 H 724.951 2.58095 -2.79584 0
M  V30 7422 H 724.463 1.02192 -3.74404 0
M  V30 7423 H 722.564 2.97668 -2.24108 0
M  V30 7424 H 722.677 2.52644 -4.07073 0
M  V30 7425 H 721.041 1.42435 -2.1115 0
M  V30 7426 H 721.824 0.375008 -3.41246 0
M  V30 7427 N 724.269 1.44576 0.627338 0
M  V30 7428 C 725.201 1.47724 1.75243 0
M  V30 7429 C 726.214 0.370193 1.58535 0
M  V30 7430 O 727.403 0.636151 1.66779 0
M  V30 7431 C 724.503 1.2991 3.13012 0
M  V30 7432 C 723.676 2.5393 3.56143 0
M  V30 7433 C 722.735 2.30961 4.72804 0
M  V30 7434 O 721.761 3.04469 4.80923 0
M  V30 7435 N 722.963 1.34261 5.6476 0
M  V30 7436 H 725.728 2.44718 1.73012 0
M  V30 7437 H 723.289 1.40064 0.812022 0
M  V30 7438 H 725.281 1.12385 3.88782 0
M  V30 7439 H 723.851 0.412668 3.09864 0
M  V30 7440 H 723.071 2.86707 2.70542 0
M  V30 7441 H 724.359 3.36411 3.81713 0
M  V30 7442 H 723.757 0.735573 5.60897 0
M  V30 7443 H 722.314 1.22713 6.40144 0
M  V30 7444 N 725.747 -0.868086 1.31537 0
M  V30 7445 C 726.71 -1.95703 1.19302 0
M  V30 7446 C 727.71 -1.60355 0.119612 0
M  V30 7447 O 728.9 -1.70247 0.36902 0
M  V30 7448 C 726.032 -3.30599 0.831684 0
M  V30 7449 H 727.225 -2.07982 2.16064 0
M  V30 7450 H 724.778 -1.05661 1.15176 0
M  V30 7451 H 725.513 -3.2402 -0.134694 0
M  V30 7452 H 725.298 -3.57629 1.60761 0
M  V30 7453 H 726.788 -4.10439 0.770026 0
M  V30 7454 N 727.225 -1.14528 -1.08264 0
M  V30 7455 C 728.155 -0.856356 -2.1723 0
M  V30 7456 C 729.136 0.189251 -1.69044 0
M  V30 7457 O 730.321 0.0456119 -1.94146 0
M  V30 7458 C 727.451 -0.334662 -3.45684 0
M  V30 7459 C 726.405 -1.31588 -4.0727 0
M  V30 7460 C 725.731 -0.653428 -5.30692 0
M  V30 7461 C 727.031 -2.67866 -4.48381 0
M  V30 7462 H 728.725 -1.76755 -2.41657 0
M  V30 7463 H 726.271 -0.851287 -1.16143 0
M  V30 7464 H 728.224 -0.120128 -4.21229 0
M  V30 7465 H 726.948 0.611967 -3.20815 0
M  V30 7466 H 725.607 -1.51661 -3.33758 0
M  V30 7467 H 725.255 0.299054 -5.0211 0
M  V30 7468 H 724.955 -1.30817 -5.72853 0
M  V30 7469 H 726.479 -0.448453 -6.08951 0
M  V30 7470 H 727.893 -2.51692 -5.15096 0
M  V30 7471 H 726.29 -3.29627 -5.01464 0
M  V30 7472 H 727.36 -3.24632 -3.60198 0
M  V30 7473 N 728.703 1.26451 -0.940633 0
M  V30 7474 C 729.928 1.98407 -0.60412 0
M  V30 7475 C 730.353 1.69584 0.81382 0
M  V30 7476 O 729.711 0.943553 1.54812 0
M  V30 7477 C 729.759 3.50387 -0.852136 0
M  V30 7478 O 728.863 4.1233 0.076013 0
M  V30 7479 H 728.204 0.622466 -0.231153 0
M  V30 7480 H 730.734 1.60932 -1.26342 0
M  V30 7481 H 730.744 4.00614 -0.772816 0
M  V30 7482 H 729.419 3.70696 -1.88566 0
M  V30 7483 H 727.996 3.7286 -0.0543187 0
M  V30 7484 N 730.181 0.707592 1.40822 0
M  V30 7485 C 731.111 0.0644925 2.33411 0
M  V30 7486 C 732.092 -0.754205 1.52466 0
M  V30 7487 O 733.277 -0.704749 1.80961 0
M  V30 7488 C 730.407 -0.863865 3.36385 0
M  V30 7489 C 729.361 -0.15138 4.27732 0
M  V30 7490 C 728.687 -1.19491 5.21177 0
M  V30 7491 C 729.987 0.989607 5.12839 0
M  V30 7492 H 731.681 0.837829 2.87438 0
M  V30 7493 H 729.227 0.404346 1.38207 0
M  V30 7494 H 731.18 -1.32309 4.0009 0
M  V30 7495 H 729.904 -1.66901 2.80734 0
M  V30 7496 H 728.563 0.287937 3.65467 0
M  V30 7497 H 728.211 -1.9929 4.61836 0
M  V30 7498 H 727.911 -0.723123 5.83134 0
M  V30 7499 H 729.435 -1.6544 5.8776 0
M  V30 7500 H 730.849 0.610114 5.70044 0
M  V30 7501 H 729.246 1.38926 5.83798 0
M  V30 7502 H 730.316 1.82389 4.49291 0
M  V30 7503 N 731.66 -1.50943 0.453197 0
M  V30 7504 C 732.937 -1.94872 -0.168633 0
M  V30 7505 C 733.317 -1.39272 -1.5864 0
M  V30 7506 O 732.665 -0.586272 -2.20851 0
M  V30 7507 C 732.875 -3.48757 -0.130217 0
M  V30 7508 C 734.223 -4.23331 -0.327975 0
M  V30 7509 O 735.247 -3.55594 -0.207619 0
M  V30 7510 O 734.106 -5.43529 -0.569077 0
M  V30 7511 H 731.2 -0.818042 -0.121394 0
M  V30 7512 H 733.746 -1.61782 0.512316 0
M  V30 7513 H 732.518 -3.81725 0.860346 0
M  V30 7514 H 732.141 -3.88333 -0.853397 0
M  V30 7515 N 733.138 -0.185124 -1.56509 0
M  V30 7516 C 734.549 0.329221 -1.83774 0
M  V30 7517 C 734.9 1.62093 -1.10545 0
M  V30 7518 O 734.025 2.13334 -0.36298 0
M  V30 7519 C 734.62 0.604099 -3.33371 0
M  V30 7520 C 733.179 1.06284 -3.61083 0
M  V30 7521 C 732.326 0.10608 -2.77097 0
M  V30 7522 H 735.277 -0.409116 -1.53336 0
M  V30 7523 H 735.298 1.45458 -3.51599 0
M  V30 7524 H 734.81 -0.336201 -3.86641 0
M  V30 7525 H 732.911 2.01777 -3.13236 0
M  V30 7526 H 733.024 0.962453 -4.69333 0
M  V30 7527 H 731.388 0.606082 -2.47384 0
M  V30 7528 H 732.171 -0.828486 -3.33153 0
M  V30 7529 N 734.616 1.57351 0.0885366 0
M  V30 7530 C 735.548 1.99221 1.13329 0
M  V30 7531 C 736.561 0.895705 1.35945 0
M  V30 7532 O 737.75 1.17376 1.34481 0
M  V30 7533 C 734.85 2.3016 2.48756 0
M  V30 7534 C 734.023 3.61444 2.46327 0
M  V30 7535 C 733.082 3.80244 3.63732 0
M  V30 7536 O 732.108 4.52024 3.45924 0
M  V30 7537 N 733.31 3.2132 4.8346 0
M  V30 7538 H 736.075 2.89456 0.776862 0
M  V30 7539 H 733.636 1.59505 0.277428 0
M  V30 7540 H 735.628 2.39925 3.25911 0
M  V30 7541 H 734.198 1.459 2.76464 0
M  V30 7542 H 733.418 3.62588 1.54673 0
M  V30 7543 H 734.706 4.47678 2.41789 0
M  V30 7544 H 734.104 2.63028 5.00832 0
M  V30 7545 H 732.661 3.3656 5.58185 0
M  V30 7546 N 736.094 -0.359525 1.53444 0
M  V30 7547 C 737.319 -1.12644 1.74144 0
M  V30 7548 C 737.744 -1.82082 0.472007 0
M  V30 7549 O 737.102 -1.71962 -0.57436 0
M  V30 7550 C 737.15 -2.12781 2.9113 0
M  V30 7551 O 736.254 -3.19984 2.60162 0
M  V30 7552 H 735.595 -0.326553 0.578152 0
M  V30 7553 H 738.125 -0.414798 2.00351 0
M  V30 7554 H 738.135 -2.56278 3.17467 0
M  V30 7555 H 736.81 -1.61634 3.83207 0
M  V30 7556 H 735.387 -2.81417 2.44661 0
M  V30 7557 N 737.572 -1.44907 -0.619662 0
M  V30 7558 C 738.482 -1.55168 -1.75955 0
M  V30 7559 C 739.498 -0.43672 -1.6843 0
M  V30 7560 O 740.674 -0.695704 -1.89002 0
M  V30 7561 C 737.739 -1.50397 -3.12381 0
M  V30 7562 C 736.8 -2.72835 -3.31451 0
M  V30 7563 C 736.033 -2.68283 -4.61368 0
M  V30 7564 O 736.256 -1.74929 -5.42914 0
M  V30 7565 O 735.19 -3.59308 -4.82889 0
M  V30 7566 H 739.016 -2.51493 -1.7025 0
M  V30 7567 H 736.601 -1.27282 -0.782289 0
M  V30 7568 H 738.483 -1.50301 -3.93685 0
M  V30 7569 H 737.158 -0.572197 -3.18603 0
M  V30 7570 H 736.065 -2.78496 -2.49781 0
M  V30 7571 H 737.398 -3.65098 -3.30098 0
M  V30 7572 N 739.05 0.861098 -1.31996 0
M  V30 7573 C 740.29 1.62873 -1.23498 0
M  V30 7574 C 740.654 1.90938 0.201692 0
M  V30 7575 O 741.855 2.6565 0.410305 0
M  V30 7576 C 740.126 2.91759 -2.06426 0
M  V30 7577 S 741.685 3.82583 -2.14885 0
M  V30 7578 H 738.503 0.558726 -0.439712 0
M  V30 7579 H 741.105 1.02025 -1.66767 0
M  V30 7580 H 739.809 2.69077 -3.0988 0
M  V30 7581 H 739.34 3.57627 -1.6391 0
M  V30 7582 H 741.355 4.7904 -1.29364 0
M  V30 7583 N 740.528 1.15101 1.07655 0
M  V30 7584 C 741.774 0.935313 1.8062 0
M  V30 7585 C 742.129 -0.532052 1.84897 0
M  V30 7586 O 741.422 -1.3893 1.31943 0
M  V30 7587 C 741.616 1.47954 3.25337 0
M  V30 7588 C 741.445 2.99829 3.35161 0
M  V30 7589 C 740.215 3.68348 3.45902 0
M  V30 7590 C 742.413 3.97638 3.26173 0
M  V30 7591 N 740.395 5.08062 3.44596 0
M  V30 7592 C 741.766 5.23651 3.31949 0
M  V30 7593 C 743.821 3.89651 3.09962 0
M  V30 7594 C 742.524 6.42609 3.23182 0
M  V30 7595 C 744.55 5.08164 3.02528 0
M  V30 7596 C 743.912 6.3305 3.08913 0
M  V30 7597 H 740.011 0.395876 0.674393 0
M  V30 7598 H 742.595 1.4625 1.28526 0
M  V30 7599 H 740.766 0.979022 3.75859 0
M  V30 7600 H 742.498 1.20298 3.86407 0
M  V30 7601 H 739.253 3.18928 3.50117 0
M  V30 7602 H 739.677 5.81023 3.47479 0
M  V30 7603 H 744.319 2.93966 3.03881 0
M  V30 7604 H 742.037 7.38531 3.28022 0
M  V30 7605 H 745.623 5.03742 2.91093 0
M  V30 7606 H 744.503 7.23214 3.03201 0
M  V30 7607 N 742.006 -1.2595 0.947325 0
M  V30 7608 C 743.422 -1.45737 0.650597 0
M  V30 7609 C 743.622 -1.85189 -0.794188 0
M  V30 7610 O 742.678 -1.97738 -1.57022 0
M  V30 7611 C 743.991 -2.53505 1.61728 0
M  V30 7612 C 745.539 -2.67351 1.62765 0
M  V30 7613 C 746.014 -3.78296 2.58179 0
M  V30 7614 N 747.505 -3.85696 2.56501 0
M  V30 7615 C 748.24 -4.71012 3.2701 0
M  V30 7616 N 747.736 -5.60669 4.06966 0
M  V30 7617 N 749.529 -4.64912 3.15932 0
M  V30 7618 H 741.68 -0.986327 1.8811 0
M  V30 7619 H 743.943 -0.494639 0.808725 0
M  V30 7620 H 743.649 -2.31357 2.6489 0
M  V30 7621 H 743.523 -3.51281 1.3741 0
M  V30 7622 H 745.91 -2.88869 0.603241 0
M  V30 7623 H 745.991 -1.69998 1.91139 0
M  V30 7624 H 745.635 -3.5753 3.60742 0
M  V30 7625 H 745.565 -4.75117 2.27093 0
M  V30 7626 H 748.056 -3.21601 1.98447 0
M  V30 7627 H 748.369 -6.22677 4.57704 0
M  V30 7628 H 746.714 -5.60402 4.11066 0
M  V30 7629 H 749.905 -3.93874 2.52945 0
M  V30 7630 H 750.078 -5.3118 3.71149 0
M  V30 7631 N 743.484 -0.715051 -1.40445 0
M  V30 7632 C 744.73 -0.254705 -2.01194 0
M  V30 7633 C 745.063 1.14894 -1.56567 0
M  V30 7634 O 744.338 1.77933 -0.785491 0
M  V30 7635 C 744.621 -0.334148 -3.58546 0
M  V30 7636 C 744.474 -1.77613 -4.13248 0
M  V30 7637 C 745.793 0.294968 -4.3911 0
M  V30 7638 H 742.912 -0.094025 -0.730978 0
M  V30 7639 H 745.554 -0.907449 -1.66929 0
M  V30 7640 H 743.704 0.221609 -3.87867 0
M  V30 7641 H 745.376 -2.38723 -3.94727 0
M  V30 7642 H 743.619 -2.30402 -3.67556 0
M  V30 7643 H 744.29 -1.78311 -5.22407 0
M  V30 7644 H 746.766 -0.178563 -4.15717 0
M  V30 7645 H 745.642 0.208934 -5.48502 0
M  V30 7646 H 745.903 1.37841 -4.20062 0
M  V30 7647 N 744.962 1.50701 -0.461195 0
M  V30 7648 C 746.187 2.07171 0.0974773 0
M  V30 7649 C 746.612 1.32391 1.3362 0
M  V30 7650 O 745.97 0.368676 1.77512 0
M  V30 7651 C 746.018 3.58651 0.374409 0
M  V30 7652 O 745.122 3.85816 1.4567 0
M  V30 7653 H 744.463 0.663944 -0.00862047 0
M  V30 7654 H 746.993 1.94021 -0.649394 0
M  V30 7655 H 747.003 4.03295 0.617843 0
M  V30 7656 H 745.678 4.12498 -0.530829 0
M  V30 7657 H 744.255 3.53018 1.20136 0
M  V30 7658 N 746.441 0.193421 1.56409 0
M  V30 7659 C 747.351 -0.740112 2.2262 0
M  V30 7660 C 748.367 -1.23597 1.22474 0
M  V30 7661 O 749.543 -1.28348 1.55206 0
M  V30 7662 C 746.608 -1.94317 2.87127 0
M  V30 7663 C 745.669 -1.49205 4.02538 0
M  V30 7664 C 744.902 -2.63776 4.63959 0
M  V30 7665 O 745.125 -3.81215 4.24301 0
M  V30 7666 O 744.059 -2.36585 5.53454 0
M  V30 7667 H 747.885 -0.206238 3.02999 0
M  V30 7668 H 745.47 -0.0357938 1.49357 0
M  V30 7669 H 747.352 -2.64633 3.27944 0
M  V30 7670 H 746.027 -2.46568 2.09728 0
M  V30 7671 H 744.934 -0.757738 3.66346 0
M  V30 7672 H 746.267 -1.01622 4.81595 0
M  V30 7673 N 747.919 -1.57396 -0.0801906 0
M  V30 7674 C 748.882 -2.02133 -1.0805 0
M  V30 7675 C 749.882 -0.91707 -1.32085 0
M  V30 7676 O 751.072 -1.18217 -1.27947 0
M  V30 7677 C 748.204 -2.39479 -2.42616 0
M  V30 7678 H 749.397 -2.91733 -0.6951 0
M  V30 7679 H 746.95 -1.52869 -0.325677 0
M  V30 7680 H 747.685 -1.52879 -2.86004 0
M  V30 7681 H 747.47 -3.20052 -2.26515 0
M  V30 7682 H 748.96 -2.74697 -3.14534 0
M  V30 7683 N 749.397 0.351382 -1.53633 0
M  V30 7684 C 750.307 1.45471 -1.84052 0
M  V30 7685 C 751.323 1.57945 -0.730015 0
M  V30 7686 O 752.499 1.73571 -1.02153 0
M  V30 7687 C 749.564 2.80562 -2.03681 0
M  V30 7688 C 748.625 2.77497 -3.27558 0
M  V30 7689 C 747.858 4.06144 -3.46241 0
M  V30 7690 O 748.081 5.03028 -2.68922 0
M  V30 7691 O 747.015 4.11092 -4.39645 0
M  V30 7692 H 750.841 1.22684 -2.77817 0
M  V30 7693 H 748.426 0.542827 -1.3919 0
M  V30 7694 H 750.308 3.6058 -2.18082 0
M  V30 7695 H 748.983 3.03296 -1.13106 0
M  V30 7696 H 747.89 1.96126 -3.18568 0
M  V30 7697 H 749.223 2.59716 -4.18101 0
M  V30 7698 N 750.875 1.45233 0.611969 0
M  V30 7699 C 751.807 1.49575 1.73666 0
M  V30 7700 C 752.82 0.386987 1.58134 0
M  V30 7701 O 754.009 0.653804 1.66095 0
M  V30 7702 C 751.109 1.33223 3.11617 0
M  V30 7703 C 750.282 2.57694 3.5343 0
M  V30 7704 C 749.341 2.35962 4.70328 0
M  V30 7705 O 748.367 3.09553 4.77667 0
M  V30 7706 N 749.569 1.40243 5.63305 0
M  V30 7707 H 752.334 2.46539 1.70407 0
M  V30 7708 H 749.895 1.40917 0.79712 0
M  V30 7709 H 751.887 1.16502 3.87569 0
M  V30 7710 H 750.457 0.44551 3.09409 0
M  V30 7711 H 749.677 2.8956 2.67486 0
M  V30 7712 H 750.965 3.40441 3.78124 0
M  V30 7713 H 750.363 0.795023 5.60086 0
M  V30 7714 H 748.92 1.29496 6.38807 0
M  V30 7715 N 752.353 -0.854086 1.3245 0
M  V30 7716 C 753.283 -1.97827 1.24044 0
M  V30 7717 C 754.264 -1.69646 0.124166 0
M  V30 7718 O 755.449 -1.91687 0.31143 0
M  V30 7719 C 752.579 -3.33673 0.963324 0
M  V30 7720 C 751.533 -3.76207 2.04089 0
M  V30 7721 C 750.859 -5.0969 1.61618 0
M  V30 7722 C 752.159 -3.91612 3.45597 0
M  V30 7723 H 753.853 -2.05118 2.18099 0
M  V30 7724 H 751.399 -0.985489 1.04996 0
M  V30 7725 H 753.352 -4.11871 0.891061 0
M  V30 7726 H 752.076 -3.26597 -0.0128649 0
M  V30 7727 H 750.735 -3.0026 2.10332 0
M  V30 7728 H 750.383 -4.99072 0.627418 0
M  V30 7729 H 750.083 -5.3912 2.33717 0
M  V30 7730 H 751.607 -5.90381 1.55829 0
M  V30 7731 H 753.021 -4.60163 3.4194 0
M  V30 7732 H 751.418 -4.3246 4.16051 0
M  V30 7733 H 752.488 -2.9451 3.85217 0
M  V30 7734 N 753.831 -1.1567 -1.07043 0
M  V30 7735 C 754.794 -0.858906 -2.12498 0
M  V30 7736 C 755.794 0.142735 -1.60165 0
M  V30 7737 O 756.984 -0.0872678 -1.73981 0
M  V30 7738 C 754.116 -0.283021 -3.39723 0
M  V30 7739 H 755.309 -1.79368 -2.40348 0
M  V30 7740 H 752.862 -0.964608 -1.22984 0
M  V30 7741 H 753.597 0.659796 -3.17517 0
M  V30 7742 H 753.382 -1.00467 -3.7901 0
M  V30 7743 H 754.872 -0.0923543 -4.17498 0
M  V30 7744 N 755.309 1.25446 -0.953992 0
M  V30 7745 C 756.586 1.884 -0.525823 0
M  V30 7746 C 756.966 1.86079 0.996891 0
M  V30 7747 O 756.314 1.32389 1.8624 0
M  V30 7748 C 756.524 3.31154 -1.10172 0
M  V30 7749 C 757.872 4.07926 -1.17819 0
M  V30 7750 O 758.896 3.40273 -1.05323 0
M  V30 7751 O 757.755 5.28942 -1.37415 0
M  V30 7752 H 754.849 0.808629 -0.173345 0
M  V30 7753 H 757.395 1.33522 -1.04738 0
M  V30 7754 H 756.167 3.27271 -2.14499 0
M  V30 7755 H 755.79 3.93588 -0.56338 0
M  V30 7756 N 756.787 0.722489 1.40064 0
M  V30 7757 C 758.033 0.265371 2.01056 0
M  V30 7758 C 758.366 -1.14062 1.57174 0
M  V30 7759 O 757.641 -1.77514 0.794916 0
M  V30 7760 C 757.924 0.353157 3.58364 0
M  V30 7761 C 757.777 1.79802 4.123 0
M  V30 7762 C 759.096 -0.271677 4.39261 0
M  V30 7763 H 756.215 0.0979002 0.730469 0
M  V30 7764 H 758.857 0.916289 1.66446 0
M  V30 7765 H 757.007 -0.201037 3.87979 0
M  V30 7766 H 758.679 2.40813 3.93455 0
M  V30 7767 H 756.922 2.32348 3.66329 0
M  V30 7768 H 757.593 1.81079 5.21454 0
M  V30 7769 H 760.069 0.200607 4.15616 0
M  V30 7770 H 758.945 -0.179843 5.48605 0
M  V30 7771 H 759.206 -1.35611 4.20787 0
M  V30 7772 N 758.265 -1.50454 0.469181 0
M  V30 7773 C 759.195 -2.31353 -0.31592 0
M  V30 7774 C 760.176 -1.38172 -0.992094 0
M  V30 7775 O 761.361 -1.67093 -0.989633 0
M  V30 7776 C 758.491 -3.1786 -1.39937 0
M  V30 7777 C 757.445 -4.19578 -0.844909 0
M  V30 7778 C 756.771 -4.9481 -2.0265 0
M  V30 7779 C 758.071 -5.22106 0.142499 0
M  V30 7780 H 759.765 -2.97237 0.359269 0
M  V30 7781 H 757.311 -1.42942 0.174224 0
M  V30 7782 H 759.264 -3.7325 -1.95607 0
M  V30 7783 H 757.988 -2.49858 -2.1033 0
M  V30 7784 H 756.647 -3.65285 -0.310189 0
M  V30 7785 H 756.295 -4.23282 -2.71737 0
M  V30 7786 H 755.995 -5.63613 -1.66174 0
M  V30 7787 H 757.519 -5.53035 -2.58815 0
M  V30 7788 H 758.933 -5.72378 -0.324966 0
M  V30 7789 H 757.33 -5.98618 0.421441 0
M  V30 7790 H 758.4 -4.7297 1.06901 0
M  V30 7791 N 759.743 -0.201713 -1.56304 0
M  V30 7792 C 760.653 0.728296 -2.23009 0
M  V30 7793 C 761.669 1.22945 -1.23128 0
M  V30 7794 O 762.845 1.27523 -1.55884 0
M  V30 7795 C 759.91 1.92792 -2.88153 0
M  V30 7796 C 758.971 1.47068 -4.03323 0
M  V30 7797 C 758.204 2.61312 -4.65351 0
M  V30 7798 O 758.427 3.7896 -4.26317 0
M  V30 7799 O 757.361 2.33646 -5.54701 0
M  V30 7800 H 761.187 0.190166 -3.03104 0
M  V30 7801 H 758.772 0.0278725 -1.49374 0
M  V30 7802 H 760.654 2.6289 -3.29343 0
M  V30 7803 H 759.329 2.45452 -2.11033 0
M  V30 7804 H 758.236 0.738299 -3.66742 0
M  V30 7805 H 759.569 0.990666 -4.82127 0
M  V30 7806 N 761.222 1.57436 0.0718424 0
M  V30 7807 C 762.169 2.03686 1.08539 0
M  V30 7808 C 763.139 0.917474 1.38462 0
M  V30 7809 O 764.324 1.18513 1.4953 0
M  V30 7810 C 761.464 2.48566 2.39393 0
M  V30 7811 C 760.577 3.74122 2.16001 0
M  V30 7812 C 759.712 4.07786 3.40418 0
M  V30 7813 C 758.751 5.26383 3.1239 0
M  V30 7814 N 757.888 5.55685 4.29138 0
M  V30 7815 H 762.728 2.90043 0.684018 0
M  V30 7816 H 760.265 1.43438 0.326183 0
M  V30 7817 H 762.223 2.72639 3.15791 0
M  V30 7818 H 760.853 1.65186 2.77333 0
M  V30 7819 H 759.905 3.57389 1.30296 0
M  V30 7820 H 761.217 4.60659 1.91298 0
M  V30 7821 H 760.371 4.32759 4.25211 0
M  V30 7822 H 759.11 3.19817 3.68197 0
M  V30 7823 H 758.115 5.01206 2.25993 0
M  V30 7824 H 759.34 6.1597 2.85934 0
M  V30 7825 H 757.286 4.70675 4.56948 0
M  V30 7826 H 757.203 6.3664 4.07708 0
M  V30 7827 H 758.471 5.85209 5.14928 0
M  V30 7828 N 762.7 -0.34323 1.53817 0
M  V30 7829 C 763.946 -1.08504 1.71332 0
M  V30 7830 C 764.279 -1.88294 0.475285 0
M  V30 7831 O 763.554 -1.87205 -0.527688 0
M  V30 7832 C 763.837 -2.02597 2.97702 0
M  V30 7833 C 763.69 -1.26268 4.31713 0
M  V30 7834 C 765.009 -3.0241 3.19744 0
M  V30 7835 H 762.128 -0.393072 0.623429 0
M  V30 7836 H 764.77 -0.363579 1.86489 0
M  V30 7837 H 762.92 -2.64118 2.8491 0
M  V30 7838 H 764.592 -0.673594 4.56356 0
M  V30 7839 H 762.835 -0.564696 4.30109 0
M  V30 7840 H 763.506 -1.95253 5.16314 0
M  V30 7841 H 765.982 -2.51004 3.31868 0
M  V30 7842 H 764.858 -3.65449 4.09558 0
M  V30 7843 H 765.119 -3.73806 2.36054 0
M  V30 7844 N 764.178 -1.45556 -0.604258 0
M  V30 7845 C 765.141 -1.54091 -1.69672 0
M  V30 7846 C 766.141 -0.420076 -1.55216 0
M  V30 7847 O 767.331 -0.683671 -1.60224 0
M  V30 7848 C 764.463 -1.44063 -3.08964 0
M  V30 7849 H 765.656 -2.51431 -1.6347 0
M  V30 7850 H 763.209 -1.33046 -0.820273 0
M  V30 7851 H 763.944 -0.479201 -3.2074 0
M  V30 7852 H 763.729 -2.25362 -3.20865 0
M  V30 7853 H 765.219 -1.53075 -3.88533 0
M  V30 7854 N 765.656 0.84705 -1.32902 0
M  V30 7855 C 766.606 1.94451 -1.19049 0
M  V30 7856 C 767.59 1.60617 -0.095461 0
M  V30 7857 O 768.782 1.74033 -0.322739 0
M  V30 7858 C 765.911 3.30645 -0.923509 0
M  V30 7859 C 764.997 3.70675 -2.0606 0
M  V30 7860 N 765.388 3.82468 -3.30986 0
M  V30 7861 C 763.686 4.00357 -1.96547 0
M  V30 7862 C 764.387 4.17056 -4.05511 0
M  V30 7863 N 763.363 4.28985 -3.33876 0
M  V30 7864 H 767.165 2.01713 -2.1375 0
M  V30 7865 H 764.679 1.03928 -1.24791 0
M  V30 7866 H 766.676 4.0905 -0.805212 0
M  V30 7867 H 765.336 3.24697 0.0150523 0
M  V30 7868 H 766.347 3.66589 -3.65832 0
M  V30 7869 H 763.024 4.02666 -1.10299 0
M  V30 7870 H 764.414 4.33585 -5.13277 0
M  V30 7871 N 767.134 1.16236 1.06428 0
M  V30 7872 C 768.084 0.835994 2.12121 0
M  V30 7873 C 769.068 -0.183955 1.59845 0
M  V30 7874 O 770.26 0.0166741 1.76992 0
M  V30 7875 C 767.389 0.337333 3.41639 0
M  V30 7876 C 766.475 1.38798 4.00744 0
M  V30 7877 N 766.866 2.59799 4.3398 0
M  V30 7878 C 765.164 1.24292 4.28331 0
M  V30 7879 C 765.865 3.27213 4.80943 0
M  V30 7880 N 764.841 2.54594 4.80294 0
M  V30 7881 H 768.643 1.75615 2.35662 0
M  V30 7882 H 766.157 1.04921 1.23957 0
M  V30 7883 H 768.154 0.0851274 4.16813 0
M  V30 7884 H 766.814 -0.57677 3.19536 0
M  V30 7885 H 767.825 2.96867 4.24371 0
M  V30 7886 H 764.502 0.389464 4.15679 0
M  V30 7887 H 765.892 4.30492 5.15874 0
M  V30 7888 N 768.612 -1.24939 0.960631 0
M  V30 7889 C 769.522 -2.29374 0.492435 0
M  V30 7890 C 770.538 -1.68262 -0.443154 0
M  V30 7891 O 771.714 -1.98875 -0.31793 0
M  V30 7892 C 768.779 -3.46023 -0.216626 0
M  V30 7893 C 767.84 -4.22557 0.757915 0
M  V30 7894 C 767.073 -5.33636 0.0825969 0
M  V30 7895 O 767.296 -5.59084 -1.13054 0
M  V30 7896 O 766.23 -5.96939 0.771177 0
M  V30 7897 H 770.056 -2.71525 1.36044 0
M  V30 7898 H 767.641 -1.30499 0.72735 0
M  V30 7899 H 769.523 -4.16885 -0.615241 0
M  V30 7900 H 768.198 -3.05862 -1.05971 0
M  V30 7901 H 767.105 -3.54099 1.20685 0
M  V30 7902 H 768.438 -4.66516 1.5692 0
M  V30 7903 N 770.09 -0.729906 -1.39679 0
M  V30 7904 C 771.506 -0.404951 -1.54377 0
M  V30 7905 C 771.706 1.08476 -1.6981 0
M  V30 7906 O 770.762 1.87087 -1.69572 0
M  V30 7907 C 772.075 -1.18352 -2.76429 0
M  V30 7908 C 773.623 -1.17124 -2.9026 0
M  V30 7909 C 774.098 -1.93227 -4.15244 0
M  V30 7910 N 775.589 -1.90368 -4.22273 0
M  V30 7911 C 776.324 -2.46065 -5.17918 0
M  V30 7912 N 775.82 -3.10378 -6.19385 0
M  V30 7913 N 777.613 -2.36127 -5.10099 0
M  V30 7914 H 769.764 -1.69567 -1.27909 0
M  V30 7915 H 772.027 -0.717527 -0.619564 0
M  V30 7916 H 771.733 -2.23743 -2.71352 0
M  V30 7917 H 771.607 -0.784589 -3.6895 0
M  V30 7918 H 773.994 -0.125478 -2.94833 0
M  V30 7919 H 774.075 -1.60951 -1.98817 0
M  V30 7920 H 773.719 -2.97802 -4.11432 0
M  V30 7921 H 773.649 -1.4681 -5.05722 0
M  V30 7922 H 776.14 -1.4351 -3.4959 0
M  V30 7923 H 776.453 -3.50358 -6.88817 0
M  V30 7924 H 774.798 -3.14467 -6.19787 0
M  V30 7925 H 777.989 -1.85529 -4.29763 0
M  V30 7926 H 778.162 -2.79833 -5.84463 0
M  V30 7927 N 771.568 1.50203 -0.477153 0
M  V30 7928 C 772.498 2.31517 0.303646 0
M  V30 7929 C 773.479 1.38696 0.984753 0
M  V30 7930 O 774.664 1.67615 0.980758 0
M  V30 7931 C 771.794 3.18598 1.38249 0
M  V30 7932 C 770.748 4.2002 0.822645 0
M  V30 7933 C 770.074 4.95878 2.00024 0
M  V30 7934 C 771.374 5.22023 -0.170185 0
M  V30 7935 H 773.068 2.97042 -0.375027 0
M  V30 7936 H 770.614 1.42848 -0.181802 0
M  V30 7937 H 772.567 3.74282 1.93625 0
M  V30 7938 H 771.291 2.5097 2.09002 0
M  V30 7939 H 769.95 3.65445 0.290813 0
M  V30 7940 H 769.598 4.24717 2.69489 0
M  V30 7941 H 769.298 5.64487 1.63183 0
M  V30 7942 H 770.822 5.54399 2.55878 0
M  V30 7943 H 772.236 5.72543 0.294606 0
M  V30 7944 H 770.633 5.98386 -0.453181 0
M  V30 7945 H 771.703 4.72396 -1.09408 0
M  V30 7946 N 773.046 0.209999 1.56195 0
M  V30 7947 C 774.271 -0.433064 2.02828 0
M  V30 7948 C 774.696 -1.5337 1.08901 0
M  V30 7949 O 774.054 -1.81144 0.0751132 0
M  V30 7950 C 774.102 -0.952635 3.47789 0
M  V30 7951 O 773.206 -2.0647 3.56993 0
M  V30 7952 H 772.547 -0.0994594 0.656509 0
M  V30 7953 H 775.077 0.32525 2.01998 0
M  V30 7954 H 775.087 -1.26542 3.8788 0
M  V30 7955 H 773.762 -0.147007 4.1564 0
M  V30 7956 H 772.339 -1.75942 3.28784 0
M  V30 7957 N 774.524 -1.57472 -0.0634922 0
M  V30 7958 C 775.454 -2.07297 -1.07473 0
M  V30 7959 C 776.435 -0.968162 -1.39859 0
M  V30 7960 O 777.62 -1.24139 -1.49343 0
M  V30 7961 C 774.75 -2.52381 -2.38581 0
M  V30 7962 C 773.704 -3.66813 -2.20526 0
M  V30 7963 C 773.03 -3.97982 -3.57092 0
M  V30 7964 C 774.33 -4.96553 -1.61965 0
M  V30 7965 H 776.024 -2.92033 -0.660092 0
M  V30 7966 H 773.57 -1.40488 -0.316074 0
M  V30 7967 H 775.523 -2.85852 -3.09624 0
M  V30 7968 H 774.247 -1.64684 -2.8204 0
M  V30 7969 H 772.906 -3.33639 -1.51924 0
M  V30 7970 H 772.554 -3.07403 -3.98136 0
M  V30 7971 H 772.254 -4.7504 -3.45848 0
M  V30 7972 H 773.778 -4.33956 -4.29552 0
M  V30 7973 H 775.192 -5.28201 -2.22883 0
M  V30 7974 H 773.589 -5.7799 -1.61394 0
M  V30 7975 H 774.659 -4.81396 -0.581918 0
M  V30 7976 N 776.003 0.335068 -1.53997 0
M  V30 7977 C 777.252 1.07182 -1.70865 0
M  V30 7978 C 777.565 1.89541 -0.483078 0
M  V30 7979 O 778.771 2.66219 -0.532879 0
M  V30 7980 C 777.227 1.95497 -3.02174 0
M  V30 7981 C 776.835 1.18304 -4.32097 0
M  V30 7982 C 778.579 2.68978 -3.28407 0
M  V30 7983 C 776.486 2.05699 -5.54474 0
M  V30 7984 H 775.416 0.403857 -0.636722 0
M  V30 7985 H 778.067 0.33076 -1.80494 0
M  V30 7986 H 776.449 2.73456 -2.86423 0
M  V30 7987 H 777.623 0.451969 -4.58578 0
M  V30 7988 H 775.938 0.565556 -4.12541 0
M  V30 7989 H 778.535 3.34651 -4.17029 0
M  V30 7990 H 778.878 3.36 -2.45784 0
M  V30 7991 H 779.411 1.98087 -3.44973 0
M  V30 7992 H 776.15 1.43204 -6.39666 0
M  V30 7993 H 775.67 2.76572 -5.32229 0
M  V30 7994 H 777.349 2.64554 -5.90441 0
M  V30 7995 N 777.481 1.45874 0.596531 0
M  V30 7996 C 778.391 1.57947 1.73464 0
M  V30 7997 C 779.407 0.463461 1.67714 0
M  V30 7998 O 780.583 0.725685 1.87872 0
M  V30 7999 C 777.648 1.55348 3.09948 0
M  V30 8000 C 776.709 2.78074 3.27068 0
M  V30 8001 C 775.942 2.75589 4.57041 0
M  V30 8002 O 776.165 1.83545 5.40063 0
M  V30 8003 O 775.099 3.66945 4.77111 0
M  V30 8004 H 778.925 2.54169 1.66228 0
M  V30 8005 H 776.51 1.2851 0.76194 0
M  V30 8006 H 778.392 1.56545 3.91244 0
M  V30 8007 H 777.067 0.622811 3.17652 0
M  V30 8008 H 775.974 2.82435 2.45319 0
M  V30 8009 H 777.307 3.70303 3.24248 0
M  V30 8010 N 778.959 -0.83999 1.33349 0
M  V30 8011 C 780.205 -1.59753 1.24927 0
M  V30 8012 C 780.538 -1.93318 -0.184855 0
M  V30 8013 O 779.813 -1.586 -1.12589 0
M  V30 8014 C 780.096 -2.90829 2.12345 0
M  V30 8015 C 779.949 -2.63953 3.6421 0
M  V30 8016 C 781.268 -3.92246 1.99577 0
M  V30 8017 H 778.387 -0.579654 0.45516 0
M  V30 8018 H 781.029 -0.968909 1.63439 0
M  V30 8019 H 779.179 -3.44478 1.79631 0
M  V30 8020 H 780.851 -2.16745 4.07209 0
M  V30 8021 H 779.094 -1.97671 3.86146 0
M  V30 8022 H 779.765 -3.57348 4.20721 0
M  V30 8023 H 782.241 -3.479 2.28265 0
M  V30 8024 H 781.117 -4.81793 2.62996 0
M  V30 8025 H 781.378 -4.3138 0.967673 0
M  V30 8026 N 780.437 -1.16799 -1.0581 0
M  V30 8027 C 781.37 -0.822491 -2.12862 0
M  V30 8028 C 782.348 0.208006 -1.61264 0
M  V30 8029 O 783.532 0.0909652 -1.8828 0
M  V30 8030 C 780.659 -0.225826 -3.37946 0
M  V30 8031 C 779.705 -1.23071 -4.08357 0
M  V30 8032 S 780.538 -2.77944 -4.5772 0
M  V30 8033 C 781.694 -2.19741 -5.86059 0
M  V30 8034 H 781.927 -1.72917 -2.41841 0
M  V30 8035 H 779.46 -0.991982 -1.18318 0
M  V30 8036 H 781.418 0.111955 -4.10347 0
M  V30 8037 H 780.079 0.658692 -3.07116 0
M  V30 8038 H 779.272 -0.761758 -4.9821 0
M  V30 8039 H 778.874 -1.51383 -3.41993 0
M  V30 8040 H 781.166 -1.5691 -6.59079 0
M  V30 8041 H 782.109 -3.07823 -6.37692 0
M  V30 8042 H 782.517 -1.63433 -5.40324 0
M  V30 8043 N 781.915 1.24427 -0.967243 0
M  V30 8044 C 782.845 2.2773 -0.515899 0
M  V30 8045 C 783.826 1.64197 0.444227 0
M  V30 8046 O 785.011 1.91193 0.340451 0
M  V30 8047 C 782.141 3.46751 0.195149 0
M  V30 8048 C 781.095 4.22548 -0.680953 0
M  V30 8049 C 780.421 5.34456 0.161561 0
M  V30 8050 C 781.721 4.83914 -1.96532 0
M  V30 8051 H 783.415 2.65735 -1.37933 0
M  V30 8052 H 780.961 1.27742 -0.664681 0
M  V30 8053 H 782.914 4.18153 0.522117 0
M  V30 8054 H 781.638 3.07771 1.09292 0
M  V30 8055 H 780.297 3.52946 -0.991186 0
M  V30 8056 H 779.945 4.91716 1.05947 0
M  V30 8057 H 779.645 5.86087 -0.421418 0
M  V30 8058 H 781.169 6.08685 0.483211 0
M  V30 8059 H 782.583 5.47392 -1.70396 0
M  V30 8060 H 780.98 5.45775 -2.49499 0
M  V30 8061 H 782.05 4.05393 -2.66053 0
M  V30 8062 N 783.393 0.737304 1.3929 0
M  V30 8063 C 784.804 0.355966 1.83275 0
M  V30 8064 C 785.155 -1.11295 1.6158 0
M  V30 8065 O 784.28 -1.85871 1.10819 0
M  V30 8066 C 784.875 0.63931 3.32713 0
M  V30 8067 C 783.434 0.31144 3.75109 0
M  V30 8068 C 782.581 0.900765 2.62262 0
M  V30 8069 H 785.532 0.934763 1.28249 0
M  V30 8070 H 785.553 -0.0881293 3.80398 0
M  V30 8071 H 785.065 1.70847 3.48472 0
M  V30 8072 H 783.166 -0.751791 3.64937 0
M  V30 8073 H 783.279 0.795611 4.72448 0
M  V30 8074 H 781.643 0.327239 2.52589 0
M  V30 8075 H 782.426 1.97463 2.80826 0
M  V30 8076 N 784.871 -1.49948 0.485112 0
M  V30 8077 C 785.818 -2.28819 -0.301729 0
M  V30 8078 C 786.788 -1.34496 -0.974683 0
M  V30 8079 O 787.973 -1.63444 -0.984418 0
M  V30 8080 C 785.113 -3.16758 -1.36961 0
M  V30 8081 C 784.226 -4.26125 -0.710027 0
M  V30 8082 C 783.361 -5.01302 -1.75699 0
M  V30 8083 C 782.4 -6.02525 -1.07841 0
M  V30 8084 N 781.537 -6.70927 -2.06886 0
M  V30 8085 H 786.377 -2.95604 0.377127 0
M  V30 8086 H 783.914 -1.45764 0.197826 0
M  V30 8087 H 785.872 -3.66106 -2.00056 0
M  V30 8088 H 784.502 -2.51991 -2.01744 0
M  V30 8089 H 783.554 -3.80385 0.0338278 0
M  V30 8090 H 784.866 -4.98493 -0.175079 0
M  V30 8091 H 784.02 -5.54438 -2.46339 0
M  V30 8092 H 782.759 -4.28672 -2.32577 0
M  V30 8093 H 781.764 -5.48635 -0.357706 0
M  V30 8094 H 782.989 -6.77134 -0.516345 0
M  V30 8095 H 780.935 -6.01079 -2.62755 0
M  V30 8096 H 780.852 -7.39216 -1.58414 0
M  V30 8097 H 782.12 -7.28675 -2.76863 0
M  V30 8098 N 786.349 -0.21828 -1.56081 0
M  V30 8099 C 787.312 0.679633 -2.18892 0
M  V30 8100 C 788.312 1.12405 -1.14986 0
M  V30 8101 O 789.502 1.03339 -1.40238 0
M  V30 8102 C 786.634 1.93063 -2.80962 0
M  V30 8103 H 787.827 0.132066 -2.99609 0
M  V30 8104 H 785.38 0.0313374 -1.56269 0
M  V30 8105 H 786.115 2.52015 -2.04106 0
M  V30 8106 H 785.9 1.62046 -3.57048 0
M  V30 8107 H 787.39 2.57043 -3.29118 0
M  V30 8108 N 787.827 1.57504 0.0551401 0
M  V30 8109 C 789.104 1.79155 0.785048 0
M  V30 8110 C 789.484 0.809995 1.94942 0
M  V30 8111 O 788.832 -0.153432 2.27984 0
M  V30 8112 C 789.042 3.26134 1.24247 0
M  V30 8113 C 790.39 3.90419 1.66908 0
M  V30 8114 O 791.414 3.30126 1.33772 0
M  V30 8115 O 790.273 4.96523 2.28314 0
M  V30 8116 H 787.367 0.735825 0.377479 0
M  V30 8117 H 789.913 1.69666 0.0339285 0
M  V30 8118 H 788.685 3.89145 0.410089 0
M  V30 8119 H 788.308 3.40411 2.05441 0
M  V30 8120 N 789.305 -0.326896 1.54172 0
M  V30 8121 C 790.554 -1.06274 1.71431 0
M  V30 8122 C 790.867 -1.89282 0.493123 0
M  V30 8123 O 792.073 -2.65933 0.54699 0
M  V30 8124 C 790.529 -1.93892 3.03206 0
M  V30 8125 C 790.137 -1.16011 4.32719 0
M  V30 8126 C 791.881 -2.67232 3.29829 0
M  V30 8127 C 789.788 -2.02755 5.55558 0
M  V30 8128 H 788.718 -0.400475 0.638855 0
M  V30 8129 H 791.369 -0.321184 1.80667 0
M  V30 8130 H 789.751 -2.71933 2.87869 0
M  V30 8131 H 790.925 -0.427643 4.58811 0
M  V30 8132 H 789.24 -0.54367 4.12836 0
M  V30 8133 H 791.837 -3.32434 4.18798 0
M  V30 8134 H 792.18 -3.34692 2.47562 0
M  V30 8135 H 792.713 -1.96255 3.46018 0
M  V30 8136 H 789.452 -1.3981 6.40417 0
M  V30 8137 H 788.972 -2.73745 5.33689 0
M  V30 8138 H 790.651 -2.61419 5.91835 0
M  V30 8139 N 790.784 -1.46188 -0.588786 0
M  V30 8140 C 792.195 -1.45421 -1.17088 0
M  V30 8141 C 792.546 -0.191801 -1.9526 0
M  V30 8142 O 791.671 0.705497 -2.04577 0
M  V30 8143 C 792.266 -2.63467 -2.13004 0
M  V30 8144 C 790.825 -2.6576 -2.6655 0
M  V30 8145 C 789.972 -2.38002 -1.42304 0
M  V30 8146 H 792.923 -1.54156 -0.377052 0
M  V30 8147 H 792.944 -2.38638 -2.96365 0
M  V30 8148 H 792.456 -3.55331 -1.56081 0
M  V30 8149 H 790.557 -1.77952 -3.27359 0
M  V30 8150 H 790.67 -3.65545 -3.09699 0
M  V30 8151 H 789.034 -1.87936 -1.71907 0
M  V30 8152 H 789.817 -3.32035 -0.872209 0
M  V30 8153 N 792.262 0.832906 -1.33792 0
M  V30 8154 C 793.673 1.40489 -1.22963 0
M  V30 8155 C 794.024 1.95633 0.149026 0
M  V30 8156 O 793.149 1.8928 1.04891 0
M  V30 8157 C 793.744 2.55387 -2.22627 0
M  V30 8158 C 792.303 3.08522 -2.15618 0
M  V30 8159 C 791.45 1.81347 -2.09782 0
M  V30 8160 H 794.401 0.638156 -1.45304 0
M  V30 8161 H 794.422 3.33193 -1.83746 0
M  V30 8162 H 793.934 2.15222 -3.22957 0
M  V30 8163 H 792.035 3.53217 -1.18611 0
M  V30 8164 H 792.148 3.6829 -3.0643 0
M  V30 8165 H 790.512 2.01839 -1.55349 0
M  V30 8166 H 791.295 1.43369 -3.1193 0
M  V30 8167 N 793.74 1.17359 1.05189 0
M  V30 8168 C 794.67 0.91365 2.14883 0
M  V30 8169 C 795.651 -0.144365 1.69486 0
M  V30 8170 O 796.836 0.00587861 1.94199 0
M  V30 8171 C 793.966 0.426196 3.44675 0
M  V30 8172 C 792.92 1.4234 4.03638 0
M  V30 8173 C 792.246 0.793902 5.28773 0
M  V30 8174 C 793.546 2.7966 4.41121 0
M  V30 8175 H 795.24 1.831 2.36885 0
M  V30 8176 H 792.786 0.881781 1.13845 0
M  V30 8177 H 794.739 0.231767 4.20762 0
M  V30 8178 H 793.463 -0.526693 3.22325 0
M  V30 8179 H 792.122 1.60457 3.2962 0
M  V30 8180 H 791.77 -0.165824 5.02727 0
M  V30 8181 H 791.47 1.45959 5.69183 0
M  V30 8182 H 792.994 0.609747 6.07548 0
M  V30 8183 H 794.408 2.6526 5.08242 0
M  V30 8184 H 792.805 3.42807 4.92548 0
M  V30 8185 H 793.875 3.34068 3.51464 0
M  V30 8186 N 795.218 -1.23913 0.973828 0
M  V30 8187 C 796.148 -2.27453 0.527969 0
M  V30 8188 C 797.129 -1.6443 -0.435513 0
M  V30 8189 O 798.314 -1.9137 -0.330306 0
M  V30 8190 C 795.444 -3.4685 -0.176757 0
M  V30 8191 C 794.398 -4.22181 0.703352 0
M  V30 8192 C 793.724 -5.34534 -0.133215 0
M  V30 8193 C 795.024 -4.82865 1.99096 0
M  V30 8194 H 796.718 -2.65 1.3934 0
M  V30 8195 H 794.264 -1.27388 0.671446 0
M  V30 8196 H 796.217 -4.18424 -0.499934 0
M  V30 8197 H 794.941 -3.08346 -1.07659 0
M  V30 8198 H 793.6 -3.52416 1.00989 0
M  V30 8199 H 793.248 -4.92271 -1.03338 0
M  V30 8200 H 792.948 -5.85855 0.452494 0
M  V30 8201 H 794.472 -6.08933 -0.450924 0
M  V30 8202 H 795.886 -5.46481 1.73297 0
M  V30 8203 H 794.283 -5.44444 2.52389 0
M  V30 8204 H 795.353 -4.03977 2.68199 0
M  V30 8205 N 796.696 -0.74468 -1.38897 0
M  V30 8206 C 797.944 -0.296298 -1.99916 0
M  V30 8207 C 798.265 1.12325 -1.59399 0
M  V30 8208 O 797.535 1.76658 -0.846689 0
M  V30 8209 H 796.115 -0.106561 -0.73936 0
M  V30 8210 H 798.777 -0.956793 -1.69798 0
M  V30 8211 H 797.873 -0.352356 -3.10105 0
M  V30 8212 N 798.174 1.49689 -0.493057 0
M  V30 8213 C 799.137 2.27502 0.278485 0
M  V30 8214 C 800.137 1.33184 0.901037 0
M  V30 8215 O 801.327 1.56415 0.766801 0
M  V30 8216 C 798.459 3.10881 1.39878 0
M  V30 8217 H 799.652 2.97163 -0.404219 0
M  V30 8218 H 797.205 1.54324 -0.247774 0
M  V30 8219 H 797.94 2.45767 2.11587 0
M  V30 8220 H 797.725 3.80219 0.957924 0
M  V30 8221 H 799.215 3.69673 1.94247 0
M  V30 8222 N 799.652 0.226554 1.55963 0
M  V30 8223 C 800.582 -0.676079 2.23498 0
M  V30 8224 C 801.563 -1.19718 1.20837 0
M  V30 8225 O 802.748 -1.24027 1.49436 0
M  V30 8226 C 799.878 -1.88217 2.91876 0
M  V30 8227 C 798.832 -1.4947 4.01052 0
M  V30 8228 C 798.158 -2.77997 4.56751 0
M  V30 8229 C 799.458 -0.680951 5.17842 0
M  V30 8230 H 801.152 -0.112989 2.99187 0
M  V30 8231 H 798.698 -0.0529046 1.43903 0
M  V30 8232 H 800.651 -2.51911 3.37815 0
M  V30 8233 H 799.375 -2.47031 2.13643 0
M  V30 8234 H 798.034 -0.881199 3.55852 0
M  V30 8235 H 797.682 -3.34966 3.75243 0
M  V30 8236 H 797.382 -2.52803 5.30438 0
M  V30 8237 H 798.906 -3.42625 5.05411 0
M  V30 8238 H 800.32 -1.22171 5.60131 0
M  V30 8239 H 798.717 -0.525898 5.97791 0
M  V30 8240 H 799.787 0.311346 4.83899 0
M  V30 8241 N 801.13 -1.57531 -0.0467866 0
M  V30 8242 C 802.358 -1.92696 -0.753371 0
M  V30 8243 C 802.773 -0.824792 -1.69831 0
M  V30 8244 O 802.13 0.200155 -1.81399 0
M  V30 8245 C 802.181 -3.27728 -1.52566 0
M  V30 8246 O 801.902 -4.3371 -0.618674 0
M  V30 8247 C 803.403 -3.77066 -2.33101 0
M  V30 8248 H 800.623 -0.636367 -0.212788 0
M  V30 8249 H 803.167 -2.04498 -0.00959361 0
M  V30 8250 H 801.322 -3.17378 -2.22148 0
M  V30 8251 H 801.736 -5.11548 -1.15839 0
M  V30 8252 H 803.21 -4.74109 -2.82709 0
M  V30 8253 H 803.687 -3.07348 -3.13741 0
M  V30 8254 H 804.293 -3.90442 -1.68628 0
M  V30 8255 N 802.608 0.318715 -1.54344 0
M  V30 8256 C 803.555 1.39242 -1.84066 0
M  V30 8257 C 804.525 1.51175 -0.688134 0
M  V30 8258 O 805.71 1.66318 -0.935039 0
M  V30 8259 C 802.85 2.75528 -2.07794 0
M  V30 8260 C 801.963 2.72187 -3.35467 0
M  V30 8261 C 801.098 4.00352 -3.4913 0
M  V30 8262 C 800.137 3.91338 -4.7066 0
M  V30 8263 N 799.274 5.11242 -4.81224 0
M  V30 8264 H 804.114 1.13196 -2.75664 0
M  V30 8265 H 801.651 0.547857 -1.36517 0
M  V30 8266 H 803.609 3.54763 -2.19543 0
M  V30 8267 H 802.239 2.99873 -1.19482 0
M  V30 8268 H 801.291 1.84917 -3.3243 0
M  V30 8269 H 802.603 2.61411 -4.24812 0
M  V30 8270 H 801.757 4.88019 -3.60448 0
M  V30 8271 H 800.496 4.1394 -2.57886 0
M  V30 8272 H 799.501 3.02055 -4.59394 0
M  V30 8273 H 800.726 3.7931 -5.63294 0
M  V30 8274 H 798.672 5.25327 -3.92897 0
M  V30 8275 H 798.589 5.0282 -5.64543 0
M  V30 8276 H 799.857 6.0061 -4.96879 0
M  V30 8277 N 804.086 1.46499 0.581025 0
M  V30 8278 C 805.049 1.5677 1.672 0
M  V30 8279 C 806.049 0.444716 1.54528 0
M  V30 8280 O 807.239 0.709074 1.59116 0
M  V30 8281 C 804.371 1.4896 3.06633 0
M  V30 8282 H 805.564 2.54 1.5945 0
M  V30 8283 H 803.117 1.34334 0.799003 0
M  V30 8284 H 803.852 0.530168 3.19937 0
M  V30 8285 H 803.637 2.30439 3.17239 0
M  V30 8286 H 805.127 1.59237 3.86048 0
M  V30 8287 N 805.565 -0.825799 1.34232 0
M  V30 8288 C 806.495 -1.95151 1.28212 0
M  V30 8289 C 807.476 -1.69345 0.160123 0
M  V30 8290 O 808.661 -1.90983 0.352019 0
M  V30 8291 C 805.791 -3.31554 1.03388 0
M  V30 8292 C 804.745 -3.71793 2.12023 0
M  V30 8293 C 804.071 -5.06147 1.72392 0
M  V30 8294 C 805.371 -3.84193 3.53826 0
M  V30 8295 H 807.065 -2.00445 2.22401 0
M  V30 8296 H 804.611 -0.962996 1.07063 0
M  V30 8297 H 806.564 -4.09889 0.978225 0
M  V30 8298 H 805.288 -3.26551 0.0564142 0
M  V30 8299 H 803.947 -2.95731 2.16654 0
M  V30 8300 H 803.595 -4.97628 0.733137 0
M  V30 8301 H 803.295 -5.34041 2.451 0
M  V30 8302 H 804.819 -5.86943 1.68317 0
M  V30 8303 H 806.233 -4.52806 3.51624 0
M  V30 8304 H 804.63 -4.23538 4.2513 0
M  V30 8305 H 805.7 -2.86272 3.91377 0
M  V30 8306 N 807.043 -1.17915 -1.04565 0
M  V30 8307 C 807.953 -0.916449 -2.15959 0
M  V30 8308 C 808.969 0.117655 -1.73602 0
M  V30 8309 O 810.145 -0.063089 -2.01301 0
M  V30 8310 C 807.21 -0.440262 -3.43893 0
M  V30 8311 C 806.271 -1.54172 -4.00661 0
M  V30 8312 C 805.504 -1.08816 -5.22489 0
M  V30 8313 O 805.727 0.0551547 -5.70373 0
M  V30 8314 O 804.661 -1.88383 -5.7166 0
M  V30 8315 H 808.487 -1.8484 -2.40972 0
M  V30 8316 H 806.072 -0.960552 -1.14428 0
M  V30 8317 H 807.954 -0.182537 -4.21004 0
M  V30 8318 H 806.629 0.46346 -3.20365 0
M  V30 8319 H 805.536 -1.85341 -3.24961 0
M  V30 8320 H 806.869 -2.42139 -4.2852 0
M  V30 8321 N 808.521 1.23394 -0.980386 0
M  V30 8322 C 809.484 2.23092 -0.525619 0
M  V30 8323 C 810.484 1.56129 0.384745 0
M  V30 8324 O 811.674 1.73284 0.178439 0
M  V30 8325 C 808.806 3.40074 0.23712 0
M  V30 8326 H 809.999 2.64839 -1.40714 0
M  V30 8327 H 807.552 1.36227 -0.766275 0
M  V30 8328 H 808.287 3.03783 1.13518 0
M  V30 8329 H 808.072 3.89883 -0.416356 0
M  V30 8330 H 809.562 4.14043 0.543892 0
M  V30 8331 N 809.999 0.752036 1.385 0
M  V30 8332 C 811.239 0.312408 2.01998 0
M  V30 8333 C 811.603 -1.085 1.58404 0
M  V30 8334 O 812.804 -1.62365 2.14222 0
M  V30 8335 C 811.075 0.429423 3.54811 0
M  V30 8336 S 812.634 0.0721487 4.38741 0
M  V30 8337 H 809.452 0.1213 0.700576 0
M  V30 8338 H 812.054 0.982312 1.69029 0
M  V30 8339 H 810.758 1.44743 3.84028 0
M  V30 8340 H 810.289 -0.257716 3.92555 0
M  V30 8341 H 812.304 -1.13875 4.82957 0
M  V30 8342 N 811.477 -1.49425 0.500989 0
M  V30 8343 C 812.425 -2.30771 -0.291149 0
M  V30 8344 C 813.419 -1.3938 -0.962787 0
M  V30 8345 O 814.625 -1.56431 -0.890477 0
M  V30 8346 H 811 -0.743499 -0.11275 0
M  V30 8347 H 812.971 -2.95501 0.414917 0
M  V30 8348 C 811.72 -3.20725 -1.34279 0
M  V30 8349 H 811.043 -3.90975 -0.83538 0
M  V30 8350 H 812.483 -3.80583 -1.86903 0
M  V30 8351 C 810.942 -2.40334 -2.36095 0
M  V30 8352 O 811.472 -2.10749 -3.41976 0
M  V30 8353 N 809.678 -2.02359 -2.08565 0
M  V30 8354 H 809.225 -2.26619 -1.22482 0
M  V30 8355 H 809.183 -1.48878 -2.76916 0
M  V30 8356 N 812.955 -0.234822 -1.55841 0
M  V30 8357 C 813.903 0.686145 -2.22249 0
M  V30 8358 C 814.897 1.18948 -1.20614 0
M  V30 8359 O 816.103 1.14777 -1.38659 0
M  V30 8360 H 812.478 0.239724 -0.712767 0
M  V30 8361 H 814.449 0.102762 -2.98223 0
M  V30 8362 C 813.198 1.8776 -2.92646 0
M  V30 8363 H 812.521 1.49943 -3.70617 0
M  V30 8364 H 813.961 2.4995 -3.42493 0
M  V30 8365 C 812.42 2.74127 -1.95847 0
M  V30 8366 O 812.95 3.7329 -1.48384 0
M  V30 8367 N 811.156 2.4044 -1.63209 0
M  V30 8368 H 810.703 1.59854 -2.02001 0
M  V30 8369 H 810.661 2.98504 -0.987063 0
M  V30 8370 N 814.433 1.57553 0.0384317 0
M  V30 8371 C 815.396 2.04927 1.02653 0
M  V30 8372 C 816.396 0.951768 1.29607 0
M  V30 8373 O 817.586 1.21568 1.24768 0
M  V30 8374 C 814.718 2.45828 2.36181 0
M  V30 8375 H 815.911 2.93474 0.617508 0
M  V30 8376 H 813.464 1.53679 0.285031 0
M  V30 8377 H 814.199 1.60408 2.8185 0
M  V30 8378 H 813.984 3.25945 2.1795 0
M  V30 8379 H 815.474 2.82939 3.0714 0
M  V30 8380 O 815.95 -0.181452 1.60477 0
M  V30 8381 H 816.641 -0.819067 1.75531 0
M  V30 END ATOM
M  V30 BEGIN BOND
M  V30 END BOND
M  V30 END CTAB
M  END
$$$$
