drugbank_target|P23378 Glycine dehydrogenase (decarboxylating), mitochondrial (DB00114)
 OpenBabel12092119353D

  0  0  0     0  0            999 V3000
M  V30 BEGIN CTAB
M  V30 COUNTS 15725 15901 0 0 0
M  V30 BEGIN ATOM
M  V30 1 H -0.908 1.98254 -0.117106 0
M  V30 2 N 0 1.576 0 0
M  V30 3 C 0.933 2.03868 1.02534 0
M  V30 4 C 1.911 0.928543 1.3348 0
M  V30 5 O 3.095 1.19667 1.45644 0
M  V30 6 C 0.222 2.43627 2.35294 0
M  V30 7 C -0.732 3.65373 2.2001 0
M  V30 8 S 0.101 5.13292 1.52614 0
M  V30 9 C 1.257 5.56322 2.86805 0
M  V30 10 H 1.49 2.90518 0.631377 0
M  V30 11 H -0.977 1.52953 0.210867 0
M  V30 12 H 0.981 2.67203 3.11629 0
M  V30 13 H -0.358 1.57376 2.7183 0
M  V30 14 H -1.165 3.90944 3.18086 0
M  V30 15 H -1.563 3.418 1.51819 0
M  V30 16 H 0.729 5.58782 3.83104 0
M  V30 17 H 1.672 6.56266 2.65933 0
M  V30 18 H 2.08 4.83886 2.90714 0
M  V30 19 N 1.4781 -0.272755 1.55222 0
M  V30 20 C 2.4101 -1.35946 1.8453 0
M  V30 21 C 3.4231 -1.45525 0.729818 0
M  V30 22 O 4.6121 -1.47337 1.00767 0
M  V30 23 C 1.7121 -2.74069 1.99347 0
M  V30 24 C 0.8851 -2.87079 3.30007 0
M  V30 25 C -0.0559 -4.05879 3.34886 0
M  V30 26 O -1.0299 -3.96626 4.08261 0
M  V30 27 N 0.1721 -5.17857 2.62307 0
M  V30 28 H 2.9371 -1.11149 2.78327 0
M  V30 29 H 0.4981 -0.462869 1.55142 0
M  V30 30 H 2.4901 -3.51838 1.99981 0
M  V30 31 H 1.0601 -2.91688 1.12415 0
M  V30 32 H 0.2801 -1.96193 3.41909 0
M  V30 33 H 1.5681 -2.92701 4.16177 0
M  V30 34 H 0.9661 -5.28261 2.02377 0
M  V30 35 H -0.4769 -5.93855 2.68663 0
M  V30 36 N 2.9562 -1.48159 -0.537278 0
M  V30 37 C 4.1812 -1.59707 -1.32319 0
M  V30 38 C 4.6062 -0.254859 -1.86365 0
M  V30 39 O 3.9642 0.772378 -1.64024 0
M  V30 40 C 4.0122 -2.6412 -2.45505 0
M  V30 41 O 3.1162 -2.20774 -3.48328 0
M  V30 42 H 2.4572 -0.535791 -0.392204 0
M  V30 43 H 4.9872 -1.94092 -0.647268 0
M  V30 44 H 4.9972 -2.85166 -2.91795 0
M  V30 45 H 3.6722 -3.61567 -2.05528 0
M  V30 46 H 2.2492 -2.09911 -3.08207 0
M  V30 47 N 4.4343 0.785586 -1.36625 0
M  V30 48 C 5.6743 1.55678 -1.32453 0
M  V30 49 C 6.0383 1.91769 0.0941089 0
M  V30 50 O 7.2393 2.67536 0.26042 0
M  V30 51 C 5.5103 2.79701 -2.22491 0
M  V30 52 S 7.0693 3.69907 -2.36038 0
M  V30 53 H 3.8873 0.533141 -0.470405 0
M  V30 54 H 6.4893 0.924953 -1.72235 0
M  V30 55 H 5.1933 2.51244 -3.24507 0
M  V30 56 H 4.7243 3.47854 -1.83742 0
M  V30 57 H 6.7393 4.71016 -1.56072 0
M  V30 58 N 5.9124 1.20967 1.01018 0
M  V30 59 C 6.8754 0.965918 2.07853 0
M  V30 60 C 7.8754 -0.0610545 1.60684 0
M  V30 61 O 9.0654 0.175681 1.73312 0
M  V30 62 C 6.1974 0.455513 3.37843 0
M  V30 63 H 7.3904 1.91365 2.3091 0
M  V30 64 H 4.9434 1.02594 1.17916 0
M  V30 65 H 5.6784 -0.497381 3.20463 0
M  V30 66 H 5.4634 1.19622 3.73407 0
M  V30 67 H 6.9534 0.304667 4.16487 0
M  V30 68 N 7.3905 -1.2043 1.01659 0
M  V30 69 C 8.8065 -1.41852 0.731442 0
M  V30 70 C 9.0065 -1.89358 -0.688898 0
M  V30 71 O 8.0625 -2.06247 -1.45666 0
M  V30 72 C 9.3755 -2.44019 1.75714 0
M  V30 73 C 10.9235 -2.57785 1.77527 0
M  V30 74 C 11.3985 -3.63194 2.79023 0
M  V30 75 N 12.8895 -3.70678 2.77763 0
M  V30 76 C 13.6245 -4.51897 3.52954 0
M  V30 77 N 13.1205 -5.36921 4.37821 0
M  V30 78 N 14.9135 -4.4643 3.41551 0
M  V30 79 H 7.0645 -0.879093 1.93354 0
M  V30 80 H 9.3275 -0.448425 0.835236 0
M  V30 81 H 9.0335 -2.1611 2.77469 0
M  V30 82 H 8.9075 -3.43007 1.56927 0
M  V30 83 H 11.2945 -2.85023 0.764569 0
M  V30 84 H 11.3755 -1.58992 2.00387 0
M  V30 85 H 11.0195 -3.36699 3.80258 0
M  V30 86 H 10.9495 -4.61609 2.53425 0
M  V30 87 H 13.4405 -3.09944 2.16201 0
M  V30 88 H 13.7535 -5.95981 4.91962 0
M  V30 89 H 12.0985 -5.36424 4.41899 0
M  V30 90 H 15.2895 -3.79042 2.74672 0
M  V30 91 H 15.4625 -5.09491 4.00404 0
M  V30 92 N 8.8686 -0.792821 -1.36206 0
M  V30 93 C 9.8316 -0.199459 -2.2833 0
M  V30 94 C 10.8316 0.605189 -1.48977 0
M  V30 95 O 12.0216 0.425685 -1.68919 0
M  V30 96 C 9.1536 0.723523 -3.33134 0
M  V30 97 H 10.3466 -1.01181 -2.82316 0
M  V30 98 H 7.8996 -0.562485 -1.45828 0
M  V30 99 H 8.6346 1.56008 -2.84309 0
M  V30 100 H 8.4196 0.148436 -3.91819 0
M  V30 101 H 9.9096 1.13344 -4.01924 0
M  V30 102 N 10.3467 1.47872 -0.545128 0
M  V30 103 C 11.5927 2.03385 -0.0247951 0
M  V30 104 C 11.9477 1.41325 1.30556 0
M  V30 105 O 11.2407 0.5552 1.8338 0
M  V30 106 C 11.4347 3.57131 0.13867 0
M  V30 107 C 11.2637 4.34097 -1.17429 0
M  V30 108 C 10.0337 4.74458 -1.73831 0
M  V30 109 C 12.2317 4.6998 -2.08861 0
M  V30 110 N 10.2137 5.3602 -2.99258 0
M  V30 111 C 11.5847 5.31719 -3.18866 0
M  V30 112 C 13.6397 4.5191 -2.09003 0
M  V30 113 C 12.3427 5.77295 -4.29096 0
M  V30 114 C 14.3687 4.98477 -3.18237 0
M  V30 115 C 13.7307 5.60253 -4.26961 0
M  V30 116 H 9.8297 0.780339 -0.050943 0
M  V30 117 H 12.4137 1.80507 -0.729753 0
M  V30 118 H 10.5847 3.79802 0.812733 0
M  V30 119 H 12.3167 3.99282 0.659976 0
M  V30 120 H 9.0717 4.56037 -1.2778 0
M  V30 121 H 9.4957 5.71355 -3.63157 0
M  V30 122 H 14.1377 4.03516 -1.26234 0
M  V30 123 H 11.8557 6.24687 -5.12633 0
M  V30 124 H 15.4417 4.86274 -3.1942 0
M  V30 125 H 14.3217 5.95631 -5.10091 0
M  V30 126 N 11.8248 0.280983 1.55075 0
M  V30 127 C 13.0728 -0.333455 1.9933 0
M  V30 128 C 13.3938 -1.55937 1.17085 0
M  V30 129 O 12.6638 -1.94143 0.261805 0
M  V30 130 H 11.2438 -0.126197 0.736263 0
M  V30 131 H 13.9058 0.387678 1.91005 0
M  V30 132 H 13.0018 -0.619292 3.05894 0
M  V30 133 N 13.3029 -1.57598 0.00835791 0
M  V30 134 C 14.2329 -2.1198 -0.979113 0
M  V30 135 C 15.2139 -1.03091 -1.35301 0
M  V30 136 O 16.3989 -1.30818 -1.43528 0
M  V30 137 C 13.5289 -2.62995 -2.26828 0
M  V30 138 C 12.4829 -3.76485 -2.03576 0
M  V30 139 C 11.8089 -4.13846 -3.38579 0
M  V30 140 C 13.1089 -5.0342 -1.39161 0
M  V30 141 H 14.8029 -2.94738 -0.526281 0
M  V30 142 H 12.3489 -1.41783 -0.251704 0
M  V30 143 H 14.3019 -2.99669 -2.96271 0
M  V30 144 H 13.0259 -1.7737 -2.7424 0
M  V30 145 H 11.6849 -3.40217 -1.36557 0
M  V30 146 H 11.3329 -3.25232 -3.83709 0
M  V30 147 H 11.0329 -4.90312 -3.23834 0
M  V30 148 H 12.5569 -4.53086 -4.09323 0
M  V30 149 H 13.9709 -5.37812 -1.98573 0
M  V30 150 H 12.3679 -5.84746 -1.34878 0
M  V30 151 H 13.4379 -4.83548 -0.361868 0
M  V30 152 N 14.781 0.264519 -1.55364 0
M  V30 153 C 16.197 0.61215 -1.47394 0
M  V30 154 C 16.397 1.89134 -0.695018 0
M  V30 155 O 15.453 2.51563 -0.217275 0
M  V30 156 C 16.766 0.731235 -2.91674 0
M  V30 157 C 18.314 0.82473 -3.01939 0
M  V30 158 C 18.789 0.975522 -4.4749 0
M  V30 159 N 20.28 1.04083 -4.51354 0
M  V30 160 C 21.015 1.17646 -5.61201 0
M  V30 161 N 20.511 1.27874 -6.80896 0
M  V30 162 N 22.304 1.20823 -5.48961 0
M  V30 163 H 14.455 -0.575456 -2.04456 0
M  V30 164 H 16.718 -0.196099 -0.927496 0
M  V30 165 H 16.424 -0.138392 -3.51428 0
M  V30 166 H 16.298 1.60883 -3.41169 0
M  V30 167 H 18.685 1.68482 -2.42276 0
M  V30 168 H 18.766 -0.0776479 -2.55682 0
M  V30 169 H 18.41 0.120058 -5.07758 0
M  V30 170 H 18.34 1.89268 -4.91412 0
M  V30 171 H 20.831 0.973846 -3.65136 0
M  V30 172 H 21.144 1.38081 -7.60364 0
M  V30 173 H 19.489 1.24863 -6.83692 0
M  V30 174 H 22.68 1.12469 -4.54388 0
M  V30 175 H 22.853 1.31049 -6.3461 0
M  V30 176 N 16.2591 1.48442 0.529413 0
M  V30 177 C 17.1891 1.65902 1.64313 0
M  V30 178 C 18.1701 0.507897 1.6234 0
M  V30 179 O 19.3551 0.740503 1.79528 0
M  V30 180 C 16.4851 1.69911 3.02898 0
M  V30 181 C 15.4391 2.8453 3.19729 0
M  V30 182 C 14.7651 2.73629 4.59381 0
M  V30 183 C 16.0651 4.25821 3.02447 0
M  V30 184 H 17.7591 2.5914 1.49955 0
M  V30 185 H 15.3051 1.24709 0.719982 0
M  V30 186 H 17.2581 1.80715 3.80684 0
M  V30 187 H 15.9821 0.732524 3.18279 0
M  V30 188 H 14.6411 2.73283 2.44361 0
M  V30 189 H 14.2891 1.74938 4.71599 0
M  V30 190 H 13.9891 3.50541 4.71588 0
M  V30 191 H 15.5131 2.86401 5.39265 0
M  V30 192 H 16.9271 4.37898 3.70024 0
M  V30 193 H 15.3241 5.03735 3.26146 0
M  V30 194 H 16.3941 4.42244 1.98867 0
M  V30 195 N 17.7372 -0.778329 1.37039 0
M  V30 196 C 18.9852 -1.53361 1.31623 0
M  V30 197 C 19.3062 -1.94739 -0.100831 0
M  V30 198 O 18.5762 -1.65797 -1.04347 0
M  V30 199 H 17.1562 -0.568794 0.484234 0
M  V30 200 H 19.8182 -0.926742 1.71457 0
M  V30 201 H 18.9142 -2.43606 1.95096 0
M  V30 202 N 19.2153 -1.21501 -1.00376 0
M  V30 203 C 20.6313 -0.972629 -1.26539 0
M  V30 204 C 20.8313 0.340257 -1.98606 0
M  V30 205 O 19.8873 1.06561 -2.28913 0
M  V30 206 C 21.2003 -2.16404 -2.08781 0
M  V30 207 C 22.7483 -2.20643 -2.22004 0
M  V30 208 C 23.2233 -3.39306 -3.07629 0
M  V30 209 N 24.7143 -3.39401 -3.15217 0
M  V30 210 C 25.4493 -4.27867 -3.81729 0
M  V30 211 N 24.9453 -5.26533 -4.5026 0
M  V30 212 N 26.7383 -4.15672 -3.78382 0
M  V30 213 H 18.8893 -2.05929 -0.520281 0
M  V30 214 H 21.1523 -0.901803 -0.292328 0
M  V30 215 H 20.8583 -3.11554 -1.63178 0
M  V30 216 H 20.7323 -2.15567 -3.09533 0
M  V30 217 H 23.1193 -1.26048 -2.66825 0
M  V30 218 H 23.2003 -2.25523 -1.20718 0
M  V30 219 H 22.8443 -4.34195 -2.63509 0
M  V30 220 H 22.7743 -3.31665 -4.09031 0
M  V30 221 H 25.2653 -2.67997 -2.66432 0
M  V30 222 H 25.5783 -5.90337 -4.98721 0
M  V30 223 H 23.9233 -5.30457 -4.49044 0
M  V30 224 H 27.1143 -3.3785 -3.23998 0
M  V30 225 H 27.2873 -4.84825 -4.2994 0
M  V30 226 N 20.6934 1.19889 -1.02296 0
M  V30 227 C 21.9414 1.89046 -0.714558 0
M  V30 228 C 22.2624 1.79636 0.758681 0
M  V30 229 O 21.5324 1.20292 1.54618 0
M  V30 230 H 20.1124 0.699802 -0.261317 0
M  V30 231 H 22.7744 1.45574 -1.29592 0
M  V30 232 H 21.8704 2.95524 -1.0036 0
M  V30 233 N 22.1715 0.800033 1.35784 0
M  V30 234 C 23.4175 0.377901 1.99248 0
M  V30 235 C 23.7505 -1.05052 1.63333 0
M  V30 236 O 23.0255 -1.72768 0.893385 0
M  V30 237 C 23.3085 0.553922 3.55814 0
M  V30 238 C 23.1615 2.0268 4.01548 0
M  V30 239 C 24.4805 -0.0244802 4.40093 0
M  V30 240 H 21.5995 0.138782 0.723815 0
M  V30 241 H 24.2415 1.00835 1.61035 0
M  V30 242 H 22.3915 0.0172398 3.88496 0
M  V30 243 H 24.0635 2.62536 3.79305 0
M  V30 244 H 22.3065 2.5256 3.52698 0
M  V30 245 H 22.9775 2.10087 5.10458 0
M  V30 246 H 25.4535 0.433775 4.13833 0
M  V30 247 H 24.3295 0.128637 5.48749 0
M  V30 248 H 24.5905 -1.11758 4.27741 0
M  V30 249 N 23.6496 -1.47581 0.552962 0
M  V30 250 C 24.8976 -2.02082 0.0272703 0
M  V30 251 C 25.2186 -1.4301 -1.32563 0
M  V30 252 O 24.4886 -0.603745 -1.86365 0
M  V30 253 H 23.0686 -0.746966 0.00709182 0
M  V30 254 H 25.7306 -1.81033 0.722008 0
M  V30 255 H 24.8266 -3.12034 -0.0639951 0
M  V30 256 N 25.1277 -0.289203 -1.54924 0
M  V30 257 C 26.3757 0.322879 -1.99504 0
M  V30 258 C 26.6967 1.55313 -1.1791 0
M  V30 259 O 25.9667 1.94001 -0.272097 0
M  V30 260 H 24.5467 0.122291 -0.736922 0
M  V30 261 H 27.2087 -0.397802 -1.90797 0
M  V30 262 H 26.3047 0.603061 -3.06218 0
M  V30 263 N 26.6058 1.57591 -0.0167156 0
M  V30 264 C 27.8538 1.90906 0.663285 0
M  V30 265 C 28.1748 0.892509 1.73376 0
M  V30 266 O 27.4448 -0.0677623 1.95783 0
M  V30 267 H 26.0248 0.704637 0.247983 0
M  V30 268 H 28.6868 1.94803 -0.0615909 0
M  V30 269 H 27.7828 2.9116 1.12393 0
M  V30 270 N 28.0839 -0.256276 1.55502 0
M  V30 271 C 29.4999 -0.604325 1.47716 0
M  V30 272 C 29.6999 -1.88763 0.705039 0
M  V30 273 O 28.7559 -2.51445 0.230613 0
M  V30 274 C 30.0689 -0.715756 2.92057 0
M  V30 275 C 31.6169 -0.808706 3.02372 0
M  V30 276 C 32.0919 -0.951777 4.48001 0
M  V30 277 N 33.5829 -1.01688 4.519 0
M  V30 278 C 34.3179 -1.14668 5.61817 0
M  V30 279 N 33.8139 -1.24261 6.81565 0
M  V30 280 N 35.6069 -1.1791 5.49594 0
M  V30 281 H 27.7579 0.586291 2.04148 0
M  V30 282 H 30.0209 0.201015 0.926443 0
M  V30 283 H 29.7269 0.157027 3.51349 0
M  V30 284 H 29.6009 -1.59071 3.42018 0
M  V30 285 H 31.9879 -1.67195 2.43166 0
M  V30 286 H 32.0689 0.0912063 2.55637 0
M  V30 287 H 31.7129 -0.0931291 5.07815 0
M  V30 288 H 31.6429 -1.86659 4.92408 0
M  V30 289 H 34.1339 -0.954468 3.65648 0
M  V30 290 H 34.4469 -1.34046 7.61086 0
M  V30 291 H 32.7919 -1.21236 6.84344 0
M  V30 292 H 35.9829 -1.10057 4.54978 0
M  V30 293 H 36.1559 -1.27681 6.35296 0
M  V30 294 N 29.562 -1.4872 -0.521534 0
M  V30 295 C 30.978 -1.35028 -0.850855 0
M  V30 296 C 31.178 -0.367712 -1.98116 0
M  V30 297 O 30.234 0.208037 -2.51642 0
M  V30 298 C 31.547 -2.75263 -1.21041 0
M  V30 299 C 33.095 -2.83813 -1.31981 0
M  V30 300 C 33.57 -4.24769 -1.71276 0
M  V30 301 N 35.061 -4.27482 -1.78363 0
M  V30 302 C 35.796 -5.33494 -2.1017 0
M  V30 303 N 35.292 -6.49775 -2.40343 0
M  V30 304 N 37.085 -5.20894 -2.11248 0
M  V30 305 H 29.236 -2.11214 0.22413 0
M  V30 306 H 31.499 -0.947252 0.0376439 0
M  V30 307 H 31.205 -3.48765 -0.453415 0
M  V30 308 H 31.079 -3.09327 -2.15863 0
M  V30 309 H 33.466 -2.10561 -2.06756 0
M  V30 310 H 33.547 -2.53358 -0.352596 0
M  V30 311 H 33.191 -4.9854 -0.970588 0
M  V30 312 H 33.121 -4.52673 -2.69062 0
M  V30 313 H 35.612 -3.43611 -1.57288 0
M  V30 314 H 35.925 -7.26402 -2.63743 0
M  V30 315 H 34.27 -6.53035 -2.37844 0
M  V30 316 H 37.461 -4.29065 -1.87139 0
M  V30 317 H 37.634 -6.03612 -2.35704 0
M  V30 318 N 31.0401 0.771051 -1.3745 0
M  V30 319 C 31.9701 1.89827 -1.3597 0
M  V30 320 C 32.9511 1.68562 -0.228216 0
M  V30 321 O 34.1361 1.8941 -0.428675 0
M  V30 322 C 31.2661 3.2712 -1.16662 0
M  V30 323 C 30.2201 3.6295 -2.2683 0
M  V30 324 C 29.5461 4.98791 -1.92644 0
M  V30 325 C 30.8461 3.69627 -3.69017 0
M  V30 326 H 32.5401 1.91323 -2.30295 0
M  V30 327 H 30.0861 0.919082 -1.10855 0
M  V30 328 H 32.0391 4.05615 -1.14256 0
M  V30 329 H 30.7631 3.26059 -0.187926 0
M  V30 330 H 29.4221 2.86763 -2.28392 0
M  V30 331 H 29.0701 4.94271 -0.933021 0
M  V30 332 H 28.7701 5.23733 -2.66416 0
M  V30 333 H 30.2941 5.79685 -1.91826 0
M  V30 334 H 31.7081 4.38273 -3.69581 0
M  V30 335 H 30.1051 4.06067 -4.41848 0
M  V30 336 H 31.1751 2.70273 -4.02592 0
M  V30 337 N 32.5182 1.22032 0.997298 0
M  V30 338 C 33.4812 0.987909 2.06816 0
M  V30 339 C 34.4812 -0.0440084 1.6074 0
M  V30 340 O 35.6712 0.194053 1.73116 0
M  V30 341 C 32.8032 0.49132 3.37341 0
M  V30 342 H 33.9962 1.93803 2.28868 0
M  V30 343 H 31.5492 1.03838 1.16822 0
M  V30 344 H 32.2842 -0.463364 3.20973 0
M  V30 345 H 32.0692 1.23575 3.72118 0
M  V30 346 H 33.5592 0.348824 4.16141 0
M  V30 347 N 33.9963 -1.19345 1.0293 0
M  V30 348 C 35.2443 -1.88665 0.724574 0
M  V30 349 C 35.5653 -1.80036 -0.749144 0
M  V30 350 O 34.8353 -1.2111 -1.53978 0
M  V30 351 H 33.4153 -0.698406 0.265025 0
M  V30 352 H 36.0773 -1.44885 1.30362 0
M  V30 353 H 35.1733 -2.94987 1.01926 0
M  V30 354 N 35.4744 -0.807222 -1.35358 0
M  V30 355 C 36.7224 -0.387122 -1.98358 0
M  V30 356 C 37.0434 1.04942 -1.64354 0
M  V30 357 O 36.3134 1.72615 -0.926339 0
M  V30 358 H 34.8934 -0.140154 -0.733734 0
M  V30 359 H 37.5554 -1.0332 -1.6526 0
M  V30 360 H 36.6514 -0.493352 -3.08176 0
M  V30 361 N 36.9525 1.47285 -0.560781 0
M  V30 362 C 38.1775 2.07359 -0.0410566 0
M  V30 363 C 38.6025 1.41017 1.24483 0
M  V30 364 O 37.9605 0.486368 1.74654 0
M  V30 365 C 38.0085 3.6035 0.134123 0
M  V30 366 O 37.1125 3.94681 1.19587 0
M  V30 367 H 36.4535 0.661887 -0.0529291 0
M  V30 368 H 38.9835 1.89252 -0.777482 0
M  V30 369 H 38.9935 4.0652 0.347207 0
M  V30 370 H 37.6685 4.08034 -0.805047 0
M  V30 371 H 36.2455 3.60251 0.962987 0
M  V30 372 N 38.4306 0.297415 1.54768 0
M  V30 373 C 39.6786 -0.312295 1.99673 0
M  V30 374 C 39.9996 -1.54686 1.18732 0
M  V30 375 O 39.2696 -1.93854 0.282382 0
M  V30 376 H 37.8496 -0.118381 0.73756 0
M  V30 377 H 40.5116 0.407915 1.90583 0
M  V30 378 H 39.6076 -0.586813 3.06534 0
M  V30 379 N 39.9087 -1.5758 0.0250728 0
M  V30 380 C 41.3197 -1.79476 -0.514323 0
M  V30 381 C 41.6707 -0.934956 -1.72491 0
M  V30 382 O 40.7957 -0.144245 -2.15919 0
M  V30 383 C 41.3907 -3.25503 -0.939842 0
M  V30 384 C 39.9497 -3.48408 -1.42438 0
M  V30 385 C 39.0967 -2.74583 -0.387201 0
M  V30 386 H 42.0477 -1.567 0.25113 0
M  V30 387 H 42.0687 -3.34992 -1.80445 0
M  V30 388 H 41.5807 -3.88056 -0.0585628 0
M  V30 389 H 39.6817 -2.91103 -2.32572 0
M  V30 390 H 39.7947 -4.57119 -1.43455 0
M  V30 391 H 38.1587 -2.39942 -0.854409 0
M  V30 392 H 38.9417 -3.39849 0.485543 0
M  V30 393 N 41.3868 0.248026 -1.55636 0
M  V30 394 C 42.6268 0.983592 -1.79178 0
M  V30 395 C 42.9908 1.82567 -0.594414 0
M  V30 396 O 44.1918 2.59292 -0.708583 0
M  V30 397 C 42.4628 1.82228 -3.07454 0
M  V30 398 S 44.0218 2.61709 -3.52213 0
M  V30 399 H 40.8398 0.330866 -0.629324 0
M  V30 400 H 43.4418 0.251562 -1.93875 0
M  V30 401 H 42.1458 1.19333 -3.92668 0
M  V30 402 H 41.6768 2.59708 -2.95492 0
M  V30 403 H 43.6918 3.84655 -3.13457 0
M  V30 404 N 42.8649 1.48995 0.513639 0
M  V30 405 C 44.1109 1.59053 1.26783 0
M  V30 406 C 44.4659 0.268136 1.90522 0
M  V30 407 O 43.7589 -0.730534 1.77126 0
M  V30 408 C 43.9529 2.67756 2.36731 0
M  V30 409 C 43.7819 4.10437 1.83771 0
M  V30 410 C 42.5519 4.7738 1.65639 0
M  V30 411 C 44.7499 4.9608 1.35681 0
M  V30 412 N 42.7319 6.04419 1.07476 0
M  V30 413 C 44.1029 6.13496 0.895715 0
M  V30 414 C 46.1579 4.82177 1.24136 0
M  V30 415 C 44.8609 7.1854 0.3306 0
M  V30 416 C 46.8869 5.87358 0.690229 0
M  V30 417 C 46.2489 7.03993 0.239292 0
M  V30 418 H 42.3479 0.636463 0.454355 0
M  V30 419 H 44.9319 1.85948 0.577196 0
M  V30 420 H 43.1029 2.42655 3.03271 0
M  V30 421 H 44.8349 2.67406 3.0377 0
M  V30 422 H 41.5899 4.33974 1.8964 0
M  V30 423 H 42.0139 6.72214 0.803579 0
M  V30 424 H 46.6559 3.92329 1.57601 0
M  V30 425 H 44.3739 8.08098 -0.0163435 0
M  V30 426 H 47.9599 5.78658 0.603852 0
M  V30 427 H 46.8399 7.83992 -0.180526 0
M  V30 428 N 44.343 -0.763751 1.37857 0
M  V30 429 C 45.306 -1.85889 1.34081 0
M  V30 430 C 46.306 -1.58949 0.243277 0
M  V30 431 O 47.496 -1.66882 0.499589 0
M  V30 432 C 44.628 -3.23176 1.08489 0
M  V30 433 H 45.821 -1.90648 2.31502 0
M  V30 434 H 43.374 -0.964367 1.23003 0
M  V30 435 H 44.109 -3.24091 0.116318 0
M  V30 436 H 43.894 -3.44124 1.8794 0
M  V30 437 H 45.384 -4.03254 1.08517 0
M  V30 438 N 45.8211 -1.22559 -0.990812 0
M  V30 439 C 47.2321 -1.04791 -1.54518 0
M  V30 440 C 47.5831 0.387998 -1.92325 0
M  V30 441 O 46.7081 1.27328 -1.74976 0
M  V30 442 C 47.3031 -1.896 -2.80779 0
M  V30 443 C 45.8621 -1.76124 -3.32652 0
M  V30 444 C 45.0091 -1.8594 -2.05722 0
M  V30 445 H 47.9601 -1.36374 -0.811662 0
M  V30 446 H 47.9811 -1.41464 -3.53225 0
M  V30 447 H 47.4931 -2.94101 -2.53231 0
M  V30 448 H 45.5941 -0.743643 -3.65104 0
M  V30 449 H 45.7071 -2.58913 -4.03114 0
M  V30 450 H 44.0711 -1.29403 -2.19379 0
M  V30 451 H 44.8541 -2.91976 -1.80568 0
M  V30 452 N 47.2992 1.18797 -1.03562 0
M  V30 453 C 48.7152 1.40671 -0.753917 0
M  V30 454 C 48.9152 1.9043 0.658686 0
M  V30 455 O 47.9712 2.08538 1.42366 0
M  V30 456 C 49.2842 2.41192 -1.79574 0
M  V30 457 C 50.8322 2.54928 -1.81606 0
M  V30 458 C 51.3072 3.58709 -2.84766 0
M  V30 459 N 52.7982 3.66212 -2.83625 0
M  V30 460 C 53.5332 4.46225 -3.60098 0
M  V30 461 N 53.0292 5.29888 -4.46308 0
M  V30 462 N 54.8222 4.40939 -3.4861 0
M  V30 463 H 46.9732 0.848221 -1.94728 0
M  V30 464 H 49.2362 0.435081 -0.842264 0
M  V30 465 H 48.9422 2.11669 -2.80872 0
M  V30 466 H 48.8162 3.40467 -1.62365 0
M  V30 467 H 51.2032 2.83771 -0.809817 0
M  V30 468 H 51.2842 1.55784 -2.02891 0
M  V30 469 H 50.9282 3.30607 -3.85566 0
M  V30 470 H 50.8582 4.57519 -2.60737 0
M  V30 471 H 53.3492 3.06466 -2.21105 0
M  V30 472 H 53.6622 5.88078 -5.01382 0
M  V30 473 H 52.0072 5.29326 -4.50377 0
M  V30 474 H 55.1982 3.74624 -2.80668 0
M  V30 475 H 55.3712 5.03056 -4.08459 0
M  V30 476 N 48.7773 0.814389 1.34928 0
M  V30 477 C 50.0023 0.410097 2.03305 0
M  V30 478 C 50.4273 -0.973464 1.60951 0
M  V30 479 O 49.7853 -1.63185 0.789964 0
M  V30 480 C 49.8333 0.51049 3.56968 0
M  V30 481 O 48.9373 -0.473035 4.09678 0
M  V30 482 H 48.2783 0.170088 0.641846 0
M  V30 483 H 50.8083 1.10244 1.72358 0
M  V30 484 H 50.8183 0.383135 4.06197 0
M  V30 485 H 49.4933 1.51963 3.87144 0
M  V30 486 H 48.0703 -0.305272 3.71648 0
M  V30 487 N 50.2554 -1.46986 0.568584 0
M  V30 488 C 51.6714 -1.57946 0.229189 0
M  V30 489 C 51.8714 -1.56567 -1.26843 0
M  V30 490 O 50.9274 -1.47511 -2.04931 0
M  V30 491 C 52.2404 -2.87963 0.865909 0
M  V30 492 C 53.7884 -3.01568 0.838188 0
M  V30 493 C 54.2634 -4.34301 1.45419 0
M  V30 494 N 55.7544 -4.40965 1.41788 0
M  V30 495 C 56.4894 -5.42256 1.86403 0
M  V30 496 N 55.9854 -6.50297 2.38926 0
M  V30 497 N 57.7784 -5.3337 1.77405 0
M  V30 498 H 49.9294 -1.46126 1.54146 0
M  V30 499 H 52.1924 -0.696156 0.643484 0
M  V30 500 H 51.8984 -2.94742 1.91886 0
M  V30 501 H 51.7724 -3.75423 0.365687 0
M  V30 502 H 54.1594 -2.94379 -0.206106 0
M  V30 503 H 54.2404 -2.1562 1.37629 0
M  V30 504 H 53.8844 -4.42247 2.49761 0
M  V30 505 H 53.8144 -5.19 0.891435 0
M  V30 506 H 56.3054 -3.63484 1.03381 0
M  V30 507 H 56.6184 -7.23777 2.70863 0
M  V30 508 H 54.9634 -6.51155 2.42944 0
M  V30 509 H 58.1544 -4.47865 1.3614 0
M  V30 510 H 58.3274 -6.12169 2.12492 0
M  V30 511 N 51.7335 -0.305618 -1.54608 0
M  V30 512 C 53.0105 0.355652 -1.92339 0
M  V30 513 C 53.3905 1.71324 -1.23335 0
M  V30 514 O 52.7385 2.25473 -0.370702 0
M  V30 515 C 52.9485 0.46572 -3.45879 0
M  V30 516 C 54.2965 0.734426 -4.182 0
M  V30 517 O 55.3205 0.54935 -3.51938 0
M  V30 518 O 54.1795 1.09024 -5.35515 0
M  V30 519 H 51.2735 0.199666 -0.802535 0
M  V30 520 H 53.8195 -0.354017 -1.65966 0
M  V30 521 H 52.5915 -0.488461 -3.88239 0
M  V30 522 H 52.2145 1.22367 -3.78301 0
M  V30 523 N 53.2116 1.57565 -0.0334293 0
M  V30 524 C 54.4366 1.96689 0.657895 0
M  V30 525 C 54.8616 0.910057 1.64619 0
M  V30 526 O 54.2196 -0.128598 1.80843 0
M  V30 527 C 54.2676 3.34905 1.33683 0
M  V30 528 O 53.3716 3.31574 2.45219 0
M  V30 529 H 52.7126 0.641205 0.172489 0
M  V30 530 H 55.2426 2.04372 -0.0965621 0
M  V30 531 H 55.2526 3.71234 1.69262 0
M  V30 532 H 53.9276 4.11366 0.612411 0
M  V30 533 H 52.5046 3.06968 2.11719 0
M  V30 534 N 54.6897 -0.239769 1.55765 0
M  V30 535 C 55.9147 -0.988373 1.82335 0
M  V30 536 C 56.3397 -1.77886 0.611421 0
M  V30 537 O 55.6977 -1.75889 -0.439639 0
M  V30 538 C 55.7457 -1.89627 3.06715 0
M  V30 539 O 54.8497 -2.98904 2.84131 0
M  V30 540 H 54.1907 -0.280858 0.601677 0
M  V30 541 H 56.7207 -0.258597 2.02959 0
M  V30 542 H 56.7307 -2.30957 3.36338 0
M  V30 543 H 55.4057 -1.31511 3.9456 0
M  V30 544 H 53.9827 -2.61651 2.65694 0
M  V30 545 N 56.1678 -1.49265 -0.50573 0
M  V30 546 C 57.3928 -1.62478 -1.28902 0
M  V30 547 C 57.8178 -0.294332 -1.85783 0
M  V30 548 O 57.1758 0.737412 -1.65626 0
M  V30 549 C 57.2238 -2.69268 -2.39848 0
M  V30 550 O 56.3278 -2.28113 -3.43567 0
M  V30 551 H 55.6688 -0.54399 -0.380751 0
M  V30 552 H 58.1988 -1.95421 -0.605952 0
M  V30 553 H 58.2088 -2.91291 -2.85681 0
M  V30 554 H 56.8838 -3.65846 -1.97812 0
M  V30 555 H 55.4608 -2.16401 -3.03685 0
M  V30 556 N 57.6459 0.756429 -1.3826 0
M  V30 557 C 58.8939 1.51248 -1.34047 0
M  V30 558 C 59.2149 1.94875 0.0698372 0
M  V30 559 O 58.4849 1.67436 1.01696 0
M  V30 560 H 57.0649 0.561018 -0.493222 0
M  V30 561 H 59.7269 0.899347 -1.7291 0
M  V30 562 H 58.8229 2.40472 -1.98947 0
M  V30 563 N 59.124 1.23083 0.984299 0
M  V30 564 C 60.372 1.05848 1.72165 0
M  V30 565 C 60.693 -0.406049 1.90726 0
M  V30 566 O 59.963 -1.29139 1.47309 0
M  V30 567 H 58.543 0.388685 0.637913 0
M  V30 568 H 61.205 1.54736 1.18503 0
M  V30 569 H 60.301 1.54327 2.71274 0
M  V30 570 N 60.6021 -1.18246 1.0419 0
M  V30 571 C 61.8501 -1.87886 0.744543 0
M  V30 572 C 62.1711 -1.8082 -0.730006 0
M  V30 573 O 61.4411 -1.22736 -1.52685 0
M  V30 574 H 60.0211 -0.695556 0.272417 0
M  V30 575 H 62.6831 -1.43494 1.31892 0
M  V30 576 H 61.7791 -2.9389 1.05049 0
M  V30 577 N 62.0802 -0.821533 -1.34494 0
M  V30 578 C 63.3572 -0.33159 -1.92769 0
M  V30 579 C 63.7372 1.18088 -1.74981 0
M  V30 580 O 63.0852 1.98733 -1.12772 0
M  V30 581 C 63.2952 -0.759398 -3.40638 0
M  V30 582 C 64.6432 -0.757433 -4.1779 0
M  V30 583 O 65.6672 -0.70189 -3.49216 0
M  V30 584 O 64.5262 -0.829361 -5.4017 0
M  V30 585 H 61.6202 -0.0902502 -0.822061 0
M  V30 586 H 64.1662 -0.906231 -1.43477 0
M  V30 587 H 62.9382 -1.8012 -3.47379 0
M  V30 588 H 62.5612 -0.160378 -3.97276 0
M  V30 589 N 63.5583 1.46682 -0.576371 0
M  V30 590 C 64.7833 2.07304 -0.0630475 0
M  V30 591 C 65.2083 1.42329 1.2298 0
M  V30 592 O 64.5663 0.504865 1.74129 0
M  V30 593 C 64.6143 3.60472 0.095895 0
M  V30 594 O 63.7183 3.95927 1.15394 0
M  V30 595 H 63.0593 0.661288 -0.0599463 0
M  V30 596 H 65.5893 1.88417 -0.797511 0
M  V30 597 H 65.5993 4.06865 0.304071 0
M  V30 598 H 64.2743 4.07157 -0.84828 0
M  V30 599 H 62.8513 3.61252 0.924724 0
M  V30 600 N 65.0364 0.313813 1.54444 0
M  V30 601 C 65.9994 -0.54379 2.22656 0
M  V30 602 C 66.9994 -1.05124 1.21678 0
M  V30 603 O 68.1894 -0.945225 1.46325 0
M  V30 604 C 65.3214 -1.75427 2.92298 0
M  V30 605 H 66.5144 0.0523599 2.99854 0
M  V30 606 H 64.0674 0.0647834 1.56166 0
M  V30 607 H 64.8024 -2.38991 2.19211 0
M  V30 608 H 64.5874 -1.39791 3.66334 0
M  V30 609 H 66.0774 -2.36325 3.44297 0
M  V30 610 N 66.5145 -1.57545 0.0417849 0
M  V30 611 C 67.4775 -2.09885 -0.92093 0
M  V30 612 C 68.4775 -1.01648 -1.24596 0
M  V30 613 O 69.6675 -1.27759 -1.1842 0
M  V30 614 C 66.7995 -2.57527 -2.23367 0
M  V30 615 H 67.9925 -2.96236 -0.467382 0
M  V30 616 H 65.5455 -1.5493 -0.206467 0
M  V30 617 H 66.2805 -1.74542 -2.73323 0
M  V30 618 H 66.0655 -3.36613 -2.01083 0
M  V30 619 H 67.5555 -2.98201 -2.92346 0
M  V30 620 N 67.9926 0.231505 -1.5589 0
M  V30 621 C 68.9556 1.27028 -1.90779 0
M  V30 622 C 69.9556 1.40308 -0.785507 0
M  V30 623 O 71.1456 1.38744 -1.05336 0
M  V30 624 C 68.2776 2.64566 -2.14983 0
M  V30 625 H 69.4706 0.973017 -2.83677 0
M  V30 626 H 67.0236 0.471486 -1.49019 0
M  V30 627 H 67.7586 2.99406 -1.24604 0
M  V30 628 H 67.5436 2.56305 -2.96732 0
M  V30 629 H 69.0336 3.39543 -2.43105 0
M  V30 630 N 69.4707 1.49531 0.497807 0
M  V30 631 C 70.7187 1.58865 1.24926 0
M  V30 632 C 71.0397 0.278721 1.92998 0
M  V30 633 O 70.3097 -0.702144 1.82885 0
M  V30 634 H 68.8897 0.585343 0.464094 0
M  V30 635 H 71.5517 1.86174 0.57666 0
M  V30 636 H 70.6477 2.38633 2.01149 0
M  V30 637 N 70.9488 -0.749086 1.3866 0
M  V30 638 C 71.9118 -1.84457 1.36045 0
M  V30 639 C 72.9118 -1.58682 0.260122 0
M  V30 640 O 74.1018 -1.66343 0.517261 0
M  V30 641 C 71.2338 -3.22008 1.11911 0
M  V30 642 H 72.4268 -1.88182 2.33512 0
M  V30 643 H 69.9798 -0.951266 1.24019 0
M  V30 644 H 70.7148 -3.2395 0.150686 0
M  V30 645 H 70.4998 -3.42111 1.91579 0
M  V30 646 H 71.9898 -4.0208 1.12788 0
M  V30 647 N 72.4269 -1.23603 -0.977757 0
M  V30 648 C 73.6519 -1.09735 -1.75991 0
M  V30 649 C 74.0769 0.346858 -1.84874 0
M  V30 650 O 73.4349 1.25093 -1.3123 0
M  V30 651 C 73.4829 -1.73051 -3.16363 0
M  V30 652 O 72.5869 -0.994452 -4.0023 0
M  V30 653 H 71.9279 -0.384476 -0.541364 0
M  V30 654 H 74.4579 -1.6371 -1.2272 0
M  V30 655 H 74.4679 -1.78398 -3.66931 0
M  V30 656 H 73.1429 -2.78137 -3.09213 0
M  V30 657 H 71.7199 -1.01812 -3.58732 0
M  V30 658 N 73.905 1.17692 -1.04816 0
M  V30 659 C 75.321 1.39863 -0.768794 0
M  V30 660 C 75.521 1.91118 0.638451 0
M  V30 661 O 74.577 2.10036 1.40146 0
M  V30 662 C 75.89 2.39274 -1.82122 0
M  V30 663 C 77.438 2.52987 -1.843 0
M  V30 664 C 77.913 3.55669 -2.88555 0
M  V30 665 N 79.404 3.63183 -2.87493 0
M  V30 666 C 80.139 4.42381 -3.64811 0
M  V30 667 N 79.635 5.25125 -4.51903 0
M  V30 668 N 81.428 4.37217 -3.53267 0
M  V30 669 H 73.579 0.82752 -1.95617 0
M  V30 670 H 75.842 0.426123 -0.846831 0
M  V30 671 H 75.548 2.08678 -2.83102 0
M  V30 672 H 75.422 3.38725 -1.65967 0
M  V30 673 H 77.809 2.82896 -0.839869 0
M  V30 674 H 77.89 1.53623 -2.04532 0
M  V30 675 H 77.534 3.26499 -3.89051 0
M  V30 676 H 77.464 4.54728 -2.65575 0
M  V30 677 H 79.955 3.04103 -2.24343 0
M  V30 678 H 80.268 5.82728 -5.07591 0
M  V30 679 H 78.613 5.24519 -4.55966 0
M  V30 680 H 81.804 3.71626 -2.84625 0
M  V30 681 H 81.977 4.98696 -4.13771 0
M  V30 682 N 75.3831 0.828654 1.34056 0
M  V30 683 C 76.3131 0.269443 2.3194 0
M  V30 684 C 77.2941 -0.617247 1.58506 0
M  V30 685 O 78.4791 -0.542931 1.86456 0
M  V30 686 C 75.6091 -0.564793 3.42677 0
M  V30 687 C 74.5631 0.225241 4.27407 0
M  V30 688 C 73.8891 -0.7321 5.29664 0
M  V30 689 C 75.1891 1.43663 5.02154 0
M  V30 690 H 76.8831 1.08728 2.7896 0
M  V30 691 H 74.4291 0.524283 1.34117 0
M  V30 692 H 76.3821 -0.966233 4.10173 0
M  V30 693 H 75.1061 -1.41574 2.9432 0
M  V30 694 H 73.7651 0.608117 3.61521 0
M  V30 695 H 73.4131 -1.57916 4.77568 0
M  V30 696 H 73.1131 -0.20767 5.87233 0
M  V30 697 H 74.6371 -1.13128 6.00029 0
M  V30 698 H 76.0511 1.1089 5.62473 0
M  V30 699 H 74.4481 1.89711 5.69324 0
M  V30 700 H 75.5181 2.21181 4.31517 0
M  V30 701 N 76.8612 -1.46375 0.584142 0
M  V30 702 C 77.7912 -2.33103 -0.136037 0
M  V30 703 C 78.7722 -1.45431 -0.882255 0
M  V30 704 O 79.9572 -1.74246 -0.857434 0
M  V30 705 C 77.0872 -3.27731 -1.14933 0
M  V30 706 C 76.0412 -4.24855 -0.517862 0
M  V30 707 C 75.3672 -5.09001 -1.63773 0
M  V30 708 C 76.6672 -5.19439 0.545886 0
M  V30 709 H 78.3612 -2.93568 0.588086 0
M  V30 710 H 75.9072 -1.41166 0.284259 0
M  V30 711 H 77.8602 -3.87261 -1.66153 0
M  V30 712 H 76.5842 -2.65377 -1.90375 0
M  V30 713 H 75.2432 -3.6659 -0.0267361 0
M  V30 714 H 74.8912 -4.43031 -2.38185 0
M  V30 715 H 74.5912 -5.74777 -1.22085 0
M  V30 716 H 76.1152 -5.71396 -2.15266 0
M  V30 717 H 77.5292 -5.73177 0.118704 0
M  V30 718 H 75.9262 -5.93566 0.88317 0
M  V30 719 H 76.9962 -4.63285 1.43162 0
M  V30 720 N 78.3393 -0.321999 -1.54275 0
M  V30 721 C 79.2493 0.553631 -2.27974 0
M  V30 722 C 80.2653 1.13054 -1.32268 0
M  V30 723 O 81.4413 1.15084 -1.6528 0
M  V30 724 C 78.5063 1.69927 -3.02201 0
M  V30 725 C 77.5673 1.15433 -4.1349 0
M  V30 726 C 76.8003 2.24537 -4.84168 0
M  V30 727 O 77.0233 3.44852 -4.5435 0
M  V30 728 O 75.9573 1.90044 -5.7111 0
M  V30 729 H 79.7833 -0.0448345 -3.03667 0
M  V30 730 H 77.3683 -0.0877418 -1.49142 0
M  V30 731 H 79.2503 2.3663 -3.48689 0
M  V30 732 H 77.9253 2.28395 -2.29385 0
M  V30 733 H 76.8323 0.452436 -3.71354 0
M  V30 734 H 78.1653 0.614805 -4.88345 0
M  V30 735 N 79.8174 1.5752 -0.0501392 0
M  V30 736 C 81.2334 1.56631 0.306402 0
M  V30 737 C 81.4334 1.0577 1.71508 0
M  V30 738 O 80.4894 0.713837 2.422 0
M  V30 739 C 81.8024 3.00393 0.135811 0
M  V30 740 C 83.3504 3.12315 0.206993 0
M  V30 741 C 83.8254 4.57954 0.064944 0
M  V30 742 N 85.3164 4.63041 0.121254 0
M  V30 743 C 86.0514 5.73389 0.0354381 0
M  V30 744 N 85.5474 6.92724 -0.102666 0
M  V30 745 N 87.3404 5.62026 0.090946 0
M  V30 746 H 79.4914 1.88903 -0.971046 0
M  V30 747 H 81.7544 0.869876 -0.376855 0
M  V30 748 H 81.4604 3.41635 -0.835384 0
M  V30 749 H 81.3344 3.66373 0.897275 0
M  V30 750 H 83.7214 2.70973 1.16866 0
M  V30 751 H 83.8024 2.49016 -0.585208 0
M  V30 752 H 83.4464 4.99981 -0.893394 0
M  V30 753 H 83.3764 5.19258 0.876277 0
M  V30 754 H 85.8674 3.77216 0.227284 0
M  V30 755 H 86.1804 7.72633 -0.160882 0
M  V30 756 H 84.5254 6.94864 -0.137737 0
M  V30 757 H 87.7164 4.67684 0.197388 0
M  V30 758 H 87.8894 6.47997 0.0206089 0
M  V30 759 N 81.2955 -0.223234 1.56011 0
M  V30 760 C 82.2255 -1.27988 1.95298 0
M  V30 761 C 83.2065 -1.48976 0.820979 0
M  V30 762 O 84.3915 -1.61188 1.08315 0
M  V30 763 C 81.5215 -2.63 2.26822 0
M  V30 764 C 80.4755 -2.56671 3.42497 0
M  V30 765 C 79.8015 -3.95697 3.59622 0
M  V30 766 C 81.1015 -2.11601 4.77517 0
M  V30 767 H 82.7955 -0.953525 2.8381 0
M  V30 768 H 80.3415 -0.457244 1.36548 0
M  V30 769 H 82.2945 -3.37077 2.52898 0
M  V30 770 H 81.0185 -2.9732 1.35161 0
M  V30 771 H 79.6775 -1.85051 3.16467 0
M  V30 772 H 79.3255 -4.27322 2.6534 0
M  V30 773 H 79.0255 -3.92345 4.37424 0
M  V30 774 H 80.5495 -4.71438 3.88044 0
M  V30 775 H 81.9635 -2.7542 5.02809 0
M  V30 776 H 80.3605 -2.19311 5.5859 0
M  V30 777 H 81.4305 -1.06824 4.72987 0
M  V30 778 N 82.7736 -1.49793 -0.48987 0
M  V30 779 C 83.7036 -1.70201 -1.59856 0
M  V30 780 C 84.6846 -0.55076 -1.60937 0
M  V30 781 O 85.8696 -0.787841 -1.77501 0
M  V30 782 C 82.9996 -1.77882 -2.98287 0
M  V30 783 C 81.9536 -2.92907 -3.12073 0
M  V30 784 C 81.2796 -2.85712 -4.51965 0
M  V30 785 C 82.5796 -4.3369 -2.91051 0
M  V30 786 H 84.2736 -2.63025 -1.43032 0
M  V30 787 H 81.8196 -1.26574 -0.686664 0
M  V30 788 H 83.7726 -1.90744 -3.75759 0
M  V30 789 H 82.4966 -0.816653 -3.16225 0
M  V30 790 H 81.1556 -2.79665 -2.37029 0
M  V30 791 H 80.8036 -1.8738 -4.66795 0
M  V30 792 H 80.5036 -3.62921 -4.62128 0
M  V30 793 H 82.0276 -3.00598 -5.31482 0
M  V30 794 H 83.4416 -4.47555 -3.58284 0
M  V30 795 H 81.8386 -5.12205 -3.12675 0
M  V30 796 H 82.9086 -4.47362 -1.87071 0
M  V30 797 N 84.2517 0.741722 -1.39055 0
M  V30 798 C 85.6627 1.31966 -1.32068 0
M  V30 799 C 86.0137 1.96192 0.0180797 0
M  V30 800 O 85.1387 1.95861 0.920196 0
M  V30 801 C 85.7337 2.39954 -2.39181 0
M  V30 802 C 84.2927 2.93438 -2.35735 0
M  V30 803 C 83.4397 1.66936 -2.21422 0
M  V30 804 H 86.3907 0.539721 -1.4924 0
M  V30 805 H 86.4117 3.20182 -2.05581 0
M  V30 806 H 85.9237 1.9318 -3.36605 0
M  V30 807 H 84.0247 3.4451 -1.41929 0
M  V30 808 H 84.1377 3.4701 -3.30335 0
M  V30 809 H 82.5017 1.91016 -1.68478 0
M  V30 810 H 83.2847 1.22224 -3.20806 0
M  V30 811 N 85.7298 1.2412 0.971189 0
M  V30 812 C 87.1458 1.00584 1.23916 0
M  V30 813 C 87.3458 -0.287481 1.99439 0
M  V30 814 O 86.4018 -1.00454 2.31658 0
M  V30 815 C 87.7148 2.21864 2.0297 0
M  V30 816 C 89.2628 2.26452 2.16076 0
M  V30 817 C 89.7378 3.47343 2.98524 0
M  V30 818 N 91.2288 3.47639 3.06107 0
M  V30 819 C 91.9638 4.37837 3.70251 0
M  V30 820 N 91.4598 5.38286 4.36142 0
M  V30 821 N 93.2528 4.25558 3.67228 0
M  V30 822 H 85.4038 2.07236 0.465499 0
M  V30 823 H 87.6668 0.909236 0.268315 0
M  V30 824 H 87.3728 3.15771 1.54861 0
M  V30 825 H 87.2468 2.23698 3.03709 0
M  V30 826 H 89.6338 1.33078 2.6339 0
M  V30 827 H 89.7148 2.28645 1.14696 0
M  V30 828 H 89.3588 4.41029 2.51905 0
M  V30 829 H 89.2888 3.42393 4.00093 0
M  V30 830 H 91.7798 2.74966 2.59233 0
M  V30 831 H 92.0928 6.03352 4.82894 0
M  V30 832 H 90.4378 5.42176 4.34822 0
M  V30 833 H 93.6288 3.46322 3.14927 0
M  V30 834 H 93.8018 4.96054 4.16935 0
M  V30 835 N 87.2079 -1.17134 1.05439 0
M  V30 836 C 88.1579 -2.1919 0.627675 0
M  V30 837 C 89.1419 -1.57328 -0.337147 0
M  V30 838 O 90.3339 -1.76329 -0.153976 0
M  V30 839 C 87.4629 -3.43299 0.00651435 0
M  V30 840 C 86.5489 -4.12255 0.995312 0
M  V30 841 N 86.9399 -4.56997 2.16765 0
M  V30 842 C 85.2379 -4.38316 0.824336 0
M  V30 843 C 85.9389 -5.10239 2.7934 0
M  V30 844 N 84.9149 -5.02595 2.07122 0
M  V30 845 H 88.7169 -2.5149 1.52086 0
M  V30 846 H 86.2309 -1.33491 0.924868 0
M  V30 847 H 88.2279 -4.15693 -0.316965 0
M  V30 848 H 86.8879 -3.1249 -0.882033 0
M  V30 849 H 87.8989 -4.51006 2.54587 0
M  V30 850 H 84.5759 -4.17498 -0.0129526 0
M  V30 851 H 85.9659 -5.54961 3.78772 0
M  V30 852 N 88.686 -0.835752 -1.33615 0
M  V30 853 C 89.963 -0.352017 -1.92406 0
M  V30 854 C 90.343 1.16225 -1.76224 0
M  V30 855 O 89.691 1.97526 -1.14873 0
M  V30 856 C 89.901 -0.795485 -3.39813 0
M  V30 857 C 91.249 -0.801703 -4.16963 0
M  V30 858 O 92.273 -0.738889 -3.48452 0
M  V30 859 O 91.132 -0.886607 -5.3926 0
M  V30 860 H 88.226 -0.0989641 -0.821057 0
M  V30 861 H 90.772 -0.921397 -1.42507 0
M  V30 862 H 89.544 -1.83795 -3.45449 0
M  V30 863 H 89.167 -0.202505 -3.97084 0
M  V30 864 N 90.1641 1.46063 -0.591896 0
M  V30 865 C 91.4411 1.95595 -0.0137119 0
M  V30 866 C 91.8211 1.5345 1.4497 0
M  V30 867 O 91.1691 0.789543 2.14426 0
M  V30 868 C 91.3791 3.48453 -0.195373 0
M  V30 869 C 92.7271 4.24546 -0.0679765 0
M  V30 870 O 93.7511 3.55982 -0.124681 0
M  V30 871 O 92.6101 5.46467 0.0600579 0
M  V30 872 H 89.7041 0.825795 0.0446279 0
M  V30 873 H 92.2501 1.56303 -0.660859 0
M  V30 874 H 91.0221 3.72045 -1.21235 0
M  V30 875 H 90.6451 3.94597 0.487775 0
M  V30 876 N 91.6422 0.330177 1.54103 0
M  V30 877 C 92.8892 -0.270405 2.00686 0
M  V30 878 C 93.2172 -1.51621 1.21825 0
M  V30 879 O 92.4722 -1.93536 0.29025 0
M  V30 880 C 92.7712 -0.643134 3.51566 0
M  V30 881 C 92.4372 0.504251 4.48072 0
M  V30 882 C 91.0992 0.819163 4.74176 0
M  V30 883 C 93.4512 1.27465 5.05373 0
M  V30 884 C 90.7792 1.90708 5.5484 0
M  V30 885 C 93.1312 2.35271 5.87223 0
M  V30 886 C 91.7952 2.67336 6.11627 0
M  V30 887 H 91.0652 -0.0989482 0.734364 0
M  V30 888 H 93.7122 0.455324 1.86008 0
M  V30 889 H 92.0172 -1.44938 3.64006 0
M  V30 890 H 93.7142 -1.11949 3.85056 0
M  V30 891 H 90.3042 0.248733 4.27878 0
M  V30 892 H 94.4882 1.04462 4.85182 0
M  V30 893 H 89.7442 2.15991 5.71977 0
M  V30 894 H 93.9182 2.95405 6.30641 0
M  V30 895 H 91.5452 3.51763 6.73919 0
M  V30 896 N 93.1203 -1.57491 0.0584922 0
M  V30 897 C 94.0833 -2.1085 -0.898617 0
M  V30 898 C 95.0833 -1.02964 -1.23511 0
M  V30 899 O 96.2733 -1.29007 -1.17059 0
M  V30 900 C 93.4053 -2.59881 -2.20623 0
M  V30 901 H 94.5983 -2.96715 -0.435936 0
M  V30 902 H 92.1513 -1.55141 -0.190023 0
M  V30 903 H 92.8863 -1.77431 -2.71457 0
M  V30 904 H 92.6713 -3.38727 -1.97501 0
M  V30 905 H 94.1613 -3.01285 -2.89166 0
M  V30 906 N 94.5984 0.214957 -1.56127 0
M  V30 907 C 96.0144 0.564948 -1.49267 0
M  V30 908 C 96.2144 1.86827 -0.754838 0
M  V30 909 O 95.2704 2.50745 -0.297198 0
M  V30 910 C 96.5834 0.638071 -2.93852 0
M  V30 911 C 98.1314 0.728253 -3.0441 0
M  V30 912 C 98.6064 0.832663 -4.50367 0
M  V30 913 N 100.097 0.896712 -4.54437 0
M  V30 914 C 100.832 0.997324 -5.6466 0
M  V30 915 N 100.328 1.06147 -6.8462 0
M  V30 916 N 102.121 1.03297 -5.52527 0
M  V30 917 H 94.2724 -0.640211 -2.02522 0
M  V30 918 H 96.5354 -0.225507 -0.920788 0
M  V30 919 H 96.2414 -0.250126 -3.50809 0
M  V30 920 H 96.1154 1.49947 -3.46115 0
M  V30 921 H 98.5024 1.60689 -2.47514 0
M  V30 922 H 98.5834 -0.158952 -2.55306 0
M  V30 923 H 98.2274 -0.0415417 -5.07883 0
M  V30 924 H 98.1574 1.73538 -4.97184 0
M  V30 925 H 100.648 0.857188 -3.6805 0
M  V30 926 H 100.961 1.1382 -7.64372 0
M  V30 927 H 99.3064 1.03049 -6.87318 0
M  V30 928 H 102.497 0.979558 -4.57736 0
M  V30 929 H 102.67 1.10793 -6.38458 0
M  V30 930 N 96.0765 1.50051 0.48192 0
M  V30 931 C 97.4925 1.37237 0.814756 0
M  V30 932 C 97.6925 0.420109 1.97072 0
M  V30 933 O 96.7485 -0.141246 2.52105 0
M  V30 934 C 98.0615 2.78375 1.13701 0
M  V30 935 C 99.6095 2.87213 1.2441 0
M  V30 936 C 100.084 4.29161 1.59954 0
M  V30 937 N 101.575 4.32061 1.66967 0
M  V30 938 C 102.31 5.38879 1.95952 0
M  V30 939 N 101.806 6.55918 2.23031 0
M  V30 940 N 103.599 5.26312 1.97363 0
M  V30 941 H 95.7505 2.10546 -0.28005 0
M  V30 942 H 98.0135 0.945921 -0.0627454 0
M  V30 943 H 97.7195 3.49845 0.360787 0
M  V30 944 H 97.5935 3.14941 2.07586 0
M  V30 945 H 99.9805 2.15969 2.01101 0
M  V30 946 H 100.061 2.54204 0.285299 0
M  V30 947 H 99.7055 5.00938 0.838067 0
M  V30 948 H 99.6355 4.59648 2.56966 0
M  V30 949 H 102.126 3.47661 1.48123 0
M  V30 950 H 102.439 7.33139 2.44391 0
M  V30 951 H 100.784 6.59112 2.20447 0
M  V30 952 H 103.975 4.33876 1.75697 0
M  V30 953 H 104.148 6.09649 2.19618 0
M  V30 954 N 97.5546 -0.734337 1.39446 0
M  V30 955 C 98.5046 -1.83949 1.34709 0
M  V30 956 C 99.4886 -1.59279 0.227851 0
M  V30 957 O 100.681 -1.70771 0.465438 0
M  V30 958 C 97.8096 -3.21884 1.19356 0
M  V30 959 C 96.8956 -3.52381 2.35984 0
M  V30 960 N 97.2866 -3.53811 3.61457 0
M  V30 961 C 95.5846 -3.82747 2.28956 0
M  V30 962 C 96.2856 -3.82122 4.38586 0
M  V30 963 N 95.2616 -3.9993 3.68181 0
M  V30 964 H 99.0636 -1.83361 2.29687 0
M  V30 965 H 96.5776 -0.932609 1.32952 0
M  V30 966 H 98.5746 -4.00998 1.14046 0
M  V30 967 H 97.2346 -3.23711 0.253295 0
M  V30 968 H 98.2456 -3.35107 3.94872 0
M  V30 969 H 94.9226 -3.92175 1.43194 0
M  V30 970 H 96.3126 -3.89691 5.47349 0
M  V30 971 N 99.0327 -1.24633 -0.964593 0
M  V30 972 C 100.282 -1.08188 -1.7023 0
M  V30 973 C 100.595 0.37873 -1.91898 0
M  V30 974 O 101.801 0.663427 -2.6327 0
M  V30 975 C 100.257 -1.88773 -3.06419 0
M  V30 976 C 99.8647 -3.39263 -2.92582 0
M  V30 977 C 101.609 -1.80867 -3.84041 0
M  V30 978 C 99.5157 -4.1218 -4.24101 0
M  V30 979 H 98.4457 -0.401245 -0.638372 0
M  V30 980 H 101.097 -1.48742 -1.07462 0
M  V30 981 H 99.4787 -1.41035 -3.70034 0
M  V30 982 H 100.653 -3.94603 -2.37961 0
M  V30 983 H 98.9677 -3.48154 -2.28424 0
M  V30 984 H 101.565 -2.32646 -4.81435 0
M  V30 985 H 101.908 -0.774543 -4.09031 0
M  V30 986 H 102.441 -2.26301 -3.27159 0
M  V30 987 H 99.1797 -5.15965 -4.04303 0
M  V30 988 H 98.6997 -3.61626 -4.78526 0
M  V30 989 H 100.379 -4.19349 -4.92702 0
M  V30 990 N 100.511 1.16574 -1.06058 0
M  V30 991 C 101.759 1.86677 -0.77434 0
M  V30 992 C 102.08 1.81959 0.701147 0
M  V30 993 O 101.35 1.2515 1.50713 0
M  V30 994 H 99.9298 0.691134 -0.283449 0
M  V30 995 H 102.592 1.41378 -1.34158 0
M  V30 996 H 101.688 2.92181 -1.09711 0
M  V30 997 N 101.989 0.842826 1.3317 0
M  V30 998 C 103.4 0.496651 1.79973 0
M  V30 999 C 103.751 -0.984641 1.69703 0
M  V30 1000 O 102.876 -1.76743 1.24863 0
M  V30 1001 C 103.471 0.894727 3.26772 0
M  V30 1002 C 102.03 0.600629 3.71577 0
M  V30 1003 C 101.177 1.10091 2.5451 0
M  V30 1004 H 104.128 1.03116 1.20635 0
M  V30 1005 H 104.149 0.206347 3.7994 0
M  V30 1006 H 103.661 1.97287 3.34215 0
M  V30 1007 H 101.762 -0.467284 3.69658 0
M  V30 1008 H 101.875 1.15863 4.64879 0
M  V30 1009 H 100.239 0.52162 2.49301 0
M  V30 1010 H 101.022 2.18591 2.64713 0
M  V30 1011 N 103.467 -1.45747 0.599634 0
M  V30 1012 C 104.715 -2.01893 0.0915472 0
M  V30 1013 C 105.036 -1.47155 -1.27946 0
M  V30 1014 O 104.306 -0.66273 -1.84349 0
M  V30 1015 H 102.886 -0.746363 0.0308524 0
M  V30 1016 H 105.548 -1.78645 0.779237 0
M  V30 1017 H 104.644 -3.1208 0.0353086 0
M  V30 1018 N 104.945 -0.338344 -1.53925 0
M  V30 1019 C 106.222 0.314774 -1.93051 0
M  V30 1020 C 106.602 1.68669 -1.26941 0
M  V30 1021 O 105.95 2.24636 -0.418445 0
M  V30 1022 C 106.16 0.392249 -3.46789 0
M  V30 1023 C 107.508 0.645554 -4.19664 0
M  V30 1024 O 108.532 0.474575 -3.53024 0
M  V30 1025 O 107.391 0.976408 -5.37707 0
M  V30 1026 H 104.485 0.182598 -0.80659 0
M  V30 1027 H 107.031 -0.389141 -1.65178 0
M  V30 1028 H 105.803 -0.570702 -3.87116 0
M  V30 1029 H 105.426 1.14316 -3.80812 0
M  V30 1030 N 106.423 1.57458 -0.0668435 0
M  V30 1031 C 107.37 2.12439 0.902122 0
M  V30 1032 C 108.34 1.03565 1.2986 0
M  V30 1033 O 109.525 1.312 1.38532 0
M  V30 1034 C 106.665 2.6865 2.16614 0
M  V30 1035 C 105.778 3.91663 1.82274 0
M  V30 1036 C 104.913 4.36134 3.0325 0
M  V30 1037 C 103.952 5.51808 2.64904 0
M  V30 1038 N 103.089 5.9126 3.78624 0
M  V30 1039 H 107.929 2.94934 0.426382 0
M  V30 1040 H 105.466 1.4575 0.198819 0
M  V30 1041 H 107.424 2.99346 2.90599 0
M  V30 1042 H 106.054 1.88928 2.61737 0
M  V30 1043 H 105.106 3.6746 0.983719 0
M  V30 1044 H 106.418 4.75693 1.50059 0
M  V30 1045 H 105.572 4.68465 3.85519 0
M  V30 1046 H 104.311 3.50948 3.38655 0
M  V30 1047 H 103.316 5.19133 1.81055 0
M  V30 1048 H 104.541 6.38722 2.30675 0
M  V30 1049 H 102.487 5.09024 4.138 0
M  V30 1050 H 102.404 6.70018 3.5016 0
M  V30 1051 H 103.672 6.28212 4.61486 0
M  V30 1052 N 107.901 -0.206675 1.56239 0
M  V30 1053 C 109.178 -0.954051 1.70755 0
M  V30 1054 C 109.558 -2.01841 0.618353 0
M  V30 1055 O 108.906 -2.25444 -0.372434 0
M  V30 1056 C 109.116 -1.551 3.12642 0
M  V30 1057 C 110.464 -2.03757 3.72516 0
M  V30 1058 O 111.488 -1.64965 3.15698 0
M  V30 1059 O 110.347 -2.75103 4.72208 0
M  V30 1060 H 107.441 -0.446636 0.696021 0
M  V30 1061 H 109.987 -0.197283 1.68549 0
M  V30 1062 H 108.759 -0.783212 3.83382 0
M  V30 1063 H 108.382 -2.37291 3.19028 0
M  V30 1064 N 109.379 -1.50304 -0.473955 0
M  V30 1065 C 110.311 -1.65109 -1.58971 0
M  V30 1066 C 111.324 -0.532676 -1.53839 0
M  V30 1067 O 112.513 -0.805751 -1.59279 0
M  V30 1068 C 109.613 -1.61684 -2.97845 0
M  V30 1069 C 108.786 -2.8951 -3.27876 0
M  V30 1070 C 107.845 -2.78768 -4.4629 0
M  V30 1071 O 106.871 -3.52722 -4.46739 0
M  V30 1072 N 108.073 -1.9213 -5.47783 0
M  V30 1073 H 110.838 -2.61347 -1.46689 0
M  V30 1074 H 108.399 -1.47732 -0.662324 0
M  V30 1075 H 110.391 -1.52114 -3.75024 0
M  V30 1076 H 108.961 -0.731925 -3.03911 0
M  V30 1077 H 108.181 -3.13228 -2.39336 0
M  V30 1078 H 109.469 -3.74199 -3.4475 0
M  V30 1079 H 108.867 -1.31353 -5.50239 0
M  V30 1080 H 107.424 -1.88466 -6.23958 0
M  V30 1081 N 110.857 0.726932 -1.39834 0
M  V30 1082 C 112.273 1.03354 -1.21615 0
M  V30 1083 C 112.473 2.01327 -0.08338 0
M  V30 1084 O 111.529 2.46158 0.56238 0
M  V30 1085 C 112.842 1.58811 -2.55342 0
M  V30 1086 C 114.39 1.70851 -2.62257 0
M  V30 1087 C 114.865 2.29716 -3.96225 0
M  V30 1088 N 116.356 2.37116 -3.97907 0
M  V30 1089 C 117.091 2.83619 -4.98345 0
M  V30 1090 N 116.587 3.29958 -6.09179 0
M  V30 1091 N 118.38 2.82901 -4.8572 0
M  V30 1092 H 110.531 0.0773069 -2.12259 0
M  V30 1093 H 112.794 0.0969102 -0.943034 0
M  V30 1094 H 112.5 0.942855 -3.38826 0
M  V30 1095 H 112.374 2.57502 -2.75632 0
M  V30 1096 H 114.761 2.34497 -1.79152 0
M  V30 1097 H 114.842 0.707913 -2.45809 0
M  V30 1098 H 114.486 1.66696 -4.79765 0
M  V30 1099 H 114.416 3.30469 -4.09997 0
M  V30 1100 H 116.907 2.04374 -3.17868 0
M  V30 1101 H 117.22 3.63976 -6.8172 0
M  V30 1102 H 115.565 3.27946 -6.12761 0
M  V30 1103 H 118.756 2.46027 -3.98231 0
M  V30 1104 H 118.929 3.18827 -5.6414 0
M  V30 1105 N 112.336 1.25143 0.95797 0
M  V30 1106 C 113.246 1.06968 2.08794 0
M  V30 1107 C 114.262 0.00773911 1.73998 0
M  V30 1108 O 115.438 0.207972 2.00323 0
M  V30 1109 C 112.503 0.68691 3.39827 0
M  V30 1110 C 111.564 1.82641 3.88511 0
M  V30 1111 C 110.797 1.46181 5.1329 0
M  V30 1112 O 111.02 0.355971 5.69288 0
M  V30 1113 O 109.954 2.29085 5.566 0
M  V30 1114 H 113.78 2.01723 2.27027 0
M  V30 1115 H 111.365 1.04051 1.07209 0
M  V30 1116 H 113.247 0.485417 4.18595 0
M  V30 1117 H 111.922 -0.231417 3.22872 0
M  V30 1118 H 110.829 2.08274 3.10762 0
M  V30 1119 H 112.162 2.72386 4.09959 0
M  V30 1120 N 113.814 -1.1601 1.06675 0
M  V30 1121 C 114.747 -2.1947 0.625168 0
M  V30 1122 C 115.725 -1.58699 -0.354041 0
M  V30 1123 O 116.909 -1.86669 -0.262098 0
M  V30 1124 C 114.036 -3.38598 -0.0829593 0
M  V30 1125 C 113.082 -4.1787 0.853611 0
M  V30 1126 S 113.915 -4.81135 2.35094 0
M  V30 1127 C 115.071 -6.03639 1.65441 0
M  V30 1128 H 115.304 -2.56587 1.50168 0
M  V30 1129 H 112.837 -1.26862 0.880078 0
M  V30 1130 H 114.795 -4.07621 -0.485288 0
M  V30 1131 H 113.456 -2.99839 -0.935716 0
M  V30 1132 H 112.649 -5.03078 0.304755 0
M  V30 1133 H 112.251 -3.54361 1.196 0
M  V30 1134 H 114.543 -6.70632 0.962201 0
M  V30 1135 H 115.486 -6.63081 2.48454 0
M  V30 1136 H 115.894 -5.52965 1.13534 0
M  V30 1137 N 115.292 -0.849877 -1.32721 0
M  V30 1138 C 116.222 -0.306308 -2.31482 0
M  V30 1139 C 117.203 0.591952 -1.59468 0
M  V30 1140 O 118.388 0.513199 -1.87296 0
M  V30 1141 C 115.518 0.510204 -3.43532 0
M  V30 1142 C 114.472 -0.293209 -4.26994 0
M  V30 1143 C 113.798 0.647743 -5.30762 0
M  V30 1144 C 115.098 -1.51634 -4.99804 0
M  V30 1145 H 116.792 -1.13153 -2.77195 0
M  V30 1146 H 114.338 -0.545553 -1.33266 0
M  V30 1147 H 116.291 0.900856 -4.11658 0
M  V30 1148 H 115.015 1.36874 -2.96535 0
M  V30 1149 H 113.674 -0.665555 -3.60508 0
M  V30 1150 H 113.322 1.50299 -4.8002 0
M  V30 1151 H 113.022 0.11422 -5.87489 0
M  V30 1152 H 114.546 1.03567 -6.01753 0
M  V30 1153 H 115.96 -1.19824 -5.60638 0
M  V30 1154 H 114.357 -1.98745 -5.66234 0
M  V30 1155 H 115.427 -2.28018 -4.27943 0
M  V30 1156 N 116.77 1.45427 -0.607355 0
M  V30 1157 C 117.702 2.2871 0.149752 0
M  V30 1158 C 118.715 1.39937 0.831958 0
M  V30 1159 O 119.904 1.64313 0.697385 0
M  V30 1160 C 117.004 3.15673 1.23304 0
M  V30 1161 C 116.177 4.32722 0.637996 0
M  V30 1162 C 115.236 5.00895 1.61215 0
M  V30 1163 O 114.262 5.57697 1.13854 0
M  V30 1164 N 115.464 5.00159 2.94655 0
M  V30 1165 H 118.229 2.94328 -0.564882 0
M  V30 1166 H 115.79 1.55612 -0.446823 0
M  V30 1167 H 117.782 3.58144 1.88454 0
M  V30 1168 H 116.352 2.51965 1.8502 0
M  V30 1169 H 115.572 3.93734 -0.191572 0
M  V30 1170 H 116.86 5.08321 0.220665 0
M  V30 1171 H 116.258 4.553 3.35735 0
M  V30 1172 H 114.815 5.46495 3.55228 0
M  V30 1173 N 118.248 0.346503 1.53744 0
M  V30 1174 C 119.476 -0.25041 2.05379 0
M  V30 1175 C 119.891 -1.43979 1.22129 0
M  V30 1176 O 119.248 -1.80677 0.257321 0
M  V30 1177 C 119.299 -0.662575 3.55376 0
M  V30 1178 O 119.02 0.479515 4.35468 0
M  V30 1179 C 120.521 -1.31989 4.23195 0
M  V30 1180 H 117.741 -0.0478198 0.669294 0
M  V30 1181 H 120.285 0.499346 1.9831 0
M  V30 1182 H 118.44 -1.36227 3.62658 0
M  V30 1183 H 118.854 0.15037 5.24284 0
M  V30 1184 H 120.328 -1.55902 5.29527 0
M  V30 1185 H 120.805 -2.27436 3.75725 0
M  V30 1186 H 121.411 -0.662154 4.20114 0
M  V30 1187 N 119.726 -1.57421 0.075193 0
M  V30 1188 C 120.656 -2.15942 -0.888324 0
M  V30 1189 C 121.637 -1.08737 -1.30806 0
M  V30 1190 O 122.822 -1.36787 -1.37851 0
M  V30 1191 C 119.952 -2.72379 -2.1547 0
M  V30 1192 C 118.906 -3.8478 -1.87425 0
M  V30 1193 C 118.232 -4.27834 -3.20721 0
M  V30 1194 C 119.532 -5.08869 -1.17684 0
M  V30 1195 H 121.226 -2.96705 -0.400799 0
M  V30 1196 H 118.772 -1.42723 -0.191342 0
M  V30 1197 H 120.725 -3.11965 -2.83295 0
M  V30 1198 H 119.449 -1.88841 -2.6647 0
M  V30 1199 H 118.108 -3.45703 -1.22004 0
M  V30 1200 H 117.756 -3.41214 -3.6957 0
M  V30 1201 H 117.456 -5.03605 -3.02746 0
M  V30 1202 H 118.98 -4.70039 -3.89738 0
M  V30 1203 H 120.394 -5.4575 -1.75584 0
M  V30 1204 H 118.791 -5.8994 -1.09956 0
M  V30 1205 H 119.861 -4.84648 -0.156453 0
M  V30 1206 N 121.204 0.198386 -1.56346 0
M  V30 1207 C 122.452 0.91747 -1.80075 0
M  V30 1208 C 122.773 1.83929 -0.647692 0
M  V30 1209 O 122.043 1.93029 0.334166 0
M  V30 1210 H 120.623 0.341774 -0.664228 0
M  V30 1211 H 123.285 0.204684 -1.93822 0
M  V30 1212 H 122.381 1.51055 -2.7311 0
M  V30 1213 N 122.682 1.50554 0.465978 0
M  V30 1214 C 123.612 1.72722 1.57128 0
M  V30 1215 C 124.593 0.576294 1.6004 0
M  V30 1216 O 125.778 0.81598 1.76225 0
M  V30 1217 C 122.908 1.82605 2.95419 0
M  V30 1218 C 121.862 2.97835 3.07373 0
M  V30 1219 C 121.188 2.92867 4.47363 0
M  V30 1220 C 122.488 4.38265 2.84114 0
M  V30 1221 H 124.182 2.65267 1.38829 0
M  V30 1222 H 121.728 1.2765 0.666441 0
M  V30 1223 H 123.681 1.96698 3.72677 0
M  V30 1224 H 122.405 0.866858 3.14886 0
M  V30 1225 H 121.064 2.83401 2.3255 0
M  V30 1226 H 120.712 1.94783 4.63755 0
M  V30 1227 H 120.412 3.70227 4.56296 0
M  V30 1228 H 121.936 3.09015 5.26633 0
M  V30 1229 H 123.35 4.53198 3.51118 0
M  V30 1230 H 121.747 5.17115 3.04487 0
M  V30 1231 H 122.817 4.50281 1.7993 0
M  V30 1232 N 124.16 -0.719506 1.40217 0
M  V30 1233 C 125.123 -1.8153 1.39927 0
M  V30 1234 C 126.123 -1.58095 0.293723 0
M  V30 1235 O 127.313 -1.65209 0.552429 0
M  V30 1236 C 124.445 -3.19561 1.18716 0
M  V30 1237 H 125.638 -1.83186 2.37451 0
M  V30 1238 H 123.191 -0.924746 1.26008 0
M  V30 1239 H 123.926 -3.23557 0.219366 0
M  V30 1240 H 123.711 -3.3797 1.98793 0
M  V30 1241 H 125.201 -3.99598 1.21291 0
M  V30 1242 N 125.638 -1.25649 -0.95132 0
M  V30 1243 C 126.863 -1.13443 -1.73624 0
M  V30 1244 C 127.288 0.307565 -1.85568 0
M  V30 1245 O 126.646 1.22282 -1.33854 0
M  V30 1246 C 126.694 -1.79723 -3.12621 0
M  V30 1247 O 125.798 -1.07912 -3.98031 0
M  V30 1248 H 125.139 -0.395872 -0.533086 0
M  V30 1249 H 127.669 -1.66276 -1.1922 0
M  V30 1250 H 127.679 -1.86141 -3.63064 0
M  V30 1251 H 126.354 -2.84633 -3.03244 0
M  V30 1252 H 124.931 -1.09398 -3.56492 0
M  V30 1253 N 127.117 1.15442 -1.07289 0
M  V30 1254 C 128.366 1.85557 -0.790669 0
M  V30 1255 C 128.679 1.83186 0.685739 0
M  V30 1256 O 129.885 2.48977 1.0827 0
M  V30 1257 C 128.341 3.33038 -1.36433 0
M  V30 1258 C 127.949 3.43856 -2.8717 0
M  V30 1259 C 129.693 4.0834 -1.1601 0
M  V30 1260 C 127.6 4.85482 -3.3773 0
M  V30 1261 H 126.53 0.695122 -0.292098 0
M  V30 1262 H 129.181 1.30219 -1.29287 0
M  V30 1263 H 127.563 3.88043 -0.789864 0
M  V30 1264 H 128.737 2.98961 -3.50655 0
M  V30 1265 H 127.052 2.81998 -3.06376 0
M  V30 1266 H 129.649 5.12859 -1.51262 0
M  V30 1267 H 129.992 4.16182 -0.0991007 0
M  V30 1268 H 130.525 3.59603 -1.70089 0
M  V30 1269 H 127.264 4.82823 -4.43353 0
M  V30 1270 H 126.784 5.30961 -2.78999 0
M  V30 1271 H 128.463 5.54335 -3.33648 0
M  V30 1272 N 128.595 0.856903 1.32268 0
M  V30 1273 C 129.872 0.382583 1.91822 0
M  V30 1274 C 130.252 -1.13407 1.78051 0
M  V30 1275 O 129.6 -1.95673 1.18001 0
M  V30 1276 C 129.81 0.849446 3.38505 0
M  V30 1277 C 131.158 0.867936 4.15634 0
M  V30 1278 O 132.182 0.794232 3.47232 0
M  V30 1279 O 131.041 0.972286 5.37781 0
M  V30 1280 H 128.135 0.112014 0.819379 0
M  V30 1281 H 130.681 0.943952 1.41024 0
M  V30 1282 H 129.453 1.89267 3.42482 0
M  V30 1283 H 129.076 0.265652 3.96712 0
M  V30 1284 N 130.073 -1.45103 0.615059 0
M  V30 1285 C 130.983 -2.34382 -0.101034 0
M  V30 1286 C 131.999 -1.51681 -0.852585 0
M  V30 1287 O 133.175 -1.8446 -0.808484 0
M  V30 1288 C 130.24 -3.29417 -1.08099 0
M  V30 1289 C 129.301 -4.28025 -0.330577 0
M  V30 1290 C 128.534 -5.1852 -1.26385 0
M  V30 1291 O 128.757 -5.12598 -2.50198 0
M  V30 1292 O 127.691 -5.97122 -0.756866 0
M  V30 1293 H 131.517 -2.97033 0.632855 0
M  V30 1294 H 129.102 -1.4461 0.375293 0
M  V30 1295 H 130.984 -3.87958 -1.6452 0
M  V30 1296 H 129.659 -2.69321 -1.79577 0
M  V30 1297 H 128.566 -3.73078 0.276283 0
M  V30 1298 H 129.899 -4.90997 0.343866 0
M  V30 1299 N 131.551 -0.354651 -1.53558 0
M  V30 1300 C 132.481 0.489091 -2.2832 0
M  V30 1301 C 133.462 1.09324 -1.30316 0
M  V30 1302 O 134.647 1.11255 -1.59173 0
M  V30 1303 C 131.777 1.63456 -3.0643 0
M  V30 1304 C 130.731 1.1582 -4.12031 0
M  V30 1305 C 130.057 2.39305 -4.7816 0
M  V30 1306 C 131.357 0.250731 -5.21698 0
M  V30 1307 H 133.051 -0.134614 -2.99097 0
M  V30 1308 H 130.597 -0.0661826 -1.43848 0
M  V30 1309 H 132.55 2.23136 -3.57475 0
M  V30 1310 H 131.274 2.28533 -2.33325 0
M  V30 1311 H 129.933 0.584146 -3.61916 0
M  V30 1312 H 129.581 3.02814 -4.01637 0
M  V30 1313 H 129.281 2.08109 -5.49513 0
M  V30 1314 H 130.805 2.99691 -5.31994 0
M  V30 1315 H 132.219 0.754695 -5.68311 0
M  V30 1316 H 130.616 0.0301468 -6.00092 0
M  V30 1317 H 131.686 -0.710125 -4.79672 0
M  V30 1318 N 133.029 1.57378 -0.0835403 0
M  V30 1319 C 134.278 1.93106 0.582498 0
M  V30 1320 C 134.591 0.96651 1.70053 0
M  V30 1321 O 135.797 1.21705 2.42693 0
M  V30 1322 C 134.253 3.43076 1.08751 0
M  V30 1323 C 133.861 4.48 -0.000146404 0
M  V30 1324 C 135.605 3.87785 1.72694 0
M  V30 1325 C 133.512 5.89113 0.519568 0
M  V30 1326 H 132.442 0.720775 0.221358 0
M  V30 1327 H 135.093 1.82821 -0.157675 0
M  V30 1328 H 133.475 3.48474 1.88101 0
M  V30 1329 H 134.649 4.54233 -0.775199 0
M  V30 1330 H 132.964 4.1283 -0.54406 0
M  V30 1331 H 135.561 4.90604 2.1263 0
M  V30 1332 H 135.904 3.25796 2.59158 0
M  V30 1333 H 136.437 3.8504 0.999457 0
M  V30 1334 H 133.176 6.54775 -0.308186 0
M  V30 1335 H 132.696 5.86376 1.26188 0
M  V30 1336 H 134.375 6.39346 0.992237 0
M  V30 1337 N 134.507 -0.190092 1.56449 0
M  V30 1338 C 135.417 -1.25591 1.98152 0
M  V30 1339 C 136.433 -1.49519 0.889944 0
M  V30 1340 O 137.609 -1.62036 1.19609 0
M  V30 1341 C 134.674 -2.57916 2.3169 0
M  V30 1342 C 133.735 -2.42015 3.5458 0
M  V30 1343 C 132.968 -3.6803 3.8651 0
M  V30 1344 O 133.191 -4.72413 3.1966 0
M  V30 1345 O 132.125 -3.6326 4.79923 0
M  V30 1346 H 135.951 -0.931988 2.89046 0
M  V30 1347 H 133.536 -0.395488 1.4407 0
M  V30 1348 H 135.418 -3.36008 2.54316 0
M  V30 1349 H 134.093 -2.89925 1.43963 0
M  V30 1350 H 133 -1.62017 3.37196 0
M  V30 1351 H 134.333 -2.14937 4.4279 0
M  V30 1352 N 135.985 -1.50799 -0.457987 0
M  V30 1353 C 136.932 -1.70617 -1.5543 0
M  V30 1354 C 137.902 -0.547562 -1.56815 0
M  V30 1355 O 139.087 -0.779647 -1.74144 0
M  V30 1356 C 136.227 -1.81831 -2.93311 0
M  V30 1357 C 135.34 -3.09278 -3.01615 0
M  V30 1358 C 134.475 -3.11209 -4.30491 0
M  V30 1359 C 133.514 -4.33055 -4.32585 0
M  V30 1360 N 132.651 -4.32652 -5.52952 0
M  V30 1361 H 137.491 -2.64207 -1.37836 0
M  V30 1362 H 135.028 -1.30959 -0.669937 0
M  V30 1363 H 136.986 -1.86314 -3.73287 0
M  V30 1364 H 135.616 -0.916685 -3.0951 0
M  V30 1365 H 134.668 -3.14203 -2.1443 0
M  V30 1366 H 135.98 -3.99233 -2.99022 0
M  V30 1367 H 135.134 -3.14494 -5.18824 0
M  V30 1368 H 133.873 -2.19106 -4.35711 0
M  V30 1369 H 132.878 -4.29969 -3.42647 0
M  V30 1370 H 134.103 -5.264 -4.29046 0
M  V30 1371 H 132.049 -3.43409 -5.58933 0
M  V30 1372 H 131.966 -5.16392 -5.52155 0
M  V30 1373 H 133.234 -4.40101 -6.43375 0
M  V30 1374 N 137.463 0.71206 -1.40597 0
M  V30 1375 C 138.691 1.50111 -1.42388 0
M  V30 1376 C 139.106 1.88784 -0.0245395 0
M  V30 1377 O 138.463 1.55681 0.952351 0
M  V30 1378 C 138.514 2.7742 -2.31776 0
M  V30 1379 O 138.235 2.40382 -3.66262 0
M  V30 1380 C 139.736 3.7129 -2.42196 0
M  V30 1381 H 136.956 0.46314 -0.485533 0
M  V30 1382 H 139.5 0.878068 -1.8469 0
M  V30 1383 H 137.655 3.36001 -1.92827 0
M  V30 1384 H 138.069 3.22324 -4.13772 0
M  V30 1385 H 139.543 4.57448 -3.08943 0
M  V30 1386 H 140.02 4.14641 -1.44809 0
M  V30 1387 H 140.626 3.18619 -2.81712 0
M  V30 1388 N 138.941 1.26152 0.944643 0
M  V30 1389 C 140.187 1.11657 1.69294 0
M  V30 1390 C 140.52 -0.339926 1.91202 0
M  V30 1391 O 139.795 -1.24994 1.49019 0
M  V30 1392 C 140.078 1.88236 3.06984 0
M  V30 1393 C 139.931 3.41772 2.92424 0
M  V30 1394 C 141.25 1.67343 4.07043 0
M  V30 1395 H 138.369 0.407004 0.614424 0
M  V30 1396 H 141.011 1.55106 1.09737 0
M  V30 1397 H 139.161 1.51308 3.57824 0
M  V30 1398 H 140.833 3.88433 2.48832 0
M  V30 1399 H 139.076 3.68974 2.28124 0
M  V30 1400 H 139.747 3.90579 3.90067 0
M  V30 1401 H 142.223 1.99509 3.65151 0
M  V30 1402 H 141.099 2.23346 5.01406 0
M  V30 1403 H 141.36 0.617158 4.37771 0
M  V30 1404 N 140.419 -1.14872 1.07899 0
M  V30 1405 C 141.83 -1.67367 0.827363 0
M  V30 1406 C 142.181 -1.85236 -0.646693 0
M  V30 1407 O 141.306 -1.55974 -1.50004 0
M  V30 1408 C 141.901 -3.04016 1.49532 0
M  V30 1409 C 140.46 -3.53566 1.29106 0
M  V30 1410 C 139.607 -2.29161 1.56143 0
M  V30 1411 H 142.558 -0.990083 1.24028 0
M  V30 1412 H 142.579 -3.69219 0.919643 0
M  V30 1413 H 142.091 -2.90978 2.56814 0
M  V30 1414 H 140.192 -3.71835 0.238713 0
M  V30 1415 H 140.305 -4.34661 2.01511 0
M  V30 1416 H 138.669 -2.34978 0.982717 0
M  V30 1417 H 139.452 -2.18705 2.64619 0
M  V30 1418 N 141.898 -0.863906 -1.31812 0
M  V30 1419 C 142.861 -0.320212 -2.26952 0
M  V30 1420 C 143.861 0.525369 -1.51975 0
M  V30 1421 O 145.051 0.335547 -1.70938 0
M  V30 1422 C 142.183 0.545919 -3.365 0
M  V30 1423 H 143.376 -1.16004 -2.76556 0
M  V30 1424 H 140.929 -0.638995 -1.42641 0
M  V30 1425 H 141.664 1.40718 -2.92179 0
M  V30 1426 H 141.449 -0.0594674 -3.92055 0
M  V30 1427 H 142.939 0.918796 -4.07367 0
M  V30 1428 N 143.376 1.44774 -0.622745 0
M  V30 1429 C 144.324 2.32387 0.0994683 0
M  V30 1430 C 145.318 1.46859 0.844326 0
M  V30 1431 O 146.524 1.63254 0.758174 0
M  V30 1432 H 142.899 0.750273 0.0509291 0
M  V30 1433 H 144.87 2.91062 -0.65767 0
M  V30 1434 C 143.619 3.30723 1.07319 0
M  V30 1435 H 142.942 3.96541 0.509462 0
M  V30 1436 H 144.382 3.94725 1.54817 0
M  V30 1437 C 142.841 2.59021 2.15429 0
M  V30 1438 O 143.371 2.38286 3.23393 0
M  V30 1439 N 141.577 2.189 1.91131 0
M  V30 1440 H 141.124 2.35964 1.03337 0
M  V30 1441 H 141.082 1.71251 2.63668 0
M  V30 1442 N 144.854 0.36279 1.53368 0
M  V30 1443 C 146.103 -0.22888 2.00397 0
M  V30 1444 C 146.416 -1.50096 1.25421 0
M  V30 1445 O 147.622 -2.17106 1.63025 0
M  V30 1446 C 146.078 -0.458417 3.56969 0
M  V30 1447 C 145.686 0.798877 4.4082 0
M  V30 1448 C 147.43 -1.00789 4.12361 0
M  V30 1449 C 145.337 0.539078 5.88938 0
M  V30 1450 H 144.267 -0.089305 0.748693 0
M  V30 1451 H 146.918 0.481099 1.77081 0
M  V30 1452 H 145.3 -1.22959 3.76427 0
M  V30 1453 H 146.474 1.57262 4.33134 0
M  V30 1454 H 144.789 1.27137 3.96516 0
M  V30 1455 H 147.386 -1.21754 5.20653 0
M  V30 1456 H 147.729 -1.9692 3.66781 0
M  V30 1457 H 148.262 -0.296961 3.9669 0
M  V30 1458 H 145.001 1.47064 6.3879 0
M  V30 1459 H 144.521 -0.196222 5.99479 0
M  V30 1460 H 146.2 0.163542 6.46793 0
M  V30 1461 N 146.332 -1.57332 0.0918853 0
M  V30 1462 C 147.748 -1.57389 -0.264766 0
M  V30 1463 C 147.948 -1.10281 -1.68643 0
M  V30 1464 O 147.004 -0.777801 -2.40222 0
M  V30 1465 C 148.317 -3.00648 -0.0561195 0
M  V30 1466 C 149.865 -3.12754 -0.124116 0
M  V30 1467 C 150.34 -4.57965 0.0564972 0
M  V30 1468 N 151.831 -4.632 0.00155611 0
M  V30 1469 C 152.566 -5.73281 0.116598 0
M  V30 1470 N 152.062 -6.92208 0.286294 0
M  V30 1471 N 153.855 -5.6207 0.0580973 0
M  V30 1472 H 146.006 -1.86262 1.02079 0
M  V30 1473 H 148.269 -0.859579 0.399786 0
M  V30 1474 H 147.975 -3.393 0.925669 0
M  V30 1475 H 147.849 -3.68623 -0.799823 0
M  V30 1476 H 150.236 -2.73976 -1.09641 0
M  V30 1477 H 150.317 -2.47377 0.651024 0
M  V30 1478 H 149.961 -4.97436 1.02564 0
M  V30 1479 H 149.891 -5.21399 -0.738297 0
M  V30 1480 H 152.382 -3.77686 -0.127192 0
M  V30 1481 H 152.695 -7.71934 0.365676 0
M  V30 1482 H 151.04 -6.94254 0.32192 0
M  V30 1483 H 154.231 -4.68043 -0.0733204 0
M  V30 1484 H 154.404 -6.47824 0.151203 0
M  V30 1485 N 147.81 0.181792 -1.56548 0
M  V30 1486 C 148.74 1.22765 -1.98623 0
M  V30 1487 C 149.721 1.46747 -0.860189 0
M  V30 1488 O 150.906 1.58259 -1.12551 0
M  V30 1489 C 148.036 2.56894 -2.33715 0
M  V30 1490 C 146.99 2.475 -3.49182 0
M  V30 1491 C 146.316 3.86023 -3.69986 0
M  V30 1492 C 147.616 1.98866 -4.82959 0
M  V30 1493 H 149.31 0.877942 -2.86239 0
M  V30 1494 H 146.856 0.42088 -1.37712 0
M  V30 1495 H 148.809 3.30253 -2.61746 0
M  V30 1496 H 147.533 2.93632 -1.42997 0
M  V30 1497 H 146.192 1.76596 -3.21262 0
M  V30 1498 H 145.84 4.20136 -2.76576 0
M  V30 1499 H 145.54 3.80609 -4.47672 0
M  V30 1500 H 147.064 4.60984 -4.00407 0
M  V30 1501 H 148.478 2.61992 -5.09934 0
M  V30 1502 H 146.875 2.04424 -5.64208 0
M  V30 1503 H 147.945 0.942465 -4.75653 0
M  V30 1504 N 149.288 1.51039 0.449983 0
M  V30 1505 C 150.235 1.71439 1.54523 0
M  V30 1506 C 151.205 0.555871 1.56522 0
M  V30 1507 O 152.39 0.788871 1.73728 0
M  V30 1508 C 149.53 1.83384 2.92343 0
M  V30 1509 C 148.643 3.10873 2.9997 0
M  V30 1510 C 147.778 3.13488 4.28834 0
M  V30 1511 C 146.817 4.35343 4.30282 0
M  V30 1512 N 145.954 4.35579 5.5065 0
M  V30 1513 H 150.794 2.64934 1.36433 0
M  V30 1514 H 148.331 1.31312 0.662982 0
M  V30 1515 H 150.289 1.88291 3.72293 0
M  V30 1516 H 148.919 0.933086 3.0902 0
M  V30 1517 H 147.971 3.15336 2.12761 0
M  V30 1518 H 149.283 4.00814 2.96901 0
M  V30 1519 H 148.437 3.17241 5.17149 0
M  V30 1520 H 147.176 2.21414 4.34543 0
M  V30 1521 H 146.181 4.3178 3.40362 0
M  V30 1522 H 147.406 5.28668 4.26248 0
M  V30 1523 H 145.352 3.46369 5.57104 0
M  V30 1524 H 145.269 5.19313 5.49409 0
M  V30 1525 H 146.537 4.43507 6.41032 0
M  V30 1526 N 150.766 -0.704594 1.40972 0
M  V30 1527 C 152.182 -1.01406 1.23244 0
M  V30 1528 C 152.382 -2.01169 0.115399 0
M  V30 1529 O 151.438 -2.47021 -0.523147 0
M  V30 1530 C 152.751 -1.54728 2.57836 0
M  V30 1531 C 154.299 -1.66658 2.64942 0
M  V30 1532 C 154.774 -2.23383 3.9983 0
M  V30 1533 N 156.265 -2.30756 4.01629 0
M  V30 1534 C 157 -2.75655 5.02794 0
M  V30 1535 N 156.496 -3.20225 6.14352 0
M  V30 1536 N 158.289 -2.75138 4.90159 0
M  V30 1537 H 150.44 -0.0435285 2.12355 0
M  V30 1538 H 152.703 -0.0818951 0.944456 0
M  V30 1539 H 152.409 -0.888832 3.40283 0
M  V30 1540 H 152.283 -2.53084 2.79693 0
M  V30 1541 H 154.67 -2.31617 1.8286 0
M  V30 1542 H 154.751 -0.668717 2.46904 0
M  V30 1543 H 154.395 -1.59043 4.82357 0
M  V30 1544 H 154.325 -3.23904 4.15203 0
M  V30 1545 H 156.816 -1.99291 3.21079 0
M  V30 1546 H 157.129 -3.53084 6.87424 0
M  V30 1547 H 155.474 -3.18156 6.17901 0
M  V30 1548 H 158.665 -2.39661 4.02095 0
M  V30 1549 H 158.838 -3.09812 5.6914 0
M  V30 1550 N 152.244 -1.26651 -0.937939 0
M  V30 1551 C 153.655 -1.1125 -1.49934 0
M  V30 1552 C 154.006 0.306077 -1.93798 0
M  V30 1553 O 153.131 1.19792 -1.80219 0
M  V30 1554 C 153.726 -2.01339 -2.72485 0
M  V30 1555 C 152.285 -1.90074 -3.24883 0
M  V30 1556 C 151.432 -1.94498 -1.97651 0
M  V30 1557 H 154.383 -1.39693 -0.753091 0
M  V30 1558 H 154.404 -1.56319 -3.46907 0
M  V30 1559 H 153.916 -3.04577 -2.40529 0
M  V30 1560 H 152.017 -0.897827 -3.61621 0
M  V30 1561 H 152.13 -2.75778 -3.9177 0
M  V30 1562 H 150.494 -1.38591 -2.13693 0
M  V30 1563 H 151.277 -2.99372 -1.68022 0
M  V30 1564 N 153.722 1.14298 -1.08507 0
M  V30 1565 C 154.652 2.21542 -0.737646 0
M  V30 1566 C 155.633 1.67773 0.280377 0
M  V30 1567 O 156.818 1.93616 0.150521 0
M  V30 1568 C 153.948 3.46988 -0.147259 0
M  V30 1569 C 152.902 4.13789 -1.09374 0
M  V30 1570 C 152.228 5.33449 -0.365524 0
M  V30 1571 C 153.528 4.62208 -2.4323 0
M  V30 1572 H 155.222 2.5086 -1.6343 0
M  V30 1573 H 152.768 1.20576 -0.787243 0
M  V30 1574 H 154.721 4.21262 0.107808 0
M  V30 1575 H 153.445 3.17037 0.784538 0
M  V30 1576 H 152.104 3.4147 -1.33393 0
M  V30 1577 H 151.752 4.99759 0.57011 0
M  V30 1578 H 151.452 5.79088 -0.996512 0
M  V30 1579 H 152.976 6.10485 -0.118534 0
M  V30 1580 H 154.39 5.27952 -2.23472 0
M  V30 1581 H 152.787 5.18553 -3.02031 0
M  V30 1582 H 153.857 3.77224 -3.04681 0
M  V30 1583 N 155.201 0.870884 1.31352 0
M  V30 1584 C 156.148 0.325425 2.28494 0
M  V30 1585 C 157.118 -0.576615 1.5577 0
M  V30 1586 O 158.303 -0.508059 1.83911 0
M  V30 1587 C 155.443 -0.466283 3.41935 0
M  V30 1588 C 154.556 0.463378 4.29508 0
M  V30 1589 C 153.691 -0.342544 5.30094 0
M  V30 1590 C 152.73 0.583486 6.09313 0
M  V30 1591 N 151.867 -0.186244 7.01853 0
M  V30 1592 H 156.707 1.15901 2.74538 0
M  V30 1593 H 154.244 0.58294 1.35056 0
M  V30 1594 H 156.202 -0.941085 4.06447 0
M  V30 1595 H 154.832 -1.26456 2.97 0
M  V30 1596 H 153.884 1.05663 3.65431 0
M  V30 1597 H 155.196 1.1734 4.84802 0
M  V30 1598 H 154.35 -0.879816 6.00287 0
M  V30 1599 H 153.089 -1.08585 4.75458 0
M  V30 1600 H 152.094 1.13251 5.3801 0
M  V30 1601 H 153.319 1.32566 6.66035 0
M  V30 1602 H 151.265 -0.912348 6.49625 0
M  V30 1603 H 151.182 0.464422 7.54572 0
M  V30 1604 H 152.45 -0.704716 7.76308 0
M  V30 1605 N 156.679 -1.44442 0.630414 0
M  V30 1606 C 157.612 -2.27862 -0.124247 0
M  V30 1607 C 158.59 -1.38495 -0.851931 0
M  V30 1608 O 159.774 -1.67935 -0.856166 0
M  V30 1609 C 156.901 -3.17407 -1.18197 0
M  V30 1610 C 155.947 -4.22875 -0.554892 0
M  V30 1611 S 156.78 -5.31485 0.654489 0
M  V30 1612 C 157.936 -6.246 -0.40326 0
M  V30 1613 H 158.169 -2.91519 0.583435 0
M  V30 1614 H 155.702 -1.48618 0.418565 0
M  V30 1615 H 157.66 -3.69549 -1.78728 0
M  V30 1616 H 156.321 -2.52971 -1.86184 0
M  V30 1617 H 155.514 -4.85542 -1.35148 0
M  V30 1618 H 155.116 -3.73992 -0.0242105 0
M  V30 1619 H 157.408 -6.65375 -1.27602 0
M  V30 1620 H 158.351 -7.07851 0.187813 0
M  V30 1621 H 158.759 -5.59775 -0.728837 0
M  V30 1622 N 158.157 -0.370918 -1.53173 0
M  V30 1623 C 159.067 0.480823 -2.2962 0
M  V30 1624 C 160.083 1.08789 -1.35798 0
M  V30 1625 O 161.259 1.09768 -1.68858 0
M  V30 1626 C 158.324 1.60227 -3.07454 0
M  V30 1627 C 157.385 1.0222 -4.16953 0
M  V30 1628 C 156.618 2.0902 -4.91066 0
M  V30 1629 O 156.841 3.30222 -4.65091 0
M  V30 1630 O 155.775 1.71778 -5.76867 0
M  V30 1631 H 159.601 -0.141421 -3.03371 0
M  V30 1632 H 157.186 -0.135146 -1.48787 0
M  V30 1633 H 159.068 2.25417 -3.56041 0
M  V30 1634 H 157.743 2.20982 -2.36535 0
M  V30 1635 H 156.65 0.334064 -3.72605 0
M  V30 1636 H 157.983 0.459131 -4.90054 0
M  V30 1637 N 159.635 1.57281 -0.100228 0
M  V30 1638 C 160.912 1.86014 0.604812 0
M  V30 1639 C 161.292 0.998025 1.86018 0
M  V30 1640 O 160.64 0.0718184 2.28387 0
M  V30 1641 C 160.85 3.36784 0.915278 0
M  V30 1642 C 162.198 4.04957 1.27651 0
M  V30 1643 O 163.222 3.41695 1.00613 0
M  V30 1644 O 162.081 5.16593 1.7831 0
M  V30 1645 H 159.175 0.76942 0.303185 0
M  V30 1646 H 161.721 1.69176 -0.133313 0
M  V30 1647 H 160.493 3.91292 0.0248896 0
M  V30 1648 H 160.116 3.58987 1.70921 0
M  V30 1649 N 161.113 -0.173488 1.56642 0
M  V30 1650 C 162.524 -0.736155 1.71574 0
M  V30 1651 C 162.875 -1.82888 0.710389 0
M  V30 1652 O 162 -2.16017 -0.1287 0
M  V30 1653 C 162.595 -1.34211 3.11083 0
M  V30 1654 C 161.154 -1.85162 3.27707 0
M  V30 1655 C 160.301 -0.729765 2.67525 0
M  V30 1656 H 163.252 0.0518786 1.58615 0
M  V30 1657 H 163.273 -2.21178 3.09613 0
M  V30 1658 H 162.785 -0.546579 3.84232 0
M  V30 1659 H 160.886 -2.67366 2.59512 0
M  V30 1660 H 160.999 -1.99855 4.35425 0
M  V30 1661 H 159.363 -1.14965 2.27278 0
M  V30 1662 H 160.146 0.0538806 3.43258 0
M  V30 1663 N 162.591 -1.51276 -0.441967 0
M  V30 1664 C 163.837 -1.63958 -1.19355 0
M  V30 1665 C 164.17 -0.352543 -1.90973 0
M  V30 1666 O 163.445 0.647627 -1.83401 0
M  V30 1667 C 163.728 -2.83979 -2.21422 0
M  V30 1668 C 163.581 -4.22646 -1.53918 0
M  V30 1669 C 164.9 -2.99521 -3.22451 0
M  V30 1670 H 162.019 -0.596709 -0.432559 0
M  V30 1671 H 164.661 -1.83748 -0.483398 0
M  V30 1672 H 162.811 -2.67237 -2.81987 0
M  V30 1673 H 164.483 -4.51045 -0.967256 0
M  V30 1674 H 162.726 -4.25558 -0.841615 0
M  V30 1675 H 163.397 -5.02609 -2.28229 0
M  V30 1676 H 165.873 -3.14944 -2.71937 0
M  V30 1677 H 164.749 -3.85072 -3.91166 0
M  V30 1678 H 165.01 -2.11391 -3.88287 0
M  V30 1679 N 164.069 0.697108 -1.41344 0
M  V30 1680 C 165.309 1.46939 -1.42085 0
M  V30 1681 C 165.673 1.9198 -0.0280397 0
M  V30 1682 O 166.874 2.6865 0.0897504 0
M  V30 1683 C 165.145 2.64985 -2.39828 0
M  V30 1684 S 166.704 3.54147 -2.59085 0
M  V30 1685 H 163.522 0.502146 -0.503359 0
M  V30 1686 H 166.124 0.813546 -1.77769 0
M  V30 1687 H 164.828 2.30098 -3.39828 0
M  V30 1688 H 164.359 3.35464 -2.05493 0
M  V30 1689 H 166.374 4.60137 -1.85711 0
M  V30 1690 N 165.547 1.27147 0.931209 0
M  V30 1691 C 166.457 1.11372 2.06478 0
M  V30 1692 C 167.473 0.044645 1.73943 0
M  V30 1693 O 168.649 0.250417 1.99837 0
M  V30 1694 C 165.714 0.758838 3.38294 0
M  V30 1695 C 164.775 1.90841 3.84549 0
M  V30 1696 C 164.008 1.57036 5.10074 0
M  V30 1697 O 164.231 0.476645 5.68405 0
M  V30 1698 O 163.165 2.40839 5.51616 0
M  V30 1699 H 166.991 2.06493 2.22698 0
M  V30 1700 H 164.576 1.06301 1.04978 0
M  V30 1701 H 166.458 0.574098 4.17471 0
M  V30 1702 H 165.133 -0.162879 3.2329 0
M  V30 1703 H 164.04 2.14819 3.06274 0
M  V30 1704 H 165.373 2.81021 4.04089 0
M  V30 1705 N 167.025 -1.13721 1.09112 0
M  V30 1706 C 167.973 -2.21103 0.722219 0
M  V30 1707 C 168.967 -1.67147 -0.275374 0
M  V30 1708 O 170.173 -1.79477 -0.137176 0
M  V30 1709 H 166.548 -0.720445 0.215553 0
M  V30 1710 H 168.519 -2.49483 1.63709 0
M  V30 1711 C 167.268 -3.47352 0.15543 0
M  V30 1712 H 166.591 -3.89206 0.914246 0
M  V30 1713 H 168.031 -4.2395 -0.0647967 0
M  V30 1714 C 166.49 -3.1814 -1.10852 0
M  V30 1715 O 167.02 -3.36604 -2.19227 0
M  V30 1716 N 165.226 -2.72045 -1.02176 0
M  V30 1717 H 164.773 -2.57221 -0.139764 0
M  V30 1718 H 164.731 -2.52875 -1.8682 0
M  V30 1719 N 168.503 -0.877838 -1.30888 0
M  V30 1720 C 169.413 -0.343096 -2.32078 0
M  V30 1721 C 170.429 0.551022 -1.65045 0
M  V30 1722 O 171.605 0.445854 -1.96403 0
M  V30 1723 C 168.67 0.439905 -3.43898 0
M  V30 1724 C 167.731 -0.483111 -4.26573 0
M  V30 1725 C 166.964 0.262616 -5.33053 0
M  V30 1726 O 167.187 1.48967 -5.50604 0
M  V30 1727 O 166.121 -0.383593 -6.00676 0
M  V30 1728 H 169.947 -1.18203 -2.79753 0
M  V30 1729 H 167.532 -0.64145 -1.34929 0
M  V30 1730 H 169.414 0.883504 -4.12034 0
M  V30 1731 H 168.089 1.25526 -2.98371 0
M  V30 1732 H 166.996 -0.975374 -3.61161 0
M  V30 1733 H 168.329 -1.26427 -4.75686 0
M  V30 1734 N 169.982 1.44106 -0.638065 0
M  V30 1735 C 171.231 2.01194 -0.142744 0
M  V30 1736 C 171.544 1.50835 1.24532 0
M  V30 1737 O 172.75 2.00096 1.83504 0
M  V30 1738 C 171.206 3.59319 -0.20442 0
M  V30 1739 C 170.814 4.18674 -1.59423 0
M  V30 1740 C 172.558 4.23854 0.234079 0
M  V30 1741 C 170.465 5.69045 -1.61065 0
M  V30 1742 H 169.395 0.752367 -0.0495998 0
M  V30 1743 H 172.046 1.65246 -0.797881 0
M  V30 1744 H 170.428 3.92598 0.517946 0
M  V30 1745 H 171.602 3.96921 -2.34074 0
M  V30 1746 H 169.917 3.66453 -1.97741 0
M  V30 1747 H 172.514 5.34155 0.241443 0
M  V30 1748 H 172.857 3.96688 1.2627 0
M  V30 1749 H 173.39 3.95403 -0.436025 0
M  V30 1750 H 170.129 6.00956 -2.61787 0
M  V30 1751 H 169.649 5.929 -0.90718 0
M  V30 1752 H 171.328 6.32809 -1.34766 0
M  V30 1753 N 171.46 0.379036 1.52974 0
M  V30 1754 C 172.39 -0.452706 2.29069 0
M  V30 1755 C 173.371 -1.07237 1.32039 0
M  V30 1756 O 174.556 -1.08708 1.60923 0
M  V30 1757 C 171.686 -1.5856 3.08992 0
M  V30 1758 C 170.64 -1.0925 4.13822 0
M  V30 1759 C 169.966 -2.31668 4.81907 0
M  V30 1760 C 171.266 -0.167702 5.22031 0
M  V30 1761 H 172.96 0.182181 2.98845 0
M  V30 1762 H 170.506 0.0890592 1.43724 0
M  V30 1763 H 172.459 -2.1742 3.6098 0
M  V30 1764 H 171.183 -2.24792 2.36931 0
M  V30 1765 H 169.842 -0.526494 3.628 0
M  V30 1766 H 169.49 -2.96386 4.06404 0
M  V30 1767 H 169.19 -1.9934 5.52754 0
M  V30 1768 H 170.714 -2.91189 5.36695 0
M  V30 1769 H 172.128 -0.664186 5.6944 0
M  V30 1770 H 170.525 0.0653265 6.00064 0
M  V30 1771 H 171.595 0.786347 4.78482 0
M  V30 1772 N 172.938 -1.57226 0.108567 0
M  V30 1773 C 173.901 -2.13602 -0.831082 0
M  V30 1774 C 174.901 -1.06841 -1.20173 0
M  V30 1775 O 176.091 -1.32666 -1.12895 0
M  V30 1776 C 173.223 -2.66769 -2.12243 0
M  V30 1777 H 174.416 -2.97951 -0.341317 0
M  V30 1778 H 171.969 -1.55667 -0.14057 0
M  V30 1779 H 172.704 -1.85977 -2.65675 0
M  V30 1780 H 172.489 -3.44839 -1.86625 0
M  V30 1781 H 173.979 -3.10332 -2.79435 0
M  V30 1782 N 174.416 0.165178 -1.56732 0
M  V30 1783 C 175.644 0.896218 -1.86482 0
M  V30 1784 C 176.059 1.75555 -0.694675 0
M  V30 1785 O 175.416 1.79379 0.33607 0
M  V30 1786 C 175.467 1.76792 -3.1532 0
M  V30 1787 O 175.188 0.943239 -4.27825 0
M  V30 1788 C 176.689 2.6081 -3.58459 0
M  V30 1789 H 173.909 0.260064 -0.618553 0
M  V30 1790 H 176.453 0.163428 -2.03846 0
M  V30 1791 H 174.608 2.45398 -2.99764 0
M  V30 1792 H 175.022 1.53998 -5.01383 0
M  V30 1793 H 176.496 3.17579 -4.51495 0
M  V30 1794 H 176.973 3.35977 -2.82872 0
M  V30 1795 H 177.579 1.97526 -3.76648 0
M  V30 1796 N 175.894 1.51508 0.433938 0
M  V30 1797 C 176.824 1.76016 1.53429 0
M  V30 1798 C 177.805 0.610112 1.58782 0
M  V30 1799 O 178.99 0.853177 1.74455 0
M  V30 1800 C 176.12 1.88831 2.9148 0
M  V30 1801 C 175.074 3.04288 3.00987 0
M  V30 1802 C 174.4 3.0229 4.4105 0
M  V30 1803 C 175.7 4.44193 2.74754 0
M  V30 1804 H 177.394 2.68152 1.33171 0
M  V30 1805 H 174.94 1.29035 0.639214 0
M  V30 1806 H 176.893 2.04559 3.6842 0
M  V30 1807 H 175.617 0.933455 3.12976 0
M  V30 1808 H 174.276 2.8827 2.26486 0
M  V30 1809 H 173.924 2.04576 4.59519 0
M  V30 1810 H 173.624 3.79822 4.4834 0
M  V30 1811 H 175.148 3.20116 5.1996 0
M  V30 1812 H 176.562 4.60544 3.41426 0
M  V30 1813 H 174.959 5.23457 2.9345 0
M  V30 1814 H 176.029 4.53996 1.70339 0
M  V30 1815 N 177.372 -0.689602 1.41712 0
M  V30 1816 C 178.322 -1.79571 1.40493 0
M  V30 1817 C 179.306 -1.58473 0.278409 0
M  V30 1818 O 180.498 -1.69204 0.519532 0
M  V30 1819 C 177.627 -3.17923 1.29536 0
M  V30 1820 C 176.713 -3.44695 2.47075 0
M  V30 1821 N 177.104 -3.42132 3.72531 0
M  V30 1822 C 175.402 -3.75269 2.41017 0
M  V30 1823 C 176.103 -3.67976 4.50521 0
M  V30 1824 N 175.079 -3.88014 3.80718 0
M  V30 1825 H 178.881 -1.75961 2.35404 0
M  V30 1826 H 176.395 -0.889839 1.35851 0
M  V30 1827 H 178.392 -3.97167 1.26745 0
M  V30 1828 H 177.052 -3.22741 0.356153 0
M  V30 1829 H 178.063 -3.22375 4.05333 0
M  V30 1830 H 174.74 -3.87421 1.55599 0
M  V30 1831 H 176.13 -3.7208 5.59469 0
M  V30 1832 N 178.85 -1.27639 -0.924453 0
M  V30 1833 C 179.813 -1.10681 -2.00705 0
M  V30 1834 C 180.813 -0.0497823 -1.60723 0
M  V30 1835 O 182.003 -0.294654 -1.7169 0
M  V30 1836 C 179.135 -0.687164 -3.33902 0
M  V30 1837 H 180.328 -2.06817 -2.17179 0
M  V30 1838 H 177.881 -1.10473 -1.10569 0
M  V30 1839 H 178.616 0.275439 -3.23128 0
M  V30 1840 H 178.401 -1.45061 -3.6428 0
M  V30 1841 H 179.891 -0.590853 -4.13399 0
M  V30 1842 N 180.328 1.1314 -1.09713 0
M  V30 1843 C 181.577 1.83838 -0.829851 0
M  V30 1844 C 181.89 1.84599 0.646728 0
M  V30 1845 O 183.096 2.51218 1.02965 0
M  V30 1846 C 181.552 3.30069 -1.43466 0
M  V30 1847 C 181.16 3.37688 -2.94399 0
M  V30 1848 C 182.904 4.05788 -1.24645 0
M  V30 1849 C 180.811 4.78209 -3.47952 0
M  V30 1850 H 179.741 0.68877 -0.306777 0
M  V30 1851 H 182.392 1.27448 -1.3202 0
M  V30 1852 H 180.774 3.8628 -0.871996 0
M  V30 1853 H 181.948 2.91456 -3.56918 0
M  V30 1854 H 180.263 2.75436 -3.12289 0
M  V30 1855 H 182.86 5.09535 -1.62107 0
M  V30 1856 H 183.203 4.15878 -0.187357 0
M  V30 1857 H 183.736 3.55915 -1.77678 0
M  V30 1858 H 180.475 4.73311 -4.53495 0
M  V30 1859 H 179.995 5.24924 -2.90198 0
M  V30 1860 H 181.674 5.47133 -3.45332 0
M  V30 1861 N 181.806 0.884767 1.30421 0
M  V30 1862 C 183.031 0.517288 2.00845 0
M  V30 1863 C 183.456 -0.886779 1.65885 0
M  V30 1864 O 182.814 -1.58768 0.875354 0
M  V30 1865 C 182.862 0.698994 3.5376 0
M  V30 1866 O 181.966 -0.255208 4.1161 0
M  V30 1867 H 181.307 0.203872 0.631927 0
M  V30 1868 H 183.837 1.19225 1.66272 0
M  V30 1869 H 183.847 0.597912 4.03595 0
M  V30 1870 H 182.522 1.72271 3.78544 0
M  V30 1871 H 181.099 -0.10784 3.72744 0
M  V30 1872 N 183.284 -1.43765 0.645699 0
M  V30 1873 C 184.509 -2.06767 0.161883 0
M  V30 1874 C 184.934 -1.48034 -1.16049 0
M  V30 1875 O 184.292 -0.587369 -1.71522 0
M  V30 1876 C 184.34 -3.60519 0.0762003 0
M  V30 1877 O 183.444 -4.00982 -0.963721 0
M  V30 1878 H 182.785 -0.657675 0.091429 0
M  V30 1879 H 185.315 -1.84397 0.886499 0
M  V30 1880 H 185.325 -4.07853 -0.109604 0
M  V30 1881 H 184 -4.02646 1.04157 0
M  V30 1882 H 182.577 -3.65253 -0.751312 0
M  V30 1883 N 184.763 -0.387143 -1.52771 0
M  V30 1884 C 185.71 0.449048 -2.26389 0
M  V30 1885 C 186.68 1.05961 -1.27912 0
M  V30 1886 O 187.865 1.08804 -1.56737 0
M  V30 1887 C 185.005 1.57155 -3.0724 0
M  V30 1888 C 184.118 0.984066 -4.20643 0
M  V30 1889 C 183.253 2.07745 -4.88892 0
M  V30 1890 C 182.292 1.46574 -5.94292 0
M  V30 1891 N 181.429 2.49834 -6.56146 0
M  V30 1892 H 186.269 -0.185205 -2.97424 0
M  V30 1893 H 183.806 -0.103164 -1.46738 0
M  V30 1894 H 185.764 2.23309 -3.52405 0
M  V30 1895 H 184.394 2.17615 -2.38419 0
M  V30 1896 H 183.446 0.212193 -3.79808 0
M  V30 1897 H 184.758 0.497029 -4.96318 0
M  V30 1898 H 183.912 2.81673 -5.3735 0
M  V30 1899 H 182.651 2.59807 -4.12737 0
M  V30 1900 H 181.656 0.711696 -5.45174 0
M  V30 1901 H 182.881 0.953088 -6.72379 0
M  V30 1902 H 180.827 3.0107 -5.82832 0
M  V30 1903 H 180.744 2.05879 -7.27427 0
M  V30 1904 H 182.012 3.23399 -7.09249 0
M  V30 1905 N 186.241 1.57166 -0.116904 0
M  V30 1906 C 187.189 2.16457 0.851418 0
M  V30 1907 C 188.183 1.11323 1.27686 0
M  V30 1908 O 189.389 1.2963 1.24884 0
M  V30 1909 H 185.764 0.69271 0.292672 0
M  V30 1910 H 187.735 2.96605 0.32685 0
M  V30 1911 C 186.484 2.77689 2.09246 0
M  V30 1912 H 185.807 3.58285 1.77402 0
M  V30 1913 H 187.247 3.22716 2.7501 0
M  V30 1914 C 185.706 1.74667 2.88085 0
M  V30 1915 O 186.236 1.19877 3.83396 0
M  V30 1916 N 184.442 1.44656 2.52038 0
M  V30 1917 H 183.989 1.89402 1.74599 0
M  V30 1918 H 183.947 0.759675 3.05084 0
M  V30 1919 N 187.719 -0.156864 1.56817 0
M  V30 1920 C 188.651 -1.21883 1.94106 0
M  V30 1921 C 189.664 -1.3971 0.835754 0
M  V30 1922 O 190.853 -1.39457 1.11418 0
M  V30 1923 C 187.953 -2.58527 2.19127 0
M  V30 1924 C 187.126 -2.61809 3.50393 0
M  V30 1925 C 186.185 -3.7992 3.64071 0
M  V30 1926 O 185.211 -3.65249 4.36557 0
M  V30 1927 N 186.413 -4.96973 2.99997 0
M  V30 1928 H 189.178 -0.901974 2.85805 0
M  V30 1929 H 186.739 -0.346513 1.58148 0
M  V30 1930 H 188.731 -3.36034 2.25529 0
M  V30 1931 H 187.301 -2.82545 1.33742 0
M  V30 1932 H 186.521 -1.7029 3.5552 0
M  V30 1933 H 187.809 -2.61024 4.36742 0
M  V30 1934 H 187.207 -5.11794 2.41004 0
M  V30 1935 H 185.764 -5.7229 3.11974 0
M  V30 1936 N 189.197 -1.51736 -0.425897 0
M  V30 1937 C 190.446 -1.64201 -1.17136 0
M  V30 1938 C 190.759 -0.369705 -1.92074 0
M  V30 1939 O 191.965 -0.373898 -2.68913 0
M  V30 1940 C 190.421 -2.90035 -2.13091 0
M  V30 1941 C 190.029 -4.24312 -1.43747 0
M  V30 1942 C 191.773 -3.1186 -2.87999 0
M  V30 1943 C 189.68 -5.41285 -2.38253 0
M  V30 1944 H 188.61 -0.611624 -0.440944 0
M  V30 1945 H 191.261 -1.78212 -0.437328 0
M  V30 1946 H 189.643 -2.69684 -2.89977 0
M  V30 1947 H 190.817 -4.55086 -0.723408 0
M  V30 1948 H 189.132 -4.08456 -0.809465 0
M  V30 1949 H 191.729 -3.96427 -3.58817 0
M  V30 1950 H 192.072 -2.25403 -3.49999 0
M  V30 1951 H 192.605 -3.32605 -2.18217 0
M  V30 1952 H 189.344 -6.30037 -1.80925 0
M  V30 1953 H 188.864 -5.14872 -3.0768 0
M  V30 1954 H 190.543 -5.73694 -2.99139 0
M  V30 1955 N 190.675 0.682077 -1.42076 0
M  V30 1956 C 191.921 1.44283 -1.43366 0
M  V30 1957 C 192.276 1.92344 -0.0465775 0
M  V30 1958 O 191.569 1.67517 0.929973 0
M  V30 1959 C 191.763 2.66036 -2.38662 0
M  V30 1960 C 191.592 2.29889 -3.86499 0
M  V30 1961 C 190.362 2.19599 -4.55087 0
M  V30 1962 C 192.56 1.91999 -4.77117 0
M  V30 1963 N 190.542 1.76478 -5.87987 0
M  V30 1964 C 191.913 1.59741 -5.99068 0
M  V30 1965 C 193.968 1.78927 -4.64639 0
M  V30 1966 C 192.671 1.15723 -7.0993 0
M  V30 1967 C 194.697 1.36314 -5.75476 0
M  V30 1968 C 194.059 1.04975 -6.96534 0
M  V30 1969 H 190.158 0.524739 -0.579805 0
M  V30 1970 H 192.742 0.787834 -1.78048 0
M  V30 1971 H 190.913 3.29237 -2.06053 0
M  V30 1972 H 192.645 3.32588 -2.30581 0
M  V30 1973 H 189.4 2.38433 -4.09202 0
M  V30 1974 H 189.824 1.57362 -6.58458 0
M  V30 1975 H 194.466 2.01805 -3.7153 0
M  V30 1976 H 192.184 0.91591 -8.02893 0
M  V30 1977 H 195.77 1.26731 -5.6783 0
M  V30 1978 H 194.65 0.725017 -7.80841 0
M  V30 1979 N 192.153 1.28127 0.917671 0
M  V30 1980 C 193.569 1.05749 1.19538 0
M  V30 1981 C 193.769 -0.202633 2.00479 0
M  V30 1982 O 192.825 -0.905382 2.3571 0
M  V30 1983 C 194.138 2.30273 1.93378 0
M  V30 1984 C 195.686 2.35412 2.06277 0
M  V30 1985 C 196.161 3.59692 2.83524 0
M  V30 1986 N 197.652 3.60309 2.91087 0
M  V30 1987 C 198.387 4.53147 3.51348 0
M  V30 1988 N 197.883 5.563 4.12919 0
M  V30 1989 N 199.676 4.40751 3.48849 0
M  V30 1990 H 191.827 2.09024 0.377184 0
M  V30 1991 H 194.09 0.919798 0.22951 0
M  V30 1992 H 193.796 3.22055 1.41328 0
M  V30 1993 H 193.67 2.36378 2.93947 0
M  V30 1994 H 196.057 1.4413 2.57508 0
M  V30 1995 H 196.138 2.33304 1.04895 0
M  V30 1996 H 195.782 4.51316 2.32973 0
M  V30 1997 H 195.712 3.59054 3.85211 0
M  V30 1998 H 198.203 2.85714 2.47338 0
M  V30 1999 H 198.516 6.2329 4.56869 0
M  V30 2000 H 196.861 5.60131 4.11435 0
M  V30 2001 H 200.052 3.59367 2.99955 0
M  V30 2002 H 200.225 5.13291 3.9552 0
M  V30 2003 N 193.631 -1.12557 1.10312 0
M  V30 2004 C 194.856 -1.88405 0.867085 0
M  V30 2005 C 195.281 -1.79038 -0.576817 0
M  V30 2006 O 194.639 -1.14439 -1.40618 0
M  V30 2007 C 194.687 -3.3563 1.31851 0
M  V30 2008 O 193.791 -4.09565 0.482734 0
M  V30 2009 H 193.132 -0.585455 0.313271 0
M  V30 2010 H 195.662 -1.42352 1.4696 0
M  V30 2011 H 195.672 -3.86469 1.3079 0
M  V30 2012 H 194.347 -3.41765 2.37001 0
M  V30 2013 H 192.924 -3.68695 0.558448 0
M  V30 2014 N 195.109 -0.891671 -1.2995 0
M  V30 2015 C 196.339 -0.527893 -1.99742 0
M  V30 2016 C 196.747 0.88979 -1.66971 0
M  V30 2017 O 196.09 1.59766 -0.906667 0
M  V30 2018 C 196.152 -0.630804 -3.53922 0
M  V30 2019 C 195.816 -2.01401 -4.10228 0
M  V30 2020 C 196.813 -2.98422 -4.25724 0
M  V30 2021 C 194.498 -2.32121 -4.45449 0
M  V30 2022 C 196.492 -4.24293 -4.75662 0
M  V30 2023 C 194.179 -3.58237 -4.95086 0
M  V30 2024 C 195.177 -4.54137 -5.10146 0
M  V30 2025 O 194.865 -5.78014 -5.58708 0
M  V30 2026 H 194.597 -0.201953 -0.645129 0
M  V30 2027 H 197.151 -1.20076 -1.66646 0
M  V30 2028 H 195.381 0.0990616 -3.86573 0
M  V30 2029 H 197.07 -0.277338 -4.04951 0
M  V30 2030 H 197.836 -2.76001 -3.98809 0
M  V30 2031 H 193.715 -1.5824 -4.32991 0
M  V30 2032 H 197.259 -4.99153 -4.87332 0
M  V30 2033 H 193.156 -3.80491 -5.21437 0
M  V30 2034 H 193.924 -5.8049 -5.77039 0
M  V30 2035 N 196.587 1.43421 -0.653314 0
M  V30 2036 C 197.836 2.01032 -0.164076 0
M  V30 2037 C 198.149 1.52147 1.22926 0
M  V30 2038 O 199.355 2.02031 1.81371 0
M  V30 2039 C 197.811 3.59082 -0.24252 0
M  V30 2040 C 197.419 4.1696 -1.63855 0
M  V30 2041 C 199.163 4.24079 0.18911 0
M  V30 2042 C 197.07 5.67304 -1.67092 0
M  V30 2043 H 196 0.751798 -0.0575769 0
M  V30 2044 H 198.651 1.6439 -0.815362 0
M  V30 2045 H 197.033 3.93125 0.476276 0
M  V30 2046 H 198.207 3.94416 -2.38271 0
M  V30 2047 H 196.522 3.64335 -2.01616 0
M  V30 2048 H 199.119 5.34381 0.184775 0
M  V30 2049 H 199.462 3.98005 1.22056 0
M  V30 2050 H 199.995 3.94918 -0.477938 0
M  V30 2051 H 196.734 5.98145 -2.68146 0
M  V30 2052 H 196.254 5.91904 -0.970014 0
M  V30 2053 H 197.933 6.31344 -1.4147 0
M  V30 2054 N 198.065 0.39524 1.52563 0
M  V30 2055 C 199.313 -0.184678 2.01254 0
M  V30 2056 C 199.634 -1.46822 1.28329 0
M  V30 2057 O 198.904 -1.91666 0.405094 0
M  V30 2058 H 197.484 -0.0712355 0.743596 0
M  V30 2059 H 200.146 0.528293 1.87603 0
M  V30 2060 H 199.242 -0.390681 3.09645 0
M  V30 2061 N 199.544 -1.57102 0.125237 0
M  V30 2062 C 200.477 -2.11371 -0.860094 0
M  V30 2063 C 201.455 -1.03168 -1.25679 0
M  V30 2064 O 202.639 -1.30862 -1.35674 0
M  V30 2065 C 199.766 -2.61555 -2.1519 0
M  V30 2066 C 198.812 -3.81701 -1.9028 0
M  V30 2067 S 199.645 -5.23797 -1.11343 0
M  V30 2068 C 200.801 -5.77353 -2.41689 0
M  V30 2069 H 201.034 -2.94617 -0.39852 0
M  V30 2070 H 198.567 -1.54145 -0.0886555 0
M  V30 2071 H 200.525 -2.91122 -2.89411 0
M  V30 2072 H 199.186 -1.78479 -2.58465 0
M  V30 2073 H 198.379 -4.14985 -2.86014 0
M  V30 2074 H 197.981 -3.52783 -1.24178 0
M  V30 2075 H 200.273 -5.87458 -3.37489 0
M  V30 2076 H 201.216 -6.75323 -2.12942 0
M  V30 2077 H 201.624 -5.05457 -2.51342 0
M  V30 2078 N 201.022 0.148545 -1.56898 0
M  V30 2079 C 202.27 0.859717 -1.82902 0
M  V30 2080 C 202.591 1.81775 -0.70588 0
M  V30 2081 O 201.861 1.93994 0.272586 0
M  V30 2082 H 200.441 0.320469 -0.674766 0
M  V30 2083 H 203.103 0.142918 -1.94375 0
M  V30 2084 H 202.199 1.4229 -2.77777 0
M  V30 2085 N 202.5 1.5196 0.417844 0
M  V30 2086 C 203.73 1.69181 1.18581 0
M  V30 2087 C 204.138 0.397104 1.84986 0
M  V30 2088 O 203.481 -0.636011 1.72339 0
M  V30 2089 C 203.543 2.76497 2.29759 0
M  V30 2090 C 203.207 4.18514 1.83563 0
M  V30 2091 C 204.204 5.02648 1.32821 0
M  V30 2092 C 201.889 4.64708 1.90661 0
M  V30 2093 C 203.883 6.31044 0.897894 0
M  V30 2094 C 201.57 5.93096 1.47241 0
M  V30 2095 C 202.568 6.76093 0.968891 0
M  V30 2096 O 202.256 8.02078 0.540924 0
M  V30 2097 H 201.988 0.570457 0.362705 0
M  V30 2098 H 204.542 1.99249 0.498885 0
M  V30 2099 H 202.772 2.41786 3.01789 0
M  V30 2100 H 204.461 2.82403 2.91553 0
M  V30 2101 H 205.227 4.68154 1.26716 0
M  V30 2102 H 201.106 4.00216 2.28797 0
M  V30 2103 H 204.65 6.95776 0.504192 0
M  V30 2104 H 200.547 6.271 1.53022 0
M  V30 2105 H 201.315 8.15794 0.66502 0
M  V30 2106 N 203.978 -0.674533 1.42435 0
M  V30 2107 C 205.208 -1.46071 1.46105 0
M  V30 2108 C 205.616 -1.89067 0.0709605 0
M  V30 2109 O 204.959 -1.58731 -0.924677 0
M  V30 2110 C 205.021 -2.74145 2.32561 0
M  V30 2111 C 204.685 -2.53224 3.8043 0
M  V30 2112 C 205.682 -2.17809 4.72075 0
M  V30 2113 C 203.367 -2.6821 4.24698 0
M  V30 2114 C 205.361 -1.97648 6.05982 0
M  V30 2115 C 203.048 -2.47665 5.58664 0
M  V30 2116 C 204.046 -2.12437 6.49122 0
M  V30 2117 O 203.734 -1.9209 7.80613 0
M  V30 2118 H 203.466 -0.455959 0.499076 0
M  V30 2119 H 206.02 -0.836193 1.87609 0
M  V30 2120 H 204.25 -3.3908 1.85908 0
M  V30 2121 H 205.939 -3.36028 2.27683 0
M  V30 2122 H 206.705 -2.05826 4.39159 0
M  V30 2123 H 202.584 -2.94609 3.54579 0
M  V30 2124 H 206.128 -1.70075 6.7655 0
M  V30 2125 H 202.025 -2.59244 5.91154 0
M  V30 2126 H 202.793 -2.06686 7.91974 0
M  V30 2127 N 205.456 -1.28612 -0.910864 0
M  V30 2128 C 206.404 -1.1265 -2.03501 0
M  V30 2129 C 207.398 -0.0450054 -1.6934 0
M  V30 2130 O 208.604 -0.203988 -1.7884 0
M  V30 2131 H 204.979 -0.347639 -0.666822 0
M  V30 2132 H 206.95 -2.07849 -2.14106 0
M  V30 2133 C 205.699 -0.808143 -3.38178 0
M  V30 2134 H 205.022 -1.63231 -3.6496 0
M  V30 2135 H 206.462 -0.736426 -4.17556 0
M  V30 2136 C 204.921 0.488226 -3.33344 0
M  V30 2137 O 205.451 1.51766 -3.71927 0
M  V30 2138 N 203.657 0.490009 -2.86439 0
M  V30 2139 H 203.204 -0.348161 -2.55236 0
M  V30 2140 H 203.162 1.35741 -2.83587 0
M  V30 2141 N 206.934 1.1197 -1.10907 0
M  V30 2142 C 208.174 1.85224 -0.864378 0
M  V30 2143 C 208.538 1.82411 0.599178 0
M  V30 2144 O 209.739 2.51057 0.960416 0
M  V30 2145 C 208.01 3.2868 -1.40371 0
M  V30 2146 S 209.569 4.1925 -1.29518 0
M  V30 2147 H 206.387 0.63878 -0.312219 0
M  V30 2148 H 208.989 1.3485 -1.41548 0
M  V30 2149 H 207.693 3.28289 -2.46281 0
M  V30 2150 H 207.224 3.84121 -0.849402 0
M  V30 2151 H 209.239 4.95539 -0.256059 0
M  V30 2152 N 208.412 0.89855 1.29475 0
M  V30 2153 C 209.637 0.538561 2.00285 0
M  V30 2154 C 210.062 -0.869135 1.66816 0
M  V30 2155 O 209.42 -1.57831 0.892145 0
M  V30 2156 C 209.468 0.736475 3.52999 0
M  V30 2157 O 208.572 -0.211537 4.11857 0
M  V30 2158 H 207.913 0.210563 0.62973 0
M  V30 2159 H 210.443 1.20982 1.64998 0
M  V30 2160 H 210.453 0.640685 4.02938 0
M  V30 2161 H 209.128 1.76276 3.76696 0
M  V30 2162 H 207.705 -0.0682991 3.72837 0
M  V30 2163 N 209.89 -1.43072 0.660911 0
M  V30 2164 C 211.136 -2.0202 0.177708 0
M  V30 2165 C 211.469 -1.52066 -1.20787 0
M  V30 2166 O 210.744 -0.716987 -1.80802 0
M  V30 2167 C 211.027 -3.59561 0.197019 0
M  V30 2168 C 210.88 -4.19727 1.61706 0
M  V30 2169 C 212.199 -4.37664 -0.462396 0
M  V30 2170 H 209.318 -0.734034 0.0660494 0
M  V30 2171 H 211.96 -1.70272 0.843058 0
M  V30 2172 H 210.11 -3.86739 -0.369527 0
M  V30 2173 H 211.782 -4.03553 2.23479 0
M  V30 2174 H 210.025 -3.76084 2.16201 0
M  V30 2175 H 210.696 -5.28834 1.58237 0
M  V30 2176 H 213.172 -4.16095 0.0197215 0
M  V30 2177 H 212.048 -5.47305 -0.418188 0
M  V30 2178 H 212.309 -4.14493 -1.53778 0
M  V30 2179 N 211.368 -0.403325 -1.52352 0
M  V30 2180 C 212.779 0.0675782 -1.86578 0
M  V30 2181 C 213.13 1.44941 -1.32236 0
M  V30 2182 O 212.255 2.06112 -0.659307 0
M  V30 2183 C 212.85 0.129404 -3.38553 0
M  V30 2184 C 211.409 0.544629 -3.72439 0
M  V30 2185 C 210.556 -0.284551 -2.75836 0
M  V30 2186 H 213.507 -0.620631 -1.46061 0
M  V30 2187 H 213.528 0.94581 -3.68558 0
M  V30 2188 H 213.04 -0.87645 -3.78074 0
M  V30 2189 H 211.141 1.55734 -3.38493 0
M  V30 2190 H 211.254 0.293046 -4.78203 0
M  V30 2191 H 209.618 0.252258 -2.53448 0
M  V30 2192 H 210.401 -1.28865 -3.18196 0
M  V30 2193 N 212.846 1.57033 -0.133567 0
M  V30 2194 C 213.778 2.13176 0.841944 0
M  V30 2195 C 214.791 1.07794 1.22001 0
M  V30 2196 O 215.98 1.35117 1.16643 0
M  V30 2197 C 213.08 2.62847 2.13926 0
M  V30 2198 C 212.253 3.92486 1.93064 0
M  V30 2199 C 211.312 4.27605 3.0666 0
M  V30 2200 O 210.338 4.96168 2.78937 0
M  V30 2201 N 211.54 3.861 4.33483 0
M  V30 2202 H 214.305 2.97503 0.362192 0
M  V30 2203 H 211.866 1.61821 0.05042 0
M  V30 2204 H 213.858 2.83363 2.88942 0
M  V30 2205 H 212.428 1.83319 2.53205 0
M  V30 2206 H 211.648 3.80732 1.02159 0
M  V30 2207 H 212.936 4.77225 1.76447 0
M  V30 2208 H 212.334 3.30828 4.58878 0
M  V30 2209 H 210.891 4.11694 5.05323 0
M  V30 2210 N 214.325 -0.140222 1.56975 0
M  V30 2211 C 215.553 -0.866437 1.87884 0
M  V30 2212 C 215.968 -1.74428 0.722517 0
M  V30 2213 O 215.325 -1.79891 -0.30749 0
M  V30 2214 C 215.376 -1.71753 3.18093 0
M  V30 2215 O 215.097 -0.875056 4.29272 0
M  V30 2216 C 216.598 -2.55074 3.62563 0
M  V30 2217 H 213.818 -0.25019 0.622612 0
M  V30 2218 H 216.362 -0.130977 2.0408 0
M  V30 2219 H 214.517 -2.40598 3.03631 0
M  V30 2220 H 214.931 -1.46002 5.03769 0
M  V30 2221 H 216.405 -3.10356 4.5649 0
M  V30 2222 H 216.882 -3.31434 2.88181 0
M  V30 2223 H 217.488 -1.91509 3.79743 0
M  V30 2224 N 215.803 -1.52179 -0.40978 0
M  V30 2225 C 217.052 -1.65434 -1.15388 0
M  V30 2226 C 217.365 -0.390056 -1.91671 0
M  V30 2227 O 218.571 -0.402399 -2.68501 0
M  V30 2228 C 217.027 -2.92279 -2.10003 0
M  V30 2229 C 216.635 -4.25813 -1.39239 0
M  V30 2230 C 218.379 -3.14897 -2.84675 0
M  V30 2231 C 216.286 -5.43782 -2.32498 0
M  V30 2232 H 215.216 -0.616267 -0.434432 0
M  V30 2233 H 217.867 -1.78666 -0.418401 0
M  V30 2234 H 216.249 -2.72744 -2.871 0
M  V30 2235 H 217.423 -4.55828 -0.675099 0
M  V30 2236 H 215.738 -4.09292 -0.766097 0
M  V30 2237 H 218.335 -4.0021 -3.54593 0
M  V30 2238 H 218.678 -2.29103 -3.47588 0
M  V30 2239 H 219.211 -3.34901 -2.14677 0
M  V30 2240 H 215.95 -6.3192 -1.74233 0
M  V30 2241 H 215.47 -5.18106 -3.02201 0
M  V30 2242 H 217.149 -5.76834 -2.93038 0
M  V30 2243 N 217.281 0.66697 -1.42791 0
M  V30 2244 C 218.211 1.79218 -1.49677 0
M  V30 2245 C 219.192 1.66405 -0.352623 0
M  V30 2246 O 220.377 1.85708 -0.567993 0
M  V30 2247 C 217.507 3.17565 -1.40605 0
M  V30 2248 C 216.461 3.45124 -2.53127 0
M  V30 2249 C 215.787 4.83127 -2.29112 0
M  V30 2250 C 217.087 3.41236 -3.95418 0
M  V30 2251 H 218.781 1.73713 -2.43853 0
M  V30 2252 H 216.327 0.83432 -1.17367 0
M  V30 2253 H 218.28 3.96022 -1.44029 0
M  V30 2254 H 217.004 3.23767 -0.429271 0
M  V30 2255 H 215.663 2.69031 -2.49034 0
M  V30 2256 H 215.311 4.85988 -1.29709 0
M  V30 2257 H 215.011 5.02528 -3.04531 0
M  V30 2258 H 216.535 5.63859 -2.34297 0
M  V30 2259 H 217.949 4.09651 -4.01073 0
M  V30 2260 H 216.346 3.72173 -4.70752 0
M  V30 2261 H 217.416 2.39665 -4.21532 0
M  V30 2262 N 218.759 1.29093 0.90403 0
M  V30 2263 C 220.175 1.07011 1.1841 0
M  V30 2264 C 220.375 -0.181358 2.00682 0
M  V30 2265 O 219.431 -0.880331 2.36657 0
M  V30 2266 C 220.744 2.32311 1.90924 0
M  V30 2267 C 222.292 2.37587 2.03768 0
M  V30 2268 C 222.767 3.62679 2.79693 0
M  V30 2269 N 224.258 3.63376 2.87249 0
M  V30 2270 C 224.993 4.56848 3.46522 0
M  V30 2271 N 224.489 5.60648 4.06996 0
M  V30 2272 N 226.282 4.44426 3.44154 0
M  V30 2273 H 218.433 2.09412 0.354993 0
M  V30 2274 H 220.696 0.922181 0.219742 0
M  V30 2275 H 220.402 3.23536 1.37905 0
M  V30 2276 H 220.276 2.39483 2.91424 0
M  V30 2277 H 222.663 1.46853 2.55965 0
M  V30 2278 H 222.744 2.34403 1.02415 0
M  V30 2279 H 222.388 4.53762 2.28173 0
M  V30 2280 H 222.318 3.63119 3.81381 0
M  V30 2281 H 224.809 2.88321 2.44293 0
M  V30 2282 H 225.122 6.28101 4.50232 0
M  V30 2283 H 223.467 5.64463 4.05471 0
M  V30 2284 H 226.658 3.62529 2.96126 0
M  V30 2285 H 226.831 5.17457 3.90054 0
M  V30 2286 N 220.237 -1.11381 1.11499 0
M  V30 2287 C 221.185 -2.19522 0.768956 0
M  V30 2288 C 222.179 -1.67693 -0.239857 0
M  V30 2289 O 223.385 -1.79727 -0.0990755 0
M  V30 2290 H 219.76 -0.715711 0.230786 0
M  V30 2291 H 221.731 -2.45954 1.68964 0
M  V30 2292 C 220.48 -3.46945 0.229073 0
M  V30 2293 H 219.803 -3.8718 0.996596 0
M  V30 2294 H 221.243 -4.23993 0.0251441 0
M  V30 2295 C 219.702 -3.2042 -1.04079 0
M  V30 2296 O 220.232 -3.41178 -2.12038 0
M  V30 2297 N 218.438 -2.74151 -0.963823 0
M  V30 2298 H 217.985 -2.57459 -0.0851722 0
M  V30 2299 H 217.943 -2.56781 -1.81414 0
M  V30 2300 N 221.715 -0.905404 -1.28997 0
M  V30 2301 C 222.645 -0.404212 -2.29975 0
M  V30 2302 C 223.626 0.523784 -1.61835 0
M  V30 2303 O 224.811 0.433298 -1.89304 0
M  V30 2304 C 221.941 0.364042 -3.45387 0
M  V30 2305 C 220.895 -0.474048 -4.25367 0
M  V30 2306 C 220.221 0.422045 -5.33032 0
M  V30 2307 C 221.521 -1.72696 -4.92923 0
M  V30 2308 H 223.215 -1.24807 -2.72146 0
M  V30 2309 H 220.761 -0.601585 -1.30832 0
M  V30 2310 H 222.714 0.725447 -4.15109 0
M  V30 2311 H 221.438 1.24174 -3.02074 0
M  V30 2312 H 220.097 -0.81786 -3.57361 0
M  V30 2313 H 219.745 1.29804 -4.85963 0
M  V30 2314 H 219.445 -0.135057 -5.87445 0
M  V30 2315 H 220.969 0.779517 -6.05604 0
M  V30 2316 H 222.383 -1.43495 -5.55051 0
M  V30 2317 H 220.78 -2.22582 -5.57295 0
M  V30 2318 H 221.85 -2.45964 -4.17887 0
M  V30 2319 N 223.193 1.4272 -0.668489 0
M  V30 2320 C 224.123 2.335 -0.000100175 0
M  V30 2321 C 225.104 1.50328 0.795964 0
M  V30 2322 O 226.289 1.78949 0.754385 0
M  V30 2323 C 223.419 3.33874 0.956302 0
M  V30 2324 C 222.373 4.27152 0.269278 0
M  V30 2325 C 221.699 5.17684 1.33818 0
M  V30 2326 C 222.999 5.15373 -0.847805 0
M  V30 2327 H 224.693 2.89639 -0.758244 0
M  V30 2328 H 222.239 1.39269 -0.366079 0
M  V30 2329 H 224.192 3.9629 1.43292 0
M  V30 2330 H 222.916 2.76025 1.74579 0
M  V30 2331 H 221.575 3.66123 -0.187042 0
M  V30 2332 H 221.223 4.56165 2.1195 0
M  V30 2333 H 220.923 5.80918 0.883659 0
M  V30 2334 H 222.447 5.82974 1.81586 0
M  V30 2335 H 223.861 5.7151 -0.452681 0
M  V30 2336 H 222.258 5.87407 -1.22773 0
M  V30 2337 H 223.328 4.5415 -1.69929 0
M  V30 2338 N 224.671 0.411399 1.52136 0
M  V30 2339 C 225.581 -0.419774 2.30814 0
M  V30 2340 C 226.597 -1.0515 1.38634 0
M  V30 2341 O 227.773 -1.05252 1.71709 0
M  V30 2342 C 224.838 -1.52019 3.11594 0
M  V30 2343 C 223.899 -0.91129 4.19516 0
M  V30 2344 C 223.132 -1.95927 4.96436 0
M  V30 2345 O 223.355 -3.17775 4.73683 0
M  V30 2346 O 222.289 -1.56423 5.81219 0
M  V30 2347 H 226.115 0.221805 3.02889 0
M  V30 2348 H 223.7 0.174547 1.48377 0
M  V30 2349 H 225.582 -2.15898 3.61892 0
M  V30 2350 H 224.257 -2.14633 2.42311 0
M  V30 2351 H 223.164 -0.235157 3.7336 0
M  V30 2352 H 224.497 -0.32904 4.91099 0
M  V30 2353 N 226.149 -1.5696 0.141893 0
M  V30 2354 C 227.097 -2.17784 -0.816874 0
M  V30 2355 C 228.091 -1.1334 -1.25899 0
M  V30 2356 O 229.297 -1.316 -1.22806 0
M  V30 2357 H 225.672 -0.697278 -0.281615 0
M  V30 2358 H 227.643 -2.97087 -0.279621 0
M  V30 2359 C 226.392 -2.80983 -2.04802 0
M  V30 2360 H 225.715 -3.61062 -1.7168 0
M  V30 2361 H 227.155 -3.2705 -2.69841 0
M  V30 2362 C 225.614 -1.79228 -2.8527 0
M  V30 2363 O 226.144 -1.25962 -3.8144 0
M  V30 2364 N 224.35 -1.48647 -2.49704 0
M  V30 2365 H 223.897 -1.92155 -1.71564 0
M  V30 2366 H 223.855 -0.808115 -3.03837 0
M  V30 2367 N 227.627 0.131896 -1.57047 0
M  V30 2368 C 228.852 0.860418 -1.8871 0
M  V30 2369 C 229.277 1.73251 -0.73251 0
M  V30 2370 O 228.635 1.785 0.317429 0
M  V30 2371 C 228.683 1.68047 -3.19049 0
M  V30 2372 O 227.787 2.7862 -3.04047 0
M  V30 2373 H 227.128 0.238743 -0.619595 0
M  V30 2374 H 229.658 0.118169 -2.04258 0
M  V30 2375 H 229.668 2.07238 -3.51449 0
M  V30 2376 H 228.343 1.04018 -4.02682 0
M  V30 2377 H 226.92 2.42726 -2.83088 0
M  V30 2378 N 229.106 1.52395 0.401703 0
M  V30 2379 C 230.354 1.66488 1.14569 0
M  V30 2380 C 230.675 0.400897 1.90835 0
M  V30 2381 O 229.945 -0.584415 1.8698 0
M  V30 2382 H 228.525 0.613672 0.425929 0
M  V30 2383 H 231.187 1.89464 0.457093 0
M  V30 2384 H 230.283 2.50942 1.85566 0
M  V30 2385 N 230.584 -0.659388 1.43143 0
M  V30 2386 C 231.83 -1.41984 1.45644 0
M  V30 2387 C 232.185 -1.92245 0.0771718 0
M  V30 2388 O 231.478 -1.68976 -0.903205 0
M  V30 2389 C 231.672 -2.62206 2.42864 0
M  V30 2390 C 231.501 -2.23711 3.90107 0
M  V30 2391 C 230.271 -2.12332 4.58523 0
M  V30 2392 C 232.469 -1.84384 4.80112 0
M  V30 2393 N 230.451 -1.67102 5.9072 0
M  V30 2394 C 231.822 -1.5019 6.01534 0
M  V30 2395 C 233.877 -1.71512 4.67427 0
M  V30 2396 C 232.58 -1.04414 7.11681 0
M  V30 2397 C 234.606 -1.27142 5.77572 0
M  V30 2398 C 233.968 -0.938808 6.98116 0
M  V30 2399 H 230.067 -0.515448 0.588079 0
M  V30 2400 H 232.651 -0.759409 1.79279 0
M  V30 2401 H 230.822 -3.25917 2.11265 0
M  V30 2402 H 232.554 -3.28877 2.35843 0
M  V30 2403 H 229.309 -2.31893 4.12944 0
M  V30 2404 H 229.733 -1.46866 6.60878 0
M  V30 2405 H 234.375 -1.95868 3.74694 0
M  V30 2406 H 232.093 -0.788061 8.04248 0
M  V30 2407 H 235.679 -1.17681 5.69774 0
M  V30 2408 H 234.559 -0.6007 7.81896 0
M  V30 2409 N 232.062 -1.29571 -0.897171 0
M  V30 2410 C 233.311 -1.1706 -1.64256 0
M  V30 2411 C 233.624 0.276476 -1.93636 0
M  V30 2412 O 234.83 0.52294 -2.66416 0
M  V30 2413 C 233.286 -2.0475 -2.95982 0
M  V30 2414 C 232.894 -3.54295 -2.74187 0
M  V30 2415 C 234.638 -2.0097 -3.73914 0
M  V30 2416 C 232.545 -4.34081 -4.01656 0
M  V30 2417 H 231.475 -0.43452 -0.616205 0
M  V30 2418 H 234.126 -1.54229 -0.994268 0
M  V30 2419 H 232.508 -1.60452 -3.62038 0
M  V30 2420 H 233.682 -4.06662 -2.1671 0
M  V30 2421 H 231.997 -3.59773 -2.09648 0
M  V30 2422 H 234.594 -2.57838 -4.68427 0
M  V30 2423 H 234.937 -0.990273 -4.0435 0
M  V30 2424 H 235.47 -2.43325 -3.14703 0
M  V30 2425 H 232.209 -5.36671 -3.76384 0
M  V30 2426 H 231.729 -3.86483 -4.58684 0
M  V30 2427 H 233.408 -4.44877 -4.69781 0
M  V30 2428 N 233.54 1.10788 -1.12088 0
M  V30 2429 C 234.768 1.86461 -0.896651 0
M  V30 2430 C 235.183 1.80492 0.553912 0
M  V30 2431 O 234.54 1.19102 1.38278 0
M  V30 2432 C 234.591 3.35006 -1.35843 0
M  V30 2433 O 234.312 3.40866 -2.75213 0
M  V30 2434 C 235.813 4.27565 -1.1706 0
M  V30 2435 H 233.033 0.589425 -0.320654 0
M  V30 2436 H 235.577 1.40076 -1.48993 0
M  V30 2437 H 233.732 3.7887 -0.808458 0
M  V30 2438 H 234.146 4.33411 -2.9539 0
M  V30 2439 H 235.62 5.30007 -1.54263 0
M  V30 2440 H 236.097 4.3906 -0.110814 0
M  V30 2441 H 236.703 3.89501 -1.70789 0
M  V30 2442 N 235.018 0.912232 1.28515 0
M  V30 2443 C 235.95 0.35676 2.26406 0
M  V30 2444 C 236.963 -0.503933 1.54804 0
M  V30 2445 O 238.152 -0.319059 1.75625 0
M  V30 2446 C 235.252 -0.508825 3.35058 0
M  V30 2447 C 234.425 0.329007 4.36161 0
M  V30 2448 C 233.484 -0.471422 5.24084 0
M  V30 2449 O 232.51 0.115482 5.69083 0
M  V30 2450 N 233.712 -1.77479 5.52704 0
M  V30 2451 H 236.477 1.19818 2.74707 0
M  V30 2452 H 234.038 0.778022 1.4198 0
M  V30 2453 H 236.03 -1.051 3.90815 0
M  V30 2454 H 234.6 -1.25095 2.86478 0
M  V30 2455 H 233.82 1.05256 3.79888 0
M  V30 2456 H 235.108 0.90234 5.00735 0
M  V30 2457 H 234.506 -2.27417 5.17975 0
M  V30 2458 H 233.063 -2.26382 6.11224 0
M  V30 2459 N 236.496 -1.42363 0.676048 0
M  V30 2460 C 237.726 -2.05561 0.206967 0
M  V30 2461 C 238.134 -1.50887 -1.14148 0
M  V30 2462 O 237.477 -0.643933 -1.72044 0
M  V30 2463 C 237.539 -3.5944 0.0659508 0
M  V30 2464 C 237.203 -4.36812 1.34331 0
M  V30 2465 C 238.2 -4.67383 2.27704 0
M  V30 2466 C 235.885 -4.76429 1.59125 0
M  V30 2467 C 237.879 -5.36509 3.44147 0
M  V30 2468 C 235.566 -5.45294 2.75857 0
M  V30 2469 C 236.564 -5.75259 3.68193 0
M  V30 2470 O 236.252 -6.42712 4.82883 0
M  V30 2471 H 235.984 -0.668872 0.0979084 0
M  V30 2472 H 238.538 -1.83467 0.923531 0
M  V30 2473 H 236.768 -3.80197 -0.706204 0
M  V30 2474 H 238.457 -4.0427 -0.363418 0
M  V30 2475 H 239.223 -4.37275 2.09799 0
M  V30 2476 H 235.102 -4.52498 0.881258 0
M  V30 2477 H 238.646 -5.59814 4.16238 0
M  V30 2478 H 234.543 -5.7482 2.93688 0
M  V30 2479 H 235.311 -6.61204 4.82444 0
M  V30 2480 N 237.974 -0.419461 -1.51915 0
M  V30 2481 C 239.202 0.152136 -2.0634 0
M  V30 2482 C 239.617 1.37988 -1.28859 0
M  V30 2483 O 238.974 1.79243 -0.343232 0
M  V30 2484 C 239.025 0.492266 -3.58133 0
M  V30 2485 O 238.746 -0.686736 -4.32684 0
M  V30 2486 C 240.247 1.11648 -4.2901 0
M  V30 2487 H 237.467 0.0158325 -0.670813 0
M  V30 2488 H 240.011 -0.593394 -1.95702 0
M  V30 2489 H 238.166 1.18769 -3.68745 0
M  V30 2490 H 238.58 -0.400341 -5.2297 0
M  V30 2491 H 240.054 1.3046 -5.36362 0
M  V30 2492 H 240.531 2.09251 -3.86148 0
M  V30 2493 H 241.137 0.460958 -4.22795 0
M  V30 2494 N 239.452 1.56882 -0.150215 0
M  V30 2495 C 240.863 1.82995 0.370076 0
M  V30 2496 C 241.214 1.06907 1.64515 0
M  V30 2497 O 240.339 0.315369 2.1409 0
M  V30 2498 C 240.934 3.31942 0.678208 0
M  V30 2499 C 239.493 3.58625 1.14301 0
M  V30 2500 C 238.64 2.76792 0.167778 0
M  V30 2501 H 241.591 1.54209 -0.374858 0
M  V30 2502 H 241.612 3.48272 1.53254 0
M  V30 2503 H 241.124 3.87294 -0.249991 0
M  V30 2504 H 239.225 3.08664 2.08704 0
M  V30 2505 H 239.338 4.67073 1.06676 0
M  V30 2506 H 237.702 2.45972 0.661037 0
M  V30 2507 H 238.485 3.34916 -0.754069 0
M  V30 2508 N 240.93 -0.123565 1.57115 0
M  V30 2509 C 242.16 -0.845233 1.88519 0
M  V30 2510 C 242.568 -1.74168 0.739064 0
M  V30 2511 O 241.911 -1.81244 -0.299355 0
M  V30 2512 C 241.973 -1.73452 3.14888 0
M  V30 2513 C 241.637 -1.01285 4.45635 0
M  V30 2514 C 242.634 -0.355774 5.18681 0
M  V30 2515 C 240.319 -0.99538 4.92339 0
M  V30 2516 C 242.313 0.309114 6.3665 0
M  V30 2517 C 240 -0.32669 6.10226 0
M  V30 2518 C 240.998 0.324406 6.82229 0
M  V30 2519 O 240.686 0.982437 7.97874 0
M  V30 2520 H 240.418 -0.248534 0.628655 0
M  V30 2521 H 242.972 -0.113907 2.05084 0
M  V30 2522 H 241.202 -2.50737 2.94394 0
M  V30 2523 H 242.891 -2.33021 3.32349 0
M  V30 2524 H 243.657 -0.360918 4.83655 0
M  V30 2525 H 239.536 -1.49159 4.36202 0
M  V30 2526 H 243.08 0.8179 6.92789 0
M  V30 2527 H 238.977 -0.319294 6.4471 0
M  V30 2528 H 239.745 0.886454 8.13686 0
M  V30 2529 N 242.408 -1.52605 -0.393616 0
M  V30 2530 C 243.34 -1.73303 -1.49995 0
M  V30 2531 C 244.353 -0.613473 -1.50799 0
M  V30 2532 O 245.542 -0.889049 -1.54784 0
M  V30 2533 C 242.642 -1.77245 -2.88855 0
M  V30 2534 C 241.815 -3.06483 -3.12069 0
M  V30 2535 C 240.874 -3.02033 -4.30886 0
M  V30 2536 O 239.9 -3.75907 -4.27414 0
M  V30 2537 N 241.102 -2.20897 -5.36828 0
M  V30 2538 H 243.867 -2.68756 -1.32629 0
M  V30 2539 H 241.428 -1.51036 -0.583083 0
M  V30 2540 H 243.42 -1.7178 -3.66434 0
M  V30 2541 H 241.99 -0.891993 -2.99603 0
M  V30 2542 H 241.21 -3.25474 -2.22396 0
M  V30 2543 H 242.498 -3.91947 -3.2443 0
M  V30 2544 H 241.896 -1.60336 -5.42502 0
M  V30 2545 H 240.453 -2.21275 -6.13091 0
M  V30 2546 N 243.887 0.651787 -1.4349 0
M  V30 2547 C 245.298 1.233 -1.40193 0
M  V30 2548 C 245.649 1.9591 -0.106727 0
M  V30 2549 O 244.774 2.01316 0.793773 0
M  V30 2550 C 245.369 2.24257 -2.53957 0
M  V30 2551 C 243.928 2.77852 -2.5392 0
M  V30 2552 C 243.075 1.52517 -2.3159 0
M  V30 2553 H 246.026 0.443717 -1.52371 0
M  V30 2554 H 246.047 3.0646 -2.25528 0
M  V30 2555 H 245.559 1.71382 -3.4821 0
M  V30 2556 H 243.66 3.34786 -1.63551 0
M  V30 2557 H 243.773 3.25299 -3.51735 0
M  V30 2558 H 242.137 1.79915 -1.80285 0
M  V30 2559 H 242.92 1.01574 -3.27929 0
M  V30 2560 N 245.365 1.30045 0.890287 0
M  V30 2561 C 246.275 1.17885 2.02831 0
M  V30 2562 C 247.291 0.0999609 1.73713 0
M  V30 2563 O 248.467 0.313867 1.98939 0
M  V30 2564 C 245.532 0.866079 3.35708 0
M  V30 2565 C 244.593 2.02979 3.78283 0
M  V30 2566 C 243.826 1.73184 5.0482 0
M  V30 2567 O 244.049 0.657237 5.66601 0
M  V30 2568 O 242.983 2.58267 5.43674 0
M  V30 2569 H 246.809 2.13474 2.16015 0
M  V30 2570 H 244.394 1.09587 1.01543 0
M  V30 2571 H 246.276 0.706623 4.15433 0
M  V30 2572 H 244.951 -0.0599443 3.23644 0
M  V30 2573 H 243.858 2.24454 2.99285 0
M  V30 2574 H 245.191 2.93734 3.94944 0
M  V30 2575 N 246.843 -1.10192 1.12674 0
M  V30 2576 C 248.089 -1.82475 0.884915 0
M  V30 2577 C 248.422 -1.85093 -0.58773 0
M  V30 2578 O 247.697 -1.3134 -1.43457 0
M  V30 2579 C 247.98 -3.29018 1.46353 0
M  V30 2580 C 247.833 -3.34718 3.00473 0
M  V30 2581 C 249.152 -4.25473 1.12519 0
M  V30 2582 H 246.271 -0.662492 0.322915 0
M  V30 2583 H 248.913 -1.2913 1.39375 0
M  V30 2584 H 247.063 -3.74576 1.03077 0
M  V30 2585 H 248.735 -2.97622 3.52447 0
M  V30 2586 H 246.978 -2.74541 3.35872 0
M  V30 2587 H 247.649 -4.37918 3.36053 0
M  V30 2588 H 250.125 -3.88161 1.499 0
M  V30 2589 H 249.001 -5.26365 1.55663 0
M  V30 2590 H 249.262 -4.42084 0.0377407 0
M  V30 2591 N 248.321 -0.919034 -1.28029 0
M  V30 2592 C 249.546 -0.570357 -1.99403 0
M  V30 2593 C 249.971 0.842486 -1.68178 0
M  V30 2594 O 249.329 1.56391 -0.917141 0
M  V30 2595 C 249.377 -0.792541 -3.51783 0
M  V30 2596 O 248.481 0.145988 -4.12142 0
M  V30 2597 H 247.822 -0.220555 -0.6263 0
M  V30 2598 H 250.352 -1.23592 -1.63053 0
M  V30 2599 H 250.362 -0.704708 -4.01868 0
M  V30 2600 H 249.037 -1.82247 -3.73844 0
M  V30 2601 H 247.614 0.00897528 -3.72899 0
M  V30 2602 N 249.799 1.42003 -0.683588 0
M  V30 2603 C 250.731 2.29183 0.0283068 0
M  V30 2604 C 251.744 1.4415 0.756611 0
M  V30 2605 O 252.933 1.67779 0.609306 0
M  V30 2606 C 250.033 3.21765 1.06398 0
M  V30 2607 C 249.206 4.35496 0.407723 0
M  V30 2608 C 248.265 5.08737 1.34437 0
M  V30 2609 O 247.291 5.62948 0.841318 0
M  V30 2610 N 248.493 5.15075 2.67728 0
M  V30 2611 H 251.258 2.9092 -0.720105 0
M  V30 2612 H 248.819 1.53025 -0.528682 0
M  V30 2613 H 250.811 3.6763 1.69204 0
M  V30 2614 H 249.381 2.61418 1.71404 0
M  V30 2615 H 248.601 3.92165 -0.400012 0
M  V30 2616 H 249.889 5.08776 -0.0490956 0
M  V30 2617 H 249.287 4.72457 3.11129 0
M  V30 2618 H 247.844 5.64556 3.2576 0
M  V30 2619 N 251.277 0.427512 1.51691 0
M  V30 2620 C 252.525 -0.141948 2.01601 0
M  V30 2621 C 252.846 -1.44067 1.31414 0
M  V30 2622 O 252.116 -1.90763 0.445658 0
M  V30 2623 H 250.696 -0.0554468 0.744939 0
M  V30 2624 H 253.358 0.567968 1.86441 0
M  V30 2625 H 252.454 -0.324913 3.10404 0
M  V30 2626 N 252.755 -1.56801 0.158532 0
M  V30 2627 C 254.171 -1.5837 -0.197774 0
M  V30 2628 C 254.371 -1.17334 -1.63814 0
M  V30 2629 O 253.427 -0.878988 -2.36707 0
M  V30 2630 C 254.74 -3.00615 0.0714459 0
M  V30 2631 C 256.288 -3.12999 0.00864533 0
M  V30 2632 C 256.763 -4.57313 0.250685 0
M  V30 2633 N 258.254 -4.62777 0.198014 0
M  V30 2634 C 258.989 -5.72271 0.359642 0
M  V30 2635 N 258.485 -6.90371 0.579625 0
M  V30 2636 N 260.278 -5.61318 0.296438 0
M  V30 2637 H 252.429 -1.81765 1.09887 0
M  V30 2638 H 254.692 -0.841849 0.435884 0
M  V30 2639 H 254.398 -3.35068 1.06874 0
M  V30 2640 H 254.272 -3.71683 -0.642757 0
M  V30 2641 H 256.659 -2.7838 -0.979217 0
M  V30 2642 H 256.74 -2.44393 0.755359 0
M  V30 2643 H 256.384 -4.92639 1.2357 0
M  V30 2644 H 256.314 -5.24061 -0.516489 0
M  V30 2645 H 258.805 -3.77885 0.0331115 0
M  V30 2646 H 259.118 -7.69689 0.69275 0
M  V30 2647 H 257.463 -6.92264 0.616087 0
M  V30 2648 H 260.654 -4.67932 0.125258 0
M  V30 2649 H 260.827 -6.46599 0.425831 0
M  V30 2650 N 254.233 0.115231 -1.57178 0
M  V30 2651 C 255.163 1.1423 -2.03651 0
M  V30 2652 C 256.144 1.42967 -0.921655 0
M  V30 2653 O 257.329 1.53343 -1.19162 0
M  V30 2654 C 254.459 2.4675 -2.44401 0
M  V30 2655 C 253.413 2.32467 -3.59365 0
M  V30 2656 C 252.739 3.69984 -3.86026 0
M  V30 2657 C 254.039 1.78203 -4.90959 0
M  V30 2658 H 255.733 0.755749 -2.89705 0
M  V30 2659 H 253.279 0.362093 -1.39373 0
M  V30 2660 H 255.232 3.18854 -2.75517 0
M  V30 2661 H 253.956 2.87302 -1.55322 0
M  V30 2662 H 252.615 1.62811 -3.28463 0
M  V30 2663 H 252.263 4.08028 -2.94147 0
M  V30 2664 H 251.963 3.61279 -4.63412 0
M  V30 2665 H 253.487 4.43587 -4.19599 0
M  V30 2666 H 254.901 2.40128 -5.20587 0
M  V30 2667 H 253.298 1.8031 -5.72371 0
M  V30 2668 H 254.368 0.739876 -4.79222 0
M  V30 2669 N 255.711 1.52812 0.385517 0
M  V30 2670 C 256.621 1.80766 1.49535 0
M  V30 2671 C 257.637 0.694651 1.59532 0
M  V30 2672 O 258.813 0.982611 1.75803 0
M  V30 2673 C 255.878 1.97381 2.85029 0
M  V30 2674 C 254.939 3.21295 2.84724 0
M  V30 2675 C 254.172 3.37108 4.13756 0
M  V30 2676 O 254.395 2.5765 5.08893 0
M  V30 2677 O 253.329 4.30378 4.20783 0
M  V30 2678 H 257.155 2.75015 1.28842 0
M  V30 2679 H 254.74 1.37946 0.573697 0
M  V30 2680 H 256.622 2.09996 3.65349 0
M  V30 2681 H 255.297 1.06322 3.05741 0
M  V30 2682 H 254.204 3.1412 2.03174 0
M  V30 2683 H 255.537 4.12212 2.68965 0
M  V30 2684 N 257.189 -0.644168 1.43834 0
M  V30 2685 C 258.414 -1.43642 1.49605 0
M  V30 2686 C 258.839 -1.8773 0.117913 0
M  V30 2687 O 258.197 -1.57938 -0.890239 0
M  V30 2688 C 258.245 -2.6416 2.45463 0
M  V30 2689 O 257.349 -3.63538 1.94714 0
M  V30 2690 H 256.69 -0.430329 0.50568 0
M  V30 2691 H 259.22 -0.787448 1.8884 0
M  V30 2692 H 259.23 -3.11864 2.63068 0
M  V30 2693 H 257.905 -2.31414 3.45572 0
M  V30 2694 H 256.482 -3.2273 1.86814 0
M  V30 2695 N 258.668 -1.30515 -0.883378 0
M  V30 2696 C 259.598 -1.19607 -2.00541 0
M  V30 2697 C 260.579 -0.086346 -1.69881 0
M  V30 2698 O 261.764 -0.268654 -1.92333 0
M  V30 2699 C 258.894 -0.888758 -3.35736 0
M  V30 2700 C 257.848 -1.95659 -3.8066 0
M  V30 2701 C 257.174 -1.50224 -5.13164 0
M  V30 2702 C 258.474 -3.36788 -3.99213 0
M  V30 2703 H 260.168 -2.13476 -2.09925 0
M  V30 2704 H 257.714 -1.02775 -1.00863 0
M  V30 2705 H 259.667 -0.799094 -4.13754 0
M  V30 2706 H 258.391 0.0856125 -3.26488 0
M  V30 2707 H 257.05 -2.03591 -3.04871 0
M  V30 2708 H 256.698 -0.516092 -5.00345 0
M  V30 2709 H 256.398 -2.2165 -5.44192 0
M  V30 2710 H 257.922 -1.42639 -5.93706 0
M  V30 2711 H 259.336 -3.31605 -4.67665 0
M  V30 2712 H 257.733 -4.06314 -4.41621 0
M  V30 2713 H 258.803 -3.78561 -3.03017 0
M  V30 2714 N 260.146 1.09593 -1.13257 0
M  V30 2715 C 261.076 2.18214 -0.830946 0
M  V30 2716 C 262.057 1.68812 0.208966 0
M  V30 2717 O 263.242 1.9408 0.0682666 0
M  V30 2718 C 260.372 3.46051 -0.294296 0
M  V30 2719 C 259.326 4.08778 -1.26826 0
M  V30 2720 C 258.652 5.31419 -0.591449 0
M  V30 2721 C 259.952 4.51476 -2.62615 0
M  V30 2722 H 261.646 2.43703 -1.73923 0
M  V30 2723 H 259.192 1.17128 -0.837675 0
M  V30 2724 H 261.145 4.2134 -0.0709606 0
M  V30 2725 H 259.869 3.20079 0.649366 0
M  V30 2726 H 258.528 3.35505 -1.47756 0
M  V30 2727 H 258.176 5.01727 0.357633 0
M  V30 2728 H 257.876 5.74341 -1.24123 0
M  V30 2729 H 259.4 6.09433 -0.377355 0
M  V30 2730 H 260.814 5.17999 -2.45663 0
M  V30 2731 H 259.211 5.05277 -3.23752 0
M  V30 2732 H 260.281 3.63962 -3.20406 0
M  V30 2733 N 261.624 0.925811 1.2754 0
M  V30 2734 C 262.572 0.413897 2.28888 0
M  V30 2735 C 263.566 -0.500779 1.61829 0
M  V30 2736 O 264.772 -0.38069 1.75928 0
M  V30 2737 H 261.147 0.115274 0.743112 0
M  V30 2738 H 263.118 1.28151 2.69481 0
M  V30 2739 C 261.867 -0.319792 3.46226 0
M  V30 2740 H 261.19 0.374846 3.98039 0
M  V30 2741 H 262.63 -0.642435 4.19105 0
M  V30 2742 C 261.089 -1.53209 3.00048 0
M  V30 2743 O 261.619 -2.6309 3.03557 0
M  V30 2744 N 259.825 -1.38326 2.55566 0
M  V30 2745 H 259.372 -0.489292 2.5291 0
M  V30 2746 H 259.33 -2.19564 2.25031 0
M  V30 2747 N 263.102 -1.41638 0.69111 0
M  V30 2748 C 264.332 -2.0533 0.228758 0
M  V30 2749 C 264.74 -1.52089 -1.12541 0
M  V30 2750 O 264.083 -0.662145 -1.71351 0
M  V30 2751 C 264.145 -3.59349 0.10407 0
M  V30 2752 C 263.809 -4.35362 1.38956 0
M  V30 2753 C 264.806 -4.64942 2.32648 0
M  V30 2754 C 262.491 -4.74714 1.64169 0
M  V30 2755 C 264.485 -5.32828 3.49818 0
M  V30 2756 C 262.172 -5.42338 2.81625 0
M  V30 2757 C 263.17 -5.71322 3.74273 0
M  V30 2758 O 262.858 -6.37554 4.89673 0
M  V30 2759 H 262.59 -0.667796 0.104997 0
M  V30 2760 H 265.144 -1.82477 0.942938 0
M  V30 2761 H 263.374 -3.80924 -0.665839 0
M  V30 2762 H 265.063 -4.04633 -0.320519 0
M  V30 2763 H 265.829 -4.35025 2.14425 0
M  V30 2764 H 261.708 -4.51538 0.929202 0
M  V30 2765 H 265.252 -5.55368 4.22152 0
M  V30 2766 H 261.149 -5.71673 2.99768 0
M  V30 2767 H 261.917 -6.56049 4.8943 0
M  V30 2768 N 264.58 -0.43555 -1.51462 0
M  V30 2769 C 265.512 0.41257 -2.25456 0
M  V30 2770 C 266.525 0.987822 -1.29406 0
M  V30 2771 O 267.714 0.882266 -1.55172 0
M  V30 2772 C 264.814 1.58894 -2.99342 0
M  V30 2773 C 263.987 1.13288 -4.22474 0
M  V30 2774 C 263.046 2.17917 -4.78956 0
M  V30 2775 O 262.072 1.77425 -5.40841 0
M  V30 2776 N 263.274 3.50382 -4.62832 0
M  V30 2777 H 266.039 -0.221603 -2.9888 0
M  V30 2778 H 263.6 -0.264342 -1.59727 0
M  V30 2779 H 265.592 2.28508 -3.34015 0
M  V30 2780 H 264.162 2.12849 -2.28941 0
M  V30 2781 H 263.382 0.263881 -3.93316 0
M  V30 2782 H 264.67 0.805542 -5.02383 0
M  V30 2783 H 264.068 3.86013 -4.13534 0
M  V30 2784 H 262.625 4.15895 -5.01871 0
M  V30 2785 N 266.058 1.56714 -0.166846 0
M  V30 2786 C 267.286 2.0112 0.485644 0
M  V30 2787 C 267.701 1.04705 1.57106 0
M  V30 2788 O 267.058 0.0471923 1.82439 0
M  V30 2789 C 267.109 3.45361 1.06808 0
M  V30 2790 O 266.83 4.38092 0.0259995 0
M  V30 2791 C 268.331 4.05145 1.79924 0
M  V30 2792 H 265.551 0.65931 0.124704 0
M  V30 2793 H 268.095 2.02746 -0.267262 0
M  V30 2794 H 266.25 3.44524 1.7715 0
M  V30 2795 H 266.664 5.22519 0.455398 0
M  V30 2796 H 268.138 5.08009 2.15942 0
M  V30 2797 H 268.615 3.46982 2.69258 0
M  V30 2798 H 269.221 4.09672 1.14234 0
M  V30 2799 N 267.536 -0.106894 1.57237 0
M  V30 2800 C 268.469 -1.16125 1.96444 0
M  V30 2801 C 269.447 -1.3947 0.835871 0
M  V30 2802 O 270.631 -1.53425 1.09513 0
M  V30 2803 C 267.758 -2.51277 2.27107 0
M  V30 2804 C 266.804 -2.44285 3.4961 0
M  V30 2805 S 267.637 -1.87077 5.01759 0
M  V30 2806 C 268.793 -3.23877 5.35588 0
M  V30 2807 H 269.026 -0.826971 2.85567 0
M  V30 2808 H 266.559 -0.314124 1.51171 0
M  V30 2809 H 268.517 -3.29035 2.45451 0
M  V30 2810 H 267.178 -2.81879 1.38576 0
M  V30 2811 H 266.371 -3.4387 3.68469 0
M  V30 2812 H 265.973 -1.74652 3.30715 0
M  V30 2813 H 268.265 -4.20122 5.31511 0
M  V30 2814 H 269.208 -3.09833 6.36717 0
M  V30 2815 H 269.616 -3.22864 4.63054 0
M  V30 2816 N 269.014 -1.53014 -0.377408 0
M  V30 2817 C 270.26 -1.68872 -1.12294 0
M  V30 2818 C 270.593 -0.433224 -1.89306 0
M  V30 2819 O 269.868 0.569258 -1.85983 0
M  V30 2820 C 270.151 -2.93115 -2.09179 0
M  V30 2821 C 270.004 -4.28794 -1.35853 0
M  V30 2822 C 271.323 -3.12928 -3.09458 0
M  V30 2823 H 268.442 -0.614518 -0.406862 0
M  V30 2824 H 271.084 -1.85633 -0.40503 0
M  V30 2825 H 269.234 -2.78956 -2.70399 0
M  V30 2826 H 270.906 -4.54742 -0.775082 0
M  V30 2827 H 269.149 -4.28744 -0.660364 0
M  V30 2828 H 269.82 -5.11837 -2.06706 0
M  V30 2829 H 272.296 -3.26194 -2.58334 0
M  V30 2830 H 271.172 -4.01316 -3.74482 0
M  V30 2831 H 271.433 -2.27669 -3.78971 0
M  V30 2832 N 270.492 0.636531 -1.44174 0
M  V30 2833 C 271.732 1.40781 -1.48189 0
M  V30 2834 C 272.096 1.91688 -0.10944 0
M  V30 2835 O 273.297 2.68789 -0.0242741 0
M  V30 2836 C 271.568 2.54575 -2.50851 0
M  V30 2837 S 273.127 3.4284 -2.73873 0
M  V30 2838 H 269.945 0.480345 -0.524204 0
M  V30 2839 H 272.547 0.737416 -1.81059 0
M  V30 2840 H 271.251 2.15478 -3.49281 0
M  V30 2841 H 270.782 3.26447 -2.19536 0
M  V30 2842 H 272.797 4.51846 -2.05059 0
M  V30 2843 N 271.97 1.30982 0.876444 0
M  V30 2844 C 273.247 1.10942 1.61094 0
M  V30 2845 C 273.627 -0.338223 2.08373 0
M  V30 2846 O 272.975 -1.33122 1.85717 0
M  V30 2847 C 273.185 2.11789 2.77392 0
M  V30 2848 C 274.533 2.43965 3.47514 0
M  V30 2849 O 275.557 2.10166 2.87591 0
M  V30 2850 O 274.416 3.01817 4.55597 0
M  V30 2851 H 271.51 0.42667 0.708436 0
M  V30 2852 H 274.056 1.42438 0.922474 0
M  V30 2853 H 272.828 3.09194 2.39823 0
M  V30 2854 H 272.451 1.81161 3.5393 0
M  V30 2855 N 273.449 -1.08991 1.13837 0
M  V30 2856 C 274.698 -1.80631 0.897509 0
M  V30 2857 C 275.011 -1.86872 -0.57777 0
M  V30 2858 O 276.217 -2.54866 -0.935701 0
M  V30 2859 C 274.673 -3.24517 1.55618 0
M  V30 2860 C 274.281 -3.26529 3.0673 0
M  V30 2861 C 276.025 -4.00882 1.3962 0
M  V30 2862 C 273.932 -4.64965 3.65461 0
M  V30 2863 H 272.862 -0.67691 0.332129 0
M  V30 2864 H 275.513 -1.2246 1.3666 0
M  V30 2865 H 273.895 -3.82778 1.01476 0
M  V30 2866 H 275.069 -2.78008 3.67489 0
M  V30 2867 H 273.384 -2.63656 3.22296 0
M  V30 2868 H 275.981 -5.03167 1.80906 0
M  V30 2869 H 276.324 -4.14896 0.341578 0
M  V30 2870 H 276.857 -3.49075 1.90766 0
M  V30 2871 H 273.596 -4.56153 4.70749 0
M  V30 2872 H 273.116 -5.13792 3.09481 0
M  V30 2873 H 274.795 -5.3394 3.654 0
M  V30 2874 N 274.927 -0.932562 -1.27047 0
M  V30 2875 C 276.155 -0.592031 -1.98249 0
M  V30 2876 C 276.57 0.831062 -1.69525 0
M  V30 2877 O 275.927 1.55299 -0.958561 0
M  V30 2878 C 275.978 -0.814279 -3.5221 0
M  V30 2879 O 275.699 -2.18139 -3.7993 0
M  V30 2880 C 277.2 -0.483121 -4.4066 0
M  V30 2881 H 274.42 -0.223896 -0.632544 0
M  V30 2882 H 276.964 -1.25091 -1.61779 0
M  V30 2883 H 275.119 -0.20213 -3.86872 0
M  V30 2884 H 275.533 -2.235 -4.74498 0
M  V30 2885 H 277.007 -0.689298 -5.47679 0
M  V30 2886 H 277.484 0.581546 -4.35333 0
M  V30 2887 H 278.09 -1.07362 -4.11526 0
M  V30 2888 N 276.405 1.4127 -0.698611 0
M  V30 2889 C 277.653 2.00782 -0.230409 0
M  V30 2890 C 277.974 1.5562 1.17505 0
M  V30 2891 O 277.244 0.78815 1.79346 0
M  V30 2892 H 275.824 0.742464 -0.0821944 0
M  V30 2893 H 278.486 1.72852 -0.90045 0
M  V30 2894 H 277.582 3.11095 -0.25021 0
M  V30 2895 N 277.883 0.443576 1.51229 0
M  V30 2896 C 278.813 -0.355142 2.30783 0
M  V30 2897 C 279.794 -1.0154 1.36468 0
M  V30 2898 O 280.979 -1.01785 1.65389 0
M  V30 2899 C 278.109 -1.45312 3.15439 0
M  V30 2900 C 277.063 -0.916002 4.18083 0
M  V30 2901 C 276.389 -2.1102 4.91299 0
M  V30 2902 C 277.689 0.0538602 5.22272 0
M  V30 2903 H 279.383 0.308767 2.97804 0
M  V30 2904 H 276.929 0.149937 1.43217 0
M  V30 2905 H 278.882 -2.01914 3.69876 0
M  V30 2906 H 277.606 -2.14541 2.46252 0
M  V30 2907 H 276.265 -0.372145 3.64706 0
M  V30 2908 H 275.913 -2.78882 4.18609 0
M  V30 2909 H 275.613 -1.75717 5.60712 0
M  V30 2910 H 277.137 -2.68164 5.48562 0
M  V30 2911 H 278.551 -0.422069 5.71744 0
M  V30 2912 H 276.948 0.319776 5.99247 0
M  V30 2913 H 278.018 0.98858 4.74716 0
M  V30 2914 N 279.361 -1.56624 0.175154 0
M  V30 2915 C 280.638 -1.88688 -0.515373 0
M  V30 2916 C 281.018 -1.08564 -1.81044 0
M  V30 2917 O 280.366 -0.180703 -2.27784 0
M  V30 2918 C 280.576 -3.40768 -0.753552 0
M  V30 2919 C 281.924 -4.10587 -1.08184 0
M  V30 2920 O 282.948 -3.46106 -0.841961 0
M  V30 2921 O 281.807 -5.24512 -1.53459 0
M  V30 2922 H 278.901 -0.78301 -0.26613 0
M  V30 2923 H 281.447 -1.68347 0.213877 0
M  V30 2924 H 280.219 -3.90965 0.161829 0
M  V30 2925 H 279.842 -3.66733 -1.53598 0
M  V30 2926 N 280.839 0.0985539 -1.57292 0
M  V30 2927 C 281.772 1.15082 -1.97057 0
M  V30 2928 C 282.75 1.39025 -0.843255 0
M  V30 2929 O 283.934 1.52842 -1.10325 0
M  V30 2930 C 281.061 2.50069 -2.28437 0
M  V30 2931 C 280.107 2.42428 -3.509 0
M  V30 2932 S 280.94 1.84414 -5.02744 0
M  V30 2933 C 282.096 3.21032 -5.37298 0
M  V30 2934 H 282.329 0.811815 -2.86002 0
M  V30 2935 H 279.862 0.306102 -1.51335 0
M  V30 2936 H 281.82 3.27729 -2.47192 0
M  V30 2937 H 280.481 2.8114 -1.40069 0
M  V30 2938 H 279.674 3.41911 -3.70288 0
M  V30 2939 H 279.276 1.72896 -3.31637 0
M  V30 2940 H 281.568 4.17297 -5.33731 0
M  V30 2941 H 282.511 3.06452 -6.38352 0
M  V30 2942 H 282.919 3.20404 -4.64759 0
M  V30 2943 N 282.317 1.53212 0.369288 0
M  V30 2944 C 283.28 1.7872 1.43498 0
M  V30 2945 C 284.28 0.657554 1.46741 0
M  V30 2946 O 285.47 0.925736 1.47566 0
M  V30 2947 C 282.602 1.90591 2.82645 0
M  V30 2948 H 283.795 2.73894 1.22156 0
M  V30 2949 H 281.348 1.44233 0.602203 0
M  V30 2950 H 282.083 0.974709 3.09306 0
M  V30 2951 H 281.868 2.72751 2.8169 0
M  V30 2952 H 283.358 2.11931 3.59826 0
M  V30 2953 N 283.795 -0.628877 1.44509 0
M  V30 2954 C 284.743 -1.76193 1.51852 0
M  V30 2955 C 285.737 -1.64849 0.390042 0
M  V30 2956 O 286.943 -1.709 0.565082 0
M  V30 2957 H 283.318 -0.581728 0.476547 0
M  V30 2958 H 285.289 -1.67123 2.47209 0
M  V30 2959 C 284.038 -3.14533 1.48204 0
M  V30 2960 H 283.361 -3.23911 2.34354 0
M  V30 2961 H 284.801 -3.93701 1.57402 0
M  V30 2962 C 283.26 -3.36287 0.203142 0
M  V30 2963 O 283.79 -3.9509 -0.725745 0
M  V30 2964 N 281.996 -2.90408 0.105563 0
M  V30 2965 H 281.543 -2.42739 0.862301 0
M  V30 2966 H 281.501 -3.05339 -0.749371 0
M  V30 2967 N 285.273 -1.31445 -0.869486 0
M  V30 2968 C 286.236 -1.19094 -1.9583 0
M  V30 2969 C 287.236 -0.117906 -1.60367 0
M  V30 2970 O 288.426 -0.367208 -1.70286 0
M  V30 2971 C 285.558 -0.828165 -3.30688 0
M  V30 2972 H 286.751 -2.15842 -2.08212 0
M  V30 2973 H 284.304 -1.15063 -1.05784 0
M  V30 2974 H 285.039 0.138142 -3.24006 0
M  V30 2975 H 284.824 -1.6038 -3.578 0
M  V30 2976 H 286.314 -0.765658 -4.10521 0
M  V30 2977 N 286.751 1.08385 -1.14413 0
M  V30 2978 C 287.976 1.85057 -0.936413 0
M  V30 2979 C 288.401 1.81055 0.509971 0
M  V30 2980 O 287.759 1.1958 1.36273 0
M  V30 2981 C 287.807 3.30505 -1.44217 0
M  V30 2982 O 286.911 4.07491 -0.634409 0
M  V30 2983 H 286.252 0.573425 -0.334784 0
M  V30 2984 H 288.782 1.36799 -1.52142 0
M  V30 2985 H 288.792 3.81348 -1.45043 0
M  V30 2986 H 287.467 3.32734 -2.49522 0
M  V30 2987 H 286.044 3.66368 -0.694902 0
M  V30 2988 N 288.23 0.939286 1.26551 0
M  V30 2989 C 289.16 0.465044 2.28822 0
M  V30 2990 C 290.141 -0.480692 1.63167 0
M  V30 2991 O 291.326 -0.382955 1.90387 0
M  V30 2992 C 288.456 -0.27234 3.46231 0
M  V30 2993 C 287.41 0.58666 4.2396 0
M  V30 2994 C 286.736 -0.280573 5.33963 0
M  V30 2995 C 288.036 1.85704 4.88171 0
M  V30 2996 H 289.73 1.31979 2.68741 0
M  V30 2997 H 287.276 0.636061 1.29191 0
M  V30 2998 H 289.229 -0.615133 4.16886 0
M  V30 2999 H 287.953 -1.16121 3.0526 0
M  V30 3000 H 286.612 0.91232 3.55067 0
M  V30 3001 H 286.26 -1.16874 4.89234 0
M  V30 3002 H 285.96 0.29076 5.8688 0
M  V30 3003 H 287.484 -0.618678 6.07458 0
M  V30 3004 H 288.898 1.58161 5.51052 0
M  V30 3005 H 287.295 2.37279 5.51197 0
M  V30 3006 H 288.365 2.56957 4.11219 0
M  V30 3007 N 289.708 -1.40897 0.706093 0
M  V30 3008 C 290.638 -2.33418 0.0620085 0
M  V30 3009 C 291.619 -1.52385 -0.755827 0
M  V30 3010 O 292.804 -1.80886 -0.706674 0
M  V30 3011 C 289.934 -3.36293 -0.867445 0
M  V30 3012 C 288.888 -4.27716 -0.155932 0
M  V30 3013 C 288.214 -5.2105 -1.20046 0
M  V30 3014 C 289.514 -5.12944 0.984149 0
M  V30 3015 H 291.208 -2.87527 0.83477 0
M  V30 3016 H 288.754 -1.38249 0.402875 0
M  V30 3017 H 290.707 -3.99949 -1.32735 0
M  V30 3018 H 289.431 -2.80556 -1.67199 0
M  V30 3019 H 288.09 -3.65498 0.284047 0
M  V30 3020 H 287.738 -4.61624 -1.99781 0
M  V30 3021 H 287.438 -5.83056 -0.729328 0
M  V30 3022 H 288.962 -5.87584 -1.66066 0
M  V30 3023 H 290.376 -5.70109 0.604048 0
M  V30 3024 H 288.773 -5.83945 1.38304 0
M  V30 3025 H 289.843 -4.49485 1.81911 0
M  V30 3026 N 291.186 -0.45159 -1.50991 0
M  V30 3027 C 292.463 0.170707 -1.94854 0
M  V30 3028 C 292.843 1.58788 -1.39103 0
M  V30 3029 O 292.191 2.20913 -0.583921 0
M  V30 3030 C 292.401 0.133929 -3.48743 0
M  V30 3031 C 293.749 0.33248 -4.23296 0
M  V30 3032 O 294.773 0.211403 -3.55572 0
M  V30 3033 O 293.632 0.57486 -5.43468 0
M  V30 3034 H 290.726 0.122264 -0.817912 0
M  V30 3035 H 293.272 -0.510594 -1.61836 0
M  V30 3036 H 292.044 -0.856283 -3.81816 0
M  V30 3037 H 291.667 0.857529 -3.88242 0
M  V30 3038 N 292.664 1.56529 -0.183458 0
M  V30 3039 C 293.574 2.22144 0.754272 0
M  V30 3040 C 294.59 1.21684 1.24374 0
M  V30 3041 O 295.766 1.54385 1.29333 0
M  V30 3042 C 292.831 2.85884 1.96141 0
M  V30 3043 C 291.892 4.01579 1.51765 0
M  V30 3044 C 291.125 4.6227 2.66725 0
M  V30 3045 O 291.348 4.21865 3.83909 0
M  V30 3046 O 290.282 5.51936 2.40104 0
M  V30 3047 H 294.108 3.02861 0.225527 0
M  V30 3048 H 291.693 1.49331 0.0453032 0
M  V30 3049 H 293.575 3.26253 2.66715 0
M  V30 3050 H 292.25 2.08154 2.47899 0
M  V30 3051 H 291.157 3.65856 0.781049 0
M  V30 3052 H 292.49 4.80938 1.04686 0
M  V30 3053 N 294.142 -0.090211 1.57342 0
M  V30 3054 C 295.39 -0.791241 1.85967 0
M  V30 3055 C 295.711 -1.7903 0.772859 0
M  V30 3056 O 294.981 -1.94872 -0.200398 0
M  V30 3057 H 293.561 -0.295205 0.686195 0
M  V30 3058 H 296.223 -0.0706782 1.94772 0
M  V30 3059 H 295.319 -1.31882 2.82867 0
M  V30 3060 N 295.62 -1.53406 -0.361157 0
M  V30 3061 C 296.848 -1.73717 -1.12383 0
M  V30 3062 C 297.263 -0.468161 -1.82904 0
M  V30 3063 O 296.62 0.559198 -1.73722 0
M  V30 3064 C 296.671 -2.90558 -2.15078 0
M  V30 3065 O 296.392 -4.12549 -1.47428 0
M  V30 3066 C 297.893 -3.22777 -3.03858 0
M  V30 3067 H 295.113 -0.580896 -0.335858 0
M  V30 3068 H 297.657 -2.00167 -0.418728 0
M  V30 3069 H 295.812 -2.66489 -2.8118 0
M  V30 3070 H 296.226 -4.78009 -2.15887 0
M  V30 3071 H 297.7 -4.07927 -3.71887 0
M  V30 3072 H 298.177 -2.38329 -3.68912 0
M  V30 3073 H 298.783 -3.48787 -2.43367 0
M  V30 3074 N 297.098 0.621204 -1.44841 0
M  V30 3075 C 298.061 1.71459 -1.521 0
M  V30 3076 C 299.061 1.55696 -0.401933 0
M  V30 3077 O 300.251 1.61011 -0.664925 0
M  V30 3078 C 297.383 3.10624 -1.40447 0
M  V30 3079 H 298.576 1.66394 -2.49506 0
M  V30 3080 H 296.129 0.835745 -1.3208 0
M  V30 3081 H 296.864 3.21277 -0.441737 0
M  V30 3082 H 296.649 3.23473 -2.21602 0
M  V30 3083 H 298.139 3.90293 -1.4853 0
M  V30 3084 N 298.576 1.31904 0.862503 0
M  V30 3085 C 299.539 1.20131 1.95195 0
M  V30 3086 C 300.539 0.126409 1.60302 0
M  V30 3087 O 301.729 0.376234 1.70089 0
M  V30 3088 C 298.861 0.845691 3.30244 0
M  V30 3089 H 300.054 2.16943 2.07064 0
M  V30 3090 H 297.607 1.15622 1.05172 0
M  V30 3091 H 298.342 -0.120957 3.24074 0
M  V30 3092 H 298.127 1.62276 3.56944 0
M  V30 3093 H 299.617 0.787418 4.10109 0
M  V30 3094 N 300.054 -1.07777 1.14986 0
M  V30 3095 C 301.017 -2.13041 0.845358 0
M  V30 3096 C 302.017 -1.60071 -0.152931 0
M  V30 3097 O 303.207 -1.74033 0.0761879 0
M  V30 3098 C 300.339 -3.39896 0.261383 0
M  V30 3099 H 301.532 -2.41485 1.77834 0
M  V30 3100 H 299.085 -1.23595 0.956757 0
M  V30 3101 H 299.82 -3.17091 -0.68 0
M  V30 3102 H 299.605 -3.79642 0.980514 0
M  V30 3103 H 301.095 -4.17548 0.0657687 0
M  V30 3104 N 301.532 -0.945985 -1.26051 0
M  V30 3105 C 302.442 -0.465633 -2.29933 0
M  V30 3106 C 303.458 0.462761 -1.67733 0
M  V30 3107 O 304.634 0.341118 -1.9849 0
M  V30 3108 C 301.699 0.256994 -3.45746 0
M  V30 3109 C 300.76 -0.708549 -4.23412 0
M  V30 3110 C 299.993 -0.0203135 -5.33696 0
M  V30 3111 O 300.216 1.19571 -5.57726 0
M  V30 3112 O 299.15 -0.701459 -5.97799 0
M  V30 3113 H 302.976 -1.32866 -2.73094 0
M  V30 3114 H 300.561 -0.712071 -1.31339 0
M  V30 3115 H 302.443 0.663852 -4.16138 0
M  V30 3116 H 301.118 1.09533 -3.04605 0
M  V30 3117 H 300.025 -1.16545 -3.55483 0
M  V30 3118 H 301.358 -1.51465 -4.68315 0
M  V30 3119 N 303.011 1.40521 -0.713556 0
M  V30 3120 C 303.974 2.29098 -0.0684347 0
M  V30 3121 C 304.974 1.45268 0.689472 0
M  V30 3122 O 306.164 1.66205 0.521677 0
M  V30 3123 C 303.296 3.28446 0.913024 0
M  V30 3124 H 304.489 2.87645 -0.84855 0
M  V30 3125 H 302.042 1.48809 -0.47809 0
M  V30 3126 H 302.777 2.74913 1.72027 0
M  V30 3127 H 302.562 3.90327 0.372472 0
M  V30 3128 H 304.052 3.94777 1.36165 0
M  V30 3129 N 304.489 0.459591 1.5075 0
M  V30 3130 C 305.419 -0.330644 2.31147 0
M  V30 3131 C 306.4 -1.00087 1.37538 0
M  V30 3132 O 307.585 -1.00025 1.66459 0
M  V30 3133 C 304.715 -1.41958 3.16962 0
M  V30 3134 C 303.669 -0.871608 4.19031 0
M  V30 3135 C 302.995 -2.05797 4.9351 0
M  V30 3136 C 304.295 0.109251 5.22186 0
M  V30 3137 H 305.989 0.340336 2.97459 0
M  V30 3138 H 303.535 0.165119 1.4305 0
M  V30 3139 H 305.488 -1.9798 3.71997 0
M  V30 3140 H 304.212 -2.11917 2.48513 0
M  V30 3141 H 302.871 -0.333442 3.6508 0
M  V30 3142 H 302.519 -2.74427 4.21544 0
M  V30 3143 H 302.219 -1.6976 5.62544 0
M  V30 3144 H 303.743 -2.62331 5.51375 0
M  V30 3145 H 305.157 -0.361405 5.7216 0
M  V30 3146 H 303.554 0.383316 5.98875 0
M  V30 3147 H 304.624 1.03887 4.73641 0
M  V30 3148 N 305.967 -1.56429 0.191757 0
M  V30 3149 C 306.899 -2.16154 -0.762245 0
M  V30 3150 C 307.912 -1.12247 -1.17917 0
M  V30 3151 O 309.101 -1.39353 -1.11548 0
M  V30 3152 C 306.201 -2.70606 -2.04024 0
M  V30 3153 C 305.374 -3.99381 -1.78364 0
M  V30 3154 C 304.433 -4.38692 -2.90578 0
M  V30 3155 O 303.459 -5.06179 -2.6033 0
M  V30 3156 N 304.661 -4.01922 -4.18854 0
M  V30 3157 H 307.426 -2.98643 -0.251526 0
M  V30 3158 H 304.987 -1.61897 0.00967373 0
M  V30 3159 H 306.979 -2.93891 -2.78227 0
M  V30 3160 H 305.549 -1.9259 -2.46227 0
M  V30 3161 H 304.769 -3.84262 -0.879581 0
M  V30 3162 H 306.057 -4.83445 -1.58614 0
M  V30 3163 H 305.455 -3.47631 -4.46283 0
M  V30 3164 H 304.012 -4.30165 -4.89695 0
M  V30 3165 N 307.445 0.0818655 -1.57387 0
M  V30 3166 C 308.375 1.09885 -2.06028 0
M  V30 3167 C 309.356 1.4098 -0.951774 0
M  V30 3168 O 310.541 1.50781 -1.22387 0
M  V30 3169 C 307.671 2.4151 -2.4958 0
M  V30 3170 C 306.625 2.24792 -3.64215 0
M  V30 3171 C 305.951 3.61712 -3.93787 0
M  V30 3172 C 307.251 1.67749 -4.94629 0
M  V30 3173 H 308.945 0.694128 -2.91243 0
M  V30 3174 H 306.491 0.332448 -1.4011 0
M  V30 3175 H 308.444 3.12939 -2.82219 0
M  V30 3176 H 307.168 2.83943 -1.61381 0
M  V30 3177 H 305.827 1.55807 -3.31843 0
M  V30 3178 H 305.475 4.01697 -3.02735 0
M  V30 3179 H 305.175 3.51368 -4.70971 0
M  V30 3180 H 306.699 4.34587 -4.28913 0
M  V30 3181 H 308.113 2.29032 -5.25564 0
M  V30 3182 H 306.51 1.68128 -5.76067 0
M  V30 3183 H 307.58 0.638059 -4.80684 0
M  V30 3184 N 308.923 1.53595 0.353017 0
M  V30 3185 C 310.163 1.72094 1.10286 0
M  V30 3186 C 310.527 0.469217 1.86178 0
M  V30 3187 O 311.728 0.531083 2.63501 0
M  V30 3188 C 309.999 2.94386 2.02661 0
M  V30 3189 S 311.558 3.33651 2.84996 0
M  V30 3190 H 308.376 0.605433 0.372789 0
M  V30 3191 H 310.978 1.91722 0.38248 0
M  V30 3192 H 309.682 3.83669 1.45691 0
M  V30 3193 H 309.213 2.77197 2.79152 0
M  V30 3194 H 311.228 2.86645 4.0503 0
M  V30 3195 N 310.401 -0.613514 1.45168 0
M  V30 3196 C 311.631 -1.39743 1.52169 0
M  V30 3197 C 312.039 -1.88596 0.151086 0
M  V30 3198 O 311.382 -1.6251 -0.856521 0
M  V30 3199 C 311.444 -2.64035 2.43979 0
M  V30 3200 C 311.108 -2.36861 3.90827 0
M  V30 3201 C 312.105 -1.97591 4.80889 0
M  V30 3202 C 309.79 -2.49956 4.35692 0
M  V30 3203 C 311.784 -1.71768 6.1382 0
M  V30 3204 C 309.471 -2.23747 5.68665 0
M  V30 3205 C 310.469 -1.84714 6.57548 0
M  V30 3206 O 310.157 -1.58809 7.88058 0
M  V30 3207 H 309.889 -0.434382 0.517966 0
M  V30 3208 H 312.443 -0.75587 1.90986 0
M  V30 3209 H 310.673 -3.3089 2.00122 0
M  V30 3210 H 312.362 -3.26069 2.41731 0
M  V30 3211 H 313.128 -1.87015 4.47493 0
M  V30 3212 H 309.007 -2.79305 3.66756 0
M  V30 3213 H 312.551 -1.41227 6.83155 0
M  V30 3214 H 308.448 -2.33938 6.01617 0
M  V30 3215 H 309.216 -1.7291 8.00028 0
M  V30 3216 N 311.879 -1.3236 -0.855495 0
M  V30 3217 C 313.295 -1.11332 -1.14356 0
M  V30 3218 C 313.495 0.106751 -2.01217 0
M  V30 3219 O 312.551 0.791891 -2.39761 0
M  V30 3220 C 313.864 -2.39237 -1.82171 0
M  V30 3221 C 315.412 -2.44986 -1.9481 0
M  V30 3222 C 315.887 -3.7281 -2.66039 0
M  V30 3223 N 317.378 -3.73787 -2.73565 0
M  V30 3224 C 318.113 -4.69394 -3.29327 0
M  V30 3225 N 317.609 -5.75367 -3.85907 0
M  V30 3226 N 319.402 -4.56893 -3.27423 0
M  V30 3227 H 311.553 -2.10586 -0.277027 0
M  V30 3228 H 313.816 -0.929701 -0.185364 0
M  V30 3229 H 313.522 -3.28431 -1.25802 0
M  V30 3230 H 313.396 -2.50134 -2.82335 0
M  V30 3231 H 315.783 -1.56252 -2.50338 0
M  V30 3232 H 315.864 -2.38043 -0.936448 0
M  V30 3233 H 315.508 -4.61918 -2.11174 0
M  V30 3234 H 315.438 -3.77024 -3.67642 0
M  V30 3235 H 317.929 -2.97189 -2.33424 0
M  V30 3236 H 318.242 -6.44378 -4.26611 0
M  V30 3237 H 316.587 -5.79123 -3.84242 0
M  V30 3238 H 319.778 -3.73269 -2.82467 0
M  V30 3239 H 319.951 -5.31577 -3.7058 0
M  V30 3240 N 313.357 1.07166 -1.15556 0
M  V30 3241 C 314.307 2.12649 -0.82247 0
M  V30 3242 C 315.291 1.59725 0.194129 0
M  V30 3243 O 316.483 1.76999 -0.00540402 0
M  V30 3244 C 313.612 3.41847 -0.315572 0
M  V30 3245 C 312.698 4.0162 -1.36244 0
M  V30 3246 N 313.089 4.35625 -2.5703 0
M  V30 3247 C 311.387 4.29114 -1.21562 0
M  V30 3248 C 312.088 4.83017 -3.24144 0
M  V30 3249 N 311.064 4.81906 -2.51531 0
M  V30 3250 H 314.866 2.36776 -1.74111 0
M  V30 3251 H 312.38 1.24622 -1.0413 0
M  V30 3252 H 314.377 4.16859 -0.0585855 0
M  V30 3253 H 313.037 3.19163 0.597105 0
M  V30 3254 H 314.048 4.26253 -2.94158 0
M  V30 3255 H 310.725 4.15919 -0.362988 0
M  V30 3256 H 312.115 5.18605 -4.27198 0
M  V30 3257 N 314.835 0.952656 1.25548 0
M  V30 3258 C 315.783 0.462354 2.27958 0
M  V30 3259 C 316.777 -0.46634 1.62855 0
M  V30 3260 O 317.983 -0.343287 1.76696 0
M  V30 3261 H 314.358 0.13101 0.7405 0
M  V30 3262 H 316.329 1.33839 2.66702 0
M  V30 3263 C 315.078 -0.24628 3.46827 0
M  V30 3264 H 314.401 0.459192 3.97154 0
M  V30 3265 H 315.841 -0.553393 4.20373 0
M  V30 3266 C 314.3 -1.4681 3.0323 0
M  V30 3267 O 314.83 -2.56591 3.09069 0
M  V30 3268 N 313.036 -1.32874 2.58443 0
M  V30 3269 H 312.583 -0.435536 2.53891 0
M  V30 3270 H 312.541 -2.14742 2.29637 0
M  V30 3271 N 316.313 -1.40141 0.720998 0
M  V30 3272 C 317.26 -2.30688 0.071919 0
M  V30 3273 C 318.23 -1.48476 -0.744584 0
M  V30 3274 O 319.415 -1.77201 -0.707423 0
M  V30 3275 C 316.555 -3.34724 -0.839855 0
M  V30 3276 C 315.668 -4.31998 -0.0122438 0
M  V30 3277 C 314.803 -5.23102 -0.923995 0
M  V30 3278 C 313.842 -6.12033 -0.0907969 0
M  V30 3279 N 312.979 -6.95537 -0.957718 0
M  V30 3280 H 317.819 -2.85628 0.849755 0
M  V30 3281 H 315.356 -1.40653 0.430726 0
M  V30 3282 H 317.314 -3.93618 -1.38279 0
M  V30 3283 H 315.944 -2.81274 -1.58381 0
M  V30 3284 H 314.996 -3.74841 0.64794 0
M  V30 3285 H 316.308 -4.94772 0.632595 0
M  V30 3286 H 315.462 -5.86953 -1.53527 0
M  V30 3287 H 314.201 -4.60615 -1.60264 0
M  V30 3288 H 313.206 -5.47207 0.533377 0
M  V30 3289 H 314.431 -6.76581 0.584428 0
M  V30 3290 H 312.377 -6.35633 -1.62192 0
M  V30 3291 H 312.294 -7.55099 -0.36904 0
M  V30 3292 H 313.562 -7.63832 -1.555 0
M  V30 3293 N 317.792 -0.46758 -1.50504 0
M  V30 3294 C 319.208 -0.121533 -1.59137 0
M  V30 3295 C 319.408 1.3717 -1.47603 0
M  V30 3296 O 318.464 2.14464 -1.33272 0
M  V30 3297 C 319.777 -0.6686 -2.93173 0
M  V30 3298 C 321.325 -0.631716 -3.06559 0
M  V30 3299 C 321.8 -1.15627 -4.43164 0
M  V30 3300 N 323.291 -1.11553 -4.49567 0
M  V30 3301 C 324.026 -1.49195 -5.5365 0
M  V30 3302 N 323.522 -1.94269 -6.65005 0
M  V30 3303 N 325.315 -1.4082 -5.44175 0
M  V30 3304 H 317.466 -1.4388 -1.56245 0
M  V30 3305 H 319.729 -0.594784 -0.738198 0
M  V30 3306 H 319.435 -1.71453 -3.07078 0
M  V30 3307 H 319.309 -0.11021 -3.77039 0
M  V30 3308 H 321.696 0.405297 -2.92304 0
M  V30 3309 H 321.777 -1.22687 -2.24458 0
M  V30 3310 H 321.421 -2.1919 -4.58168 0
M  V30 3311 H 321.351 -0.537365 -5.23851 0
M  V30 3312 H 323.842 -0.784895 -3.69659 0
M  V30 3313 H 324.155 -2.21148 -7.40482 0
M  V30 3314 H 322.5 -1.98219 -6.66134 0
M  V30 3315 H 325.691 -1.0545 -4.56068 0
M  V30 3316 H 325.864 -1.70481 -6.25172 0
M  V30 3317 N 319.27 1.56325 -0.20005 0
M  V30 3318 C 320.686 1.58839 0.155716 0
M  V30 3319 C 320.886 1.21636 1.60645 0
M  V30 3320 O 319.942 0.941437 2.34293 0
M  V30 3321 C 321.255 3.0032 -0.151124 0
M  V30 3322 C 322.803 3.12866 -0.0916284 0
M  V30 3323 C 323.278 4.56488 -0.371845 0
M  V30 3324 N 324.769 4.62089 -0.320641 0
M  V30 3325 C 325.504 5.71116 -0.511243 0
M  V30 3326 N 325 6.88592 -0.762461 0
M  V30 3327 N 326.793 5.60335 -0.445157 0
M  V30 3328 H 318.944 1.78788 -1.14668 0
M  V30 3329 H 321.207 0.829996 -0.458051 0
M  V30 3330 H 320.913 3.32117 -1.15721 0
M  V30 3331 H 320.787 3.73257 0.543986 0
M  V30 3332 H 323.174 2.80878 0.905065 0
M  V30 3333 H 323.255 2.42304 -0.81989 0
M  V30 3334 H 322.899 4.89189 -1.36588 0
M  V30 3335 H 322.829 5.25246 0.377362 0
M  V30 3336 H 325.32 3.77665 -0.13329 0
M  V30 3337 H 325.633 7.67581 -0.896576 0
M  V30 3338 H 323.978 6.90387 -0.799412 0
M  V30 3339 H 327.169 4.67436 -0.249278 0
M  V30 3340 H 327.342 6.45243 -0.597116 0
M  V30 3341 N 320.748 -0.0735177 1.57428 0
M  V30 3342 C 321.695 -1.08756 2.0357 0
M  V30 3343 C 322.665 -1.38559 0.916 0
M  V30 3344 O 323.85 -1.49656 1.18354 0
M  V30 3345 C 320.99 -2.39657 2.48311 0
M  V30 3346 C 320.103 -2.16399 3.73892 0
M  V30 3347 C 319.238 -3.40852 4.07423 0
M  V30 3348 C 318.277 -3.1295 5.2605 0
M  V30 3349 N 317.414 -4.29729 5.55228 0
M  V30 3350 H 322.254 -0.687104 2.8997 0
M  V30 3351 H 319.791 -0.327709 1.43403 0
M  V30 3352 H 321.749 -3.16081 2.72303 0
M  V30 3353 H 320.379 -2.77508 1.64891 0
M  V30 3354 H 319.431 -1.30676 3.57251 0
M  V30 3355 H 320.743 -1.91788 4.60455 0
M  V30 3356 H 319.897 -4.25671 4.32306 0
M  V30 3357 H 318.636 -3.68537 3.19425 0
M  V30 3358 H 317.641 -2.26526 5.00965 0
M  V30 3359 H 318.866 -2.86589 6.15665 0
M  V30 3360 H 316.812 -4.57448 4.70188 0
M  V30 3361 H 316.729 -4.08385 6.36206 0
M  V30 3362 H 317.997 -5.1555 5.84661 0
M  V30 3363 N 322.226 -1.5378 -0.344866 0
M  V30 3364 C 323.473 -1.70963 -1.08526 0
M  V30 3365 C 323.801 -0.472126 -1.88683 0
M  V30 3366 O 323.056 0.546116 -1.87926 0
M  V30 3367 C 323.355 -2.92407 -2.05506 0
M  V30 3368 C 323.021 -4.28066 -1.41671 0
M  V30 3369 C 321.683 -4.64951 -1.2399 0
M  V30 3370 C 324.035 -5.12344 -0.956726 0
M  V30 3371 C 321.363 -5.83733 -0.589277 0
M  V30 3372 C 323.715 -6.3179 -0.320015 0
M  V30 3373 C 322.379 -6.67372 -0.130881 0
M  V30 3374 H 321.649 -0.625598 -0.397124 0
M  V30 3375 H 324.296 -1.87995 -0.36469 0
M  V30 3376 H 322.601 -2.69973 -2.8394 0
M  V30 3377 H 324.298 -3.02895 -2.62784 0
M  V30 3378 H 320.888 -3.99034 -1.56429 0
M  V30 3379 H 325.072 -4.8438 -1.08118 0
M  V30 3380 H 320.328 -6.09877 -0.431344 0
M  V30 3381 H 324.502 -6.96386 0.0445072 0
M  V30 3382 H 322.129 -7.59273 0.375318 0
M  V30 3383 N 323.704 0.605807 -1.45491 0
M  V30 3384 C 324.634 1.72709 -1.57143 0
M  V30 3385 C 325.615 1.6476 -0.422884 0
M  V30 3386 O 326.8 1.83132 -0.646247 0
M  V30 3387 C 323.93 3.11316 -1.53948 0
M  V30 3388 C 322.884 3.34077 -2.67537 0
M  V30 3389 C 322.21 4.72975 -2.49397 0
M  V30 3390 C 323.51 3.24158 -4.09535 0
M  V30 3391 H 325.204 1.63214 -2.51001 0
M  V30 3392 H 322.75 0.78379 -1.208 0
M  V30 3393 H 324.703 3.89557 -1.60696 0
M  V30 3394 H 323.427 3.21655 -0.566205 0
M  V30 3395 H 322.086 2.58227 -2.6022 0
M  V30 3396 H 321.734 4.8005 -1.50205 0
M  V30 3397 H 321.434 4.8916 -3.25571 0
M  V30 3398 H 322.958 5.53414 -2.58002 0
M  V30 3399 H 324.372 3.92271 -4.18086 0
M  V30 3400 H 322.769 3.51872 -4.86113 0
M  V30 3401 H 323.839 2.2157 -4.31317 0
M  V30 3402 N 325.182 1.32811 0.848464 0
M  V30 3403 C 326.428 1.23907 1.60546 0
M  V30 3404 C 326.761 -0.197161 1.93197 0
M  V30 3405 O 326.036 -1.13596 1.5788 0
M  V30 3406 C 326.319 2.10489 2.92175 0
M  V30 3407 C 326.172 3.62522 2.66266 0
M  V30 3408 C 327.491 1.97075 3.93509 0
M  V30 3409 H 324.61 0.451459 0.58254 0
M  V30 3410 H 327.252 1.62818 0.979296 0
M  V30 3411 H 325.402 1.77434 3.45614 0
M  V30 3412 H 327.074 4.05821 2.19334 0
M  V30 3413 H 325.317 3.84879 2.00126 0
M  V30 3414 H 325.988 4.18437 3.6002 0
M  V30 3415 H 328.464 2.26045 3.49346 0
M  V30 3416 H 327.34 2.59923 4.83457 0
M  V30 3417 H 327.601 0.940186 4.31987 0
M  V30 3418 N 326.66 -1.06551 1.16123 0
M  V30 3419 C 327.937 -1.76097 0.85142 0
M  V30 3420 C 328.317 -2.00802 -0.6513 0
M  V30 3421 O 327.665 -1.63302 -1.59827 0
M  V30 3422 C 327.875 -3.06384 1.67122 0
M  V30 3423 C 329.223 -3.80585 1.88255 0
M  V30 3424 O 330.247 -3.16218 1.63966 0
M  V30 3425 O 329.106 -4.96212 2.2899 0
M  V30 3426 H 326.2 -0.765102 0.313923 0
M  V30 3427 H 328.746 -1.12844 1.26745 0
M  V30 3428 H 327.518 -2.84071 2.69108 0
M  V30 3429 H 327.141 -3.77371 1.25206 0
M  V30 3430 N 328.138 -0.959301 -1.25041 0
M  V30 3431 C 329.549 -0.65667 -1.74771 0
M  V30 3432 C 329.9 0.827852 -1.77879 0
M  V30 3433 O 329.025 1.64783 -1.40269 0
M  V30 3434 C 329.62 -1.1853 -3.1739 0
M  V30 3435 C 328.179 -0.932734 -3.6466 0
M  V30 3436 C 327.326 -1.32558 -2.43564 0
M  V30 3437 H 330.277 -1.13558 -1.10862 0
M  V30 3438 H 330.298 -0.547582 -3.76539 0
M  V30 3439 H 329.81 -2.26576 -3.15095 0
M  V30 3440 H 327.911 0.13257 -3.72364 0
M  V30 3441 H 328.024 -1.57248 -4.52559 0
M  V30 3442 H 326.388 -0.743956 -2.43593 0
M  V30 3443 H 327.171 -2.41537 -2.43957 0
M  V30 3444 N 329.616 1.39756 -0.72842 0
M  V30 3445 C 331.032 1.5442 -0.403308 0
M  V30 3446 C 331.232 1.69694 1.08656 0
M  V30 3447 O 330.288 1.69373 1.87267 0
M  V30 3448 C 331.601 2.76555 -1.18058 0
M  V30 3449 C 333.149 2.90384 -1.16815 0
M  V30 3450 C 333.624 4.15449 -1.92785 0
M  V30 3451 N 335.115 4.22475 -1.89918 0
M  V30 3452 C 335.85 5.1818 -2.45514 0
M  V30 3453 N 335.346 6.19714 -3.09719 0
M  V30 3454 N 337.139 5.1035 -2.35584 0
M  V30 3455 H 329.29 1.28089 -1.69431 0
M  V30 3456 H 331.553 0.620327 -0.716867 0
M  V30 3457 H 331.259 2.7159 -2.23455 0
M  V30 3458 H 331.133 3.69033 -0.780662 0
M  V30 3459 H 333.52 2.94846 -0.12234 0
M  V30 3460 H 333.601 1.98988 -1.6074 0
M  V30 3461 H 333.245 4.11749 -2.97364 0
M  V30 3462 H 333.175 5.05877 -1.46272 0
M  V30 3463 H 335.666 3.49743 -1.43138 0
M  V30 3464 H 335.979 6.8919 -3.49625 0
M  V30 3465 H 334.324 6.20121 -3.13807 0
M  V30 3466 H 337.515 4.2996 -1.85072 0
M  V30 3467 H 337.688 5.84761 -2.79211 0
M  V30 3468 N 331.094 0.475555 1.50254 0
M  V30 3469 C 332.334 -0.0765802 2.04256 0
M  V30 3470 C 332.698 -1.36587 1.34937 0
M  V30 3471 O 333.899 -2.00066 1.79519 0
M  V30 3472 C 332.17 -0.251668 3.56513 0
M  V30 3473 S 333.729 -0.761716 4.32138 0
M  V30 3474 H 330.547 -0.0138456 0.710865 0
M  V30 3475 H 333.149 0.643714 1.84598 0
M  V30 3476 H 331.853 0.692404 4.04517 0
M  V30 3477 H 331.384 -0.997946 3.80532 0
M  V30 3478 H 333.399 -2.03451 4.52573 0
M  V30 3479 N 332.573 -1.56217 0.208337 0
M  V30 3480 C 333.523 -2.16324 -0.720281 0
M  V30 3481 C 334.507 -1.10775 -1.16695 0
M  V30 3482 O 335.699 -1.36801 -1.12314 0
M  V30 3483 C 332.828 -2.83644 -1.93393 0
M  V30 3484 C 331.914 -3.96401 -1.50755 0
M  V30 3485 N 332.305 -4.99546 -0.792937 0
M  V30 3486 C 330.603 -4.08246 -1.79585 0
M  V30 3487 C 331.304 -5.78828 -0.577364 0
M  V30 3488 N 330.28 -5.31723 -1.1301 0
M  V30 3489 H 334.082 -2.93432 -0.165725 0
M  V30 3490 H 331.596 -1.62397 0.00906463 0
M  V30 3491 H 333.593 -3.25107 -2.60981 0
M  V30 3492 H 332.253 -2.08027 -2.49308 0
M  V30 3493 H 333.264 -5.15967 -0.447004 0
M  V30 3494 H 329.941 -3.4377 -2.36915 0
M  V30 3495 H 331.331 -6.71899 -0.00952956 0
M  V30 3496 N 334.051 0.0651679 -1.57465 0
M  V30 3497 C 335.462 0.616213 -1.76238 0
M  V30 3498 C 335.813 1.7756 -0.834689 0
M  V30 3499 O 334.938 2.1639 -0.0204156 0
M  V30 3500 C 335.533 1.12462 -3.1959 0
M  V30 3501 C 334.092 1.62147 -3.39684 0
M  V30 3502 C 333.239 0.543739 -2.71917 0
M  V30 3503 H 336.19 -0.161022 -1.57881 0
M  V30 3504 H 336.211 1.99324 -3.24114 0
M  V30 3505 H 335.723 0.280592 -3.87084 0
M  V30 3506 H 333.824 2.48854 -2.77313 0
M  V30 3507 H 333.937 1.69385 -4.48158 0
M  V30 3508 H 332.301 0.990352 -2.34657 0
M  V30 3509 H 333.084 -0.290216 -3.42071 0
M  V30 3510 N 335.529 1.53961 0.336706 0
M  V30 3511 C 336.461 1.78751 1.4346 0
M  V30 3512 C 337.474 0.669019 1.48418 0
M  V30 3513 O 338.663 0.945884 1.51378 0
M  V30 3514 C 335.763 1.87844 2.82078 0
M  V30 3515 C 334.936 3.17854 3.00479 0
M  V30 3516 C 333.995 3.17816 4.19379 0
M  V30 3517 O 333.021 3.91511 4.13168 0
M  V30 3518 N 334.223 2.40669 5.2826 0
M  V30 3519 H 336.988 2.73493 1.22563 0
M  V30 3520 H 334.549 1.53096 0.526625 0
M  V30 3521 H 336.541 1.85261 3.59806 0
M  V30 3522 H 335.111 1.00257 2.96086 0
M  V30 3523 H 334.331 3.33504 2.10163 0
M  V30 3524 H 335.619 4.03718 3.0966 0
M  V30 3525 H 335.017 1.8036 5.36178 0
M  V30 3526 H 333.574 2.43877 6.04456 0
M  V30 3527 N 337.007 -0.598083 1.45811 0
M  V30 3528 C 338.235 -1.38322 1.53866 0
M  V30 3529 C 338.65 -1.87992 0.174479 0
M  V30 3530 O 338.007 -1.62756 -0.825627 0
M  V30 3531 C 338.058 -2.58125 2.53089 0
M  V30 3532 O 337.779 -2.10516 3.84206 0
M  V30 3533 C 339.28 -3.50869 2.70935 0
M  V30 3534 H 336.5 -0.423093 0.520801 0
M  V30 3535 H 339.044 -0.728527 1.91083 0
M  V30 3536 H 337.199 -3.19615 2.18917 0
M  V30 3537 H 337.613 -2.88425 4.38077 0
M  V30 3538 H 339.087 -4.31451 3.44317 0
M  V30 3539 H 339.564 -4.01822 1.77301 0
M  V30 3540 H 340.17 -2.95225 3.06141 0
M  V30 3541 N 338.485 -1.33259 -0.841409 0
M  V30 3542 C 339.734 -1.23921 -1.59143 0
M  V30 3543 C 340.047 0.1941 -1.94635 0
M  V30 3544 O 341.253 0.409474 -2.68394 0
M  V30 3545 C 339.709 -2.17119 -2.87032 0
M  V30 3546 C 339.317 -3.65606 -2.58914 0
M  V30 3547 C 341.061 -2.16648 -3.65053 0
M  V30 3548 C 338.968 -4.50726 -3.82884 0
M  V30 3549 H 337.898 -0.460264 -0.597221 0
M  V30 3550 H 340.549 -1.58307 -0.927959 0
M  V30 3551 H 338.931 -1.75663 -3.54906 0
M  V30 3552 H 340.105 -4.15487 -1.99267 0
M  V30 3553 H 338.42 -3.68341 -1.942 0
M  V30 3554 H 341.017 -2.77474 -4.57069 0
M  V30 3555 H 341.36 -1.16088 -3.99787 0
M  V30 3556 H 341.893 -2.56453 -3.041 0
M  V30 3557 H 338.632 -5.52151 -3.53283 0
M  V30 3558 H 338.152 -4.0559 -4.41879 0
M  V30 3559 H 339.831 -4.64401 -4.50489 0
M  V30 3560 N 339.963 1.05934 -1.16686 0
M  V30 3561 C 340.926 2.11669 -0.879144 0
M  V30 3562 C 341.926 1.60294 0.127445 0
M  V30 3563 O 343.116 1.7389 -0.103865 0
M  V30 3564 C 340.248 3.39438 -0.315425 0
M  V30 3565 H 341.441 2.38626 -1.81653 0
M  V30 3566 H 338.994 1.22058 -0.976299 0
M  V30 3567 H 339.729 3.18132 0.629468 0
M  V30 3568 H 339.514 3.78034 -1.04079 0
M  V30 3569 H 341.004 4.17391 -0.132189 0
M  V30 3570 N 341.441 0.965919 1.2453 0
M  V30 3571 C 342.687 0.62776 1.92839 0
M  V30 3572 C 343.02 -0.834694 1.75347 0
M  V30 3573 O 342.295 -1.60031 1.10546 0
M  V30 3574 C 342.578 1.00109 3.45905 0
M  V30 3575 C 342.431 2.52011 3.72573 0
M  V30 3576 C 343.75 0.53435 4.36844 0
M  V30 3577 H 340.869 0.229537 0.700344 0
M  V30 3578 H 343.511 1.2046 1.46933 0
M  V30 3579 H 341.661 0.510238 3.85135 0
M  V30 3580 H 343.333 3.08559 3.42912 0
M  V30 3581 H 341.576 2.95287 3.17786 0
M  V30 3582 H 342.247 2.73183 4.79661 0
M  V30 3583 H 344.723 0.955565 4.04979 0
M  V30 3584 H 343.599 0.824152 5.42678 0
M  V30 3585 H 343.86 -0.565589 4.38467 0
M  V30 3586 N 342.919 -1.39368 0.735821 0
M  V30 3587 C 344.165 -2.00794 0.284544 0
M  V30 3588 C 344.498 -1.58255 -1.12557 0
M  V30 3589 O 343.773 -0.811819 -1.76748 0
M  V30 3590 C 344.056 -3.58011 0.387337 0
M  V30 3591 C 343.909 -4.10566 1.83728 0
M  V30 3592 C 345.228 -4.395 -0.22975 0
M  V30 3593 H 342.347 -0.729501 0.104866 0
M  V30 3594 H 344.989 -1.65564 0.93213 0
M  V30 3595 H 343.139 -3.88154 -0.164006 0
M  V30 3596 H 344.811 -3.91139 2.44556 0
M  V30 3597 H 343.054 -3.64095 2.35833 0
M  V30 3598 H 343.725 -5.19702 1.86047 0
M  V30 3599 H 346.201 -4.15406 0.240257 0
M  V30 3600 H 345.077 -5.48752 -0.127485 0
M  V30 3601 H 345.338 -4.22062 -1.3159 0
M  V30 3602 N 344.397 -0.483516 -1.5 0
M  V30 3603 C 345.329 0.340634 -2.26655 0
M  V30 3604 C 346.342 0.946152 -1.32483 0
M  V30 3605 O 347.531 0.832453 -1.579 0
M  V30 3606 C 344.631 1.4929 -3.04246 0
M  V30 3607 C 343.804 0.997903 -4.25865 0
M  V30 3608 C 342.863 2.02569 -4.85646 0
M  V30 3609 O 341.889 1.60128 -5.46212 0
M  V30 3610 N 343.091 3.3548 -4.73744 0
M  V30 3611 H 345.856 -0.316577 -2.98023 0
M  V30 3612 H 343.417 -0.315024 -1.58806 0
M  V30 3613 H 345.409 2.17766 -3.41116 0
M  V30 3614 H 343.979 2.05458 -2.35597 0
M  V30 3615 H 343.199 0.138617 -3.93956 0
M  V30 3616 H 344.487 0.645305 -5.04691 0
M  V30 3617 H 343.885 3.72661 -4.25605 0
M  V30 3618 H 342.442 3.99718 -5.14848 0
M  V30 3619 N 345.875 1.56104 -0.216619 0
M  V30 3620 C 347.103 2.02563 0.421413 0
M  V30 3621 C 347.518 1.0965 1.53695 0
M  V30 3622 O 346.875 0.10521 1.82196 0
M  V30 3623 C 346.926 3.48584 0.957665 0
M  V30 3624 O 346.647 4.37953 -0.113389 0
M  V30 3625 C 348.148 4.10664 1.66943 0
M  V30 3626 H 345.368 0.662944 0.103665 0
M  V30 3627 H 347.912 2.01793 -0.331629 0
M  V30 3628 H 346.067 3.49985 1.661 0
M  V30 3629 H 346.481 5.23704 0.288932 0
M  V30 3630 H 347.955 5.14622 1.99671 0
M  V30 3631 H 348.432 3.55373 2.58083 0
M  V30 3632 H 349.038 4.13098 1.01142 0
M  V30 3633 N 347.353 -0.0568162 1.57498 0
M  V30 3634 C 348.769 -0.411933 1.54192 0
M  V30 3635 C 348.969 -1.78287 0.938942 0
M  V30 3636 O 348.025 -2.46483 0.547919 0
M  V30 3637 C 349.338 -0.339244 2.9878 0
M  V30 3638 C 350.886 -0.418348 3.10192 0
M  V30 3639 C 351.361 -0.375407 4.56459 0
M  V30 3640 N 352.852 -0.435038 4.61153 0
M  V30 3641 C 353.587 -0.424265 5.71828 0
M  V30 3642 N 353.083 -0.367418 6.91825 0
M  V30 3643 N 354.876 -0.471938 5.60115 0
M  V30 3644 H 347.027 0.840684 1.95055 0
M  V30 3645 H 349.29 0.316987 0.893433 0
M  V30 3646 H 348.996 0.601742 3.46514 0
M  V30 3647 H 348.87 -1.14371 3.59443 0
M  V30 3648 H 351.257 -1.34976 2.62422 0
M  V30 3649 H 351.338 0.414962 2.52412 0
M  V30 3650 H 350.982 0.552219 5.04889 0
M  V30 3651 H 350.912 -1.22645 5.12119 0
M  V30 3652 H 353.403 -0.482612 3.74806 0
M  V30 3653 H 353.716 -0.363535 7.71944 0
M  V30 3654 H 352.061 -0.333879 6.94198 0
M  V30 3655 H 355.252 -0.514145 4.65268 0
M  V30 3656 H 355.425 -0.460073 6.46365 0
M  V30 3657 N 348.832 -1.54138 -0.328536 0
M  V30 3658 C 349.795 -1.82462 -1.38709 0
M  V30 3659 C 350.795 -0.696229 -1.44946 0
M  V30 3660 O 351.985 -0.964535 -1.4506 0
M  V30 3661 C 349.117 -1.98018 -2.77492 0
M  V30 3662 H 350.31 -2.77037 -1.14851 0
M  V30 3663 H 347.863 -1.45779 -0.563751 0
M  V30 3664 H 348.598 -1.05637 -3.06613 0
M  V30 3665 H 348.383 -2.80124 -2.74359 0
M  V30 3666 H 349.873 -2.21396 -3.54081 0
M  V30 3667 N 350.31 0.590341 -1.46126 0
M  V30 3668 C 351.257 1.69994 -1.56111 0
M  V30 3669 C 352.227 1.61065 -0.405867 0
M  V30 3670 O 353.412 1.8039 -0.621613 0
M  V30 3671 C 350.552 3.08326 -1.55013 0
M  V30 3672 C 349.665 3.27936 -2.81215 0
M  V30 3673 C 348.8 4.56473 -2.71673 0
M  V30 3674 C 347.839 4.694 -3.92849 0
M  V30 3675 N 346.976 5.89254 -3.81738 0
M  V30 3676 H 351.816 1.60797 -2.50895 0
M  V30 3677 H 349.353 0.783799 -1.24479 0
M  V30 3678 H 351.311 3.88383 -1.52362 0
M  V30 3679 H 349.941 3.16439 -0.637667 0
M  V30 3680 H 348.993 2.41536 -2.93879 0
M  V30 3681 H 350.305 3.33357 -3.71045 0
M  V30 3682 H 349.459 5.44748 -2.67085 0
M  V30 3683 H 348.198 4.53477 -1.7947 0
M  V30 3684 H 347.203 3.79544 -3.97777 0
M  V30 3685 H 348.428 4.7418 -4.86138 0
M  V30 3686 H 346.374 5.87271 -2.92317 0
M  V30 3687 H 346.291 5.95911 -4.65217 0
M  V30 3688 H 347.559 6.79981 -3.81112 0
M  V30 3689 N 351.788 1.33704 0.83433 0
M  V30 3690 C 353.018 1.28281 1.6195 0
M  V30 3691 C 353.426 -0.147603 1.88623 0
M  V30 3692 O 352.769 -1.1016 1.47005 0
M  V30 3693 C 352.831 1.99386 2.99141 0
M  V30 3694 C 352.495 3.48681 2.95416 0
M  V30 3695 C 353.492 4.438 2.70809 0
M  V30 3696 C 351.177 3.90925 3.15409 0
M  V30 3697 C 353.171 5.79138 2.66229 0
M  V30 3698 C 350.858 5.26366 3.10454 0
M  V30 3699 C 351.856 6.20284 2.85895 0
M  V30 3700 O 351.544 7.53245 2.80852 0
M  V30 3701 H 351.276 0.44315 0.510484 0
M  V30 3702 H 353.83 1.76711 1.04702 0
M  V30 3703 H 352.06 1.45554 3.58261 0
M  V30 3704 H 353.749 1.87403 3.60049 0
M  V30 3705 H 354.515 4.12485 2.5511 0
M  V30 3706 H 350.394 3.18229 3.33543 0
M  V30 3707 H 353.938 6.52416 2.4698 0
M  V30 3708 H 349.835 5.57304 3.25703 0
M  V30 3709 H 350.603 7.62846 2.96661 0
M  V30 3710 N 353.266 -1.05314 1.17247 0
M  V30 3711 C 354.494 -1.81971 0.984593 0
M  V30 3712 C 354.909 -1.82929 -0.467166 0
M  V30 3713 O 354.266 -1.25564 -1.32438 0
M  V30 3714 C 354.317 -3.28143 1.51672 0
M  V30 3715 O 354.038 -3.27347 2.91163 0
M  V30 3716 C 355.539 -4.21493 1.37326 0
M  V30 3717 H 352.759 -0.573455 0.348411 0
M  V30 3718 H 355.303 -1.32808 1.55506 0
M  V30 3719 H 353.458 -3.74582 0.988302 0
M  V30 3720 H 353.872 -4.18824 3.15732 0
M  V30 3721 H 355.346 -5.22043 1.79375 0
M  V30 3722 H 355.823 -4.38031 0.320169 0
M  V30 3723 H 356.429 -3.80909 1.89178 0
M  V30 3724 N 354.744 -0.972509 -1.24016 0
M  V30 3725 C 355.992 -0.635776 -1.91839 0
M  V30 3726 C 356.313 0.832312 -1.76345 0
M  V30 3727 O 355.583 1.5946 -1.13795 0
M  V30 3728 H 354.163 -0.232157 -0.710009 0
M  V30 3729 H 356.825 -1.23462 -1.50809 0
M  V30 3730 H 355.921 -0.880545 -2.99421 0
M  V30 3731 N 356.222 1.38976 -0.743202 0
M  V30 3732 C 357.468 2.0064 -0.295189 0
M  V30 3733 C 357.801 1.5885 1.11716 0
M  V30 3734 O 357.076 0.821181 1.76315 0
M  V30 3735 C 357.359 3.578 -0.406318 0
M  V30 3736 C 357.212 4.09586 -1.85903 0
M  V30 3737 C 358.531 4.39616 0.206439 0
M  V30 3738 H 355.65 0.728935 -0.108733 0
M  V30 3739 H 358.292 1.65067 -0.940897 0
M  V30 3740 H 356.442 3.88235 0.143419 0
M  V30 3741 H 358.114 3.89837 -2.46627 0
M  V30 3742 H 356.357 3.6284 -2.3776 0
M  V30 3743 H 357.028 5.18708 -1.888 0
M  V30 3744 H 359.504 4.15273 -0.262283 0
M  V30 3745 H 358.38 5.48812 0.0983819 0
M  V30 3746 H 358.641 4.22754 1.2935 0
M  V30 3747 N 357.7 0.491464 1.49741 0
M  V30 3748 C 358.63 -0.28154 2.31796 0
M  V30 3749 C 359.611 -0.971473 1.3963 0
M  V30 3750 O 360.796 -0.964719 1.68543 0
M  V30 3751 C 357.926 -1.35203 3.19902 0
M  V30 3752 C 356.88 -0.782529 4.20786 0
M  V30 3753 C 356.206 -1.95283 4.97764 0
M  V30 3754 C 357.506 0.21999 5.21837 0
M  V30 3755 H 359.2 0.403355 2.96671 0
M  V30 3756 H 356.746 0.195425 1.42668 0
M  V30 3757 H 358.699 -1.90045 3.76113 0
M  V30 3758 H 357.423 -2.06598 2.52953 0
M  V30 3759 H 356.082 -0.255928 3.65706 0
M  V30 3760 H 355.73 -2.65423 4.2727 0
M  V30 3761 H 355.43 -1.57789 5.66018 0
M  V30 3762 H 356.954 -2.50577 5.56816 0
M  V30 3763 H 358.368 -0.23996 5.72798 0
M  V30 3764 H 356.765 0.51026 5.97927 0
M  V30 3765 H 357.835 1.13911 4.7133 0
M  V30 3766 N 359.178 -1.55987 0.224894 0
M  V30 3767 C 360.406 -2.02784 -0.410665 0
M  V30 3768 C 360.821 -1.10464 -1.53112 0
M  V30 3769 O 360.178 -0.114871 -1.82138 0
M  V30 3770 C 360.229 -3.49087 -0.939165 0
M  V30 3771 O 359.95 -4.37887 0.136614 0
M  V30 3772 C 361.451 -4.11543 -1.64763 0
M  V30 3773 H 358.671 -0.663484 -0.100148 0
M  V30 3774 H 361.215 -2.01614 0.342326 0
M  V30 3775 H 359.37 -3.50861 -1.64242 0
M  V30 3776 H 359.784 -5.23849 -0.261155 0
M  V30 3777 H 361.258 -5.15673 -1.96939 0
M  V30 3778 H 361.735 -3.56736 -2.56195 0
M  V30 3779 H 362.341 -4.13629 -0.989503 0
M  V30 3780 N 360.656 0.0484629 -1.57525 0
M  V30 3781 C 361.566 1.07241 -2.08654 0
M  V30 3782 C 362.582 1.409 -1.02095 0
M  V30 3783 O 363.758 1.50609 -1.33712 0
M  V30 3784 C 360.823 2.36008 -2.5397 0
M  V30 3785 C 359.884 2.09108 -3.7493 0
M  V30 3786 C 359.117 3.31736 -4.18075 0
M  V30 3787 O 359.34 4.41714 -3.60895 0
M  V30 3788 O 358.274 3.18576 -5.10679 0
M  V30 3789 H 362.1 0.667965 -2.96263 0
M  V30 3790 H 359.685 0.26417 -1.47046 0
M  V30 3791 H 361.567 3.11747 -2.83535 0
M  V30 3792 H 360.242 2.75786 -1.69481 0
M  V30 3793 H 359.149 1.31 -3.50414 0
M  V30 3794 H 360.482 1.74198 -4.60343 0
M  V30 3795 N 362.134 1.5431 0.320358 0
M  V30 3796 C 363.064 1.86912 1.3995 0
M  V30 3797 C 364.045 0.726211 1.53819 0
M  V30 3798 O 365.23 0.980233 1.67646 0
M  V30 3799 C 362.36 2.09932 2.7667 0
M  V30 3800 C 361.314 3.25776 2.77586 0
M  V30 3801 C 360.64 3.34173 4.17412 0
M  V30 3802 C 361.94 4.6335 2.41048 0
M  V30 3803 H 363.634 2.77292 1.12914 0
M  V30 3804 H 361.18 1.33421 0.541738 0
M  V30 3805 H 363.133 2.31324 3.52232 0
M  V30 3806 H 361.857 1.16304 3.0519 0
M  V30 3807 H 360.516 3.04276 2.04479 0
M  V30 3808 H 360.164 2.38098 4.43078 0
M  V30 3809 H 359.864 4.12033 4.18931 0
M  V30 3810 H 361.388 3.57803 4.94782 0
M  V30 3811 H 362.802 4.84602 3.06324 0
M  V30 3812 H 361.199 5.43782 2.53813 0
M  V30 3813 H 362.269 4.65381 1.36193 0
M  V30 3814 N 363.613 -0.582584 1.46437 0
M  V30 3815 C 364.56 -1.69164 1.5701 0
M  V30 3816 C 365.53 -1.60847 0.414403 0
M  V30 3817 O 366.715 -1.80058 0.631171 0
M  V30 3818 C 363.855 -3.075 1.56646 0
M  V30 3819 C 362.968 -3.2644 2.82951 0
M  V30 3820 C 362.103 -4.55026 2.7409 0
M  V30 3821 C 361.142 -4.6731 3.95333 0
M  V30 3822 N 360.279 -5.87221 3.84858 0
M  V30 3823 H 365.119 -1.59464 2.51744 0
M  V30 3824 H 362.656 -0.777186 1.24893 0
M  V30 3825 H 364.614 -3.8757 1.5442 0
M  V30 3826 H 363.244 -3.16096 0.654439 0
M  V30 3827 H 362.296 -2.39974 2.95155 0
M  V30 3828 H 363.608 -3.31385 3.72808 0
M  V30 3829 H 362.762 -5.43324 2.6997 0
M  V30 3830 H 361.501 -4.52519 1.81873 0
M  V30 3831 H 360.506 -3.77429 3.99784 0
M  V30 3832 H 361.731 -4.71595 4.88646 0
M  V30 3833 H 359.677 -5.85712 2.95427 0
M  V30 3834 H 359.594 -5.93435 4.6837 0
M  V30 3835 H 360.862 -6.7795 3.84713 0
M  V30 3836 N 365.091 -1.34144 -0.827227 0
M  V30 3837 C 366.021 -1.28005 -1.95287 0
M  V30 3838 C 367.002 -0.158321 -1.69362 0
M  V30 3839 O 368.187 -0.349987 -1.9102 0
M  V30 3840 C 365.317 -1.03036 -3.31664 0
M  V30 3841 C 364.271 -2.11628 -3.72019 0
M  V30 3842 C 363.597 -1.71854 -5.0633 0
M  V30 3843 C 364.897 -3.53417 -3.8457 0
M  V30 3844 H 366.591 -2.22187 -2.00682 0
M  V30 3845 H 364.137 -1.0696 -0.964135 0
M  V30 3846 H 366.09 -0.973863 -4.09993 0
M  V30 3847 H 364.814 -0.0529391 -3.26557 0
M  V30 3848 H 363.473 -2.16339 -2.95961 0
M  V30 3849 H 363.121 -0.727841 -4.97706 0
M  V30 3850 H 362.821 -2.44531 -5.34302 0
M  V30 3851 H 364.345 -1.67692 -5.87122 0
M  V30 3852 H 365.759 -3.51142 -4.5318 0
M  V30 3853 H 364.156 -4.24679 -4.2399 0
M  V30 3854 H 365.226 -3.91072 -2.86689 0
M  V30 3855 N 366.569 1.04691 -1.17803 0
M  V30 3856 C 367.98 1.59238 -0.974689 0
M  V30 3857 C 368.331 1.90306 0.477292 0
M  V30 3858 O 367.456 1.68846 1.35352 0
M  V30 3859 C 368.051 2.89318 -1.76296 0
M  V30 3860 C 366.61 3.40506 -1.60414 0
M  V30 3861 C 365.757 2.14172 -1.76141 0
M  V30 3862 H 368.708 0.874395 -1.32439 0
M  V30 3863 H 368.729 3.5944 -1.24833 0
M  V30 3864 H 368.241 2.66675 -2.81968 0
M  V30 3865 H 366.342 3.68175 -0.572519 0
M  V30 3866 H 366.455 4.14753 -2.39827 0
M  V30 3867 H 364.819 2.25176 -1.19028 0
M  V30 3868 H 365.602 1.93992 -2.83235 0
M  V30 3869 N 368.047 0.979072 1.23499 0
M  V30 3870 C 369.287 0.655228 1.93613 0
M  V30 3871 C 369.651 -0.796336 1.74707 0
M  V30 3872 O 370.852 -1.23094 2.38959 0
M  V30 3873 C 369.123 1.03337 3.42135 0
M  V30 3874 S 370.682 0.825793 4.3096 0
M  V30 3875 H 367.5 0.240004 0.669267 0
M  V30 3876 H 370.102 1.25843 1.49612 0
M  V30 3877 H 368.806 2.08646 3.53405 0
M  V30 3878 H 368.337 0.421397 3.91137 0
M  V30 3879 H 370.352 -0.290991 4.95346 0
M  V30 3880 N 369.525 -1.3858 0.750561 0
M  V30 3881 C 370.435 -2.34278 0.122825 0
M  V30 3882 C 371.451 -1.59116 -0.704131 0
M  V30 3883 O 372.627 -1.91326 -0.628987 0
M  V30 3884 C 369.692 -3.38221 -0.762086 0
M  V30 3885 C 368.753 -4.29227 0.078896 0
M  V30 3886 C 367.986 -5.28205 -0.763874 0
M  V30 3887 O 368.209 -5.34112 -2.00201 0
M  V30 3888 O 367.143 -6.01618 -0.18428 0
M  V30 3889 H 370.969 -2.89649 0.913088 0
M  V30 3890 H 368.554 -1.40374 0.511417 0
M  V30 3891 H 370.436 -4.01872 -1.26793 0
M  V30 3892 H 369.111 -2.85211 -1.5309 0
M  V30 3893 H 368.018 -3.68747 0.630621 0
M  V30 3894 H 369.351 -4.85484 0.810289 0
M  V30 3895 N 371.003 -0.499398 -1.49478 0
M  V30 3896 C 371.936 0.326491 -2.25852 0
M  V30 3897 C 372.914 0.971776 -1.30366 0
M  V30 3898 O 374.098 1.00219 -1.59651 0
M  V30 3899 C 371.225 1.45969 -3.05632 0
M  V30 3900 C 370.271 0.928938 -4.16261 0
M  V30 3901 S 371.104 -0.179012 -5.35201 0
M  V30 3902 C 372.26 0.957389 -6.18534 0
M  V30 3903 H 372.493 -0.321746 -2.95554 0
M  V30 3904 H 370.026 -0.284674 -1.51753 0
M  V30 3905 H 371.984 2.109 -3.52181 0
M  V30 3906 H 370.645 2.07953 -2.35402 0
M  V30 3907 H 369.838 1.77813 -4.71592 0
M  V30 3908 H 369.44 0.356869 -3.72293 0
M  V30 3909 H 371.732 1.86296 -6.51383 0
M  V30 3910 H 372.675 0.442733 -7.06715 0
M  V30 3911 H 373.083 1.224 -5.5107 0
M  V30 3912 N 372.481 1.55866 -0.233164 0
M  V30 3913 C 373.758 1.90471 0.444988 0
M  V30 3914 C 374.138 1.15209 1.7689 0
M  V30 3915 O 373.486 0.265119 2.26957 0
M  V30 3916 C 373.696 3.4333 0.626559 0
M  V30 3917 C 375.044 4.14319 0.92871 0
M  V30 3918 O 376.068 3.48993 0.712926 0
M  V30 3919 O 374.927 5.29846 1.33887 0
M  V30 3920 H 372.021 0.792347 0.236885 0
M  V30 3921 H 374.567 1.67437 -0.276211 0
M  V30 3922 H 373.339 3.90095 -0.306822 0
M  V30 3923 H 372.962 3.72181 1.39881 0
M  V30 3924 N 373.959 -0.0401083 1.57549 0
M  V30 3925 C 375.206 -0.733125 1.88763 0
M  V30 3926 C 375.534 -1.75946 0.829058 0
M  V30 3927 O 374.789 -1.94949 -0.171323 0
M  V30 3928 C 375.088 -1.44902 3.26708 0
M  V30 3929 C 374.754 -0.559707 4.47413 0
M  V30 3930 C 373.416 -0.314731 4.8017 0
M  V30 3931 C 375.768 0.0549743 5.21171 0
M  V30 3932 C 373.096 0.553886 5.8408 0
M  V30 3933 C 375.448 0.911229 6.26003 0
M  V30 3934 C 374.112 1.16577 6.57241 0
M  V30 3935 H 373.382 -0.268269 0.690733 0
M  V30 3936 H 376.029 0.00679408 1.91499 0
M  V30 3937 H 374.334 -2.26197 3.1991 0
M  V30 3938 H 376.031 -1.99058 3.48105 0
M  V30 3939 H 372.621 -0.760793 4.21794 0
M  V30 3940 H 376.805 -0.121344 4.96152 0
M  V30 3941 H 372.061 0.759518 6.06664 0
M  V30 3942 H 376.235 1.3941 6.82303 0
M  V30 3943 H 373.862 1.84058 7.37582 0
M  V30 3944 N 375.437 -1.54477 -0.31217 0
M  V30 3945 C 376.662 -1.77526 -1.07235 0
M  V30 3946 C 377.087 -0.527775 -1.80544 0
M  V30 3947 O 376.445 0.52121 -1.73646 0
M  V30 3948 C 376.493 -2.97535 -2.03728 0
M  V30 3949 O 375.597 -2.69878 -3.11833 0
M  V30 3950 H 374.938 -0.58792 -0.30862 0
M  V30 3951 H 377.468 -2.01532 -0.352993 0
M  V30 3952 H 377.478 -3.25198 -2.46395 0
M  V30 3953 H 376.153 -3.87996 -1.49774 0
M  V30 3954 H 374.73 -2.53199 -2.7376 0
M  V30 3955 N 376.915 0.57481 -1.46744 0
M  V30 3956 C 378.163 1.33009 -1.52161 0
M  V30 3957 C 378.484 1.94185 -0.178092 0
M  V30 3958 O 377.754 1.7899 0.796196 0
M  V30 3959 H 376.334 0.493873 -0.560445 0
M  V30 3960 H 378.996 0.672589 -1.82927 0
M  V30 3961 H 378.092 2.13273 -2.27862 0
M  V30 3962 N 378.394 1.34581 0.820102 0
M  V30 3963 C 379.341 1.2639 1.93117 0
M  V30 3964 C 380.311 0.138554 1.65521 0
M  V30 3965 O 381.496 0.320004 1.88097 0
M  V30 3966 C 378.636 1.02812 3.29429 0
M  V30 3967 C 377.749 2.24146 3.693 0
M  V30 3968 C 376.884 1.93829 4.94574 0
M  V30 3969 C 375.923 3.1129 5.27034 0
M  V30 3970 N 375.06 2.80838 6.43486 0
M  V30 3971 H 379.9 2.21408 1.99455 0
M  V30 3972 H 377.437 1.10077 0.975784 0
M  V30 3973 H 379.395 0.871788 4.0799 0
M  V30 3974 H 378.025 0.114612 3.22596 0
M  V30 3975 H 377.077 2.50691 2.86109 0
M  V30 3976 H 378.389 3.11899 3.89257 0
M  V30 3977 H 377.543 1.74948 5.80929 0
M  V30 3978 H 376.282 1.03341 4.76626 0
M  V30 3979 H 375.287 3.30764 4.39175 0
M  V30 3980 H 376.512 4.02561 5.4692 0
M  V30 3981 H 374.458 1.92929 6.26988 0
M  V30 3982 H 374.375 3.62123 6.63629 0
M  V30 3983 H 375.643 2.65467 7.32903 0
M  V30 3984 N 379.872 -1.04064 1.18357 0
M  V30 3985 C 381.149 -1.74252 0.888581 0
M  V30 3986 C 381.529 -2.02138 -0.60856 0
M  V30 3987 O 380.877 -1.66656 -1.56327 0
M  V30 3988 C 381.087 -3.0277 1.73584 0
M  V30 3989 C 382.435 -3.76506 1.96286 0
M  V30 3990 O 383.459 -3.12668 1.70637 0
M  V30 3991 O 382.318 -4.91243 2.39464 0
M  V30 3992 H 379.412 -0.758271 0.330082 0
M  V30 3993 H 381.958 -1.1013 1.2911 0
M  V30 3994 H 380.73 -2.78299 2.75073 0
M  V30 3995 H 380.353 -3.74631 1.33183 0
M  V30 3996 N 381.35 -0.985608 -1.22978 0
M  V30 3997 C 382.596 -0.65836 -1.91816 0
M  V30 3998 C 382.929 0.806692 -1.76653 0
M  V30 3999 O 382.204 1.58252 -1.13078 0
M  V30 4000 C 382.487 -1.056 -3.44268 0
M  V30 4001 C 382.34 -2.57906 -3.68516 0
M  V30 4002 C 383.659 -0.603781 -4.35939 0
M  V30 4003 H 380.778 -0.24065 -0.696604 0
M  V30 4004 H 383.42 -1.22783 -1.44998 0
M  V30 4005 H 381.57 -0.571445 -3.84274 0
M  V30 4006 H 383.242 -3.13976 -3.3796 0
M  V30 4007 H 381.485 -3.00305 -3.13048 0
M  V30 4008 H 382.156 -2.80779 -4.75255 0
M  V30 4009 H 384.632 -1.01987 -4.03408 0
M  V30 4010 H 383.508 -0.910383 -5.41298 0
M  V30 4011 H 383.769 0.495761 -4.39312 0
M  V30 4012 N 382.828 1.3818 -0.7579 0
M  V30 4013 C 384.053 2.04827 -0.325679 0
M  V30 4014 C 384.478 1.56788 1.03919 0
M  V30 4015 O 383.836 0.721811 1.66312 0
M  V30 4016 C 383.884 3.58774 -0.362447 0
M  V30 4017 O 382.988 4.07372 0.642033 0
M  V30 4018 H 382.329 0.64833 -0.143402 0
M  V30 4019 H 384.859 1.7677 -1.03023 0
M  V30 4020 H 384.869 4.07434 -0.214844 0
M  V30 4021 H 383.544 3.93096 -1.35824 0
M  V30 4022 H 382.121 3.70068 0.458688 0
M  V30 4023 N 384.306 0.507319 1.49211 0
M  V30 4024 C 385.554 -0.0348839 2.0207 0
M  V30 4025 C 385.875 -1.36898 1.38866 0
M  V30 4026 O 385.145 -1.88133 0.546151 0
M  V30 4027 H 383.725 -0.0158812 0.746831 0
M  V30 4028 H 386.387 0.665998 1.83168 0
M  V30 4029 H 385.483 -0.159917 3.1169 0
M  V30 4030 N 385.784 -1.5574 0.241426 0
M  V30 4031 C 387.03 -1.99104 -0.385406 0
M  V30 4032 C 387.363 -1.1293 -1.57988 0
M  V30 4033 O 386.638 -0.191449 -1.93555 0
M  V30 4034 C 386.921 -3.51087 -0.800616 0
M  V30 4035 C 386.774 -4.48028 0.398874 0
M  V30 4036 C 388.093 -4.08015 -1.64959 0
M  V30 4037 H 385.212 -0.723848 -0.138614 0
M  V30 4038 H 387.854 -1.86903 0.341642 0
M  V30 4039 H 386.004 -3.61615 -1.4201 0
M  V30 4040 H 387.676 -4.49487 1.03726 0
M  V30 4041 H 385.919 -4.21077 1.04293 0
M  V30 4042 H 386.59 -5.51962 0.0651056 0
M  V30 4043 H 389.066 -4.00555 -1.12672 0
M  V30 4044 H 387.942 -5.14635 -1.90898 0
M  V30 4045 H 388.203 -3.56131 -2.61961 0
M  V30 4046 N 387.262 0.0317525 -1.57568 0
M  V30 4047 C 388.192 1.03274 -2.0942 0
M  V30 4048 C 389.173 1.3788 -0.996143 0
M  V30 4049 O 390.358 1.46811 -1.27122 0
M  V30 4050 C 387.488 2.33448 -2.57137 0
M  V30 4051 C 386.442 2.13091 -3.71182 0
M  V30 4052 C 385.768 3.49001 -4.05095 0
M  V30 4053 C 387.068 1.51928 -4.99715 0
M  V30 4054 H 388.762 0.60112 -2.93303 0
M  V30 4055 H 386.308 0.287705 -1.41097 0
M  V30 4056 H 388.261 3.03802 -2.92032 0
M  V30 4057 H 386.985 2.78665 -1.70333 0
M  V30 4058 H 385.644 1.45171 -3.36632 0
M  V30 4059 H 385.292 3.91862 -3.15362 0
M  V30 4060 H 384.992 3.36207 -4.81911 0
M  V30 4061 H 386.516 4.20721 -4.42522 0
M  V30 4062 H 387.93 2.12196 -5.32584 0
M  V30 4063 H 386.327 1.49716 -5.81124 0
M  V30 4064 H 387.397 0.484811 -4.8247 0
M  V30 4065 N 388.74 1.54641 0.303973 0
M  V30 4066 C 389.987 1.7378 1.03955 0
M  V30 4067 C 390.315 0.521986 1.87365 0
M  V30 4068 O 389.57 -0.496099 1.89308 0
M  V30 4069 C 389.869 2.97753 1.97681 0
M  V30 4070 C 389.535 4.31671 1.30271 0
M  V30 4071 C 388.197 4.68075 1.11619 0
M  V30 4072 C 390.549 5.147 0.82055 0
M  V30 4073 C 387.877 5.8509 0.434304 0
M  V30 4074 C 390.229 6.32416 0.152395 0
M  V30 4075 C 388.893 6.67484 -0.0461067 0
M  V30 4076 H 388.163 0.635908 0.380398 0
M  V30 4077 H 390.81 1.88896 0.314718 0
M  V30 4078 H 389.115 2.77406 2.76682 0
M  V30 4079 H 390.812 3.09756 2.54661 0
M  V30 4080 H 387.402 4.03041 1.45795 0
M  V30 4081 H 391.586 4.87077 0.952374 0
M  V30 4082 H 386.842 6.10806 0.269495 0
M  V30 4083 H 391.016 6.96023 -0.229126 0
M  V30 4084 H 388.643 7.58011 -0.576494 0
M  V30 4085 N 390.218 -0.567019 1.47046 0
M  V30 4086 C 391.15 -1.68985 1.54844 0
M  V30 4087 C 392.163 -1.56869 0.435431 0
M  V30 4088 O 393.352 -1.64006 0.70457 0
M  V30 4089 C 390.452 -3.07373 1.42742 0
M  V30 4090 C 389.625 -3.45339 2.6844 0
M  V30 4091 C 388.684 -4.62849 2.50314 0
M  V30 4092 O 387.71 -4.67922 3.24095 0
M  V30 4093 N 388.912 -5.58726 1.57499 0
M  V30 4094 H 391.677 -1.62745 2.51663 0
M  V30 4095 H 389.238 -0.753411 1.43302 0
M  V30 4096 H 391.23 -3.83803 1.28365 0
M  V30 4097 H 389.8 -3.07893 0.540445 0
M  V30 4098 H 389.02 -2.58455 2.97648 0
M  V30 4099 H 390.308 -3.67476 3.51907 0
M  V30 4100 H 389.706 -5.57376 0.966876 0
M  V30 4101 H 388.263 -6.34523 1.49078 0
M  V30 4102 N 391.696 -1.35014 -0.812953 0
M  V30 4103 C 392.926 -1.30841 -1.59888 0
M  V30 4104 C 393.334 0.117576 -1.88834 0
M  V30 4105 O 392.677 1.07807 -1.48739 0
M  V30 4106 C 392.739 -2.0412 -2.95931 0
M  V30 4107 C 392.403 -3.53336 -2.89832 0
M  V30 4108 C 393.4 -4.48052 -2.63714 0
M  V30 4109 C 391.085 -3.95894 -3.0915 0
M  V30 4110 C 393.079 -5.833 -2.56982 0
M  V30 4111 C 390.766 -5.31239 -3.0204 0
M  V30 4112 C 391.764 -6.24754 -2.75991 0
M  V30 4113 O 391.452 -7.57617 -2.68833 0
M  V30 4114 H 391.184 -0.451215 -0.50337 0
M  V30 4115 H 393.738 -1.78354 -1.01877 0
M  V30 4116 H 391.968 -1.51235 -3.559 0
M  V30 4117 H 393.657 -1.93107 -3.57022 0
M  V30 4118 H 394.423 -4.16492 -2.48515 0
M  V30 4119 H 390.302 -3.23495 -3.28438 0
M  V30 4120 H 393.846 -6.56263 -2.36569 0
M  V30 4121 H 389.743 -5.62415 -3.16796 0
M  V30 4122 H 390.511 -7.67469 -2.84487 0
M  V30 4123 N 393.175 1.03435 -1.18907 0
M  V30 4124 C 394.586 1.58195 -0.991523 0
M  V30 4125 C 394.937 1.90801 0.457081 0
M  V30 4126 O 394.062 1.70272 1.33553 0
M  V30 4127 C 394.657 2.87432 -1.79355 0
M  V30 4128 C 393.216 3.38785 -1.64017 0
M  V30 4129 C 392.363 2.12292 -1.78402 0
M  V30 4130 H 395.314 0.860299 -1.33359 0
M  V30 4131 H 395.335 3.58096 -1.28638 0
M  V30 4132 H 394.847 2.63669 -2.84781 0
M  V30 4133 H 392.948 3.67547 -0.611536 0
M  V30 4134 H 393.061 4.12186 -2.44212 0
M  V30 4135 H 391.425 2.23901 -1.2141 0
M  V30 4136 H 392.208 1.90977 -2.85277 0
M  V30 4137 N 394.653 0.992116 1.22453 0
M  V30 4138 C 395.93 0.583508 1.86694 0
M  V30 4139 C 396.31 -0.9392 1.89056 0
M  V30 4140 O 395.658 -1.82081 1.38053 0
M  V30 4141 C 395.868 1.20304 3.2761 0
M  V30 4142 C 397.216 1.30308 4.0411 0
M  V30 4143 O 398.24 1.15737 3.36873 0
M  V30 4144 O 397.099 1.53615 5.24466 0
M  V30 4145 H 394.193 0.198129 0.802916 0
M  V30 4146 H 396.739 1.08794 1.30238 0
M  V30 4147 H 395.511 2.24461 3.2052 0
M  V30 4148 H 395.134 0.684144 3.9167 0
M  V30 4149 N 396.131 -1.37776 0.765217 0
M  V30 4150 C 397.359 -2.04124 0.337767 0
M  V30 4151 C 397.774 -1.57715 -1.03785 0
M  V30 4152 O 397.131 -0.755447 -1.6613 0
M  V30 4153 C 397.182 -3.59658 0.364442 0
M  V30 4154 O 396.903 -4.04367 1.68579 0
M  V30 4155 C 398.404 -4.43236 -0.0754221 0
M  V30 4156 H 395.624 -0.655696 0.142491 0
M  V30 4157 H 398.168 -1.76238 1.03732 0
M  V30 4158 H 396.323 -3.86339 -0.286471 0
M  V30 4159 H 396.737 -4.98857 1.61993 0
M  V30 4160 H 398.211 -5.52 -0.00560067 0
M  V30 4161 H 398.688 -4.2455 -1.12491 0
M  V30 4162 H 399.294 -4.21767 0.547055 0
M  V30 4163 N 397.609 -0.515225 -1.4894 0
M  V30 4164 C 398.519 0.259774 -2.33157 0
M  V30 4165 C 399.535 0.953501 -1.45548 0
M  V30 4166 O 400.711 0.931735 -1.78552 0
M  V30 4167 C 397.776 1.30193 -3.21326 0
M  V30 4168 C 396.837 0.620129 -4.24797 0
M  V30 4169 C 396.07 1.61263 -5.08753 0
M  V30 4170 O 396.293 2.84389 -4.94448 0
M  V30 4171 O 395.227 1.16013 -5.90614 0
M  V30 4172 H 399.053 -0.429932 -3.00641 0
M  V30 4173 H 396.638 -0.276346 -1.46822 0
M  V30 4174 H 398.52 1.90455 -3.75905 0
M  V30 4175 H 397.195 1.97431 -2.56521 0
M  V30 4176 H 396.102 -0.0226019 -3.74093 0
M  V30 4177 H 397.435 -0.0100493 -4.92199 0
M  V30 4178 N 399.087 1.5561 -0.249682 0
M  V30 4179 C 400.335 1.98618 0.373548 0
M  V30 4180 C 400.656 1.13919 1.58264 0
M  V30 4181 O 399.926 0.222637 1.94631 0
M  V30 4182 H 398.506 0.733571 0.141006 0
M  V30 4183 H 401.168 1.91748 -0.349117 0
M  V30 4184 H 400.264 3.04584 0.680796 0
M  V30 4185 N 400.565 -0.0233959 1.57583 0
M  V30 4186 C 401.512 -1.02224 2.06927 0
M  V30 4187 C 402.482 -1.35575 0.959617 0
M  V30 4188 O 403.667 -1.45815 1.23055 0
M  V30 4189 C 400.807 -2.31636 2.5581 0
M  V30 4190 C 399.92 -2.04394 3.80588 0
M  V30 4191 C 399.055 -3.27717 4.18061 0
M  V30 4192 C 398.094 -2.96056 5.3574 0
M  V30 4193 N 397.231 -4.11847 5.68618 0
M  V30 4194 H 402.071 -0.594504 2.9201 0
M  V30 4195 H 399.608 -0.281921 1.44373 0
M  V30 4196 H 401.566 -3.07258 2.82221 0
M  V30 4197 H 400.196 -2.72122 1.73636 0
M  V30 4198 H 399.248 -1.19244 3.61227 0
M  V30 4199 H 400.56 -1.77042 4.66323 0
M  V30 4200 H 399.714 -4.11702 4.4563 0
M  V30 4201 H 398.453 -3.58188 3.30988 0
M  V30 4202 H 397.458 -2.10474 5.07918 0
M  V30 4203 H 398.683 -2.66857 6.24471 0
M  V30 4204 H 396.629 -4.42258 4.84504 0
M  V30 4205 H 396.546 -3.87938 6.48876 0
M  V30 4206 H 397.814 -4.96689 6.00766 0
M  V30 4207 N 402.043 -1.548 -0.295768 0
M  V30 4208 C 403.289 -1.74588 -1.03184 0
M  V30 4209 C 403.622 -0.532962 -1.86744 0
M  V30 4210 O 402.897 0.469872 -1.88739 0
M  V30 4211 C 403.18 -3.03791 -1.93347 0
M  V30 4212 C 403.033 -4.35392 -1.12933 0
M  V30 4213 C 404.352 -3.28892 -2.92435 0
M  V30 4214 H 401.471 -0.635221 -0.373715 0
M  V30 4215 H 404.113 -1.87519 -0.30606 0
M  V30 4216 H 402.263 -2.92898 -2.55232 0
M  V30 4217 H 403.935 -4.58211 -0.532943 0
M  V30 4218 H 402.178 -4.31642 -0.432168 0
M  V30 4219 H 402.849 -5.22074 -1.79284 0
M  V30 4220 H 405.325 -3.39429 -2.4068 0
M  V30 4221 H 404.201 -4.20603 -3.52682 0
M  V30 4222 H 404.462 -2.47437 -3.6637 0
M  V30 4223 N 403.521 0.559213 -1.47345 0
M  V30 4224 C 404.431 1.69388 -1.62311 0
M  V30 4225 C 405.447 1.6648 -0.505993 0
M  V30 4226 O 406.623 1.85964 -0.773262 0
M  V30 4227 C 403.688 3.05894 -1.63185 0
M  V30 4228 C 402.749 3.19885 -2.86307 0
M  V30 4229 C 401.982 4.49879 -2.87131 0
M  V30 4230 O 402.205 5.35217 -1.97229 0
M  V30 4231 O 401.139 4.67618 -3.78968 0
M  V30 4232 H 404.965 1.59706 -2.58317 0
M  V30 4233 H 402.55 0.728989 -1.30407 0
M  V30 4234 H 404.432 3.87133 -1.66451 0
M  V30 4235 H 403.107 3.15964 -0.70345 0
M  V30 4236 H 402.014 2.38052 -2.88587 0
M  V30 4237 H 403.347 3.14718 -3.78435 0
M  V30 4238 N 404.999 1.35443 0.805782 0
M  V30 4239 C 406.276 1.19325 1.54987 0
M  V30 4240 C 406.656 -0.227294 2.09873 0
M  V30 4241 O 406.004 -1.2309 1.92512 0
M  V30 4242 C 406.214 2.26196 2.65775 0
M  V30 4243 C 407.562 2.62043 3.34094 0
M  V30 4244 O 408.586 2.25115 2.76046 0
M  V30 4245 O 407.445 3.25542 4.38958 0
M  V30 4246 H 404.539 0.463623 0.684823 0
M  V30 4247 H 407.085 1.47127 0.845674 0
M  V30 4248 H 405.857 3.21471 2.23096 0
M  V30 4249 H 405.48 1.99667 3.43829 0
M  V30 4250 N 406.477 -1.02803 1.19454 0
M  V30 4251 C 407.724 -1.76217 0.997693 0
M  V30 4252 C 408.052 -1.887 -0.47144 0
M  V30 4253 O 407.307 -1.4011 -1.3663 0
M  V30 4254 C 407.606 -3.18941 1.6128 0
M  V30 4255 C 407.272 -3.26463 3.11019 0
M  V30 4256 C 405.934 -3.28223 3.51885 0
M  V30 4257 C 408.286 -3.25542 4.07028 0
M  V30 4258 C 405.614 -3.26719 4.8731 0
M  V30 4259 C 407.966 -3.25579 5.42385 0
M  V30 4260 C 406.63 -3.25637 5.82681 0
M  V30 4261 H 405.9 -0.644823 0.365082 0
M  V30 4262 H 408.547 -1.20655 1.4871 0
M  V30 4263 H 406.852 -3.77587 1.04572 0
M  V30 4264 H 408.549 -3.74415 1.43577 0
M  V30 4265 H 405.139 -3.25822 2.78457 0
M  V30 4266 H 409.323 -3.23362 3.76498 0
M  V30 4267 H 404.579 -3.25089 5.1781 0
M  V30 4268 H 408.753 -3.23817 6.16535 0
M  V30 4269 H 406.38 -3.24226 6.87591 0
M  V30 4270 N 407.956 -0.998596 -1.21925 0
M  V30 4271 C 409.184 -0.696286 -1.94832 0
M  V30 4272 C 409.599 0.740032 -1.73692 0
M  V30 4273 O 408.956 1.5 -1.03953 0
M  V30 4274 C 409.007 -0.999833 -3.47398 0
M  V30 4275 O 408.728 -2.37972 -3.67833 0
M  V30 4276 C 410.229 -0.716025 -4.37479 0
M  V30 4277 H 407.449 -0.257111 -0.619786 0
M  V30 4278 H 409.993 -1.33491 -1.54921 0
M  V30 4279 H 408.148 -0.406918 -3.85257 0
M  V30 4280 H 408.562 -2.48338 -4.61983 0
M  V30 4281 H 410.036 -0.978642 -5.43256 0
M  V30 4282 H 410.513 0.349968 -4.37803 0
M  V30 4283 H 411.119 -1.29025 -4.05256 0
M  V30 4284 N 409.434 1.37368 -0.772513 0
M  V30 4285 C 410.344 2.34053 -0.160081 0
M  V30 4286 C 411.36 1.60216 0.678728 0
M  V30 4287 O 412.536 1.92303 0.59847 0
M  V30 4288 C 409.601 3.3939 0.708182 0
M  V30 4289 C 408.662 4.29048 -0.147172 0
M  V30 4290 C 407.895 5.29354 0.679744 0
M  V30 4291 O 408.118 5.3723 1.91678 0
M  V30 4292 O 407.052 6.01835 0.0885444 0
M  V30 4293 H 410.878 2.88159 -0.959053 0
M  V30 4294 H 408.463 1.39543 -0.533685 0
M  V30 4295 H 410.345 4.03839 1.20384 0
M  V30 4296 H 409.02 2.8761 1.48533 0
M  V30 4297 H 407.927 3.67697 -0.689205 0
M  V30 4298 H 409.26 4.84134 -0.887423 0
M  V30 4299 N 410.912 0.523116 1.48665 0
M  V30 4300 C 411.842 -0.23231 2.32342 0
M  V30 4301 C 412.823 -0.941637 1.41659 0
M  V30 4302 O 414.008 -0.928751 1.70552 0
M  V30 4303 C 411.138 -1.28387 3.22698 0
M  V30 4304 C 410.092 -0.693098 4.22351 0
M  V30 4305 C 409.418 -1.8468 5.01794 0
M  V30 4306 C 410.718 0.33063 5.21252 0
M  V30 4307 H 412.412 0.466192 2.95748 0
M  V30 4308 H 409.958 0.225643 1.42221 0
M  V30 4309 H 411.911 -1.82024 3.80059 0
M  V30 4310 H 410.635 -2.01186 2.57278 0
M  V30 4311 H 409.294 -0.178299 3.66166 0
M  V30 4312 H 408.942 -2.56301 4.32804 0
M  V30 4313 H 408.642 -1.45747 5.69238 0
M  V30 4314 H 410.166 -2.38709 5.62006 0
M  V30 4315 H 411.58 -0.118407 5.73178 0
M  V30 4316 H 409.977 0.636974 5.9671 0
M  V30 4317 H 411.047 1.23883 4.68808 0
M  V30 4318 N 412.39 -1.55475 0.257931 0
M  V30 4319 C 413.636 -1.99502 -0.364266 0
M  V30 4320 C 413.969 -1.146 -1.56782 0
M  V30 4321 O 413.244 -0.211968 -1.93342 0
M  V30 4322 C 413.527 -3.51917 -0.763333 0
M  V30 4323 C 413.38 -4.4758 0.446371 0
M  V30 4324 C 414.699 -4.09742 -1.60623 0
M  V30 4325 H 411.818 -0.725277 -0.130929 0
M  V30 4326 H 414.46 -1.8653 0.361446 0
M  V30 4327 H 412.61 -3.63101 -1.38166 0
M  V30 4328 H 414.282 -4.48362 1.08487 0
M  V30 4329 H 412.525 -4.19947 1.08753 0
M  V30 4330 H 413.196 -5.51862 0.123645 0
M  V30 4331 H 415.672 -4.01727 -1.08418 0
M  V30 4332 H 414.548 -5.16631 -1.85429 0
M  V30 4333 H 414.809 -3.58889 -2.58169 0
M  V30 4334 N 413.868 0.0150385 -1.57593 0
M  V30 4335 C 414.778 1.02791 -2.10882 0
M  V30 4336 C 415.794 1.38702 -1.0506 0
M  V30 4337 O 416.97 1.47739 -1.36877 0
M  V30 4338 C 414.035 2.30568 -2.58919 0
M  V30 4339 C 413.096 2.01108 -3.79281 0
M  V30 4340 C 412.329 3.22794 -4.25018 0
M  V30 4341 O 412.552 4.33959 -3.70183 0
M  V30 4342 O 411.486 3.07672 -5.17322 0
M  V30 4343 H 415.312 0.604973 -2.97613 0
M  V30 4344 H 412.897 0.23292 -1.47573 0
M  V30 4345 H 414.779 3.05662 -2.90084 0
M  V30 4346 H 413.454 2.72129 -1.75293 0
M  V30 4347 H 412.361 1.23537 -3.53114 0
M  V30 4348 H 413.694 1.64394 -4.63935 0
M  V30 4349 N 415.346 1.54954 0.287554 0
M  V30 4350 C 416.762 1.46469 0.633964 0
M  V30 4351 C 416.962 0.666865 1.90145 0
M  V30 4352 O 416.018 0.179906 2.51858 0
M  V30 4353 C 417.331 2.90556 0.774454 0
M  V30 4354 C 418.879 3.00681 0.869462 0
M  V30 4355 C 419.354 4.45993 1.04184 0
M  V30 4356 N 420.845 4.4976 1.10772 0
M  V30 4357 C 421.58 5.59393 1.25964 0
M  V30 4358 N 421.076 6.78923 1.37968 0
M  V30 4359 N 422.869 5.47107 1.28959 0
M  V30 4360 H 415.02 2.05288 -0.545041 0
M  V30 4361 H 417.283 0.930305 -0.182308 0
M  V30 4362 H 416.989 3.51594 -0.086207 0
M  V30 4363 H 416.863 3.38743 1.6593 0
M  V30 4364 H 419.25 2.39749 1.7206 0
M  V30 4365 H 419.331 2.55769 -0.0396831 0
M  V30 4366 H 418.975 5.07524 0.195422 0
M  V30 4367 H 418.905 4.88548 1.96542 0
M  V30 4368 H 421.396 3.63651 1.02794 0
M  V30 4369 H 421.709 7.58231 1.49353 0
M  V30 4370 H 420.054 6.81763 1.34999 0
M  V30 4371 H 423.245 4.52668 1.19202 0
M  V30 4372 H 423.418 6.32595 1.40455 0
M  V30 4373 N 416.824 -0.551391 1.4764 0
M  V30 4374 C 417.787 -1.64007 1.60107 0
M  V30 4375 C 418.787 -1.53601 0.47576 0
M  V30 4376 O 419.977 -1.57655 0.740988 0
M  V30 4377 C 417.109 -3.03569 1.55108 0
M  V30 4378 H 418.302 -1.543 2.57161 0
M  V30 4379 H 415.855 -0.771776 1.35917 0
M  V30 4380 H 416.59 -3.18804 0.594519 0
M  V30 4381 H 416.375 -3.12532 2.36783 0
M  V30 4382 H 417.865 -3.82762 1.66982 0
M  V30 4383 N 418.302 -1.35869 -0.798587 0
M  V30 4384 C 419.252 -1.25982 -1.90033 0
M  V30 4385 C 420.236 -0.153303 -1.60168 0
M  V30 4386 O 421.428 -0.38527 -1.72756 0
M  V30 4387 C 418.557 -1.04211 -3.27101 0
M  V30 4388 C 417.643 -2.19289 -3.63006 0
M  V30 4389 N 418.034 -3.44559 -3.70287 0
M  V30 4390 C 416.332 -2.10852 -3.93011 0
M  V30 4391 C 417.033 -4.20283 -4.02166 0
M  V30 4392 N 416.009 -3.49124 -4.16669 0
M  V30 4393 H 419.811 -2.20883 -1.93876 0
M  V30 4394 H 417.325 -1.28457 -0.993614 0
M  V30 4395 H 419.322 -0.952155 -4.05881 0
M  V30 4396 H 417.982 -0.102013 -3.2454 0
M  V30 4397 H 418.993 -3.7881 -3.53162 0
M  V30 4398 H 415.67 -1.24744 -3.98428 0
M  V30 4399 H 417.06 -5.28575 -4.14799 0
M  V30 4400 N 419.78 1.02168 -1.19998 0
M  V30 4401 C 420.712 2.10705 -0.901994 0
M  V30 4402 C 421.725 1.6244 0.108216 0
M  V30 4403 O 422.914 1.78082 -0.12214 0
M  V30 4404 C 420.014 3.37291 -0.329834 0
M  V30 4405 C 419.187 4.14714 -1.39035 0
M  V30 4406 C 418.246 5.19606 -0.830432 0
M  V30 4407 O 417.272 5.48809 -1.50989 0
M  V30 4408 N 418.474 5.79366 0.362696 0
M  V30 4409 H 421.239 2.36856 -1.83628 0
M  V30 4410 H 418.8 1.18518 -1.10296 0
M  V30 4411 H 420.792 4.04657 0.0587633 0
M  V30 4412 H 419.362 3.0843 0.508891 0
M  V30 4413 H 418.582 3.42392 -1.9535 0
M  V30 4414 H 419.87 4.63226 -2.10474 0
M  V30 4415 H 419.268 5.57968 0.932081 0
M  V30 4416 H 417.825 6.48106 0.69299 0
M  V30 4417 N 421.258 1.00505 1.21394 0
M  V30 4418 C 422.483 0.706367 1.95001 0
M  V30 4419 C 422.908 -0.72463 1.73582 0
M  V30 4420 O 422.266 -1.49702 1.0227 0
M  V30 4421 C 422.314 1.03299 3.45487 0
M  V30 4422 O 421.418 0.138275 4.12168 0
M  V30 4423 H 420.759 0.263175 0.609619 0
M  V30 4424 H 423.289 1.34531 1.54151 0
M  V30 4425 H 423.299 0.979872 3.96059 0
M  V30 4426 H 421.974 2.07567 3.60401 0
M  V30 4427 H 420.551 0.247928 3.72075 0
M  V30 4428 N 422.737 -1.36956 0.779787 0
M  V30 4429 C 423.985 -1.99097 0.347079 0
M  V30 4430 C 424.306 -1.62206 -1.08232 0
M  V30 4431 O 423.576 -0.891373 -1.74446 0
M  V30 4432 H 422.156 -0.736409 0.125342 0
M  V30 4433 H 424.818 -1.67308 0.999696 0
M  V30 4434 H 423.914 -3.09107 0.431162 0
M  V30 4435 N 424.215 -0.530993 -1.48385 0
M  V30 4436 C 425.44 0.000729535 -2.074 0
M  V30 4437 C 425.865 1.27298 -1.3848 0
M  V30 4438 O 425.223 1.75599 -0.451081 0
M  V30 4439 C 425.271 0.206697 -3.60007 0
M  V30 4440 O 424.375 1.27514 -3.92191 0
M  V30 4441 H 423.716 -0.039583 -0.662819 0
M  V30 4442 H 426.246 -0.739194 -1.9078 0
M  V30 4443 H 426.256 0.42904 -4.05738 0
M  V30 4444 H 424.931 -0.722675 -4.09573 0
M  V30 4445 H 423.508 1.03537 -3.58238 0
M  V30 4446 N 425.693 1.55336 -0.266172 0
M  V30 4447 C 426.623 2.25146 0.618981 0
M  V30 4448 C 427.604 1.23845 1.16604 0
M  V30 4449 O 428.789 1.52544 1.20183 0
M  V30 4450 C 425.919 2.96572 1.80728 0
M  V30 4451 C 424.873 4.04726 1.39215 0
M  V30 4452 C 424.199 4.63678 2.66283 0
M  V30 4453 C 425.499 5.19407 0.548942 0
M  V30 4454 H 427.193 2.99377 0.0368116 0
M  V30 4455 H 424.739 1.43991 0.0162651 0
M  V30 4456 H 426.692 3.44116 2.43232 0
M  V30 4457 H 425.416 2.19861 2.41514 0
M  V30 4458 H 424.075 3.57979 0.790351 0
M  V30 4459 H 423.723 3.83646 3.25308 0
M  V30 4460 H 423.423 5.367 2.39222 0
M  V30 4461 H 424.947 5.13967 3.29651 0
M  V30 4462 H 426.361 5.63059 1.07876 0
M  V30 4463 H 424.758 5.98936 0.373593 0
M  V30 4464 H 425.828 4.8295 -0.434394 0
M  V30 4465 N 427.171 -0.0066808 1.57599 0
M  V30 4466 C 428.134 -0.985035 2.06953 0
M  V30 4467 C 429.134 -1.27663 0.977687 0
M  V30 4468 O 430.324 -1.22293 1.24057 0
M  V30 4469 C 427.456 -2.3118 2.50536 0
M  V30 4470 H 428.649 -0.558255 2.94658 0
M  V30 4471 H 426.202 -0.254011 1.54222 0
M  V30 4472 H 426.937 -2.78561 1.66054 0
M  V30 4473 H 426.722 -2.11338 3.3027 0
M  V30 4474 H 428.212 -3.01377 2.8907 0
M  V30 4475 N 428.649 -1.55105 -0.279332 0
M  V30 4476 C 429.889 -1.7716 -1.01949 0
M  V30 4477 C 430.253 -0.557511 -1.83728 0
M  V30 4478 O 431.454 -0.656198 -2.60667 0
M  V30 4479 C 429.725 -3.0372 -1.88385 0
M  V30 4480 S 431.284 -3.46868 -2.68752 0
M  V30 4481 H 428.102 -0.62253 -0.343478 0
M  V30 4482 H 430.704 -1.93329 -0.290572 0
M  V30 4483 H 429.408 -3.90184 -1.2722 0
M  V30 4484 H 428.939 -2.902 -2.65608 0
M  V30 4485 H 430.954 -3.05643 -3.90892 0
M  V30 4486 N 430.127 0.543554 -1.4793 0
M  V30 4487 C 431.367 1.31072 -1.56843 0
M  V30 4488 C 431.731 1.90604 -0.231124 0
M  V30 4489 O 432.932 2.68091 -0.195165 0
M  V30 4490 C 431.203 2.38106 -2.66533 0
M  V30 4491 S 432.762 3.24729 -2.95122 0
M  V30 4492 H 429.58 0.446035 -0.553691 0
M  V30 4493 H 432.182 0.620777 -1.85382 0
M  V30 4494 H 430.886 1.92828 -3.62278 0
M  V30 4495 H 430.417 3.11824 -2.39852 0
M  V30 4496 H 432.432 4.37891 -2.3338 0
M  V30 4497 N 431.605 1.3629 0.791371 0
M  V30 4498 C 432.568 1.30309 1.88553 0
M  V30 4499 C 433.568 0.211204 1.59407 0
M  V30 4500 O 434.758 0.465865 1.67855 0
M  V30 4501 C 431.89 1.01956 3.25297 0
M  V30 4502 H 433.083 2.27614 1.95273 0
M  V30 4503 H 430.636 1.21035 0.988953 0
M  V30 4504 H 431.371 0.050998 3.2426 0
M  V30 4505 H 431.156 1.80968 3.4784 0
M  V30 4506 H 432.646 1.0037 4.05359 0
M  V30 4507 N 433.083 -1.0153 1.20538 0
M  V30 4508 C 434.311 -1.78746 1.04199 0
M  V30 4509 C 434.726 -1.84323 -0.408733 0
M  V30 4510 O 434.083 -1.29714 -1.28377 0
M  V30 4511 C 434.134 -3.23152 1.62035 0
M  V30 4512 O 433.855 -3.17918 3.0143 0
M  V30 4513 C 435.356 -4.16911 1.50666 0
M  V30 4514 H 432.576 -0.56208 0.366479 0
M  V30 4515 H 435.12 -1.27794 1.59653 0
M  V30 4516 H 433.275 -3.71248 1.10697 0
M  V30 4517 H 433.689 -4.08567 3.28897 0
M  V30 4518 H 435.163 -5.16072 1.95892 0
M  V30 4519 H 435.64 -4.36791 0.459363 0
M  V30 4520 H 436.246 -3.74698 2.01201 0
M  V30 4521 N 434.561 -1.01147 -1.20859 0
M  V30 4522 C 435.838 -0.613136 -1.85742 0
M  V30 4523 C 436.218 0.909004 -1.90526 0
M  V30 4524 O 435.566 1.79862 -1.40932 0
M  V30 4525 C 435.776 -1.255 -3.25654 0
M  V30 4526 C 437.124 -1.3672 -4.01986 0
M  V30 4527 O 438.148 -1.21082 -3.34989 0
M  V30 4528 O 437.007 -1.6194 -5.21956 0
M  V30 4529 H 434.101 -0.210878 -0.799662 0
M  V30 4530 H 436.647 -1.10853 -1.2849 0
M  V30 4531 H 435.419 -2.29532 -3.16908 0
M  V30 4532 H 435.042 -0.746369 -3.90532 0
M  V30 4533 N 436.039 1.36541 -0.78704 0
M  V30 4534 C 436.969 2.32659 -0.197992 0
M  V30 4535 C 437.95 1.56533 0.665697 0
M  V30 4536 O 439.135 1.84698 0.60001 0
M  V30 4537 C 436.265 3.40778 0.669901 0
M  V30 4538 C 435.219 4.27897 -0.0937039 0
M  V30 4539 C 434.545 5.27163 0.894629 0
M  V30 4540 C 435.845 5.06334 -1.28154 0
M  V30 4541 H 437.539 2.82171 -1.00099 0
M  V30 4542 H 435.085 1.35665 -0.482793 0
M  V30 4543 H 437.038 4.07008 1.09191 0
M  V30 4544 H 435.762 2.89827 1.50558 0
M  V30 4545 H 434.421 3.6322 -0.49666 0
M  V30 4546 H 434.069 4.72486 1.72527 0
M  V30 4547 H 433.769 5.86317 0.388149 0
M  V30 4548 H 435.293 5.96266 1.31525 0
M  V30 4549 H 436.707 5.65617 -0.93541 0
M  V30 4550 H 435.104 5.74888 -1.72115 0
M  V30 4551 H 436.174 4.38114 -2.07807 0
M  V30 4552 N 437.518 0.538854 1.48102 0
M  V30 4553 C 438.448 -0.207654 2.32575 0
M  V30 4554 C 439.429 -0.926559 1.4265 0
M  V30 4555 O 440.614 -0.91061 1.71527 0
M  V30 4556 C 437.744 -1.24957 3.24042 0
M  V30 4557 C 436.698 -0.648263 4.23062 0
M  V30 4558 C 436.024 -1.79348 5.03725 0
M  V30 4559 C 437.324 0.385897 5.20872 0
M  V30 4560 H 439.018 0.497534 2.95237 0
M  V30 4561 H 436.564 0.240715 1.41974 0
M  V30 4562 H 438.517 -1.77983 3.81969 0
M  V30 4563 H 437.241 -1.98446 2.59397 0
M  V30 4564 H 435.9 -0.139452 3.66335 0
M  V30 4565 H 435.548 -2.51696 4.35498 0
M  V30 4566 H 435.248 -1.39702 5.70751 0
M  V30 4567 H 436.772 -2.32735 5.64506 0
M  V30 4568 H 438.186 -0.057607 5.73271 0
M  V30 4569 H 436.583 0.700227 5.96001 0
M  V30 4570 H 437.653 1.28848 4.67468 0
M  V30 4571 N 438.996 -1.55193 0.274407 0
M  V30 4572 C 439.959 -2.212 -0.600279 0
M  V30 4573 C 440.959 -1.18963 -1.08187 0
M  V30 4574 O 442.149 -1.43873 -0.982158 0
M  V30 4575 C 439.281 -2.87739 -1.82809 0
M  V30 4576 H 440.474 -2.9989 -0.0239682 0
M  V30 4577 H 438.027 -1.5628 0.0250192 0
M  V30 4578 H 438.762 -2.13058 -2.44493 0
M  V30 4579 H 438.547 -3.62658 -1.49069 0
M  V30 4580 H 440.037 -3.38171 -2.45011 0
M  V30 4581 N 440.474 -0.00167713 -1.576 0
M  V30 4582 C 441.404 0.988091 -2.11563 0
M  V30 4583 C 442.385 1.35736 -1.02517 0
M  V30 4584 O 443.57 1.44082 -1.30208 0
M  V30 4585 C 440.7 2.27941 -2.62031 0
M  V30 4586 C 439.654 2.0517 -3.75619 0
M  V30 4587 C 438.98 3.4033 -4.12407 0
M  V30 4588 C 440.28 1.41294 -5.02825 0
M  V30 4589 H 441.974 0.538771 -2.94513 0
M  V30 4590 H 439.52 0.257712 -1.41675 0
M  V30 4591 H 441.473 2.97539 -2.9841 0
M  V30 4592 H 440.197 2.74989 -1.76205 0
M  V30 4593 H 438.856 1.37998 -3.39635 0
M  V30 4594 H 438.504 3.85085 -3.23603 0
M  V30 4595 H 438.204 3.25909 -4.88935 0
M  V30 4596 H 439.728 4.1124 -4.51347 0
M  V30 4597 H 441.142 2.00851 -5.36965 0
M  V30 4598 H 439.539 1.37356 -5.84169 0
M  V30 4599 H 440.609 0.382362 -4.8339 0
M  V30 4600 N 441.952 1.55251 0.271103 0
M  V30 4601 C 443.192 1.77698 1.01008 0
M  V30 4602 C 443.556 0.567246 1.83429 0
M  V30 4603 O 444.757 0.670013 2.60316 0
M  V30 4604 C 443.028 3.04715 1.86772 0
M  V30 4605 S 444.587 3.48289 2.66909 0
M  V30 4606 H 441.405 0.624343 0.340172 0
M  V30 4607 H 444.007 1.9348 0.280315 0
M  V30 4608 H 442.711 3.90853 1.25149 0
M  V30 4609 H 442.242 2.91604 2.64066 0
M  V30 4610 H 444.257 3.07712 3.89266 0
M  V30 4611 N 443.43 -0.535701 1.48216 0
M  V30 4612 C 444.679 -1.28828 1.55197 0
M  V30 4613 C 444.992 -1.94263 0.228278 0
M  V30 4614 O 446.198 -2.70927 0.176278 0
M  V30 4615 C 444.654 -2.33727 2.73678 0
M  V30 4616 C 444.262 -1.74386 4.12666 0
M  V30 4617 C 446.006 -3.1003 2.89968 0
M  V30 4618 C 443.913 -2.77192 5.22416 0
M  V30 4619 H 442.843 -0.484484 0.577747 0
M  V30 4620 H 445.494 -0.56646 1.74538 0
M  V30 4621 H 443.876 -3.08919 2.4776 0
M  V30 4622 H 445.05 -1.05421 4.48579 0
M  V30 4623 H 443.365 -1.10595 4.01445 0
M  V30 4624 H 445.962 -3.86842 3.6913 0
M  V30 4625 H 446.305 -3.65542 1.9921 0
M  V30 4626 H 446.838 -2.41952 3.15759 0
M  V30 4627 H 443.577 -2.26507 6.15122 0
M  V30 4628 H 443.097 -3.44502 4.90998 0
M  V30 4629 H 444.776 -3.40285 5.50286 0
M  V30 4630 N 444.908 -1.36708 -0.784132 0
M  V30 4631 C 445.838 -1.34153 -1.91116 0
M  V30 4632 C 446.819 -0.212121 -1.68772 0
M  V30 4633 O 448.004 -0.410581 -1.8981 0
M  V30 4634 C 445.134 -1.13535 -3.28218 0
M  V30 4635 C 444.088 -2.23356 -3.65097 0
M  V30 4636 C 443.414 -1.87875 -5.00607 0
M  V30 4637 C 444.714 -3.65473 -3.73131 0
M  V30 4638 H 446.408 -2.28459 -1.93512 0
M  V30 4639 H 443.954 -1.09973 -0.929618 0
M  V30 4640 H 445.907 -1.10381 -4.06687 0
M  V30 4641 H 444.631 -0.156804 -3.26223 0
M  V30 4642 H 443.29 -2.25645 -2.88929 0
M  V30 4643 H 442.938 -0.885814 -4.95139 0
M  V30 4644 H 442.638 -2.61406 -5.26252 0
M  V30 4645 H 444.162 -1.86286 -5.81489 0
M  V30 4646 H 445.576 -3.65382 -4.41779 0
M  V30 4647 H 443.973 -4.37953 -4.10265 0
M  V30 4648 H 445.043 -3.99995 -2.74102 0
M  V30 4649 N 446.386 1.0089 -1.21074 0
M  V30 4650 C 447.802 1.2695 -0.967257 0
M  V30 4651 C 448.002 1.9846 0.348673 0
M  V30 4652 O 447.058 2.28459 1.0753 0
M  V30 4653 C 448.371 2.09697 -2.15517 0
M  V30 4654 C 449.919 2.22937 -2.197 0
M  V30 4655 C 450.394 3.09064 -3.37999 0
M  V30 4656 N 451.885 3.16653 -3.38061 0
M  V30 4657 C 452.62 3.8354 -4.26245 0
M  V30 4658 N 452.116 4.52488 -5.2462 0
M  V30 4659 N 453.909 3.80141 -4.14064 0
M  V30 4660 H 446.06 0.529005 -2.05707 0
M  V30 4661 H 448.323 0.296148 -0.900556 0
M  V30 4662 H 448.029 1.64497 -3.10859 0
M  V30 4663 H 447.903 3.10444 -2.14253 0
M  V30 4664 H 450.29 2.67357 -1.24916 0
M  V30 4665 H 450.371 1.21673 -2.2501 0
M  V30 4666 H 450.015 2.65347 -4.33074 0
M  V30 4667 H 449.945 4.10433 -3.29928 0
M  V30 4668 H 452.436 2.67566 -2.66865 0
M  V30 4669 H 452.749 5.01219 -5.88217 0
M  V30 4670 H 451.094 4.51288 -5.28549 0
M  V30 4671 H 454.285 3.25427 -3.36474 0
M  V30 4672 H 454.458 4.31992 -4.82998 0
M  V30 4673 N 447.864 1.01787 1.20321 0
M  V30 4674 C 449.275 0.739307 1.71438 0
M  V30 4675 C 449.626 -0.742041 1.81627 0
M  V30 4676 O 448.751 -1.57903 1.47971 0
M  V30 4677 C 449.346 1.33538 3.11373 0
M  V30 4678 C 447.905 1.10566 3.59795 0
M  V30 4679 C 447.052 1.44028 2.36962 0
M  V30 4680 H 450.003 1.18718 1.05317 0
M  V30 4681 H 450.024 0.726611 3.73498 0
M  V30 4682 H 449.536 2.41352 3.03926 0
M  V30 4683 H 447.637 0.0452405 3.72573 0
M  V30 4684 H 447.75 1.78661 4.44542 0
M  V30 4685 H 446.114 0.85933 2.39766 0
M  V30 4686 H 446.897 2.52901 2.32155 0
M  V30 4687 N 449.342 -1.36122 0.79427 0
M  V30 4688 C 450.753 -1.81646 0.431446 0
M  V30 4689 C 451.104 -1.66043 -1.04518 0
M  V30 4690 O 450.229 -1.1841 -1.8113 0
M  V30 4691 C 450.824 -3.29785 0.776341 0
M  V30 4692 C 449.383 -3.73501 0.466282 0
M  V30 4693 C 448.53 -2.58313 1.00844 0
M  V30 4694 H 451.481 -1.24274 0.986995 0
M  V30 4695 H 451.502 -3.80437 0.0692413 0
M  V30 4696 H 451.014 -3.4111 1.8511 0
M  V30 4697 H 449.115 -3.67733 -0.600245 0
M  V30 4698 H 449.228 -4.68754 0.990288 0
M  V30 4699 H 447.592 -2.5102 0.431406 0
M  V30 4700 H 448.375 -2.72421 2.08906 0
M  V30 4701 N 450.82 -0.546701 -1.47814 0
M  V30 4702 C 452.068 -0.0187037 -2.02091 0
M  V30 4703 C 452.389 1.33168 -1.42447 0
M  V30 4704 O 451.659 1.86619 -0.595839 0
M  V30 4705 H 450.239 -0.00392531 -0.74699 0
M  V30 4706 H 452.901 -0.714327 -1.81338 0
M  V30 4707 H 451.997 0.0772219 -3.12004 0
M  V30 4708 N 452.299 1.55045 -0.282633 0
M  V30 4709 C 453.209 2.26491 0.61147 0
M  V30 4710 C 454.225 1.29348 1.16384 0
M  V30 4711 O 455.401 1.62298 1.19253 0
M  V30 4712 C 452.466 2.97779 1.77563 0
M  V30 4713 C 451.527 4.10418 1.25919 0
M  V30 4714 C 450.76 4.78297 2.36786 0
M  V30 4715 O 450.983 4.45426 3.56303 0
M  V30 4716 O 449.917 5.66089 2.04517 0
M  V30 4717 H 453.743 3.03683 0.0324615 0
M  V30 4718 H 451.328 1.49317 -0.0497576 0
M  V30 4719 H 453.21 3.42554 2.45427 0
M  V30 4720 H 451.885 2.23498 2.34159 0
M  V30 4721 H 450.792 3.70082 0.546797 0
M  V30 4722 H 452.125 4.86622 0.738887 0
M  V30 4723 N 453.777 0.010035 1.57597 0
M  V30 4724 C 455.024 -0.6727 1.91 0
M  V30 4725 C 455.352 -1.73219 0.884614 0
M  V30 4726 O 454.607 -1.95395 -0.109215 0
M  V30 4727 C 454.906 -1.34434 3.31153 0
M  V30 4728 C 454.572 -0.417083 4.48967 0
M  V30 4729 C 453.234 -0.161809 4.80928 0
M  V30 4730 C 455.586 0.220753 5.20732 0
M  V30 4731 C 452.914 0.739426 5.82022 0
M  V30 4732 C 455.266 1.10993 6.22787 0
M  V30 4733 C 453.93 1.37428 6.532 0
M  V30 4734 H 453.2 -0.246158 0.698918 0
M  V30 4735 H 455.847 0.0677145 1.9138 0
M  V30 4736 H 454.152 -2.15905 3.26944 0
M  V30 4737 H 455.849 -1.87883 3.54261 0
M  V30 4738 H 452.439 -0.626217 4.24001 0
M  V30 4739 H 456.623 0.0365643 4.96287 0
M  V30 4740 H 451.879 0.952139 6.03941 0
M  V30 4741 H 456.053 1.61046 6.77523 0
M  V30 4742 H 453.68 2.0743 7.31353 0
M  V30 4743 N 455.255 -1.55392 -0.262866 0
M  V30 4744 C 456.503 -1.76127 -0.991147 0
M  V30 4745 C 456.824 -0.571083 -1.8645 0
M  V30 4746 O 456.094 0.413698 -1.91482 0
M  V30 4747 H 454.674 -0.649528 -0.368948 0
M  V30 4748 H 457.336 -1.9281 -0.284655 0
M  V30 4749 H 456.432 -2.6663 -1.62219 0
M  V30 4750 N 456.733 0.527833 -1.48498 0
M  V30 4751 C 457.979 1.28545 -1.56857 0
M  V30 4752 C 458.312 1.92678 -0.242651 0
M  V30 4753 O 457.587 1.79394 0.751545 0
M  V30 4754 C 457.87 2.37314 -2.70839 0
M  V30 4755 C 457.723 1.77858 -4.13142 0
M  V30 4756 C 459.042 3.39068 -2.80573 0
M  V30 4757 H 456.161 0.466006 -0.570971 0
M  V30 4758 H 458.803 0.587784 -1.8068 0
M  V30 4759 H 456.953 2.96821 -2.50658 0
M  V30 4760 H 458.625 1.22385 -4.44769 0
M  V30 4761 H 456.868 1.08383 -4.20042 0
M  V30 4762 H 457.539 2.56624 -4.88721 0
M  V30 4763 H 460.015 2.89518 -2.98862 0
M  V30 4764 H 458.891 4.12566 -3.6205 0
M  V30 4765 H 459.152 3.9975 -1.88818 0
M  V30 4766 N 458.211 1.37122 0.776871 0
M  V30 4767 C 459.488 1.22586 1.52421 0
M  V30 4768 C 459.868 -0.182726 2.10308 0
M  V30 4769 O 459.216 -1.18979 1.9508 0
M  V30 4770 C 459.426 2.31782 2.60918 0
M  V30 4771 C 460.774 2.69071 3.2846 0
M  V30 4772 O 461.798 2.3092 2.71209 0
M  V30 4773 O 460.657 3.3478 4.31954 0
M  V30 4774 H 457.751 0.478045 0.674835 0
M  V30 4775 H 460.297 1.48888 0.814275 0
M  V30 4776 H 459.069 3.26131 2.16227 0
M  V30 4777 H 458.692 2.06916 3.39517 0
M  V30 4778 N 459.689 -1.00246 1.21608 0
M  V30 4779 C 460.938 -1.73476 1.02902 0
M  V30 4780 C 461.251 -1.90643 -0.437561 0
M  V30 4781 O 462.457 -2.61105 -0.74407 0
M  V30 4782 C 460.913 -3.12079 1.79261 0
M  V30 4783 C 460.521 -3.02877 3.30106 0
M  V30 4784 C 462.265 -3.89421 1.68972 0
M  V30 4785 C 460.172 -4.36575 3.98944 0
M  V30 4786 H 459.102 -0.650408 0.381425 0
M  V30 4787 H 461.753 -1.11985 1.45367 0
M  V30 4788 H 460.135 -3.74196 1.2959 0
M  V30 4789 H 461.309 -2.49983 3.87098 0
M  V30 4790 H 459.624 -2.39022 3.40965 0
M  V30 4791 H 462.221 -4.88362 2.17731 0
M  V30 4792 H 462.564 -4.1122 0.648397 0
M  V30 4793 H 463.097 -3.33963 2.16133 0
M  V30 4794 H 459.836 -4.19978 5.03288 0
M  V30 4795 H 459.356 -4.8942 3.4674 0
M  V30 4796 H 461.035 -5.05364 4.04 0
M  V30 4797 N 461.167 -1.02423 -1.1978 0
M  V30 4798 C 462.13 -0.605703 -2.21052 0
M  V30 4799 C 463.13 0.328209 -1.57415 0
M  V30 4800 O 464.32 0.115853 -1.73814 0
M  V30 4801 C 461.452 0.114366 -3.40708 0
M  V30 4802 H 462.645 -1.5017 -2.59594 0
M  V30 4803 H 460.198 -0.814888 -1.33376 0
M  V30 4804 H 460.933 1.02492 -3.07678 0
M  V30 4805 H 460.718 -0.556641 -3.88129 0
M  V30 4806 H 462.208 0.394272 -4.15735 0
M  V30 4807 N 462.645 1.35699 -0.801477 0
M  V30 4808 C 463.575 2.32436 -0.222658 0
M  V30 4809 C 464.556 1.5723 0.649057 0
M  V30 4810 O 465.741 1.85324 0.580387 0
M  V30 4811 C 462.871 3.41469 0.633719 0
M  V30 4812 C 461.825 4.27774 -0.139083 0
M  V30 4813 C 461.151 5.28082 0.838666 0
M  V30 4814 C 462.451 5.04946 -1.33517 0
M  V30 4815 H 464.145 2.81094 -1.03086 0
M  V30 4816 H 461.691 1.35146 -0.497155 0
M  V30 4817 H 463.644 4.08143 1.04868 0
M  V30 4818 H 462.368 2.91408 1.47475 0
M  V30 4819 H 461.027 3.62673 -0.535156 0
M  V30 4820 H 460.675 4.7429 1.67506 0
M  V30 4821 H 460.375 5.86695 0.32594 0
M  V30 4822 H 461.899 5.97628 1.25194 0
M  V30 4823 H 463.313 5.64593 -0.995349 0
M  V30 4824 H 461.71 5.7303 -1.78202 0
M  V30 4825 H 462.78 4.35886 -2.12442 0
M  V30 4826 N 464.123 0.554532 1.47522 0
M  V30 4827 C 465.371 0.0294208 2.02079 0
M  V30 4828 C 465.692 -1.32411 1.43151 0
M  V30 4829 O 464.962 -1.863 0.605728 0
M  V30 4830 H 463.542 0.00788672 0.746958 0
M  V30 4831 H 466.204 0.723934 1.80956 0
M  V30 4832 H 465.3 -0.0606745 3.12041 0
M  V30 4833 N 465.601 -1.54893 0.290851 0
M  V30 4834 C 466.826 -2.04804 -0.32712 0
M  V30 4835 C 467.251 -1.16721 -1.47506 0
M  V30 4836 O 466.609 -0.169107 -1.8051 0
M  V30 4837 C 466.657 -3.52268 -0.770689 0
M  V30 4838 O 465.761 -3.67236 -1.87647 0
M  V30 4839 H 465.102 -0.660789 -0.0652227 0
M  V30 4840 H 467.632 -2.00036 0.429739 0
M  V30 4841 H 467.642 -3.9393 -1.06223 0
M  V30 4842 H 466.317 -4.15843 0.069096 0
M  V30 4843 H 464.894 -3.37479 -1.58626 0
M  V30 4844 N 467.08 -0.0183926 -1.57589 0
M  V30 4845 C 468.305 0.676634 -1.96052 0
M  V30 4846 C 468.73 1.6548 -0.894307 0
M  V30 4847 O 468.088 1.80712 0.145849 0
M  V30 4848 C 468.136 1.36872 -3.33614 0
M  V30 4849 O 467.24 2.48372 -3.29219 0
M  V30 4850 H 466.581 0.1786 -0.63953 0
M  V30 4851 H 469.111 -0.077056 -2.04455 0
M  V30 4852 H 469.121 1.72797 -3.69601 0
M  V30 4853 H 467.796 0.651636 -4.10763 0
M  V30 4854 H 466.373 2.14639 -3.04934 0
M  V30 4855 N 468.558 1.5553 0.254621 0
M  V30 4856 C 469.49 1.86104 1.33783 0
M  V30 4857 C 470.503 0.746752 1.44663 0
M  V30 4858 O 471.692 1.0248 1.46151 0
M  V30 4859 C 468.792 2.02532 2.71724 0
M  V30 4860 C 467.965 3.33335 2.83208 0
M  V30 4861 C 467.024 3.396 4.01943 0
M  V30 4862 O 466.05 4.12862 3.91834 0
M  V30 4863 N 467.252 2.68332 5.1476 0
M  V30 4864 H 470.017 2.79605 1.07893 0
M  V30 4865 H 467.578 1.55672 0.444732 0
M  V30 4866 H 469.57 2.04074 3.4948 0
M  V30 4867 H 468.14 1.15811 2.90356 0
M  V30 4868 H 467.36 3.44176 1.92189 0
M  V30 4869 H 468.648 4.19565 2.87824 0
M  V30 4870 H 468.046 2.08528 5.25864 0
M  V30 4871 H 466.603 2.75575 5.90679 0
M  V30 4872 N 470.036 -0.519951 1.48776 0
M  V30 4873 C 471.452 -0.849418 1.35119 0
M  V30 4874 C 471.652 -1.98077 0.36982 0
M  V30 4875 O 470.708 -2.51664 -0.205359 0
M  V30 4876 C 472.021 -1.20748 2.75391 0
M  V30 4877 C 473.569 -1.31679 2.83954 0
M  V30 4878 C 474.044 -1.70824 4.24951 0
M  V30 4879 N 475.535 -1.77908 4.27672 0
M  V30 4880 C 476.27 -2.09603 5.33717 0
M  V30 4881 N 475.766 -2.39652 6.5003 0
M  V30 4882 N 477.559 -2.10694 5.21119 0
M  V30 4883 H 469.71 0.226377 2.1119 0
M  V30 4884 H 471.973 0.0386519 0.947212 0
M  V30 4885 H 471.679 -0.449703 3.48813 0
M  V30 4886 H 471.553 -2.15534 3.09556 0
M  V30 4887 H 473.94 -2.06532 2.10781 0
M  V30 4888 H 474.021 -0.3499 2.53396 0
M  V30 4889 H 473.665 -0.965282 4.98643 0
M  V30 4890 H 473.595 -2.6858 4.52959 0
M  V30 4891 H 476.086 -1.56923 3.43779 0
M  V30 4892 H 476.399 -2.6297 7.26682 0
M  V30 4893 H 474.744 -2.37149 6.53288 0
M  V30 4894 H 477.935 -1.86682 4.29264 0
M  V30 4895 H 478.108 -2.35062 6.03863 0
M  V30 4896 N 471.514 -1.37532 -0.769588 0
M  V30 4897 C 472.761 -1.3286 -1.52822 0
M  V30 4898 C 473.089 0.0862597 -1.94309 0
M  V30 4899 O 472.344 1.05995 -1.6451 0
M  V30 4900 C 472.643 -2.21558 -2.8044 0
M  V30 4901 C 472.309 -3.69796 -2.57996 0
M  V30 4902 C 470.971 -4.10194 -2.51583 0
M  V30 4903 C 473.323 -4.63699 -2.37976 0
M  V30 4904 C 470.651 -5.42608 -2.23144 0
M  V30 4905 C 473.003 -5.96353 -2.1106 0
M  V30 4906 C 471.667 -6.35853 -2.03093 0
M  V30 4907 H 470.937 -0.486168 -0.559215 0
M  V30 4908 H 473.584 -1.69757 -0.886277 0
M  V30 4909 H 471.889 -1.77663 -3.49204 0
M  V30 4910 H 473.586 -2.15256 -3.38328 0
M  V30 4911 H 470.176 -3.37759 -2.63851 0
M  V30 4912 H 474.36 -4.33346 -2.41919 0
M  V30 4913 H 469.616 -5.72173 -2.15472 0
M  V30 4914 H 473.79 -6.68667 -1.94568 0
M  V30 4915 H 471.417 -7.38382 -1.8082 0
M  V30 4916 N 472.992 0.995999 -1.22138 0
M  V30 4917 C 474.24 1.73167 -1.042 0
M  V30 4918 C 474.561 1.90329 0.42423 0
M  V30 4919 O 473.831 1.4607 1.30539 0
M  V30 4920 H 472.411 0.641593 -0.38258 0
M  V30 4921 H 475.073 1.19974 -1.53598 0
M  V30 4922 H 474.169 2.72734 -1.51731 0
M  V30 4923 N 474.47 1.03057 1.19235 0
M  V30 4924 C 475.716 0.729098 1.89241 0
M  V30 4925 C 476.049 -0.740573 1.79525 0
M  V30 4926 O 475.324 -1.53946 1.18874 0
M  V30 4927 C 475.607 1.18304 3.40112 0
M  V30 4928 C 475.46 2.71406 3.5869 0
M  V30 4929 C 476.779 0.765161 4.33397 0
M  V30 4930 H 473.898 0.266338 0.687192 0
M  V30 4931 H 476.54 1.28079 1.40341 0
M  V30 4932 H 474.69 0.713672 3.81889 0
M  V30 4933 H 476.362 3.26303 3.26074 0
M  V30 4934 H 474.605 3.11717 3.01687 0
M  V30 4935 H 475.276 2.98225 4.64506 0
M  V30 4936 H 477.752 1.16889 3.99345 0
M  V30 4937 H 476.628 1.11065 5.37546 0
M  V30 4938 H 476.889 -0.332372 4.40849 0
M  V30 4939 N 475.948 -1.35272 0.808662 0
M  V30 4940 C 477.359 -1.81179 0.450688 0
M  V30 4941 C 477.71 -1.67143 -1.02751 0
M  V30 4942 O 476.835 -1.20325 -1.79864 0
M  V30 4943 C 477.43 -3.28943 0.811275 0
M  V30 4944 C 475.989 -3.72985 0.505871 0
M  V30 4945 C 475.136 -2.57229 1.03578 0
M  V30 4946 H 478.087 -1.2322 1.00012 0
M  V30 4947 H 478.108 -3.80342 0.109588 0
M  V30 4948 H 477.62 -3.39127 1.88718 0
M  V30 4949 H 475.721 -3.68349 -0.561209 0
M  V30 4950 H 475.834 -4.67677 1.03995 0
M  V30 4951 H 474.198 -2.50548 0.458005 0
M  V30 4952 H 474.981 -2.7019 2.11784 0
M  V30 4953 N 477.426 -0.562348 -1.47226 0
M  V30 4954 C 478.356 0.170627 -2.32876 0
M  V30 4955 C 479.337 0.903748 -1.44106 0
M  V30 4956 O 480.522 0.883206 -1.72954 0
M  V30 4957 C 477.652 1.19786 -3.25989 0
M  V30 4958 C 476.606 0.580875 -4.2404 0
M  V30 4959 C 475.932 1.71311 -5.06514 0
M  V30 4960 C 477.232 -0.468714 -5.20193 0
M  V30 4961 H 478.926 -0.544441 -2.94408 0
M  V30 4962 H 476.472 -0.263271 -1.41573 0
M  V30 4963 H 478.425 1.71884 -3.84752 0
M  V30 4964 H 477.149 1.94294 -2.62521 0
M  V30 4965 H 475.808 0.0811538 -3.6651 0
M  V30 4966 H 475.456 2.44736 -4.39447 0
M  V30 4967 H 475.156 1.30604 -5.72902 0
M  V30 4968 H 476.68 2.23725 -5.68137 0
M  V30 4969 H 478.094 -0.0336028 -5.7329 0
M  V30 4970 H 476.491 -0.794957 -5.94811 0
M  V30 4971 H 477.561 -1.36269 -4.65359 0
M  V30 4972 N 478.904 1.54736 -0.299062 0
M  V30 4973 C 480.152 1.99706 0.31017 0
M  V30 4974 C 480.473 1.18896 1.54559 0
M  V30 4975 O 479.743 0.284445 1.93824 0
M  V30 4976 H 478.323 0.737686 0.117596 0
M  V30 4977 H 480.985 1.9054 -0.409943 0
M  V30 4978 H 480.081 3.06596 0.58355 0
M  V30 4979 N 480.382 0.0267497 1.57577 0
M  V30 4980 C 481.612 -0.6617 1.95717 0
M  V30 4981 C 482.02 -1.66331 0.901706 0
M  V30 4982 O 481.363 -1.83273 -0.125241 0
M  V30 4983 C 481.425 -1.42649 3.29987 0
M  V30 4984 C 481.089 -0.583482 4.5326 0
M  V30 4985 C 482.086 0.140221 5.19711 0
M  V30 4986 C 479.771 -0.521581 4.99585 0
M  V30 4987 C 481.765 0.914523 6.30805 0
M  V30 4988 C 479.452 0.256428 6.10562 0
M  V30 4989 C 480.45 0.973189 6.76031 0
M  V30 4990 O 480.138 1.73845 7.84878 0
M  V30 4991 H 479.87 -0.187483 0.649481 0
M  V30 4992 H 482.424 0.0820847 2.05236 0
M  V30 4993 H 480.654 -2.21536 3.16952 0
M  V30 4994 H 482.343 -2.00282 3.53047 0
M  V30 4995 H 483.109 0.101716 4.84893 0
M  V30 4996 H 478.988 -1.06904 4.48433 0
M  V30 4997 H 482.532 1.4745 6.81839 0
M  V30 4998 H 478.429 0.296657 6.44818 0
M  V30 4999 H 479.197 1.65797 8.01532 0
M  V30 5000 N 481.861 -1.55662 -0.24637 0
M  V30 5001 C 483.109 -1.77168 -0.972411 0
M  V30 5002 C 483.43 -0.590827 -1.85834 0
M  V30 5003 O 482.7 0.393365 -1.9191 0
M  V30 5004 H 481.28 -0.653405 -0.362038 0
M  V30 5005 H 483.942 -1.93101 -0.264189 0
M  V30 5006 H 483.038 -2.68335 -1.59382 0
M  V30 5007 N 483.339 0.512053 -1.4905 0
M  V30 5008 C 484.587 1.26436 -1.57665 0
M  V30 5009 C 484.908 1.93255 -0.260293 0
M  V30 5010 O 484.178 1.82206 0.719564 0
M  V30 5011 H 482.758 0.469658 -0.580888 0
M  V30 5012 H 485.42 0.594398 -1.85615 0
M  V30 5013 H 484.516 2.03417 -2.36702 0
M  V30 5014 N 484.817 1.37938 0.762283 0
M  V30 5015 C 486.228 1.30094 1.33912 0
M  V30 5016 C 486.579 -0.0472026 1.96143 0
M  V30 5017 O 485.704 -0.94917 1.94473 0
M  V30 5018 C 486.299 2.35592 2.43478 0
M  V30 5019 C 484.858 2.31353 2.96905 0
M  V30 5020 C 484.005 2.18919 1.70205 0
M  V30 5021 H 486.956 1.48423 0.561816 0
M  V30 5022 H 486.977 2.00806 3.23199 0
M  V30 5023 H 486.489 3.33701 1.98155 0
M  V30 5024 H 484.59 1.36799 3.46579 0
M  V30 5025 H 484.703 3.25147 3.51875 0
M  V30 5026 H 483.067 1.65624 1.93496 0
M  V30 5027 H 483.85 3.18956 1.26973 0
M  V30 5028 N 486.295 -0.989507 1.22664 0
M  V30 5029 C 487.245 -2.06478 0.967005 0
M  V30 5030 C 488.229 -1.60682 -0.0836374 0
M  V30 5031 O 489.421 -1.76541 0.127322 0
M  V30 5032 C 486.55 -3.38861 0.550313 0
M  V30 5033 C 485.636 -3.9128 1.63587 0
M  V30 5034 N 486.027 -4.16884 2.86429 0
M  V30 5035 C 484.325 -4.1972 1.50834 0
M  V30 5036 C 485.026 -4.5954 3.56648 0
M  V30 5037 N 484.002 -4.63434 2.84131 0
M  V30 5038 H 487.804 -2.24219 1.90008 0
M  V30 5039 H 485.318 -1.17153 1.12467 0
M  V30 5040 H 487.315 -4.15465 0.345612 0
M  V30 5041 H 485.975 -3.22518 -0.375822 0
M  V30 5042 H 486.986 -4.04976 3.22823 0
M  V30 5043 H 483.663 -4.1243 0.648643 0
M  V30 5044 H 485.053 -4.87944 4.61909 0
M  V30 5045 N 487.773 -1.03688 -1.18687 0
M  V30 5046 C 488.736 -0.629115 -2.20397 0
M  V30 5047 C 489.736 0.311495 -1.57754 0
M  V30 5048 O 490.926 0.0974107 -1.73927 0
M  V30 5049 C 488.058 0.0782231 -3.4081 0
M  V30 5050 H 489.251 -1.52915 -2.57987 0
M  V30 5051 H 486.804 -0.828988 -1.32505 0
M  V30 5052 H 487.539 0.992233 -3.08748 0
M  V30 5053 H 487.324 -0.597776 -3.87517 0
M  V30 5054 H 488.814 0.350156 -4.16129 0
M  V30 5055 N 489.251 1.34841 -0.815825 0
M  V30 5056 C 490.214 2.27959 -0.238185 0
M  V30 5057 C 491.214 1.49983 0.579816 0
M  V30 5058 O 492.404 1.69617 0.396953 0
M  V30 5059 C 489.536 3.34314 0.666876 0
M  V30 5060 H 490.729 2.80558 -1.05958 0
M  V30 5061 H 488.282 1.44852 -0.587156 0
M  V30 5062 H 489.017 2.86916 1.5116 0
M  V30 5063 H 488.802 3.92014 0.0819106 0
M  V30 5064 H 490.292 4.0379 1.06506 0
M  V30 5065 N 490.729 0.570148 1.46925 0
M  V30 5066 C 491.976 0.0509529 2.02436 0
M  V30 5067 C 492.304 -1.30405 1.44308 0
M  V30 5068 O 491.559 -1.86493 0.593198 0
M  V30 5069 C 491.858 -0.0780336 3.57315 0
M  V30 5070 C 491.524 1.20775 4.34424 0
M  V30 5071 C 490.186 1.56004 4.5521 0
M  V30 5072 C 492.538 2.0592 4.78797 0
M  V30 5073 C 489.866 2.76201 5.17619 0
M  V30 5074 C 492.218 3.25332 5.42533 0
M  V30 5075 C 490.882 3.60859 5.61549 0
M  V30 5076 H 490.152 0.018645 0.740765 0
M  V30 5077 H 492.799 0.744262 1.76445 0
M  V30 5078 H 491.104 -0.854394 3.82371 0
M  V30 5079 H 492.801 -0.495312 3.97929 0
M  V30 5080 H 489.391 0.923469 4.18533 0
M  V30 5081 H 493.575 1.80008 4.62505 0
M  V30 5082 H 488.831 3.0388 5.30535 0
M  V30 5083 H 493.005 3.91586 5.75876 0
M  V30 5084 H 490.632 4.54088 6.09678 0
M  V30 5085 N 492.207 -1.54576 0.307264 0
M  V30 5086 C 493.454 -2.00263 -0.300167 0
M  V30 5087 C 493.782 -1.19561 -1.53413 0
M  V30 5088 O 493.037 -0.261487 -1.93945 0
M  V30 5089 C 493.336 -3.50572 -0.695253 0
M  V30 5090 C 493.002 -4.48771 0.437679 0
M  V30 5091 C 491.664 -4.7534 0.748681 0
M  V30 5092 C 494.016 -5.0721 1.19949 0
M  V30 5093 C 491.344 -5.5761 1.8245 0
M  V30 5094 C 493.696 -5.90651 2.26527 0
M  V30 5095 C 492.36 -6.15528 2.58227 0
M  V30 5096 H 491.63 -0.732814 -0.109839 0
M  V30 5097 H 494.277 -1.86664 0.427661 0
M  V30 5098 H 492.582 -3.61814 -1.50326 0
M  V30 5099 H 494.279 -3.83352 -1.17653 0
M  V30 5100 H 490.869 -4.282 0.185187 0
M  V30 5101 H 495.053 -4.86679 0.972474 0
M  V30 5102 H 490.309 -5.75121 2.07476 0
M  V30 5103 H 494.483 -6.34957 2.86011 0
M  V30 5104 H 492.11 -6.79066 3.4172 0
M  V30 5105 N 493.685 -0.035106 -1.57561 0
M  V30 5106 C 494.648 0.929819 -2.09492 0
M  V30 5107 C 495.648 1.25026 -1.01119 0
M  V30 5108 O 496.838 1.18961 -1.27255 0
M  V30 5109 C 493.97 2.24457 -2.56577 0
M  V30 5110 H 495.163 0.479935 -2.96035 0
M  V30 5111 H 492.716 0.213033 -1.54841 0
M  V30 5112 H 493.451 2.74061 -1.73382 0
M  V30 5113 H 493.236 2.02508 -3.35757 0
M  V30 5114 H 494.726 2.93607 -2.96959 0
M  V30 5115 N 495.163 1.55791 0.238111 0
M  V30 5116 C 496.409 1.78297 0.966337 0
M  V30 5117 C 496.742 0.601903 1.84637 0
M  V30 5118 O 496.017 -0.399499 1.90353 0
M  V30 5119 C 496.3 3.10758 1.81939 0
M  V30 5120 C 496.153 4.39283 0.966958 0
M  V30 5121 C 497.472 3.39519 2.80027 0
M  V30 5122 H 494.591 0.648654 0.349882 0
M  V30 5123 H 497.233 1.88525 0.236253 0
M  V30 5124 H 495.383 3.02168 2.44185 0
M  V30 5125 H 497.055 4.59873 0.362514 0
M  V30 5126 H 495.298 4.32948 0.271669 0
M  V30 5127 H 495.969 5.28368 1.59784 0
M  V30 5128 H 498.445 3.48128 2.27917 0
M  V30 5129 H 497.321 4.33402 3.36829 0
M  V30 5130 H 497.582 2.60864 3.56934 0
M  V30 5131 N 496.642 -0.504142 1.49319 0
M  V30 5132 C 498.058 -0.835039 1.36012 0
M  V30 5133 C 498.258 -1.97674 0.390808 0
M  V30 5134 O 497.314 -2.51867 -0.178655 0
M  V30 5135 C 498.627 -1.17821 2.76656 0
M  V30 5136 C 500.175 -1.2866 2.85334 0
M  V30 5137 C 500.65 -1.66307 4.26739 0
M  V30 5138 N 502.141 -1.73362 4.29534 0
M  V30 5139 C 502.876 -2.0393 5.35911 0
M  V30 5140 N 502.372 -2.32744 6.52535 0
M  V30 5141 N 504.165 -2.05155 5.23324 0
M  V30 5142 H 496.316 0.248764 2.10938 0
M  V30 5143 H 498.579 0.0486962 0.946748 0
M  V30 5144 H 498.285 -0.412682 3.4927 0
M  V30 5145 H 498.159 -2.12239 3.11825 0
M  V30 5146 H 500.546 -2.04285 2.1296 0
M  V30 5147 H 500.627 -0.323004 2.53752 0
M  V30 5148 H 500.271 -0.91234 4.99639 0
M  V30 5149 H 500.201 -2.63761 4.55782 0
M  V30 5150 H 502.692 -1.53268 3.45424 0
M  V30 5151 H 503.005 -2.55248 7.2943 0
M  V30 5152 H 501.35 -2.30207 6.55767 0
M  V30 5153 H 504.541 -1.82119 4.3122 0
M  V30 5154 H 504.714 -2.28644 6.06322 0
M  V30 5155 N 498.12 -1.38341 -0.754957 0
M  V30 5156 C 499.03 -1.3769 -1.89944 0
M  V30 5157 C 500.046 -0.274194 -1.71826 0
M  V30 5158 O 501.222 -0.512391 -1.94773 0
M  V30 5159 C 498.287 -1.19938 -3.25293 0
M  V30 5160 C 497.348 -2.40001 -3.55946 0
M  V30 5161 C 496.581 -2.23087 -4.84838 0
M  V30 5162 O 496.804 -1.22386 -5.57116 0
M  V30 5163 O 495.738 -3.11646 -5.14937 0
M  V30 5164 H 499.564 -2.3412 -1.93446 0
M  V30 5165 H 497.149 -1.19246 -0.900044 0
M  V30 5166 H 499.031 -1.12093 -4.06218 0
M  V30 5167 H 497.706 -0.265919 -3.22606 0
M  V30 5168 H 496.613 -2.53421 -2.75188 0
M  V30 5169 H 497.946 -3.31973 -3.63394 0
M  V30 5170 N 499.598 0.982988 -1.23187 0
M  V30 5171 C 500.823 1.76455 -1.08988 0
M  V30 5172 C 501.248 1.84726 0.354691 0
M  V30 5173 O 500.606 1.30699 1.25649 0
M  V30 5174 C 500.654 3.17094 -1.71708 0
M  V30 5175 O 499.758 4.00648 -0.977477 0
M  V30 5176 H 499.099 0.542988 -0.382177 0
M  V30 5177 H 501.629 1.23413 -1.63188 0
M  V30 5178 H 501.639 3.67684 -1.76841 0
M  V30 5179 H 500.314 3.10389 -2.76823 0
M  V30 5180 H 498.891 3.59161 -1.0029 0
M  V30 5181 N 501.076 1.04316 1.18135 0
M  V30 5182 C 502.006 0.657299 2.24058 0
M  V30 5183 C 502.987 -0.340678 1.66654 0
M  V30 5184 O 504.172 -0.220223 1.92947 0
M  V30 5185 C 501.302 0.0220715 3.47293 0
M  V30 5186 C 500.256 0.943857 4.17463 0
M  V30 5187 C 499.582 0.172973 5.3442 0
M  V30 5188 C 500.882 2.26409 4.70677 0
M  V30 5189 H 502.576 1.5428 2.56589 0
M  V30 5190 H 500.122 0.743263 1.23335 0
M  V30 5191 H 502.075 -0.259607 4.206 0
M  V30 5192 H 500.799 -0.898323 3.14003 0
M  V30 5193 H 499.458 1.20996 3.46057 0
M  V30 5194 H 499.106 -0.749907 4.97379 0
M  V30 5195 H 498.806 0.787098 5.82304 0
M  V30 5196 H 500.33 -0.101628 6.10515 0
M  V30 5197 H 501.744 2.04294 5.35665 0
M  V30 5198 H 500.141 2.8314 5.29105 0
M  V30 5199 H 501.211 2.90883 3.87962 0
M  V30 5200 N 502.554 -1.34406 0.822964 0
M  V30 5201 C 503.8 -1.98578 0.411666 0
M  V30 5202 C 504.133 -1.65093 -1.02264 0
M  V30 5203 O 503.408 -0.92258 -1.71227 0
M  V30 5204 C 503.691 -3.54823 0.614235 0
M  V30 5205 C 503.544 -3.9805 2.09466 0
M  V30 5206 C 504.863 -4.40071 0.050221 0
M  V30 5207 H 501.982 -0.721355 0.151047 0
M  V30 5208 H 504.624 -1.59301 1.03554 0
M  V30 5209 H 502.774 -3.88411 0.0831774 0
M  V30 5210 H 504.446 -3.74795 2.68936 0
M  V30 5211 H 502.689 -3.4836 2.5851 0
M  V30 5212 H 503.36 -5.06819 2.18721 0
M  V30 5213 H 505.836 -4.13037 0.503953 0
M  V30 5214 H 504.712 -5.48452 0.221759 0
M  V30 5215 H 504.973 -4.29576 -1.04482 0
M  V30 5216 N 504.032 -0.577932 -1.46621 0
M  V30 5217 C 505.448 -0.239242 -1.57797 0
M  V30 5218 C 505.648 1.25843 -1.57371 0
M  V30 5219 O 504.704 2.03988 -1.48813 0
M  V30 5220 C 506.017 -0.884227 -2.87405 0
M  V30 5221 C 507.565 -0.857373 -3.01028 0
M  V30 5222 C 508.04 -1.48181 -4.33366 0
M  V30 5223 N 509.531 -1.44593 -4.40053 0
M  V30 5224 C 510.266 -1.89852 -5.41058 0
M  V30 5225 N 509.762 -2.43062 -6.48762 0
M  V30 5226 N 511.555 -1.80797 -5.3223 0
M  V30 5227 H 503.706 -1.55073 -1.45142 0
M  V30 5228 H 505.969 -0.647903 -0.692044 0
M  V30 5229 H 505.675 -1.93759 -2.93514 0
M  V30 5230 H 505.549 -0.389585 -3.75183 0
M  V30 5231 H 507.936 0.187357 -2.94505 0
M  V30 5232 H 508.017 -1.38999 -2.14739 0
M  V30 5233 H 507.661 -2.52572 -4.40647 0
M  V30 5234 H 507.591 -0.924464 -5.18422 0
M  V30 5235 H 510.082 -1.05694 -3.62819 0
M  V30 5236 H 510.395 -2.75466 -7.22038 0
M  V30 5237 H 508.74 -2.47085 -6.49595 0
M  V30 5238 H 511.931 -1.38989 -4.46989 0
M  V30 5239 H 512.104 -2.16385 -6.10804 0
M  V30 5240 N 505.51 1.54411 -0.315457 0
M  V30 5241 C 506.443 2.20265 0.596522 0
M  V30 5242 C 507.421 1.17693 1.12192 0
M  V30 5243 O 508.605 1.46397 1.18744 0
M  V30 5244 C 505.732 2.85794 1.81767 0
M  V30 5245 C 504.778 4.02017 1.42424 0
M  V30 5246 S 505.611 5.33452 0.467836 0
M  V30 5247 C 506.767 6.02471 1.69645 0
M  V30 5248 H 507 2.97277 0.0370896 0
M  V30 5249 H 504.533 1.54079 -0.0995562 0
M  V30 5250 H 506.491 3.24172 2.51839 0
M  V30 5251 H 505.152 2.08601 2.34828 0
M  V30 5252 H 504.345 4.46701 2.33396 0
M  V30 5253 H 503.947 3.65271 0.803311 0
M  V30 5254 H 506.239 6.24157 2.63504 0
M  V30 5255 H 507.182 6.96215 1.29192 0
M  V30 5256 H 507.59 5.32284 1.87974 0
M  V30 5257 N 506.988 0.0434614 1.5754 0
M  V30 5258 C 507.921 -0.968729 2.06618 0
M  V30 5259 C 508.899 -1.30868 0.965 0
M  V30 5260 O 510.083 -1.42288 1.23638 0
M  V30 5261 C 507.21 -2.28486 2.50023 0
M  V30 5262 C 506.256 -2.09851 3.71302 0
M  V30 5263 S 507.089 -1.38401 5.17306 0
M  V30 5264 C 508.245 -2.71354 5.64019 0
M  V30 5265 H 508.478 -0.551021 2.92149 0
M  V30 5266 H 506.011 -0.168607 1.53477 0
M  V30 5267 H 507.969 -3.04142 2.75695 0
M  V30 5268 H 506.63 -2.67387 1.64812 0
M  V30 5269 H 505.823 -3.07184 3.99567 0
M  V30 5270 H 505.425 -1.42336 3.45856 0
M  V30 5271 H 507.717 -3.67549 5.69134 0
M  V30 5272 H 508.66 -2.47734 6.6335 0
M  V30 5273 H 509.068 -2.77259 4.91719 0
M  V30 5274 N 508.466 -1.55915 -0.229846 0
M  V30 5275 C 509.877 -1.68809 -0.797531 0
M  V30 5276 C 510.228 -0.643995 -1.8533 0
M  V30 5277 O 509.353 0.206492 -2.15413 0
M  V30 5278 C 509.948 -3.06043 -1.45338 0
M  V30 5279 C 508.507 -3.20819 -1.96856 0
M  V30 5280 C 507.654 -2.6472 -0.825736 0
M  V30 5281 H 510.605 -1.58699 -0.00533733 0
M  V30 5282 H 510.626 -3.01438 -2.32196 0
M  V30 5283 H 510.138 -3.82012 -0.684743 0
M  V30 5284 H 508.239 -2.49704 -2.76548 0
M  V30 5285 H 508.352 -4.27937 -2.15423 0
M  V30 5286 H 506.716 -2.22985 -1.23084 0
M  V30 5287 H 507.499 -3.43229 -0.0699019 0
M  V30 5288 N 509.944 0.496216 -1.49584 0
M  V30 5289 C 511.192 1.24756 -1.58998 0
M  V30 5290 C 511.513 1.92968 -0.280775 0
M  V30 5291 O 510.783 1.82959 0.700198 0
M  V30 5292 H 509.363 0.463471 -0.585836 0
M  V30 5293 H 512.025 0.574678 -1.86235 0
M  V30 5294 H 511.121 2.00895 -2.38847 0
M  V30 5295 N 511.423 1.38739 0.74761 0
M  V30 5296 C 512.839 1.20067 1.05148 0
M  V30 5297 C 513.039 0.0534835 2.01429 0
M  V30 5298 O 512.095 -0.59886 2.45296 0
M  V30 5299 C 513.408 2.52957 1.62584 0
M  V30 5300 C 514.956 2.59692 1.74726 0
M  V30 5301 C 515.431 3.92772 2.35573 0
M  V30 5302 N 516.922 3.94343 2.42997 0
M  V30 5303 C 517.657 4.9408 2.90985 0
M  V30 5304 N 517.153 6.04214 3.38965 0
M  V30 5305 N 518.946 4.81466 2.9008 0
M  V30 5306 H 511.097 2.12121 0.108808 0
M  V30 5307 H 513.36 0.941491 0.110899 0
M  V30 5308 H 513.066 3.37389 0.993051 0
M  V30 5309 H 512.94 2.71779 2.61565 0
M  V30 5310 H 515.327 1.75651 2.3713 0
M  V30 5311 H 515.408 2.44731 0.744326 0
M  V30 5312 H 515.052 4.77238 1.738 0
M  V30 5313 H 514.982 4.05046 3.36519 0
M  V30 5314 H 517.473 3.14799 2.0907 0
M  V30 5315 H 517.786 6.76241 3.74056 0
M  V30 5316 H 516.131 6.07825 3.37007 0
M  V30 5317 H 519.322 3.94535 2.51912 0
M  V30 5318 H 519.495 5.59344 3.27166 0
M  V30 5319 N 512.901 -0.976442 1.23707 0
M  V30 5320 C 513.834 -2.06793 0.964973 0
M  V30 5321 C 514.812 -1.62304 -0.0981472 0
M  V30 5322 O 515.996 -1.88464 0.0369477 0
M  V30 5323 C 513.123 -3.35636 0.454522 0
M  V30 5324 C 512.169 -3.99069 1.50485 0
M  V30 5325 S 513.002 -4.37814 3.0835 0
M  V30 5326 C 514.158 -5.69805 2.58985 0
M  V30 5327 H 514.391 -2.29556 1.88922 0
M  V30 5328 H 511.924 -1.11317 1.06995 0
M  V30 5329 H 513.882 -4.10162 0.166626 0
M  V30 5330 H 512.543 -3.10876 -0.448871 0
M  V30 5331 H 511.736 -4.91896 1.09792 0
M  V30 5332 H 511.338 -3.30938 1.7423 0
M  V30 5333 H 513.63 -6.46919 2.01252 0
M  V30 5334 H 514.573 -6.15345 3.50366 0
M  V30 5335 H 514.981 -5.27994 1.99705 0
M  V30 5336 N 514.379 -1.04941 -1.1758 0
M  V30 5337 C 515.625 -0.759112 -1.88057 0
M  V30 5338 C 515.958 0.711918 -1.8068 0
M  V30 5339 O 515.233 1.52035 -1.21308 0
M  V30 5340 C 515.516 -1.237 -3.38187 0
M  V30 5341 C 515.369 -2.77078 -3.54327 0
M  V30 5342 C 516.688 -0.834014 -4.32125 0
M  V30 5343 H 513.807 -0.277237 -0.682868 0
M  V30 5344 H 516.449 -1.30296 -1.38286 0
M  V30 5345 H 514.599 -0.774337 -3.80705 0
M  V30 5346 H 516.271 -3.31449 -3.20842 0
M  V30 5347 H 514.514 -3.16477 -2.96689 0
M  V30 5348 H 515.185 -3.05577 -4.59703 0
M  V30 5349 H 517.661 -1.23228 -3.97434 0
M  V30 5350 H 516.537 -1.19603 -5.35711 0
M  V30 5351 H 516.798 0.262195 -4.41322 0
M  V30 5352 N 515.857 1.33968 -0.830081 0
M  V30 5353 C 517.105 1.97672 -0.420734 0
M  V30 5354 C 517.426 1.66111 1.02138 0
M  V30 5355 O 516.696 0.955503 1.71017 0
M  V30 5356 H 515.276 0.73125 -0.152587 0
M  V30 5357 H 517.938 1.63483 -1.0611 0
M  V30 5358 H 517.034 3.07294 -0.545588 0
M  V30 5359 N 517.335 0.585699 1.46312 0
M  V30 5360 C 518.581 0.0725284 2.0267 0
M  V30 5361 C 518.914 -1.28523 1.45586 0
M  V30 5362 O 518.189 -1.84283 0.622101 0
M  V30 5363 C 518.472 0.0099788 3.60099 0
M  V30 5364 C 518.325 1.39685 4.27561 0
M  V30 5365 C 519.644 -0.689117 4.34671 0
M  V30 5366 H 516.763 0.0278307 0.736474 0
M  V30 5367 H 519.405 0.753472 1.74421 0
M  V30 5368 H 517.555 -0.56992 3.84297 0
M  V30 5369 H 519.227 2.02215 4.14617 0
M  V30 5370 H 517.47 1.96374 3.86807 0
M  V30 5371 H 518.141 1.30553 5.36339 0
M  V30 5372 H 520.617 -0.196446 4.15636 0
M  V30 5373 H 519.493 -0.701921 5.44393 0
M  V30 5374 H 519.754 -1.75101 4.05946 0
M  V30 5375 N 518.813 -1.54241 0.323641 0
M  V30 5376 C 520.041 -2.04985 -0.280871 0
M  V30 5377 C 520.456 -1.19978 -1.45777 0
M  V30 5378 O 519.813 -0.230471 -1.81039 0
M  V30 5379 C 519.864 -3.54353 -0.715258 0
M  V30 5380 O 519.585 -4.36132 0.414817 0
M  V30 5381 C 521.086 -4.21189 -1.38257 0
M  V30 5382 H 518.306 -0.66851 -0.0577502 0
M  V30 5383 H 520.85 -1.99029 0.469852 0
M  V30 5384 H 519.005 -3.60596 -1.41596 0
M  V30 5385 H 519.419 -5.2445 0.0725227 0
M  V30 5386 H 520.893 -5.27154 -1.63745 0
M  V30 5387 H 521.37 -3.72307 -2.32989 0
M  V30 5388 H 521.976 -4.19085 -0.724447 0
M  V30 5389 N 520.291 -0.0518155 -1.57515 0
M  V30 5390 C 521.707 0.304735 -1.56664 0
M  V30 5391 C 521.907 1.71395 -1.05953 0
M  V30 5392 O 520.963 2.42123 -0.716414 0
M  V30 5393 C 522.276 0.132614 -3.00407 0
M  V30 5394 C 523.824 0.20367 -3.12337 0
M  V30 5395 C 524.299 0.0600706 -4.57961 0
M  V30 5396 N 525.79 0.116326 -4.63054 0
M  V30 5397 C 526.525 0.0293363 -5.73392 0
M  V30 5398 N 526.021 -0.110038 -6.92713 0
M  V30 5399 N 527.814 0.0849651 -5.62036 0
M  V30 5400 H 519.965 -0.973056 -1.888 0
M  V30 5401 H 522.228 -0.377781 -0.869474 0
M  V30 5402 H 521.934 -0.839019 -3.41546 0
M  V30 5403 H 521.808 0.893376 -3.66468 0
M  V30 5404 H 524.195 1.16578 -2.71097 0
M  V30 5405 H 524.276 -0.587857 -2.48954 0
M  V30 5406 H 523.92 -0.898715 -4.99886 0
M  V30 5407 H 523.85 0.87075 -5.19351 0
M  V30 5408 H 526.341 0.22327 -3.7724 0
M  V30 5409 H 526.654 -0.169104 -7.72615 0
M  V30 5410 H 524.999 -0.145132 -6.94848 0
M  V30 5411 H 528.19 0.192411 -4.67704 0
M  V30 5412 H 528.363 0.0137131 -6.47999 0
M  V30 5413 N 521.769 1.56035 0.221574 0
M  V30 5414 C 523.046 1.69837 0.970301 0
M  V30 5415 C 523.426 0.599065 2.02421 0
M  V30 5416 O 522.774 -0.393929 2.25079 0
M  V30 5417 C 522.984 3.11148 1.58076 0
M  V30 5418 C 524.332 3.70555 2.07302 0
M  V30 5419 O 525.356 3.14109 1.6797 0
M  V30 5420 O 524.215 4.69562 2.79596 0
M  V30 5421 H 521.309 0.691727 0.453257 0
M  V30 5422 H 523.855 1.68353 0.213358 0
M  V30 5423 H 522.627 3.82617 0.819759 0
M  V30 5424 H 522.25 3.16749 2.40324 0
M  V30 5425 N 523.247 -0.488276 1.49845 0
M  V30 5426 C 524.21 -1.57069 1.66919 0
M  V30 5427 C 525.21 -1.51445 0.540479 0
M  V30 5428 O 526.4 -1.5437 0.807188 0
M  V30 5429 C 523.532 -2.96718 1.67844 0
M  V30 5430 H 524.725 -1.43254 2.63474 0
M  V30 5431 H 522.278 -0.713435 1.39068 0
M  V30 5432 H 523.013 -3.15996 0.7292 0
M  V30 5433 H 522.798 -3.02208 2.49826 0
M  V30 5434 H 524.288 -3.75335 1.83066 0
M  V30 5435 N 524.725 -1.39134 -0.740242 0
M  V30 5436 C 525.953 -1.39334 -1.5295 0
M  V30 5437 C 526.368 0.0135008 -1.88795 0
M  V30 5438 O 525.725 0.983524 -1.5373 0
M  V30 5439 C 525.776 -2.2614 -2.82034 0
M  V30 5440 O 525.497 -3.61345 -2.47712 0
M  V30 5441 C 526.998 -2.34666 -3.76094 0
M  V30 5442 H 524.218 -0.476103 -0.472828 0
M  V30 5443 H 526.762 -1.82883 -0.9151 0
M  V30 5444 H 524.917 -1.86018 -3.39818 0
M  V30 5445 H 525.331 -4.07194 -3.30595 0
M  V30 5446 H 526.805 -2.99663 -4.63579 0
M  V30 5447 H 527.282 -1.36426 -4.17474 0
M  V30 5448 H 527.888 -2.75236 -3.2423 0
M  V30 5449 N 526.204 0.969867 -1.24223 0
M  V30 5450 C 527.452 1.70918 -1.0785 0
M  V30 5451 C 527.773 1.91186 0.383763 0
M  V30 5452 O 527.043 1.48806 1.27411 0
M  V30 5453 H 525.623 0.633334 -0.396103 0
M  V30 5454 H 528.285 1.16689 -1.56108 0
M  V30 5455 H 527.381 2.69455 -1.57482 0
M  V30 5456 N 527.682 1.05563 1.17022 0
M  V30 5457 C 528.629 0.659893 2.21165 0
M  V30 5458 C 529.599 -0.339813 1.62587 0
M  V30 5459 O 530.784 -0.230378 1.89404 0
M  V30 5460 C 527.924 0.0447297 3.45071 0
M  V30 5461 C 527.037 1.09372 4.17926 0
M  V30 5462 C 526.172 0.445481 5.29329 0
M  V30 5463 C 525.211 1.47852 5.93975 0
M  V30 5464 N 524.348 0.854172 6.96885 0
M  V30 5465 H 529.188 1.55243 2.54369 0
M  V30 5466 H 526.725 0.776336 1.24946 0
M  V30 5467 H 528.683 -0.329404 4.15898 0
M  V30 5468 H 527.313 -0.811244 3.1244 0
M  V30 5469 H 526.365 1.58564 3.45777 0
M  V30 5470 H 527.677 1.87773 4.62107 0
M  V30 5471 H 526.831 0.0179688 6.06697 0
M  V30 5472 H 525.57 -0.370481 4.86291 0
M  V30 5473 H 524.575 1.91601 5.15334 0
M  V30 5474 H 525.8 2.29645 6.39093 0
M  V30 5475 H 523.746 0.0587882 6.55974 0
M  V30 5476 H 523.663 1.57567 7.39397 0
M  V30 5477 H 524.931 0.451559 7.78191 0
M  V30 5478 N 529.16 -1.33526 0.837174 0
M  V30 5479 C 530.07 -2.33023 0.271568 0
M  V30 5480 C 531.086 -1.63272 -0.601514 0
M  V30 5481 O 532.262 -1.94939 -0.506038 0
M  V30 5482 C 529.327 -3.42382 -0.545448 0
M  V30 5483 C 528.388 -4.27857 0.351709 0
M  V30 5484 C 527.621 -5.31994 -0.426409 0
M  V30 5485 O 527.844 -5.45763 -1.65828 0
M  V30 5486 O 526.778 -6.01572 0.1987 0
M  V30 5487 H 530.604 -2.83256 1.09545 0
M  V30 5488 H 528.189 -1.36837 0.599655 0
M  V30 5489 H 530.071 -4.09122 -1.00979 0
M  V30 5490 H 528.746 -2.94369 -1.34641 0
M  V30 5491 H 527.653 -3.6399 0.863853 0
M  V30 5492 H 528.986 -4.79349 1.1174 0
M  V30 5493 N 530.638 -0.59345 -1.46 0
M  V30 5494 C 531.884 -0.0832754 -2.02629 0
M  V30 5495 C 532.217 1.27749 -1.46266 0
M  V30 5496 O 531.492 1.8395 -0.631866 0
M  V30 5497 C 531.775 -0.0290756 -3.60088 0
M  V30 5498 C 531.628 -1.41951 -4.26814 0
M  V30 5499 C 532.947 0.666055 -4.35031 0
M  V30 5500 H 530.066 -0.031736 -0.736316 0
M  V30 5501 H 532.708 -0.762711 -1.74019 0
M  V30 5502 H 530.858 0.549532 -3.84594 0
M  V30 5503 H 532.53 -2.04411 -4.13538 0
M  V30 5504 H 530.773 -1.98422 -3.8576 0
M  V30 5505 H 531.444 -1.33395 -5.3564 0
M  V30 5506 H 533.92 0.174401 -4.15734 0
M  V30 5507 H 532.796 0.673041 -5.44758 0
M  V30 5508 H 533.057 1.72946 -4.06869 0
M  V30 5509 N 532.116 1.54067 -0.331816 0
M  V30 5510 C 533.346 2.04833 0.269605 0
M  V30 5511 C 533.754 1.20714 1.45687 0
M  V30 5512 O 533.097 0.232539 1.82222 0
M  V30 5513 C 533.159 3.51386 0.759499 0
M  V30 5514 C 532.823 4.55971 -0.306557 0
M  V30 5515 C 533.82 5.07126 -1.14538 0
M  V30 5516 C 531.505 5.00216 -0.457116 0
M  V30 5517 C 533.499 6.01096 -2.12042 0
M  V30 5518 C 531.186 5.93999 -1.43556 0
M  V30 5519 C 532.184 6.44326 -2.26568 0
M  V30 5520 O 531.872 7.36267 -3.22749 0
M  V30 5521 H 531.604 0.673509 0.0579763 0
M  V30 5522 H 534.158 1.99748 -0.478521 0
M  V30 5523 H 532.388 3.53896 1.55867 0
M  V30 5524 H 534.077 3.85184 1.28017 0
M  V30 5525 H 534.843 4.73716 -1.04009 0
M  V30 5526 H 530.722 4.60652 0.179142 0
M  V30 5527 H 534.266 6.40302 -2.76873 0
M  V30 5528 H 530.163 6.26825 -1.54146 0
M  V30 5529 H 530.931 7.54165 -3.18083 0
M  V30 5530 N 533.594 0.0601682 1.57485 0
M  V30 5531 C 535.01 -0.296422 1.56823 0
M  V30 5532 C 535.21 -1.70831 1.0686 0
M  V30 5533 O 534.266 -2.4174 0.729245 0
M  V30 5534 C 535.579 -0.116681 3.00474 0
M  V30 5535 C 537.127 -0.187103 3.1244 0
M  V30 5536 C 537.602 -0.035783 4.57986 0
M  V30 5537 N 539.093 -0.0917676 4.63109 0
M  V30 5538 C 539.828 0.00107251 5.734 0
M  V30 5539 N 539.324 0.146773 6.92645 0
M  V30 5540 N 541.117 -0.0551577 5.62073 0
M  V30 5541 H 533.268 0.983055 1.88281 0
M  V30 5542 H 535.531 0.382386 0.867459 0
M  V30 5543 H 535.237 0.85712 3.41096 0
M  V30 5544 H 535.111 -0.873929 3.66936 0
M  V30 5545 H 537.498 -1.15138 2.71712 0
M  V30 5546 H 537.579 0.601052 2.48638 0
M  V30 5547 H 537.223 0.925212 4.99402 0
M  V30 5548 H 537.153 -0.843196 5.19806 0
M  V30 5549 H 539.644 -0.203261 3.77353 0
M  V30 5550 H 539.957 0.210076 7.72514 0
M  V30 5551 H 538.302 0.181979 6.94762 0
M  V30 5552 H 541.493 -0.167605 4.678 0
M  V30 5553 H 541.666 0.020652 6.47997 0
M  V30 5554 N 535.072 -1.5615 -0.213296 0
M  V30 5555 C 536.002 -1.96109 -1.26742 0
M  V30 5556 C 536.983 -0.830448 -1.48451 0
M  V30 5557 O 538.168 -1.09339 -1.60495 0
M  V30 5558 C 535.298 -2.28492 -2.61551 0
M  V30 5559 C 534.252 -3.44124 -2.54485 0
M  V30 5560 C 533.578 -3.62134 -3.93399 0
M  V30 5561 C 534.878 -4.78855 -2.08556 0
M  V30 5562 H 536.572 -2.84412 -0.935434 0
M  V30 5563 H 534.118 -1.36836 -0.44854 0
M  V30 5564 H 536.071 -2.55039 -3.3546 0
M  V30 5565 H 534.795 -1.37052 -2.96453 0
M  V30 5566 H 533.454 -3.17639 -1.83033 0
M  V30 5567 H 533.102 -2.68055 -4.25623 0
M  V30 5568 H 532.802 -4.39913 -3.89551 0
M  V30 5569 H 534.326 -3.91038 -4.68958 0
M  V30 5570 H 535.74 -5.04552 -2.72213 0
M  V30 5571 H 534.137 -5.59975 -2.1575 0
M  V30 5572 H 535.207 -4.73657 -1.03811 0
M  V30 5573 N 536.55 0.480323 -1.50102 0
M  V30 5574 C 537.513 1.56181 -1.6775 0
M  V30 5575 C 538.513 1.51156 -0.548503 0
M  V30 5576 O 539.703 1.5394 -0.815363 0
M  V30 5577 C 536.835 2.95823 -1.69415 0
M  V30 5578 H 538.028 1.41855 -2.6423 0
M  V30 5579 H 535.581 0.70605 -1.39444 0
M  V30 5580 H 536.316 3.15604 -0.745948 0
M  V30 5581 H 536.101 3.00878 -2.51425 0
M  V30 5582 H 537.591 3.74359 -1.85054 0
M  V30 5583 N 538.028 1.39524 0.732853 0
M  V30 5584 C 538.958 1.41153 1.86005 0
M  V30 5585 C 539.939 0.274614 1.67869 0
M  V30 5586 O 541.124 0.480745 1.88155 0
M  V30 5587 C 538.254 1.25638 3.23778 0
M  V30 5588 C 537.208 2.36752 3.56556 0
M  V30 5589 C 536.534 2.06326 4.93289 0
M  V30 5590 C 537.834 3.79069 3.5931 0
M  V30 5591 H 539.528 2.35484 1.84899 0
M  V30 5592 H 537.074 1.13348 0.888162 0
M  V30 5593 H 539.027 1.25398 4.0231 0
M  V30 5594 H 537.751 0.277772 3.25417 0
M  V30 5595 H 536.41 2.36213 2.80355 0
M  V30 5596 H 536.058 1.06897 4.9151 0
M  V30 5597 H 535.758 2.80757 5.16187 0
M  V30 5598 H 537.282 2.07739 5.74175 0
M  V30 5599 H 538.696 3.81526 4.27914 0
M  V30 5600 H 537.093 4.52878 3.93728 0
M  V30 5601 H 538.163 4.09893 2.59068 0
M  V30 5602 N 539.506 -0.963266 1.24736 0
M  V30 5603 C 540.438 -2.06162 1.0015 0
M  V30 5604 C 541.451 -1.62771 -0.0305905 0
M  V30 5605 O 542.64 -1.77296 0.206966 0
M  V30 5606 C 539.74 -3.35333 0.490385 0
M  V30 5607 C 538.913 -4.07609 1.58663 0
M  V30 5608 C 537.972 -5.15052 1.0774 0
M  V30 5609 O 536.998 -5.4098 1.77002 0
M  V30 5610 N 538.2 -5.80436 -0.0858605 0
M  V30 5611 H 540.965 -2.27825 1.94719 0
M  V30 5612 H 538.526 -1.13121 1.15825 0
M  V30 5613 H 540.518 -4.04477 0.134371 0
M  V30 5614 H 539.088 -3.10507 -0.361155 0
M  V30 5615 H 538.308 -3.32681 2.11463 0
M  V30 5616 H 539.596 -4.52656 2.32336 0
M  V30 5617 H 538.994 -5.6178 -0.664806 0
M  V30 5618 H 537.551 -6.50674 -0.382981 0
M  V30 5619 N 540.985 -1.06182 -1.16461 0
M  V30 5620 C 542.213 -0.798583 -1.90867 0
M  V30 5621 C 542.628 0.646921 -1.77371 0
M  V30 5622 O 541.985 1.44279 -1.11758 0
M  V30 5623 C 542.036 -1.18258 -3.4161 0
M  V30 5624 O 541.757 -2.57135 -3.54701 0
M  V30 5625 C 543.258 -0.946917 -4.33069 0
M  V30 5626 H 540.478 -0.289603 -0.605286 0
M  V30 5627 H 543.022 -1.41515 -1.47627 0
M  V30 5628 H 541.177 -0.610562 -3.82558 0
M  V30 5629 H 541.591 -2.72477 -4.4817 0
M  V30 5630 H 543.065 -1.26523 -5.37304 0
M  V30 5631 H 543.542 0.117406 -4.39043 0
M  V30 5632 H 544.148 -1.50326 -3.97847 0
M  V30 5633 N 542.463 1.3308 -0.844243 0
M  V30 5634 C 543.879 1.50447 -0.532729 0
M  V30 5635 C 544.079 1.78292 0.938837 0
M  V30 5636 O 543.135 1.84635 1.72239 0
M  V30 5637 C 544.448 2.65555 -1.41072 0
M  V30 5638 C 545.996 2.7944 -1.41005 0
M  V30 5639 C 546.471 3.97616 -2.27301 0
M  V30 5640 N 547.962 4.0486 -2.2504 0
M  V30 5641 C 548.697 4.95508 -2.88547 0
M  V30 5642 N 548.193 5.91236 -3.61126 0
M  V30 5643 N 549.986 4.88548 -2.77989 0
M  V30 5644 H 542.137 1.13269 -1.79677 0
M  V30 5645 H 544.4 0.55734 -0.766861 0
M  V30 5646 H 544.106 2.51675 -2.45668 0
M  V30 5647 H 543.98 3.61089 -1.09061 0
M  V30 5648 H 546.367 2.92749 -0.371784 0
M  V30 5649 H 546.448 1.8465 -1.77026 0
M  V30 5650 H 546.092 3.85066 -3.3119 0
M  V30 5651 H 546.022 4.91661 -1.88619 0
M  V30 5652 H 548.513 3.36353 -1.72264 0
M  V30 5653 H 548.826 6.57079 -4.06776 0
M  V30 5654 H 547.171 5.91295 -3.65234 0
M  V30 5655 H 550.362 4.12729 -2.20846 0
M  V30 5656 H 550.535 5.58994 -3.27765 0
M  V30 5657 N 543.941 0.601185 1.45683 0
M  V30 5658 C 544.851 -0.123395 2.34275 0
M  V30 5659 C 545.867 -0.86702 1.5086 0
M  V30 5660 O 547.043 -0.826049 1.8368 0
M  V30 5661 C 544.108 -1.11237 3.2837 0
M  V30 5662 C 543.169 -0.371405 4.2769 0
M  V30 5663 C 542.402 -1.31327 5.1729 0
M  V30 5664 O 542.625 -2.55078 5.10188 0
M  V30 5665 O 541.559 -0.813811 5.96373 0
M  V30 5666 H 545.385 0.604483 2.97623 0
M  V30 5667 H 542.97 0.361477 1.44961 0
M  V30 5668 H 544.852 -1.68214 3.8637 0
M  V30 5669 H 543.527 -1.82139 2.67595 0
M  V30 5670 H 542.434 0.24067 3.73325 0
M  V30 5671 H 543.767 0.296998 4.91303 0
M  V30 5672 N 545.419 -1.53889 0.339982 0
M  V30 5673 C 546.351 -2.22435 -0.55275 0
M  V30 5674 C 547.364 -1.22975 -1.06681 0
M  V30 5675 O 548.553 -1.49351 -0.977575 0
M  V30 5676 C 545.653 -2.8882 -1.77302 0
M  V30 5677 C 544.826 -4.14563 -1.39486 0
M  V30 5678 C 543.885 -4.64391 -2.47442 0
M  V30 5679 O 542.911 -5.28687 -2.10899 0
M  V30 5680 N 544.113 -4.40015 -3.78639 0
M  V30 5681 H 546.878 -2.9968 0.0342669 0
M  V30 5682 H 544.439 -1.61068 0.16394 0
M  V30 5683 H 546.431 -3.19072 -2.48948 0
M  V30 5684 H 545.001 -2.15182 -2.26749 0
M  V30 5685 H 544.221 -3.90896 -0.509321 0
M  V30 5686 H 545.509 -4.96362 -1.11813 0
M  V30 5687 H 544.907 -3.88586 -4.11118 0
M  V30 5688 H 543.464 -4.74881 -4.46465 0
M  V30 5689 N 546.897 -0.0685191 -1.57451 0
M  V30 5690 C 547.847 0.909895 -2.09057 0
M  V30 5691 C 548.831 1.26088 -0.999528 0
M  V30 5692 O 550.023 1.24041 -1.26265 0
M  V30 5693 C 547.152 2.17863 -2.65312 0
M  V30 5694 C 546.238 1.85427 -3.81415 0
M  V30 5695 N 546.629 1.23426 -4.9051 0
M  V30 5696 C 544.927 2.15196 -3.90649 0
M  V30 5697 C 545.628 1.09008 -5.71395 0
M  V30 5698 N 544.604 1.59871 -5.1956 0
M  V30 5699 H 548.406 0.426145 -2.90794 0
M  V30 5700 H 545.92 0.135462 -1.61834 0
M  V30 5701 H 547.917 2.88872 -3.00597 0
M  V30 5702 H 546.577 2.66829 -1.85021 0
M  V30 5703 H 547.588 0.904305 -5.09944 0
M  V30 5704 H 544.265 2.66562 -3.21327 0
M  V30 5705 H 545.655 0.607305 -6.6915 0
M  V30 5706 N 548.375 1.56261 0.205012 0
M  V30 5707 C 549.624 1.79236 0.925058 0
M  V30 5708 C 549.937 0.640011 1.84833 0
M  V30 5709 O 551.143 0.753809 2.60826 0
M  V30 5710 C 549.599 3.17475 1.69522 0
M  V30 5711 C 549.207 4.40482 0.817269 0
M  V30 5712 C 550.951 3.49766 2.4055 0
M  V30 5713 C 548.858 5.69744 1.58573 0
M  V30 5714 H 547.788 0.668287 0.349153 0
M  V30 5715 H 550.439 1.82629 0.178544 0
M  V30 5716 H 548.821 3.08304 2.48526 0
M  V30 5717 H 549.995 4.60752 0.0665988 0
M  V30 5718 H 548.31 4.15827 0.218316 0
M  V30 5719 H 550.907 4.43573 2.98575 0
M  V30 5720 H 551.25 2.73041 3.14252 0
M  V30 5721 H 551.783 3.60341 1.68522 0
M  V30 5722 H 548.522 6.49407 0.891679 0
M  V30 5723 H 548.042 5.53509 2.31059 0
M  V30 5724 H 549.721 6.1051 2.14212 0
M  V30 5725 N 549.853 -0.472356 1.50355 0
M  V30 5726 C 551.269 -0.806001 1.37753 0
M  V30 5727 C 551.469 -1.968 0.432649 0
M  V30 5728 O 550.525 -2.52189 -0.12519 0
M  V30 5729 C 551.838 -1.11926 2.79093 0
M  V30 5730 C 553.386 -1.22579 2.87999 0
M  V30 5731 C 553.861 -1.57218 4.3017 0
M  V30 5732 N 555.352 -1.64212 4.33115 0
M  V30 5733 C 556.087 -1.92517 5.40116 0
M  V30 5734 N 555.583 -2.1885 6.57325 0
M  V30 5735 N 557.376 -1.94008 5.27558 0
M  V30 5736 H 549.527 0.293451 2.10363 0
M  V30 5737 H 551.79 0.0687672 0.945503 0
M  V30 5738 H 551.496 -0.338504 3.50067 0
M  V30 5739 H 551.37 -2.05577 3.16256 0
M  V30 5740 H 553.757 -1.99722 2.17245 0
M  V30 5741 H 553.838 -0.269107 2.54381 0
M  V30 5742 H 553.482 -0.806154 5.01461 0
M  V30 5743 H 553.412 -2.54034 4.61275 0
M  V30 5744 H 555.903 -1.45906 3.48597 0
M  V30 5745 H 556.216 -2.39718 7.3468 0
M  V30 5746 H 554.561 -2.16245 6.60502 0
M  V30 5747 H 557.752 -1.72931 4.34986 0
M  V30 5748 H 557.925 -2.15731 6.11035 0
M  V30 5749 N 551.331 -1.39911 -0.725443 0
M  V30 5750 C 552.747 -1.21725 -1.03224 0
M  V30 5751 C 552.947 -0.0855224 -2.01318 0
M  V30 5752 O 552.003 0.55976 -2.46217 0
M  V30 5753 C 553.316 -2.55511 -1.58539 0
M  V30 5754 C 554.864 -2.62439 -1.70572 0
M  V30 5755 C 555.339 -3.9647 -2.29294 0
M  V30 5756 N 556.83 -3.98159 -2.36692 0
M  V30 5757 C 557.565 -4.98647 -2.83088 0
M  V30 5758 N 557.061 -6.0953 -3.2931 0
M  V30 5759 N 558.854 -4.8602 -2.82384 0
M  V30 5760 H 551.005 -2.12267 -0.075048 0
M  V30 5761 H 553.268 -0.943136 -0.0959066 0
M  V30 5762 H 552.974 -3.38926 -0.939249 0
M  V30 5763 H 552.848 -2.75905 -2.57208 0
M  V30 5764 H 555.235 -1.79401 -2.34306 0
M  V30 5765 H 555.316 -2.45885 -0.705297 0
M  V30 5766 H 554.96 -4.79942 -1.66186 0
M  V30 5767 H 554.89 -4.10349 -3.30032 0
M  V30 5768 H 557.381 -3.18085 -2.04035 0
M  V30 5769 H 557.694 -6.82106 -3.6325 0
M  V30 5770 H 556.039 -6.1311 -3.27294 0
M  V30 5771 H 559.23 -3.98493 -2.45603 0
M  V30 5772 H 559.403 -5.64478 -3.18226 0
M  V30 5773 N 552.809 0.956637 -1.25245 0
M  V30 5774 C 554.086 1.67716 -1.00651 0
M  V30 5775 C 554.466 2.0585 0.467866 0
M  V30 5776 O 553.814 1.77029 1.44475 0
M  V30 5777 C 554.024 2.90093 -1.94028 0
M  V30 5778 C 555.372 3.6209 -2.21756 0
M  V30 5779 O 556.396 3.00171 -1.9177 0
M  V30 5780 O 555.255 4.7358 -2.72735 0
M  V30 5781 H 552.349 0.733731 -0.381533 0
M  V30 5782 H 554.895 1.00974 -1.3639 0
M  V30 5783 H 553.667 2.58689 -2.93591 0
M  V30 5784 H 553.29 3.64566 -1.58674 0
M  V30 5785 N 554.287 1.06798 1.15896 0
M  V30 5786 C 555.234 0.683314 2.20453 0
M  V30 5787 C 556.204 -0.32255 1.62938 0
M  V30 5788 O 557.389 -0.210276 1.89638 0
M  V30 5789 C 554.529 0.0813266 3.45004 0
M  V30 5790 C 553.642 1.13799 4.16742 0
M  V30 5791 C 552.777 0.501598 5.28826 0
M  V30 5792 C 551.816 1.54144 5.92373 0
M  V30 5793 N 550.953 0.928038 6.9594 0
M  V30 5794 H 555.793 1.57932 2.52708 0
M  V30 5795 H 553.33 0.789544 1.24115 0
M  V30 5796 H 555.288 -0.285274 4.16224 0
M  V30 5797 H 553.918 -0.77806 3.13283 0
M  V30 5798 H 552.97 1.62223 3.44075 0
M  V30 5799 H 554.282 1.92664 4.60089 0
M  V30 5800 H 553.436 0.0823162 6.06644 0
M  V30 5801 H 552.175 -0.318883 4.86656 0
M  V30 5802 H 551.18 1.97056 5.13273 0
M  V30 5803 H 552.405 2.3641 6.36621 0
M  V30 5804 H 550.351 0.12836 6.55874 0
M  V30 5805 H 550.268 1.65401 7.37685 0
M  V30 5806 H 551.536 0.534071 7.77668 0
M  V30 5807 N 555.766 -1.3263 0.851289 0
M  V30 5808 C 556.729 -2.27247 0.298541 0
M  V30 5809 C 557.729 -1.51467 -0.539847 0
M  V30 5810 O 558.919 -1.7061 -0.351843 0
M  V30 5811 C 556.051 -3.35964 -0.578004 0
M  V30 5812 H 557.244 -2.7765 1.13359 0
M  V30 5813 H 554.797 -1.43245 0.625354 0
M  V30 5814 H 555.532 -2.90823 -1.435 0
M  V30 5815 H 555.317 -3.92094 0.0220539 0
M  V30 5816 H 556.807 -4.06472 -0.957626 0
M  V30 5817 N 557.244 -0.608902 -1.45362 0
M  V30 5818 C 558.472 -0.111013 -2.06602 0
M  V30 5819 C 558.887 1.20516 -1.45332 0
M  V30 5820 O 558.244 1.73437 -0.567978 0
M  V30 5821 C 558.295 0.033688 -3.61484 0
M  V30 5822 O 558.016 -1.23041 -4.20467 0
M  V30 5823 C 559.517 0.562882 -4.39712 0
M  V30 5824 H 556.737 -0.0694453 -0.667397 0
M  V30 5825 H 559.281 -0.837008 -1.86586 0
M  V30 5826 H 557.436 0.710016 -3.80838 0
M  V30 5827 H 557.85 -1.06094 -5.13658 0
M  V30 5828 H 559.324 0.613213 -5.48583 0
M  V30 5829 H 559.801 1.58543 -4.09586 0
M  V30 5830 H 560.407 -0.0794454 -4.25226 0
M  V30 5831 N 558.722 1.53707 -0.348139 0
M  V30 5832 C 559.947 2.05877 0.250883 0
M  V30 5833 C 560.372 1.22115 1.43072 0
M  V30 5834 O 559.73 0.235986 1.79758 0
M  V30 5835 C 559.778 3.54886 0.639416 0
M  V30 5836 O 558.882 3.73948 1.73888 0
M  V30 5837 H 558.223 0.662754 0.040653 0
M  V30 5838 H 560.753 1.98303 -0.503685 0
M  V30 5839 H 560.763 3.97601 0.915295 0
M  V30 5840 H 559.438 4.153 -0.223386 0
M  V30 5841 H 558.015 3.43134 1.45991 0
M  V30 5842 N 560.2 0.0768682 1.57412 0
M  V30 5843 C 561.148 -0.906229 2.1422 0
M  V30 5844 C 562.142 -1.30477 1.08037 0
M  V30 5845 O 563.348 -1.28143 1.2641 0
M  V30 5846 H 559.723 -0.310207 0.685037 0
M  V30 5847 H 561.694 -0.402228 2.95677 0
M  V30 5848 C 560.443 -2.16245 2.72274 0
M  V30 5849 H 559.766 -1.86463 3.53655 0
M  V30 5850 H 561.206 -2.83134 3.15613 0
M  V30 5851 C 559.665 -2.92437 1.67279 0
M  V30 5852 O 560.195 -3.86322 1.10081 0
M  V30 5853 N 558.401 -2.55637 1.38195 0
M  V30 5854 H 557.948 -1.79363 1.84897 0
M  V30 5855 H 557.906 -3.06919 0.681787 0
M  V30 5856 N 561.678 -1.56367 -0.196722 0
M  V30 5857 C 562.927 -1.79724 -0.915539 0
M  V30 5858 C 563.24 -0.649804 -1.84491 0
M  V30 5859 O 564.446 -0.767631 -2.60422 0
M  V30 5860 C 562.902 -3.18369 -1.67836 0
M  V30 5861 C 562.51 -4.4091 -0.793897 0
M  V30 5862 C 564.254 -3.51037 -2.38691 0
M  V30 5863 C 562.161 -5.70577 -1.55549 0
M  V30 5864 H 561.091 -0.67013 -0.345604 0
M  V30 5865 H 563.742 -1.82721 -0.168856 0
M  V30 5866 H 562.124 -3.09617 -2.46887 0
M  V30 5867 H 563.298 -4.60781 -0.042163 0
M  V30 5868 H 561.613 -4.15937 -0.19626 0
M  V30 5869 H 564.21 -4.4515 -2.96219 0
M  V30 5870 H 564.553 -2.74704 -3.12799 0
M  V30 5871 H 565.086 -3.61229 -1.66608 0
M  V30 5872 H 561.825 -6.49871 -0.857226 0
M  V30 5873 H 561.345 -5.54726 -2.2812 0
M  V30 5874 H 563.024 -6.11637 -2.10971 0
M  V30 5875 N 563.156 0.464375 -1.50603 0
M  V30 5876 C 564.396 1.22573 -1.6357 0
M  V30 5877 C 564.76 1.89111 -0.331834 0
M  V30 5878 O 565.961 2.66679 -0.336999 0
M  V30 5879 C 564.232 2.23643 -2.7878 0
M  V30 5880 S 565.791 3.08628 -3.1192 0
M  V30 5881 H 562.609 0.416058 -0.576556 0
M  V30 5882 H 565.211 0.521637 -1.88412 0
M  V30 5883 H 563.915 1.73354 -3.7199 0
M  V30 5884 H 563.446 2.98672 -2.56044 0
M  V30 5885 H 565.461 4.24904 -2.56264 0
M  V30 5886 N 564.634 1.40294 0.718013 0
M  V30 5887 C 565.862 1.4175 1.50714 0
M  V30 5888 C 566.277 0.0165366 1.88793 0
M  V30 5889 O 565.634 -0.958942 1.55276 0
M  V30 5890 C 565.685 2.30598 2.784 0
M  V30 5891 O 565.406 3.6524 2.41932 0
M  V30 5892 C 566.907 2.4062 3.72313 0
M  V30 5893 H 564.127 0.483565 0.465194 0
M  V30 5894 H 566.671 1.84316 0.885889 0
M  V30 5895 H 564.826 1.91401 3.36815 0
M  V30 5896 H 565.24 4.12402 3.24076 0
M  V30 5897 H 566.714 3.07001 4.58753 0
M  V30 5898 H 567.191 1.4305 4.15251 0
M  V30 5899 H 567.797 2.80359 3.19811 0
M  V30 5900 N 566.112 -0.949982 1.2575 0
M  V30 5901 C 567.075 -2.02894 1.06615 0
M  V30 5902 C 568.075 -1.60791 0.0173905 0
M  V30 5903 O 569.265 -1.72249 0.260003 0
M  V30 5904 C 566.397 -3.35219 0.619751 0
M  V30 5905 H 567.59 -2.21302 2.02399 0
M  V30 5906 H 565.143 -1.12772 1.08223 0
M  V30 5907 H 565.878 -3.22508 -0.340486 0
M  V30 5908 H 565.663 -3.67129 1.37692 0
M  V30 5909 H 567.153 -4.14505 0.507443 0
M  V30 5910 N 567.59 -1.07411 -1.15328 0
M  V30 5911 C 568.522 -0.652924 -2.19703 0
M  V30 5912 C 569.535 0.294869 -1.60107 0
M  V30 5913 O 570.724 0.0840932 -1.78302 0
M  V30 5914 C 567.824 0.061434 -3.38844 0
M  V30 5915 C 566.997 -0.902696 -4.27984 0
M  V30 5916 C 566.056 -0.225521 -5.25717 0
M  V30 5917 O 565.082 -0.86676 -5.62562 0
M  V30 5918 N 566.284 1.02858 -5.71315 0
M  V30 5919 H 569.049 -1.55081 -2.56457 0
M  V30 5920 H 566.61 -0.958883 -1.30449 0
M  V30 5921 H 568.602 0.525145 -4.01278 0
M  V30 5922 H 567.172 0.861269 -3.00501 0
M  V30 5923 H 566.392 -1.54551 -3.6264 0
M  V30 5924 H 567.68 -1.55636 -4.84412 0
M  V30 5925 H 567.078 1.56948 -5.43492 0
M  V30 5926 H 565.635 1.43596 -6.35786 0
M  V30 5927 N 569.068 1.32177 -0.85831 0
M  V30 5928 C 570.031 2.27086 -0.310588 0
M  V30 5929 C 571.031 1.51751 0.531806 0
M  V30 5930 O 572.221 1.70794 0.34279 0
M  V30 5931 C 569.353 3.36266 0.560179 0
M  V30 5932 H 570.546 2.77045 -1.1483 0
M  V30 5933 H 568.099 1.42911 -0.632942 0
M  V30 5934 H 568.834 2.9158 1.41956 0
M  V30 5935 H 568.619 3.92077 -0.0428473 0
M  V30 5936 H 570.109 4.06974 0.936056 0
M  V30 5937 N 570.547 0.616602 1.45037 0
M  V30 5938 C 571.477 -0.0840787 2.33349 0
M  V30 5939 C 572.458 -0.849641 1.4736 0
M  V30 5940 O 573.643 -0.818407 1.76113 0
M  V30 5941 C 570.773 -1.07604 3.3021 0
M  V30 5942 C 569.727 -0.423096 4.25904 0
M  V30 5943 C 569.053 -1.52394 5.12523 0
M  V30 5944 C 570.353 0.661457 5.18095 0
M  V30 5945 H 572.047 0.653333 2.92185 0
M  V30 5946 H 569.593 0.315634 1.40498 0
M  V30 5947 H 571.546 -1.57485 3.90866 0
M  V30 5948 H 570.27 -1.84416 2.69552 0
M  V30 5949 H 568.929 0.05493 3.66559 0
M  V30 5950 H 568.577 -2.28257 4.48227 0
M  V30 5951 H 568.277 -1.09251 5.77354 0
M  V30 5952 H 569.801 -2.02485 5.76049 0
M  V30 5953 H 571.215 0.246353 5.7277 0
M  V30 5954 H 569.612 1.01517 5.91451 0
M  V30 5955 H 570.682 1.53446 4.59981 0
M  V30 5956 N 572.025 -1.5352 0.356285 0
M  V30 5957 C 572.955 -2.28372 -0.486661 0
M  V30 5958 C 573.936 -1.30432 -1.09185 0
M  V30 5959 O 575.121 -1.59291 -1.11085 0
M  V30 5960 C 572.251 -3.06604 -1.63129 0
M  V30 5961 C 571.205 -4.12154 -1.15381 0
M  V30 5962 C 570.531 -4.78415 -2.38796 0
M  V30 5963 C 571.831 -5.21724 -0.245179 0
M  V30 5964 H 573.525 -2.99083 0.137797 0
M  V30 5965 H 571.071 -1.43841 0.0677134 0
M  V30 5966 H 573.024 -3.57712 -2.22755 0
M  V30 5967 H 571.748 -2.33568 -2.28284 0
M  V30 5968 H 570.407 -3.61978 -0.580294 0
M  V30 5969 H 570.055 -4.01959 -3.02387 0
M  V30 5970 H 569.755 -5.49734 -2.07524 0
M  V30 5971 H 571.279 -5.32313 -2.99125 0
M  V30 5972 H 572.693 -5.68391 -0.748646 0
M  V30 5973 H 571.09 -6.00095 -0.0237608 0
M  V30 5974 H 572.16 -4.79596 0.715229 0
M  V30 5975 N 573.503 -0.0852151 -1.57369 0
M  V30 5976 C 574.466 0.8627 -2.12344 0
M  V30 5977 C 575.466 1.21746 -1.05046 0
M  V30 5978 O 576.656 1.14852 -1.30976 0
M  V30 5979 C 573.788 2.1618 -2.63589 0
M  V30 5980 H 574.981 0.385511 -2.97412 0
M  V30 5981 H 572.534 0.163663 -1.55441 0
M  V30 5982 H 573.269 2.68406 -1.82013 0
M  V30 5983 H 573.054 1.91723 -3.4203 0
M  V30 5984 H 574.544 2.84011 -3.06149 0
M  V30 5985 N 574.981 1.5647 0.188427 0
M  V30 5986 C 575.929 1.95971 1.25293 0
M  V30 5987 C 576.923 0.846047 1.4676 0
M  V30 5988 O 578.129 1.03109 1.47542 0
M  V30 5989 H 574.504 0.623253 0.420784 0
M  V30 5990 H 576.475 2.84731 0.892792 0
M  V30 5991 C 575.224 2.32116 2.58877 0
M  V30 5992 H 574.547 3.17341 2.43176 0
M  V30 5993 H 575.987 2.63613 3.3209 0
M  V30 5994 C 574.446 1.15823 3.16365 0
M  V30 5995 O 574.976 0.436785 3.99318 0
M  V30 5996 N 573.182 0.933278 2.75206 0
M  V30 5997 H 572.729 1.52169 2.07852 0
M  V30 5998 H 572.687 0.156976 3.14008 0
M  V30 5999 N 576.459 -0.456382 1.50847 0
M  V30 6000 C 577.392 -1.57177 1.65441 0
M  V30 6001 C 578.37 -1.54649 0.502224 0
M  V30 6002 O 579.554 -1.74057 0.723633 0
M  V30 6003 C 576.681 -2.95763 1.65052 0
M  V30 6004 C 575.727 -3.16389 2.86007 0
M  V30 6005 S 576.56 -2.94716 4.47105 0
M  V30 6006 C 577.716 -4.35617 4.49432 0
M  V30 6007 H 577.949 -1.44561 2.59787 0
M  V30 6008 H 575.482 -0.644758 1.40293 0
M  V30 6009 H 577.44 -3.75654 1.65512 0
M  V30 6010 H 576.101 -3.05756 0.719153 0
M  V30 6011 H 575.294 -4.17667 2.82081 0
M  V30 6012 H 574.896 -2.44293 2.8319 0
M  V30 6013 H 577.188 -5.28503 4.239 0
M  V30 6014 H 578.131 -4.44582 5.51137 0
M  V30 6015 H 578.539 -4.18382 3.78967 0
M  V30 6016 N 577.937 -1.40673 -0.710563 0
M  V30 6017 C 578.9 -1.4108 -1.80635 0
M  V30 6018 C 579.9 -0.303783 -1.57904 0
M  V30 6019 O 581.09 -0.562937 -1.64853 0
M  V30 6020 C 578.222 -1.20748 -3.18799 0
M  V30 6021 H 579.415 -2.38612 -1.81671 0
M  V30 6022 H 576.968 -1.26595 -0.916704 0
M  V30 6023 H 577.703 -0.239964 -3.23411 0
M  V30 6024 H 577.488 -2.00941 -3.36698 0
M  V30 6025 H 578.978 -1.23833 -3.98817 0
M  V30 6026 N 579.415 0.9433 -1.26252 0
M  V30 6027 C 580.378 2.02326 -1.07689 0
M  V30 6028 C 581.378 1.60779 -0.0259174 0
M  V30 6029 O 582.568 1.72108 -0.269134 0
M  V30 6030 C 579.7 3.34886 -0.63752 0
M  V30 6031 H 580.893 2.20225 -2.0357 0
M  V30 6032 H 578.446 1.12197 -1.08819 0
M  V30 6033 H 579.181 3.22684 0.323377 0
M  V30 6034 H 578.966 3.66393 -1.39637 0
M  V30 6035 H 580.456 4.14231 -0.529418 0
M  V30 6036 N 580.893 1.08022 1.14757 0
M  V30 6037 C 581.826 0.650738 2.18725 0
M  V30 6038 C 582.804 -0.335496 1.59101 0
M  V30 6039 O 583.988 -0.240295 1.86962 0
M  V30 6040 C 581.115 -0.0434377 3.38672 0
M  V30 6041 C 580.161 0.90232 4.16846 0
M  V30 6042 S 580.994 2.40693 4.78359 0
M  V30 6043 C 582.15 1.72475 6.01667 0
M  V30 6044 H 582.383 1.53152 2.54817 0
M  V30 6045 H 579.916 0.894823 1.25826 0
M  V30 6046 H 581.874 -0.437684 4.0816 0
M  V30 6047 H 580.535 -0.900659 3.0091 0
M  V30 6048 H 579.728 0.363445 5.02688 0
M  V30 6049 H 579.33 1.23728 3.52941 0
M  V30 6050 H 581.622 1.0404 6.69464 0
M  V30 6051 H 582.565 2.56175 6.60136 0
M  V30 6052 H 582.973 1.19979 5.51602 0
M  V30 6053 N 582.371 -1.3172 0.865308 0
M  V30 6054 C 583.618 -1.96876 0.473931 0
M  V30 6055 C 583.946 -1.68425 -0.972786 0
M  V30 6056 O 583.201 -0.970742 -1.69927 0
M  V30 6057 C 583.5 -3.5102 0.672283 0
M  V30 6058 C 583.166 -3.9948 2.09108 0
M  V30 6059 C 581.828 -4.12425 2.4791 0
M  V30 6060 C 584.18 -4.2503 3.0166 0
M  V30 6061 C 581.508 -4.48267 3.78515 0
M  V30 6062 C 583.86 -4.62335 4.31774 0
M  V30 6063 C 582.524 -4.73486 4.70497 0
M  V30 6064 H 581.794 -0.72042 0.173424 0
M  V30 6065 H 584.441 -1.56937 1.0974 0
M  V30 6066 H 582.746 -3.91785 -0.034356 0
M  V30 6067 H 584.443 -3.99475 0.349353 0
M  V30 6068 H 581.033 -3.89898 1.77981 0
M  V30 6069 H 585.217 -4.14529 2.7291 0
M  V30 6070 H 580.473 -4.55097 4.08285 0
M  V30 6071 H 584.647 -4.81058 5.03543 0
M  V30 6072 H 582.274 -5.01016 5.71741 0
M  V30 6073 N 583.85 -0.624285 -1.44708 0
M  V30 6074 C 584.812 0.0749638 -2.29077 0
M  V30 6075 C 585.812 0.778965 -1.40673 0
M  V30 6076 O 587.003 0.624591 -1.62618 0
M  V30 6077 C 584.135 1.11663 -3.22094 0
M  V30 6078 H 585.327 -0.667013 -2.92388 0
M  V30 6079 H 582.88 -0.384098 -1.51507 0
M  V30 6080 H 583.615 1.88881 -2.63618 0
M  V30 6081 H 583.401 0.61583 -3.87234 0
M  V30 6082 H 584.891 1.60585 -3.8549 0
M  V30 6083 N 585.328 1.53329 -0.364422 0
M  V30 6084 C 586.577 2.00421 0.226747 0
M  V30 6085 C 586.89 1.25581 1.49963 0
M  V30 6086 O 588.096 1.63256 2.16933 0
M  V30 6087 C 586.552 3.57017 0.454618 0
M  V30 6088 C 586.16 4.40734 -0.803568 0
M  V30 6089 C 587.904 4.12468 1.00351 0
M  V30 6090 C 585.811 5.8888 -0.545345 0
M  V30 6091 H 584.741 0.748787 0.0885082 0
M  V30 6092 H 587.392 1.7703 -0.482983 0
M  V30 6093 H 585.774 3.76558 1.22558 0
M  V30 6094 H 586.948 4.32967 -1.57723 0
M  V30 6095 H 585.263 3.96381 -1.27559 0
M  V30 6096 H 587.86 5.20783 1.212 0
M  V30 6097 H 588.203 3.6699 1.9653 0
M  V30 6098 H 588.736 3.96721 0.29274 0
M  V30 6099 H 585.475 6.38633 -1.47743 0
M  V30 6100 H 584.995 5.99499 0.189842 0
M  V30 6101 H 586.674 6.46776 -0.170425 0
M  V30 6102 N 586.806 0.0935595 1.57322 0
M  V30 6103 C 588.036 -0.578095 1.98347 0
M  V30 6104 C 588.444 -1.62357 0.971441 0
M  V30 6105 O 587.787 -1.83639 -0.0473959 0
M  V30 6106 C 587.849 -1.28525 3.3574 0
M  V30 6107 C 587.513 -0.390714 4.55327 0
M  V30 6108 C 588.51 0.360522 5.18648 0
M  V30 6109 C 586.195 -0.309221 5.01347 0
M  V30 6110 C 588.189 1.18125 6.26359 0
M  V30 6111 C 585.876 0.515157 6.08925 0
M  V30 6112 C 586.874 1.25904 6.71295 0
M  V30 6113 O 586.562 2.06978 7.76798 0
M  V30 6114 H 586.294 -0.159767 0.656849 0
M  V30 6115 H 588.848 0.169058 2.04703 0
M  V30 6116 H 587.078 -2.07894 3.26063 0
M  V30 6117 H 588.767 -1.85128 3.61223 0
M  V30 6118 H 589.533 0.307285 4.84026 0
M  V30 6119 H 585.412 -0.877881 4.52564 0
M  V30 6120 H 588.956 1.76236 6.74971 0
M  V30 6121 H 584.853 0.56988 6.42979 0
M  V30 6122 H 585.621 1.99644 7.93779 0
M  V30 6123 N 588.284 -1.56567 -0.180126 0
M  V30 6124 C 589.234 -1.92132 -1.22756 0
M  V30 6125 C 590.218 -0.788639 -1.40247 0
M  V30 6126 O 591.41 -1.05171 -1.42366 0
M  V30 6127 C 588.539 -2.27719 -2.56902 0
M  V30 6128 C 587.625 -3.47481 -2.43142 0
M  V30 6129 N 588.016 -4.64973 -1.99082 0
M  V30 6130 C 586.314 -3.51914 -2.73994 0
M  V30 6131 C 587.015 -5.47119 -1.97574 0
M  V30 6132 N 585.991 -4.87925 -2.39645 0
M  V30 6133 H 589.793 -2.80464 -0.878478 0
M  V30 6134 H 587.307 -1.57686 -0.388463 0
M  V30 6135 H 589.304 -2.51389 -3.32579 0
M  V30 6136 H 587.964 -1.40722 -2.92621 0
M  V30 6137 H 588.975 -4.89358 -1.69557 0
M  V30 6138 H 585.652 -2.75372 -3.13809 0
M  V30 6139 H 587.042 -6.51254 -1.65282 0
M  V30 6140 N 589.762 0.448376 -1.51087 0
M  V30 6141 C 591.01 1.19635 -1.62886 0
M  V30 6142 C 591.331 1.91977 -0.342024 0
M  V30 6143 O 590.601 1.85094 0.641636 0
M  V30 6144 H 589.181 0.444598 -0.600285 0
M  V30 6145 H 591.843 0.515138 -1.87969 0
M  V30 6146 H 590.939 1.93194 -2.45117 0
M  V30 6147 N 591.24 1.41047 0.703093 0
M  V30 6148 C 592.465 1.43537 1.49706 0
M  V30 6149 C 592.89 0.0401853 1.88057 0
M  V30 6150 O 592.248 -0.954785 1.54122 0
M  V30 6151 C 592.296 2.3433 2.74084 0
M  V30 6152 O 591.4 1.79515 3.71279 0
M  V30 6153 H 590.741 0.487454 0.450871 0
M  V30 6154 H 593.271 1.85422 0.86486 0
M  V30 6155 H 593.281 2.49947 3.22476 0
M  V30 6156 H 591.956 3.35708 2.45506 0
M  V30 6157 H 590.533 1.7331 3.30179 0
M  V30 6158 N 592.718 -0.936591 1.26751 0
M  V30 6159 C 593.668 -2.0219 1.05371 0
M  V30 6160 C 594.652 -1.60893 -0.0154112 0
M  V30 6161 O 595.844 -1.75843 0.202085 0
M  V30 6162 C 592.973 -3.36222 0.693541 0
M  V30 6163 C 592.059 -3.8399 1.80035 0
M  V30 6164 N 592.45 -4.0436 3.03852 0
M  V30 6165 C 590.748 -4.12945 1.685 0
M  V30 6166 C 591.449 -4.44 3.75818 0
M  V30 6167 N 590.425 -4.50966 3.03531 0
M  V30 6168 H 594.227 -2.15958 1.99347 0
M  V30 6169 H 591.741 -1.12277 1.17335 0
M  V30 6170 H 593.738 -4.13625 0.521513 0
M  V30 6171 H 592.398 -3.23821 -0.238693 0
M  V30 6172 H 593.409 -3.9092 3.39709 0
M  V30 6173 H 590.086 -4.09308 0.822986 0
M  V30 6174 H 591.476 -4.67914 4.82189 0
M  V30 6175 N 594.196 -1.08629 -1.14182 0
M  V30 6176 C 595.444 -0.815731 -1.84906 0
M  V30 6177 C 595.765 0.660441 -1.83475 0
M  V30 6178 O 595.035 1.47888 -1.28476 0
M  V30 6179 H 593.615 -0.298773 -0.684648 0
M  V30 6180 H 596.277 -1.37274 -1.38354 0
M  V30 6181 H 595.373 -1.16193 -2.89665 0
M  V30 6182 N 595.674 1.31259 -0.872281 0
M  V30 6183 C 596.604 2.30929 -0.345554 0
M  V30 6184 C 597.585 1.60449 0.5648 0
M  V30 6185 O 598.77 1.8814 0.481335 0
M  V30 6186 C 595.9 3.44348 0.451823 0
M  V30 6187 C 594.854 4.26435 -0.365641 0
M  V30 6188 C 594.18 5.31785 0.557562 0
M  V30 6189 C 595.48 4.97159 -1.60095 0
M  V30 6190 H 597.174 2.75234 -1.17841 0
M  V30 6191 H 594.72 1.3232 -0.568094 0
M  V30 6192 H 596.673 4.13128 0.830854 0
M  V30 6193 H 595.397 2.98816 1.31821 0
M  V30 6194 H 594.056 3.59326 -0.726649 0
M  V30 6195 H 593.704 4.82502 1.4213 0
M  V30 6196 H 593.404 5.87598 0.0144878 0
M  V30 6197 H 594.928 6.03424 0.933387 0
M  V30 6198 H 596.342 5.58523 -1.29323 0
M  V30 6199 H 594.739 5.62779 -2.08327 0
M  V30 6200 H 595.809 4.24012 -2.35249 0
M  V30 6201 N 597.152 0.631951 1.44375 0
M  V30 6202 C 598.062 -0.073674 2.34484 0
M  V30 6203 C 599.078 -0.834825 1.52665 0
M  V30 6204 O 600.254 -0.786902 1.85391 0
M  V30 6205 C 597.319 -1.04247 3.30656 0
M  V30 6206 C 596.38 -0.280602 4.28382 0
M  V30 6207 C 595.613 -1.20325 5.19959 0
M  V30 6208 O 595.836 -2.44199 5.15484 0
M  V30 6209 O 594.77 -0.687128 5.97965 0
M  V30 6210 H 598.596 0.667477 2.96274 0
M  V30 6211 H 596.181 0.392144 1.44162 0
M  V30 6212 H 598.063 -1.59981 3.89851 0
M  V30 6213 H 596.738 -1.76422 2.71398 0
M  V30 6214 H 595.645 0.319804 3.72731 0
M  V30 6215 H 596.978 0.401144 4.90563 0
M  V30 6216 N 598.631 -1.53133 0.372548 0
M  V30 6217 C 599.581 -2.22733 -0.487218 0
M  V30 6218 C 600.565 -1.22506 -1.04312 0
M  V30 6219 O 601.757 -1.47923 -0.972005 0
M  V30 6220 C 598.886 -3.02524 -1.62278 0
M  V30 6221 C 597.972 -4.10133 -1.07943 0
M  V30 6222 N 598.363 -5.05133 -0.259629 0
M  V30 6223 C 596.661 -4.24964 -1.35356 0
M  V30 6224 C 597.362 -5.81687 0.0386656 0
M  V30 6225 N 596.338 -5.40699 -0.560827 0
M  V30 6226 H 600.14 -2.93538 0.145853 0
M  V30 6227 H 597.654 -1.61389 0.180938 0
M  V30 6228 H 599.651 -3.50909 -2.25096 0
M  V30 6229 H 598.311 -2.33252 -2.25884 0
M  V30 6230 H 599.322 -5.178 0.101746 0
M  V30 6231 H 595.999 -3.66919 -1.9919 0
M  V30 6232 H 597.389 -6.68224 0.701841 0
M  V30 6233 N 600.109 -0.101901 -1.5727 0
M  V30 6234 C 601.358 0.559922 -1.93772 0
M  V30 6235 C 601.671 1.68913 -0.98629 0
M  V30 6236 O 602.877 2.41256 -1.24529 0
M  V30 6237 C 601.333 1.04739 -3.44322 0
M  V30 6238 C 600.941 -0.05243 -4.47969 0
M  V30 6239 C 602.685 1.68157 -3.89774 0
M  V30 6240 C 600.592 0.450781 -5.8968 0
M  V30 6241 H 599.522 0.212931 -0.723309 0
M  V30 6242 H 602.173 -0.179001 -1.82625 0
M  V30 6243 H 600.555 1.84021 -3.50645 0
M  V30 6244 H 601.729 -0.828157 -4.53297 0
M  V30 6245 H 600.044 -0.592202 -4.12167 0
M  V30 6246 H 602.641 2.0689 -4.93052 0
M  V30 6247 H 602.984 2.55338 -3.28798 0
M  V30 6248 H 603.517 0.954453 -3.8618 0
M  V30 6249 H 600.256 -0.38458 -6.54371 0
M  V30 6250 H 599.776 1.19336 -5.87809 0
M  V30 6251 H 601.455 0.917555 -6.40461 0
M  V30 6252 N 601.587 1.56661 0.17182 0
M  V30 6253 C 602.55 1.9549 1.19651 0
M  V30 6254 C 603.55 0.838501 1.37207 0
M  V30 6255 O 604.74 1.10556 1.34622 0
M  V30 6256 C 601.872 2.24927 2.56166 0
M  V30 6257 H 603.065 2.87184 0.864007 0
M  V30 6258 H 600.618 1.50711 0.41425 0
M  V30 6259 H 601.353 1.35944 2.94431 0
M  V30 6260 H 601.138 3.06301 2.4479 0
M  V30 6261 H 602.628 2.55891 3.30014 0
M  V30 6262 N 603.065 -0.440357 1.51323 0
M  V30 6263 C 604.481 -0.7766 1.39431 0
M  V30 6264 C 604.681 -1.95838 0.474296 0
M  V30 6265 O 603.737 -2.52398 -0.0716692 0
M  V30 6266 C 605.05 -1.05981 2.81405 0
M  V30 6267 C 606.598 -1.16442 2.90534 0
M  V30 6268 C 607.073 -1.48058 4.33408 0
M  V30 6269 N 608.564 -1.54988 4.36501 0
M  V30 6270 C 609.299 -1.81017 5.44078 0
M  V30 6271 N 608.795 -2.04858 6.61819 0
M  V30 6272 N 610.588 -1.82774 5.31554 0
M  V30 6273 H 602.739 0.338006 2.09693 0
M  V30 6274 H 605.002 0.0888072 0.943831 0
M  V30 6275 H 604.708 -0.264173 3.50706 0
M  V30 6276 H 604.582 -1.98822 3.20546 0
M  V30 6277 H 606.969 -1.95068 2.21432 0
M  V30 6278 H 607.05 -0.215088 2.54894 0
M  V30 6279 H 606.694 -0.699605 5.03059 0
M  V30 6280 H 606.624 -2.44192 4.66559 0
M  V30 6281 H 609.115 -1.38479 3.51613 0
M  V30 6282 H 609.428 -2.2408 7.396 0
M  V30 6283 H 607.773 -2.02187 6.6494 0
M  V30 6284 H 610.964 -1.63665 4.38556 0
M  V30 6285 H 611.137 -2.02722 6.15474 0
M  V30 6286 N 604.543 -1.41418 -0.695603 0
M  V30 6287 C 605.959 -1.23887 -1.00619 0
M  V30 6288 C 606.159 -0.128206 -2.01092 0
M  V30 6289 O 605.215 0.507408 -2.47349 0
M  V30 6290 C 606.528 -2.58816 -1.53083 0
M  V30 6291 C 608.076 -2.65998 -1.64967 0
M  V30 6292 C 608.551 -4.01244 -2.20833 0
M  V30 6293 N 610.042 -4.0309 -2.28194 0
M  V30 6294 C 610.777 -5.04539 -2.72448 0
M  V30 6295 N 610.273 -6.16378 -3.16306 0
M  V30 6296 N 612.066 -4.91901 -2.72011 0
M  V30 6297 H 604.217 -2.12379 -0.0300061 0
M  V30 6298 H 606.48 -0.944958 -0.0758797 0
M  V30 6299 H 606.186 -3.40842 -0.867147 0
M  V30 6300 H 606.06 -2.81299 -2.51298 0
M  V30 6301 H 608.447 -1.84331 -2.30448 0
M  V30 6302 H 608.528 -2.47325 -0.652982 0
M  V30 6303 H 608.172 -4.83359 -1.55968 0
M  V30 6304 H 608.102 -4.17257 -3.21254 0
M  V30 6305 H 610.593 -3.22341 -1.97242 0
M  V30 6306 H 610.906 -6.89658 -3.487 0
M  V30 6307 H 609.251 -6.19914 -3.14215 0
M  V30 6308 H 612.442 -4.03613 -2.37095 0
M  V30 6309 H 612.615 -5.71102 -3.06181 0
M  V30 6310 N 606.021 0.929856 -1.27246 0
M  V30 6311 C 607.267 1.6798 -1.13625 0
M  V30 6312 C 607.6 1.91586 0.317589 0
M  V30 6313 O 606.875 1.50467 1.23247 0
M  V30 6314 C 607.158 3.04766 -1.91806 0
M  V30 6315 C 607.011 2.88415 -3.45162 0
M  V30 6316 C 608.33 4.05063 -1.72082 0
M  V30 6317 H 605.449 0.609632 -0.414147 0
M  V30 6318 H 608.091 1.0792 -1.56376 0
M  V30 6319 H 606.241 3.56034 -1.55474 0
M  V30 6320 H 607.913 2.44282 -3.91311 0
M  V30 6321 H 606.156 2.23802 -3.71611 0
M  V30 6322 H 606.827 3.85482 -3.95105 0
M  V30 6323 H 609.303 3.62798 -2.03757 0
M  V30 6324 H 608.179 4.98765 -2.29182 0
M  V30 6325 H 608.44 4.37021 -0.668206 0
M  V30 6326 N 607.499 1.09233 1.13605 0
M  V30 6327 C 608.449 0.6994 2.17008 0
M  V30 6328 C 609.433 -0.285238 1.58352 0
M  V30 6329 O 610.625 -0.09592 1.7674 0
M  V30 6330 C 607.754 0.11938 3.43092 0
M  V30 6331 C 606.84 1.13031 4.0876 0
M  V30 6332 N 607.231 2.31673 4.49623 0
M  V30 6333 C 605.529 0.967999 4.35369 0
M  V30 6334 C 606.23 2.95964 5.00779 0
M  V30 6335 N 605.206 2.23534 4.95513 0
M  V30 6336 H 609.008 1.60272 2.46354 0
M  V30 6337 H 606.522 0.968257 1.30378 0
M  V30 6338 H 608.519 -0.180122 4.16511 0
M  V30 6339 H 607.179 -0.778816 3.15221 0
M  V30 6340 H 608.19 2.69277 4.42391 0
M  V30 6341 H 604.867 0.124319 4.17315 0
M  V30 6342 H 606.257 3.96813 5.42208 0
M  V30 6343 N 608.977 -1.30795 0.87923 0
M  V30 6344 C 609.925 -2.30231 0.331112 0
M  V30 6345 C 610.919 -1.59918 -0.558794 0
M  V30 6346 O 612.125 -1.74441 -0.443866 0
M  V30 6347 H 608.5 -0.746785 0.088409 0
M  V30 6348 H 610.471 -2.73925 1.18353 0
M  V30 6349 C 609.22 -3.44848 -0.444401 0
M  V30 6350 H 608.543 -3.99131 0.231106 0
M  V30 6351 H 609.983 -4.16516 -0.793109 0
M  V30 6352 C 608.442 -2.94329 -1.63926 0
M  V30 6353 O 608.972 -2.93875 -2.73862 0
M  V30 6354 N 607.178 -2.50413 -1.4745 0
M  V30 6355 H 606.725 -2.50982 -0.58015 0
M  V30 6356 H 606.683 -2.16969 -2.27534 0
M  V30 6357 N 610.455 -0.639598 -1.44038 0
M  V30 6358 C 611.418 0.0506628 -2.29144 0
M  V30 6359 C 612.418 0.764001 -1.41491 0
M  V30 6360 O 613.608 0.607309 -1.63271 0
M  V30 6361 C 610.74 1.0824 -3.2326 0
M  V30 6362 H 611.933 -0.697987 -2.91664 0
M  V30 6363 H 609.486 -0.400146 -1.51091 0
M  V30 6364 H 610.221 1.86075 -2.65606 0
M  V30 6365 H 610.006 0.574725 -3.87865 0
M  V30 6366 H 611.496 1.56487 -3.87171 0
M  V30 6367 N 611.933 1.52934 -0.380664 0
M  V30 6368 C 613.161 2.05886 0.204599 0
M  V30 6369 C 613.576 1.25305 1.41223 0
M  V30 6370 O 612.933 0.297504 1.80059 0
M  V30 6371 C 612.984 3.56764 0.583249 0
M  V30 6372 O 612.705 4.34292 -0.576398 0
M  V30 6373 C 614.206 4.2603 1.2253 0
M  V30 6374 H 611.426 0.670193 0.0328991 0
M  V30 6375 H 613.97 1.97148 -0.543397 0
M  V30 6376 H 612.125 3.65603 1.28115 0
M  V30 6377 H 612.539 5.23819 -0.267119 0
M  V30 6378 H 614.013 5.32868 1.44068 0
M  V30 6379 H 614.49 3.80698 2.19011 0
M  V30 6380 H 615.096 4.21485 0.568407 0
M  V30 6381 N 613.412 0.11024 1.57214 0
M  V30 6382 C 614.342 -0.840002 2.17867 0
M  V30 6383 C 615.323 -1.28352 1.11624 0
M  V30 6384 O 616.508 -1.3477 1.39824 0
M  V30 6385 C 613.638 -2.09349 2.77111 0
M  V30 6386 C 612.592 -1.78807 3.8886 0
M  V30 6387 C 611.918 -3.11112 4.34872 0
M  V30 6388 C 613.218 -1.0632 5.11364 0
M  V30 6389 H 614.912 -0.334608 2.97524 0
M  V30 6390 H 612.458 -0.159502 1.43114 0
M  V30 6391 H 614.411 -2.76275 3.18198 0
M  V30 6392 H 613.135 -2.62198 1.9473 0
M  V30 6393 H 611.794 -1.14273 3.48335 0
M  V30 6394 H 611.442 -3.61877 3.49362 0
M  V30 6395 H 611.142 -2.91453 5.10224 0
M  V30 6396 H 612.666 -3.79171 4.78604 0
M  V30 6397 H 614.08 -1.63383 5.49526 0
M  V30 6398 H 612.477 -0.967876 5.92243 0
M  V30 6399 H 613.547 -0.0484569 4.84876 0
M  V30 6400 N 614.89 -1.56749 -0.16351 0
M  V30 6401 C 616.139 -1.81626 -0.877211 0
M  V30 6402 C 616.452 -0.688791 -1.83071 0
M  V30 6403 O 617.658 -0.822697 -2.58735 0
M  V30 6404 C 616.114 -3.21858 -1.61045 0
M  V30 6405 C 615.722 -4.42494 -0.700195 0
M  V30 6406 C 617.466 -3.56021 -2.31192 0
M  V30 6407 C 615.373 -5.73748 -1.43412 0
M  V30 6408 H 614.303 -0.67731 -0.331312 0
M  V30 6409 H 616.954 -1.83039 -0.13006 0
M  V30 6410 H 615.336 -3.14784 -2.40264 0
M  V30 6411 H 616.51 -4.60766 0.0555849 0
M  V30 6412 H 614.825 -4.1626 -0.10799 0
M  V30 6413 H 617.422 -4.51333 -2.8671 0
M  V30 6414 H 617.765 -2.81277 -3.06902 0
M  V30 6415 H 618.298 -3.64682 -1.58909 0
M  V30 6416 H 615.037 -6.51543 -0.719186 0
M  V30 6417 H 614.557 -5.5944 -2.16302 0
M  V30 6418 H 616.236 -6.15975 -1.9795 0
M  V30 6419 N 616.368 0.432326 -1.51554 0
M  V30 6420 C 617.298 1.53242 -1.76179 0
M  V30 6421 C 618.279 1.58717 -0.611801 0
M  V30 6422 O 619.464 1.74364 -0.855033 0
M  V30 6423 C 616.594 2.91278 -1.89141 0
M  V30 6424 C 615.548 3.00663 -3.04608 0
M  V30 6425 C 614.874 4.40728 -3.02759 0
M  V30 6426 C 616.174 2.74281 -4.44485 0
M  V30 6427 H 617.868 1.32886 -2.68294 0
M  V30 6428 H 615.414 0.637841 -1.29103 0
M  V30 6429 H 617.367 3.68203 -2.04951 0
M  V30 6430 H 616.091 3.12877 -0.936785 0
M  V30 6431 H 614.75 2.26179 -2.88511 0
M  V30 6432 H 614.398 4.59301 -2.05065 0
M  V30 6433 H 614.098 4.47936 -3.80299 0
M  V30 6434 H 615.622 5.19619 -3.20669 0
M  V30 6435 H 617.036 3.40936 -4.60907 0
M  V30 6436 H 615.433 2.92893 -5.23769 0
M  V30 6437 H 616.503 1.69856 -4.54177 0
M  V30 6438 N 617.846 1.41785 0.688094 0
M  V30 6439 C 619.071 1.45117 1.48175 0
M  V30 6440 C 619.496 0.060129 1.88004 0
M  V30 6441 O 618.854 -0.938385 1.55126 0
M  V30 6442 C 618.902 2.37224 2.71583 0
M  V30 6443 O 618.006 1.83443 3.69354 0
M  V30 6444 H 617.347 0.492208 0.445676 0
M  V30 6445 H 619.877 1.86329 0.845145 0
M  V30 6446 H 619.887 2.53353 3.19806 0
M  V30 6447 H 618.562 3.38293 2.41931 0
M  V30 6448 H 617.139 1.76802 3.28322 0
M  V30 6449 N 619.324 -0.923095 1.27737 0
M  V30 6450 C 620.234 -2.05765 1.12685 0
M  V30 6451 C 621.25 -1.73911 0.0557197 0
M  V30 6452 O 622.426 -1.99674 0.263137 0
M  V30 6453 C 619.491 -3.37804 0.780363 0
M  V30 6454 C 618.552 -3.83326 1.93286 0
M  V30 6455 C 617.785 -5.09064 1.60281 0
M  V30 6456 O 618.008 -5.6809 0.512828 0
M  V30 6457 O 616.942 -5.50071 2.44347 0
M  V30 6458 H 620.768 -2.21378 2.07907 0
M  V30 6459 H 618.353 -1.04299 1.06968 0
M  V30 6460 H 620.235 -4.17097 0.600668 0
M  V30 6461 H 618.91 -3.23387 -0.142291 0
M  V30 6462 H 617.817 -3.049 2.16764 0
M  V30 6463 H 619.15 -4.02292 2.83588 0
M  V30 6464 N 620.802 -1.09834 -1.13024 0
M  V30 6465 C 622.05 -0.835297 -1.8403 0
M  V30 6466 C 622.371 0.640944 -1.84165 0
M  V30 6467 O 621.641 1.46517 -1.30037 0
M  V30 6468 H 620.221 -0.306018 -0.681441 0
M  V30 6469 H 622.883 -1.38734 -1.36891 0
M  V30 6470 H 621.979 -1.19258 -2.88416 0
M  V30 6471 N 622.28 1.30327 -0.886154 0
M  V30 6472 C 623.21 2.30549 -0.370028 0
M  V30 6473 C 624.191 1.61039 0.547751 0
M  V30 6474 O 625.376 1.8864 0.461353 0
M  V30 6475 C 622.506 3.44808 0.415275 0
M  V30 6476 C 621.46 4.26024 -0.41085 0
M  V30 6477 C 620.786 5.32347 0.501128 0
M  V30 6478 C 622.086 4.95433 -1.65359 0
M  V30 6479 H 623.78 2.73969 -1.20754 0
M  V30 6480 H 621.326 1.3171 -0.582097 0
M  V30 6481 H 623.279 4.13986 0.78699 0
M  V30 6482 H 622.003 3.00197 1.28644 0
M  V30 6483 H 620.662 3.58535 -0.764719 0
M  V30 6484 H 620.31 4.83982 1.37004 0
M  V30 6485 H 620.01 5.87581 -0.0478356 0
M  V30 6486 H 621.534 6.0438 0.869333 0
M  V30 6487 H 622.948 5.5712 -1.35239 0
M  V30 6488 H 621.345 5.60537 -2.14284 0
M  V30 6489 H 622.415 4.21493 -2.39733 0
M  V30 6490 N 623.758 0.647228 1.43697 0
M  V30 6491 C 624.705 -0.0480092 2.3075 0
M  V30 6492 C 625.675 -0.820705 1.44408 0
M  V30 6493 O 626.86 -0.798515 1.73287 0
M  V30 6494 C 624 -1.01259 3.2991 0
M  V30 6495 C 623.113 -0.236629 4.31351 0
M  V30 6496 C 622.248 -1.19447 5.17596 0
M  V30 6497 C 621.287 -0.408595 6.10735 0
M  V30 6498 N 620.424 -1.31772 6.89623 0
M  V30 6499 H 625.264 0.700238 2.89656 0
M  V30 6500 H 622.801 0.357082 1.427 0
M  V30 6501 H 624.759 -1.58538 3.85903 0
M  V30 6502 H 623.389 -1.72778 2.72667 0
M  V30 6503 H 622.441 0.452353 3.77701 0
M  V30 6504 H 623.753 0.374731 4.9739 0
M  V30 6505 H 622.907 -1.83809 5.78186 0
M  V30 6506 H 621.646 -1.83975 4.51669 0
M  V30 6507 H 620.651 0.24841 5.49239 0
M  V30 6508 H 621.876 0.232188 6.78703 0
M  V30 6509 H 619.822 -1.94991 6.2635 0
M  V30 6510 H 619.739 -0.760779 7.52162 0
M  V30 6511 H 621.007 -1.94967 7.54724 0
M  V30 6512 N 625.236 -1.5273 0.388769 0
M  V30 6513 C 626.652 -1.59553 0.0387049 0
M  V30 6514 C 626.852 -1.40278 -1.44652 0
M  V30 6515 O 625.908 -1.21951 -2.21098 0
M  V30 6516 C 627.221 -2.9625 0.515409 0
M  V30 6517 C 628.769 -3.09426 0.471621 0
M  V30 6518 C 629.244 -4.48572 0.924505 0
M  V30 6519 N 630.735 -4.54754 0.880496 0
M  V30 6520 C 631.47 -5.60653 1.20234 0
M  V30 6521 N 630.966 -6.74198 1.59463 0
M  V30 6522 N 632.759 -5.50755 1.12363 0
M  V30 6523 H 624.91 -1.63508 1.35569 0
M  V30 6524 H 627.173 -0.768097 0.555636 0
M  V30 6525 H 626.879 -3.15569 1.5527 0
M  V30 6526 H 626.753 -3.77102 -0.085792 0
M  V30 6527 H 629.14 -2.89804 -0.556588 0
M  V30 6528 H 629.221 -2.30528 1.10862 0
M  V30 6529 H 628.865 -4.68936 1.95094 0
M  V30 6530 H 628.795 -5.25935 0.264524 0
M  V30 6531 H 631.286 -3.73237 0.591815 0
M  V30 6532 H 631.599 -7.5097 1.82385 0
M  V30 6533 H 629.944 -6.75531 1.63349 0
M  V30 6534 H 633.135 -4.6093 0.816169 0
M  V30 6535 H 633.308 -6.33184 1.37777 0
M  V30 6536 N 626.714 -0.118576 -1.57153 0
M  V30 6537 C 627.677 0.817464 -2.14127 0
M  V30 6538 C 628.677 1.1949 -1.07604 0
M  V30 6539 O 629.867 1.12048 -1.33382 0
M  V30 6540 C 626.999 2.10541 -2.68115 0
M  V30 6541 H 628.192 0.322339 -2.98163 0
M  V30 6542 H 625.745 0.130655 -1.55753 0
M  V30 6543 H 626.48 2.64485 -1.87665 0
M  V30 6544 H 626.265 1.84425 -3.4602 0
M  V30 6545 H 627.755 2.77453 -3.12105 0
M  V30 6546 N 628.193 1.56834 0.155195 0
M  V30 6547 C 629.441 1.82536 0.867462 0
M  V30 6548 C 629.762 0.698168 1.82073 0
M  V30 6549 O 629.032 -0.280807 1.93877 0
M  V30 6550 H 627.612 0.673401 0.323327 0
M  V30 6551 H 630.274 1.94313 0.151156 0
M  V30 6552 H 629.37 2.77171 1.43466 0
M  V30 6553 N 629.671 -0.424282 1.51781 0
M  V30 6554 C 630.621 -1.51464 1.70419 0
M  V30 6555 C 631.605 -1.50911 0.558094 0
M  V30 6556 O 632.797 -1.57143 0.814552 0
M  V30 6557 C 629.926 -2.89539 1.84451 0
M  V30 6558 C 629.012 -2.94798 3.04886 0
M  V30 6559 N 629.403 -2.69778 4.27848 0
M  V30 6560 C 627.701 -3.25962 3.04408 0
M  V30 6561 C 628.402 -2.81216 5.09208 0
M  V30 6562 N 627.378 -3.13447 4.44131 0
M  V30 6563 H 631.18 -1.30892 2.63144 0
M  V30 6564 H 628.694 -0.631783 1.49607 0
M  V30 6565 H 630.691 -3.67998 1.95917 0
M  V30 6566 H 629.351 -3.11121 0.929168 0
M  V30 6567 H 630.362 -2.44458 4.56575 0
M  V30 6568 H 627.039 -3.53236 2.22555 0
M  V30 6569 H 628.429 -2.65715 6.17127 0
M  V30 6570 N 631.149 -1.42148 -0.680565 0
M  V30 6571 C 632.081 -1.41119 -1.80605 0
M  V30 6572 C 633.094 -0.311099 -1.598 0
M  V30 6573 O 634.283 -0.573813 -1.69026 0
M  V30 6574 C 631.383 -1.18204 -3.17618 0
M  V30 6575 C 630.556 -2.40537 -3.65322 0
M  V30 6576 C 629.615 -2.13254 -4.8105 0
M  V30 6577 O 628.641 -2.8641 -4.91892 0
M  V30 6578 N 629.843 -1.13208 -5.69354 0
M  V30 6579 H 632.608 -2.38128 -1.81975 0
M  V30 6580 H 630.169 -1.36953 -0.863446 0
M  V30 6581 H 632.161 -0.97878 -3.92686 0
M  V30 6582 H 630.731 -0.29738 -3.11182 0
M  V30 6583 H 629.951 -2.76468 -2.80996 0
M  V30 6584 H 631.239 -3.22012 -3.93936 0
M  V30 6585 H 630.637 -0.526893 -5.63241 0
M  V30 6586 H 629.194 -0.988699 -6.44258 0
M  V30 6587 N 632.627 0.916307 -1.28225 0
M  V30 6588 C 633.557 2.0352 -1.14464 0
M  V30 6589 C 634.538 1.70045 -0.0430844 0
M  V30 6590 O 635.723 1.92954 -0.219619 0
M  V30 6591 C 632.853 3.37889 -0.803027 0
M  V30 6592 C 631.807 3.85516 -1.85908 0
M  V30 6593 C 631.133 5.1682 -1.37116 0
M  V30 6594 C 632.433 4.07655 -3.26519 0
M  V30 6595 H 634.127 2.1529 -2.08064 0
M  V30 6596 H 631.673 1.03446 -1.00174 0
M  V30 6597 H 633.626 4.15654 -0.693537 0
M  V30 6598 H 632.35 3.26164 0.168674 0
M  V30 6599 H 631.009 3.09953 -1.95767 0
M  V30 6600 H 630.657 5.01497 -0.38859 0
M  V30 6601 H 630.357 5.49657 -2.07728 0
M  V30 6602 H 631.881 5.97143 -1.27484 0
M  V30 6603 H 633.295 4.75953 -3.19596 0
M  V30 6604 H 631.692 4.51818 -3.94943 0
M  V30 6605 H 632.762 3.12553 -3.70727 0
M  V30 6606 N 634.105 1.10431 1.1244 0
M  V30 6607 C 635.037 0.710945 2.17895 0
M  V30 6608 C 636.05 -0.252315 1.60833 0
M  V30 6609 O 637.239 -0.03679 1.78462 0
M  V30 6610 C 634.339 0.0284262 3.38888 0
M  V30 6611 C 633.512 1.01585 4.2544 0
M  V30 6612 C 632.571 0.364826 5.24934 0
M  V30 6613 O 631.597 1.01561 5.60066 0
M  V30 6614 N 632.799 -0.87674 5.73841 0
M  V30 6615 H 635.564 1.61826 2.52255 0
M  V30 6616 H 633.125 0.993132 1.27861 0
M  V30 6617 H 635.117 -0.418568 4.0253 0
M  V30 6618 H 633.687 -0.781294 3.02679 0
M  V30 6619 H 632.907 1.64111 3.58415 0
M  V30 6620 H 634.195 1.68425 4.80115 0
M  V30 6621 H 633.593 -1.42483 5.47462 0
M  V30 6622 H 632.15 -1.26688 6.39369 0
M  V30 6623 N 635.583 -1.29855 0.893053 0
M  V30 6624 C 636.533 -2.25493 0.337211 0
M  V30 6625 C 637.517 -1.51606 -0.53894 0
M  V30 6626 O 638.709 -1.72828 -0.382043 0
M  V30 6627 C 635.838 -3.40467 -0.440117 0
M  V30 6628 C 634.924 -4.217 0.450578 0
M  V30 6629 N 635.315 -4.81312 1.55476 0
M  V30 6630 C 633.613 -4.45315 0.247154 0
M  V30 6631 C 634.314 -5.42241 2.10593 0
M  V30 6632 N 633.29 -5.25267 1.39982 0
M  V30 6633 H 637.092 -2.69137 1.18079 0
M  V30 6634 H 634.606 -1.44388 0.743359 0
M  V30 6635 H 636.603 -4.08038 -0.855021 0
M  V30 6636 H 635.263 -2.98361 -1.28104 0
M  V30 6637 H 636.274 -4.80291 1.93755 0
M  V30 6638 H 632.951 -4.13782 -0.555939 0
M  V30 6639 H 634.341 -5.99517 3.03362 0
M  V30 6640 N 637.061 -0.65484 -1.43351 0
M  V30 6641 C 638.338 -0.0987371 -1.95351 0
M  V30 6642 C 638.718 1.38161 -1.59608 0
M  V30 6643 O 638.066 2.10791 -0.882021 0
M  V30 6644 C 638.276 -0.346684 -3.47274 0
M  V30 6645 C 639.624 -0.25249 -4.23849 0
M  V30 6646 O 640.648 -0.279332 -3.55103 0
M  V30 6647 O 639.507 -0.177584 -5.46211 0
M  V30 6648 H 636.601 0.0086829 -0.826954 0
M  V30 6649 H 639.147 -0.728189 -1.53282 0
M  V30 6650 H 637.919 -1.37296 -3.66423 0
M  V30 6651 H 637.542 0.315757 -3.96344 0
M  V30 6652 N 638.539 1.52521 -0.396863 0
M  V30 6653 C 639.469 2.29582 0.425941 0
M  V30 6654 C 640.45 1.33281 1.05689 0
M  V30 6655 O 641.635 1.62181 1.06823 0
M  V30 6656 C 638.765 3.10821 1.54943 0
M  V30 6657 C 637.719 4.15069 1.04413 0
M  V30 6658 C 637.045 4.84578 2.26028 0
M  V30 6659 C 638.345 5.22191 0.106767 0
M  V30 6660 H 640.039 2.98612 -0.217045 0
M  V30 6661 H 637.585 1.43611 -0.105826 0
M  V30 6662 H 639.538 3.63492 2.13193 0
M  V30 6663 H 638.262 2.39538 2.22011 0
M  V30 6664 H 636.921 3.63389 0.484118 0
M  V30 6665 H 636.569 4.09835 2.91623 0
M  V30 6666 H 636.269 5.55043 1.92876 0
M  V30 6667 H 637.793 5.40056 2.84906 0
M  V30 6668 H 639.207 5.70176 0.597685 0
M  V30 6669 H 637.604 5.99947 -0.135352 0
M  V30 6670 H 638.674 4.77531 -0.842134 0
M  V30 6671 N 640.017 0.126909 1.57088 0
M  V30 6672 C 641.264 -0.529168 1.95464 0
M  V30 6673 C 641.592 -1.6618 1.01067 0
M  V30 6674 O 640.847 -1.95667 0.0360254 0
M  V30 6675 C 641.146 -1.095 3.40212 0
M  V30 6676 C 640.812 -0.0829015 4.50824 0
M  V30 6677 C 639.474 0.195377 4.80803 0
M  V30 6678 C 641.826 0.606411 5.1766 0
M  V30 6679 C 639.154 1.16912 5.74933 0
M  V30 6680 C 641.506 1.56884 6.12838 0
M  V30 6681 C 640.17 1.85502 6.41206 0
M  V30 6682 H 639.44 -0.193636 0.715252 0
M  V30 6683 H 642.087 0.209489 1.90351 0
M  V30 6684 H 640.392 -1.91058 3.42059 0
M  V30 6685 H 642.089 -1.61087 3.67222 0
M  V30 6686 H 638.679 -0.309979 4.27478 0
M  V30 6687 H 642.863 0.404597 4.94648 0
M  V30 6688 H 638.119 1.3975 5.95214 0
M  V30 6689 H 642.293 2.10859 6.6371 0
M  V30 6690 H 639.92 2.61109 7.13951 0
M  V30 6691 N 641.495 -1.56914 -0.146875 0
M  V30 6692 C 642.742 -1.83356 -0.859467 0
M  V30 6693 C 643.07 -0.707811 -1.81164 0
M  V30 6694 O 642.325 0.303155 -1.93338 0
M  V30 6695 C 642.624 -3.16128 -1.66727 0
M  V30 6696 C 642.29 -4.42586 -0.861881 0
M  V30 6697 C 640.952 -4.76929 -0.639687 0
M  V30 6698 C 643.304 -5.20344 -0.298643 0
M  V30 6699 C 640.632 -5.86491 0.156451 0
M  V30 6700 C 642.984 -6.30742 0.484536 0
M  V30 6701 C 641.648 -6.63635 0.717306 0
M  V30 6702 H 640.918 -0.670947 -0.314501 0
M  V30 6703 H 643.565 -1.91104 -0.123108 0
M  V30 6704 H 641.87 -3.03831 -2.47374 0
M  V30 6705 H 643.567 -3.33802 -2.2221 0
M  V30 6706 H 640.157 -4.15662 -1.04513 0
M  V30 6707 H 644.341 -4.94186 -0.457585 0
M  V30 6708 H 639.597 -6.10419 0.346292 0
M  V30 6709 H 643.771 -6.90188 0.928105 0
M  V30 6710 H 641.398 -7.48367 1.33607 0
M  V30 6711 N 642.974 0.416227 -1.52004 0
M  V30 6712 C 644.251 1.17637 -1.56272 0
M  V30 6713 C 644.631 2.08352 -0.339493 0
M  V30 6714 O 643.979 2.1833 0.674124 0
M  V30 6715 C 644.189 1.95986 -2.88774 0
M  V30 6716 C 645.537 2.52299 -3.41512 0
M  V30 6717 O 646.561 2.06174 -2.90467 0
M  V30 6718 O 645.42 3.3648 -4.30631 0
M  V30 6719 H 642.514 0.536726 -0.629169 0
M  V30 6720 H 645.06 0.423583 -1.64329 0
M  V30 6721 H 643.832 1.29487 -3.69254 0
M  V30 6722 H 643.455 2.78285 -2.83978 0
M  V30 6723 N 644.452 1.42507 0.673017 0
M  V30 6724 C 645.68 1.46473 1.46128 0
M  V30 6725 C 646.095 0.0765912 1.88645 0
M  V30 6726 O 645.452 -0.909057 1.58248 0
M  V30 6727 C 645.503 2.39339 2.70923 0
M  V30 6728 O 645.224 3.72752 2.3019 0
M  V30 6729 C 646.725 2.52343 3.64469 0
M  V30 6730 H 643.945 0.49812 0.449575 0
M  V30 6731 H 646.489 1.87041 0.826802 0
M  V30 6732 H 644.644 2.02019 3.30556 0
M  V30 6733 H 645.058 4.22503 3.10791 0
M  V30 6734 H 646.532 3.2144 4.48754 0
M  V30 6735 H 647.009 1.56189 4.1049 0
M  V30 6736 H 647.615 2.90392 3.10729 0
M  V30 6737 N 645.93 -0.909495 1.28709 0
M  V30 6738 C 646.86 -2.0291 1.15542 0
M  V30 6739 C 647.841 -1.7002 0.0521017 0
M  V30 6740 O 649.026 -1.92835 0.229849 0
M  V30 6741 C 646.156 -3.37458 0.820935 0
M  V30 6742 C 645.11 -3.84524 1.87949 0
M  V30 6743 C 644.436 -5.16086 1.39854 0
M  V30 6744 C 645.736 -4.05918 3.28676 0
M  V30 6745 H 647.43 -2.14183 2.09203 0
M  V30 6746 H 644.976 -1.02913 1.00722 0
M  V30 6747 H 646.929 -4.1528 0.715571 0
M  V30 6748 H 645.653 -3.26249 -0.151374 0
M  V30 6749 H 644.312 -3.08911 1.97408 0
M  V30 6750 H 643.96 -5.01284 0.41518 0
M  V30 6751 H 643.66 -5.48547 2.1064 0
M  V30 6752 H 645.184 -5.96459 1.30649 0
M  V30 6753 H 646.598 -4.74252 3.22115 0
M  V30 6754 H 644.995 -4.49717 3.97334 0
M  V30 6755 H 646.065 -3.10583 3.72379 0
M  V30 6756 N 647.408 -1.11026 -1.11852 0
M  V30 6757 C 648.355 -0.764662 -2.17765 0
M  V30 6758 C 649.325 0.261854 -1.64023 0
M  V30 6759 O 650.51 0.139748 -1.90288 0
M  V30 6760 C 647.65 -0.209317 -3.44465 0
M  V30 6761 C 646.763 -1.29187 -4.12231 0
M  V30 6762 C 645.898 -0.697523 -5.266 0
M  V30 6763 C 644.937 -1.76023 -5.86244 0
M  V30 6764 N 644.074 -1.18569 -6.92016 0
M  V30 6765 H 648.914 -1.67202 -2.46673 0
M  V30 6766 H 646.451 -0.835065 -1.21099 0
M  V30 6767 H 648.409 0.130599 -4.16996 0
M  V30 6768 H 647.039 0.661251 -3.15955 0
M  V30 6769 H 646.091 -1.74881 -3.37818 0
M  V30 6770 H 647.403 -2.09607 -4.52622 0
M  V30 6771 H 646.557 -0.307412 -6.05921 0
M  V30 6772 H 645.296 0.138044 -4.87505 0
M  V30 6773 H 644.301 -2.1597 -5.05606 0
M  V30 6774 H 645.526 -2.59875 -6.27409 0
M  V30 6775 H 643.472 -0.371695 -6.54946 0
M  V30 6776 H 643.389 -1.92666 -7.31038 0
M  V30 6777 H 644.657 -0.82233 -7.7515 0
M  V30 6778 N 648.886 1.2938 -0.899927 0
M  V30 6779 C 650.135 1.9483 -0.521937 0
M  V30 6780 C 650.448 1.71725 0.936473 0
M  V30 6781 O 651.654 2.31282 1.42199 0
M  V30 6782 C 650.11 3.48911 -0.88255 0
M  V30 6783 C 649.718 3.80815 -2.35974 0
M  V30 6784 C 651.462 4.20595 -0.57448 0
M  V30 6785 C 649.369 5.28142 -2.66121 0
M  V30 6786 H 648.299 0.729285 -0.191468 0
M  V30 6787 H 650.95 1.47103 -1.09695 0
M  V30 6788 H 649.332 3.95293 -0.236459 0
M  V30 6789 H 650.506 3.45291 -3.05141 0
M  V30 6790 H 648.821 3.22271 -2.63686 0
M  V30 6791 H 651.418 5.29031 -0.776556 0
M  V30 6792 H 651.761 4.13442 0.487005 0
M  V30 6793 H 652.294 3.79945 -1.17842 0
M  V30 6794 H 649.033 5.4036 -3.71068 0
M  V30 6795 H 648.553 5.64913 -2.01578 0
M  V30 6796 H 650.232 5.95738 -2.52399 0
M  V30 6797 N 650.364 0.662433 1.43002 0
M  V30 6798 C 651.296 -0.062326 2.29115 0
M  V30 6799 C 652.309 -0.777926 1.43011 0
M  V30 6800 O 653.498 -0.634146 1.66856 0
M  V30 6801 C 650.598 -1.11163 3.2015 0
M  V30 6802 C 649.771 -0.472327 4.34842 0
M  V30 6803 C 648.83 -1.41974 5.06685 0
M  V30 6804 O 647.856 -0.924795 5.61637 0
M  V30 6805 N 649.058 -2.75345 5.11043 0
M  V30 6806 H 651.823 0.676838 2.91957 0
M  V30 6807 H 649.384 0.505907 1.53793 0
M  V30 6808 H 651.376 -1.74643 3.65078 0
M  V30 6809 H 649.946 -1.75266 2.58845 0
M  V30 6810 H 649.166 0.341751 3.92716 0
M  V30 6811 H 650.454 -0.0264381 5.08793 0
M  V30 6812 H 649.852 -3.18108 4.67786 0
M  V30 6813 H 648.409 -3.34105 5.59658 0
M  V30 6814 N 651.842 -1.52309 0.404946 0
M  V30 6815 C 653.082 -2.03677 -0.171779 0
M  V30 6816 C 653.446 -1.28419 -1.42733 0
M  V30 6817 O 654.647 -1.69991 -2.08222 0
M  V30 6818 C 652.918 -3.54951 -0.417701 0
M  V30 6819 S 654.477 -4.28114 -0.962472 0
M  V30 6820 H 651.295 -0.709445 -0.0469912 0
M  V30 6821 H 653.897 -1.874 0.556901 0
M  V30 6822 H 652.601 -4.07306 0.50295 0
M  V30 6823 H 652.132 -3.75462 -1.17437 0
M  V30 6824 H 654.147 -4.42589 -2.24342 0
M  V30 6825 N 653.32 -0.135238 -1.57019 0
M  V30 6826 C 654.568 0.51777 -1.95355 0
M  V30 6827 C 654.889 1.6617 -1.02042 0
M  V30 6828 O 654.159 1.95738 -0.0797343 0
M  V30 6829 H 652.739 0.194264 -0.721298 0
M  V30 6830 H 655.401 -0.207983 -1.93787 0
M  V30 6831 H 654.497 0.901675 -2.98791 0
M  V30 6832 N 654.798 1.5699 0.138552 0
M  V30 6833 C 656.038 1.85619 0.855849 0
M  V30 6834 C 656.402 0.720663 1.77962 0
M  V30 6835 O 657.603 0.888221 2.53701 0
M  V30 6836 C 655.874 3.19447 1.60275 0
M  V30 6837 S 657.433 3.69656 2.36431 0
M  V30 6838 H 654.251 0.650926 0.286035 0
M  V30 6839 H 656.853 1.9516 0.115331 0
M  V30 6840 H 655.557 4.00053 0.915737 0
M  V30 6841 H 655.088 3.12935 2.38402 0
M  V30 6842 H 657.103 3.39595 3.61787 0
M  V30 6843 N 656.276 -0.40816 1.52223 0
M  V30 6844 C 657.501 -1.18127 1.70472 0
M  V30 6845 C 657.926 -1.83491 0.41384 0
M  V30 6846 O 657.284 -1.70047 -0.628778 0
M  V30 6847 C 657.332 -2.21935 2.84213 0
M  V30 6848 O 656.436 -3.28099 2.4985 0
M  V30 6849 H 655.777 -0.344781 0.56747 0
M  V30 6850 H 658.307 -0.478328 1.9893 0
M  V30 6851 H 658.317 -2.66248 3.09153 0
M  V30 6852 H 656.992 -1.73744 3.7787 0
M  V30 6853 H 655.569 -2.89058 2.35584 0
M  V30 6854 N 657.755 -1.42862 -0.66545 0
M  V30 6855 C 659.001 -1.44043 -1.42757 0
M  V30 6856 C 659.334 -0.0599629 -1.94107 0
M  V30 6857 O 658.609 0.917286 -1.71511 0
M  V30 6858 C 658.892 -2.47266 -2.61786 0
M  V30 6859 C 658.745 -3.94539 -2.16007 0
M  V30 6860 C 660.064 -2.47365 -3.64003 0
M  V30 6861 H 657.183 -0.524506 -0.517748 0
M  V30 6862 H 659.825 -1.74335 -0.755466 0
M  V30 6863 H 657.975 -2.21565 -3.19126 0
M  V30 6864 H 659.647 -4.31254 -1.63762 0
M  V30 6865 H 657.89 -4.07957 -1.47491 0
M  V30 6866 H 658.561 -4.62357 -3.01546 0
M  V30 6867 H 661.037 -2.70243 -3.16399 0
M  V30 6868 H 659.913 -3.21552 -4.44854 0
M  V30 6869 H 660.174 -1.50299 -4.15767 0
M  V30 6870 N 659.233 0.902656 -1.29189 0
M  V30 6871 C 660.18 2.00643 -1.14066 0
M  V30 6872 C 661.15 1.66064 -0.0347756 0
M  V30 6873 O 662.335 1.8973 -0.201752 0
M  V30 6874 C 659.475 3.35214 -0.820104 0
M  V30 6875 C 658.588 3.82594 -2.00614 0
M  V30 6876 C 657.723 5.05727 -1.62522 0
M  V30 6877 C 656.762 5.45469 -2.77724 0
M  V30 6878 N 655.899 6.59789 -2.40048 0
M  V30 6879 H 660.739 2.1291 -2.08502 0
M  V30 6880 H 658.276 1.04271 -1.03759 0
M  V30 6881 H 660.234 4.12643 -0.614949 0
M  V30 6882 H 658.864 3.22682 0.0873452 0
M  V30 6883 H 657.916 3.01226 -2.32308 0
M  V30 6884 H 659.228 4.07999 -2.86946 0
M  V30 6885 H 658.382 5.90732 -1.38277 0
M  V30 6886 H 657.121 4.82155 -0.733333 0
M  V30 6887 H 656.126 4.59 -3.02653 0
M  V30 6888 H 657.351 5.71024 -3.67572 0
M  V30 6889 H 655.297 6.37826 -1.53343 0
M  V30 6890 H 655.214 6.84975 -3.19914 0
M  V30 6891 H 656.482 7.4807 -2.19116 0
M  V30 6892 N 660.711 1.11618 1.11262 0
M  V30 6893 C 661.621 0.78898 2.20935 0
M  V30 6894 C 662.637 -0.21867 1.7262 0
M  V30 6895 O 663.813 -0.0543826 2.01327 0
M  V30 6896 C 660.878 0.239014 3.45875 0
M  V30 6897 C 659.939 1.3055 4.08968 0
M  V30 6898 C 659.172 0.781687 5.27944 0
M  V30 6899 O 659.395 -0.387605 5.69082 0
M  V30 6900 O 658.329 1.54734 5.81671 0
M  V30 6901 H 662.155 1.70477 2.51339 0
M  V30 6902 H 659.74 0.892203 1.19834 0
M  V30 6903 H 661.622 -0.0632312 4.21353 0
M  V30 6904 H 660.297 -0.649454 3.17118 0
M  V30 6905 H 659.204 1.66079 3.35214 0
M  V30 6906 H 660.537 2.16743 4.41909 0
M  V30 6907 N 662.189 -1.289 0.906776 0
M  V30 6908 C 663.435 -1.95558 0.53712 0
M  V30 6909 C 663.768 -1.71262 -0.915582 0
M  V30 6910 O 663.043 -1.02961 -1.65013 0
M  V30 6911 C 663.326 -3.50198 0.838645 0
M  V30 6912 C 663.179 -3.83923 2.34357 0
M  V30 6913 C 664.498 -4.38861 0.329988 0
M  V30 6914 H 661.617 -0.710289 0.196617 0
M  V30 6915 H 664.259 -1.52392 1.13475 0
M  V30 6916 H 662.409 -3.87096 0.330024 0
M  V30 6917 H 664.081 -3.56933 2.92227 0
M  V30 6918 H 662.324 -3.31215 2.80141 0
M  V30 6919 H 662.995 -4.91883 2.5051 0
M  V30 6920 H 665.471 -4.08996 0.765609 0
M  V30 6921 H 664.347 -5.45931 0.570105 0
M  V30 6922 H 664.608 -4.35352 -0.769511 0
M  V30 6923 N 663.667 -0.670007 -1.42649 0
M  V30 6924 C 664.597 -0.00258501 -2.335 0
M  V30 6925 C 665.578 0.794364 -1.50412 0
M  V30 6926 O 666.763 0.75248 -1.79029 0
M  V30 6927 C 663.893 0.952748 -3.33976 0
M  V30 6928 C 662.847 0.264733 -4.2718 0
M  V30 6929 C 662.173 1.33267 -5.17826 0
M  V30 6930 C 663.473 -0.853289 -5.15283 0
M  V30 6931 H 665.167 -0.761326 -2.89559 0
M  V30 6932 H 662.713 -0.367561 -1.3923 0
M  V30 6933 H 664.666 1.4287 -3.96442 0
M  V30 6934 H 663.39 1.74285 -2.7621 0
M  V30 6935 H 662.049 -0.190938 -3.66102 0
M  V30 6936 H 661.697 2.11464 -4.5639 0
M  V30 6937 H 661.397 0.877476 -5.81011 0
M  V30 6938 H 662.921 1.80965 -5.83167 0
M  V30 6939 H 664.335 -0.458763 -5.71462 0
M  V30 6940 H 662.732 -1.23398 -5.87276 0
M  V30 6941 H 663.802 -1.70412 -4.53969 0
M  V30 6942 N 665.145 1.52092 -0.413018 0
M  V30 6943 C 666.393 2.01456 0.161178 0
M  V30 6944 C 666.714 1.30034 1.45314 0
M  V30 6945 O 665.984 0.427435 1.9118 0
M  V30 6946 H 664.564 0.744376 0.0625526 0
M  V30 6947 H 667.226 1.86974 -0.550151 0
M  V30 6948 H 666.322 3.1008 0.354517 0
M  V30 6949 N 666.623 0.143563 1.56945 0
M  V30 6950 C 668.039 -0.212877 1.58174 0
M  V30 6951 C 668.239 -1.64926 1.15766 0
M  V30 6952 O 667.295 -2.37535 0.856361 0
M  V30 6953 C 668.608 0.0427573 3.0067 0
M  V30 6954 C 670.156 -0.0212221 3.12993 0
M  V30 6955 C 670.631 0.207036 4.57532 0
M  V30 6956 N 672.122 0.153845 4.62944 0
M  V30 6957 C 672.857 0.305018 5.72588 0
M  V30 6958 N 672.353 0.513722 6.90893 0
M  V30 6959 N 674.146 0.242862 5.61575 0
M  V30 6960 H 666.297 1.08148 1.82805 0
M  V30 6961 H 668.56 0.427831 0.84597 0
M  V30 6962 H 668.266 1.03672 3.36073 0
M  V30 6963 H 668.14 -0.678195 3.71053 0
M  V30 6964 H 670.527 -1.00574 2.77433 0
M  V30 6965 H 670.608 0.732004 2.45103 0
M  V30 6966 H 670.252 1.18863 4.93795 0
M  V30 6967 H 670.182 -0.566473 5.23544 0
M  V30 6968 H 672.673 -0.00294866 3.779 0
M  V30 6969 H 672.986 0.619273 7.70315 0
M  V30 6970 H 671.331 0.550001 6.9282 0
M  V30 6971 H 674.522 0.0806015 4.68031 0
M  V30 6972 H 674.695 0.364112 6.46976 0
M  V30 6973 N 668.101 -1.57061 -0.130224 0
M  V30 6974 C 669.064 -1.98593 -1.14426 0
M  V30 6975 C 670.064 -0.874584 -1.34936 0
M  V30 6976 O 671.254 -1.14086 -1.31643 0
M  V30 6977 C 668.386 -2.31639 -2.50112 0
M  V30 6978 H 669.579 -2.89374 -0.787561 0
M  V30 6979 H 667.132 -1.51756 -0.374146 0
M  V30 6980 H 667.867 -1.43703 -2.90723 0
M  V30 6981 H 667.652 -3.12684 -2.36583 0
M  V30 6982 H 669.142 -2.64551 -3.23114 0
M  V30 6983 N 669.579 0.400081 -1.52437 0
M  V30 6984 C 670.542 1.4707 -1.75793 0
M  V30 6985 C 671.542 1.48036 -0.627856 0
M  V30 6986 O 672.732 1.49401 -0.895817 0
M  V30 6987 C 669.864 2.86427 -1.84858 0
M  V30 6988 H 671.057 1.27649 -2.71377 0
M  V30 6989 H 668.61 0.631141 -1.42991 0
M  V30 6990 H 669.345 3.11207 -0.912194 0
M  V30 6991 H 669.13 2.87128 -2.6702 0
M  V30 6992 H 670.62 3.64023 -2.04638 0
M  V30 6993 N 671.057 1.43213 0.657864 0
M  V30 6994 C 671.989 1.43974 1.78337 0
M  V30 6995 C 673.002 0.336482 1.59285 0
M  V30 6996 O 674.191 0.600631 1.68091 0
M  V30 6997 C 671.291 1.23242 3.15697 0
M  V30 6998 C 670.464 2.46319 3.61449 0
M  V30 6999 C 669.523 2.2088 4.77597 0
M  V30 7000 O 668.549 2.942 4.87273 0
M  V30 7001 N 669.751 1.22251 5.67481 0
M  V30 7002 H 672.516 2.40993 1.78164 0
M  V30 7003 H 670.077 1.3831 0.841549 0
M  V30 7004 H 672.069 1.04113 3.91079 0
M  V30 7005 H 670.639 0.346849 3.1067 0
M  V30 7006 H 669.859 2.80904 2.76563 0
M  V30 7007 H 671.147 3.28239 3.88763 0
M  V30 7008 H 670.545 0.616433 5.62331 0
M  V30 7009 H 669.102 1.09107 6.42603 0
M  V30 7010 N 672.536 -0.895792 1.29666 0
M  V30 7011 C 673.952 -1.17726 1.07763 0
M  V30 7012 C 674.152 -2.00794 -0.168576 0
M  V30 7013 O 673.208 -2.37213 -0.865244 0
M  V30 7014 C 674.521 -1.89441 2.33522 0
M  V30 7015 C 676.069 -2.02251 2.3888 0
M  V30 7016 C 676.544 -2.77378 3.64452 0
M  V30 7017 N 678.035 -2.8493 3.65198 0
M  V30 7018 C 678.77 -3.43606 4.59045 0
M  V30 7019 N 678.266 -4.03417 5.63228 0
M  V30 7020 N 680.059 -3.41317 4.46608 0
M  V30 7021 H 672.21 -0.341652 2.09634 0
M  V30 7022 H 674.473 -0.213865 0.923561 0
M  V30 7023 H 674.179 -1.35842 3.24407 0
M  V30 7024 H 674.053 -2.89893 2.41334 0
M  V30 7025 H 676.44 -2.55025 1.4848 0
M  V30 7026 H 676.521 -1.0092 2.3505 0
M  V30 7027 H 676.165 -2.25279 4.55205 0
M  V30 7028 H 676.095 -3.79062 3.65541 0
M  V30 7029 H 678.586 -2.42453 2.89871 0
M  V30 7030 H 678.899 -4.46224 6.30955 0
M  V30 7031 H 677.244 -4.01868 5.67033 0
M  V30 7032 H 680.435 -2.93812 3.64407 0
M  V30 7033 H 680.608 -3.86751 5.1993 0
M  V30 7034 N 674.014 -1.12206 -1.10668 0
M  V30 7035 C 674.946 -0.74552 -2.16736 0
M  V30 7036 C 675.959 0.226696 -1.61214 0
M  V30 7037 O 677.148 0.0083936 -1.78498 0
M  V30 7038 C 674.248 -0.0823368 -3.388 0
M  V30 7039 C 673.421 -1.08341 -4.2377 0
M  V30 7040 C 672.48 -0.448292 -5.24287 0
M  V30 7041 O 671.506 -1.10458 -5.58379 0
M  V30 7042 N 672.708 0.785336 -5.75163 0
M  V30 7043 H 675.473 -1.65818 -2.49649 0
M  V30 7044 H 673.034 -1.01335 -1.26265 0
M  V30 7045 H 675.026 0.354476 -4.03145 0
M  V30 7046 H 673.596 0.733041 -3.03884 0
M  V30 7047 H 672.816 -1.69792 -3.55759 0
M  V30 7048 H 674.104 -1.76042 -4.77375 0
M  V30 7049 H 673.502 1.33755 -5.4966 0
M  V30 7050 H 672.059 1.16501 -6.41304 0
M  V30 7051 N 675.492 1.28418 -0.913599 0
M  V30 7052 C 676.741 1.94265 -0.542572 0
M  V30 7053 C 677.054 1.72709 0.918207 0
M  V30 7054 O 678.26 2.32778 1.39738 0
M  V30 7055 C 676.716 3.47956 -0.919507 0
M  V30 7056 C 676.324 3.78291 -2.4 0
M  V30 7057 C 678.068 4.19962 -0.619057 0
M  V30 7058 C 675.975 5.2529 -2.71707 0
M  V30 7059 H 674.905 0.727213 -0.199192 0
M  V30 7060 H 677.556 1.45931 -1.11249 0
M  V30 7061 H 675.938 3.9502 -0.278372 0
M  V30 7062 H 677.112 3.42035 -3.08786 0
M  V30 7063 H 675.427 3.19456 -2.67089 0
M  V30 7064 H 678.024 5.28178 -0.832623 0
M  V30 7065 H 678.367 4.13935 0.443126 0
M  V30 7066 H 678.9 3.78674 -1.21865 0
M  V30 7067 H 675.639 5.36394 -3.76778 0
M  V30 7068 H 675.159 5.62743 -2.07559 0
M  V30 7069 H 676.838 5.93027 -2.58703 0
M  V30 7070 N 676.97 0.677563 1.42291 0
M  V30 7071 C 677.918 -0.0106755 2.32598 0
M  V30 7072 C 678.912 -0.787643 1.49975 0
M  V30 7073 O 680.118 -0.695295 1.66029 0
M  V30 7074 H 676.493 -0.0222482 0.751671 0
M  V30 7075 H 678.464 0.768312 2.88339 0
M  V30 7076 C 677.213 -0.946142 3.3458 0
M  V30 7077 H 676.536 -0.357701 3.98197 0
M  V30 7078 H 677.976 -1.39634 4.00348 0
M  V30 7079 C 676.435 -2.05383 2.67057 0
M  V30 7080 O 676.965 -3.1406 2.50458 0
M  V30 7081 N 675.171 -1.82635 2.26038 0
M  V30 7082 H 674.718 -0.942534 2.39737 0
M  V30 7083 H 674.676 -2.56937 1.81192 0
M  V30 7084 N 678.448 -1.51871 0.421078 0
M  V30 7085 C 679.695 -2.01938 -0.15079 0
M  V30 7086 C 680.023 -1.30611 -1.44121 0
M  V30 7087 O 679.278 -0.404631 -1.91471 0
M  V30 7088 C 679.577 -3.54764 -0.433292 0
M  V30 7089 C 679.243 -4.44288 0.76936 0
M  V30 7090 C 677.905 -4.68477 1.09921 0
M  V30 7091 C 680.257 -4.96915 1.57242 0
M  V30 7092 C 677.585 -5.4254 2.2331 0
M  V30 7093 C 679.937 -5.7222 2.69716 0
M  V30 7094 C 678.601 -5.94678 3.03174 0
M  V30 7095 H 677.871 -0.738943 -0.0551781 0
M  V30 7096 H 680.518 -1.82977 0.564945 0
M  V30 7097 H 678.823 -3.71968 -1.23074 0
M  V30 7098 H 680.52 -3.91023 -0.888922 0
M  V30 7099 H 677.11 -4.25646 0.502305 0
M  V30 7100 H 681.294 -4.78125 1.3308 0
M  V30 7101 H 676.55 -5.58146 2.49565 0
M  V30 7102 H 680.724 -6.11992 3.32323 0
M  V30 7103 H 678.351 -6.51848 3.9115 0
M  V30 7104 N 679.926 -0.151884 -1.56866 0
M  V30 7105 C 681.342 0.204486 -1.58285 0
M  V30 7106 C 681.542 1.6431 -1.16639 0
M  V30 7107 O 680.598 2.37077 -0.868946 0
M  V30 7108 C 681.911 -0.0587019 -3.00643 0
M  V30 7109 C 683.459 0.00462303 -3.13 0
M  V30 7110 C 683.934 -0.231297 -4.57416 0
M  V30 7111 N 685.425 -0.178394 -4.62856 0
M  V30 7112 C 686.16 -0.335379 -5.72418 0
M  V30 7113 N 685.656 -0.550355 -6.90611 0
M  V30 7114 N 687.449 -0.272641 -5.61438 0
M  V30 7115 H 679.6 -1.09116 -1.82229 0
M  V30 7116 H 681.863 -0.432311 -0.843689 0
M  V30 7117 H 681.569 -1.05453 -3.35518 0
M  V30 7118 H 681.443 0.658508 -3.71407 0
M  V30 7119 H 683.83 0.991009 -2.77962 0
M  V30 7120 H 683.911 -0.744992 -2.44711 0
M  V30 7121 H 683.555 -1.2148 -4.93158 0
M  V30 7122 H 683.485 0.5387 -5.23837 0
M  V30 7123 H 685.976 -0.0170923 -3.77896 0
M  V30 7124 H 686.289 -0.660116 -7.69976 0
M  V30 7125 H 684.634 -0.586736 -6.92519 0
M  V30 7126 H 687.825 -0.105421 -4.67981 0
M  V30 7127 H 687.998 -0.398418 -6.46774 0
M  V30 7128 N 681.404 1.57128 0.121893 0
M  V30 7129 C 682.334 2.03165 1.15092 0
M  V30 7130 C 683.315 0.915587 1.43356 0
M  V30 7131 O 684.5 1.1851 1.53847 0
M  V30 7132 C 681.63 2.43352 2.47784 0
M  V30 7133 C 680.584 3.58376 2.33989 0
M  V30 7134 C 679.91 3.84454 3.71617 0
M  V30 7135 C 681.21 4.90199 1.80283 0
M  V30 7136 H 682.904 2.89382 0.768023 0
M  V30 7137 H 680.45 1.39218 0.367998 0
M  V30 7138 H 682.403 2.74163 3.20019 0
M  V30 7139 H 681.127 1.54103 2.87958 0
M  V30 7140 H 679.786 3.2777 1.64202 0
M  V30 7141 H 679.434 2.92414 4.09271 0
M  V30 7142 H 679.134 4.61877 3.6324 0
M  V30 7143 H 680.658 4.17714 4.45362 0
M  V30 7144 H 682.072 5.19565 2.42333 0
M  V30 7145 H 680.469 5.71601 1.82735 0
M  V30 7146 H 681.539 4.78904 0.760184 0
M  V30 7147 N 682.882 -0.391992 1.52647 0
M  V30 7148 C 684.129 -1.13732 1.67545 0
M  V30 7149 C 684.457 -1.90045 0.413881 0
M  V30 7150 O 683.712 -1.86157 -0.603646 0
M  V30 7151 C 684.011 -2.14401 2.85949 0
M  V30 7152 C 683.677 -1.54767 4.23507 0
M  V30 7153 C 682.339 -1.38229 4.60919 0
M  V30 7154 C 684.691 -1.11382 5.0916 0
M  V30 7155 C 682.019 -0.7685 5.81645 0
M  V30 7156 C 684.371 -0.514143 6.30507 0
M  V30 7157 C 683.035 -0.33604 6.66654 0
M  V30 7158 H 682.305 -0.416174 0.613091 0
M  V30 7159 H 684.952 -0.422327 1.86785 0
M  V30 7160 H 683.257 -2.92108 2.61114 0
M  V30 7161 H 684.954 -2.71974 2.94671 0
M  V30 7162 H 681.544 -1.68626 3.94035 0
M  V30 7163 H 685.728 -1.22962 4.80826 0
M  V30 7164 H 680.984 -0.618681 6.08262 0
M  V30 7165 H 685.158 -0.169657 6.96193 0
M  V30 7166 H 682.785 0.14166 7.60068 0
M  V30 7167 N 684.36 -1.4356 -0.65026 0
M  V30 7168 C 685.27 -1.514 -1.79207 0
M  V30 7169 C 686.286 -0.400895 -1.69319 0
M  V30 7170 O 687.462 -0.655458 -1.90436 0
M  V30 7171 C 684.527 -1.43737 -3.155 0
M  V30 7172 C 683.588 -2.65743 -3.37163 0
M  V30 7173 C 682.821 -2.58436 -4.66954 0
M  V30 7174 O 683.044 -1.63374 -5.46503 0
M  V30 7175 O 681.978 -3.48984 -4.90402 0
M  V30 7176 H 685.804 -2.47825 -1.75547 0
M  V30 7177 H 683.389 -1.25594 -0.809111 0
M  V30 7178 H 685.271 -1.41916 -3.96784 0
M  V30 7179 H 683.946 -0.504488 -3.19745 0
M  V30 7180 H 682.853 -2.73136 -2.55632 0
M  V30 7181 H 684.186 -3.58014 -3.37768 0
M  V30 7182 N 685.838 0.888903 -1.30139 0
M  V30 7183 C 687.115 1.62145 -1.094 0
M  V30 7184 C 687.495 2.08041 0.358091 0
M  V30 7185 O 686.843 1.84438 1.34888 0
M  V30 7186 C 687.053 2.794 -2.09133 0
M  V30 7187 C 688.401 3.49826 -2.40638 0
M  V30 7188 O 689.425 2.89583 -2.07412 0
M  V30 7189 O 688.284 4.58457 -2.97455 0
M  V30 7190 H 685.378 0.712475 -0.41989 0
M  V30 7191 H 687.924 0.936023 -1.41551 0
M  V30 7192 H 686.696 2.42762 -3.06891 0
M  V30 7193 H 686.319 3.55643 -1.77776 0
M  V30 7194 N 687.317 1.12792 1.10072 0
M  V30 7195 C 688.565 0.883796 1.81751 0
M  V30 7196 C 688.886 -0.591891 1.858 0
M  V30 7197 O 688.156 -1.43017 1.33876 0
M  V30 7198 H 686.736 0.323978 0.673088 0
M  V30 7199 H 689.398 1.42314 1.33164 0
M  V30 7200 H 688.494 1.26863 2.85153 0
M  V30 7201 N 688.795 -1.27931 0.920396 0
M  V30 7202 C 690.023 -1.98805 0.573087 0
M  V30 7203 C 690.438 -1.68724 -0.847201 0
M  V30 7204 O 689.795 -0.943699 -1.56207 0
M  V30 7205 C 689.846 -3.52971 0.780633 0
M  V30 7206 O 689.567 -3.81994 2.14504 0
M  V30 7207 C 691.068 -4.411 0.44105 0
M  V30 7208 H 688.288 -0.634651 0.21785 0
M  V30 7209 H 690.832 -1.62965 1.23542 0
M  V30 7210 H 688.987 -3.87048 0.165204 0
M  V30 7211 H 689.401 -4.76609 2.18962 0
M  V30 7212 H 690.875 -5.48312 0.637006 0
M  V30 7213 H 691.352 -4.34758 -0.62306 0
M  V30 7214 H 691.958 -4.12532 1.0343 0
M  V30 7215 N 690.273 -0.685099 -1.4193 0
M  V30 7216 C 691.203 -0.0273506 -2.33484 0
M  V30 7217 C 692.184 0.778366 -1.51246 0
M  V30 7218 O 693.369 0.733449 -1.79817 0
M  V30 7219 C 690.499 0.917272 -3.34968 0
M  V30 7220 C 689.453 0.21941 -4.27437 0
M  V30 7221 C 688.779 1.27768 -5.1921 0
M  V30 7222 C 690.079 -0.907894 -5.14349 0
M  V30 7223 H 691.773 -0.791994 -2.88735 0
M  V30 7224 H 689.319 -0.382308 -1.38832 0
M  V30 7225 H 691.272 1.38657 -3.97935 0
M  V30 7226 H 689.996 1.71346 -2.78043 0
M  V30 7227 H 688.655 -0.229757 -3.65879 0
M  V30 7228 H 688.303 2.06612 -4.58607 0
M  V30 7229 H 688.003 0.815803 -5.81909 0
M  V30 7230 H 689.527 1.7477 -5.85054 0
M  V30 7231 H 690.941 -0.519348 -5.70943 0
M  V30 7232 H 689.338 -1.2962 -5.85934 0
M  V30 7233 H 690.408 -1.75218 -4.52136 0
M  V30 7234 N 691.751 1.51645 -0.429126 0
M  V30 7235 C 692.999 2.01616 0.139802 0
M  V30 7236 C 693.32 1.31568 1.43927 0
M  V30 7237 O 692.59 0.447688 1.90716 0
M  V30 7238 H 691.17 0.744998 0.054654 0
M  V30 7239 H 693.832 1.8638 -0.569952 0
M  V30 7240 H 692.928 3.10439 0.321609 0
M  V30 7241 N 693.229 0.160201 1.56784 0
M  V30 7242 C 694.478 -0.487619 1.95717 0
M  V30 7243 C 694.791 -1.65136 1.0483 0
M  V30 7244 O 695.997 -2.36468 1.33398 0
M  V30 7245 C 694.453 -0.91888 3.47972 0
M  V30 7246 C 694.061 0.218655 4.47466 0
M  V30 7247 C 695.805 -1.53575 3.95746 0
M  V30 7248 C 693.712 -0.231614 5.90946 0
M  V30 7249 H 692.642 -0.185939 0.730714 0
M  V30 7250 H 695.293 0.246657 1.81835 0
M  V30 7251 H 693.675 -1.70881 3.57234 0
M  V30 7252 H 694.849 0.995825 4.49911 0
M  V30 7253 H 693.164 0.744767 4.09685 0
M  V30 7254 H 695.761 -1.88448 5.00391 0
M  V30 7255 H 696.104 -2.42959 3.38048 0
M  V30 7256 H 696.637 -0.810467 3.89456 0
M  V30 7257 H 693.376 0.62718 6.52493 0
M  V30 7258 H 692.896 -0.974379 5.91833 0
M  V30 7259 H 694.575 -0.67922 6.43425 0
M  V30 7260 N 694.707 -1.5719 -0.113559 0
M  V30 7261 C 695.932 -1.89702 -0.838336 0
M  V30 7262 C 696.357 -0.752679 -1.72384 0
M  V30 7263 O 695.715 0.296575 -1.78858 0
M  V30 7264 C 695.763 -3.20989 -1.64312 0
M  V30 7265 O 694.867 -3.07278 -2.75053 0
M  V30 7266 H 694.208 -0.622339 -0.231496 0
M  V30 7267 H 696.738 -2.04382 -0.0943228 0
M  V30 7268 H 696.748 -3.53843 -2.03123 0
M  V30 7269 H 695.423 -4.03869 -0.993119 0
M  V30 7270 H 694 -2.85901 -2.39406 0
M  V30 7271 N 696.185 0.383891 -1.52853 0
M  V30 7272 C 697.115 1.47559 -1.80965 0
M  V30 7273 C 698.096 1.5669 -0.661986 0
M  V30 7274 O 699.281 1.71556 -0.910072 0
M  V30 7275 C 696.411 2.85114 -1.98312 0
M  V30 7276 C 695.365 2.9082 -3.14019 0
M  V30 7277 C 694.691 4.30873 -3.16627 0
M  V30 7278 C 695.991 2.60001 -4.52986 0
M  V30 7279 H 697.685 1.24283 -2.72386 0
M  V30 7280 H 695.231 0.596445 -1.31067 0
M  V30 7281 H 697.184 3.61496 -2.16561 0
M  V30 7282 H 695.908 3.09738 -1.03585 0
M  V30 7283 H 694.567 2.16886 -2.9556 0
M  V30 7284 H 694.215 4.52545 -2.19573 0
M  V30 7285 H 693.915 4.3561 -3.94357 0
M  V30 7286 H 695.439 5.09154 -3.37038 0
M  V30 7287 H 696.853 3.261 -4.71521 0
M  V30 7288 H 695.25 2.76081 -5.32822 0
M  V30 7289 H 696.32 1.5532 -4.59351 0
M  V30 7290 N 697.663 1.43903 0.642637 0
M  V30 7291 C 698.94 1.36556 1.40043 0
M  V30 7292 C 699.32 0.0185588 2.11092 0
M  V30 7293 O 698.668 -0.998438 2.05532 0
M  V30 7294 C 698.878 2.55596 2.37638 0
M  V30 7295 C 700.226 2.99153 3.01318 0
M  V30 7296 O 701.25 2.55719 2.47965 0
M  V30 7297 O 700.109 3.74427 3.98078 0
M  V30 7298 H 697.203 0.540189 0.626198 0
M  V30 7299 H 699.749 1.55971 0.668657 0
M  V30 7300 H 698.521 3.45256 1.84158 0
M  V30 7301 H 698.144 2.38334 3.18249 0
M  V30 7302 N 699.141 -0.881989 1.30609 0
M  V30 7303 C 700.051 -2.02076 1.19174 0
M  V30 7304 C 701.067 -1.73645 0.11102 0
M  V30 7305 O 702.243 -1.98735 0.326528 0
M  V30 7306 C 699.308 -3.3515 0.887438 0
M  V30 7307 C 698.369 -3.76983 2.05383 0
M  V30 7308 C 697.602 -5.03707 1.76395 0
M  V30 7309 O 697.825 -5.66171 0.693302 0
M  V30 7310 O 696.759 -5.42019 2.61723 0
M  V30 7311 H 700.585 -2.14652 2.14845 0
M  V30 7312 H 698.17 -1.00843 1.10232 0
M  V30 7313 H 700.052 -4.14975 0.73306 0
M  V30 7314 H 698.727 -3.23676 -0.0393354 0
M  V30 7315 H 697.634 -2.97849 2.26355 0
M  V30 7316 H 698.967 -3.93066 2.96243 0
M  V30 7317 N 700.619 -1.13374 -1.09472 0
M  V30 7318 C 701.847 -0.918351 -1.85402 0
M  V30 7319 C 702.262 0.53281 -1.81126 0
M  V30 7320 O 701.619 1.36879 -1.20708 0
M  V30 7321 C 701.67 -1.39743 -3.33398 0
M  V30 7322 O 701.391 -2.79172 -3.37631 0
M  V30 7323 C 702.892 -1.22042 -4.2617 0
M  V30 7324 H 700.112 -0.327511 -0.585643 0
M  V30 7325 H 702.656 -1.50617 -1.38328 0
M  V30 7326 H 700.811 -0.852619 -3.77901 0
M  V30 7327 H 701.225 -3.00428 -4.29934 0
M  V30 7328 H 702.699 -1.60438 -5.2817 0
M  V30 7329 H 703.176 -0.162047 -4.38901 0
M  V30 7330 H 703.782 -1.75323 -3.87482 0
M  V30 7331 N 702.098 1.27442 -0.927168 0
M  V30 7332 C 703.344 1.94679 -0.568164 0
M  V30 7333 C 703.677 1.72697 0.888219 0
M  V30 7334 O 702.952 1.05573 1.63354 0
M  V30 7335 C 703.235 3.4882 -0.894253 0
M  V30 7336 C 703.088 3.80146 -2.40435 0
M  V30 7337 C 704.407 4.38281 -0.399766 0
M  V30 7338 H 701.526 0.707071 -0.207892 0
M  V30 7339 H 704.168 1.50568 -1.15885 0
M  V30 7340 H 702.318 3.86522 -0.391566 0
M  V30 7341 H 703.99 3.52238 -2.97869 0
M  V30 7342 H 702.233 3.26716 -2.85375 0
M  V30 7343 H 702.904 4.87835 -2.58304 0
M  V30 7344 H 705.38 4.07726 -0.83058 0
M  V30 7345 H 704.256 5.44955 -0.656885 0
M  V30 7346 H 704.517 4.36521 0.700153 0
M  V30 7347 N 703.576 0.692616 1.41565 0
M  V30 7348 C 704.524 0.0139952 2.32596 0
M  V30 7349 C 705.518 -0.771691 1.50802 0
M  V30 7350 O 706.724 -0.677646 1.66757 0
M  V30 7351 H 703.099 -0.0142745 0.751865 0
M  V30 7352 H 705.07 0.798851 2.87508 0
M  V30 7353 C 703.819 -0.910602 3.35564 0
M  V30 7354 H 703.142 -0.315446 3.98554 0
M  V30 7355 H 704.582 -1.3538 4.01806 0
M  V30 7356 C 703.041 -2.02539 2.6922 0
M  V30 7357 O 703.571 -3.11386 2.53775 0
M  V30 7358 N 701.777 -1.80227 2.27962 0
M  V30 7359 H 701.324 -0.917054 2.40724 0
M  V30 7360 H 701.282 -2.55001 1.83907 0
M  V30 7361 N 705.054 -1.51416 0.437162 0
M  V30 7362 C 705.964 -2.31493 -0.380537 0
M  V30 7363 C 706.98 -1.40399 -1.02782 0
M  V30 7364 O 708.156 -1.73471 -1.02323 0
M  V30 7365 C 705.221 -3.1413 -1.46709 0
M  V30 7366 C 704.282 -4.21003 -0.839953 0
M  V30 7367 C 703.515 -4.9969 -1.87473 0
M  V30 7368 O 703.738 -4.79008 -3.09689 0
M  V30 7369 O 702.672 -5.8379 -1.46536 0
M  V30 7370 H 706.498 -3.02469 0.273183 0
M  V30 7371 H 704.083 -1.48059 0.199706 0
M  V30 7372 H 705.965 -3.65505 -2.09724 0
M  V30 7373 H 704.64 -2.45919 -2.10489 0
M  V30 7374 H 703.547 -3.73706 -0.171752 0
M  V30 7375 H 704.88 -4.91587 -0.245638 0
M  V30 7376 N 706.532 -0.168513 -1.56696 0
M  V30 7377 C 707.479 0.762875 -2.17828 0
M  V30 7378 C 708.449 1.22892 -1.11745 0
M  V30 7379 O 709.634 1.29759 -1.39883 0
M  V30 7380 C 706.774 1.9879 -2.82093 0
M  V30 7381 C 705.887 1.56568 -4.02629 0
M  V30 7382 C 705.022 2.74416 -4.54829 0
M  V30 7383 C 704.061 2.28671 -5.67782 0
M  V30 7384 N 703.198 3.39602 -6.14504 0
M  V30 7385 H 708.038 0.23479 -2.97074 0
M  V30 7386 H 705.575 0.104163 -1.46731 0
M  V30 7387 H 707.533 2.70636 -3.17509 0
M  V30 7388 H 706.163 2.48973 -2.05456 0
M  V30 7389 H 705.215 0.744067 -3.73052 0
M  V30 7390 H 706.527 1.18988 -4.844 0
M  V30 7391 H 705.681 3.54423 -4.92412 0
M  V30 7392 H 704.42 3.15254 -3.7211 0
M  V30 7393 H 703.425 1.4711 -5.29753 0
M  V30 7394 H 704.65 1.88894 -6.52301 0
M  V30 7395 H 702.596 3.80021 -5.34715 0
M  V30 7396 H 702.513 3.06105 -6.91257 0
M  V30 7397 H 703.781 4.19902 -6.56737 0
M  V30 7398 N 708.01 1.57248 0.105221 0
M  V30 7399 C 709.287 1.76566 0.841647 0
M  V30 7400 C 709.667 0.747566 1.9742 0
M  V30 7401 O 709.015 -0.225886 2.27381 0
M  V30 7402 C 709.225 3.22016 1.3456 0
M  V30 7403 C 710.573 3.84911 1.79244 0
M  V30 7404 O 711.597 3.25703 1.44207 0
M  V30 7405 O 710.456 4.89008 2.43995 0
M  V30 7406 H 707.55 0.723443 0.400698 0
M  V30 7407 H 710.096 1.69472 0.0878893 0
M  V30 7408 H 708.868 3.87644 0.533685 0
M  V30 7409 H 708.491 3.33703 2.16167 0
M  V30 7410 N 709.488 -0.375779 1.53054 0
M  V30 7411 C 710.418 -1.46598 1.81745 0
M  V30 7412 C 711.399 -1.56337 0.670286 0
M  V30 7413 O 712.584 -1.71071 0.919158 0
M  V30 7414 C 709.714 -2.84058 1.99821 0
M  V30 7415 C 708.668 -2.8915 3.15557 0
M  V30 7416 C 707.994 -4.29187 3.18908 0
M  V30 7417 C 709.294 -2.57595 4.54359 0
M  V30 7418 H 710.988 -1.22837 2.73041 0
M  V30 7419 H 708.534 -0.589485 1.31381 0
M  V30 7420 H 710.487 -3.60342 2.18475 0
M  V30 7421 H 709.211 -3.09184 1.05226 0
M  V30 7422 H 707.87 -2.15316 2.96706 0
M  V30 7423 H 707.518 -4.51374 2.2197 0
M  V30 7424 H 707.218 -4.33512 3.96662 0
M  V30 7425 H 708.742 -5.07359 3.39734 0
M  V30 7426 H 710.156 -3.23595 4.73243 0
M  V30 7427 H 708.553 -2.73252 5.34279 0
M  V30 7428 H 709.623 -1.52882 4.60169 0
M  V30 7429 N 710.966 -1.44241 -0.634997 0
M  V30 7430 C 712.243 -1.37296 -1.39317 0
M  V30 7431 C 712.623 -0.0297532 -2.11079 0
M  V30 7432 O 711.971 0.987524 -2.06059 0
M  V30 7433 C 712.181 -2.56853 -2.36279 0
M  V30 7434 C 713.529 -3.00747 -2.99728 0
M  V30 7435 O 714.553 -2.5703 -2.46605 0
M  V30 7436 O 713.412 -3.76533 -3.96087 0
M  V30 7437 H 710.506 -0.543503 -0.623325 0
M  V30 7438 H 713.052 -1.56324 -0.660376 0
M  V30 7439 H 711.824 -3.46228 -1.82324 0
M  V30 7440 H 711.447 -2.40019 -3.16981 0
M  V30 7441 N 712.444 0.87505 -1.31075 0
M  V30 7442 C 713.721 1.60976 -1.11113 0
M  V30 7443 C 714.101 2.08409 0.336006 0
M  V30 7444 O 713.449 1.85858 1.32924 0
M  V30 7445 C 713.659 2.77166 -2.12085 0
M  V30 7446 C 715.007 3.47254 -2.44335 0
M  V30 7447 O 716.031 2.87367 -2.10472 0
M  V30 7448 O 714.89 4.55276 -3.02301 0
M  V30 7449 H 711.984 0.707982 -0.427424 0
M  V30 7450 H 714.53 0.920957 -1.42536 0
M  V30 7451 H 713.302 2.39494 -3.09449 0
M  V30 7452 H 712.925 3.53737 -1.81538 0
M  V30 7453 N 713.922 1.13953 1.08869 0
M  V30 7454 C 714.852 0.844824 2.17681 0
M  V30 7455 C 715.833 -0.198213 1.68941 0
M  V30 7456 O 717.018 -0.0559073 1.9412 0
M  V30 7457 C 714.148 0.316325 3.45856 0
M  V30 7458 C 713.102 1.29426 4.07962 0
M  V30 7459 C 712.428 0.625275 5.31031 0
M  V30 7460 C 713.728 2.65484 4.49795 0
M  V30 7461 H 715.422 1.75471 2.42591 0
M  V30 7462 H 712.968 0.845116 1.16592 0
M  V30 7463 H 714.921 0.0977876 4.21287 0
M  V30 7464 H 713.645 -0.628972 3.20486 0
M  V30 7465 H 712.304 1.49889 3.34558 0
M  V30 7466 H 711.952 -0.325678 5.01945 0
M  V30 7467 H 711.652 1.27777 5.73539 0
M  V30 7468 H 713.176 0.416152 6.0918 0
M  V30 7469 H 714.59 2.48957 5.16424 0
M  V30 7470 H 712.987 3.26963 5.03205 0
M  V30 7471 H 714.057 3.22717 3.61914 0
M  V30 7472 N 715.4 -1.26948 0.933913 0
M  V30 7473 C 716.33 -2.29017 0.45534 0
M  V30 7474 C 717.311 -1.62961 -0.487605 0
M  V30 7475 O 718.496 -1.90223 -0.391022 0
M  V30 7476 C 715.626 -3.46112 -0.287015 0
M  V30 7477 C 714.58 -4.24205 0.568682 0
M  V30 7478 C 713.906 -5.3384 -0.303206 0
M  V30 7479 C 715.206 -4.88954 1.83633 0
M  V30 7480 H 716.9 -2.69298 1.30839 0
M  V30 7481 H 714.446 -1.29459 0.630579 0
M  V30 7482 H 716.399 -4.16622 -0.6328 0
M  V30 7483 H 715.123 -3.04765 -1.17414 0
M  V30 7484 H 713.782 -3.5545 0.897261 0
M  V30 7485 H 713.43 -4.88734 -1.18947 0
M  V30 7486 H 713.13 -5.86998 0.265879 0
M  V30 7487 H 714.654 -6.0719 -0.644423 0
M  V30 7488 H 716.068 -5.51717 1.55823 0
M  V30 7489 H 714.465 -5.52198 2.34941 0
M  V30 7490 H 715.535 -4.12305 2.55211 0
M  V30 7491 N 716.879 -0.700114 -1.41195 0
M  V30 7492 C 718.125 -0.242122 -2.01954 0
M  V30 7493 C 718.48 1.14697 -1.54475 0
M  V30 7494 O 717.773 1.76392 -0.748095 0
M  V30 7495 C 717.967 -0.243986 -3.56566 0
M  V30 7496 C 717.796 -1.63172 -4.19053 0
M  V30 7497 C 716.566 -2.23566 -4.53152 0
M  V30 7498 C 718.764 -2.57916 -4.44954 0
M  V30 7499 N 716.746 -3.54856 -5.00949 0
M  V30 7500 C 718.117 -3.73892 -4.94576 0
M  V30 7501 C 720.172 -2.56125 -4.26971 0
M  V30 7502 C 718.875 -4.88363 -5.28104 0
M  V30 7503 C 720.901 -3.69712 -4.61592 0
M  V30 7504 C 720.263 -4.84418 -5.11389 0
M  V30 7505 H 716.362 -0.134088 -0.770418 0
M  V30 7506 H 718.946 -0.918576 -1.71669 0
M  V30 7507 H 717.117 0.401971 -3.86314 0
M  V30 7508 H 718.849 0.229261 -4.0405 0
M  V30 7509 H 715.604 -1.75809 -4.39759 0
M  V30 7510 H 716.028 -4.22167 -5.29249 0
M  V30 7511 H 720.67 -1.68656 -3.87705 0
M  V30 7512 H 718.388 -5.76488 -5.66292 0
M  V30 7513 H 721.974 -3.69583 -4.49332 0
M  V30 7514 H 720.854 -5.70855 -5.37675 0
M  V30 7515 N 718.357 1.51182 -0.445186 0
M  V30 7516 C 719.606 2.01342 0.120189 0
M  V30 7517 C 719.919 1.33353 1.43095 0
M  V30 7518 O 721.125 1.74525 2.07974 0
M  V30 7519 C 719.581 3.58925 0.264732 0
M  V30 7520 C 719.189 4.35855 -1.03606 0
M  V30 7521 C 720.933 4.17208 0.783455 0
M  V30 7522 C 718.84 5.85162 -0.856731 0
M  V30 7523 H 717.77 0.752426 0.0486922 0
M  V30 7524 H 720.421 1.74221 -0.576143 0
M  V30 7525 H 718.803 3.82525 1.02425 0
M  V30 7526 H 719.977 4.23997 -1.80452 0
M  V30 7527 H 718.292 3.89062 -1.48391 0
M  V30 7528 H 720.889 5.26475 0.934239 0
M  V30 7529 H 721.232 3.76892 1.768 0
M  V30 7530 H 721.765 3.97715 0.0820346 0
M  V30 7531 H 718.504 6.29904 -1.81388 0
M  V30 7532 H 718.024 5.99663 -0.128206 0
M  V30 7533 H 719.703 6.44963 -0.513027 0
M  V30 7534 N 719.835 0.176821 1.56605 0
M  V30 7535 C 721.082 -0.466715 1.97048 0
M  V30 7536 C 721.41 -1.6288 1.06302 0
M  V30 7537 O 720.665 -1.95453 0.0982571 0
M  V30 7538 C 720.964 -0.986208 3.43524 0
M  V30 7539 C 720.63 0.0605667 4.50859 0
M  V30 7540 C 719.292 0.348242 4.79938 0
M  V30 7541 C 721.644 0.770794 5.15469 0
M  V30 7542 C 718.972 1.35144 5.70923 0
M  V30 7543 C 721.324 1.76301 6.07537 0
M  V30 7544 C 719.988 2.05808 6.3498 0
M  V30 7545 H 719.258 -0.170783 0.721051 0
M  V30 7546 H 721.905 0.269942 1.89588 0
M  V30 7547 H 720.21 -1.80079 3.47964 0
M  V30 7548 H 721.907 -1.49323 3.72161 0
M  V30 7549 H 718.497 -0.173823 4.28247 0
M  V30 7550 H 722.681 0.56176 4.9311 0
M  V30 7551 H 717.937 1.58616 5.90467 0
M  V30 7552 H 722.111 2.31868 6.56666 0
M  V30 7553 H 719.738 2.8369 7.05283 0
M  V30 7554 N 721.313 -1.57302 -0.09688 0
M  V30 7555 C 722.561 -1.8563 -0.799117 0
M  V30 7556 C 722.882 -0.765263 -1.79356 0
M  V30 7557 O 722.152 0.208657 -1.94786 0
M  V30 7558 H 720.732 -0.684937 -0.298111 0
M  V30 7559 H 723.394 -1.9474 -0.0789341 0
M  V30 7560 H 722.49 -2.82305 -1.3308 0
M  V30 7561 N 722.791 0.367657 -1.53252 0
M  V30 7562 C 724.031 1.11923 -1.71034 0
M  V30 7563 C 724.395 1.86618 -0.45143 0
M  V30 7564 O 725.596 2.63996 -0.505915 0
M  V30 7565 C 723.867 2.05461 -2.92439 0
M  V30 7566 S 725.426 2.88167 -3.30916 0
M  V30 7567 H 722.244 0.378549 -0.601848 0
M  V30 7568 H 724.846 0.400757 -1.91348 0
M  V30 7569 H 723.55 1.49346 -3.82262 0
M  V30 7570 H 723.081 2.81784 -2.7452 0
M  V30 7571 H 725.096 4.07746 -2.82767 0
M  V30 7572 N 724.269 1.44576 0.627338 0
M  V30 7573 C 725.179 1.54232 1.76776 0
M  V30 7574 C 726.195 0.427782 1.6866 0
M  V30 7575 O 727.371 0.685671 1.89369 0
M  V30 7576 C 724.436 1.48738 3.13174 0
M  V30 7577 C 723.497 2.71074 3.32893 0
M  V30 7578 C 722.73 2.65832 4.62784 0
M  V30 7579 O 722.953 1.72048 5.43834 0
M  V30 7580 O 721.887 3.56742 4.84787 0
M  V30 7581 H 725.713 2.50586 1.71582 0
M  V30 7582 H 723.298 1.26865 0.789028 0
M  V30 7583 H 725.18 1.48211 3.94476 0
M  V30 7584 H 723.855 0.555292 3.18902 0
M  V30 7585 H 722.762 2.77168 2.51254 0
M  V30 7586 H 724.095 3.63342 3.32029 0
M  V30 7587 N 725.747 -0.868086 1.31537 0
M  V30 7588 C 726.972 -1.65926 1.24432 0
M  V30 7589 C 727.397 -1.87169 -0.186936 0
M  V30 7590 O 726.755 -1.4148 -1.13371 0
M  V30 7591 C 726.803 -3.00347 1.9956 0
M  V30 7592 O 725.907 -3.90221 1.33422 0
M  V30 7593 H 725.248 -0.506375 0.429512 0
M  V30 7594 H 727.778 -1.0822 1.73637 0
M  V30 7595 H 727.788 -3.50269 2.09226 0
M  V30 7596 H 726.463 -2.84205 3.03645 0
M  V30 7597 H 725.04 -3.48672 1.32219 0
M  V30 7598 N 727.225 -1.14528 -1.08264 0
M  V30 7599 C 728.45 -0.938381 -1.84957 0
M  V30 7600 C 728.875 0.508044 -1.81109 0
M  V30 7601 O 728.233 1.36146 -1.19724 0
M  V30 7602 C 728.281 -1.44568 -3.30352 0
M  V30 7603 O 727.385 -0.638745 -4.07423 0
M  V30 7604 H 726.726 -0.335394 -0.573068 0
M  V30 7605 H 729.256 -1.52287 -1.36637 0
M  V30 7606 H 729.266 -1.45449 -3.81194 0
M  V30 7607 H 727.941 -2.49876 -3.32468 0
M  V30 7608 H 726.518 -0.698801 -3.66294 0
M  V30 7609 N 728.703 1.26451 -0.940633 0
M  V30 7610 C 729.666 2.24651 -0.454378 0
M  V30 7611 C 730.666 1.54826 0.434222 0
M  V30 7612 O 731.856 1.72628 0.233477 0
M  V30 7613 C 728.988 3.39148 0.345192 0
M  V30 7614 H 730.181 2.69182 -1.32217 0
M  V30 7615 H 727.734 1.38596 -0.722547 0
M  V30 7616 H 728.469 3.00018 1.23125 0
M  V30 7617 H 728.254 3.9101 -0.292107 0
M  V30 7618 H 729.744 4.12103 0.675341 0
M  V30 7619 N 730.181 0.707592 1.40822 0
M  V30 7620 C 731.091 0.0507246 2.34545 0
M  V30 7621 C 732.107 -0.752727 1.56876 0
M  V30 7622 O 733.283 -0.687524 1.89302 0
M  V30 7623 C 730.348 -0.865731 3.35717 0
M  V30 7624 C 729.409 -0.0531313 4.29267 0
M  V30 7625 C 728.642 -0.925939 5.25606 0
M  V30 7626 O 728.865 -2.16531 5.27703 0
M  V30 7627 O 727.799 -0.369194 6.00767 0
M  V30 7628 H 731.625 0.823587 2.9232 0
M  V30 7629 H 729.21 0.46801 1.4188 0
M  V30 7630 H 731.092 -1.39091 3.97783 0
M  V30 7631 H 729.767 -1.61788 2.80368 0
M  V30 7632 H 728.674 0.516931 3.70511 0
M  V30 7633 H 730.007 0.660617 4.87747 0
M  V30 7634 N 731.66 -1.50943 0.453197 0
M  V30 7635 C 732.59 -2.31005 -0.34044 0
M  V30 7636 C 733.571 -1.37112 -1.00669 0
M  V30 7637 O 734.756 -1.66033 -1.0073 0
M  V30 7638 C 731.886 -3.16358 -1.433 0
M  V30 7639 C 730.84 -4.18658 -0.889363 0
M  V30 7640 C 730.166 -4.92633 -2.07887 0
M  V30 7641 C 731.466 -5.22227 0.0871142 0
M  V30 7642 H 733.16 -2.97601 0.327723 0
M  V30 7643 H 730.706 -1.43119 0.159054 0
M  V30 7644 H 732.659 -3.71155 -1.99555 0
M  V30 7645 H 731.383 -2.47613 -2.12968 0
M  V30 7646 H 730.042 -3.64936 -0.348915 0
M  V30 7647 H 729.69 -4.20376 -2.76211 0
M  V30 7648 H 729.39 -5.61819 -1.72143 0
M  V30 7649 H 730.914 -5.50258 -2.64666 0
M  V30 7650 H 732.328 -5.72001 -0.385656 0
M  V30 7651 H 730.725 -5.99032 0.357926 0
M  V30 7652 H 731.795 -4.74077 1.01879 0
M  V30 7653 N 733.138 -0.185124 -1.56509 0
M  V30 7654 C 734.384 0.456934 -1.97585 0
M  V30 7655 C 734.717 1.61957 -1.07161 0
M  V30 7656 O 733.992 1.9412 -0.121546 0
M  V30 7657 C 734.275 0.926666 -3.47973 0
M  V30 7658 C 734.128 -0.237097 -4.49175 0
M  V30 7659 C 735.447 1.79561 -4.01803 0
M  V30 7660 H 732.566 0.164619 -0.71838 0
M  V30 7661 H 735.208 -0.274039 -1.88013 0
M  V30 7662 H 733.358 1.54954 -3.56261 0
M  V30 7663 H 735.03 -0.87454 -4.52934 0
M  V30 7664 H 733.273 -0.890446 -4.24563 0
M  V30 7665 H 733.944 0.133924 -5.51838 0
M  V30 7666 H 736.42 1.27039 -3.96232 0
M  V30 7667 H 735.296 2.09327 -5.07418 0
M  V30 7668 H 735.557 2.74629 -3.46455 0
M  V30 7669 N 734.616 1.57351 0.0885366 0
M  V30 7670 C 735.579 2.01557 1.09121 0
M  V30 7671 C 736.579 0.910052 1.3257 0
M  V30 7672 O 737.769 1.17537 1.28572 0
M  V30 7673 C 734.901 2.38189 2.43883 0
M  V30 7674 H 736.094 2.91361 0.710562 0
M  V30 7675 H 733.647 1.52694 0.333779 0
M  V30 7676 H 734.382 1.5136 2.86811 0
M  V30 7677 H 734.167 3.18846 2.28209 0
M  V30 7678 H 735.657 2.73025 3.15986 0
M  V30 7679 N 736.094 -0.359525 1.53444 0
M  V30 7680 C 737.004 -1.46445 1.83278 0
M  V30 7681 C 738.02 -1.5833 0.721629 0
M  V30 7682 O 739.196 -1.7411 1.01231 0
M  V30 7683 C 736.261 -2.81638 2.02191 0
M  V30 7684 C 735.322 -2.7923 3.26082 0
M  V30 7685 C 734.555 -4.07974 3.44082 0
M  V30 7686 O 734.778 -5.04447 2.66251 0
M  V30 7687 O 733.712 -4.13417 4.37458 0
M  V30 7688 H 737.538 -1.24156 2.77162 0
M  V30 7689 H 735.123 -0.550201 1.389 0
M  V30 7690 H 737.005 -3.61732 2.16167 0
M  V30 7691 H 735.68 -3.03892 1.11496 0
M  V30 7692 H 734.587 -1.97813 3.17523 0
M  V30 7693 H 735.92 -2.6193 4.16718 0
M  V30 7694 N 737.572 -1.44907 -0.619662 0
M  V30 7695 C 738.797 -1.52021 -1.41083 0
M  V30 7696 C 739.222 -0.14976 -1.87503 0
M  V30 7697 O 738.58 0.863303 -1.59426 0
M  V30 7698 C 738.628 -2.49911 -2.59955 0
M  V30 7699 O 737.732 -2.00857 -3.60181 0
M  V30 7700 H 737.073 -0.512912 -0.421684 0
M  V30 7701 H 739.603 -1.90149 -0.755282 0
M  V30 7702 H 739.613 -2.68323 -3.07354 0
M  V30 7703 H 738.288 -3.4945 -2.25516 0
M  V30 7704 H 736.865 -1.92265 -3.19513 0
M  V30 7705 N 739.05 0.861098 -1.31996 0
M  V30 7706 C 739.983 1.97266 -1.14724 0
M  V30 7707 C 740.961 1.62528 -0.0483789 0
M  V30 7708 O 742.145 1.87366 -0.206478 0
M  V30 7709 C 739.272 3.30181 -0.754861 0
M  V30 7710 C 738.318 3.839 -1.85804 0
M  V30 7711 S 739.151 4.08274 -3.46515 0
M  V30 7712 C 740.307 5.44174 -3.09235 0
M  V30 7713 H 740.54 2.11614 -2.08822 0
M  V30 7714 H 738.073 1.01232 -1.16582 0
M  V30 7715 H 740.031 4.06996 -0.535232 0
M  V30 7716 H 738.692 3.13655 0.167155 0
M  V30 7717 H 737.885 4.80013 -1.53633 0
M  V30 7718 H 737.487 3.13907 -2.03318 0
M  V30 7719 H 739.779 6.26172 -2.58679 0
M  V30 7720 H 740.722 5.81301 -4.04345 0
M  V30 7721 H 741.13 5.0787 -2.46431 0
M  V30 7722 N 740.528 1.15101 1.07655 0
M  V30 7723 C 741.776 0.922149 1.79836 0
M  V30 7724 C 742.097 -0.552346 1.87014 0
M  V30 7725 O 741.367 -1.40145 1.3688 0
M  V30 7726 H 739.947 0.338182 0.666064 0
M  V30 7727 H 742.609 1.45107 1.30115 0
M  V30 7728 H 741.705 1.32883 2.82398 0
M  V30 7729 N 742.006 -1.2595 0.947325 0
M  V30 7730 C 742.916 -2.29883 0.468079 0
M  V30 7731 C 743.932 -1.67783 -0.460975 0
M  V30 7732 O 745.108 -1.98526 -0.339006 0
M  V30 7733 C 742.173 -3.45773 -0.253315 0
M  V30 7734 C 741.234 -4.23337 0.713054 0
M  V30 7735 C 740.467 -5.33694 0.025993 0
M  V30 7736 O 740.69 -5.57853 -1.18978 0
M  V30 7737 O 739.624 -5.97724 0.70782 0
M  V30 7738 H 743.45 -2.72952 1.33156 0
M  V30 7739 H 741.035 -1.31263 0.713468 0
M  V30 7740 H 742.917 -4.16209 -0.659423 0
M  V30 7741 H 741.592 -3.04721 -1.09209 0
M  V30 7742 H 740.499 -3.55359 1.16923 0
M  V30 7743 H 741.832 -4.68154 1.51963 0
M  V30 7744 N 743.484 -0.715051 -1.40445 0
M  V30 7745 C 744.394 -0.0631624 -2.34515 0
M  V30 7746 C 745.41 0.744397 -1.57273 0
M  V30 7747 O 746.586 0.677475 -1.89663 0
M  V30 7748 C 743.651 0.847915 -3.36172 0
M  V30 7749 C 742.712 0.0303655 -4.29289 0
M  V30 7750 C 741.945 0.898051 -5.2609 0
M  V30 7751 O 742.168 2.13729 -5.28844 0
M  V30 7752 O 741.102 0.337328 -6.00954 0
M  V30 7753 H 744.928 -0.839078 -2.91879 0
M  V30 7754 H 742.513 -0.475527 -1.4163 0
M  V30 7755 H 744.395 1.3698 -3.98515 0
M  V30 7756 H 743.07 1.60299 -2.81222 0
M  V30 7757 H 741.977 -0.536573 -3.70232 0
M  V30 7758 H 743.31 -0.686474 -4.87389 0
M  V30 7759 N 744.962 1.50701 -0.461195 0
M  V30 7760 C 746.202 2.04174 0.0960673 0
M  V30 7761 C 746.566 1.33628 1.37868 0
M  V30 7762 O 747.767 1.77602 2.0177 0
M  V30 7763 C 746.038 3.56256 0.285676 0
M  V30 7764 S 747.597 4.31392 0.802917 0
M  V30 7765 H 744.415 0.710701 0.0206282 0
M  V30 7766 H 747.017 1.85204 -0.62607 0
M  V30 7767 H 745.721 4.05159 -0.653773 0
M  V30 7768 H 745.252 3.79562 1.03421 0
M  V30 7769 H 747.267 4.50611 2.07761 0
M  V30 7770 N 746.441 0.193421 1.56409 0
M  V30 7771 C 747.857 -0.162447 1.58771 0
M  V30 7772 C 748.057 -1.6116 1.20954 0
M  V30 7773 O 747.113 -2.3469 0.931497 0
M  V30 7774 C 748.426 0.138391 3.00381 0
M  V30 7775 C 749.974 0.0783649 3.12902 0
M  V30 7776 C 750.449 0.352491 4.56642 0
M  V30 7777 N 751.94 0.30105 4.62221 0
M  V30 7778 C 752.675 0.487028 5.71328 0
M  V30 7779 N 752.171 0.733265 6.88909 0
M  V30 7780 N 753.964 0.4214 5.60518 0
M  V30 7781 H 746.115 1.13909 1.79272 0
M  V30 7782 H 748.378 0.454528 0.83193 0
M  V30 7783 H 748.084 1.14312 3.32604 0
M  V30 7784 H 747.958 -0.559804 3.73023 0
M  V30 7785 H 750.345 -0.916963 2.80492 0
M  V30 7786 H 750.426 0.809611 2.4265 0
M  V30 7787 H 750.07 1.34513 4.89764 0
M  V30 7788 H 750 -0.399624 5.25081 0
M  V30 7789 H 752.491 0.117279 3.77718 0
M  V30 7790 H 752.804 0.86403 7.67955 0
M  V30 7791 H 751.149 0.770138 6.9072 0
M  V30 7792 H 754.34 0.229461 4.67537 0
M  V30 7793 H 754.513 0.569758 6.4549 0
M  V30 7794 N 747.919 -1.57396 -0.0801906 0
M  V30 7795 C 749.167 -1.86467 -0.779384 0
M  V30 7796 C 749.488 -0.784243 -1.78535 0
M  V30 7797 O 748.758 0.187986 -1.94996 0
M  V30 7798 H 747.338 -0.68806 -0.29083 0
M  V30 7799 H 750 -1.94813 -0.0582749 0
M  V30 7800 H 749.096 -2.83701 -1.30078 0
M  V30 7801 N 749.397 0.351382 -1.53633 0
M  V30 7802 C 750.646 1.08988 -1.69719 0
M  V30 7803 C 750.959 1.90043 -0.462948 0
M  V30 7804 O 752.165 2.66769 -0.504613 0
M  V30 7805 C 750.621 1.98691 -3.00083 0
M  V30 7806 C 750.229 1.22881 -4.30818 0
M  V30 7807 C 751.973 2.72446 -3.25536 0
M  V30 7808 C 749.88 2.11568 -5.52262 0
M  V30 7809 H 748.81 0.410588 -0.632403 0
M  V30 7810 H 751.461 0.349886 -1.80133 0
M  V30 7811 H 749.843 2.76478 -2.83506 0
M  V30 7812 H 751.017 0.500582 -4.58073 0
M  V30 7813 H 749.332 0.60928 -4.11918 0
M  V30 7814 H 751.929 3.39055 -4.13456 0
M  V30 7815 H 752.272 3.38588 -2.42206 0
M  V30 7816 H 752.805 2.01735 -3.42852 0
M  V30 7817 H 749.544 1.4998 -6.38111 0
M  V30 7818 H 749.064 2.82201 -5.29266 0
M  V30 7819 H 750.743 2.70802 -5.87601 0
M  V30 7820 N 750.875 1.45233 0.611969 0
M  V30 7821 C 752.286 1.4354 1.19387 0
M  V30 7822 C 752.637 0.160713 1.95541 0
M  V30 7823 O 751.762 -0.737954 2.03429 0
M  V30 7824 C 752.357 2.60045 2.17169 0
M  V30 7825 C 750.916 2.61486 2.70744 0
M  V30 7826 C 750.063 2.35708 1.46072 0
M  V30 7827 H 753.014 1.53536 0.401529 0
M  V30 7828 H 753.035 2.33893 3.00124 0
M  V30 7829 H 752.547 3.52803 1.61714 0
M  V30 7830 H 750.648 1.72721 3.30149 0
M  V30 7831 H 750.761 3.60572 3.15476 0
M  V30 7832 H 749.125 1.85178 1.74875 0
M  V30 7833 H 749.908 3.30606 0.924922 0
M  V30 7834 N 752.353 -0.854086 1.3245 0
M  V30 7835 C 753.601 -1.60513 1.228 0
M  V30 7836 C 753.922 -1.93865 -0.210073 0
M  V30 7837 O 753.192 -1.59673 -1.13496 0
M  V30 7838 H 751.772 -0.595099 0.451516 0
M  V30 7839 H 754.434 -1.0216 1.6598 0
M  V30 7840 H 753.53 -2.54182 1.81102 0
M  V30 7841 N 753.831 -1.1567 -1.07043 0
M  V30 7842 C 755.056 -0.957946 -1.83952 0
M  V30 7843 C 755.481 0.488807 -1.81638 0
M  V30 7844 O 754.839 1.34869 -1.21162 0
M  V30 7845 C 754.887 -1.48064 -3.288 0
M  V30 7846 O 753.991 -0.681921 -4.06723 0
M  V30 7847 H 753.332 -0.341453 -0.569479 0
M  V30 7848 H 755.862 -1.53728 -1.35015 0
M  V30 7849 H 755.872 -1.49484 -3.7963 0
M  V30 7850 H 754.547 -2.53388 -3.29799 0
M  V30 7851 H 753.124 -0.737612 -3.65532 0
M  V30 7852 N 755.309 1.25446 -0.953992 0
M  V30 7853 C 756.555 1.9343 -0.60933 0
M  V30 7854 C 756.888 1.74542 0.851388 0
M  V30 7855 O 756.163 1.09014 1.61078 0
M  V30 7856 C 756.446 3.46844 -0.968041 0
M  V30 7857 C 756.299 3.74961 -2.48444 0
M  V30 7858 C 757.618 4.37334 -0.492641 0
M  V30 7859 H 754.737 0.702502 -0.222844 0
M  V30 7860 H 757.379 1.48076 -1.19053 0
M  V30 7861 H 755.529 3.85604 -0.473465 0
M  V30 7862 H 757.201 3.45841 -3.05273 0
M  V30 7863 H 755.444 3.20589 -2.92241 0
M  V30 7864 H 756.115 4.82246 -2.68594 0
M  V30 7865 H 758.591 4.05873 -0.916878 0
M  V30 7866 H 757.467 5.43439 -0.772331 0
M  V30 7867 H 757.728 4.37908 0.607403 0
M  V30 7868 N 756.787 0.722489 1.40064 0
M  V30 7869 C 758.034 0.264979 2.00759 0
M  V30 7870 C 758.362 -1.14395 1.57302 0
M  V30 7871 O 757.617 -1.79165 0.787298 0
M  V30 7872 C 757.916 0.300682 3.56133 0
M  V30 7873 C 757.582 1.66087 4.19197 0
M  V30 7874 C 756.244 2.03319 4.36136 0
M  V30 7875 C 758.596 2.55452 4.54306 0
M  V30 7876 C 755.924 3.29448 4.8547 0
M  V30 7877 C 758.276 3.8094 5.05042 0
M  V30 7878 C 756.94 4.1828 5.2019 0
M  V30 7879 H 756.21 0.0969625 0.734629 0
M  V30 7880 H 758.857 0.926877 1.67575 0
M  V30 7881 H 757.162 -0.44479 3.89267 0
M  V30 7882 H 758.859 -0.0712542 4.00937 0
M  V30 7883 H 755.449 1.36137 4.06405 0
M  V30 7884 H 759.633 2.27961 4.40849 0
M  V30 7885 H 754.889 3.58338 4.95382 0
M  V30 7886 H 759.063 4.50351 5.31184 0
M  V30 7887 H 756.69 5.16081 5.58179 0
M  V30 7888 N 758.265 -1.50454 0.469181 0
M  V30 7889 C 759.212 -2.28486 -0.325982 0
M  V30 7890 C 760.182 -1.33455 -0.988893 0
M  V30 7891 O 761.367 -1.6239 -1.0017 0
M  V30 7892 C 758.507 -3.15288 -1.40313 0
M  V30 7893 C 757.62 -4.25348 -0.755183 0
M  V30 7894 C 756.755 -4.9941 -1.81006 0
M  V30 7895 C 755.794 -6.01348 -1.14226 0
M  V30 7896 N 754.931 -6.68695 -2.1399 0
M  V30 7897 H 759.771 -2.95987 0.345753 0
M  V30 7898 H 757.308 -1.45965 0.182355 0
M  V30 7899 H 759.266 -3.63964 -2.03927 0
M  V30 7900 H 757.896 -2.49837 -2.04405 0
M  V30 7901 H 756.948 -3.80399 -0.00651901 0
M  V30 7902 H 758.26 -4.98279 -0.227941 0
M  V30 7903 H 757.414 -5.51794 -2.52206 0
M  V30 7904 H 756.153 -4.26181 -2.3711 0
M  V30 7905 H 755.158 -5.48225 -0.415876 0
M  V30 7906 H 756.383 -6.76548 -0.588135 0
M  V30 7907 H 754.329 -5.98258 -2.69115 0
M  V30 7908 H 754.246 -7.37495 -1.66246 0
M  V30 7909 H 755.514 -7.25697 -2.84576 0
M  V30 7910 N 759.743 -0.201713 -1.56304 0
M  V30 7911 C 761.159 0.154025 -1.58855 0
M  V30 7912 C 761.359 1.60516 -1.21807 0
M  V30 7913 O 760.415 2.34193 -0.94393 0
M  V30 7914 C 761.728 -0.154319 -3.00304 0
M  V30 7915 C 763.276 -0.0949578 -3.12856 0
M  V30 7916 C 763.751 -0.376703 -4.56448 0
M  V30 7917 N 765.242 -0.325558 -4.62054 0
M  V30 7918 C 765.977 -0.51732 -5.71062 0
M  V30 7919 N 765.473 -0.769789 -6.8851 0
M  V30 7920 N 767.266 -0.45112 -5.60287 0
M  V30 7921 H 759.417 -1.14858 -1.78666 0
M  V30 7922 H 761.68 -0.458934 -0.829508 0
M  V30 7923 H 761.386 -1.16074 -3.31994 0
M  V30 7924 H 761.26 0.540014 -3.73314 0
M  V30 7925 H 763.647 0.902075 -2.80974 0
M  V30 7926 H 763.728 -0.822468 -2.42217 0
M  V30 7927 H 763.372 -1.37108 -4.89044 0
M  V30 7928 H 763.302 0.371772 -5.25286 0
M  V30 7929 H 765.793 -0.137308 -3.7765 0
M  V30 7930 H 766.106 -0.904744 -7.67486 0
M  V30 7931 H 764.451 -0.806758 -6.90302 0
M  V30 7932 H 767.642 -0.254253 -4.67409 0
M  V30 7933 H 767.815 -0.603982 -6.45179 0
M  V30 7934 N 761.222 1.57436 0.0718424 0
M  V30 7935 C 762.45 1.91474 0.783932 0
M  V30 7936 C 762.865 0.797669 1.71122 0
M  V30 7937 O 762.222 -0.228989 1.81058 0
M  V30 7938 C 762.273 3.25259 1.57761 0
M  V30 7939 O 761.994 4.3267 0.687596 0
M  V30 7940 C 763.495 3.7331 2.3907 0
M  V30 7941 H 760.715 0.632901 0.222885 0
M  V30 7942 H 763.259 2.04457 0.0421262 0
M  V30 7943 H 761.414 3.13804 2.27169 0
M  V30 7944 H 761.828 5.09641 1.23962 0
M  V30 7945 H 763.302 4.69551 2.90216 0
M  V30 7946 H 763.779 3.02318 3.18591 0
M  V30 7947 H 764.385 3.8771 1.74818 0
M  V30 7948 N 762.7 -0.34323 1.53817 0
M  V30 7949 C 763.925 -1.1079 1.75329 0
M  V30 7950 C 764.35 -1.81571 0.491293 0
M  V30 7951 O 763.708 -1.72561 -0.556089 0
M  V30 7952 C 763.756 -2.09681 2.9337 0
M  V30 7953 O 762.86 -3.17207 2.63541 0
M  V30 7954 H 762.201 -0.320402 0.581583 0
M  V30 7955 H 764.731 -0.393525 2.0078 0
M  V30 7956 H 764.741 -2.52897 3.20168 0
M  V30 7957 H 763.416 -1.5756 3.84899 0
M  V30 7958 H 761.993 -2.78806 2.47632 0
M  V30 7959 N 764.178 -1.45556 -0.604258 0
M  V30 7960 C 765.589 -1.44171 -1.18624 0
M  V30 7961 C 765.94 -0.171081 -1.95453 0
M  V30 7962 O 765.065 0.727156 -2.03817 0
M  V30 7963 C 765.66 -2.61193 -2.15786 0
M  V30 7964 C 764.219 -2.62918 -2.69353 0
M  V30 7965 C 763.366 -2.36479 -1.4482 0
M  V30 7966 H 766.317 -1.53747 -0.393381 0
M  V30 7967 H 766.338 -2.35481 -2.98879 0
M  V30 7968 H 765.85 -3.53656 -1.59841 0
M  V30 7969 H 763.951 -1.7447 -3.29228 0
M  V30 7970 H 764.064 -3.6224 -3.13559 0
M  V30 7971 H 762.428 -1.86103 -1.73891 0
M  V30 7972 H 763.211 -3.31091 -0.907376 0
M  V30 7973 N 765.656 0.84705 -1.32902 0
M  V30 7974 C 766.903 1.60176 -1.23894 0
M  V30 7975 C 767.231 1.93496 0.197341 0
M  V30 7976 O 766.486 1.58173 1.15238 0
M  V30 7977 C 766.785 2.92663 -2.05142 0
M  V30 7978 C 766.451 2.7874 -3.54422 0
M  V30 7979 C 765.113 2.7465 -3.95121 0
M  V30 7980 C 767.465 2.64128 -4.49317 0
M  V30 7981 C 764.793 2.53837 -5.28946 0
M  V30 7982 C 767.145 2.44849 -5.83294 0
M  V30 7983 C 765.809 2.39156 -6.23186 0
M  V30 7984 H 765.079 0.586127 -0.453361 0
M  V30 7985 H 767.726 0.981994 -1.64405 0
M  V30 7986 H 766.031 3.588 -1.57383 0
M  V30 7987 H 767.728 3.50095 -1.95537 0
M  V30 7988 H 764.318 2.82751 -3.22102 0
M  V30 7989 H 768.502 2.66327 -4.18788 0
M  V30 7990 H 763.758 2.4787 -5.58901 0
M  V30 7991 H 767.932 2.32524 -6.56434 0
M  V30 7992 H 765.559 2.22789 -7.26821 0
M  V30 7993 N 767.134 1.16236 1.06428 0
M  V30 7994 C 768.064 0.890807 2.1584 0
M  V30 7995 C 769.045 -0.162333 1.69324 0
M  V30 7996 O 770.23 -0.0147191 1.94194 0
M  V30 7997 C 767.36 0.389615 3.45108 0
M  V30 7998 C 766.314 1.38051 4.05125 0
M  V30 7999 C 765.64 0.737773 5.29586 0
M  V30 8000 C 766.94 2.74965 4.44062 0
M  V30 8001 H 768.634 1.80577 2.38814 0
M  V30 8002 H 766.18 0.869657 1.14774 0
M  V30 8003 H 768.133 0.187127 4.20984 0
M  V30 8004 H 766.857 -0.560851 3.21748 0
M  V30 8005 H 765.516 1.56952 3.31303 0
M  V30 8006 H 765.164 -0.219135 5.02522 0
M  V30 8007 H 764.864 1.39914 5.70699 0
M  V30 8008 H 766.388 0.545275 6.0816 0
M  V30 8009 H 767.802 2.59855 5.11027 0
M  V30 8010 H 766.199 3.37563 4.96156 0
M  V30 8011 H 767.269 3.30321 3.54987 0
M  V30 8012 N 768.612 -1.24939 0.960631 0
M  V30 8013 C 769.84 -1.96881 0.636045 0
M  V30 8014 C 770.255 -1.71334 -0.793093 0
M  V30 8015 O 769.612 -0.992917 -1.53125 0
M  V30 8016 C 769.663 -3.50309 0.892533 0
M  V30 8017 O 769.384 -3.74977 2.26548 0
M  V30 8018 C 770.885 -4.39474 0.581159 0
M  V30 8019 H 768.105 -0.627399 0.237931 0
M  V30 8020 H 770.649 -1.58952 1.28664 0
M  V30 8021 H 768.804 -3.86326 0.288257 0
M  V30 8022 H 769.218 -4.69401 2.34014 0
M  V30 8023 H 770.692 -5.46008 0.811125 0
M  V30 8024 H 771.169 -4.3652 -0.48443 0
M  V30 8025 H 771.775 -4.09032 1.16502 0
M  V30 8026 N 770.09 -0.729906 -1.39679 0
M  V30 8027 C 771.04 -0.0627678 -2.27914 0
M  V30 8028 C 772.024 0.717867 -1.43998 0
M  V30 8029 O 773.216 0.587713 -1.66958 0
M  V30 8030 C 770.345 0.847564 -3.32673 0
M  V30 8031 C 769.431 0.0613515 -4.24056 0
M  V30 8032 N 769.822 -0.962863 -4.96551 0
M  V30 8033 C 768.12 0.291773 -4.45045 0
M  V30 8034 C 768.821 -1.43652 -5.63683 0
M  V30 8035 N 767.797 -0.756044 -5.38317 0
M  V30 8036 H 771.599 -0.847545 -2.81414 0
M  V30 8037 H 769.113 -0.563776 -1.523 0
M  V30 8038 H 771.11 1.34094 -3.94746 0
M  V30 8039 H 769.77 1.63156 -2.80732 0
M  V30 8040 H 770.781 -1.34409 -5.00154 0
M  V30 8041 H 767.458 1.05097 -4.04056 0
M  V30 8042 H 768.848 -2.28835 -6.31731 0
M  V30 8043 N 771.568 1.50203 -0.477153 0
M  V30 8044 C 772.5 2.26508 0.350239 0
M  V30 8045 C 773.513 1.32081 0.95176 0
M  V30 8046 O 774.702 1.57546 0.839139 0
M  V30 8047 C 771.802 3.0361 1.50579 0
M  V30 8048 C 770.975 4.25438 1.01595 0
M  V30 8049 C 770.034 4.84783 2.04626 0
M  V30 8050 O 769.06 5.45528 1.62442 0
M  V30 8051 N 770.262 4.72318 3.37485 0
M  V30 8052 H 773.027 2.98155 -0.30394 0
M  V30 8053 H 770.588 1.58938 -0.308289 0
M  V30 8054 H 772.58 3.4019 2.1921 0
M  V30 8055 H 771.15 2.34724 2.06455 0
M  V30 8056 H 770.37 3.93894 0.155316 0
M  V30 8057 H 771.658 5.04413 0.666694 0
M  V30 8058 H 771.056 4.24022 3.74462 0
M  V30 8059 H 769.613 5.13149 4.01897 0
M  V30 8060 N 773.046 0.209999 1.56195 0
M  V30 8061 C 774.292 -0.425442 1.98287 0
M  V30 8062 C 774.625 -1.60232 1.09724 0
M  V30 8063 O 773.9 -1.93902 0.152414 0
M  V30 8064 C 774.183 -0.871189 3.49403 0
M  V30 8065 C 774.036 0.308527 4.48741 0
M  V30 8066 C 775.355 -1.73146 4.04609 0
M  V30 8067 H 772.474 -0.153169 0.720908 0
M  V30 8068 H 775.116 0.303916 1.87554 0
M  V30 8069 H 773.266 -1.49266 3.58681 0
M  V30 8070 H 774.938 0.946487 4.51486 0
M  V30 8071 H 773.181 0.957878 4.23092 0
M  V30 8072 H 773.852 -0.0461143 5.51981 0
M  V30 8073 H 776.328 -1.2072 3.98203 0
M  V30 8074 H 775.204 -2.01228 5.10684 0
M  V30 8075 H 775.465 -2.69083 3.5078 0
M  V30 8076 N 774.524 -1.57472 -0.0634922 0
M  V30 8077 C 775.771 -1.87654 -0.761066 0
M  V30 8078 C 776.099 -0.802847 -1.77157 0
M  V30 8079 O 775.354 0.200244 -1.94673 0
M  V30 8080 C 775.653 -3.24521 -1.49736 0
M  V30 8081 C 775.319 -4.46532 -0.626065 0
M  V30 8082 C 773.981 -4.7965 -0.385978 0
M  V30 8083 C 776.333 -5.21195 -0.0224001 0
M  V30 8084 C 773.661 -5.84837 0.467118 0
M  V30 8085 C 776.013 -6.27286 0.818198 0
M  V30 8086 C 774.677 -6.58899 1.06808 0
M  V30 8087 H 773.947 -0.686675 -0.278494 0
M  V30 8088 H 776.594 -1.91488 -0.0216348 0
M  V30 8089 H 774.899 -3.16516 -2.30921 0
M  V30 8090 H 776.596 -3.45111 -2.04204 0
M  V30 8091 H 773.186 -4.20618 -0.823325 0
M  V30 8092 H 777.37 -4.95917 -0.194985 0
M  V30 8093 H 772.626 -6.07725 0.669375 0
M  V30 8094 H 776.8 -6.84298 1.29265 0
M  V30 8095 H 774.427 -7.40233 1.73088 0
M  V30 8096 N 776.003 0.335068 -1.53997 0
M  V30 8097 C 776.951 1.43206 -1.83289 0
M  V30 8098 C 777.945 1.54081 -0.703953 0
M  V30 8099 O 779.151 1.56603 -0.887432 0
M  V30 8100 H 775.526 0.477655 -0.580818 0
M  V30 8101 H 777.497 1.15719 -2.75049 0
M  V30 8102 C 776.246 2.79602 -2.06683 0
M  V30 8103 H 775.569 2.72004 -2.93008 0
M  V30 8104 H 777.009 3.55459 -2.31139 0
M  V30 8105 C 775.468 3.25873 -0.854883 0
M  V30 8106 O 775.998 4.01657 -0.0584648 0
M  V30 8107 N 774.204 2.82777 -0.669729 0
M  V30 8108 H 773.751 2.21269 -1.31901 0
M  V30 8109 H 773.709 3.1409 0.13969 0
M  V30 8110 N 777.481 1.45874 0.596531 0
M  V30 8111 C 778.706 1.54247 1.38646 0
M  V30 8112 C 779.131 0.179571 1.87241 0
M  V30 8113 O 778.489 -0.837831 1.6078 0
M  V30 8114 C 778.537 2.54015 2.55946 0
M  V30 8115 O 777.641 2.06561 3.5694 0
M  V30 8116 H 776.982 0.519555 0.413471 0
M  V30 8117 H 779.512 1.91327 0.724936 0
M  V30 8118 H 779.522 2.73179 3.03047 0
M  V30 8119 H 778.197 3.52994 2.19928 0
M  V30 8120 H 776.774 1.97324 3.16414 0
M  V30 8121 N 778.959 -0.83999 1.33349 0
M  V30 8122 C 780.189 -1.62492 1.27593 0
M  V30 8123 C 780.597 -1.88559 -0.155597 0
M  V30 8124 O 779.94 -1.46537 -1.10782 0
M  V30 8125 C 780.002 -2.99984 1.98116 0
M  V30 8126 C 779.666 -2.96892 3.47425 0
M  V30 8127 C 780.663 -2.72688 4.42648 0
M  V30 8128 C 778.348 -3.17063 3.89585 0
M  V30 8129 C 780.342 -2.68681 5.78004 0
M  V30 8130 C 778.029 -3.12682 5.25046 0
M  V30 8131 C 779.027 -2.88522 6.19067 0
M  V30 8132 O 778.715 -2.84042 7.52047 0
M  V30 8133 H 778.447 -0.512358 0.440982 0
M  V30 8134 H 781.001 -1.0545 1.76265 0
M  V30 8135 H 779.231 -3.58875 1.44034 0
M  V30 8136 H 780.92 -3.6084 1.85875 0
M  V30 8137 H 781.686 -2.56856 4.114 0
M  V30 8138 H 777.565 -3.34889 3.16813 0
M  V30 8139 H 781.109 -2.49743 6.51363 0
M  V30 8140 H 777.006 -3.28063 5.55918 0
M  V30 8141 H 777.774 -2.99892 7.61582 0
M  V30 8142 N 780.437 -1.16799 -1.0581 0
M  V30 8143 C 781.387 -0.847231 -2.11674 0
M  V30 8144 C 782.371 0.175476 -1.5994 0
M  V30 8145 O 783.563 -0.0260602 -1.76981 0
M  V30 8146 C 780.692 -0.355446 -3.41455 0
M  V30 8147 C 779.778 -1.40922 -4.00002 0
M  V30 8148 N 780.169 -2.62096 -4.32596 0
M  V30 8149 C 778.467 -1.26562 -4.27666 0
M  V30 8150 C 779.168 -3.29759 -4.79201 0
M  V30 8151 N 778.144 -2.57138 -4.78938 0
M  V30 8152 H 781.946 -1.76862 -2.34727 0
M  V30 8153 H 779.46 -1.05577 -1.23399 0
M  V30 8154 H 781.457 -0.107231 -4.16762 0
M  V30 8155 H 780.117 0.559817 -3.19838 0
M  V30 8156 H 781.128 -2.99113 -4.22791 0
M  V30 8157 H 777.805 -0.411503 -4.15467 0
M  V30 8158 H 779.195 -4.33222 -5.13584 0
M  V30 8159 N 781.915 1.24427 -0.967243 0
M  V30 8160 C 783.14 1.9708 -0.646069 0
M  V30 8161 C 783.565 1.71272 0.777665 0
M  V30 8162 O 782.923 0.976179 1.52776 0
M  V30 8163 C 782.971 3.48501 -0.926266 0
M  V30 8164 O 782.075 4.12398 -0.0114653 0
M  V30 8165 H 781.416 0.617423 -0.244304 0
M  V30 8166 H 783.946 1.58215 -1.29727 0
M  V30 8167 H 783.956 3.98885 -0.857619 0
M  V30 8168 H 782.631 3.66613 -1.96386 0
M  V30 8169 H 781.208 3.72661 -0.133396 0
M  V30 8170 N 783.393 0.737304 1.3929 0
M  V30 8171 C 784.303 0.100464 2.34385 0
M  V30 8172 C 785.319 -0.719282 1.58437 0
M  V30 8173 O 786.495 -0.647216 1.90717 0
M  V30 8174 C 783.56 -0.794325 3.37478 0
M  V30 8175 C 782.621 0.0379345 4.29283 0
M  V30 8176 C 781.854 -0.814241 5.27452 0
M  V30 8177 O 782.077 -2.05288 5.32177 0
M  V30 8178 O 781.011 -0.241679 6.01415 0
M  V30 8179 H 784.837 0.885407 2.90507 0
M  V30 8180 H 782.422 0.497999 1.40856 0
M  V30 8181 H 784.304 -1.30622 4.00644 0
M  V30 8182 H 782.979 -1.55804 2.83737 0
M  V30 8183 H 781.886 0.595405 3.69331 0
M  V30 8184 H 783.219 0.763926 4.86236 0
M  V30 8185 N 784.871 -1.49948 0.485112 0
M  V30 8186 C 786.099 -2.06806 -0.0622824 0
M  V30 8187 C 786.514 -1.34736 -1.32256 0
M  V30 8188 O 785.871 -0.420836 -1.77582 0
M  V30 8189 C 785.922 -3.59934 -0.336096 0
M  V30 8190 O 785.643 -4.29289 0.874203 0
M  V30 8191 C 787.144 -4.33459 -0.928903 0
M  V30 8192 H 784.364 -0.670867 0.0133472 0
M  V30 8193 H 786.908 -1.92937 0.677917 0
M  V30 8194 H 785.063 -3.7356 -1.02625 0
M  V30 8195 H 785.477 -5.20735 0.627332 0
M  V30 8196 H 786.951 -5.41527 -1.07017 0
M  V30 8197 H 787.428 -3.94881 -1.92265 0
M  V30 8198 H 788.034 -4.24399 -0.276705 0
M  V30 8199 N 786.349 -0.21828 -1.56081 0
M  V30 8200 C 787.297 0.709679 -2.21509 0
M  V30 8201 C 788.291 1.20221 -1.19346 0
M  V30 8202 O 789.497 1.16241 -1.37433 0
M  V30 8203 H 785.872 0.247271 -0.710184 0
M  V30 8204 H 787.843 0.134386 -2.98097 0
M  V30 8205 C 786.592 1.90853 -2.90638 0
M  V30 8206 H 785.915 1.53865 -3.69006 0
M  V30 8207 H 787.355 2.53568 -3.39822 0
M  V30 8208 C 785.814 2.76189 -1.92929 0
M  V30 8209 O 786.344 3.74842 -1.44416 0
M  V30 8210 N 784.55 2.42157 -1.6065 0
M  V30 8211 H 784.097 1.61987 -2.00294 0
M  V30 8212 H 784.055 2.99534 -0.955347 0
M  V30 8213 N 787.827 1.57504 0.0551401 0
M  V30 8214 C 789.076 1.87237 0.750009 0
M  V30 8215 C 789.389 0.813268 1.77891 0
M  V30 8216 O 790.595 0.99898 2.52453 0
M  V30 8217 C 789.051 3.32187 1.38491 0
M  V30 8218 C 788.659 4.46267 0.393707 0
M  V30 8219 C 790.403 3.71101 2.06117 0
M  V30 8220 C 788.31 5.82265 1.03547 0
M  V30 8221 H 787.24 0.698524 0.283866 0
M  V30 8222 H 789.891 1.835 0.00365997 0
M  V30 8223 H 788.273 3.30588 2.18008 0
M  V30 8224 H 789.447 4.59289 -0.372865 0
M  V30 8225 H 787.762 4.16015 -0.17902 0
M  V30 8226 H 790.359 4.70012 2.54937 0
M  V30 8227 H 790.702 3.01751 2.86796 0
M  V30 8228 H 791.235 3.74762 1.33409 0
M  V30 8229 H 787.974 6.54949 0.268644 0
M  V30 8230 H 787.494 5.73012 1.7725 0
M  V30 8231 H 789.173 6.28148 1.55047 0
M  V30 8232 N 789.305 -0.326896 1.54172 0
M  V30 8233 C 790.551 -1.06681 1.72473 0
M  V30 8234 C 790.884 -1.87779 0.49523 0
M  V30 8235 O 790.159 -1.87754 -0.507803 0
M  V30 8236 C 790.442 -1.99429 2.99834 0
M  V30 8237 C 790.295 -1.21682 4.33028 0
M  V30 8238 C 791.614 -2.99002 3.22933 0
M  V30 8239 H 788.733 -0.386438 0.627563 0
M  V30 8240 H 791.375 -0.343779 1.86864 0
M  V30 8241 H 789.525 -2.61081 2.87696 0
M  V30 8242 H 791.197 -0.625153 4.57044 0
M  V30 8243 H 789.44 -0.519045 4.30684 0
M  V30 8244 H 790.111 -1.89766 5.18356 0
M  V30 8245 H 792.587 -2.4747 3.34511 0
M  V30 8246 H 791.463 -3.61085 4.13412 0
M  V30 8247 H 791.724 -3.71281 2.40006 0
M  V30 8248 N 790.784 -1.46188 -0.588786 0
M  V30 8249 C 792.2 -1.31009 -0.911524 0
M  V30 8250 C 792.4 -0.277017 -1.99587 0
M  V30 8251 O 791.456 0.322532 -2.50432 0
M  V30 8252 C 792.769 -2.69459 -1.33463 0
M  V30 8253 C 794.317 -2.77502 -1.44782 0
M  V30 8254 C 794.792 -4.1652 -1.90461 0
M  V30 8255 N 796.283 -4.18907 -1.97665 0
M  V30 8256 C 797.018 -5.23359 -2.34271 0
M  V30 8257 N 796.514 -6.38143 -2.69714 0
M  V30 8258 N 798.307 -5.10723 -2.34774 0
M  V30 8259 H 790.458 -2.12016 0.127614 0
M  V30 8260 H 792.721 -0.947984 -0.00557599 0
M  V30 8261 H 792.427 -3.46336 -0.611929 0
M  V30 8262 H 792.301 -2.99165 -2.2974 0
M  V30 8263 H 794.688 -2.00917 -2.1614 0
M  V30 8264 H 794.769 -2.51488 -0.467724 0
M  V30 8265 H 794.413 -4.93597 -1.19684 0
M  V30 8266 H 794.343 -4.39937 -2.89418 0
M  V30 8267 H 796.834 -3.36084 -1.72789 0
M  V30 8268 H 797.147 -7.13624 -2.96582 0
M  V30 8269 H 795.492 -6.41514 -2.67366 0
M  V30 8270 H 798.683 -4.20088 -2.06503 0
M  V30 8271 H 798.856 -5.9224 -2.62975 0
M  V30 8272 N 792.262 0.832906 -1.33792 0
M  V30 8273 C 793.492 1.61813 -1.28453 0
M  V30 8274 C 793.9 1.88639 0.145595 0
M  V30 8275 O 793.243 1.47122 1.10004 0
M  V30 8276 C 793.305 2.98929 -1.99704 0
M  V30 8277 C 792.969 2.95045 -3.48995 0
M  V30 8278 C 793.966 2.70337 -4.44088 0
M  V30 8279 C 791.651 3.14993 -3.91261 0
M  V30 8280 C 793.645 2.65612 -5.79421 0
M  V30 8281 C 791.332 3.09893 -5.26697 0
M  V30 8282 C 792.33 2.85235 -6.20588 0
M  V30 8283 O 792.018 2.8005 -7.53543 0
M  V30 8284 H 791.75 0.510013 -0.443693 0
M  V30 8285 H 794.304 1.04514 -1.76822 0
M  V30 8286 H 792.534 3.58106 -1.45935 0
M  V30 8287 H 794.223 3.59849 -1.87786 0
M  V30 8288 H 794.989 2.54671 -4.12756 0
M  V30 8289 H 790.868 3.33204 -3.18584 0
M  V30 8290 H 794.412 2.46285 -6.52679 0
M  V30 8291 H 790.309 3.2511 -5.5765 0
M  V30 8292 H 791.077 2.95849 -7.63162 0
M  V30 8293 N 793.74 1.17359 1.05189 0
M  V30 8294 C 794.673 0.833768 2.12423 0
M  V30 8295 C 795.651 -0.19945 1.61372 0
M  V30 8296 O 796.835 -0.080979 1.88326 0
M  V30 8297 C 793.962 0.243745 3.37822 0
M  V30 8298 C 793.008 1.25235 4.07699 0
M  V30 8299 S 793.841 2.80368 4.56239 0
M  V30 8300 C 794.997 2.22846 5.84885 0
M  V30 8301 H 795.23 1.74197 2.40921 0
M  V30 8302 H 792.763 0.998242 1.1779 0
M  V30 8303 H 794.721 -0.0901915 4.10401 0
M  V30 8304 H 793.382 -0.642396 3.07461 0
M  V30 8305 H 792.575 0.788168 4.97799 0
M  V30 8306 H 792.177 1.53194 3.41185 0
M  V30 8307 H 794.469 1.60403 6.58238 0
M  V30 8308 H 795.412 3.112 6.3605 0
M  V30 8309 H 795.82 1.66296 5.39449 0
M  V30 8310 N 795.218 -1.23913 0.973828 0
M  V30 8311 C 796.165 -2.25132 0.508366 0
M  V30 8312 C 797.135 -1.59908 -0.449307 0
M  V30 8313 O 798.32 -1.87405 -0.358313 0
M  V30 8314 C 795.46 -3.4458 -0.189422 0
M  V30 8315 C 794.573 -4.24381 0.807738 0
M  V30 8316 C 793.708 -5.31131 0.0854315 0
M  V30 8317 C 792.747 -6.02635 1.07225 0
M  V30 8318 N 791.884 -7.01073 0.379535 0
M  V30 8319 H 796.724 -2.64313 1.37632 0
M  V30 8320 H 794.261 -1.29924 0.689802 0
M  V30 8321 H 796.219 -4.12706 -0.610733 0
M  V30 8322 H 794.849 -3.06218 -1.02129 0
M  V30 8323 H 793.901 -3.55735 1.34747 0
M  V30 8324 H 795.213 -4.73778 1.55998 0
M  V30 8325 H 794.367 -6.05422 -0.393572 0
M  V30 8326 H 793.106 -4.82658 -0.699461 0
M  V30 8327 H 792.111 -5.27143 1.56207 0
M  V30 8328 H 793.336 -6.53197 1.85769 0
M  V30 8329 H 791.282 -6.54862 -0.386269 0
M  V30 8330 H 791.199 -7.48382 1.07054 0
M  V30 8331 H 792.467 -7.79462 -0.0772984 0
M  V30 8332 N 796.696 -0.74468 -1.38897 0
M  V30 8333 C 797.643 -0.111064 -2.30533 0
M  V30 8334 C 798.613 0.719276 -1.49719 0
M  V30 8335 O 799.798 0.677244 -1.78376 0
M  V30 8336 C 796.938 0.78292 -3.36102 0
M  V30 8337 C 796.051 -0.0610817 -4.31957 0
M  V30 8338 C 795.186 0.835075 -5.24595 0
M  V30 8339 C 794.225 -0.0130974 -6.12099 0
M  V30 8340 N 793.362 0.839525 -6.97063 0
M  V30 8341 H 798.202 -0.898113 -2.84144 0
M  V30 8342 H 795.739 -0.454537 -1.39901 0
M  V30 8343 H 797.697 1.31578 -3.95908 0
M  V30 8344 H 796.327 1.53585 -2.83922 0
M  V30 8345 H 795.379 -0.711469 -3.73687 0
M  V30 8346 H 796.691 -0.716482 -4.93627 0
M  V30 8347 H 795.845 1.43542 -5.89475 0
M  V30 8348 H 794.584 1.52423 -4.63269 0
M  V30 8349 H 793.589 -0.626179 -5.46223 0
M  V30 8350 H 794.814 -0.699181 -6.75491 0
M  V30 8351 H 792.76 1.5138 -6.38295 0
M  V30 8352 H 792.677 0.240823 -7.55616 0
M  V30 8353 H 793.945 1.42513 -7.66362 0
M  V30 8354 N 798.174 1.49689 -0.493057 0
M  V30 8355 C 799.104 2.31826 0.279073 0
M  V30 8356 C 800.085 1.39733 0.969987 0
M  V30 8357 O 801.27 1.68646 0.962925 0
M  V30 8358 C 798.4 3.20046 1.34862 0
M  V30 8359 C 797.354 4.20869 0.77805 0
M  V30 8360 C 796.68 4.97971 1.94753 0
M  V30 8361 C 797.98 5.21813 -0.225543 0
M  V30 8362 H 799.674 2.96627 -0.406512 0
M  V30 8363 H 797.22 1.42647 -0.196943 0
M  V30 8364 H 799.173 3.76315 1.89645 0
M  V30 8365 H 797.897 2.53172 2.06328 0
M  V30 8366 H 796.556 3.65733 0.252036 0
M  V30 8367 H 796.204 4.27552 2.64969 0
M  V30 8368 H 795.904 5.66186 1.57187 0
M  V30 8369 H 797.428 5.57082 2.49984 0
M  V30 8370 H 798.842 5.72823 0.233864 0
M  V30 8371 H 797.239 5.97872 -0.516622 0
M  V30 8372 H 798.309 4.71209 -1.14412 0
M  V30 8373 N 799.652 0.226554 1.55963 0
M  V30 8374 C 800.562 -0.692725 2.24139 0
M  V30 8375 C 801.578 -1.20971 1.25068 0
M  V30 8376 O 802.754 -1.25027 1.57893 0
M  V30 8377 C 799.819 -1.88183 2.91184 0
M  V30 8378 C 798.88 -1.40633 4.05612 0
M  V30 8379 C 798.113 -2.53875 4.6945 0
M  V30 8380 O 798.336 -3.72129 4.32292 0
M  V30 8381 O 797.27 -2.24792 5.58348 0
M  V30 8382 H 801.096 -0.141921 3.03368 0
M  V30 8383 H 798.681 -0.0041049 1.49399 0
M  V30 8384 H 800.563 -2.57617 3.33484 0
M  V30 8385 H 799.238 -2.42064 2.14911 0
M  V30 8386 H 798.145 -0.67986 3.67871 0
M  V30 8387 H 799.478 -0.913838 4.83642 0
M  V30 8388 N 801.13 -1.57531 -0.0467866 0
M  V30 8389 C 802.078 -2.06455 -1.0714 0
M  V30 8390 C 803.072 -0.974744 -1.38546 0
M  V30 8391 O 804.278 -1.15974 -1.37659 0
M  V30 8392 H 800.653 -0.658607 -0.362962 0
M  V30 8393 H 802.624 -2.91613 -0.632813 0
M  V30 8394 C 801.373 -2.54481 -2.36927 0
M  V30 8395 H 800.696 -3.37946 -2.13617 0
M  V30 8396 H 802.136 -2.92442 -3.07007 0
M  V30 8397 C 800.595 -1.43836 -3.04652 0
M  V30 8398 O 801.125 -0.794531 -3.93764 0
M  V30 8399 N 799.331 -1.17727 -2.65686 0
M  V30 8400 H 798.878 -1.70265 -1.93307 0
M  V30 8401 H 798.836 -0.439051 -3.11319 0
M  V30 8402 N 802.608 0.318715 -1.54344 0
M  V30 8403 C 803.555 1.39242 -1.84066 0
M  V30 8404 C 804.525 1.51175 -0.688134 0
M  V30 8405 O 805.71 1.66318 -0.935039 0
M  V30 8406 C 802.85 2.75528 -2.07794 0
M  V30 8407 C 801.963 2.72187 -3.35467 0
M  V30 8408 C 801.098 4.00352 -3.4913 0
M  V30 8409 C 800.137 3.91338 -4.7066 0
M  V30 8410 N 799.274 5.11242 -4.81224 0
M  V30 8411 H 804.114 1.13196 -2.75664 0
M  V30 8412 H 801.651 0.547857 -1.36517 0
M  V30 8413 H 803.609 3.54763 -2.19543 0
M  V30 8414 H 802.239 2.99873 -1.19482 0
M  V30 8415 H 801.291 1.84917 -3.3243 0
M  V30 8416 H 802.603 2.61411 -4.24812 0
M  V30 8417 H 801.757 4.88019 -3.60448 0
M  V30 8418 H 800.496 4.1394 -2.57886 0
M  V30 8419 H 799.501 3.02055 -4.59394 0
M  V30 8420 H 800.726 3.7931 -5.63294 0
M  V30 8421 H 798.672 5.25327 -3.92897 0
M  V30 8422 H 798.589 5.0282 -5.64543 0
M  V30 8423 H 799.857 6.0061 -4.96879 0
M  V30 8424 N 804.086 1.46499 0.581025 0
M  V30 8425 C 805.363 1.42372 1.34125 0
M  V30 8426 C 805.743 0.108073 2.10823 0
M  V30 8427 O 805.091 -0.910366 2.09582 0
M  V30 8428 C 805.301 2.65445 2.26583 0
M  V30 8429 C 806.649 3.11664 2.88359 0
M  V30 8430 O 807.673 2.66006 2.36896 0
M  V30 8431 O 806.532 3.90974 3.81839 0
M  V30 8432 H 803.626 0.566262 0.602724 0
M  V30 8433 H 806.172 1.58667 0.601903 0
M  V30 8434 H 804.944 3.52756 1.69348 0
M  V30 8435 H 804.567 2.51618 3.07854 0
M  V30 8436 N 805.565 -0.825799 1.34232 0
M  V30 8437 C 806.814 -1.57686 1.2577 0
M  V30 8438 C 807.127 -1.94848 -0.171372 0
M  V30 8439 O 808.333 -2.68854 -0.378123 0
M  V30 8440 C 806.789 -2.84478 2.20454 0
M  V30 8441 C 806.397 -2.54629 3.68603 0
M  V30 8442 C 808.141 -3.625 2.20893 0
M  V30 8443 C 806.048 -3.77597 4.55164 0
M  V30 8444 H 804.978 -0.591809 0.467203 0
M  V30 8445 H 807.629 -0.909421 1.59379 0
M  V30 8446 H 806.011 -3.52832 1.79793 0
M  V30 8447 H 807.185 -1.94404 4.17784 0
M  V30 8448 H 805.5 -1.89888 3.70582 0
M  V30 8449 H 808.097 -4.538 2.82789 0
M  V30 8450 H 808.44 -3.98404 1.20746 0
M  V30 8451 H 808.973 -3.01086 2.59985 0
M  V30 8452 H 805.712 -3.46815 5.56237 0
M  V30 8453 H 805.232 -4.37116 4.10719 0
M  V30 8454 H 806.911 -4.45039 4.69627 0
M  V30 8455 N 807.043 -1.17915 -1.04565 0
M  V30 8456 C 808.268 -0.996749 -1.81878 0
M  V30 8457 C 808.693 0.450169 -1.82634 0
M  V30 8458 O 808.051 1.32268 -1.23995 0
M  V30 8459 C 808.099 -1.55005 -3.25585 0
M  V30 8460 O 807.203 -0.76804 -4.05185 0
M  V30 8461 H 806.544 -0.353456 -0.562108 0
M  V30 8462 H 809.074 -1.56557 -1.31723 0
M  V30 8463 H 809.084 -1.57503 -3.76373 0
M  V30 8464 H 807.759 -2.60327 -3.2435 0
M  V30 8465 H 806.336 -0.81498 -3.63885 0
M  V30 8466 N 808.521 1.23394 -0.980386 0
M  V30 8467 C 809.451 2.2717 -0.540024 0
M  V30 8468 C 810.432 1.64659 0.426787 0
M  V30 8469 O 811.617 1.91543 0.320153 0
M  V30 8470 C 808.747 3.46939 0.15836 0
M  V30 8471 C 807.701 4.21802 -0.725732 0
M  V30 8472 C 807.027 5.34597 0.104866 0
M  V30 8473 C 808.327 4.81802 -2.01654 0
M  V30 8474 H 810.021 2.64257 -1.40743 0
M  V30 8475 H 807.567 1.2703 -0.678193 0
M  V30 8476 H 809.52 4.18683 0.477737 0
M  V30 8477 H 808.244 3.08912 1.06022 0
M  V30 8478 H 806.903 3.51875 -1.02857 0
M  V30 8479 H 806.551 4.92812 1.00726 0
M  V30 8480 H 806.251 5.85607 -0.483557 0
M  V30 8481 H 807.775 6.09163 0.418624 0
M  V30 8482 H 809.189 5.45554 -1.76193 0
M  V30 8483 H 807.586 5.43098 -2.55273 0
M  V30 8484 H 808.656 4.02549 -2.70338 0
M  V30 8485 N 809.999 0.752036 1.385 0
M  V30 8486 C 811.245 0.307958 2.00448 0
M  V30 8487 C 811.578 -1.10702 1.59558 0
M  V30 8488 O 810.853 -1.75788 0.832391 0
M  V30 8489 C 811.136 0.429092 3.57534 0
M  V30 8490 C 810.989 1.88507 4.08393 0
M  V30 8491 C 812.308 -0.178442 4.39738 0
M  V30 8492 H 809.427 0.113373 0.728228 0
M  V30 8493 H 812.069 0.951389 1.64465 0
M  V30 8494 H 810.219 -0.118695 3.88319 0
M  V30 8495 H 811.891 2.49104 3.88259 0
M  V30 8496 H 810.134 2.40066 3.61318 0
M  V30 8497 H 810.805 1.92099 5.17496 0
M  V30 8498 H 813.281 0.28872 4.15097 0
M  V30 8499 H 812.157 -0.0634349 5.48863 0
M  V30 8500 H 812.418 -1.26655 4.23569 0
M  V30 8501 N 811.477 -1.49425 0.500989 0
M  V30 8502 C 812.427 -2.26061 -0.296698 0
M  V30 8503 C 813.411 -1.30906 -0.935541 0
M  V30 8504 O 814.603 -1.55628 -0.843142 0
M  V30 8505 C 811.732 -3.15189 -1.36055 0
M  V30 8506 C 810.818 -4.17806 -0.727952 0
M  V30 8507 N 811.209 -5.05516 0.169408 0
M  V30 8508 C 809.507 -4.34907 -0.988535 0
M  V30 8509 C 810.208 -5.79267 0.531509 0
M  V30 8510 N 809.184 -5.43507 -0.100564 0
M  V30 8511 H 812.986 -2.91246 0.394103 0
M  V30 8512 H 810.5 -1.59275 0.317065 0
M  V30 8513 H 812.497 -3.68724 -1.94547 0
M  V30 8514 H 811.157 -2.51556 -2.05303 0
M  V30 8515 H 812.168 -5.15075 0.540218 0
M  V30 8516 H 808.845 -3.82481 -1.67376 0
M  V30 8517 H 810.235 -6.59872 1.26564 0
M  V30 8518 N 812.955 -0.234822 -1.55841 0
M  V30 8519 C 814.18 0.400741 -2.03492 0
M  V30 8520 C 814.605 1.51618 -1.11327 0
M  V30 8521 O 813.963 1.81002 -0.103922 0
M  V30 8522 C 814.011 0.897184 -3.49261 0
M  V30 8523 O 813.115 2.00764 -3.60233 0
M  V30 8524 H 812.456 0.0890023 -0.658008 0
M  V30 8525 H 814.986 -0.357345 -2.01455 0
M  V30 8526 H 814.996 1.20356 -3.89844 0
M  V30 8527 H 813.671 0.0808639 -4.15821 0
M  V30 8528 H 812.248 1.70689 -3.31541 0
M  V30 8529 N 814.433 1.57553 0.0384317 0
M  V30 8530 C 815.366 2.01307 1.07475 0
M  V30 8531 C 816.344 0.895717 1.35704 0
M  V30 8532 O 817.528 1.16079 1.48519 0
M  V30 8533 C 814.655 2.37817 2.41165 0
M  V30 8534 C 813.701 3.599 2.28855 0
M  V30 8535 S 814.534 5.09418 1.65086 0
M  V30 8536 C 815.69 5.49162 3.00286 0
M  V30 8537 H 815.923 2.88892 0.702034 0
M  V30 8538 H 813.456 1.52394 0.248103 0
M  V30 8539 H 815.414 2.59524 3.18053 0
M  V30 8540 H 814.075 1.507 2.75587 0
M  V30 8541 H 813.268 3.83071 3.27525 0
M  V30 8542 H 812.87 3.37996 1.60109 0
M  V30 8543 H 815.162 5.49274 3.96617 0
M  V30 8544 H 816.105 6.49586 2.81858 0
M  V30 8545 H 816.513 4.76653 3.02427 0
M  V30 8546 N 815.911 -0.310526 1.54511 0
M  V30 8547 C 817.16 -1.0445 1.72549 0
M  V30 8548 C 817.473 -1.88748 0.513172 0
M  V30 8549 O 818.679 -2.65338 0.575165 0
M  V30 8550 C 817.135 -1.90665 3.05246 0
M  V30 8551 C 816.743 -1.11415 4.33925 0
M  V30 8552 C 818.487 -2.63719 3.32645 0
M  V30 8553 C 816.394 -1.96852 5.57677 0
M  V30 8554 H 815.324 -0.393676 0.643067 0
M  V30 8555 H 817.975 -0.302003 1.80998 0
M  V30 8556 H 816.357 -2.68864 2.90737 0
M  V30 8557 H 817.531 -0.378956 4.59239 0
M  V30 8558 H 815.846 -0.499853 4.13389 0
M  V30 8559 H 818.443 -3.27974 4.223 0
M  V30 8560 H 818.786 -3.32047 2.51098 0
M  V30 8561 H 819.319 -1.92574 3.48081 0
M  V30 8562 H 816.058 -1.33009 6.41864 0
M  V30 8563 H 815.578 -2.68069 5.36562 0
M  V30 8564 H 817.257 -2.55127 5.94575 0
M  V30 8565 N 817.389 -1.46805 -0.573248 0
M  V30 8566 C 818.8 -1.46655 -1.15539 0
M  V30 8567 C 819.151 -0.2125 -1.95046 0
M  V30 8568 O 818.276 0.683759 -2.05314 0
M  V30 8569 C 818.871 -2.65711 -2.10198 0
M  V30 8570 C 817.43 -2.68572 -2.63716 0
M  V30 8571 C 816.577 -2.39498 -1.39772 0
M  V30 8572 H 819.528 -1.54547 -0.36068 0
M  V30 8573 H 819.549 -2.41768 -2.93817 0
M  V30 8574 H 819.061 -3.56967 -1.52303 0
M  V30 8575 H 817.162 -1.81414 -3.25453 0
M  V30 8576 H 817.275 -3.68809 -3.05805 0
M  V30 8577 H 815.639 -1.89749 -1.69904 0
M  V30 8578 H 816.422 -3.32942 -0.836943 0
M  V30 8579 N 818.867 0.818669 -1.34668 0
M  V30 8580 C 819.797 1.94468 -1.29245 0
M  V30 8581 C 820.778 1.69257 -0.169101 0
M  V30 8582 O 821.963 1.90794 -0.362143 0
M  V30 8583 C 819.093 3.31001 -1.05145 0
M  V30 8584 C 818.047 3.70663 -2.13992 0
M  V30 8585 C 817.373 5.05226 -1.75074 0
M  V30 8586 C 818.673 3.82312 -3.55858 0
M  V30 8587 H 820.367 1.99263 -2.2346 0
M  V30 8588 H 817.913 0.957304 -1.07572 0
M  V30 8589 H 819.866 4.09364 -0.999949 0
M  V30 8590 H 818.59 3.26517 -0.0737312 0
M  V30 8591 H 817.249 2.94578 -2.18219 0
M  V30 8592 H 816.897 4.97233 -0.759518 0
M  V30 8593 H 816.597 5.32734 -2.47928 0
M  V30 8594 H 818.121 5.86042 -1.71427 0
M  V30 8595 H 819.535 4.50935 -3.5402 0
M  V30 8596 H 817.932 4.21278 -4.2737 0
M  V30 8597 H 819.002 2.84193 -3.9289 0
M  V30 8598 N 820.346 1.18468 1.03938 0
M  V30 8599 C 821.594 0.978895 1.76811 0
M  V30 8600 C 821.915 -0.49257 1.88676 0
M  V30 8601 O 821.185 -1.3572 1.41269 0
M  V30 8602 H 819.765 0.359201 0.654968 0
M  V30 8603 H 822.427 1.49173 1.25433 0
M  V30 8604 H 821.523 1.418 2.78027 0
M  V30 8605 N 821.824 -1.22873 0.986916 0
M  V30 8606 C 823.049 -1.96028 0.677341 0
M  V30 8607 C 823.474 -1.72487 -0.750319 0
M  V30 8608 O 822.832 -1.00036 -1.51203 0
M  V30 8609 C 822.88 -3.46983 0.981593 0
M  V30 8610 O 821.984 -4.12328 0.0770729 0
M  V30 8611 H 821.325 -0.613458 0.254096 0
M  V30 8612 H 823.855 -1.56132 1.32227 0
M  V30 8613 H 823.865 -3.9747 0.920969 0
M  V30 8614 H 822.54 -3.63442 2.02194 0
M  V30 8615 H 821.117 -3.72402 0.192666 0
M  V30 8616 N 823.302 -0.75937 -1.38099 0
M  V30 8617 C 824.542 -0.323116 -2.0183 0
M  V30 8618 C 824.906 1.07658 -1.58977 0
M  V30 8619 O 826.107 1.61227 -2.1508 0
M  V30 8620 C 824.378 -0.448234 -3.54578 0
M  V30 8621 S 825.937 -0.0954152 -4.38696 0
M  V30 8622 H 822.755 -0.125013 -0.699923 0
M  V30 8623 H 825.357 -0.991262 -1.68506 0
M  V30 8624 H 824.061 -1.46778 -3.83255 0
M  V30 8625 H 823.592 0.236895 -3.92686 0
M  V30 8626 H 825.607 1.11312 -4.83554 0
M  V30 8627 N 824.78 1.49157 -0.508906 0
M  V30 8628 C 826.008 2.06879 0.0293734 0
M  V30 8629 C 826.423 1.36823 1.30095 0
M  V30 8630 O 825.78 0.449034 1.7689 0
M  V30 8631 C 825.831 3.60423 0.278791 0
M  V30 8632 O 825.552 4.27844 -0.942389 0
M  V30 8633 C 827.053 4.34881 0.859825 0
M  V30 8634 H 824.273 0.67057 -0.0240184 0
M  V30 8635 H 826.817 1.91834 -0.708526 0
M  V30 8636 H 824.972 3.75145 0.966689 0
M  V30 8637 H 825.386 5.19671 -0.710097 0
M  V30 8638 H 826.86 5.43161 0.983884 0
M  V30 8639 H 827.337 3.9789 1.85958 0
M  V30 8640 H 827.943 4.24785 0.209152 0
M  V30 8641 N 826.258 0.243083 1.55714 0
M  V30 8642 C 827.191 -0.698623 2.17243 0
M  V30 8643 C 828.169 -1.1756 1.12331 0
M  V30 8644 O 829.353 -1.25444 1.40699 0
M  V30 8645 C 826.48 -1.94901 2.77004 0
M  V30 8646 C 825.526 -1.61022 3.94936 0
M  V30 8647 S 826.359 -0.716173 5.30689 0
M  V30 8648 C 827.515 -1.97565 5.93901 0
M  V30 8649 H 827.748 -0.175724 2.9678 0
M  V30 8650 H 825.281 0.0275727 1.54375 0
M  V30 8651 H 827.239 -2.66687 3.12071 0
M  V30 8652 H 825.9 -2.44304 1.9742 0
M  V30 8653 H 825.093 -2.5398 4.35328 0
M  V30 8654 H 824.695 -0.972829 3.61126 0
M  V30 8655 H 826.987 -2.92333 6.11186 0
M  V30 8656 H 827.93 -1.61528 6.8943 0
M  V30 8657 H 828.338 -2.126 5.22935 0
M  V30 8658 N 827.736 -1.57571 -0.0300757 0
M  V30 8659 C 828.683 -2.06492 -1.03101 0
M  V30 8660 C 829.653 -0.953862 -1.3598 0
M  V30 8661 O 830.838 -1.22436 -1.46335 0
M  V30 8662 C 827.978 -2.54826 -2.32718 0
M  V30 8663 C 827.091 -3.79718 -2.06006 0
M  V30 8664 C 826.226 -4.16668 -3.29487 0
M  V30 8665 C 825.265 -5.3448 -2.98324 0
M  V30 8666 N 824.402 -5.66867 -4.14254 0
M  V30 8667 H 829.242 -2.91755 -0.606877 0
M  V30 8668 H 826.779 -1.44252 -0.288038 0
M  V30 8669 H 828.737 -2.80916 -3.08451 0
M  V30 8670 H 827.367 -1.72481 -2.72856 0
M  V30 8671 H 826.419 -3.60718 -1.20774 0
M  V30 8672 H 827.731 -4.65569 -1.79017 0
M  V30 8673 H 826.885 -4.43881 -4.13588 0
M  V30 8674 H 825.624 -3.29466 -3.59588 0
M  V30 8675 H 824.629 -5.07021 -2.12625 0
M  V30 8676 H 825.854 -6.23334 -2.69502 0
M  V30 8677 H 823.8 -4.82625 -4.44308 0
M  V30 8678 H 823.717 -6.47226 -3.90685 0
M  V30 8679 H 824.985 -5.98656 -4.99231 0
M  V30 8680 N 829.214 0.302327 -1.54673 0
M  V30 8681 C 830.144 1.37759 -1.88533 0
M  V30 8682 C 831.125 1.52961 -0.744113 0
M  V30 8683 O 832.31 1.6649 -0.999731 0
M  V30 8684 C 829.44 2.74201 -2.13146 0
M  V30 8685 C 828.394 2.73765 -3.28993 0
M  V30 8686 C 827.72 4.13483 -3.39022 0
M  V30 8687 C 829.02 2.35624 -4.66132 0
M  V30 8688 H 830.714 1.0967 -2.78591 0
M  V30 8689 H 828.26 0.52613 -1.34044 0
M  V30 8690 H 830.213 3.49508 -2.35419 0
M  V30 8691 H 828.937 3.03812 -1.19858 0
M  V30 8692 H 827.596 2.00914 -3.06642 0
M  V30 8693 H 827.244 4.40269 -2.43253 0
M  V30 8694 H 826.944 4.14093 -4.16894 0
M  V30 8695 H 828.468 4.90572 -3.63553 0
M  V30 8696 H 829.882 3.00647 -4.88143 0
M  V30 8697 H 828.279 2.47449 -5.46707 0
M  V30 8698 H 829.349 1.30753 -4.66939 0
M  V30 8699 N 830.692 1.47107 0.565454 0
M  V30 8700 C 831.64 1.59368 1.69424 0
M  V30 8701 C 832.634 0.461344 1.62997 0
M  V30 8702 O 833.84 0.638849 1.68282 0
M  V30 8703 H 830.215 0.501387 0.560459 0
M  V30 8704 H 832.186 2.54242 1.56217 0
M  V30 8705 C 830.935 1.61739 3.07792 0
M  V30 8706 H 830.258 2.48215 3.13416 0
M  V30 8707 H 831.698 1.7437 3.86486 0
M  V30 8708 C 830.157 0.349156 3.35086 0
M  V30 8709 O 830.687 -0.553287 3.97871 0
M  V30 8710 N 828.893 0.231723 2.89675 0
M  V30 8711 H 828.44 0.967021 2.3876 0
M  V30 8712 H 828.398 -0.615911 3.08308 0
M  V30 8713 N 832.17 -0.811516 1.35101 0
M  V30 8714 C 833.395 -1.60499 1.31358 0
M  V30 8715 C 833.82 -1.87793 -0.107383 0
M  V30 8716 O 833.178 -1.46161 -1.07268 0
M  V30 8717 C 833.226 -2.91612 2.12119 0
M  V30 8718 O 832.33 -3.84211 1.49853 0
M  V30 8719 H 831.671 -0.487702 0.450603 0
M  V30 8720 H 834.201 -1.00758 1.7807 0
M  V30 8721 H 834.211 -3.4108 2.23894 0
M  V30 8722 H 832.886 -2.71071 3.15426 0
M  V30 8723 H 831.463 -3.42751 1.46889 0
M  V30 8724 N 833.648 -1.19017 -1.03309 0
M  V30 8725 C 834.873 -1.01598 -1.80811 0
M  V30 8726 C 835.298 0.430773 -1.83101 0
M  V30 8727 O 834.656 1.30946 -1.25391 0
M  V30 8728 C 834.704 -1.5845 -3.23923 0
M  V30 8729 O 833.808 -0.810972 -4.04348 0
M  V30 8730 H 833.149 -0.359398 -0.558327 0
M  V30 8731 H 835.679 -1.57945 -1.30055 0
M  V30 8732 H 835.689 -1.61486 -3.74682 0
M  V30 8733 H 834.364 -2.63752 -3.21571 0
M  V30 8734 H 832.941 -0.85353 -3.63 0
M  V30 8735 N 835.127 1.22348 -0.993418 0
M  V30 8736 C 836.352 1.95666 -0.687727 0
M  V30 8737 C 836.777 1.72883 0.741161 0
M  V30 8738 O 836.135 1.00837 1.50671 0
M  V30 8739 C 836.183 3.46457 -0.99998 0
M  V30 8740 O 835.287 4.12281 -0.0989386 0
M  V30 8741 H 834.628 0.612102 -0.257346 0
M  V30 8742 H 837.158 1.55428 -1.33054 0
M  V30 8743 H 837.168 3.96976 -0.942035 0
M  V30 8744 H 835.843 3.62365 -2.04118 0
M  V30 8745 H 834.42 3.72295 -0.212413 0
M  V30 8746 N 836.605 0.766683 1.37694 0
M  V30 8747 C 837.515 0.150158 2.34119 0
M  V30 8748 C 838.531 -0.685513 1.59927 0
M  V30 8749 O 839.707 -0.606616 1.92047 0
M  V30 8750 C 836.772 -0.722562 3.39087 0
M  V30 8751 C 835.833 0.128983 4.29106 0
M  V30 8752 C 835.066 -0.702178 5.29061 0
M  V30 8753 O 835.289 -1.93954 5.36412 0
M  V30 8754 O 834.223 -0.114056 6.01792 0
M  V30 8755 H 838.049 0.946829 2.88563 0
M  V30 8756 H 835.634 0.527765 1.39768 0
M  V30 8757 H 837.516 -1.22095 4.03325 0
M  V30 8758 H 836.191 -1.49751 2.86978 0
M  V30 8759 H 835.098 0.673612 3.67985 0
M  V30 8760 H 836.431 0.866892 4.84506 0
M  V30 8761 N 838.083 -1.48885 0.516809 0
M  V30 8762 C 839.013 -2.32241 -0.242157 0
M  V30 8763 C 839.994 -1.41258 -0.947633 0
M  V30 8764 O 841.179 -1.70156 -0.935973 0
M  V30 8765 C 838.309 -3.22151 -1.29754 0
M  V30 8766 C 837.263 -4.22053 -0.710995 0
M  V30 8767 C 836.589 -5.01007 -1.86806 0
M  V30 8768 C 837.889 -5.21388 0.30853 0
M  V30 8769 H 839.583 -2.95943 0.453651 0
M  V30 8770 H 837.129 -1.42316 0.219612 0
M  V30 8771 H 839.082 -3.79284 -1.83634 0
M  V30 8772 H 837.806 -2.56423 -2.02274 0
M  V30 8773 H 836.465 -3.66087 -0.193819 0
M  V30 8774 H 836.113 -4.31713 -2.58133 0
M  V30 8775 H 835.813 -5.68615 -1.48159 0
M  V30 8776 H 837.337 -5.60989 -2.4109 0
M  V30 8777 H 838.751 -5.73122 -0.142703 0
M  V30 8778 H 837.148 -5.96975 0.611673 0
M  V30 8779 H 838.218 -4.69329 1.21894 0
M  V30 8780 N 839.561 -0.251338 -1.55583 0
M  V30 8781 C 840.524 0.63305 -2.20284 0
M  V30 8782 C 841.524 1.09941 -1.17344 0
M  V30 8783 O 842.714 1.00341 -1.42399 0
M  V30 8784 C 839.846 1.8706 -2.84993 0
M  V30 8785 H 841.039 0.0684846 -2.99822 0
M  V30 8786 H 838.592 -0.00181653 -1.563 0
M  V30 8787 H 839.327 2.47629 -2.09405 0
M  V30 8788 H 839.112 1.54436 -3.60405 0
M  V30 8789 H 840.602 2.50004 -3.34496 0
M  V30 8790 N 841.039 1.57585 0.0217189 0
M  V30 8791 C 842.45 1.7787 0.567377 0
M  V30 8792 C 842.801 0.883337 1.7519 0
M  V30 8793 O 841.926 0.0800819 2.16252 0
M  V30 8794 C 842.521 3.2257 1.03606 0
M  V30 8795 C 841.08 3.44026 1.52718 0
M  V30 8796 C 840.227 2.73313 0.468545 0
M  V30 8797 H 843.178 1.57377 -0.2045 0
M  V30 8798 H 843.199 3.29488 1.9031 0
M  V30 8799 H 842.711 3.87711 0.173739 0
M  V30 8800 H 840.812 2.8407 2.41111 0
M  V30 8801 H 840.925 4.52659 1.56962 0
M  V30 8802 H 839.289 2.37299 0.925263 0
M  V30 8803 H 840.072 3.41141 -0.384438 0
M  V30 8804 N 842.517 -0.29412 1.54831 0
M  V30 8805 C 843.766 -1.02614 1.73647 0
M  V30 8806 C 844.079 -1.88193 0.533162 0
M  V30 8807 O 845.285 -2.64713 0.603275 0
M  V30 8808 C 843.741 -1.87417 3.07251 0
M  V30 8809 C 843.349 -1.06806 4.35082 0
M  V30 8810 C 845.093 -2.60176 3.35423 0
M  V30 8811 C 843 -1.90926 5.59733 0
M  V30 8812 H 841.93 -0.386834 0.647206 0
M  V30 8813 H 844.581 -0.282789 1.81308 0
M  V30 8814 H 842.963 -2.65765 2.93572 0
M  V30 8815 H 844.137 -0.330226 4.59615 0
M  V30 8816 H 842.452 -0.455979 4.13896 0
M  V30 8817 H 845.049 -3.23476 4.25755 0
M  V30 8818 H 845.392 -3.29365 2.54606 0
M  V30 8819 H 845.925 -1.88871 3.50103 0
M  V30 8820 H 842.664 -1.26194 6.43238 0
M  V30 8821 H 842.184 -2.62363 5.39375 0
M  V30 8822 H 843.863 -2.48807 5.97247 0
M  V30 8823 N 843.995 -1.47404 -0.557645 0
M  V30 8824 C 845.223 -1.57622 -1.34026 0
M  V30 8825 C 845.638 -0.226256 -1.87439 0
M  V30 8826 O 844.995 0.78043 -1.64971 0
M  V30 8827 C 845.046 -2.60111 -2.51047 0
M  V30 8828 O 844.767 -3.89866 -1.99841 0
M  V30 8829 C 846.268 -2.80508 -3.43264 0
M  V30 8830 H 843.488 -0.532271 -0.40857 0
M  V30 8831 H 846.032 -1.93019 -0.675555 0
M  V30 8832 H 844.187 -2.27648 -3.13457 0
M  V30 8833 H 844.601 -4.45864 -2.76234 0
M  V30 8834 H 846.075 -3.56084 -4.21792 0
M  V30 8835 H 846.552 -1.88314 -3.9678 0
M  V30 8836 H 847.158 -3.14166 -2.86671 0
M  V30 8837 N 845.473 0.80434 -1.35529 0
M  V30 8838 C 846.719 1.56328 -1.30127 0
M  V30 8839 C 847.074 1.92008 0.122699 0
M  V30 8840 O 846.367 1.58693 1.07364 0
M  V30 8841 C 846.561 2.85988 -2.14349 0
M  V30 8842 C 846.39 2.62977 -3.64792 0
M  V30 8843 C 845.16 2.58757 -4.34019 0
M  V30 8844 C 847.358 2.332 -4.58391 0
M  V30 8845 N 845.34 2.27487 -5.70195 0
M  V30 8846 C 846.711 2.11788 -5.82706 0
M  V30 8847 C 848.766 2.19082 -4.4711 0
M  V30 8848 C 847.469 1.77688 -6.97008 0
M  V30 8849 C 849.495 1.86378 -5.61264 0
M  V30 8850 C 848.857 1.65804 -6.84608 0
M  V30 8851 H 844.956 0.57368 -0.531428 0
M  V30 8852 H 847.54 0.941313 -1.70433 0
M  V30 8853 H 845.711 3.46077 -1.76311 0
M  V30 8854 H 847.443 3.51571 -2.00449 0
M  V30 8855 H 844.198 2.73484 -3.86656 0
M  V30 8856 H 844.622 2.1464 -6.42074 0
M  V30 8857 H 849.264 2.33686 -3.5235 0
M  V30 8858 H 846.982 1.61822 -7.91732 0
M  V30 8859 H 850.568 1.7616 -5.5449 0
M  V30 8860 H 849.448 1.40868 -7.71444 0
M  V30 8861 N 846.951 1.19563 1.02676 0
M  V30 8862 C 847.898 0.935291 2.11 0
M  V30 8863 C 848.868 -0.130685 1.65585 0
M  V30 8864 O 850.053 0.0119062 1.90796 0
M  V30 8865 C 847.193 0.482384 3.41712 0
M  V30 8866 C 846.306 1.61537 4.00662 0
M  V30 8867 C 845.441 1.11378 5.19392 0
M  V30 8868 C 844.48 2.22052 5.70403 0
M  V30 8869 N 843.617 1.73185 6.80405 0
M  V30 8870 H 848.457 1.86275 2.32606 0
M  V30 8871 H 845.994 0.928656 1.14081 0
M  V30 8872 H 847.952 0.20118 4.16715 0
M  V30 8873 H 846.582 -0.408086 3.2021 0
M  V30 8874 H 845.634 2.01173 3.22852 0
M  V30 8875 H 846.946 2.44912 4.34534 0
M  V30 8876 H 846.1 0.787935 6.01562 0
M  V30 8877 H 844.839 0.249789 4.8706 0
M  V30 8878 H 843.844 2.55465 4.86845 0
M  V30 8879 H 845.069 3.08911 6.04774 0
M  V30 8880 H 843.015 0.890973 6.49921 0
M  V30 8881 H 842.932 2.50148 7.13416 0
M  V30 8882 H 844.2 1.4357 7.66164 0
M  V30 8883 N 848.429 -1.21819 0.999893 0
M  V30 8884 C 849.339 -2.27691 0.565159 0
M  V30 8885 C 850.355 -1.69587 -0.389398 0
M  V30 8886 O 851.531 -1.99786 -0.254499 0
M  V30 8887 C 848.596 -3.46537 -0.106432 0
M  V30 8888 C 847.657 -4.19932 0.891964 0
M  V30 8889 C 846.89 -5.33103 0.252327 0
M  V30 8890 O 847.113 -5.62398 -0.952103 0
M  V30 8891 O 846.047 -5.94184 0.960698 0
M  V30 8892 H 849.873 -2.67059 1.44613 0
M  V30 8893 H 847.458 -1.28119 0.768499 0
M  V30 8894 H 849.34 -4.18631 -0.482301 0
M  V30 8895 H 848.015 -3.09079 -0.961865 0
M  V30 8896 H 846.922 -3.5008 1.3189 0
M  V30 8897 H 848.255 -4.61287 1.71682 0
M  V30 8898 N 849.908 -0.773975 -1.37286 0
M  V30 8899 C 851.155 -0.339306 -1.99637 0
M  V30 8900 C 851.483 1.08478 -1.61439 0
M  V30 8901 O 850.738 1.7612 -0.853252 0
M  V30 8902 C 851.037 -0.432651 -3.54772 0
M  V30 8903 C 850.703 -1.81531 -4.12744 0
M  V30 8904 C 849.365 -2.19366 -4.2829 0
M  V30 8905 C 851.717 -2.72137 -4.44512 0
M  V30 8906 C 849.045 -3.47239 -4.72908 0
M  V30 8907 C 851.397 -3.99421 -4.90556 0
M  V30 8908 C 850.061 -4.37298 -5.04308 0
M  V30 8909 H 849.331 -0.124161 -0.730524 0
M  V30 8910 H 851.978 -0.988432 -1.64019 0
M  V30 8911 H 850.283 0.30001 -3.9065 0
M  V30 8912 H 851.98 -0.0776 -4.00925 0
M  V30 8913 H 848.57 -1.51126 -4.01072 0
M  V30 8914 H 852.754 -2.44165 -4.32084 0
M  V30 8915 H 848.01 -3.76477 -4.81742 0
M  V30 8916 H 852.184 -4.69756 -5.14104 0
M  V30 8917 H 849.811 -5.36442 -5.38641 0
M  V30 8918 N 851.386 1.48609 -0.524698 0
M  V30 8919 C 852.349 2.28041 0.230166 0
M  V30 8920 C 853.349 1.35065 0.872584 0
M  V30 8921 O 854.539 1.58007 0.73345 0
M  V30 8922 C 851.671 3.13778 1.33252 0
M  V30 8923 H 852.864 2.96239 -0.467161 0
M  V30 8924 H 850.417 1.53763 -0.280452 0
M  V30 8925 H 851.152 2.502 2.06327 0
M  V30 8926 H 850.937 3.82165 0.877058 0
M  V30 8927 H 852.427 3.7371 1.86362 0
M  V30 8928 N 852.864 0.259585 1.55447 0
M  V30 8929 C 853.812 -0.6507 2.23313 0
M  V30 8930 C 854.806 -1.17014 1.22491 0
M  V30 8931 O 856.012 -1.12557 1.40467 0
M  V30 8932 H 852.387 -0.228354 0.71649 0
M  V30 8933 H 854.358 -0.0553039 2.98349 0
M  V30 8934 C 853.107 -1.83081 2.95596 0
M  V30 8935 H 852.43 -1.44027 3.72956 0
M  V30 8936 H 853.87 -2.44469 3.46426 0
M  V30 8937 C 852.329 -2.70976 2.00184 0
M  V30 8938 O 852.859 -3.70882 1.54304 0
M  V30 8939 N 851.065 -2.37813 1.67014 0
M  V30 8940 H 850.612 -1.5662 2.04519 0
M  V30 8941 H 850.57 -2.96896 1.03443 0
M  V30 8942 N 854.342 -1.57594 -0.0133615 0
M  V30 8943 C 855.591 -1.8916 -0.700103 0
M  V30 8944 C 855.904 -0.860147 -1.75673 0
M  V30 8945 O 857.11 -1.06556 -2.49716 0
M  V30 8946 C 855.566 -3.35742 -1.29635 0
M  V30 8947 C 855.174 -4.47154 -0.275249 0
M  V30 8948 C 856.918 -3.76436 -1.96205 0
M  V30 8949 C 854.825 -5.84805 -0.880726 0
M  V30 8950 H 853.755 -0.705805 -0.265247 0
M  V30 8951 H 856.406 -1.83445 0.044993 0
M  V30 8952 H 854.788 -3.36252 -2.09167 0
M  V30 8953 H 855.962 -4.58139 0.494506 0
M  V30 8954 H 854.277 -4.15394 0.289256 0
M  V30 8955 H 856.874 -4.76606 -2.42386 0
M  V30 8956 H 857.217 -3.09249 -2.78695 0
M  V30 8957 H 857.75 -3.78168 -1.23426 0
M  V30 8958 H 854.489 -6.55431 -0.0949013 0
M  V30 8959 H 854.009 -5.7751 -1.61995 0
M  V30 8960 H 855.688 -6.32038 -1.38338 0
M  V30 8961 N 855.82 0.285905 -1.54985 0
M  V30 8962 C 856.77 1.35505 -1.83364 0
M  V30 8963 C 857.754 1.45273 -0.691698 0
M  V30 8964 O 858.946 1.49172 -0.952725 0
M  V30 8965 C 856.075 2.71756 -2.0977 0
M  V30 8966 C 855.161 2.6615 -3.30189 0
M  V30 8967 N 855.552 2.30161 -4.50399 0
M  V30 8968 C 853.85 2.97232 -3.3252 0
M  V30 8969 C 854.551 2.34228 -5.32459 0
M  V30 8970 N 853.527 2.72187 -4.70548 0
M  V30 8971 H 857.329 1.06668 -2.7386 0
M  V30 8972 H 854.843 0.494521 -1.54688 0
M  V30 8973 H 856.84 3.48864 -2.28253 0
M  V30 8974 H 855.5 3.01492 -1.20551 0
M  V30 8975 H 856.511 2.02358 -4.7673 0
M  V30 8976 H 853.188 3.31764 -2.53454 0
M  V30 8977 H 854.578 2.09074 -6.38543 0
M  V30 8978 N 857.298 1.47698 0.54982 0
M  V30 8979 C 858.709 1.48474 1.13191 0
M  V30 8980 C 859.06 0.243504 1.94683 0
M  V30 8981 O 858.185 -0.651009 2.06375 0
M  V30 8982 C 858.78 2.69022 2.05944 0
M  V30 8983 C 857.339 2.72733 2.5941 0
M  V30 8984 C 856.486 2.41691 1.35944 0
M  V30 8985 H 859.437 1.55101 0.336048 0
M  V30 8986 H 859.458 2.46412 2.89934 0
M  V30 8987 H 858.97 3.59345 1.46605 0
M  V30 8988 H 857.071 1.86568 3.22526 0
M  V30 8989 H 857.184 3.73628 2.99899 0
M  V30 8990 H 855.548 1.92428 1.66864 0
M  V30 8991 H 856.331 3.34231 0.783869 0
M  V30 8992 N 858.776 -0.797141 1.35954 0
M  V30 8993 C 860.023 -1.55468 1.29754 0
M  V30 8994 C 860.351 -1.94095 -0.125391 0
M  V30 8995 O 859.606 -1.62341 -1.09288 0
M  V30 8996 C 859.905 -2.84847 2.15863 0
M  V30 8997 C 859.571 -2.65394 3.64523 0
M  V30 8998 C 858.233 -2.59796 4.05042 0
M  V30 8999 C 860.585 -2.4727 4.58811 0
M  V30 9000 C 857.913 -2.3403 5.38002 0
M  V30 9001 C 860.265 -2.23032 5.91979 0
M  V30 9002 C 858.929 -2.15862 6.31633 0
M  V30 9003 H 858.199 -0.568897 0.474803 0
M  V30 9004 H 860.846 -0.920299 1.67937 0
M  V30 9005 H 859.151 -3.52712 1.70591 0
M  V30 9006 H 860.848 -3.42597 2.08395 0
M  V30 9007 H 857.438 -2.70602 3.32374 0
M  V30 9008 H 861.622 -2.506 4.28384 0
M  V30 9009 H 856.878 -2.26956 5.67715 0
M  V30 9010 H 861.052 -2.08001 6.64612 0
M  V30 9011 H 858.679 -1.9566 7.34589 0
M  V30 9012 N 860.254 -1.20106 -1.0204 0
M  V30 9013 C 861.5 -1.01039 -1.75838 0
M  V30 9014 C 861.833 0.456819 -1.88751 0
M  V30 9015 O 861.108 1.33919 -1.41053 0
M  V30 9016 C 861.391 -1.69009 -3.17975 0
M  V30 9017 C 861.244 -3.2315 -3.1288 0
M  V30 9018 C 862.563 -1.42005 -4.16561 0
M  V30 9019 H 859.682 -0.368465 -0.638281 0
M  V30 9020 H 862.324 -1.48066 -1.19064 0
M  V30 9021 H 860.474 -1.29026 -3.66449 0
M  V30 9022 H 862.146 -3.72402 -2.72239 0
M  V30 9023 H 860.389 -3.54253 -2.50374 0
M  V30 9024 H 861.06 -3.65862 -4.13339 0
M  V30 9025 H 863.536 -1.76685 -3.76725 0
M  V30 9026 H 862.412 -1.92101 -5.14187 0
M  V30 9027 H 862.673 -0.346884 -4.40737 0
M  V30 9028 N 861.732 1.21287 -1.00634 0
M  V30 9029 C 863.143 1.72136 -0.722914 0
M  V30 9030 C 863.494 1.8091 0.759338 0
M  V30 9031 O 862.619 1.46458 1.59308 0
M  V30 9032 C 863.214 3.12633 -1.30561 0
M  V30 9033 C 861.773 3.60833 -1.07127 0
M  V30 9034 C 860.92 2.38326 -1.4176 0
M  V30 9035 H 863.871 1.06445 -1.17708 0
M  V30 9036 H 863.892 3.74174 -0.690937 0
M  V30 9037 H 863.404 3.06215 -2.38441 0
M  V30 9038 H 861.505 3.72599 -0.00968671 0
M  V30 9039 H 861.618 4.46226 -1.74411 0
M  V30 9040 H 859.982 2.40575 -0.836412 0
M  V30 9041 H 860.765 2.34558 -2.50674 0
M  V30 9042 N 863.21 0.781244 1.36873 0
M  V30 9043 C 864.14 0.188128 2.32741 0
M  V30 9044 C 865.121 -0.672326 1.56249 0
M  V30 9045 O 866.306 -0.607835 1.84442 0
M  V30 9046 C 863.436 -0.684341 3.40491 0
M  V30 9047 C 862.39 0.0755641 4.27933 0
M  V30 9048 C 861.716 -0.916968 5.26779 0
M  V30 9049 C 863.016 1.26006 5.06873 0
M  V30 9050 H 864.71 0.989016 2.82593 0
M  V30 9051 H 862.256 0.477038 1.35869 0
M  V30 9052 H 864.209 -1.10915 4.06541 0
M  V30 9053 H 862.933 -1.51785 2.89187 0
M  V30 9054 H 861.592 0.481258 3.63427 0
M  V30 9055 H 861.24 -1.74528 4.71751 0
M  V30 9056 H 860.94 -0.413 5.86147 0
M  V30 9057 H 862.464 -1.34052 5.95703 0
M  V30 9058 H 863.878 0.911425 5.66009 0
M  V30 9059 H 862.275 1.69676 5.75613 0
M  V30 9060 H 863.345 2.05948 4.38991 0
M  V30 9061 N 864.689 -1.48329 0.532571 0
M  V30 9062 C 865.966 -1.95492 -0.0650985 0
M  V30 9063 C 866.346 -1.47485 -1.51034 0
M  V30 9064 O 865.694 -0.702516 -2.17433 0
M  V30 9065 C 865.904 -3.48957 0.0548341 0
M  V30 9066 C 867.252 -4.24475 -0.103115 0
M  V30 9067 O 868.276 -3.56195 -0.0188343 0
M  V30 9068 O 867.135 -5.45781 -0.280164 0
M  V30 9069 H 864.229 -0.823327 -0.0778603 0
M  V30 9070 H 866.775 -1.58839 0.597353 0
M  V30 9071 H 865.547 -3.76628 1.06148 0
M  V30 9072 H 865.17 -3.92311 -0.64635 0
M  V30 9073 N 866.167 -0.267825 -1.55308 0
M  V30 9074 C 867.099 0.65591 -2.19614 0
M  V30 9075 C 868.112 1.12302 -1.17865 0
M  V30 9076 O 869.301 1.04618 -1.44628 0
M  V30 9077 C 866.401 1.90582 -2.80235 0
M  V30 9078 C 865.574 1.58673 -4.07605 0
M  V30 9079 C 864.633 2.68836 -4.52343 0
M  V30 9080 O 863.659 2.35331 -5.18274 0
M  V30 9081 N 864.861 3.98752 -4.21873 0
M  V30 9082 H 867.626 0.105566 -2.99514 0
M  V30 9083 H 865.187 -0.0886263 -1.61657 0
M  V30 9084 H 867.179 2.63561 -3.07112 0
M  V30 9085 H 865.749 2.3654 -2.04371 0
M  V30 9086 H 864.969 0.691113 -3.88094 0
M  V30 9087 H 866.257 1.34845 -4.90606 0
M  V30 9088 H 865.655 4.28797 -3.68985 0
M  V30 9089 H 864.212 4.68131 -4.53537 0
M  V30 9090 N 867.645 1.57599 0.00500368 0
M  V30 9091 C 868.608 2.07058 0.982832 0
M  V30 9092 C 869.608 0.979045 1.27559 0
M  V30 9093 O 870.798 1.24187 1.22161 0
M  V30 9094 C 867.93 2.50782 2.30914 0
M  V30 9095 H 869.123 2.94718 0.555119 0
M  V30 9096 H 866.676 1.54249 0.25237 0
M  V30 9097 H 867.411 1.66351 2.78385 0
M  V30 9098 H 867.196 3.30495 2.10987 0
M  V30 9099 H 868.686 2.89391 3.0107 0
M  V30 9100 N 869.123 -0.277682 1.55134 0
M  V30 9101 C 870.055 -1.36531 1.84098 0
M  V30 9102 C 871.068 -1.45756 0.725194 0
M  V30 9103 O 872.257 -1.47656 1.00299 0
M  V30 9104 C 869.357 -2.74701 1.98476 0
M  V30 9105 C 868.53 -2.88125 3.29094 0
M  V30 9106 C 867.589 -4.0694 3.33596 0
M  V30 9107 O 866.615 -3.9792 4.06999 0
M  V30 9108 N 867.817 -5.18687 2.60661 0
M  V30 9109 H 870.582 -1.12032 2.77973 0
M  V30 9110 H 868.143 -0.467793 1.54995 0
M  V30 9111 H 870.135 -3.52471 1.98863 0
M  V30 9112 H 868.705 -2.92043 1.11488 0
M  V30 9113 H 867.925 -1.97277 3.41285 0
M  V30 9114 H 869.213 -2.94021 4.15246 0
M  V30 9115 H 868.611 -5.28901 2.00699 0
M  V30 9116 H 867.168 -5.94705 2.66776 0
M  V30 9117 N 870.601 -1.47988 -0.541979 0
M  V30 9118 C 871.849 -1.55086 -1.29587 0
M  V30 9119 C 872.17 -0.221304 -1.9374 0
M  V30 9120 O 871.44 0.756128 -1.80719 0
M  V30 9121 H 870.02 -0.571307 -0.481266 0
M  V30 9122 H 872.682 -1.8438 -0.631675 0
M  V30 9123 H 871.778 -2.32556 -2.08144 0
M  V30 9124 N 872.079 0.78992 -1.36375 0
M  V30 9125 C 873.309 1.57644 -1.33536 0
M  V30 9126 C 873.717 1.89007 0.0855075 0
M  V30 9127 O 873.06 1.50547 1.05267 0
M  V30 9128 C 873.122 2.92424 -2.09113 0
M  V30 9129 C 872.786 2.83793 -3.58205 0
M  V30 9130 C 873.783 2.56072 -4.52464 0
M  V30 9131 C 871.468 3.02386 -4.01084 0
M  V30 9132 C 873.462 2.47044 -5.87578 0
M  V30 9133 C 871.149 2.9298 -5.36289 0
M  V30 9134 C 872.147 2.65347 -6.29349 0
M  V30 9135 O 871.835 2.55935 -7.62071 0
M  V30 9136 H 871.567 0.495639 -0.459694 0
M  V30 9137 H 874.121 0.988354 -1.80058 0
M  V30 9138 H 872.351 3.53282 -1.57254 0
M  V30 9139 H 874.04 3.53693 -1.99139 0
M  V30 9140 H 874.806 2.4141 -4.2065 0
M  V30 9141 H 870.685 3.229 -3.29023 0
M  V30 9142 H 874.229 2.25396 -6.60184 0
M  V30 9143 H 870.126 3.07204 -5.67711 0
M  V30 9144 H 870.894 2.7142 -7.72187 0
M  V30 9145 N 873.557 1.20646 1.01402 0
M  V30 9146 C 874.489 0.915392 2.10127 0
M  V30 9147 C 875.502 -0.0978705 1.62506 0
M  V30 9148 O 876.691 0.133477 1.78 0
M  V30 9149 C 873.791 0.351304 3.37074 0
M  V30 9150 C 872.964 1.41673 4.13821 0
M  V30 9151 C 872.023 0.8635 5.19067 0
M  V30 9152 O 871.049 1.54481 5.47836 0
M  V30 9153 N 872.251 -0.325799 5.79585 0
M  V30 9154 H 875.016 1.85132 2.35682 0
M  V30 9155 H 872.577 1.11048 1.17813 0
M  V30 9156 H 874.569 -0.032996 4.04687 0
M  V30 9157 H 873.139 -0.489242 3.08748 0
M  V30 9158 H 872.359 1.97526 3.41141 0
M  V30 9159 H 873.647 2.1342 4.61876 0
M  V30 9160 H 873.045 -0.896534 5.58551 0
M  V30 9161 H 871.602 -0.651708 6.48534 0
M  V30 9162 N 875.035 -1.20752 1.01276 0
M  V30 9163 C 875.967 -2.22798 0.537917 0
M  V30 9164 C 876.98 -1.5836 -0.377638 0
M  V30 9165 O 878.169 -1.77624 -0.176599 0
M  V30 9166 C 875.269 -3.38068 -0.237364 0
M  V30 9167 C 874.442 -4.32095 0.679161 0
M  V30 9168 C 873.501 -5.26178 -0.0478676 0
M  V30 9169 O 872.527 -5.66305 0.573366 0
M  V30 9170 N 873.729 -5.65201 -1.32396 0
M  V30 9171 H 876.494 -2.64166 1.4155 0
M  V30 9172 H 874.055 -1.35254 0.889826 0
M  V30 9173 H 876.047 -3.98009 -0.73288 0
M  V30 9174 H 874.617 -2.95622 -1.0162 0
M  V30 9175 H 873.837 -3.70179 1.35505 0
M  V30 9176 H 875.125 -4.91842 1.30263 0
M  V30 9177 H 874.523 -5.34606 -1.84968 0
M  V30 9178 H 873.08 -6.27468 -1.76428 0
M  V30 9179 N 876.513 -0.788492 -1.36457 0
M  V30 9180 C 877.443 -0.200468 -2.32638 0
M  V30 9181 C 878.424 0.664031 -1.56603 0
M  V30 9182 O 879.609 0.598045 -1.84762 0
M  V30 9183 C 876.739 0.666274 -3.40849 0
M  V30 9184 C 875.693 -0.0982574 -4.27887 0
M  V30 9185 C 875.019 0.889018 -5.27258 0
M  V30 9186 C 876.319 -1.28692 -5.06197 0
M  V30 9187 H 878.013 -1.00399 -2.82065 0
M  V30 9188 H 875.559 -0.484237 -1.35614 0
M  V30 9189 H 877.512 1.08757 -4.07124 0
M  V30 9190 H 876.236 1.50249 -2.89987 0
M  V30 9191 H 874.895 -0.500525 -3.63167 0
M  V30 9192 H 874.543 1.72024 -4.7267 0
M  V30 9193 H 874.243 0.381909 -5.86358 0
M  V30 9194 H 875.767 1.30891 -5.96406 0
M  V30 9195 H 877.181 -0.941429 -5.65517 0
M  V30 9196 H 875.578 -1.72726 -5.74705 0
M  V30 9197 H 876.648 -2.08273 -4.37893 0
M  V30 9198 N 877.991 1.48044 -0.54043 0
M  V30 9199 C 879.238 2.02497 -0.0101567 0
M  V30 9200 C 879.566 1.41651 1.33286 0
M  V30 9201 O 878.821 0.555504 1.8765 0
M  V30 9202 C 879.12 3.57085 0.150008 0
M  V30 9203 C 878.786 4.36769 -1.11998 0
M  V30 9204 C 877.448 4.58261 -1.46801 0
M  V30 9205 C 879.8 4.82848 -1.96232 0
M  V30 9206 C 877.128 5.23079 -2.65717 0
M  V30 9207 C 879.48 5.48977 -3.14335 0
M  V30 9208 C 878.144 5.68705 -3.49472 0
M  V30 9209 H 877.414 0.740991 -0.00371661 0
M  V30 9210 H 880.061 1.77909 -0.708562 0
M  V30 9211 H 878.366 3.80572 0.931259 0
M  V30 9212 H 880.063 3.96851 0.575384 0
M  V30 9213 H 876.653 4.20309 -0.838957 0
M  V30 9214 H 880.837 4.66038 -1.70654 0
M  V30 9215 H 876.093 5.36549 -2.93129 0
M  V30 9216 H 880.267 5.83649 -3.79904 0
M  V30 9217 H 877.894 6.18703 -4.41713 0
M  V30 9218 N 879.47 0.276058 1.55163 0
M  V30 9219 C 880.886 -0.0780579 1.59409 0
M  V30 9220 C 881.086 -1.54521 1.29327 0
M  V30 9221 O 880.142 -2.29422 1.05459 0
M  V30 9222 C 881.455 0.297422 2.99225 0
M  V30 9223 C 883.003 0.244117 3.12047 0
M  V30 9224 C 883.478 0.594051 4.54131 0
M  V30 9225 N 884.969 0.54564 4.59975 0
M  V30 9226 C 885.704 0.789192 5.67943 0
M  V30 9227 N 885.2 1.09741 6.84053 0
M  V30 9228 N 886.993 0.717926 5.57496 0
M  V30 9229 H 879.144 1.23251 1.72982 0
M  V30 9230 H 881.407 0.497988 0.806667 0
M  V30 9231 H 881.113 1.31782 3.26077 0
M  V30 9232 H 880.987 -0.361286 3.75466 0
M  V30 9233 H 883.374 -0.766992 2.84958 0
M  V30 9234 H 883.455 0.937097 2.38017 0
M  V30 9235 H 883.099 1.60285 4.81945 0
M  V30 9236 H 883.029 -0.120728 5.26462 0
M  V30 9237 H 885.52 0.317334 3.76565 0
M  V30 9238 H 885.833 1.26989 7.62295 0
M  V30 9239 H 884.178 1.13519 6.85666 0
M  V30 9240 H 887.369 0.47697 4.65664 0
M  V30 9241 H 887.542 0.911118 6.41563 0
M  V30 9242 N 880.948 -1.576 0.00335426 0
M  V30 9243 C 881.858 -2.12067 -1.00322 0
M  V30 9244 C 882.874 -1.06672 -1.37467 0
M  V30 9245 O 884.05 -1.38592 -1.46131 0
M  V30 9246 C 881.115 -2.61593 -2.27531 0
M  V30 9247 C 880.176 -3.81602 -1.96668 0
M  V30 9248 C 879.409 -4.28756 -3.17811 0
M  V30 9249 O 879.632 -3.75222 -4.2961 0
M  V30 9250 O 878.566 -5.20877 -3.01613 0
M  V30 9251 H 882.392 -2.98299 -0.570199 0
M  V30 9252 H 879.977 -1.47835 -0.215682 0
M  V30 9253 H 881.859 -2.93631 -3.02256 0
M  V30 9254 H 880.534 -1.78457 -2.70065 0
M  V30 9255 H 879.441 -3.54531 -1.19408 0
M  V30 9256 H 880.774 -4.65822 -1.58968 0
M  V30 9257 N 882.426 0.269451 -1.5528 0
M  V30 9258 C 883.356 1.33729 -1.91413 0
M  V30 9259 C 884.337 1.51348 -0.776391 0
M  V30 9260 O 885.522 1.64332 -1.03482 0
M  V30 9261 C 882.652 2.69618 -2.18914 0
M  V30 9262 C 881.606 2.66725 -3.34726 0
M  V30 9263 C 880.932 4.06199 -3.47716 0
M  V30 9264 C 882.232 2.25684 -4.71025 0
M  V30 9265 H 883.926 1.03736 -2.80854 0
M  V30 9266 H 881.472 0.497579 -1.3513 0
M  V30 9267 H 883.425 3.44436 -2.42779 0
M  V30 9268 H 882.149 3.01201 -1.26275 0
M  V30 9269 H 880.808 1.94365 -3.10834 0
M  V30 9270 H 880.456 4.3501 -2.52537 0
M  V30 9271 H 880.156 4.05157 -4.25583 0
M  V30 9272 H 881.68 4.8275 -3.73877 0
M  V30 9273 H 883.094 2.90225 -4.94411 0
M  V30 9274 H 881.491 2.35797 -5.51833 0
M  V30 9275 H 882.561 1.20819 -4.69607 0
M  V30 9276 N 883.904 1.48273 0.534124 0
M  V30 9277 C 884.814 1.65162 1.66609 0
M  V30 9278 C 885.83 0.534177 1.65598 0
M  V30 9279 O 887.006 0.804715 1.84625 0
M  V30 9280 C 884.071 1.68354 3.03081 0
M  V30 9281 C 883.132 2.91696 3.1498 0
M  V30 9282 C 882.365 2.94725 4.44941 0
M  V30 9283 O 882.588 2.06285 5.31792 0
M  V30 9284 O 881.522 3.8685 4.61119 0
M  V30 9285 H 885.348 2.60991 1.55298 0
M  V30 9286 H 882.933 1.31626 0.706749 0
M  V30 9287 H 884.815 1.72998 3.84252 0
M  V30 9288 H 883.49 0.756978 3.14725 0
M  V30 9289 H 882.397 2.92586 2.33119 0
M  V30 9290 H 883.73 3.83722 3.0825 0
M  V30 9291 N 885.382 -0.782676 1.36792 0
M  V30 9292 C 886.329 -1.89558 1.31667 0
M  V30 9293 C 887.299 -1.65076 0.184147 0
M  V30 9294 O 888.484 -1.87143 0.371753 0
M  V30 9295 C 885.624 -3.26469 1.11858 0
M  V30 9296 C 884.737 -3.62978 2.34245 0
M  V30 9297 C 883.872 -4.89041 2.07394 0
M  V30 9298 C 882.911 -5.18249 3.25706 0
M  V30 9299 N 882.048 -6.35497 2.98476 0
M  V30 9300 H 886.888 -1.93274 2.26824 0
M  V30 9301 H 884.425 -0.945057 1.12726 0
M  V30 9302 H 886.383 -4.05431 0.983968 0
M  V30 9303 H 885.013 -3.22158 0.203531 0
M  V30 9304 H 884.065 -2.79087 2.58485 0
M  V30 9305 H 885.377 -3.80507 3.22514 0
M  V30 9306 H 884.531 -5.75883 1.90901 0
M  V30 9307 H 883.27 -4.73594 1.16446 0
M  V30 9308 H 882.275 -4.29887 3.4275 0
M  V30 9309 H 883.5 -5.35611 4.1749 0
M  V30 9310 H 881.446 -6.21429 2.10146 0
M  V30 9311 H 881.363 -6.5339 3.80286 0
M  V30 9312 H 882.631 -7.25304 2.85577 0
M  V30 9313 N 886.86 -1.21182 -1.00761 0
M  V30 9314 C 888.137 -0.936297 -1.71735 0
M  V30 9315 C 888.517 0.552585 -2.03739 0
M  V30 9316 O 887.865 1.51672 -1.70903 0
M  V30 9317 C 888.075 -1.81867 -2.97868 0
M  V30 9318 C 889.423 -2.06594 -3.7095 0
M  V30 9319 O 890.447 -1.79194 -3.07844 0
M  V30 9320 O 889.306 -2.5292 -4.84452 0
M  V30 9321 H 886.4 -0.350867 -0.74888 0
M  V30 9322 H 888.946 -1.32098 -1.06527 0
M  V30 9323 H 887.718 -2.82643 -2.70607 0
M  V30 9324 H 887.341 -1.43463 -3.70815 0
M  V30 9325 N 888.338 1.20213 -1.01915 0
M  V30 9326 C 889.268 2.25336 -0.612023 0
M  V30 9327 C 890.249 1.65933 0.374186 0
M  V30 9328 O 891.434 1.92464 0.259053 0
M  V30 9329 C 888.564 3.47267 0.047904 0
M  V30 9330 C 887.518 4.1928 -0.859557 0
M  V30 9331 C 886.844 5.3466 -0.0652655 0
M  V30 9332 C 888.144 4.75143 -2.1688 0
M  V30 9333 H 889.838 2.59645 -1.49079 0
M  V30 9334 H 887.384 1.24808 -0.718263 0
M  V30 9335 H 889.337 4.19991 0.344294 0
M  V30 9336 H 888.061 3.12129 0.961404 0
M  V30 9337 H 886.72 3.48425 -1.13999 0
M  V30 9338 H 886.368 4.95767 0.849964 0
M  V30 9339 H 886.068 5.83772 -0.669618 0
M  V30 9340 H 887.592 6.10187 0.224612 0
M  V30 9341 H 889.006 5.39672 -1.9346 0
M  V30 9342 H 887.403 5.34702 -2.72422 0
M  V30 9343 H 888.473 3.93744 -2.83008 0
M  V30 9344 N 889.816 0.795718 1.36037 0
M  V30 9345 C 891.056 0.376514 2.00902 0
M  V30 9346 C 891.42 -1.03405 1.61776 0
M  V30 9347 O 892.621 -1.55468 2.19279 0
M  V30 9348 C 890.892 0.542086 3.53265 0
M  V30 9349 S 892.451 0.211694 4.38289 0
M  V30 9350 H 889.269 0.143527 0.696363 0
M  V30 9351 H 891.871 1.03559 1.65819 0
M  V30 9352 H 890.575 1.56888 3.79229 0
M  V30 9353 H 890.106 -0.132698 3.93176 0
M  V30 9354 H 892.121 -0.98452 4.86335 0
M  V30 9355 N 891.294 -1.47756 0.548274 0
M  V30 9356 C 892.204 -2.33678 -0.207773 0
M  V30 9357 C 893.22 -1.47636 -0.920843 0
M  V30 9358 O 894.396 -1.80583 -0.89173 0
M  V30 9359 C 891.461 -3.24147 -1.23003 0
M  V30 9360 C 890.522 -4.26073 -0.52535 0
M  V30 9361 C 889.755 -5.12219 -1.4989 0
M  V30 9362 O 889.978 -5.0066 -2.73305 0
M  V30 9363 O 888.912 -5.93051 -1.02828 0
M  V30 9364 H 892.738 -2.99609 0.496794 0
M  V30 9365 H 890.323 -1.4617 0.308982 0
M  V30 9366 H 892.205 -3.80055 -1.82034 0
M  V30 9367 H 890.88 -2.60855 -1.91668 0
M  V30 9368 H 889.787 -3.7395 0.105927 0
M  V30 9369 H 891.12 -4.92054 0.119686 0
M  V30 9370 N 892.772 -0.284283 -1.55015 0
M  V30 9371 C 893.702 0.592663 -2.25853 0
M  V30 9372 C 894.683 1.15151 -1.25197 0
M  V30 9373 O 895.868 1.18395 -1.53936 0
M  V30 9374 C 892.998 1.77254 -2.98661 0
M  V30 9375 C 891.952 1.34482 -4.06323 0
M  V30 9376 C 891.278 2.60853 -4.66754 0
M  V30 9377 C 892.578 0.488288 -5.20013 0
M  V30 9378 H 894.272 0.00187041 -2.994 0
M  V30 9379 H 891.818 -0.000540402 -1.44 0
M  V30 9380 H 893.771 2.39199 -3.46932 0
M  V30 9381 H 892.495 2.38931 -2.22664 0
M  V30 9382 H 891.154 0.748519 -3.58877 0
M  V30 9383 H 890.802 3.20808 -3.87416 0
M  V30 9384 H 890.502 2.32942 -5.39455 0
M  V30 9385 H 892.026 3.23631 -5.1778 0
M  V30 9386 H 893.44 1.01298 -5.6428 0
M  V30 9387 H 891.837 0.303669 -5.99331 0
M  V30 9388 H 892.907 -0.490727 -4.8241 0
M  V30 9389 N 894.251 1.57596 -0.0117121 0
M  V30 9390 C 895.479 1.9536 0.681334 0
M  V30 9391 C 895.894 0.887255 1.66653 0
M  V30 9392 O 895.251 -0.132692 1.82017 0
M  V30 9393 C 895.302 3.33165 1.40298 0
M  V30 9394 O 895.023 4.35707 0.45728 0
M  V30 9395 C 896.524 3.85458 2.18946 0
M  V30 9396 H 893.744 0.643826 0.189023 0
M  V30 9397 H 896.288 2.04392 -0.066311 0
M  V30 9398 H 894.443 3.25404 2.10216 0
M  V30 9399 H 894.857 5.15495 0.96773 0
M  V30 9400 H 896.331 4.84275 2.64918 0
M  V30 9401 H 896.808 3.18781 3.02118 0
M  V30 9402 H 897.414 3.96431 1.5402 0
M  V30 9403 N 895.729 -0.261212 1.5542 0
M  V30 9404 C 896.977 -0.989272 1.76232 0
M  V30 9405 C 897.298 -1.86389 0.573067 0
M  V30 9406 O 896.568 -1.91526 -0.41166 0
M  V30 9407 H 895.148 -0.368256 0.64992 0
M  V30 9408 H 897.81 -0.282603 1.9284 0
M  V30 9409 H 896.906 -1.61935 2.66802 0
M  V30 9410 N 897.207 -1.48554 -0.526253 0
M  V30 9411 C 898.437 -1.60197 -1.30463 0
M  V30 9412 C 898.845 -0.26278 -1.87366 0
M  V30 9413 O 898.188 0.758537 -1.67308 0
M  V30 9414 C 898.25 -2.59223 -2.49085 0
M  V30 9415 C 897.914 -4.04199 -2.13241 0
M  V30 9416 C 898.911 -4.91771 -1.68694 0
M  V30 9417 C 896.596 -4.49762 -2.2365 0
M  V30 9418 C 898.59 -6.22934 -1.35026 0
M  V30 9419 C 896.277 -5.80945 -1.89594 0
M  V30 9420 C 897.275 -6.67354 -1.45353 0
M  V30 9421 O 896.963 -7.96096 -1.11745 0
M  V30 9422 H 896.695 -0.54284 -0.402866 0
M  V30 9423 H 899.249 -1.95137 -0.641157 0
M  V30 9424 H 897.479 -2.19412 -3.18426 0
M  V30 9425 H 899.168 -2.60661 -3.11144 0
M  V30 9426 H 899.934 -4.57806 -1.6012 0
M  V30 9427 H 895.813 -3.8269 -2.5704 0
M  V30 9428 H 899.357 -6.90334 -1.00422 0
M  V30 9429 H 895.254 -6.14444 -1.9781 0
M  V30 9430 H 896.022 -8.08882 -1.25111 0
M  V30 9431 N 898.685 0.775411 -1.37205 0
M  V30 9432 C 899.962 1.5229 -1.22748 0
M  V30 9433 C 900.342 2.10327 0.180487 0
M  V30 9434 O 899.69 1.95206 1.18772 0
M  V30 9435 C 899.9 2.60671 -2.3206 0
M  V30 9436 C 901.248 3.28173 -2.6942 0
M  V30 9437 O 902.272 2.70963 -2.31208 0
M  V30 9438 O 901.131 4.31598 -3.3524 0
M  V30 9439 H 898.225 0.674326 -0.478762 0
M  V30 9440 H 900.771 0.812691 -1.48975 0
M  V30 9441 H 899.543 2.1588 -3.26361 0
M  V30 9442 H 899.166 3.39296 -2.07277 0
M  V30 9443 N 900.163 1.21714 1.00117 0
M  V30 9444 C 901.095 0.937627 2.09144 0
M  V30 9445 C 902.108 -0.0806291 1.626 0
M  V30 9446 O 903.297 0.152348 1.77849 0
M  V30 9447 C 900.397 0.387036 3.36683 0
M  V30 9448 C 899.57 1.46054 4.12295 0
M  V30 9449 C 898.629 0.918505 5.18122 0
M  V30 9450 O 897.655 1.60282 5.46167 0
M  V30 9451 N 898.857 -0.264308 5.79898 0
M  V30 9452 H 901.622 1.87622 2.33705 0
M  V30 9453 H 899.183 1.12291 1.16629 0
M  V30 9454 H 901.175 0.00992825 4.04699 0
M  V30 9455 H 899.745 -0.456467 3.09249 0
M  V30 9456 H 898.965 2.01133 3.39027 0
M  V30 9457 H 900.253 2.18306 4.59587 0
M  V30 9458 H 899.651 -0.837242 5.5947 0
M  V30 9459 H 898.208 -0.582886 6.49188 0
M  V30 9460 N 901.641 -1.19671 1.02551 0
M  V30 9461 C 902.887 -1.89548 0.721069 0
M  V30 9462 C 903.22 -1.79209 -0.748176 0
M  V30 9463 O 902.495 -1.1822 -1.54448 0
M  V30 9464 C 902.778 -3.4061 1.16861 0
M  V30 9465 C 902.631 -3.59838 2.69883 0
M  V30 9466 C 903.95 -4.33718 0.746782 0
M  V30 9467 H 901.069 -0.688315 0.263422 0
M  V30 9468 H 903.711 -1.40883 1.27483 0
M  V30 9469 H 901.861 -3.82188 0.697477 0
M  V30 9470 H 903.533 -3.27454 3.24917 0
M  V30 9471 H 901.776 -3.03005 3.10435 0
M  V30 9472 H 902.447 -4.65766 2.96253 0
M  V30 9473 H 904.923 -3.99837 1.15195 0
M  V30 9474 H 903.799 -5.38012 1.08786 0
M  V30 9475 H 904.06 -4.40704 -0.351057 0
M  V30 9476 N 903.119 -0.802921 -1.35613 0
M  V30 9477 C 904.359 -0.387163 -2.007 0
M  V30 9478 C 904.723 1.02546 -1.62322 0
M  V30 9479 O 905.924 1.54303 -2.201 0
M  V30 9480 C 904.195 -0.560813 -3.52973 0
M  V30 9481 S 905.754 -0.234935 -4.38171 0
M  V30 9482 H 902.572 -0.147218 -0.695592 0
M  V30 9483 H 905.174 -1.04437 -1.65267 0
M  V30 9484 H 903.878 -1.58897 -3.78391 0
M  V30 9485 H 903.409 0.111845 -3.93241 0
M  V30 9486 H 905.424 0.958715 -4.8685 0
M  V30 9487 N 904.597 1.47463 -0.556102 0
M  V30 9488 C 905.844 2.02475 -0.0316337 0
M  V30 9489 C 906.172 1.43057 1.31777 0
M  V30 9490 O 905.427 0.575376 1.87051 0
M  V30 9491 C 905.726 3.57224 0.112126 0
M  V30 9492 C 905.392 4.35557 -1.16624 0
M  V30 9493 C 904.054 4.56678 -1.51654 0
M  V30 9494 C 906.406 4.8074 -2.01342 0
M  V30 9495 C 903.734 5.20231 -2.7125 0
M  V30 9496 C 906.086 5.45613 -3.2014 0
M  V30 9497 C 904.75 5.64967 -3.55484 0
M  V30 9498 H 904.02 0.74091 -0.0115756 0
M  V30 9499 H 906.667 1.77148 -0.727392 0
M  V30 9500 H 904.972 3.81538 0.890842 0
M  V30 9501 H 906.669 3.97438 0.533261 0
M  V30 9502 H 903.259 4.19395 -0.883489 0
M  V30 9503 H 907.443 4.64201 -1.75587 0
M  V30 9504 H 902.699 5.3341 -2.98804 0
M  V30 9505 H 906.873 5.79587 -3.86073 0
M  V30 9506 H 904.5 6.13984 -4.4825 0
M  V30 9507 N 906.075 0.2925 1.54862 0
M  V30 9508 C 907.007 -0.620889 2.2063 0
M  V30 9509 C 908.02 -1.10412 1.19637 0
M  V30 9510 O 909.209 -1.02304 1.46274 0
M  V30 9511 C 906.309 -1.861 2.83232 0
M  V30 9512 C 905.482 -1.52168 4.10078 0
M  V30 9513 C 904.541 -2.61605 4.56562 0
M  V30 9514 O 903.567 -2.27056 5.21952 0
M  V30 9515 N 904.769 -3.9199 4.28163 0
M  V30 9516 H 907.534 -0.0579028 2.99644 0
M  V30 9517 H 905.095 0.114333 1.61496 0
M  V30 9518 H 907.087 -2.58642 3.11266 0
M  V30 9519 H 905.657 -2.33259 2.08108 0
M  V30 9520 H 904.877 -0.629283 3.89145 0
M  V30 9521 H 906.165 -1.27023 4.92689 0
M  V30 9522 H 905.563 -4.22872 3.7576 0
M  V30 9523 H 904.12 -4.60857 4.60928 0
M  V30 9524 N 907.553 -1.57587 0.0200696 0
M  V30 9525 C 908.964 -1.79312 -0.520019 0
M  V30 9526 C 909.315 -0.929475 -1.72787 0
M  V30 9527 O 908.44 -0.137389 -2.15963 0
M  V30 9528 C 909.035 -3.25203 -0.950172 0
M  V30 9529 C 907.594 -3.47954 -1.43543 0
M  V30 9530 C 906.741 -2.74459 -0.395917 0
M  V30 9531 H 909.692 -1.56779 0.246153 0
M  V30 9532 H 909.713 -3.34418 -1.81508 0
M  V30 9533 H 909.225 -3.88035 -0.070883 0
M  V30 9534 H 907.326 -2.90363 -2.33495 0
M  V30 9535 H 907.439 -4.56661 -1.44905 0
M  V30 9536 H 905.803 -2.39669 -0.862022 0
M  V30 9537 H 906.586 -3.40001 0.47475 0
M  V30 9538 N 909.032 0.252966 -1.55557 0
M  V30 9539 C 909.98 1.33289 -1.90622 0
M  V30 9540 C 910.974 1.50133 -0.784638 0
M  V30 9541 O 912.18 1.51679 -0.969196 0
M  V30 9542 H 908.555 0.446196 -0.605321 0
M  V30 9543 H 910.526 1.00977 -2.80796 0
M  V30 9544 C 909.275 2.68254 -2.21213 0
M  V30 9545 H 908.598 2.5609 -3.07014 0
M  V30 9546 H 910.038 3.42707 -2.49656 0
M  V30 9547 C 908.497 3.20884 -1.02642 0
M  V30 9548 O 909.027 4.00783 -0.271292 0
M  V30 9549 N 907.233 2.7883 -0.818682 0
M  V30 9550 H 906.78 2.13966 -1.43444 0
M  V30 9551 H 906.738 3.14388 -0.0269989 0
M  V30 9552 N 910.51 1.48831 0.518367 0
M  V30 9553 C 911.735 1.61379 1.30275 0
M  V30 9554 C 912.16 0.278571 1.86026 0
M  V30 9555 O 911.518 -0.751427 1.64995 0
M  V30 9556 C 911.566 2.67225 2.42122 0
M  V30 9557 O 910.67 2.25192 3.45489 0
M  V30 9558 H 910.011 0.540742 0.385349 0
M  V30 9559 H 912.541 1.949 0.622498 0
M  V30 9560 H 912.551 2.88859 2.8814 0
M  V30 9561 H 911.226 3.64155 2.00907 0
M  V30 9562 H 909.803 2.13819 3.05509 0
M  V30 9563 N 911.988 -0.768124 1.37614 0
M  V30 9564 C 913.236 -1.52379 1.3276 0
M  V30 9565 C 913.557 -1.94809 -0.0863564 0
M  V30 9566 O 912.827 -1.66568 -1.03112 0
M  V30 9567 H 911.407 -0.565179 0.488448 0
M  V30 9568 H 914.069 -0.913974 1.72141 0
M  V30 9569 H 913.165 -2.4215 1.96901 0
M  V30 9570 N 913.466 -1.22244 -0.994698 0
M  V30 9571 C 914.429 -0.992308 -2.06606 0
M  V30 9572 C 915.429 0.0405872 -1.60749 0
M  V30 9573 O 916.619 -0.197737 -1.73074 0
M  V30 9574 C 913.751 -0.498499 -3.37236 0
M  V30 9575 H 914.944 -1.9429 -2.28455 0
M  V30 9576 H 912.497 -1.04087 -1.166 0
M  V30 9577 H 913.232 0.456531 -3.21071 0
M  V30 9578 H 913.017 -1.24367 -3.71854 0
M  V30 9579 H 914.507 -0.35768 -4.16065 0
M  V30 9580 N 914.944 1.19125 -1.03184 0
M  V30 9581 C 915.876 2.21914 -0.573294 0
M  V30 9582 C 916.889 1.5894 0.352397 0
M  V30 9583 O 918.078 1.77883 0.148318 0
M  V30 9584 C 915.178 3.38403 0.18355 0
M  V30 9585 C 914.351 4.3096 -0.747817 0
M  V30 9586 C 913.41 5.26188 -0.0358489 0
M  V30 9587 O 912.436 5.65321 -0.663388 0
M  V30 9588 N 913.638 5.67235 1.23387 0
M  V30 9589 H 916.403 2.61881 -1.45734 0
M  V30 9590 H 913.964 1.33821 -0.911231 0
M  V30 9591 H 915.956 3.99124 0.669468 0
M  V30 9592 H 914.526 2.97201 0.969043 0
M  V30 9593 H 913.746 3.67976 -1.41377 0
M  V30 9594 H 915.034 4.89708 -1.38071 0
M  V30 9595 H 914.432 5.37481 1.76439 0
M  V30 9596 H 912.989 6.30196 1.66423 0
M  V30 9597 N 916.422 0.810101 1.35185 0
M  V30 9598 C 917.67 0.391343 1.98275 0
M  V30 9599 C 917.991 -1.04592 1.64577 0
M  V30 9600 O 917.261 -1.72417 0.93001 0
M  V30 9601 H 915.841 0.141715 0.733434 0
M  V30 9602 H 918.503 1.03672 1.6504 0
M  V30 9603 H 917.599 0.49991 3.0807 0
M  V30 9604 N 917.9 -1.47166 0.563914 0
M  V30 9605 C 918.81 -2.33885 -0.182977 0
M  V30 9606 C 919.826 -1.48605 -0.905132 0
M  V30 9607 O 921.002 -1.81518 -0.872527 0
M  V30 9608 C 918.067 -3.25433 -1.19558 0
M  V30 9609 C 917.128 -4.26607 -0.480129 0
M  V30 9610 C 916.361 -5.1378 -1.44449 0
M  V30 9611 O 916.584 -5.03531 -2.67979 0
M  V30 9612 O 915.518 -5.94109 -0.965321 0
M  V30 9613 H 919.344 -2.99065 0.528544 0
M  V30 9614 H 916.929 -1.45834 0.324468 0
M  V30 9615 H 918.811 -3.81964 -1.77993 0
M  V30 9616 H 917.486 -2.62873 -1.8889 0
M  V30 9617 H 916.393 -3.73817 0.145583 0
M  V30 9618 H 917.726 -4.919 0.171868 0
M  V30 9619 N 919.378 -0.300708 -1.54705 0
M  V30 9620 C 920.608 0.310819 -2.04249 0
M  V30 9621 C 921.016 1.4809 -1.17754 0
M  V30 9622 O 920.359 1.82654 -0.195779 0
M  V30 9623 C 920.421 0.83014 -3.49784 0
M  V30 9624 C 920.085 -0.214628 -4.56496 0
M  V30 9625 C 921.082 -1.04298 -5.09331 0
M  V30 9626 C 918.767 -0.356242 -5.01035 0
M  V30 9627 C 920.761 -1.99889 -6.05246 0
M  V30 9628 C 918.448 -1.3156 -5.96771 0
M  V30 9629 C 919.446 -2.1354 -6.4876 0
M  V30 9630 O 919.134 -3.07849 -7.4262 0
M  V30 9631 H 918.866 0.0715341 -0.672204 0
M  V30 9632 H 921.42 -0.438179 -2.00672 0
M  V30 9633 H 919.65 1.62966 -3.50684 0
M  V30 9634 H 921.339 1.35752 -3.82526 0
M  V30 9635 H 922.105 -0.944439 -4.75716 0
M  V30 9636 H 917.984 0.271916 -4.60197 0
M  V30 9637 H 921.528 -2.63917 -6.45751 0
M  V30 9638 H 917.425 -1.41486 -6.29803 0
M  V30 9639 H 918.193 -3.02824 -7.60421 0
M  V30 9640 N 920.856 1.57574 -0.0284266 0
M  V30 9641 C 921.819 2.09096 0.938691 0
M  V30 9642 C 922.819 1.00588 1.25454 0
M  V30 9643 O 924.009 1.2675 1.19499 0
M  V30 9644 C 921.141 2.55624 2.25542 0
M  V30 9645 H 922.334 2.95829 0.49248 0
M  V30 9646 H 919.887 1.5475 0.219594 0
M  V30 9647 H 920.622 1.72218 2.74793 0
M  V30 9648 H 920.407 3.34896 2.03929 0
M  V30 9649 H 921.897 2.95712 2.94863 0
M  V30 9650 N 922.334 -0.244713 1.55689 0
M  V30 9651 C 923.582 -0.970525 1.77272 0
M  V30 9652 C 923.903 -1.85771 0.592804 0
M  V30 9653 O 923.173 -1.91952 -0.391323 0
M  V30 9654 H 921.753 -0.361342 0.653789 0
M  V30 9655 H 924.415 -0.262134 1.93129 0
M  V30 9656 H 923.511 -1.59096 2.68505 0
M  V30 9657 N 923.813 -1.49104 -0.510467 0
M  V30 9658 C 924.743 -1.67981 -1.62187 0
M  V30 9659 C 925.724 -0.528529 -1.6168 0
M  V30 9660 O 926.909 -0.763305 -1.7857 0
M  V30 9661 C 924.039 -1.73755 -3.0071 0
M  V30 9662 C 922.993 -2.88579 -3.1608 0
M  V30 9663 C 922.319 -2.79457 -4.5586 0
M  V30 9664 C 923.619 -4.29638 -2.97 0
M  V30 9665 H 925.313 -2.61029 -1.46643 0
M  V30 9666 H 922.859 -1.25615 -0.704042 0
M  V30 9667 H 924.812 -1.85548 -3.78352 0
M  V30 9668 H 923.536 -0.772996 -3.17321 0
M  V30 9669 H 922.195 -2.76372 -2.40861 0
M  V30 9670 H 921.843 -1.80929 -4.69333 0
M  V30 9671 H 921.543 -3.56518 -4.67086 0
M  V30 9672 H 923.067 -2.93245 -5.35574 0
M  V30 9673 H 924.481 -4.42575 -3.64418 0
M  V30 9674 H 922.878 -5.07847 -3.19704 0
M  V30 9675 H 923.948 -4.44741 -1.93219 0
M  V30 9676 N 925.291 0.760815 -1.38019 0
M  V30 9677 C 926.254 1.85604 -1.34476 0
M  V30 9678 C 927.254 1.58897 -0.24666 0
M  V30 9679 O 928.444 1.66776 -0.50314 0
M  V30 9680 C 925.576 3.22945 -1.09176 0
M  V30 9681 H 926.769 1.90155 -2.31908 0
M  V30 9682 H 924.322 0.961746 -1.23208 0
M  V30 9683 H 925.057 3.24066 -0.123216 0
M  V30 9684 H 924.842 3.43723 -1.88672 0
M  V30 9685 H 926.332 4.03022 -1.09375 0
M  V30 9686 N 926.769 1.22769 0.988202 0
M  V30 9687 C 927.997 1.08155 1.76381 0
M  V30 9688 C 928.412 -0.367573 1.85187 0
M  V30 9689 O 927.769 -1.25455 1.32541 0
M  V30 9690 C 927.82 1.69193 3.19462 0
M  V30 9691 O 927.541 3.08437 3.11125 0
M  V30 9692 C 929.042 1.59915 4.13451 0
M  V30 9693 H 926.262 0.378908 0.553778 0
M  V30 9694 H 928.806 1.6246 1.24206 0
M  V30 9695 H 926.961 1.18939 3.6869 0
M  V30 9696 H 927.375 3.37916 4.0114 0
M  V30 9697 H 928.849 2.07339 5.1158 0
M  V30 9698 H 929.326 0.556546 4.3566 0
M  V30 9699 H 929.932 2.09497 3.70123 0
M  V30 9700 N 928.247 -1.18576 1.03814 0
M  V30 9701 C 929.496 -1.87822 0.735235 0
M  V30 9702 C 929.809 -1.81069 -0.739819 0
M  V30 9703 O 931.015 -2.45654 -1.15614 0
M  V30 9704 C 929.471 -3.36941 1.26486 0
M  V30 9705 C 929.079 -3.5223 2.76836 0
M  V30 9706 C 930.823 -4.11604 1.03836 0
M  V30 9707 C 928.73 -4.95294 3.23169 0
M  V30 9708 H 927.66 -0.703487 0.271333 0
M  V30 9709 H 930.311 -1.34 1.25365 0
M  V30 9710 H 928.693 -3.90217 0.674318 0
M  V30 9711 H 929.867 -3.09239 3.41625 0
M  V30 9712 H 928.182 -2.90969 2.97869 0
M  V30 9713 H 930.779 -5.17123 1.3597 0
M  V30 9714 H 931.122 -4.16293 -0.0244945 0
M  V30 9715 H 931.655 -3.64494 1.59338 0
M  V30 9716 H 928.394 -4.95772 4.28824 0
M  V30 9717 H 927.914 -5.3901 2.63113 0
M  V30 9718 H 929.593 -5.63996 3.17045 0
M  V30 9719 N 929.725 -0.817259 -1.34754 0
M  V30 9720 C 931.141 -0.502309 -1.51489 0
M  V30 9721 C 931.341 0.974568 -1.76364 0
M  V30 9722 O 930.397 1.75924 -1.81127 0
M  V30 9723 C 931.71 -1.35693 -2.68343 0
M  V30 9724 C 933.258 -1.35347 -2.82224 0
M  V30 9725 C 933.733 -2.19244 -4.02114 0
M  V30 9726 N 935.224 -2.16837 -4.09311 0
M  V30 9727 C 935.959 -2.78505 -5.01221 0
M  V30 9728 N 935.455 -3.4914 -5.98392 0
M  V30 9729 N 937.248 -2.68089 -4.94049 0
M  V30 9730 H 929.399 -1.77359 -1.16866 0
M  V30 9731 H 931.662 -0.755476 -0.572678 0
M  V30 9732 H 931.368 -2.40548 -2.56573 0
M  V30 9733 H 931.242 -1.01764 -3.63213 0
M  V30 9734 H 933.629 -0.312727 -2.93438 0
M  V30 9735 H 933.71 -1.7327 -1.88179 0
M  V30 9736 H 933.354 -3.23365 -3.9166 0
M  V30 9737 H 933.284 -1.78675 -4.95361 0
M  V30 9738 H 935.775 -1.65452 -3.39756 0
M  V30 9739 H 936.088 -3.93455 -6.65141 0
M  V30 9740 H 934.433 -3.53246 -5.98533 0
M  V30 9741 H 937.624 -2.12485 -4.17094 0
M  V30 9742 H 937.797 -3.16436 -5.65484 0
M  V30 9743 N 931.203 1.46865 -0.571711 0
M  V30 9744 C 932.166 2.28658 0.157499 0
M  V30 9745 C 933.166 1.37773 0.829172 0
M  V30 9746 O 934.356 1.6026 0.682811 0
M  V30 9747 C 931.488 3.17859 1.23202 0
M  V30 9748 H 932.681 2.94603 -0.561171 0
M  V30 9749 H 930.234 1.52793 -0.329229 0
M  V30 9750 H 930.969 2.56637 1.98262 0
M  V30 9751 H 930.754 3.84762 0.755031 0
M  V30 9752 H 932.244 3.7945 1.74378 0
M  V30 9753 N 932.681 0.308908 1.54543 0
M  V30 9754 C 933.911 -0.299983 2.04411 0
M  V30 9755 C 934.319 -1.47463 1.18538 0
M  V30 9756 O 933.662 -1.82547 0.205463 0
M  V30 9757 C 933.724 -0.811579 3.50219 0
M  V30 9758 C 933.388 0.238834 4.56375 0
M  V30 9759 C 934.385 1.06997 5.08771 0
M  V30 9760 C 932.07 0.382808 5.00839 0
M  V30 9761 C 934.064 2.03096 6.04178 0
M  V30 9762 C 931.751 1.34723 5.96065 0
M  V30 9763 C 932.749 2.16978 6.47618 0
M  V30 9764 O 932.437 3.11783 7.40977 0
M  V30 9765 H 932.169 -0.0679682 0.672574 0
M  V30 9766 H 934.723 0.448815 2.00437 0
M  V30 9767 H 932.953 -1.61104 3.51543 0
M  V30 9768 H 934.642 -1.33721 3.83241 0
M  V30 9769 H 935.408 0.969654 4.75208 0
M  V30 9770 H 931.287 -0.247507 4.60335 0
M  V30 9771 H 934.831 2.67338 6.44342 0
M  V30 9772 H 930.728 1.44824 6.29044 0
M  V30 9773 H 931.496 3.06853 7.58804 0
M  V30 9774 N 934.159 -1.57557 0.0367827 0
M  V30 9775 C 935.089 -2.13712 -0.940719 0
M  V30 9776 C 936.07 -1.05515 -1.33419 0
M  V30 9777 O 937.255 -1.33385 -1.41146 0
M  V30 9778 C 934.385 -2.67043 -2.22048 0
M  V30 9779 C 933.339 -3.80096 -1.96752 0
M  V30 9780 C 932.665 -4.19886 -3.31059 0
M  V30 9781 C 933.965 -5.05848 -1.30058 0
M  V30 9782 H 935.659 -2.9564 -0.473033 0
M  V30 9783 H 933.205 -1.42214 -0.226089 0
M  V30 9784 H 935.158 -3.04964 -2.90818 0
M  V30 9785 H 933.882 -1.82287 -2.70996 0
M  V30 9786 H 932.541 -3.42625 -1.30398 0
M  V30 9787 H 932.189 -3.32101 -3.77781 0
M  V30 9788 H 931.889 -4.96073 -3.14937 0
M  V30 9789 H 933.413 -4.60395 -4.01084 0
M  V30 9790 H 934.827 -5.41306 -1.8884 0
M  V30 9791 H 933.224 -5.87084 -1.24309 0
M  V30 9792 H 934.294 -4.84122 -0.274591 0
M  V30 9793 N 935.637 0.236453 -1.55816 0
M  V30 9794 C 936.585 1.31259 -1.92025 0
M  V30 9795 C 937.579 1.49292 -0.800518 0
M  V30 9796 O 938.785 1.50643 -0.985229 0
M  V30 9797 H 935.16 0.439751 -0.610019 0
M  V30 9798 H 937.131 0.979926 -2.81851 0
M  V30 9799 C 935.88 2.65892 -2.24046 0
M  V30 9800 H 935.203 2.5282 -3.09713 0
M  V30 9801 H 936.643 3.40039 -2.53277 0
M  V30 9802 C 935.102 3.19777 -1.0604 0
M  V30 9803 O 935.632 4.00473 -0.313786 0
M  V30 9804 N 933.838 2.77946 -0.848209 0
M  V30 9805 H 933.385 2.12433 -1.45706 0
M  V30 9806 H 933.343 3.14342 -0.0603424 0
M  V30 9807 N 937.115 1.49373 0.502552 0
M  V30 9808 C 938.047 1.62045 1.62093 0
M  V30 9809 C 939.06 0.503221 1.54827 0
M  V30 9810 O 940.249 0.775208 1.60788 0
M  V30 9811 C 937.349 1.55971 3.00876 0
M  V30 9812 C 936.522 2.832 3.33341 0
M  V30 9813 C 935.581 2.702 4.51529 0
M  V30 9814 O 934.607 3.44132 4.53389 0
M  V30 9815 N 935.809 1.81642 5.5135 0
M  V30 9816 H 938.574 2.58501 1.51649 0
M  V30 9817 H 936.135 1.46442 0.690396 0
M  V30 9818 H 938.127 1.4493 3.77859 0
M  V30 9819 H 936.697 0.673795 3.05252 0
M  V30 9820 H 935.917 3.08604 2.4527 0
M  V30 9821 H 937.205 3.67551 3.51829 0
M  V30 9822 H 936.603 1.20829 5.52645 0
M  V30 9823 H 935.16 1.76524 6.27441 0
M  V30 9824 N 938.594 -0.753485 1.38421 0
M  V30 9825 C 939.541 -1.86723 1.35659 0
M  V30 9826 C 940.511 -1.64648 0.219121 0
M  V30 9827 O 941.696 -1.86313 0.411366 0
M  V30 9828 C 938.836 -3.24023 1.18758 0
M  V30 9829 C 937.949 -3.57928 2.41892 0
M  V30 9830 C 937.084 -4.84532 2.17721 0
M  V30 9831 C 936.123 -5.11224 3.36626 0
M  V30 9832 N 935.26 -6.29023 3.11889 0
M  V30 9833 H 940.1 -1.88419 2.30873 0
M  V30 9834 H 937.637 -0.920934 1.14705 0
M  V30 9835 H 939.595 -4.03252 1.06974 0
M  V30 9836 H 938.225 -3.21654 0.27182 0
M  V30 9837 H 937.277 -2.73541 2.64347 0
M  V30 9838 H 938.589 -3.73581 3.30513 0
M  V30 9839 H 937.743 -5.71704 2.03074 0
M  V30 9840 H 936.482 -4.71018 1.26465 0
M  V30 9841 H 935.487 -4.2252 3.51791 0
M  V30 9842 H 936.712 -5.26635 4.28757 0
M  V30 9843 H 934.658 -6.16832 2.2328 0
M  V30 9844 H 934.575 -6.45177 3.9406 0
M  V30 9845 H 935.843 -7.19083 3.00898 0
M  V30 9846 N 940.072 -1.23292 -0.981677 0
M  V30 9847 C 941.32 -1.06214 -1.71939 0
M  V30 9848 C 941.641 0.401989 -1.90812 0
M  V30 9849 O 940.911 1.28825 -1.47584 0
M  V30 9850 H 939.491 -0.390042 -0.637084 0
M  V30 9851 H 942.153 -1.54988 -1.18173 0
M  V30 9852 H 941.249 -1.54904 -2.70945 0
M  V30 9853 N 941.55 1.18024 -1.04442 0
M  V30 9854 C 942.46 2.25436 -0.649276 0
M  V30 9855 C 943.476 1.70915 0.326189 0
M  V30 9856 O 944.652 2.00592 0.180174 0
M  V30 9857 C 941.717 3.46693 -0.0222558 0
M  V30 9858 C 940.778 4.16332 -1.0472 0
M  V30 9859 C 940.011 5.31799 -0.450011 0
M  V30 9860 O 940.234 5.65544 0.742717 0
M  V30 9861 O 939.168 5.90209 -1.18056 0
M  V30 9862 H 942.994 2.61508 -1.54426 0
M  V30 9863 H 940.579 1.25178 -0.81552 0
M  V30 9864 H 942.461 4.20132 0.326597 0
M  V30 9865 H 941.136 3.12436 0.84649 0
M  V30 9866 H 940.043 3.44944 -1.44792 0
M  V30 9867 H 941.376 4.54598 -1.88684 0
M  V30 9868 N 943.028 0.824394 1.34319 0
M  V30 9869 C 944.276 0.41235 1.97849 0
M  V30 9870 C 944.597 -1.02841 1.65677 0
M  V30 9871 O 943.867 -1.71421 0.948245 0
M  V30 9872 H 942.447 0.149486 0.73189 0
M  V30 9873 H 945.109 1.05416 1.63931 0
M  V30 9874 H 944.205 0.532557 3.07523 0
M  V30 9875 N 944.506 -1.46559 0.579492 0
M  V30 9876 C 945.456 -2.27316 -0.17645 0
M  V30 9877 C 946.44 -1.35681 -0.864835 0
M  V30 9878 O 947.632 -1.59879 -0.759462 0
M  V30 9879 C 944.761 -3.21957 -1.19157 0
M  V30 9880 C 943.847 -4.21077 -0.505459 0
M  V30 9881 N 944.238 -5.03908 0.437133 0
M  V30 9882 C 942.536 -4.39535 -0.75661 0
M  V30 9883 C 943.237 -5.75635 0.837819 0
M  V30 9884 N 942.213 -5.43276 0.187679 0
M  V30 9885 H 946.015 -2.88747 0.547932 0
M  V30 9886 H 943.529 -1.5737 0.401048 0
M  V30 9887 H 945.526 -3.78518 -1.74728 0
M  V30 9888 H 944.186 -2.62085 -1.9168 0
M  V30 9889 H 945.197 -5.11487 0.812488 0
M  V30 9890 H 941.874 -3.90815 -1.46867 0
M  V30 9891 H 943.264 -6.52235 1.61364 0
M  V30 9892 N 945.984 -0.3171 -1.54377 0
M  V30 9893 C 947.4 0.035766 -1.5956 0
M  V30 9894 C 947.6 1.51038 -1.33378 0
M  V30 9895 O 946.656 2.26546 -1.11505 0
M  V30 9896 C 947.969 -0.376652 -2.98332 0
M  V30 9897 C 949.517 -0.326765 -3.1129 0
M  V30 9898 C 949.992 -0.714247 -4.52396 0
M  V30 9899 N 951.483 -0.667402 -4.58367 0
M  V30 9900 C 952.218 -0.939494 -5.65651 0
M  V30 9901 N 951.714 -1.27839 -6.80903 0
M  V30 9902 N 953.507 -0.865484 -5.55397 0
M  V30 9903 H 945.658 -1.27794 -1.69654 0
M  V30 9904 H 947.921 -0.5192 -0.79318 0
M  V30 9905 H 947.627 -1.40381 -3.22469 0
M  V30 9906 H 947.501 0.261611 -3.76292 0
M  V30 9907 H 949.888 0.69117 -2.86892 0
M  V30 9908 H 949.969 -0.999873 -2.35449 0
M  V30 9909 H 949.613 -1.73007 -4.77526 0
M  V30 9910 H 949.543 -0.0188962 -5.26597 0
M  V30 9911 H 952.034 -0.417062 -3.75592 0
M  V30 9912 H 952.347 -1.47155 -7.5866 0
M  V30 9913 H 950.692 -1.31658 -6.82416 0
M  V30 9914 H 953.883 -0.600265 -4.64235 0
M  V30 9915 H 954.056 -1.0809 -6.38921 0
M  V30 9916 N 947.462 1.57535 -0.0451378 0
M  V30 9917 C 948.69 1.96761 0.639742 0
M  V30 9918 C 949.105 0.922405 1.64734 0
M  V30 9919 O 948.462 -0.0940535 1.82257 0
M  V30 9920 C 948.513 3.36066 1.33199 0
M  V30 9921 O 948.234 4.36579 0.364757 0
M  V30 9922 C 949.735 3.90015 2.1072 0
M  V30 9923 H 946.955 0.64769 0.175324 0
M  V30 9924 H 949.499 2.04206 -0.109651 0
M  V30 9925 H 947.654 3.2979 2.03266 0
M  V30 9926 H 948.068 5.17432 0.858168 0
M  V30 9927 H 949.542 4.89785 2.54586 0
M  V30 9928 H 950.019 3.25117 2.95288 0
M  V30 9929 H 950.625 3.99609 1.45577 0
M  V30 9930 N 948.94 -0.228186 1.55939 0
M  V30 9931 C 950.186 -0.954964 1.78909 0
M  V30 9932 C 950.519 -1.8425 0.613648 0
M  V30 9933 O 949.794 -1.90604 -0.38737 0
M  V30 9934 C 950.077 -1.79957 3.1191 0
M  V30 9935 C 949.93 -0.938968 4.3989 0
M  V30 9936 C 951.249 -2.77859 3.41295 0
M  V30 9937 H 948.368 -0.345745 0.650868 0
M  V30 9938 H 951.01 -0.224244 1.88672 0
M  V30 9939 H 949.16 -2.42256 3.03717 0
M  V30 9940 H 950.832 -0.333225 4.60095 0
M  V30 9941 H 949.075 -0.244096 4.33113 0
M  V30 9942 H 949.746 -1.56416 5.29375 0
M  V30 9943 H 952.222 -2.25695 3.49572 0
M  V30 9944 H 951.098 -3.34062 4.35538 0
M  V30 9945 H 951.359 -3.55266 2.63132 0
M  V30 9946 N 950.418 -1.49637 -0.494624 0
M  V30 9947 C 951.658 -1.61067 -1.25844 0
M  V30 9948 C 952.022 -0.293666 -1.89741 0
M  V30 9949 O 953.223 -0.283202 -2.67304 0
M  V30 9950 C 951.494 -2.74218 -2.29215 0
M  V30 9951 S 953.053 -3.05639 -3.1485 0
M  V30 9952 H 949.871 -0.568056 -0.42759 0
M  V30 9953 H 952.473 -1.87323 -0.559491 0
M  V30 9954 H 951.177 -3.68422 -1.80813 0
M  V30 9955 H 950.708 -2.49975 -3.0377 0
M  V30 9956 H 952.723 -2.47651 -4.29981 0
M  V30 9957 N 951.896 0.746133 -1.38819 0
M  V30 9958 C 952.826 1.87344 -1.39372 0
M  V30 9959 C 953.807 1.68123 -0.258583 0
M  V30 9960 O 954.992 1.88606 -0.462769 0
M  V30 9961 C 952.122 3.24962 -1.22543 0
M  V30 9962 C 951.076 3.58799 -2.33339 0
M  V30 9963 C 950.402 4.95235 -2.01609 0
M  V30 9964 C 951.702 3.62911 -3.75624 0
M  V30 9965 H 953.396 1.87138 -2.33709 0
M  V30 9966 H 950.942 0.898937 -1.12495 0
M  V30 9967 H 952.895 4.03488 -1.21554 0
M  V30 9968 H 951.619 3.25667 -0.246707 0
M  V30 9969 H 950.278 2.82596 -2.33527 0
M  V30 9970 H 949.926 4.92508 -1.02202 0
M  V30 9971 H 949.626 5.18843 -2.75819 0
M  V30 9972 H 951.15 5.76131 -2.02251 0
M  V30 9973 H 952.564 4.31535 -3.77426 0
M  V30 9974 H 950.961 3.98031 -4.491 0
M  V30 9975 H 952.031 2.62967 -4.07402 0
M  V30 9976 N 953.375 1.23811 0.975125 0
M  V30 9977 C 954.624 1.06741 1.71141 0
M  V30 9978 C 954.937 -0.394986 1.9157 0
M  V30 9979 O 956.143 -0.685723 2.62698 0
M  V30 9980 C 954.599 1.86168 3.08009 0
M  V30 9981 C 954.207 3.36771 2.95448 0
M  V30 9982 C 955.951 1.77604 3.85561 0
M  V30 9983 C 953.858 4.0857 4.2758 0
M  V30 9984 H 952.788 0.395819 0.64175 0
M  V30 9985 H 955.439 1.47825 1.0872 0
M  V30 9986 H 953.821 1.37893 3.71216 0
M  V30 9987 H 954.995 3.92571 2.41298 0
M  V30 9988 H 953.31 3.46205 2.31368 0
M  V30 9989 H 955.907 2.28556 4.83391 0
M  V30 9990 H 956.25 0.739837 4.09673 0
M  V30 9991 H 956.783 2.23519 3.29065 0
M  V30 9992 H 953.522 5.12518 4.08663 0
M  V30 9993 H 953.042 3.57556 4.81574 0
M  V30 9994 H 954.721 4.15157 4.9624 0
M  V30 9995 N 954.853 -1.17469 1.05066 0
M  V30 9996 C 956.264 -1.69334 0.786304 0
M  V30 9997 C 956.615 -1.83604 -0.691671 0
M  V30 9998 O 955.74 -1.52269 -1.53763 0
M  V30 9999 C 956.335 -3.07572 1.42074 0
M  V30 10000 C 954.894 -3.56609 1.20446 0
M  V30 10001 C 954.041 -2.329 1.50508 0
M  V30 10002 H 956.992 -1.02003 1.21577 0
M  V30 10003 H 957.013 -3.71352 0.829334 0
M  V30 10004 H 956.525 -2.97154 2.49642 0
M  V30 10005 H 954.626 -3.72306 0.147968 0
M  V30 10006 H 954.739 -4.39446 1.90852 0
M  V30 10007 H 953.103 -2.37305 0.925124 0
M  V30 10008 H 953.886 -2.25093 2.59207 0
M  V30 10009 N 956.331 -0.831506 -1.3388 0
M  V30 10010 C 957.278 -0.257449 -2.2936 0
M  V30 10011 C 958.248 0.622604 -1.5399 0
M  V30 10012 O 959.433 0.562432 -1.82322 0
M  V30 10013 C 956.573 0.567587 -3.404 0
M  V30 10014 C 955.686 -0.335666 -4.30694 0
M  V30 10015 C 954.821 0.499762 -5.28844 0
M  V30 10016 C 953.86 -0.402343 -6.10776 0
M  V30 10017 N 952.997 0.39452 -7.00991 0
M  V30 10018 H 957.837 -1.077 -2.77857 0
M  V30 10019 H 955.374 -0.542589 -1.36727 0
M  V30 10020 H 957.332 1.06133 -4.03474 0
M  V30 10021 H 955.962 1.35217 -2.93115 0
M  V30 10022 H 955.014 -0.94768 -3.68406 0
M  V30 10023 H 956.326 -1.02896 -4.88072 0
M  V30 10024 H 955.48 1.05763 -5.9741 0
M  V30 10025 H 954.219 1.22652 -4.72025 0
M  V30 10026 H 953.224 -0.972288 -5.41135 0
M  V30 10027 H 954.449 -1.12735 -6.69677 0
M  V30 10028 H 952.395 1.1048 -6.4663 0
M  V30 10029 H 952.312 -0.240209 -7.55618 0
M  V30 10030 H 953.58 0.934867 -7.73874 0
M  V30 10031 N 957.809 1.4625 -0.587256 0
M  V30 10032 C 959.034 2.07252 -0.0784517 0
M  V30 10033 C 959.459 1.43239 1.21919 0
M  V30 10034 O 958.817 0.517791 1.73749 0
M  V30 10035 C 958.865 3.60534 0.0691037 0
M  V30 10036 O 957.969 3.96773 1.12448 0
M  V30 10037 H 957.31 0.660825 -0.064859 0
M  V30 10038 H 959.84 1.87819 -0.811491 0
M  V30 10039 H 959.85 4.0708 0.273826 0
M  V30 10040 H 958.525 4.06516 -0.878514 0
M  V30 10041 H 957.102 3.6193 0.897852 0
M  V30 10042 N 959.287 0.325282 1.54207 0
M  V30 10043 C 960.25 -0.527228 2.23054 0
M  V30 10044 C 961.25 -1.04217 1.22456 0
M  V30 10045 O 962.44 -0.934325 1.47024 0
M  V30 10046 C 959.572 -1.7325 2.93594 0
M  V30 10047 H 960.765 0.0746423 2.99807 0
M  V30 10048 H 958.318 0.0763872 1.56113 0
M  V30 10049 H 959.053 -2.37356 2.20981 0
M  V30 10050 H 958.838 -1.37065 3.67363 0
M  V30 10051 H 960.328 -2.3376 3.46043 0
M  V30 10052 N 960.765 -1.57509 0.0534917 0
M  V30 10053 C 961.715 -2.08179 -0.929802 0
M  V30 10054 C 962.699 -0.987451 -1.27036 0
M  V30 10055 O 963.891 -1.25076 -1.2524 0
M  V30 10056 C 961.02 -2.63221 -2.20385 0
M  V30 10057 C 960.106 -3.79629 -1.89058 0
M  V30 10058 N 960.497 -4.8931 -1.28101 0
M  V30 10059 C 958.795 -3.88578 -2.18914 0
M  V30 10060 C 959.496 -5.70329 -1.14455 0
M  V30 10061 N 958.472 -5.18011 -1.64821 0
M  V30 10062 H 962.274 -2.90374 -0.453874 0
M  V30 10063 H 959.788 -1.61697 -0.150899 0
M  V30 10064 H 961.785 -2.97827 -2.91727 0
M  V30 10065 H 960.445 -1.82466 -2.68582 0
M  V30 10066 H 961.456 -5.09058 -0.952924 0
M  V30 10067 H 958.133 -3.18769 -2.69616 0
M  V30 10068 H 959.523 -6.6854 -0.671129 0
M  V30 10069 N 962.243 0.219913 -1.56058 0
M  V30 10070 C 963.491 0.942199 -1.78793 0
M  V30 10071 C 963.812 1.84804 -0.622284 0
M  V30 10072 O 963.082 1.9255 0.360735 0
M  V30 10073 H 961.662 0.350895 -0.659455 0
M  V30 10074 H 964.324 0.231376 -1.93522 0
M  V30 10075 H 963.42 1.54804 -2.71002 0
M  V30 10076 N 963.721 1.49897 0.486681 0
M  V30 10077 C 964.949 1.63837 1.26353 0
M  V30 10078 C 965.364 0.315428 1.86146 0
M  V30 10079 O 964.721 -0.700831 1.68507 0
M  V30 10080 C 964.772 2.71792 2.38351 0
M  V30 10081 O 964.493 3.98956 1.81013 0
M  V30 10082 C 965.994 2.96566 3.2949 0
M  V30 10083 H 963.214 0.551158 0.382709 0
M  V30 10084 H 965.758 1.96023 0.582694 0
M  V30 10085 H 963.913 2.42344 3.02238 0
M  V30 10086 H 964.327 4.58536 2.54647 0
M  V30 10087 H 965.801 3.75803 4.04322 0
M  V30 10088 H 966.278 2.07031 3.87343 0
M  V30 10089 H 966.884 3.27485 2.71355 0
M  V30 10090 N 965.199 -0.738761 1.39212 0
M  V30 10091 C 966.147 -1.8741 1.3777 0
M  V30 10092 C 967.141 -1.67371 0.261375 0
M  V30 10093 O 968.347 -1.74759 0.431209 0
M  V30 10094 H 964.722 -0.616843 0.430126 0
M  V30 10095 H 966.693 -1.85742 2.33543 0
M  V30 10096 C 965.442 -3.25053 1.23433 0
M  V30 10097 H 964.765 -3.41066 2.086 0
M  V30 10098 H 966.205 -4.04696 1.2648 0
M  V30 10099 C 964.664 -3.36851 -0.0575624 0
M  V30 10100 O 965.194 -3.88293 -1.02915 0
M  V30 10101 N 963.4 -2.90355 -0.119364 0
M  V30 10102 H 962.947 -2.48681 0.671976 0
M  V30 10103 H 962.905 -2.98628 -0.983286 0
M  V30 10104 N 966.677 -1.24326 -0.968545 0
M  V30 10105 C 968.088 -1.07561 -1.52603 0
M  V30 10106 C 968.439 0.353245 -1.92994 0
M  V30 10107 O 967.564 1.24151 -1.77244 0
M  V30 10108 C 968.159 -1.94634 -2.77314 0
M  V30 10109 C 966.718 -1.82095 -3.29421 0
M  V30 10110 C 965.865 -1.8962 -2.02335 0
M  V30 10111 H 968.816 -1.37815 -0.786932 0
M  V30 10112 H 968.837 -1.47812 -3.50616 0
M  V30 10113 H 968.349 -2.98621 -2.47885 0
M  V30 10114 H 966.45 -0.809376 -3.63703 0
M  V30 10115 H 966.563 -2.66142 -3.98378 0
M  V30 10116 H 964.927 -1.33339 -2.17009 0
M  V30 10117 H 965.71 -2.95185 -1.75273 0
M  V30 10118 N 968.156 1.1691 -1.05688 0
M  V30 10119 C 969.119 2.19297 -0.666433 0
M  V30 10120 C 970.119 1.5826 0.284674 0
M  V30 10121 O 971.309 1.74068 0.0678757 0
M  V30 10122 C 968.441 3.40894 0.0203656 0
M  V30 10123 H 969.634 2.55354 -1.57272 0
M  V30 10124 H 967.187 1.31078 -0.851359 0
M  V30 10125 H 967.922 3.10388 0.939686 0
M  V30 10126 H 967.707 3.86446 -0.663464 0
M  V30 10127 H 969.197 4.16664 0.279475 0
M  V30 10128 N 969.634 0.838594 1.33437 0
M  V30 10129 C 970.859 0.446701 2.02532 0
M  V30 10130 C 971.284 -0.944275 1.62681 0
M  V30 10131 O 970.642 -1.61733 0.81927 0
M  V30 10132 C 970.69 0.574794 3.55989 0
M  V30 10133 O 969.794 -0.399063 4.10465 0
M  V30 10134 H 969.135 0.181637 0.638674 0
M  V30 10135 H 971.665 1.13335 1.70342 0
M  V30 10136 H 971.675 0.456339 4.0544 0
M  V30 10137 H 970.35 1.58921 3.8434 0
M  V30 10138 H 968.927 -0.238187 3.72139 0
M  V30 10139 N 971.112 -1.45937 0.595003 0
M  V30 10140 C 972.075 -2.2888 -0.121102 0
M  V30 10141 C 973.075 -1.39075 -0.807149 0
M  V30 10142 O 974.265 -1.61326 -0.657228 0
M  V30 10143 C 971.397 -3.19778 -1.1813 0
M  V30 10144 H 972.59 -2.93673 0.607968 0
M  V30 10145 H 970.143 -1.5225 0.353495 0
M  V30 10146 H 970.878 -2.59759 -1.94154 0
M  V30 10147 H 970.663 -3.85914 -0.693724 0
M  V30 10148 H 972.153 -3.82176 -1.68319 0
M  V30 10149 N 972.59 -0.333456 -1.54032 0
M  V30 10150 C 973.54 0.543745 -2.21421 0
M  V30 10151 C 974.524 1.07396 -1.19812 0
M  V30 10152 O 975.716 1.00934 -1.45401 0
M  V30 10153 C 972.845 1.69925 -2.98296 0
M  V30 10154 C 971.931 1.18345 -4.07253 0
M  V30 10155 N 972.322 0.388098 -5.04309 0
M  V30 10156 C 970.62 1.46128 -4.21382 0
M  V30 10157 C 971.321 0.109383 -5.81597 0
M  V30 10158 N 970.297 0.69825 -5.39097 0
M  V30 10159 H 974.099 -0.0711018 -2.93814 0
M  V30 10160 H 971.613 -0.139807 -1.61797 0
M  V30 10161 H 973.61 2.33954 -3.45067 0
M  V30 10162 H 972.27 2.31747 -2.27428 0
M  V30 10163 H 973.281 0.0300645 -5.17891 0
M  V30 10164 H 969.958 2.08463 -3.61731 0
M  V30 10165 H 971.348 -0.531554 -6.69794 0
M  V30 10166 N 974.068 1.57479 -0.061844 0
M  V30 10167 C 975.001 2.07734 0.94455 0
M  V30 10168 C 975.979 0.980207 1.29733 0
M  V30 10169 O 977.163 1.2529 1.40836 0
M  V30 10170 C 974.29 2.52673 2.25553 0
M  V30 10171 C 973.336 3.73725 2.05503 0
M  V30 10172 S 974.169 5.18886 1.32354 0
M  V30 10173 C 975.325 5.67148 2.64753 0
M  V30 10174 H 975.558 2.92772 0.516888 0
M  V30 10175 H 973.091 1.53663 0.150684 0
M  V30 10176 H 975.049 2.79226 3.00904 0
M  V30 10177 H 973.71 1.67921 2.65445 0
M  V30 10178 H 972.903 4.03125 3.025 0
M  V30 10179 H 972.505 3.47494 1.3829 0
M  V30 10180 H 974.797 5.73385 3.60882 0
M  V30 10181 H 975.74 6.66196 2.39976 0
M  V30 10182 H 976.148 4.94921 2.71502 0
M  V30 10183 N 975.546 -0.211634 1.56173 0
M  V30 10184 C 976.509 -1.24588 1.92381 0
M  V30 10185 C 977.509 -1.39297 0.803311 0
M  V30 10186 O 978.699 -1.37392 1.07094 0
M  V30 10187 C 975.831 -2.61807 2.18335 0
M  V30 10188 H 977.024 -0.936814 2.84893 0
M  V30 10189 H 974.577 -0.452471 1.49607 0
M  V30 10190 H 975.312 -2.97795 1.28407 0
M  V30 10191 H 975.097 -2.52506 2.99972 0
M  V30 10192 H 976.587 -3.3642 2.4741 0
M  V30 10193 N 977.024 -1.50153 -0.478725 0
M  V30 10194 C 978.272 -1.60443 -1.22892 0
M  V30 10195 C 978.593 -0.303276 -1.92627 0
M  V30 10196 O 977.863 0.678798 -1.83764 0
M  V30 10197 H 976.443 -0.591205 -0.456602 0
M  V30 10198 H 979.105 -1.86893 -0.552905 0
M  V30 10199 H 978.201 -2.41175 -1.98094 0
M  V30 10200 N 978.502 0.731368 -1.39602 0
M  V30 10201 C 979.435 1.85433 -1.33004 0
M  V30 10202 C 980.413 1.61327 -0.20307 0
M  V30 10203 O 981.597 1.84545 -0.384124 0
M  V30 10204 C 978.724 3.21483 -1.06613 0
M  V30 10205 C 977.77 3.64443 -2.21549 0
M  V30 10206 S 978.603 3.73387 -3.83852 0
M  V30 10207 C 979.759 5.12222 -3.59694 0
M  V30 10208 H 979.992 1.90747 -2.28041 0
M  V30 10209 H 977.525 0.89659 -1.25701 0
M  V30 10210 H 979.483 4.00041 -0.920719 0
M  V30 10211 H 978.144 3.1382 -0.132563 0
M  V30 10212 H 977.337 4.63185 -1.98686 0
M  V30 10213 H 976.939 2.93099 -2.32312 0
M  V30 10214 H 979.231 5.98666 -3.17184 0
M  V30 10215 H 980.174 5.40115 -4.5791 0
M  V30 10216 H 980.582 4.8207 -2.93716 0
M  V30 10217 N 979.98 1.24838 0.961938 0
M  V30 10218 C 980.927 1.04582 2.05745 0
M  V30 10219 C 981.897 -0.0427281 1.66045 0
M  V30 10220 O 983.082 0.113026 1.90465 0
M  V30 10221 C 980.222 0.66284 3.38675 0
M  V30 10222 C 979.335 1.82548 3.91536 0
M  V30 10223 C 978.47 1.38753 5.12758 0
M  V30 10224 C 977.509 2.51976 5.5783 0
M  V30 10225 N 976.646 2.09009 6.70268 0
M  V30 10226 H 981.486 1.98343 2.22405 0
M  V30 10227 H 979.023 0.987822 1.08998 0
M  V30 10228 H 980.981 0.421788 4.15062 0
M  V30 10229 H 979.611 -0.237776 3.21923 0
M  V30 10230 H 978.663 2.18004 3.11735 0
M  V30 10231 H 979.975 2.67601 4.20941 0
M  V30 10232 H 979.129 1.1057 5.96539 0
M  V30 10233 H 977.868 0.507618 4.85051 0
M  V30 10234 H 976.873 2.80912 4.72619 0
M  V30 10235 H 978.098 3.40534 5.87549 0
M  V30 10236 H 976.044 1.23423 6.44285 0
M  V30 10237 H 975.961 2.87613 6.99153 0
M  V30 10238 H 977.229 1.83981 7.57477 0
M  V30 10239 N 981.458 -1.16348 1.06306 0
M  V30 10240 C 982.707 -1.8622 0.774909 0
M  V30 10241 C 983.02 -1.82598 -0.701245 0
M  V30 10242 O 984.226 -2.48051 -1.10377 0
M  V30 10243 C 982.682 -3.34182 1.33604 0
M  V30 10244 C 982.29 -3.46279 2.84245 0
M  V30 10245 C 984.034 -4.09309 1.12544 0
M  V30 10246 C 981.941 -4.88327 3.33602 0
M  V30 10247 H 980.871 -0.697574 0.286194 0
M  V30 10248 H 983.522 -1.31311 1.28179 0
M  V30 10249 H 981.904 -3.88698 0.756937 0
M  V30 10250 H 983.078 -3.01923 3.48108 0
M  V30 10251 H 981.393 -2.84585 3.03974 0
M  V30 10252 H 983.99 -5.14123 1.46909 0
M  V30 10253 H 984.333 -4.16251 0.0638129 0
M  V30 10254 H 984.866 -3.61032 1.67034 0
M  V30 10255 H 981.605 -4.86565 4.39244 0
M  V30 10256 H 981.125 -5.33307 2.74487 0
M  V30 10257 H 982.804 -5.57144 3.28937 0
M  V30 10258 N 982.937 -0.845659 -1.3299 0
M  V30 10259 C 983.869 -0.241097 -2.27928 0
M  V30 10260 C 984.882 0.582048 -1.5204 0
M  V30 10261 O 986.071 0.408008 -1.73774 0
M  V30 10262 C 983.171 0.678652 -3.32035 0
M  V30 10263 C 982.344 -0.106652 -4.3727 0
M  V30 10264 C 981.403 0.737478 -5.21006 0
M  V30 10265 O 980.429 0.174231 -5.68933 0
M  V30 10266 N 981.631 2.05372 -5.42957 0
M  V30 10267 H 984.396 -1.05685 -2.80448 0
M  V30 10268 H 981.957 -0.704771 -1.45755 0
M  V30 10269 H 983.949 1.24849 -3.84961 0
M  V30 10270 H 982.519 1.3951 -2.79742 0
M  V30 10271 H 981.739 -0.857897 -3.84752 0
M  V30 10272 H 983.027 -0.646386 -5.04677 0
M  V30 10273 H 982.425 2.53478 -5.05733 0
M  V30 10274 H 980.982 2.5719 -5.98913 0
M  V30 10275 N 984.415 1.45619 -0.602734 0
M  V30 10276 C 985.826 1.85814 -0.181636 0
M  V30 10277 C 986.177 1.5037 1.26029 0
M  V30 10278 O 985.302 0.928068 1.95489 0
M  V30 10279 C 985.897 3.37258 -0.322866 0
M  V30 10280 C 984.456 3.76375 0.043504 0
M  V30 10281 C 983.603 2.69585 -0.649561 0
M  V30 10282 H 986.554 1.36489 -0.809721 0
M  V30 10283 H 986.575 3.77874 0.446279 0
M  V30 10284 H 986.087 3.63024 -1.37241 0
M  V30 10285 H 984.188 3.56226 1.09241 0
M  V30 10286 H 984.301 4.77843 -0.346765 0
M  V30 10287 H 982.665 2.54549 -0.087706 0
M  V30 10288 H 983.448 2.98188 -1.70115 0
M  V30 10289 N 985.893 0.34162 1.53853 0
M  V30 10290 C 987.139 -0.255862 2.01179 0
M  V30 10291 C 987.472 -1.50356 1.22909 0
M  V30 10292 O 986.747 -1.91913 0.316198 0
M  V30 10293 C 987.03 -0.571934 3.55529 0
M  V30 10294 C 986.883 0.687727 4.44511 0
M  V30 10295 C 988.202 -1.38233 4.17827 0
M  V30 10296 H 985.321 -0.091521 0.731295 0
M  V30 10297 H 987.963 0.461775 1.84303 0
M  V30 10298 H 986.113 -1.18331 3.70041 0
M  V30 10299 H 987.785 1.32572 4.4184 0
M  V30 10300 H 986.028 1.313 4.13452 0
M  V30 10301 H 986.699 0.421858 5.50386 0
M  V30 10302 H 989.175 -0.865374 4.07002 0
M  V30 10303 H 988.051 -1.57223 5.25901 0
M  V30 10304 H 988.312 -2.38386 3.72323 0
M  V30 10305 N 987.371 -1.57444 0.0701946 0
M  V30 10306 C 988.281 -2.16132 -0.912377 0
M  V30 10307 C 989.297 -1.12406 -1.32819 0
M  V30 10308 O 990.473 -1.44665 -1.40121 0
M  V30 10309 C 987.538 -2.71008 -2.16231 0
M  V30 10310 C 986.599 -3.896 -1.80306 0
M  V30 10311 C 985.832 -4.4185 -2.9934 0
M  V30 10312 O 986.055 -3.93106 -4.13309 0
M  V30 10313 O 984.989 -5.33201 -2.7925 0
M  V30 10314 H 988.815 -3.00449 -0.443167 0
M  V30 10315 H 986.4 -1.48617 -0.152786 0
M  V30 10316 H 988.282 -3.06186 -2.8953 0
M  V30 10317 H 986.957 -1.8975 -2.62253 0
M  V30 10318 H 985.864 -3.59277 -1.04264 0
M  V30 10319 H 987.197 -4.72145 -1.39068 0
M  V30 10320 N 988.849 0.203349 -1.56283 0
M  V30 10321 C 990.095 0.926381 -1.80405 0
M  V30 10322 C 990.428 1.8325 -0.642883 0
M  V30 10323 O 989.703 1.91196 0.356998 0
M  V30 10324 C 989.986 1.74972 -3.14733 0
M  V30 10325 C 989.839 0.868866 -4.41328 0
M  V30 10326 C 991.158 2.72394 -3.45672 0
M  V30 10327 H 988.277 0.335346 -0.656286 0
M  V30 10328 H 990.919 0.1942 -1.89005 0
M  V30 10329 H 989.069 2.37394 -3.07533 0
M  V30 10330 H 990.741 0.259986 -4.60567 0
M  V30 10331 H 988.984 0.175161 -4.33446 0
M  V30 10332 H 989.655 1.47975 -5.31796 0
M  V30 10333 H 992.131 2.20105 -3.53119 0
M  V30 10334 H 991.007 3.27091 -4.40798 0
M  V30 10335 H 991.268 3.51035 -2.6875 0
M  V30 10336 N 990.327 1.50405 0.470755 0
M  V30 10337 C 991.604 1.51929 1.23195 0
M  V30 10338 C 991.984 0.264159 2.09441 0
M  V30 10339 O 991.332 -0.752395 2.15757 0
M  V30 10340 C 991.542 2.81521 2.06269 0
M  V30 10341 C 992.89 3.32195 2.64446 0
M  V30 10342 O 993.914 2.82845 2.16511 0
M  V30 10343 O 992.773 4.18221 3.51786 0
M  V30 10344 H 989.867 0.609411 0.559059 0
M  V30 10345 H 992.413 1.62695 0.482549 0
M  V30 10346 H 991.185 3.64346 1.42715 0
M  V30 10347 H 990.808 2.7376 2.88342 0
M  V30 10348 N 991.805 -0.723954 1.39988 0
M  V30 10349 C 992.752 -1.83803 1.39589 0
M  V30 10350 C 993.722 -1.64146 0.253996 0
M  V30 10351 O 994.907 -1.85398 0.450793 0
M  V30 10352 C 992.047 -3.21431 1.25604 0
M  V30 10353 C 991.16 -3.52717 2.49429 0
M  V30 10354 C 990.295 -4.79805 2.27949 0
M  V30 10355 C 989.334 -5.03968 3.47394 0
M  V30 10356 N 988.471 -6.22266 3.25161 0
M  V30 10357 H 993.311 -1.83479 2.34818 0
M  V30 10358 H 990.848 -0.896396 1.16633 0
M  V30 10359 H 992.806 -4.00892 1.15504 0
M  V30 10360 H 991.436 -3.21005 0.339986 0
M  V30 10361 H 990.488 -2.67872 2.7009 0
M  V30 10362 H 991.8 -3.66486 3.38363 0
M  V30 10363 H 990.954 -5.67268 2.15155 0
M  V30 10364 H 989.693 -4.68229 1.36428 0
M  V30 10365 H 988.698 -4.14963 3.60674 0
M  V30 10366 H 989.923 -5.17422 4.39831 0
M  V30 10367 H 987.869 -6.11957 2.36314 0
M  V30 10368 H 987.786 -6.36673 4.07656 0
M  V30 10369 H 989.054 -7.12539 3.16083 0
M  V30 10370 N 993.283 -1.25346 -0.955304 0
M  V30 10371 C 994.513 -1.12629 -1.732 0
M  V30 10372 C 994.921 0.322748 -1.86427 0
M  V30 10373 O 994.264 1.23381 -1.36099 0
M  V30 10374 C 994.326 -1.7064 -3.16421 0
M  V30 10375 C 993.99 -3.19632 -3.26626 0
M  V30 10376 C 994.987 -4.1663 -3.10991 0
M  V30 10377 C 992.672 -3.59829 -3.50468 0
M  V30 10378 C 994.666 -5.51806 -3.19043 0
M  V30 10379 C 992.353 -4.95143 -3.58157 0
M  V30 10380 C 993.351 -5.90941 -3.42459 0
M  V30 10381 O 993.039 -7.23792 -3.49828 0
M  V30 10382 H 992.771 -0.393646 -0.549562 0
M  V30 10383 H 995.325 -1.66184 -1.20715 0
M  V30 10384 H 993.555 -1.11532 -3.70267 0
M  V30 10385 H 995.244 -1.53032 -3.75947 0
M  V30 10386 H 996.01 -3.86915 -2.92441 0
M  V30 10387 H 991.889 -2.8576 -3.61749 0
M  V30 10388 H 995.433 -6.26559 -3.06707 0
M  V30 10389 H 991.33 -5.24525 -3.76224 0
M  V30 10390 H 992.098 -7.31879 -3.66463 0
M  V30 10391 N 994.761 1.15782 -1.06922 0
M  V30 10392 C 996.009 1.86097 -0.788192 0
M  V30 10393 C 996.33 1.82475 0.687606 0
M  V30 10394 O 995.6 1.26266 1.49778 0
M  V30 10395 H 994.18 0.689008 -0.288577 0
M  V30 10396 H 996.842 1.40377 -1.35205 0
M  V30 10397 H 995.938 2.91358 -1.1188 0
M  V30 10398 N 996.239 0.8527 1.3254 0
M  V30 10399 C 997.187 0.284659 2.30852 0
M  V30 10400 C 998.181 -0.5909 1.5876 0
M  V30 10401 O 999.387 -0.478922 1.73512 0
M  V30 10402 H 995.762 0.0733452 0.748415 0
M  V30 10403 H 997.733 1.1281 2.76254 0
M  V30 10404 C 996.482 -0.51379 3.43883 0
M  V30 10405 H 995.805 0.150644 3.99516 0
M  V30 10406 H 997.245 -0.876866 4.14834 0
M  V30 10407 C 995.704 -1.69823 2.90967 0
M  V30 10408 O 996.234 -2.79727 2.88298 0
M  V30 10409 N 994.44 -1.52465 2.47392 0
M  V30 10410 H 993.987 -0.630599 2.49762 0
M  V30 10411 H 993.945 -2.31859 2.12341 0
M  V30 10412 N 997.718 -1.45297 0.610449 0
M  V30 10413 C 998.967 -2.0143 0.104323 0
M  V30 10414 C 999.28 -1.48431 -1.27388 0
M  V30 10415 O 1000.49 -1.96558 -1.87289 0
M  V30 10416 C 998.942 -3.59644 0.135812 0
M  V30 10417 C 998.55 -4.2164 1.51405 0
M  V30 10418 C 1000.29 -4.2333 -0.314922 0
M  V30 10419 C 998.201 -5.72015 1.50176 0
M  V30 10420 H 997.131 -0.753176 0.035233 0
M  V30 10421 H 999.782 -1.66738 0.7662 0
M  V30 10422 H 998.164 -3.91538 -0.592773 0
M  V30 10423 H 999.338 -4.01315 2.26457 0
M  V30 10424 H 997.653 -3.70159 1.90712 0
M  V30 10425 H 1000.25 -5.33597 -0.343335 0
M  V30 10426 H 1000.59 -3.94206 -1.33817 0
M  V30 10427 H 1001.13 -3.96163 0.360489 0
M  V30 10428 H 997.865 -6.05842 2.50271 0
M  V30 10429 H 997.385 -5.94523 0.793869 0
M  V30 10430 H 999.064 -6.35266 1.22665 0
M  V30 10431 N 999.196 -0.349774 -1.5367 0
M  V30 10432 C 1000.47 0.300419 -1.93279 0
M  V30 10433 C 1000.85 1.67721 -1.28191 0
M  V30 10434 O 1000.2 2.24319 -0.435127 0
M  V30 10435 C 1000.41 0.366466 -3.47071 0
M  V30 10436 C 1001.76 0.614349 -4.20132 0
M  V30 10437 O 1002.78 0.448327 -3.53367 0
M  V30 10438 O 1001.64 0.936421 -5.38417 0
M  V30 10439 H 998.736 0.176599 -0.807924 0
M  V30 10440 H 1001.28 -0.401405 -1.64884 0
M  V30 10441 H 1000.05 -0.599455 -3.86681 0
M  V30 10442 H 999.677 1.11482 -3.81651 0
M  V30 10443 N 1000.67 1.57404 -0.0785433 0
M  V30 10444 C 1001.64 2.11977 0.871693 0
M  V30 10445 C 1002.64 1.04529 1.2219 0
M  V30 10446 O 1003.83 1.30488 1.15406 0
M  V30 10447 C 1000.96 2.6267 2.17296 0
M  V30 10448 H 1002.15 2.97246 0.398115 0
M  V30 10449 H 999.705 1.5537 0.170251 0
M  V30 10450 H 1000.44 1.80873 2.69175 0
M  V30 10451 H 1000.22 3.41214 1.93171 0
M  V30 10452 H 1001.71 3.04943 2.85306 0
M  V30 10453 N 1002.15 -0.195058 1.56388 0
M  V30 10454 C 1003.4 -0.9168 1.80894 0
M  V30 10455 C 1003.73 -1.82907 0.652592 0
M  V30 10456 O 1003.01 -1.91382 -0.346853 0
M  V30 10457 C 1003.29 -1.733 3.15657 0
M  V30 10458 C 1003.14 -0.845449 4.41783 0
M  V30 10459 C 1004.46 -2.70557 3.47112 0
M  V30 10460 H 1001.58 -0.331861 0.658056 0
M  V30 10461 H 1004.22 -0.184174 1.89105 0
M  V30 10462 H 1002.37 -2.3576 3.08787 0
M  V30 10463 H 1004.04 -0.235557 4.60698 0
M  V30 10464 H 1002.29 -0.152172 4.33533 0
M  V30 10465 H 1002.96 -1.45152 5.32574 0
M  V30 10466 H 1005.43 -2.1823 3.54281 0
M  V30 10467 H 1004.31 -3.24749 4.42526 0
M  V30 10468 H 1004.57 -3.49605 2.70608 0
M  V30 10469 N 1003.63 -1.50653 -0.462772 0
M  V30 10470 C 1004.58 -1.66509 -1.55752 0
M  V30 10471 C 1005.56 -0.519508 -1.52282 0
M  V30 10472 O 1006.76 -0.774296 -1.59166 0
M  V30 10473 C 1003.88 -1.77023 -2.94139 0
M  V30 10474 C 1002.97 -2.97284 -3.02461 0
M  V30 10475 N 1003.36 -4.20843 -2.80579 0
M  V30 10476 C 1001.66 -2.96014 -3.33604 0
M  V30 10477 C 1002.36 -5.01886 -2.94084 0
M  V30 10478 N 1001.34 -4.3601 -3.24648 0
M  V30 10479 H 1005.14 -2.59727 -1.37546 0
M  V30 10480 H 1002.65 -1.47951 -0.669653 0
M  V30 10481 H 1004.65 -1.86488 -3.72864 0
M  V30 10482 H 1003.31 -0.849688 -3.13385 0
M  V30 10483 H 1004.32 -4.50206 -2.55998 0
M  V30 10484 H 1001 -2.13493 -3.58786 0
M  V30 10485 H 1002.39 -6.10164 -2.81334 0
M  V30 10486 N 1005.11 0.71652 -1.4037 0
M  V30 10487 C 1006.04 1.84345 -1.43315 0
M  V30 10488 C 1007.02 1.67537 -0.294186 0
M  V30 10489 O 1008.2 1.87582 -0.502671 0
M  V30 10490 C 1005.33 3.2229 -1.29408 0
M  V30 10491 C 1004.29 3.53769 -2.40897 0
M  V30 10492 C 1003.61 4.90847 -2.12068 0
M  V30 10493 C 1004.91 3.54862 -3.83237 0
M  V30 10494 H 1006.61 1.82138 -2.37626 0
M  V30 10495 H 1004.15 0.874873 -1.14376 0
M  V30 10496 H 1006.11 4.00819 -1.30085 0
M  V30 10497 H 1004.83 3.2507 -0.31573 0
M  V30 10498 H 1003.49 2.77579 -2.39469 0
M  V30 10499 H 1003.14 4.90229 -1.12626 0
M  V30 10500 H 1002.84 5.12875 -2.86762 0
M  V30 10501 H 1004.36 5.71711 -2.14426 0
M  V30 10502 H 1005.78 4.23432 -3.86494 0
M  V30 10503 H 1004.17 3.88416 -4.57442 0
M  V30 10504 H 1005.24 2.54266 -4.12888 0
M  V30 10505 N 1006.59 1.25851 0.948643 0
M  V30 10506 C 1007.53 1.06759 2.04625 0
M  V30 10507 C 1008.5 -0.0251144 1.66081 0
M  V30 10508 O 1009.69 0.133221 1.90334 0
M  V30 10509 C 1006.83 0.698724 3.37952 0
M  V30 10510 C 1005.94 1.8669 3.89578 0
M  V30 10511 C 1005.08 1.44184 5.11258 0
M  V30 10512 C 1004.12 2.57878 5.55126 0
M  V30 10513 N 1003.25 2.16106 6.68014 0
M  V30 10514 H 1008.09 2.00691 2.20289 0
M  V30 10515 H 1005.63 0.999327 1.07944 0
M  V30 10516 H 1007.59 0.465788 4.14592 0
M  V30 10517 H 1006.22 -0.203618 3.22157 0
M  V30 10518 H 1005.27 2.21298 3.09405 0
M  V30 10519 H 1006.58 2.72051 4.18079 0
M  V30 10520 H 1005.74 1.16891 5.95333 0
M  V30 10521 H 1004.47 0.559035 4.84485 0
M  V30 10522 H 1003.48 2.85909 4.69612 0
M  V30 10523 H 1004.7 3.46747 5.83904 0
M  V30 10524 H 1002.65 1.3025 6.42939 0
M  V30 10525 H 1002.57 2.95012 6.96063 0
M  V30 10526 H 1003.84 1.92005 7.55483 0
M  V30 10527 N 1008.06 -1.15214 1.07534 0
M  V30 10528 C 1009.03 -2.18209 0.701237 0
M  V30 10529 C 1010.03 -1.58693 -0.25946 0
M  V30 10530 O 1011.22 -1.74154 -0.0401744 0
M  V30 10531 C 1008.35 -3.40883 0.0338703 0
M  V30 10532 H 1009.54 -2.5282 1.61314 0
M  V30 10533 H 1007.1 -1.29707 0.872105 0
M  V30 10534 H 1007.83 -3.11843 -0.890187 0
M  V30 10535 H 1007.62 -3.85342 0.72486 0
M  V30 10536 H 1009.11 -4.17056 -0.213152 0
M  V30 10537 N 1009.54 -0.859717 -1.32086 0
M  V30 10538 C 1010.48 -0.252764 -2.26796 0
M  V30 10539 C 1011.45 0.612178 -1.50636 0
M  V30 10540 O 1012.64 0.567865 -1.79743 0
M  V30 10541 C 1009.76 0.643017 -3.3254 0
M  V30 10542 C 1008.81 -0.149211 -4.26239 0
M  V30 10543 S 1009.64 -1.52097 -5.13446 0
M  V30 10544 C 1010.8 -0.631035 -6.22711 0
M  V30 10545 H 1011.03 -1.05563 -2.77928 0
M  V30 10546 H 1008.57 -0.657639 -1.39694 0
M  V30 10547 H 1010.52 1.15418 -3.9394 0
M  V30 10548 H 1009.18 1.41974 -2.80183 0
M  V30 10549 H 1008.38 0.53328 -5.01171 0
M  V30 10550 H 1007.98 -0.592128 -3.69283 0
M  V30 10551 H 1010.27 0.162638 -6.77305 0
M  V30 10552 H 1011.21 -1.35116 -6.95089 0
M  V30 10553 H 1011.62 -0.203131 -5.64134 0
M  V30 10554 N 1011.02 1.44971 -0.618145 0
M  V30 10555 C 1012.27 2.02458 -0.117656 0
M  V30 10556 C 1012.6 1.48413 1.25248 0
M  V30 10557 O 1011.87 0.662997 1.82851 0
M  V30 10558 C 1012.16 3.59987 -0.0901897 0
M  V30 10559 C 1012.01 4.24343 -1.49175 0
M  V30 10560 C 1013.33 4.36099 0.592121 0
M  V30 10561 H 1010.45 0.735672 -0.0442291 0
M  V30 10562 H 1013.09 1.727 -0.792138 0
M  V30 10563 H 1011.24 3.85471 0.484175 0
M  V30 10564 H 1012.91 4.10009 -2.114 0
M  V30 10565 H 1011.16 3.82337 -2.04941 0
M  V30 10566 H 1011.83 5.33298 -1.42468 0
M  V30 10567 H 1014.3 4.1597 0.103813 0
M  V30 10568 H 1013.18 5.45822 0.580481 0
M  V30 10569 H 1013.44 4.09746 1.66015 0
M  V30 10570 N 1012.5 0.357919 1.53482 0
M  V30 10571 C 1013.78 -0.290164 1.93436 0
M  V30 10572 C 1014.16 -1.67039 1.29079 0
M  V30 10573 O 1013.5 -2.24085 0.447017 0
M  V30 10574 C 1013.71 -0.348055 3.4726 0
M  V30 10575 C 1015.06 -0.59206 4.20452 0
M  V30 10576 O 1016.09 -0.429581 3.536 0
M  V30 10577 O 1014.94 -0.907855 5.38907 0
M  V30 10578 H 1012.04 -0.172312 0.80885 0
M  V30 10579 H 1014.58 0.410144 1.64669 0
M  V30 10580 H 1013.36 0.619953 3.86358 0
M  V30 10581 H 1012.98 -1.09457 3.82237 0
M  V30 10582 N 1013.98 -1.5736 0.0868897 0
M  V30 10583 C 1014.92 -2.13571 -0.874996 0
M  V30 10584 C 1015.89 -1.0521 -1.2853 0
M  V30 10585 O 1017.08 -1.32954 -1.3685 0
M  V30 10586 C 1014.22 -2.71386 -2.13175 0
M  V30 10587 C 1013.33 -3.93953 -1.77272 0
M  V30 10588 C 1012.47 -4.3996 -2.97671 0
M  V30 10589 C 1011.51 -5.55137 -2.57856 0
M  V30 10590 N 1010.64 -5.96034 -3.71064 0
M  V30 10591 H 1015.48 -2.95453 -0.388789 0
M  V30 10592 H 1013.02 -1.45992 -0.180242 0
M  V30 10593 H 1014.98 -3.03022 -2.86764 0
M  V30 10594 H 1013.61 -1.92245 -2.5931 0
M  V30 10595 H 1012.66 -3.68683 -0.936845 0
M  V30 10596 H 1013.97 -4.77565 -1.43989 0
M  V30 10597 H 1013.13 -4.73337 -3.79522 0
M  V30 10598 H 1011.86 -3.55232 -3.34158 0
M  V30 10599 H 1010.87 -5.21397 -1.7443 0
M  V30 10600 H 1012.09 -6.41608 -2.22522 0
M  V30 10601 H 1010.04 -5.14253 -4.07284 0
M  V30 10602 H 1009.96 -6.74423 -3.41599 0
M  V30 10603 H 1011.23 -6.34038 -4.53449 0
M  V30 10604 N 1015.45 0.186762 -1.56489 0
M  V30 10605 C 1016.4 1.2357 -1.9161 0
M  V30 10606 C 1017.39 1.4058 -0.782686 0
M  V30 10607 O 1018.58 1.42811 -1.04566 0
M  V30 10608 C 1015.71 2.57865 -2.26628 0
M  V30 10609 C 1014.8 2.44613 -3.46447 0
M  V30 10610 N 1015.19 2.01052 -4.64125 0
M  V30 10611 C 1013.48 2.75483 -3.50749 0
M  V30 10612 C 1014.19 1.99891 -5.46277 0
M  V30 10613 N 1013.16 2.41711 -4.86905 0
M  V30 10614 H 1016.96 0.890359 -2.80089 0
M  V30 10615 H 1014.48 0.395144 -1.57519 0
M  V30 10616 H 1016.47 3.33642 -2.49977 0
M  V30 10617 H 1015.13 2.93215 -1.39481 0
M  V30 10618 H 1016.15 1.7163 -4.88634 0
M  V30 10619 H 1012.82 3.14974 -2.7404 0
M  V30 10620 H 1014.21 1.68042 -6.50547 0
M  V30 10621 N 1016.93 1.50896 0.454776 0
M  V30 10622 C 1017.88 1.70947 1.55067 0
M  V30 10623 C 1018.85 0.550899 1.56698 0
M  V30 10624 O 1020.03 0.783352 1.73978 0
M  V30 10625 C 1017.17 1.82455 2.92924 0
M  V30 10626 C 1016.29 3.09919 3.00956 0
M  V30 10627 C 1015.42 3.12125 4.29827 0
M  V30 10628 C 1014.46 4.33975 4.31662 0
M  V30 10629 N 1013.6 4.33828 5.5203 0
M  V30 10630 H 1018.44 2.645 1.37273 0
M  V30 10631 H 1015.98 1.31101 0.667148 0
M  V30 10632 H 1017.93 1.87108 3.72889 0
M  V30 10633 H 1016.56 0.92327 3.09315 0
M  V30 10634 H 1015.62 3.14659 2.13761 0
M  V30 10635 H 1016.93 3.99869 2.98172 0
M  V30 10636 H 1016.08 3.15598 5.18154 0
M  V30 10637 H 1014.82 2.20033 4.35243 0
M  V30 10638 H 1013.83 4.30697 3.41731 0
M  V30 10639 H 1015.05 5.27312 4.27924 0
M  V30 10640 H 1013 3.44598 5.58201 0
M  V30 10641 H 1012.91 5.17566 5.51055 0
M  V30 10642 H 1014.18 4.4147 6.42437 0
M  V30 10643 N 1018.41 -0.709066 1.40748 0
M  V30 10644 C 1019.32 -1.85314 1.43861 0
M  V30 10645 C 1020.34 -1.70832 0.330539 0
M  V30 10646 O 1021.51 -1.92983 0.576152 0
M  V30 10647 C 1018.58 -3.21174 1.30568 0
M  V30 10648 C 1017.64 -3.47863 2.51574 0
M  V30 10649 C 1016.87 -4.77241 2.38906 0
M  V30 10650 O 1017.09 -5.52791 1.40636 0
M  V30 10651 O 1016.03 -5.04413 3.28407 0
M  V30 10652 H 1019.85 -1.85644 2.40354 0
M  V30 10653 H 1017.44 -0.860352 1.2214 0
M  V30 10654 H 1019.32 -4.02313 1.25388 0
M  V30 10655 H 1018 -3.21557 0.371841 0
M  V30 10656 H 1016.9 -2.66708 2.62331 0
M  V30 10657 H 1018.24 -3.52283 3.43741 0
M  V30 10658 N 1019.89 -1.26353 -0.941956 0
M  V30 10659 C 1020.84 -1.07654 -2.06188 0
M  V30 10660 C 1021.83 -0.00369741 -1.694 0
M  V30 10661 O 1023.04 -0.160316 -1.79285 0
M  V30 10662 H 1019.41 -0.331274 -0.675101 0
M  V30 10663 H 1021.38 -2.02566 -2.19111 0
M  V30 10664 C 1020.13 -0.725436 -3.40048 0
M  V30 10665 H 1019.46 -1.54283 -3.68832 0
M  V30 10666 H 1020.9 -0.634383 -4.19227 0
M  V30 10667 C 1019.35 0.569369 -3.32054 0
M  V30 10668 O 1019.88 1.60791 -3.68116 0
M  V30 10669 N 1018.09 0.559714 -2.85159 0
M  V30 10670 H 1017.64 -0.285817 -2.56009 0
M  V30 10671 H 1017.6 1.42617 -2.80193 0
M  V30 10672 N 1021.37 1.14642 -1.08144 0
M  V30 10673 C 1022.3 2.21775 -0.730609 0
M  V30 10674 C 1023.28 1.67683 0.285702 0
M  V30 10675 O 1024.46 1.93567 0.156667 0
M  V30 10676 C 1021.59 3.47033 -0.136242 0
M  V30 10677 C 1020.55 4.14134 -1.0806 0
M  V30 10678 C 1019.87 5.33563 -0.348585 0
M  V30 10679 C 1021.17 4.62978 -2.41761 0
M  V30 10680 H 1022.87 2.51378 -1.62633 0
M  V30 10681 H 1020.41 1.20825 -0.783411 0
M  V30 10682 H 1022.37 4.21226 0.121182 0
M  V30 10683 H 1021.09 3.16786 0.7946 0
M  V30 10684 H 1019.75 3.41892 -1.32308 0
M  V30 10685 H 1019.4 4.99575 0.585974 0
M  V30 10686 H 1019.1 5.79402 -0.978122 0
M  V30 10687 H 1020.62 6.10519 -0.0991508 0
M  V30 10688 H 1022.04 5.28659 -2.21795 0
M  V30 10689 H 1020.43 5.1951 -3.00383 0
M  V30 10690 H 1021.5 3.78189 -3.03482 0
M  V30 10691 N 1022.85 0.866709 1.31628 0
M  V30 10692 C 1023.81 0.325041 2.26883 0
M  V30 10693 C 1024.81 -0.522133 1.52087 0
M  V30 10694 O 1026 -0.331908 1.71009 0
M  V30 10695 C 1023.13 -0.538756 3.36616 0
M  V30 10696 H 1024.32 1.16592 2.76308 0
M  V30 10697 H 1021.88 0.642029 1.42505 0
M  V30 10698 H 1022.61 -1.40096 2.92478 0
M  V30 10699 H 1022.4 0.0678115 3.92041 0
M  V30 10700 H 1023.89 -0.910123 4.07562 0
M  V30 10701 N 1024.32 -1.44642 0.625825 0
M  V30 10702 C 1025.29 -2.29085 -0.072526 0
M  V30 10703 C 1026.29 -1.40755 -0.777467 0
M  V30 10704 O 1027.48 -1.62684 -0.622861 0
M  V30 10705 C 1024.61 -3.22212 -1.1132 0
M  V30 10706 H 1025.8 -2.92317 0.670124 0
M  V30 10707 H 1023.35 -1.51466 0.38571 0
M  V30 10708 H 1024.09 -2.63819 -1.88601 0
M  V30 10709 H 1023.87 -3.87299 -0.611709 0
M  V30 10710 H 1025.36 -3.8566 -1.60175 0
M  V30 10711 N 1025.8 -0.366053 -1.5329 0
M  V30 10712 C 1027.05 0.224614 -2.00445 0
M  V30 10713 C 1027.36 1.49829 -1.2574 0
M  V30 10714 O 1028.57 2.16759 -1.63487 0
M  V30 10715 C 1027.03 0.450818 -3.57065 0
M  V30 10716 C 1026.63 -0.808257 -4.40649 0
M  V30 10717 C 1028.38 0.999116 -4.12575 0
M  V30 10718 C 1026.28 -0.551612 -5.88822 0
M  V30 10719 H 1025.21 0.0877114 -0.748881 0
M  V30 10720 H 1027.87 -0.484866 -1.76978 0
M  V30 10721 H 1026.25 1.22157 -3.76688 0
M  V30 10722 H 1027.42 -1.58184 -4.32798 0
M  V30 10723 H 1025.74 -1.27981 -3.96245 0
M  V30 10724 H 1028.33 1.20646 -5.20911 0
M  V30 10725 H 1028.68 1.96139 -3.67199 0
M  V30 10726 H 1029.21 0.288518 -3.96752 0
M  V30 10727 H 1025.95 -1.48423 -6.38475 0
M  V30 10728 H 1025.47 0.183462 -5.99519 0
M  V30 10729 H 1027.15 -0.177307 -6.46757 0
M  V30 10730 N 1027.28 1.57312 -0.0952337 0
M  V30 10731 C 1028.21 2.09691 0.900274 0
M  V30 10732 C 1029.19 1.0075 1.27625 0
M  V30 10733 O 1030.37 1.28249 1.38147 0
M  V30 10734 C 1027.5 2.574 2.20142 0
M  V30 10735 C 1026.55 3.78 1.9753 0
M  V30 10736 S 1027.38 5.21577 1.21318 0
M  V30 10737 C 1028.54 5.72636 2.52663 0
M  V30 10738 H 1028.77 2.93803 0.45467 0
M  V30 10739 H 1026.3 1.53948 0.118056 0
M  V30 10740 H 1028.26 2.85546 2.94914 0
M  V30 10741 H 1026.92 1.73514 2.61824 0
M  V30 10742 H 1026.11 4.09451 2.93881 0
M  V30 10743 H 1025.72 3.50349 1.30888 0
M  V30 10744 H 1028.01 5.80911 3.48638 0
M  V30 10745 H 1028.95 6.71136 2.25791 0
M  V30 10746 H 1029.36 5.00569 2.60943 0
M  V30 10747 N 1028.76 -0.17846 1.56586 0
M  V30 10748 C 1030.01 -0.894502 1.8078 0
M  V30 10749 C 1030.32 -1.8372 0.67129 0
M  V30 10750 O 1031.53 -2.59509 0.797971 0
M  V30 10751 C 1029.98 -1.64109 3.20306 0
M  V30 10752 C 1029.59 -0.742387 4.41806 0
M  V30 10753 C 1031.33 -2.34578 3.53798 0
M  V30 10754 C 1029.24 -1.4888 5.72354 0
M  V30 10755 H 1028.17 -0.33776 0.674117 0
M  V30 10756 H 1030.82 -0.14752 1.82906 0
M  V30 10757 H 1029.2 -2.43257 3.12477 0
M  V30 10758 H 1030.38 0.011615 4.60799 0
M  V30 10759 H 1028.69 -0.147705 4.16138 0
M  V30 10760 H 1031.29 -2.91004 4.48577 0
M  V30 10761 H 1031.63 -3.09572 2.78336 0
M  V30 10762 H 1032.17 -1.62381 3.63149 0
M  V30 10763 H 1028.9 -0.781325 6.50827 0
M  V30 10764 H 1028.42 -2.21631 5.57351 0
M  V30 10765 H 1030.1 -2.03819 6.14058 0
M  V30 10766 N 1030.24 -1.51135 -0.446768 0
M  V30 10767 C 1031.46 -1.67129 -1.21965 0
M  V30 10768 C 1031.88 -0.36467 -1.85245 0
M  V30 10769 O 1031.24 0.655908 -1.70306 0
M  V30 10770 C 1031.29 -2.78016 -2.31061 0
M  V30 10771 O 1031.01 -4.03615 -1.70371 0
M  V30 10772 C 1032.51 -3.05197 -3.21511 0
M  V30 10773 H 1029.73 -0.561111 -0.367961 0
M  V30 10774 H 1032.27 -1.97499 -0.530517 0
M  V30 10775 H 1030.43 -2.50272 -2.95707 0
M  V30 10776 H 1030.84 -4.65126 -2.424 0
M  V30 10777 H 1032.32 -3.8639 -3.94216 0
M  V30 10778 H 1032.79 -2.17228 -3.81718 0
M  V30 10779 H 1033.4 -3.34565 -2.62577 0
M  V30 10780 N 1031.71 0.701592 -1.41122 0
M  V30 10781 C 1032.94 1.48833 -1.43291 0
M  V30 10782 C 1033.35 1.89168 -0.0348668 0
M  V30 10783 O 1032.69 1.56937 0.9548 0
M  V30 10784 C 1032.76 2.78533 -2.27287 0
M  V30 10785 C 1032.42 2.60438 -3.75528 0
M  V30 10786 C 1033.42 2.26778 -4.67833 0
M  V30 10787 C 1031.1 2.76266 -4.19503 0
M  V30 10788 C 1033.1 2.09176 -6.021 0
M  V30 10789 C 1030.78 2.58281 -5.53836 0
M  V30 10790 C 1031.78 2.24786 -6.4495 0
M  V30 10791 O 1031.47 2.06952 -7.76805 0
M  V30 10792 H 1031.2 0.465401 -0.490284 0
M  V30 10793 H 1033.76 0.871843 -1.85979 0
M  V30 10794 H 1031.99 3.42566 -1.79403 0
M  V30 10795 H 1033.67 3.40312 -2.21229 0
M  V30 10796 H 1034.44 2.1417 -4.35151 0
M  V30 10797 H 1030.32 3.01322 -3.48893 0
M  V30 10798 H 1033.86 1.82955 -6.73181 0
M  V30 10799 H 1029.76 2.70478 -5.86099 0
M  V30 10800 H 1030.53 2.21762 -7.87886 0
M  V30 10801 N 1033.19 1.2685 0.935242 0
M  V30 10802 C 1034.6 1.11569 1.49697 0
M  V30 10803 C 1034.95 -0.301952 1.93863 0
M  V30 10804 O 1034.08 -1.19408 1.80473 0
M  V30 10805 C 1034.67 2.01918 2.72056 0
M  V30 10806 C 1033.23 1.90765 3.24477 0
M  V30 10807 C 1032.38 1.94918 1.97237 0
M  V30 10808 H 1035.33 1.39853 0.750116 0
M  V30 10809 H 1035.35 1.57056 3.46574 0
M  V30 10810 H 1034.86 3.05088 2.39881 0
M  V30 10811 H 1032.96 0.905521 3.61429 0
M  V30 10812 H 1033.08 2.76611 3.91182 0
M  V30 10813 H 1031.44 1.39046 2.13397 0
M  V30 10814 H 1032.22 2.99729 1.67385 0
M  V30 10815 N 1034.67 -1.14067 1.0875 0
M  V30 10816 C 1035.9 -1.89582 0.841038 0
M  V30 10817 C 1036.32 -1.78226 -0.601436 0
M  V30 10818 O 1035.68 -1.12491 -1.42181 0
M  V30 10819 C 1035.73 -3.37415 1.27213 0
M  V30 10820 O 1034.83 -4.10191 0.426246 0
M  V30 10821 H 1034.17 -0.589716 0.305173 0
M  V30 10822 H 1036.7 -1.44364 1.44984 0
M  V30 10823 H 1036.71 -3.88234 1.25451 0
M  V30 10824 H 1035.39 -3.44999 2.32268 0
M  V30 10825 H 1033.96 -3.69429 0.507585 0
M  V30 10826 N 1036.15 -0.873678 -1.31166 0
M  V30 10827 C 1037.38 -0.501043 -2.00742 0
M  V30 10828 C 1037.79 0.907477 -1.65561 0
M  V30 10829 O 1037.15 1.59507 -0.886771 0
M  V30 10830 C 1037.2 -0.652877 -3.55556 0
M  V30 10831 O 1036.92 -2.00593 -3.89479 0
M  V30 10832 C 1038.42 -0.281742 -4.42404 0
M  V30 10833 H 1035.64 -0.194829 -0.642092 0
M  V30 10834 H 1038.19 -1.17587 -1.67313 0
M  V30 10835 H 1036.34 -0.0255627 -3.87392 0
M  V30 10836 H 1036.75 -2.01638 -4.84193 0
M  V30 10837 H 1038.23 -0.43892 -5.50252 0
M  V30 10838 H 1038.71 0.779389 -4.32229 0
M  V30 10839 H 1039.31 -0.88491 -4.15992 0
M  V30 10840 N 1037.63 1.44308 -0.633487 0
M  V30 10841 C 1038.57 2.32455 0.0821956 0
M  V30 10842 C 1039.57 1.47482 0.833388 0
M  V30 10843 O 1040.77 1.63812 0.746021 0
M  V30 10844 H 1037.15 0.750631 0.045352 0
M  V30 10845 H 1039.12 2.90566 -0.679282 0
M  V30 10846 C 1037.87 3.31512 1.04858 0
M  V30 10847 H 1037.19 3.96908 0.479979 0
M  V30 10848 H 1038.63 3.95865 1.51879 0
M  V30 10849 C 1037.09 2.60615 2.13498 0
M  V30 10850 O 1037.62 2.40682 3.21613 0
M  V30 10851 N 1035.83 2.20315 1.89499 0
M  V30 10852 H 1035.37 2.36726 1.01581 0
M  V30 10853 H 1035.33 1.73205 2.62388 0
M  V30 10854 N 1039.1 0.374177 1.53094 0
M  V30 10855 C 1040.35 -0.212396 2.00981 0
M  V30 10856 C 1040.67 -1.48576 1.26293 0
M  V30 10857 O 1039.94 -1.92206 0.378642 0
M  V30 10858 H 1038.52 -0.0814763 0.742543 0
M  V30 10859 H 1041.19 0.502389 1.88314 0
M  V30 10860 H 1040.28 -0.433316 3.09077 0
M  V30 10861 N 1040.58 -1.57259 0.103575 0
M  V30 10862 C 1041.83 -1.94945 -0.558953 0
M  V30 10863 C 1042.16 -0.986038 -1.67305 0
M  V30 10864 O 1041.44 -0.0205464 -1.94489 0
M  V30 10865 C 1041.72 -3.42689 -1.10617 0
M  V30 10866 C 1041.57 -4.498 0.00345246 0
M  V30 10867 C 1042.89 -3.91933 -2.00191 0
M  V30 10868 H 1040.01 -0.708859 -0.201713 0
M  V30 10869 H 1042.65 -1.89183 0.176006 0
M  V30 10870 H 1040.8 -3.4773 -1.73251 0
M  V30 10871 H 1042.47 -4.56866 0.638082 0
M  V30 10872 H 1040.72 -4.28615 0.668705 0
M  V30 10873 H 1041.39 -5.50397 -0.420396 0
M  V30 10874 H 1043.86 -3.89098 -1.4745 0
M  V30 10875 H 1042.74 -4.9586 -2.35402 0
M  V30 10876 H 1043 -3.31722 -2.92255 0
M  V30 10877 N 1042.06 0.170153 -1.56679 0
M  V30 10878 C 1043.31 0.886592 -1.8206 0
M  V30 10879 C 1043.64 1.82194 -0.680839 0
M  V30 10880 O 1042.89 1.92866 0.331822 0
M  V30 10881 C 1043.19 1.71402 -3.13618 0
M  V30 10882 C 1042.86 0.927489 -4.41258 0
M  V30 10883 C 1041.52 0.710417 -4.75927 0
M  V30 10884 C 1043.87 0.375855 -5.19843 0
M  V30 10885 C 1041.2 -0.0693691 -5.86659 0
M  V30 10886 C 1043.55 -0.390849 -6.31391 0
M  V30 10887 C 1042.21 -0.61871 -6.64626 0
M  V30 10888 H 1041.48 0.324427 -0.666204 0
M  V30 10889 H 1044.13 0.151464 -1.909 0
M  V30 10890 H 1042.44 2.51858 -3.00125 0
M  V30 10891 H 1044.13 2.27141 -3.30466 0
M  V30 10892 H 1040.72 1.10672 -4.14065 0
M  V30 10893 H 1044.91 0.530897 -4.93452 0
M  V30 10894 H 1040.16 -0.255637 -6.10865 0
M  V30 10895 H 1044.34 -0.825544 -6.9149 0
M  V30 10896 H 1041.96 -1.22482 -7.50268 0
M  V30 10897 N 1043.54 1.5137 0.438746 0
M  V30 10898 C 1044.45 1.75424 1.55768 0
M  V30 10899 C 1045.46 0.638409 1.61865 0
M  V30 10900 O 1046.64 0.9205 1.79133 0
M  V30 10901 C 1043.71 1.87288 2.9176 0
M  V30 10902 C 1042.77 3.11137 2.95791 0
M  V30 10903 C 1042 3.22425 4.25297 0
M  V30 10904 O 1042.22 2.39688 5.17596 0
M  V30 10905 O 1041.16 4.15393 4.35583 0
M  V30 10906 H 1044.98 2.70339 1.38386 0
M  V30 10907 H 1042.57 1.35854 0.621609 0
M  V30 10908 H 1044.45 1.97085 3.72472 0
M  V30 10909 H 1043.12 0.955599 3.09273 0
M  V30 10910 H 1042.03 3.06819 2.1404 0
M  V30 10911 H 1043.36 4.02549 2.83223 0
M  V30 10912 N 1045.02 -0.694098 1.41492 0
M  V30 10913 C 1045.93 -1.83778 1.45818 0
M  V30 10914 C 1046.94 -1.70471 0.348639 0
M  V30 10915 O 1048.12 -1.92361 0.596588 0
M  V30 10916 C 1045.18 -3.19771 1.33967 0
M  V30 10917 C 1044.24 -3.45175 2.5525 0
M  V30 10918 C 1043.48 -4.74681 2.43955 0
M  V30 10919 O 1043.7 -5.51268 1.46491 0
M  V30 10920 O 1042.63 -5.00901 3.33739 0
M  V30 10921 H 1046.46 -1.83084 2.42309 0
M  V30 10922 H 1044.05 -0.847349 1.23046 0
M  V30 10923 H 1045.93 -4.00961 1.29648 0
M  V30 10924 H 1044.6 -3.21145 0.405926 0
M  V30 10925 H 1043.51 -2.6391 2.65146 0
M  V30 10926 H 1044.84 -3.48617 3.47458 0
M  V30 10927 N 1046.49 -1.27344 -0.928501 0
M  V30 10928 C 1047.44 -1.09835 -2.05034 0
M  V30 10929 C 1048.44 -0.0216643 -1.69386 0
M  V30 10930 O 1049.64 -0.179323 -1.79105 0
M  V30 10931 H 1046.02 -0.338416 -0.671549 0
M  V30 10932 H 1047.99 -2.04879 -2.1695 0
M  V30 10933 C 1046.74 -0.761462 -3.3926 0
M  V30 10934 H 1046.06 -1.58186 -3.67175 0
M  V30 10935 H 1047.5 -0.678812 -4.18531 0
M  V30 10936 C 1045.96 0.534118 -3.32639 0
M  V30 10937 O 1046.49 1.56877 -3.69801 0
M  V30 10938 N 1044.7 0.529437 -2.85736 0
M  V30 10939 H 1044.24 -0.312954 -2.55692 0
M  V30 10940 H 1044.2 1.39637 -2.81689 0
M  V30 10941 N 1047.97 1.13488 -1.09353 0
M  V30 10942 C 1049.22 1.841 -0.82401 0
M  V30 10943 C 1049.53 1.84393 0.652586 0
M  V30 10944 O 1050.74 2.5089 1.03762 0
M  V30 10945 C 1049.2 3.30523 -1.42418 0
M  V30 10946 C 1048.8 3.38621 -2.93326 0
M  V30 10947 C 1050.55 4.06182 -1.23356 0
M  V30 10948 C 1048.46 4.79311 -3.46432 0
M  V30 10949 H 1047.39 0.68974 -0.304589 0
M  V30 10950 H 1050.04 1.27866 -1.31615 0
M  V30 10951 H 1048.42 3.86555 -0.859727 0
M  V30 10952 H 1049.59 2.92587 -3.5599 0
M  V30 10953 H 1047.91 2.76426 -3.11412 0
M  V30 10954 H 1050.5 5.10047 -1.60488 0
M  V30 10955 H 1050.85 4.15936 -0.174152 0
M  V30 10956 H 1051.38 3.56477 -1.76547 0
M  V30 10957 H 1048.12 4.74748 -4.5199 0
M  V30 10958 H 1047.64 5.25842 -2.8853 0
M  V30 10959 H 1049.32 5.48227 -3.43593 0
M  V30 10960 N 1049.45 0.880621 1.30701 0
M  V30 10961 C 1050.68 0.510909 2.01009 0
M  V30 10962 C 1051.1 -0.892041 1.65603 0
M  V30 10963 O 1050.46 -1.59045 0.870309 0
M  V30 10964 C 1050.51 0.687759 3.53981 0
M  V30 10965 O 1049.61 -0.268275 4.11526 0
M  V30 10966 H 1048.95 0.201864 0.632572 0
M  V30 10967 H 1051.48 1.18697 1.6665 0
M  V30 10968 H 1051.49 0.585095 4.03783 0
M  V30 10969 H 1050.17 1.71068 3.79089 0
M  V30 10970 H 1048.74 -0.119673 3.72708 0
M  V30 10971 N 1050.93 -1.4397 0.641131 0
M  V30 10972 C 1052.21 -1.95436 0.0800918 0
M  V30 10973 C 1052.59 -1.58282 -1.39678 0
M  V30 10974 O 1051.93 -0.861867 -2.11623 0
M  V30 10975 C 1052.14 -3.47589 0.313531 0
M  V30 10976 C 1053.49 -4.2407 0.212034 0
M  V30 10977 O 1054.52 -3.55353 0.245434 0
M  V30 10978 O 1053.38 -5.46356 0.125455 0
M  V30 10979 H 1050.47 -0.826834 -0.0165735 0
M  V30 10980 H 1053.02 -1.5397 0.71353 0
M  V30 10981 H 1051.79 -3.67716 1.33793 0
M  V30 10982 H 1051.41 -3.96025 -0.353563 0
M  V30 10983 N 1052.41 -0.382291 -1.52893 0
M  V30 10984 C 1053.65 0.202433 -2.01787 0
M  V30 10985 C 1053.99 1.47044 -1.26853 0
M  V30 10986 O 1053.26 1.91007 -0.366969 0
M  V30 10987 C 1053.54 0.477471 -3.5692 0
M  V30 10988 C 1053.4 -0.805339 -4.42532 0
M  V30 10989 C 1054.72 1.27106 -4.21346 0
M  V30 10990 H 1051.84 0.0720998 -0.733465 0
M  V30 10991 H 1054.48 -0.510478 -1.83014 0
M  V30 10992 H 1052.63 1.08478 -3.73048 0
M  V30 10993 H 1054.3 -1.4424 -4.3817 0
M  V30 10994 H 1052.54 -1.42216 -4.09826 0
M  V30 10995 H 1053.21 -0.567635 -5.49074 0
M  V30 10996 H 1055.69 0.757161 -4.09153 0
M  V30 10997 H 1054.57 1.43225 -5.29885 0
M  V30 10998 H 1054.83 2.28431 -3.78513 0
M  V30 10999 N 1053.89 1.57202 -0.111913 0
M  V30 11000 C 1055.13 1.96834 0.550967 0
M  V30 11001 C 1055.49 0.993502 1.64297 0
M  V30 11002 O 1056.69 1.27894 2.36425 0
M  V30 11003 C 1054.96 3.40805 1.07641 0
M  V30 11004 S 1056.52 4.02445 1.74881 0
M  V30 11005 H 1053.34 0.688021 0.179298 0
M  V30 11006 H 1055.94 1.94522 -0.195312 0
M  V30 11007 H 1054.64 4.09508 0.270377 0
M  V30 11008 H 1054.18 3.46752 1.85814 0
M  V30 11009 H 1056.19 3.92623 3.03416 0
M  V30 11010 N 1055.36 -0.161842 1.56767 0
M  V30 11011 C 1056.64 -0.904754 1.73417 0
M  V30 11012 C 1057.02 -1.99987 0.675908 0
M  V30 11013 O 1056.37 -2.26419 -0.307712 0
M  V30 11014 C 1056.58 -1.46082 3.16956 0
M  V30 11015 C 1057.93 -1.93004 3.78199 0
M  V30 11016 O 1058.95 -1.55856 3.20293 0
M  V30 11017 O 1057.81 -2.61465 4.79894 0
M  V30 11018 H 1054.9 -0.426518 0.708528 0
M  V30 11019 H 1057.45 -0.148928 1.69045 0
M  V30 11020 H 1056.22 -0.673087 3.85468 0
M  V30 11021 H 1055.84 -2.28056 3.25693 0
M  V30 11022 N 1056.84 -1.516 -0.430713 0
M  V30 11023 C 1057.77 -1.76342 -1.53054 0
M  V30 11024 C 1058.75 -0.61349 -1.58652 0
M  V30 11025 O 1059.94 -0.856888 -1.74273 0
M  V30 11026 C 1057.07 -1.8945 -2.91077 0
M  V30 11027 C 1056.02 -3.04928 -3.00339 0
M  V30 11028 C 1055.35 -3.03228 -4.40405 0
M  V30 11029 C 1056.65 -4.44777 -2.73808 0
M  V30 11030 H 1058.34 -2.68435 -1.326 0
M  V30 11031 H 1055.89 -1.29171 -0.636466 0
M  V30 11032 H 1057.84 -2.05343 -3.67984 0
M  V30 11033 H 1056.56 -0.940114 -3.12777 0
M  V30 11034 H 1055.22 -2.88751 -2.25872 0
M  V30 11035 H 1054.87 -2.05553 -4.59083 0
M  V30 11036 H 1054.57 -3.80776 -4.47531 0
M  V30 11037 H 1056.1 -3.21222 -5.19277 0
M  V30 11038 H 1057.51 -4.6127 -3.40445 0
M  V30 11039 H 1055.91 -5.2408 -2.92335 0
M  V30 11040 H 1056.98 -4.54358 -1.69372 0
M  V30 11041 N 1058.32 0.686584 -1.41858 0
M  V30 11042 C 1059.57 1.44235 -1.40994 0
M  V30 11043 C 1059.88 1.95583 -0.0254979 0
M  V30 11044 O 1061.09 2.71294 0.10576 0
M  V30 11045 C 1059.54 2.6086 -2.47952 0
M  V30 11046 C 1059.15 2.16259 -3.92347 0
M  V30 11047 C 1060.9 3.38441 -2.56237 0
M  V30 11048 C 1058.8 3.29896 -4.90838 0
M  V30 11049 H 1057.73 0.54181 -0.524364 0
M  V30 11050 H 1060.38 0.744486 -1.67719 0
M  V30 11051 H 1058.77 3.32957 -2.14373 0
M  V30 11052 H 1059.94 1.51392 -4.35221 0
M  V30 11053 H 1058.25 1.51648 -3.87804 0
M  V30 11054 H 1060.85 4.23052 -3.27003 0
M  V30 11055 H 1061.19 3.84238 -1.6021 0
M  V30 11056 H 1061.73 2.73406 -2.88953 0
M  V30 11057 H 1058.47 2.89104 -5.88302 0
M  V30 11058 H 1057.99 3.93584 -4.52606 0
M  V30 11059 H 1059.67 3.95541 -5.12012 0
M  V30 11060 N 1059.8 1.27835 0.921735 0
M  V30 11061 C 1060.75 1.07723 2.00947 0
M  V30 11062 C 1061.73 0.00336676 1.609 0
M  V30 11063 O 1062.92 0.222593 1.75595 0
M  V30 11064 C 1060.05 0.732732 3.35389 0
M  V30 11065 C 1059.14 1.84504 3.81863 0
M  V30 11066 N 1059.53 3.08551 4.00787 0
M  V30 11067 C 1057.83 1.73308 4.10951 0
M  V30 11068 C 1058.53 3.80974 4.39584 0
M  V30 11069 N 1057.5 3.08773 4.47393 0
M  V30 11070 H 1061.31 2.01854 2.13617 0
M  V30 11071 H 1058.82 1.18637 1.109 0
M  V30 11072 H 1060.82 0.56975 4.12988 0
M  V30 11073 H 1059.48 -0.200885 3.24078 0
M  V30 11074 H 1060.49 3.44248 3.86928 0
M  V30 11075 H 1057.17 0.870698 4.0832 0
M  V30 11076 H 1058.56 4.87617 4.62255 0
M  V30 11077 N 1061.28 -1.12907 1.09954 0
M  V30 11078 C 1062.21 -2.18194 0.701701 0
M  V30 11079 C 1063.22 -1.60724 -0.259131 0
M  V30 11080 O 1064.41 -1.78445 -0.0443549 0
M  V30 11081 C 1061.51 -3.38897 0.0140602 0
M  V30 11082 C 1060.68 -4.25867 0.997807 0
M  V30 11083 C 1059.74 -5.25084 0.34257 0
M  V30 11084 O 1058.77 -5.60492 0.991857 0
M  V30 11085 N 1059.97 -5.73464 -0.901058 0
M  V30 11086 H 1062.73 -2.52939 1.60755 0
M  V30 11087 H 1060.3 -1.28281 0.987703 0
M  V30 11088 H 1062.29 -4.02349 -0.435628 0
M  V30 11089 H 1060.86 -3.02345 -0.794118 0
M  V30 11090 H 1060.08 -3.59107 1.6259 0
M  V30 11091 H 1061.37 -4.80825 1.66388 0
M  V30 11092 H 1060.76 -5.46854 -1.44802 0
M  V30 11093 H 1059.32 -6.38827 -1.29398 0
M  V30 11094 N 1062.75 -0.88754 -1.30232 0
M  V30 11095 C 1063.7 -0.327649 -2.25633 0
M  V30 11096 C 1064.69 0.545362 -1.51376 0
M  V30 11097 O 1065.88 0.389366 -1.72664 0
M  V30 11098 C 1063.01 0.454546 -3.40277 0
M  V30 11099 C 1062.09 -0.432698 -4.21887 0
M  V30 11100 N 1062.49 -1.53434 -4.81966 0
M  V30 11101 C 1060.78 -0.228275 -4.45415 0
M  V30 11102 C 1061.48 -2.08292 -5.43129 0
M  V30 11103 N 1060.46 -1.37754 -5.25856 0
M  V30 11104 H 1064.26 -1.16937 -2.69635 0
M  V30 11105 H 1061.78 -0.737232 -1.44702 0
M  V30 11106 H 1063.77 0.87231 -4.07672 0
M  V30 11107 H 1062.43 1.29367 -2.97816 0
M  V30 11108 H 1063.44 -1.91717 -4.81108 0
M  V30 11109 H 1060.12 0.573475 -4.13543 0
M  V30 11110 H 1061.51 -3.00818 -6.00798 0
M  V30 11111 N 1064.23 1.43628 -0.648757 0
M  V30 11112 C 1065.48 2.01465 -0.16002 0
M  V30 11113 C 1065.8 1.51413 1.22878 0
M  V30 11114 O 1065.07 0.724919 1.81994 0
M  V30 11115 H 1063.65 0.744885 -0.0561672 0
M  V30 11116 H 1066.31 1.75897 -0.839422 0
M  V30 11117 H 1065.41 3.1178 -0.141213 0
M  V30 11118 N 1065.71 0.390394 1.52688 0
M  V30 11119 C 1066.96 -0.191067 2.01195 0
M  V30 11120 C 1067.28 -1.47229 1.27862 0
M  V30 11121 O 1066.55 -1.91793 0.399007 0
M  V30 11122 H 1065.13 -0.073596 0.743366 0
M  V30 11123 H 1067.79 0.522334 1.8777 0
M  V30 11124 H 1066.89 -0.40051 3.0952 0
M  V30 11125 N 1067.19 -1.57141 0.120249 0
M  V30 11126 C 1068.12 -2.12454 -0.859987 0
M  V30 11127 C 1069.13 -1.06755 -1.22911 0
M  V30 11128 O 1070.32 -1.34124 -1.17784 0
M  V30 11129 C 1067.42 -2.61024 -2.16147 0
M  V30 11130 C 1066.6 -3.90835 -1.96385 0
M  V30 11131 C 1065.65 -4.2499 -3.10274 0
M  V30 11132 O 1064.68 -4.93786 -2.83133 0
M  V30 11133 N 1065.88 -3.82411 -4.36741 0
M  V30 11134 H 1068.65 -2.97186 -0.387402 0
M  V30 11135 H 1066.21 -1.61773 -0.0641376 0
M  V30 11136 H 1068.2 -2.80903 -2.91334 0
M  V30 11137 H 1066.77 -1.81166 -2.5475 0
M  V30 11138 H 1065.99 -3.79853 -1.05383 0
M  V30 11139 H 1067.28 -4.75712 -1.80487 0
M  V30 11140 H 1066.68 -3.26926 -4.61666 0
M  V30 11141 H 1065.23 -4.07395 -5.08795 0
M  V30 11142 N 1068.67 0.153526 -1.5685 0
M  V30 11143 C 1069.91 0.868517 -1.83261 0
M  V30 11144 C 1070.25 1.81112 -0.700857 0
M  V30 11145 O 1069.52 1.92235 0.295989 0
M  V30 11146 C 1069.8 1.6487 -3.2014 0
M  V30 11147 C 1069.66 0.728021 -4.43869 0
M  V30 11148 C 1070.98 2.61259 -3.54163 0
M  V30 11149 H 1068.09 0.314297 -0.666623 0
M  V30 11150 H 1070.74 0.133971 -1.89527 0
M  V30 11151 H 1068.89 2.2749 -3.1493 0
M  V30 11152 H 1070.56 0.113328 -4.61161 0
M  V30 11153 H 1068.8 0.0371744 -4.33784 0
M  V30 11154 H 1069.47 1.30981 -5.36235 0
M  V30 11155 H 1071.95 2.0876 -3.59942 0
M  V30 11156 H 1070.82 3.12902 -4.50981 0
M  V30 11157 H 1071.09 3.42307 -2.79782 0
M  V30 11158 N 1070.14 1.51827 0.422667 0
M  V30 11159 C 1071.37 1.68803 1.19117 0
M  V30 11160 C 1071.78 0.391228 1.85111 0
M  V30 11161 O 1071.13 -0.64148 1.72136 0
M  V30 11162 C 1071.19 2.75767 2.30636 0
M  V30 11163 C 1070.85 4.17929 1.8489 0
M  V30 11164 C 1071.85 5.02223 1.34416 0
M  V30 11165 C 1069.53 4.641 1.92136 0
M  V30 11166 C 1071.53 6.30756 0.917925 0
M  V30 11167 C 1069.21 5.92626 1.49123 0
M  V30 11168 C 1070.21 6.75782 0.990352 0
M  V30 11169 O 1069.9 8.01902 0.566386 0
M  V30 11170 H 1069.63 0.569303 0.364514 0
M  V30 11171 H 1072.19 1.9909 0.505208 0
M  V30 11172 H 1070.42 2.40827 3.02555 0
M  V30 11173 H 1072.11 2.81476 2.92448 0
M  V30 11174 H 1072.87 4.67749 1.28202 0
M  V30 11175 H 1068.75 3.99488 2.30066 0
M  V30 11176 H 1072.29 6.95612 0.52628 0
M  V30 11177 H 1068.19 6.26611 1.55012 0
M  V30 11178 H 1068.96 8.15579 0.690918 0
M  V30 11179 N 1071.62 -0.679052 1.4222 0
M  V30 11180 C 1072.55 -1.80481 1.48152 0
M  V30 11181 C 1073.53 -1.66698 0.338502 0
M  V30 11182 O 1074.72 -1.86183 0.552228 0
M  V30 11183 C 1071.85 -3.18746 1.37908 0
M  V30 11184 C 1070.8 -3.47258 2.50192 0
M  V30 11185 C 1070.13 -4.85052 2.25008 0
M  V30 11186 C 1071.43 -3.44576 3.92511 0
M  V30 11187 H 1073.12 -1.75774 2.42371 0
M  V30 11188 H 1070.67 -0.844241 1.16656 0
M  V30 11189 H 1072.62 -3.97229 1.40666 0
M  V30 11190 H 1071.35 -3.24119 0.401806 0
M  V30 11191 H 1070 -2.71133 2.46744 0
M  V30 11192 H 1069.65 -4.8707 1.25584 0
M  V30 11193 H 1069.35 -5.05092 3.00259 0
M  V30 11194 H 1070.88 -5.65825 2.29508 0
M  V30 11195 H 1072.29 -4.13036 3.97585 0
M  V30 11196 H 1070.69 -3.76151 4.67579 0
M  V30 11197 H 1071.76 -2.4323 4.19484 0
M  V30 11198 N 1073.1 -1.28322 -0.914942 0
M  V30 11199 C 1074.38 -1.06111 -1.64316 0
M  V30 11200 C 1074.76 0.399934 -2.07277 0
M  V30 11201 O 1074.11 1.38577 -1.81683 0
M  V30 11202 C 1074.32 -2.03461 -2.83557 0
M  V30 11203 C 1075.66 -2.33541 -3.54604 0
M  V30 11204 O 1076.69 -2.01536 -2.93704 0
M  V30 11205 O 1075.55 -2.88158 -4.64357 0
M  V30 11206 H 1072.64 -0.405451 -0.72079 0
M  V30 11207 H 1075.19 -1.39636 -0.964352 0
M  V30 11208 H 1073.96 -3.01938 -2.48896 0
M  V30 11209 H 1073.58 -1.70574 -3.59152 0
M  V30 11210 N 1074.58 1.12322 -1.10551 0
M  V30 11211 C 1075.83 1.83495 -0.846998 0
M  V30 11212 C 1076.15 1.8457 0.629205 0
M  V30 11213 O 1075.42 1.30968 1.45686 0
M  V30 11214 H 1074 0.679479 -0.310351 0
M  V30 11215 H 1076.66 1.36004 -1.39602 0
M  V30 11216 H 1075.76 2.87651 -1.21092 0
M  V30 11217 N 1076.06 0.894434 1.2976 0
M  V30 11218 C 1077.02 0.373094 2.26143 0
M  V30 11219 C 1078.02 -0.489756 1.5316 0
M  V30 11220 O 1079.21 -0.29556 1.71674 0
M  V30 11221 C 1076.34 -0.467234 3.37683 0
M  V30 11222 H 1077.53 1.22427 2.73773 0
M  V30 11223 H 1075.09 0.672112 1.41111 0
M  V30 11224 H 1075.82 -1.33861 2.95384 0
M  V30 11225 H 1075.61 0.150954 3.91809 0
M  V30 11226 H 1077.1 -0.823469 4.094 0
M  V30 11227 N 1077.53 -1.43282 0.656365 0
M  V30 11228 C 1078.48 -2.32556 -0.0452037 0
M  V30 11229 C 1079.48 -1.48789 -0.80982 0
M  V30 11230 O 1080.68 -1.64979 -0.719865 0
M  V30 11231 H 1077.06 -0.751258 -0.0334043 0
M  V30 11232 H 1079.03 -2.89448 0.725423 0
M  V30 11233 C 1077.78 -3.33138 -0.995706 0
M  V30 11234 H 1077.1 -3.97622 -0.416774 0
M  V30 11235 H 1078.54 -3.98231 -1.45562 0
M  V30 11236 C 1077 -2.63978 -2.09325 0
M  V30 11237 O 1077.53 -2.45769 -3.17743 0
M  V30 11238 N 1075.74 -2.23301 -1.8597 0
M  V30 11239 H 1075.28 -2.38312 -0.97802 0
M  V30 11240 H 1075.24 -1.77358 -2.59599 0
M  V30 11241 N 1079.01 -0.398486 -1.52479 0
M  V30 11242 C 1079.95 0.476551 -2.23169 0
M  V30 11243 C 1080.92 1.05665 -1.23587 0
M  V30 11244 O 1082.11 1.10654 -1.52604 0
M  V30 11245 C 1079.24 1.66048 -2.95204 0
M  V30 11246 C 1078.28 1.20478 -4.0913 0
M  V30 11247 S 1079.11 0.178711 -5.35202 0
M  V30 11248 C 1080.27 1.36821 -6.10762 0
M  V30 11249 H 1080.5 -0.123704 -2.97043 0
M  V30 11250 H 1078.04 -0.182722 -1.53315 0
M  V30 11251 H 1079.99 2.33942 -3.37315 0
M  V30 11252 H 1078.66 2.23206 -2.20993 0
M  V30 11253 H 1077.85 2.08901 -4.58668 0
M  V30 11254 H 1077.45 0.604632 -3.6908 0
M  V30 11255 H 1079.74 2.2937 -6.37492 0
M  V30 11256 H 1080.69 0.913579 -7.02182 0
M  V30 11257 H 1081.09 1.58919 -5.41669 0
M  V30 11258 N 1080.49 1.57075 -0.12858 0
M  V30 11259 C 1081.44 2.17084 0.835308 0
M  V30 11260 C 1082.43 1.12268 1.26855 0
M  V30 11261 O 1083.64 1.30554 1.23917 0
M  V30 11262 H 1080.01 0.694866 0.287516 0
M  V30 11263 H 1081.99 2.96839 0.304798 0
M  V30 11264 C 1080.73 2.79237 2.07177 0
M  V30 11265 H 1080.06 3.59594 1.74735 0
M  V30 11266 H 1081.5 3.24751 2.72604 0
M  V30 11267 C 1079.96 1.76803 2.86779 0
M  V30 11268 O 1080.49 1.22723 3.82494 0
M  V30 11269 N 1078.69 1.46525 2.50956 0
M  V30 11270 H 1078.24 1.90694 1.73187 0
M  V30 11271 H 1078.2 0.782326 3.04511 0
M  V30 11272 N 1081.97 -0.145205 1.5693 0
M  V30 11273 C 1082.93 -1.16316 1.97492 0
M  V30 11274 C 1083.93 -1.35764 0.861668 0
M  V30 11275 O 1085.12 -1.32726 1.12825 0
M  V30 11276 C 1082.25 -2.52311 2.29242 0
M  V30 11277 H 1083.45 -0.815138 2.8861 0
M  V30 11278 H 1081 -0.38861 1.51392 0
M  V30 11279 H 1081.74 -2.92081 1.40922 0
M  V30 11280 H 1081.52 -2.39555 3.10412 0
M  V30 11281 H 1083.01 -3.25624 2.61456 0
M  V30 11282 N 1083.45 -1.52049 -0.414609 0
M  V30 11283 C 1084.38 -1.7122 -1.52369 0
M  V30 11284 C 1085.39 -0.592634 -1.5163 0
M  V30 11285 O 1086.58 -0.867634 -1.55995 0
M  V30 11286 C 1083.68 -1.73247 -2.91271 0
M  V30 11287 C 1082.85 -3.02153 -3.16263 0
M  V30 11288 C 1081.91 -2.96066 -4.35007 0
M  V30 11289 O 1080.94 -3.69981 -4.32554 0
M  V30 11290 N 1082.14 -2.13478 -5.39822 0
M  V30 11291 H 1084.91 -2.66902 -1.3632 0
M  V30 11292 H 1082.47 -1.50218 -0.603842 0
M  V30 11293 H 1084.46 -1.66714 -3.68766 0
M  V30 11294 H 1083.03 -0.85062 -3.00804 0
M  V30 11295 H 1082.25 -3.22379 -2.2686 0
M  V30 11296 H 1083.54 -3.87439 -3.29801 0
M  V30 11297 H 1082.94 -1.52844 -5.44661 0
M  V30 11298 H 1081.49 -2.12805 -6.16082 0
M  V30 11299 N 1084.93 0.6715 -1.42579 0
M  V30 11300 C 1086.17 1.43366 -1.43436 0
M  V30 11301 C 1086.5 1.94131 -0.0517339 0
M  V30 11302 O 1085.78 1.71121 0.924548 0
M  V30 11303 C 1086.06 2.62832 -2.46154 0
M  V30 11304 C 1085.92 2.17677 -3.9362 0
M  V30 11305 C 1087.23 3.65049 -2.4582 0
M  V30 11306 H 1084.35 0.519967 -0.522306 0
M  V30 11307 H 1087 0.762849 -1.74013 0
M  V30 11308 H 1085.15 3.20062 -2.2021 0
M  V30 11309 H 1086.82 1.65588 -4.30556 0
M  V30 11310 H 1085.06 1.49219 -4.07328 0
M  V30 11311 H 1085.73 3.03503 -4.61075 0
M  V30 11312 H 1088.21 3.17541 -2.68899 0
M  V30 11313 H 1087.08 4.46213 -3.19664 0
M  V30 11314 H 1087.34 4.16401 -1.48536 0
M  V30 11315 N 1086.4 1.28806 0.908124 0
M  V30 11316 C 1087.65 1.16058 1.65454 0
M  V30 11317 C 1087.97 -0.290057 1.92831 0
M  V30 11318 O 1087.24 -1.20001 1.54843 0
M  V30 11319 H 1085.82 0.426522 0.61326 0
M  V30 11320 H 1088.48 1.61614 1.08936 0
M  V30 11321 H 1087.58 1.70437 2.61453 0
M  V30 11322 N 1087.88 -1.11734 1.11145 0
M  V30 11323 C 1089.13 -1.82766 0.853194 0
M  V30 11324 C 1089.44 -1.85408 -0.623168 0
M  V30 11325 O 1090.65 -2.52509 -0.997574 0
M  V30 11326 C 1089.11 -3.28215 1.47658 0
M  V30 11327 C 1088.71 -3.33911 2.98676 0
M  V30 11328 C 1090.46 -4.04168 1.29803 0
M  V30 11329 C 1088.36 -4.73739 3.54013 0
M  V30 11330 H 1087.29 -0.684807 0.315523 0
M  V30 11331 H 1089.95 -1.25756 1.33633 0
M  V30 11332 H 1088.33 -3.85138 0.921116 0
M  V30 11333 H 1089.5 -2.86887 3.606 0
M  V30 11334 H 1087.82 -2.71437 3.15771 0
M  V30 11335 H 1090.41 -5.07429 1.68582 0
M  V30 11336 H 1090.76 -4.15606 0.240302 0
M  V30 11337 H 1091.29 -3.53623 1.82196 0
M  V30 11338 H 1088.03 -4.67497 4.59485 0
M  V30 11339 H 1087.55 -5.21186 2.9686 0
M  V30 11340 H 1089.23 -5.42691 3.52271 0
M  V30 11341 N 1089.36 -0.901303 -1.29284 0
M  V30 11342 C 1090.6 -0.534971 -1.97275 0
M  V30 11343 C 1090.96 0.902226 -1.69481 0
M  V30 11344 O 1092.16 1.37551 -2.3094 0
M  V30 11345 C 1090.44 -0.821095 -3.4784 0
M  V30 11346 S 1091.99 -0.559312 -4.35221 0
M  V30 11347 H 1088.81 -0.198409 -0.682755 0
M  V30 11348 H 1091.41 -1.16408 -1.57065 0
M  V30 11349 H 1090.12 -1.86527 -3.65562 0
M  V30 11350 H 1089.65 -0.18016 -3.92987 0
M  V30 11351 H 1091.66 0.59494 -4.9262 0
M  V30 11352 N 1090.84 1.42931 -0.663954 0
M  V30 11353 C 1092.25 1.56098 -0.332496 0
M  V30 11354 C 1092.45 1.64564 1.16279 0
M  V30 11355 O 1091.51 1.6066 1.94794 0
M  V30 11356 C 1092.82 2.81649 -1.05329 0
M  V30 11357 C 1094.37 2.95408 -1.03457 0
M  V30 11358 C 1094.85 4.23805 -1.73647 0
M  V30 11359 N 1096.34 4.30693 -1.70462 0
M  V30 11360 C 1097.07 5.28833 -2.21637 0
M  V30 11361 N 1096.57 6.33189 -2.81147 0
M  V30 11362 N 1098.36 5.20558 -2.12075 0
M  V30 11363 H 1090.51 1.3568 -1.63416 0
M  V30 11364 H 1092.77 0.652361 -0.687844 0
M  V30 11365 H 1092.48 2.81494 -2.10842 0
M  V30 11366 H 1092.35 3.72208 -0.611626 0
M  V30 11367 H 1094.74 2.95097 0.0121936 0
M  V30 11368 H 1094.82 2.06109 -1.51502 0
M  V30 11369 H 1094.47 4.24876 -2.78285 0
M  V30 11370 H 1094.4 5.12019 -1.2306 0
M  V30 11371 H 1096.89 3.55904 -1.27046 0
M  V30 11372 H 1097.2 7.04411 -3.17844 0
M  V30 11373 H 1095.55 6.33781 -2.85212 0
M  V30 11374 H 1098.74 4.3795 -1.6528 0
M  V30 11375 H 1098.91 5.96881 -2.52264 0
M  V30 11376 N 1092.32 0.406567 1.52266 0
M  V30 11377 C 1093.73 -0.063607 1.86592 0
M  V30 11378 C 1094.08 -1.4466 1.32544 0
M  V30 11379 O 1093.2 -2.05971 0.663692 0
M  V30 11380 C 1093.8 -0.122198 3.3858 0
M  V30 11381 C 1092.36 -0.536701 3.72554 0
M  V30 11382 C 1091.5 0.290422 2.75775 0
M  V30 11383 H 1094.45 0.623738 1.45929 0
M  V30 11384 H 1094.48 -0.937964 3.68758 0
M  V30 11385 H 1093.99 0.884495 3.77887 0
M  V30 11386 H 1092.09 -1.55013 3.38824 0
M  V30 11387 H 1092.2 -0.282867 4.78264 0
M  V30 11388 H 1090.57 -0.246864 2.53501 0
M  V30 11389 H 1091.35 1.29541 3.17921 0
M  V30 11390 N 1093.79 -1.57004 0.136909 0
M  V30 11391 C 1095.04 -1.9541 -0.51569 0
M  V30 11392 C 1095.36 -1.02219 -1.66061 0
M  V30 11393 O 1094.63 -0.0818172 -1.95729 0
M  V30 11394 H 1093.21 -0.721504 -0.193497 0
M  V30 11395 H 1095.88 -1.93765 0.210046 0
M  V30 11396 H 1094.97 -2.98887 -0.898494 0
M  V30 11397 N 1095.27 0.136881 -1.57004 0
M  V30 11398 C 1096.55 0.87705 -1.74835 0
M  V30 11399 C 1096.93 1.98886 -0.707639 0
M  V30 11400 O 1096.28 2.26879 0.271652 0
M  V30 11401 C 1096.49 1.41021 -3.1924 0
M  V30 11402 C 1097.84 1.86963 -3.81222 0
M  V30 11403 O 1098.86 1.5074 -3.22732 0
M  V30 11404 O 1097.72 2.53798 -4.83993 0
M  V30 11405 H 1094.81 0.415192 -0.715223 0
M  V30 11406 H 1097.36 0.122016 -1.69261 0
M  V30 11407 H 1096.13 0.611677 -3.8649 0
M  V30 11408 H 1095.75 2.22846 -3.2928 0
M  V30 11409 N 1096.75 1.52266 0.40654 0
M  V30 11410 C 1098 1.66452 1.15325 0
M  V30 11411 C 1098.33 0.395728 1.90432 0
M  V30 11412 O 1097.58 -0.621382 1.85573 0
M  V30 11413 C 1097.88 2.8389 2.1712 0
M  V30 11414 C 1097.55 4.22011 1.58801 0
M  V30 11415 C 1096.21 4.59579 1.42621 0
M  V30 11416 C 1098.56 5.08074 1.16236 0
M  V30 11417 C 1095.89 5.80885 0.823967 0
M  V30 11418 C 1098.24 6.29988 0.574284 0
M  V30 11419 C 1096.9 6.66303 0.399638 0
M  V30 11420 H 1096.17 0.609092 0.422005 0
M  V30 11421 H 1098.82 1.86374 0.440131 0
M  V30 11422 H 1097.13 2.58314 2.94586 0
M  V30 11423 H 1098.82 2.92063 2.74774 0
M  V30 11424 H 1095.41 3.92408 1.72378 0
M  V30 11425 H 1099.6 4.79631 1.27544 0
M  V30 11426 H 1094.85 6.07644 0.676694 0
M  V30 11427 H 1099.03 6.96 0.236081 0
M  V30 11428 H 1096.65 7.60169 -0.0691262 0
M  V30 11429 N 1098.23 -0.663929 1.42933 0
M  V30 11430 C 1099.48 -1.42111 1.43697 0
M  V30 11431 C 1099.8 -1.94913 0.0583858 0
M  V30 11432 O 1099.07 -1.73757 -0.904719 0
M  V30 11433 H 1097.65 -0.527391 0.529026 0
M  V30 11434 H 1100.31 -0.783766 1.78446 0
M  V30 11435 H 1099.41 -2.26877 2.1432 0
M  V30 11436 N 1099.71 -1.29285 -0.901281 0
M  V30 11437 C 1100.93 -1.20169 -1.69039 0
M  V30 11438 C 1101.36 0.234509 -1.86632 0
M  V30 11439 O 1100.71 1.16935 -1.38549 0
M  V30 11440 C 1100.76 -1.91852 -3.05328 0
M  V30 11441 O 1099.87 -1.23448 -3.9349 0
M  V30 11442 H 1099.21 -0.416486 -0.517141 0
M  V30 11443 H 1101.74 -1.70826 -1.12603 0
M  V30 11444 H 1101.75 -2.00244 -3.5548 0
M  V30 11445 H 1100.42 -2.96313 -2.91841 0
M  V30 11446 H 1099 -1.23303 -3.51924 0
M  V30 11447 N 1101.18 1.11143 -1.11736 0
M  V30 11448 C 1102.46 1.79384 -0.779785 0
M  V30 11449 C 1102.84 1.98015 0.731668 0
M  V30 11450 O 1102.19 1.56731 1.66276 0
M  V30 11451 C 1102.4 3.12868 -1.54643 0
M  V30 11452 C 1103.75 3.8786 -1.7277 0
M  V30 11453 O 1104.77 3.22566 -1.51094 0
M  V30 11454 O 1103.63 5.05034 -2.08813 0
M  V30 11455 H 1100.72 0.777128 -0.282845 0
M  V30 11456 H 1103.27 1.17858 -1.22096 0
M  V30 11457 H 1102.04 2.94682 -2.57446 0
M  V30 11458 H 1101.67 3.82109 -1.09901 0
M  V30 11459 N 1102.66 0.908147 1.28804 0
M  V30 11460 C 1103.91 0.539201 1.95501 0
M  V30 11461 C 1104.24 -0.913759 1.7136 0
M  V30 11462 O 1103.52 -1.64904 1.03136 0
M  V30 11463 C 1103.8 0.842372 3.50109 0
M  V30 11464 C 1103.65 2.34765 3.83673 0
M  V30 11465 C 1104.97 0.334658 4.38826 0
M  V30 11466 H 1102.09 0.197373 0.71008 0
M  V30 11467 H 1104.73 1.13637 1.52272 0
M  V30 11468 H 1102.88 0.334143 3.8706 0
M  V30 11469 H 1104.55 2.92607 3.56621 0
M  V30 11470 H 1102.8 2.80494 3.30916 0
M  V30 11471 H 1103.47 2.51034 4.91616 0
M  V30 11472 H 1105.94 0.769961 4.08914 0
M  V30 11473 H 1104.82 0.575914 5.4587 0
M  V30 11474 H 1105.08 -0.764878 4.35433 0
M  V30 11475 N 1104.14 -1.42577 0.671525 0
M  V30 11476 C 1105.37 -2.06442 0.199152 0
M  V30 11477 C 1105.79 -1.50104 -1.1336 0
M  V30 11478 O 1105.15 -0.618211 -1.70434 0
M  V30 11479 C 1105.2 -3.60323 0.141215 0
M  V30 11480 O 1104.3 -4.02655 -0.891238 0
M  V30 11481 H 1103.64 -0.655919 0.103277 0
M  V30 11482 H 1106.17 -1.82768 0.919614 0
M  V30 11483 H 1106.18 -4.07984 -0.0360209 0
M  V30 11484 H 1104.86 -4.00702 1.11403 0
M  V30 11485 H 1103.43 -3.66549 -0.685309 0
M  V30 11486 N 1105.62 -0.414636 -1.52048 0
M  V30 11487 C 1106.57 0.42561 -2.23992 0
M  V30 11488 C 1107.55 1.00894 -1.25337 0
M  V30 11489 O 1108.74 0.930842 -1.50547 0
M  V30 11490 C 1105.87 1.53874 -3.06884 0
M  V30 11491 C 1104.96 0.965913 -4.12954 0
M  V30 11492 N 1105.35 0.12023 -5.05657 0
M  V30 11493 C 1103.65 1.23586 -4.28535 0
M  V30 11494 C 1104.35 -0.199063 -5.81359 0
M  V30 11495 N 1103.33 0.411505 -5.4204 0
M  V30 11496 H 1107.13 -0.226746 -2.93024 0
M  V30 11497 H 1104.64 -0.225376 -1.60829 0
M  V30 11498 H 1106.64 2.15334 -3.56983 0
M  V30 11499 H 1105.3 2.19366 -2.39392 0
M  V30 11500 H 1106.31 -0.244501 -5.17323 0
M  V30 11501 H 1102.99 1.88995 -3.72273 0
M  V30 11502 H 1104.38 -0.88585 -6.66035 0
M  V30 11503 N 1107.1 1.56929 -0.145233 0
M  V30 11504 C 1108.03 2.19685 0.791263 0
M  V30 11505 C 1109.01 1.14455 1.25833 0
M  V30 11506 O 1110.19 1.42791 1.31622 0
M  V30 11507 C 1107.32 2.81705 2.03124 0
M  V30 11508 C 1106.28 3.92746 1.70101 0
M  V30 11509 C 1105.6 4.41694 3.01347 0
M  V30 11510 C 1106.9 5.13606 0.949025 0
M  V30 11511 H 1108.6 2.98196 0.26825 0
M  V30 11512 H 1106.14 1.43434 0.127584 0
M  V30 11513 H 1108.1 3.24273 2.69119 0
M  V30 11514 H 1106.82 2.00523 2.57795 0
M  V30 11515 H 1105.48 3.50794 1.06486 0
M  V30 11516 H 1105.13 3.57336 3.54006 0
M  V30 11517 H 1104.83 5.1659 2.80016 0
M  V30 11518 H 1106.35 4.86931 3.68416 0
M  V30 11519 H 1107.76 5.53029 1.51102 0
M  V30 11520 H 1106.16 5.94252 0.835711 0
M  V30 11521 H 1107.23 4.84863 -0.0595631 0
M  V30 11522 N 1108.58 -0.128553 1.57075 0
M  V30 11523 C 1109.52 -1.17719 2.00611 0
M  V30 11524 C 1110.52 -1.43423 0.90146 0
M  V30 11525 O 1111.72 -1.43498 1.08666 0
M  V30 11526 H 1108.1 -0.396683 0.638864 0
M  V30 11527 H 1110.07 -0.783437 2.87932 0
M  V30 11528 C 1108.82 -2.49826 2.41831 0
M  V30 11529 H 1108.14 -2.30883 3.26394 0
M  V30 11530 H 1109.58 -3.21784 2.761 0
M  V30 11531 C 1108.04 -3.11712 1.27816 0
M  V30 11532 O 1108.57 -3.9736 0.588917 0
M  V30 11533 N 1106.78 -2.71442 1.03767 0
M  V30 11534 H 1106.32 -2.01891 1.59994 0
M  V30 11535 H 1106.28 -3.1318 0.276743 0
M  V30 11536 N 1110.05 -1.5248 -0.398459 0
M  V30 11537 C 1110.98 -1.79549 -1.49279 0
M  V30 11538 C 1111.96 -0.647004 -1.57315 0
M  V30 11539 O 1113.15 -0.893661 -1.72416 0
M  V30 11540 C 1110.28 -1.95582 -2.86993 0
M  V30 11541 C 1109.23 -3.1123 -2.93803 0
M  V30 11542 C 1108.56 -3.12501 -4.33874 0
M  V30 11543 C 1109.86 -4.50485 -2.64312 0
M  V30 11544 H 1111.55 -2.71187 -1.26877 0
M  V30 11545 H 1109.1 -1.30492 -0.608924 0
M  V30 11546 H 1111.05 -2.13102 -3.63546 0
M  V30 11547 H 1109.78 -1.00625 -3.10712 0
M  V30 11548 H 1108.44 -2.93477 -2.19697 0
M  V30 11549 H 1108.08 -2.15245 -4.54619 0
M  V30 11550 H 1107.78 -3.90183 -4.39353 0
M  V30 11551 H 1109.31 -3.32164 -5.12347 0
M  V30 11552 H 1110.72 -4.68387 -3.30585 0
M  V30 11553 H 1109.12 -5.30163 -2.81153 0
M  V30 11554 H 1110.19 -4.57848 -1.59696 0
M  V30 11555 N 1111.53 0.65634 -1.43283 0
M  V30 11556 C 1112.48 1.76243 -1.44646 0
M  V30 11557 C 1113.47 1.5778 -0.31532 0
M  V30 11558 O 1114.66 1.67945 -0.558881 0
M  V30 11559 C 1111.79 3.14813 -1.36921 0
M  V30 11560 C 1110.87 3.38835 -2.55053 0
M  V30 11561 N 1111.26 3.33345 -3.80414 0
M  V30 11562 C 1109.56 3.69542 -2.4971 0
M  V30 11563 C 1110.26 3.57361 -4.58986 0
M  V30 11564 N 1109.24 3.79022 -3.8967 0
M  V30 11565 H 1113.04 1.70419 -2.39447 0
M  V30 11566 H 1110.55 0.85789 -1.37891 0
M  V30 11567 H 1112.55 3.941 -1.3598 0
M  V30 11568 H 1111.21 3.21822 -0.431381 0
M  V30 11569 H 1112.22 3.12827 -4.12747 0
M  V30 11570 H 1108.9 3.83684 -1.64598 0
M  V30 11571 H 1110.29 3.58921 -5.68001 0
M  V30 11572 N 1113.01 1.29761 0.894412 0
M  V30 11573 C 1113.96 1.15341 1.99912 0
M  V30 11574 C 1114.93 0.0453488 1.66038 0
M  V30 11575 O 1116.11 0.213829 1.89598 0
M  V30 11576 C 1113.25 0.841432 3.34685 0
M  V30 11577 C 1112.36 2.03046 3.81309 0
M  V30 11578 C 1111.5 1.65739 5.04682 0
M  V30 11579 C 1110.54 2.81191 5.43689 0
M  V30 11580 N 1109.68 2.44244 6.58247 0
M  V30 11581 H 1114.52 2.09854 2.11578 0
M  V30 11582 H 1112.05 1.04421 1.03608 0
M  V30 11583 H 1114.01 0.641211 4.12243 0
M  V30 11584 H 1112.64 -0.066797 3.22731 0
M  V30 11585 H 1111.69 2.34222 2.9974 0
M  V30 11586 H 1113 2.89538 4.06164 0
M  V30 11587 H 1112.16 1.42036 5.8984 0
M  V30 11588 H 1110.9 0.764019 4.81678 0
M  V30 11589 H 1109.9 3.0557 4.57064 0
M  V30 11590 H 1111.13 3.712 5.68672 0
M  V30 11591 H 1109.07 1.57402 6.36837 0
M  V30 11592 H 1108.99 3.24269 6.82924 0
M  V30 11593 H 1110.26 2.23875 7.46659 0
M  V30 11594 N 1114.49 -1.10549 1.12324 0
M  V30 11595 C 1115.72 -1.8627 0.900618 0
M  V30 11596 C 1116.13 -1.80609 -0.550069 0
M  V30 11597 O 1115.49 -1.19396 -1.38025 0
M  V30 11598 C 1115.54 -3.34716 1.36556 0
M  V30 11599 O 1115.26 -3.40279 2.75938 0
M  V30 11600 C 1116.76 -4.27315 1.17969 0
M  V30 11601 H 1113.98 -0.588741 0.321908 0
M  V30 11602 H 1116.52 -1.39759 1.49291 0
M  V30 11603 H 1114.68 -3.78697 0.81652 0
M  V30 11604 H 1115.09 -4.32781 2.96312 0
M  V30 11605 H 1116.57 -5.29677 1.55391 0
M  V30 11606 H 1117.04 -4.39036 0.120158 0
M  V30 11607 H 1117.65 -3.89137 1.71617 0
M  V30 11608 N 1115.97 -0.914965 -1.28321 0
M  V30 11609 C 1117.21 -0.548749 -1.94923 0
M  V30 11610 C 1117.54 0.907776 -1.72016 0
M  V30 11611 O 1116.8 1.66097 -1.03491 0
M  V30 11612 C 1117.09 -0.805805 -3.48198 0
M  V30 11613 C 1116.76 -2.24207 -3.91206 0
M  V30 11614 C 1115.42 -2.63475 -4.02659 0
M  V30 11615 C 1117.77 -3.17667 -4.13204 0
M  V30 11616 C 1115.1 -3.95353 -4.3349 0
M  V30 11617 C 1117.45 -4.4911 -4.45514 0
M  V30 11618 C 1116.12 -4.8823 -4.55179 0
M  V30 11619 H 1115.39 -0.200801 -0.713274 0
M  V30 11620 H 1118.04 -1.15652 -1.52633 0
M  V30 11621 H 1116.34 -0.115244 -3.9163 0
M  V30 11622 H 1118.04 -0.501609 -3.9785 0
M  V30 11623 H 1114.63 -1.92737 -3.82819 0
M  V30 11624 H 1118.81 -2.88537 -4.03807 0
M  V30 11625 H 1114.07 -4.25362 -4.39178 0
M  V30 11626 H 1118.24 -5.21542 -4.61483 0
M  V30 11627 H 1115.87 -5.90451 -4.78823 0
M  V30 11628 N 1117.44 1.42219 -0.679077 0
M  V30 11629 C 1118.68 2.03349 -0.207058 0
M  V30 11630 C 1119.05 1.52554 1.16581 0
M  V30 11631 O 1120.25 2.05499 1.73274 0
M  V30 11632 C 1118.52 3.56562 -0.244537 0
M  V30 11633 S 1120.08 4.38523 0.155853 0
M  V30 11634 H 1116.9 0.705932 -0.0847444 0
M  V30 11635 H 1119.5 1.73904 -0.893183 0
M  V30 11636 H 1118.2 3.91028 -1.246 0
M  V30 11637 H 1117.73 3.90686 0.461282 0
M  V30 11638 H 1119.75 4.76389 1.38808 0
M  V30 11639 N 1118.92 0.422693 1.51826 0
M  V30 11640 C 1120.17 -0.150066 2.01141 0
M  V30 11641 C 1120.48 -1.45059 1.31214 0
M  V30 11642 O 1121.69 -2.10542 1.71419 0
M  V30 11643 C 1120.15 -0.317985 3.58492 0
M  V30 11644 C 1119.75 0.971244 4.37345 0
M  V30 11645 C 1121.5 -0.845303 4.15999 0
M  V30 11646 C 1119.4 0.769769 5.86369 0
M  V30 11647 H 1118.33 -0.0598567 0.75162 0
M  V30 11648 H 1120.99 0.550217 1.75057 0
M  V30 11649 H 1119.37 -1.08092 3.80962 0
M  V30 11650 H 1120.54 1.74138 4.26629 0
M  V30 11651 H 1118.86 1.42599 3.91222 0
M  V30 11652 H 1121.45 -1.01229 5.2503 0
M  V30 11653 H 1121.8 -1.82375 3.74226 0
M  V30 11654 H 1122.33 -0.141067 3.9755 0
M  V30 11655 H 1119.07 1.72017 6.32527 0
M  V30 11656 H 1118.59 0.0391717 5.99787 0
M  V30 11657 H 1120.27 0.417225 6.45653 0
M  V30 11658 N 1120.4 -1.5685 0.153553 0
M  V30 11659 C 1121.81 -1.83074 -0.36618 0
M  V30 11660 C 1122.16 -1.07257 -1.64288 0
M  V30 11661 O 1121.29 -0.319925 -2.14022 0
M  V30 11662 C 1121.88 -3.32086 -0.671142 0
M  V30 11663 C 1120.44 -3.58868 -1.13537 0
M  V30 11664 C 1119.59 -2.76827 -0.161887 0
M  V30 11665 H 1122.54 -1.54129 0.378139 0
M  V30 11666 H 1122.56 -3.48598 -1.52512 0
M  V30 11667 H 1122.07 -3.8724 0.258234 0
M  V30 11668 H 1120.17 -3.09107 -2.08047 0
M  V30 11669 H 1120.29 -4.67299 -1.05682 0
M  V30 11670 H 1118.65 -2.46112 -0.6558 0
M  V30 11671 H 1119.43 -3.34755 0.761195 0
M  V30 11672 N 1121.88 0.120221 -1.57141 0
M  V30 11673 C 1122.83 1.15332 -1.96679 0
M  V30 11674 C 1123.81 1.37134 -0.841607 0
M  V30 11675 O 1125 1.38247 -1.10529 0
M  V30 11676 C 1122.13 2.48021 -2.37361 0
M  V30 11677 C 1121.22 2.29699 -3.5651 0
M  V30 11678 N 1121.61 1.81186 -4.72234 0
M  V30 11679 C 1119.91 2.60359 -3.62118 0
M  V30 11680 C 1120.61 1.76542 -5.54263 0
M  V30 11681 N 1119.58 2.20843 -4.96719 0
M  V30 11682 H 1123.39 0.770763 -2.83613 0
M  V30 11683 H 1120.9 0.327979 -1.59054 0
M  V30 11684 H 1122.9 3.22739 -2.63903 0
M  V30 11685 H 1121.56 2.87036 -1.51791 0
M  V30 11686 H 1122.57 1.50751 -4.95474 0
M  V30 11687 H 1119.25 3.03067 -2.87152 0
M  V30 11688 H 1120.64 1.40298 -6.57089 0
M  V30 11689 N 1123.36 1.52689 0.390367 0
M  V30 11690 C 1124.6 1.67335 1.13329 0
M  V30 11691 C 1124.93 0.415068 1.90531 0
M  V30 11692 O 1124.2 -0.570504 1.87409 0
M  V30 11693 H 1122.78 0.616821 0.421356 0
M  V30 11694 H 1125.44 1.89799 0.443 0
M  V30 11695 H 1124.53 2.52314 1.83696 0
M  V30 11696 N 1124.83 -0.648732 1.43629 0
M  V30 11697 C 1126.08 -1.40579 1.45196 0
M  V30 11698 C 1126.4 -1.9484 0.0790556 0
M  V30 11699 O 1125.67 -1.74707 -0.886239 0
M  V30 11700 H 1124.25 -0.52175 0.53459 0
M  V30 11701 H 1126.92 -0.764796 1.79268 0
M  V30 11702 H 1126.01 -2.24591 2.16715 0
M  V30 11703 N 1126.31 -1.30234 -0.887518 0
M  V30 11704 C 1127.56 -1.18675 -1.63587 0
M  V30 11705 C 1127.88 0.259342 -1.93268 0
M  V30 11706 O 1127.15 1.17523 -1.56733 0
M  V30 11707 H 1125.73 -0.436224 -0.606397 0
M  V30 11708 H 1128.39 -1.63326 -1.06351 0
M  V30 11709 H 1127.49 -1.74575 -2.58708 0
M  V30 11710 N 1127.79 1.09952 -1.12909 0
M  V30 11711 C 1129.04 1.81657 -0.885729 0
M  V30 11712 C 1129.36 1.85863 0.589913 0
M  V30 11713 O 1128.63 1.34028 1.42875 0
M  V30 11714 H 1127.21 0.672743 -0.324694 0
M  V30 11715 H 1129.87 1.33013 -1.42456 0
M  V30 11716 H 1128.97 2.85018 -1.27167 0
M  V30 11717 N 1129.27 0.921757 1.27833 0
M  V30 11718 C 1130.68 0.604496 1.76643 0
M  V30 11719 C 1131.03 -0.880294 1.75343 0
M  V30 11720 O 1130.16 -1.68875 1.35315 0
M  V30 11721 C 1130.75 1.09055 3.20768 0
M  V30 11722 C 1129.31 0.824066 3.67268 0
M  V30 11723 C 1128.46 1.25269 2.47392 0
M  V30 11724 H 1131.41 1.10217 1.14184 0
M  V30 11725 H 1131.43 0.435558 3.77999 0
M  V30 11726 H 1130.94 2.17122 3.21682 0
M  V30 11727 H 1129.04 -0.243055 3.71806 0
M  V30 11728 H 1129.15 1.43743 4.57028 0
M  V30 11729 H 1127.52 0.671313 2.45694 0
M  V30 11730 H 1128.3 2.34188 2.5102 0
M  V30 11731 N 1130.75 -1.41857 0.686609 0
M  V30 11732 C 1131.99 -2.0097 0.213378 0
M  V30 11733 C 1132.32 -1.54618 -1.1882 0
M  V30 11734 O 1131.59 -0.772916 -1.80008 0
M  V30 11735 H 1130.17 -0.743134 0.0758968 0
M  V30 11736 H 1132.83 -1.73609 0.885763 0
M  V30 11737 H 1131.92 -3.11296 0.223826 0
M  V30 11738 N 1132.22 -0.430739 -1.51599 0
M  V30 11739 C 1133.16 0.429107 -2.24129 0
M  V30 11740 C 1134.14 1.03019 -1.25801 0
M  V30 11741 O 1135.32 1.07392 -1.54917 0
M  V30 11742 C 1132.45 1.59749 -2.9866 0
M  V30 11743 C 1131.49 1.11773 -4.11593 0
M  V30 11744 S 1132.33 0.0651468 -5.3546 0
M  V30 11745 C 1133.48 1.23835 -6.13527 0
M  V30 11746 H 1133.71 -0.186683 -2.96713 0
M  V30 11747 H 1131.25 -0.215201 -1.52893 0
M  V30 11748 H 1133.21 2.26735 -3.42201 0
M  V30 11749 H 1131.87 2.18468 -2.25678 0
M  V30 11750 H 1131.06 1.99125 -4.62996 0
M  V30 11751 H 1130.66 0.526209 -3.7028 0
M  V30 11752 H 1132.95 2.15796 -6.42214 0
M  V30 11753 H 1133.9 0.76443 -7.03962 0
M  V30 11754 H 1134.3 1.47393 -5.44918 0
M  V30 11755 N 1133.7 1.56767 -0.161869 0
M  V30 11756 C 1134.95 1.96206 0.484537 0
M  V30 11757 C 1135.27 1.04848 1.64414 0
M  V30 11758 O 1134.54 0.112946 1.95574 0
M  V30 11759 H 1133.12 0.724491 0.181994 0
M  V30 11760 H 1135.78 1.93406 -0.240845 0
M  V30 11761 H 1134.88 3.00279 0.85083 0
M  V30 11762 N 1135.18 -0.111886 1.57202 0
M  V30 11763 C 1136.59 -0.668261 1.74331 0
M  V30 11764 C 1136.94 -1.79959 0.781609 0
M  V30 11765 O 1136.07 -2.16356 -0.043833 0
M  V30 11766 C 1136.66 -1.219 3.1611 0
M  V30 11767 C 1135.22 -1.7216 3.34721 0
M  V30 11768 C 1134.37 -0.624223 2.70183 0
M  V30 11769 H 1137.32 0.114081 1.58289 0
M  V30 11770 H 1137.34 -2.08858 3.18054 0
M  V30 11771 H 1136.85 -0.395381 3.86081 0
M  V30 11772 H 1134.95 -2.56976 2.69803 0
M  V30 11773 H 1135.07 -1.82615 4.42932 0
M  V30 11774 H 1133.43 -1.05958 2.31614 0
M  V30 11775 H 1134.21 0.188537 3.42782 0
M  V30 11776 N 1136.66 -1.52894 -0.382264 0
M  V30 11777 C 1137.91 -1.67489 -1.12385 0
M  V30 11778 C 1138.22 -0.424565 -1.90937 0
M  V30 11779 O 1139.43 -0.450763 -2.67732 0
M  V30 11780 C 1137.88 -2.96019 -2.04697 0
M  V30 11781 C 1137.49 -4.28255 -1.31535 0
M  V30 11782 C 1139.23 -3.19981 -2.78949 0
M  V30 11783 C 1137.14 -5.47887 -2.22652 0
M  V30 11784 H 1136.07 -0.624002 -0.423246 0
M  V30 11785 H 1138.72 -1.79392 -0.386107 0
M  V30 11786 H 1137.1 -2.77878 -2.82134 0
M  V30 11787 H 1138.28 -4.56971 -0.592771 0
M  V30 11788 H 1136.59 -4.10607 -0.692148 0
M  V30 11789 H 1139.19 -4.06541 -3.47316 0
M  V30 11790 H 1139.53 -2.35335 -3.43399 0
M  V30 11791 H 1140.07 -3.38718 -2.08602 0
M  V30 11792 H 1136.81 -6.3496 -1.62806 0
M  V30 11793 H 1136.33 -5.23473 -2.92807 0
M  V30 11794 H 1138 -5.82026 -2.82586 0
M  V30 11795 N 1138.14 0.641106 -1.43971 0
M  V30 11796 C 1139.39 1.39807 -1.4594 0
M  V30 11797 C 1139.71 1.94795 -0.0893874 0
M  V30 11798 O 1138.98 1.75175 0.876962 0
M  V30 11799 H 1137.56 0.518908 -0.537349 0
M  V30 11800 H 1140.22 0.755278 -1.79671 0
M  V30 11801 H 1139.31 2.23439 -2.17903 0
M  V30 11802 N 1139.62 1.30703 0.880598 0
M  V30 11803 C 1140.86 1.19955 1.63519 0
M  V30 11804 C 1141.19 -0.244214 1.92658 0
M  V30 11805 O 1140.47 -1.17412 1.55063 0
M  V30 11806 C 1140.75 2.03302 2.97221 0
M  V30 11807 C 1140.61 3.55921 2.75028 0
M  V30 11808 C 1141.92 1.87421 3.98198 0
M  V30 11809 H 1139.04 0.43712 0.593376 0
M  V30 11810 H 1141.69 1.60382 1.01871 0
M  V30 11811 H 1139.84 1.68953 3.49839 0
M  V30 11812 H 1141.51 4.00352 2.29164 0
M  V30 11813 H 1139.75 3.79885 2.09452 0
M  V30 11814 H 1140.42 4.09533 3.70117 0
M  V30 11815 H 1142.9 2.17459 3.54755 0
M  V30 11816 H 1141.77 2.48057 4.89652 0
M  V30 11817 H 1142.03 0.834563 4.34151 0
M  V30 11818 N 1141.09 -1.09351 1.1349 0
M  V30 11819 C 1142.04 -2.16008 0.812981 0
M  V30 11820 C 1143.01 -1.64566 -0.225252 0
M  V30 11821 O 1144.2 -1.90552 -0.0973261 0
M  V30 11822 C 1141.34 -3.43913 0.285996 0
M  V30 11823 C 1140.45 -4.09251 1.38338 0
M  V30 11824 C 1139.58 -5.24916 0.814652 0
M  V30 11825 C 1138.62 -5.82178 1.89038 0
M  V30 11826 N 1137.76 -6.89203 1.33955 0
M  V30 11827 H 1142.6 -2.42887 1.72655 0
M  V30 11828 H 1140.14 -1.19209 0.861833 0
M  V30 11829 H 1142.09 -4.17183 -0.0376794 0
M  V30 11830 H 1140.72 -3.17349 -0.590707 0
M  V30 11831 H 1139.78 -3.33838 1.82363 0
M  V30 11832 H 1141.09 -4.4784 2.19638 0
M  V30 11833 H 1140.24 -6.05086 0.442306 0
M  V30 11834 H 1138.98 -4.87691 -0.029416 0
M  V30 11835 H 1137.99 -5.00669 2.27179 0
M  V30 11836 H 1139.21 -6.21464 2.73787 0
M  V30 11837 H 1137.16 -6.53956 0.517494 0
M  V30 11838 H 1137.07 -7.26565 2.08902 0
M  V30 11839 H 1138.34 -7.73126 0.994793 0
M  V30 11840 N 1142.57 -0.928524 -1.27343 0
M  V30 11841 C 1143.52 -0.426873 -2.26818 0
M  V30 11842 C 1144.49 0.506663 -1.58184 0
M  V30 11843 O 1145.67 0.425641 -1.85992 0
M  V30 11844 C 1142.81 0.313523 -3.43673 0
M  V30 11845 C 1141.93 -0.65422 -4.27018 0
M  V30 11846 C 1141.06 0.106102 -5.31094 0
M  V30 11847 C 1140.1 -0.854293 -6.06109 0
M  V30 11848 N 1139.24 -0.126545 -7.01986 0
M  V30 11849 H 1144.08 -1.28014 -2.69103 0
M  V30 11850 H 1141.61 -0.642515 -1.32326 0
M  V30 11851 H 1143.57 0.75912 -4.10236 0
M  V30 11852 H 1142.2 1.13102 -3.02337 0
M  V30 11853 H 1141.25 -1.21834 -3.60362 0
M  V30 11854 H 1142.57 -1.38817 -4.79094 0
M  V30 11855 H 1141.72 0.611577 -6.0361 0
M  V30 11856 H 1140.46 0.873009 -4.79823 0
M  V30 11857 H 1139.46 -1.37101 -5.32432 0
M  V30 11858 H 1140.69 -1.621 -6.5947 0
M  V30 11859 H 1138.64 0.622102 -6.53044 0
M  V30 11860 H 1138.55 -0.800046 -7.51755 0
M  V30 11861 H 1139.82 0.358251 -7.78676 0
M  V30 11862 N 1144.05 1.41491 -0.694123 0
M  V30 11863 C 1145 2.28 -0.00474478 0
M  V30 11864 C 1145.98 1.42125 0.754281 0
M  V30 11865 O 1147.18 1.65408 0.630012 0
M  V30 11866 C 1144.3 3.30408 0.931953 0
M  V30 11867 C 1143.39 4.23762 0.169251 0
M  V30 11868 N 1143.78 4.9884 -0.836181 0
M  V30 11869 C 1142.08 4.44158 0.40494 0
M  V30 11870 C 1142.78 5.67157 -1.2926 0
M  V30 11871 N 1141.76 5.40066 -0.6188 0
M  V30 11872 H 1145.56 2.8348 -0.775652 0
M  V30 11873 H 1143.07 1.53686 -0.524834 0
M  V30 11874 H 1145.07 3.91206 1.44097 0
M  V30 11875 H 1143.73 2.76489 1.70247 0
M  V30 11876 H 1144.74 5.03413 -1.21637 0
M  V30 11877 H 1141.42 4.0125 1.15346 0
M  V30 11878 H 1142.81 6.3735 -2.12684 0
M  V30 11879 N 1145.53 0.438773 1.51369 0
M  V30 11880 C 1146.46 -0.362467 2.3067 0
M  V30 11881 C 1147.44 -1.01973 1.36145 0
M  V30 11882 O 1148.62 -1.0231 1.65065 0
M  V30 11883 C 1145.75 -1.46313 3.14976 0
M  V30 11884 C 1144.71 -0.929272 4.1779 0
M  V30 11885 C 1144.03 -2.12579 4.90627 0
M  V30 11886 C 1145.33 0.0372782 5.22287 0
M  V30 11887 H 1147.03 0.29931 2.979 0
M  V30 11888 H 1144.57 0.14539 1.43264 0
M  V30 11889 H 1146.53 -2.03088 3.69233 0
M  V30 11890 H 1145.25 -2.15321 2.45569 0
M  V30 11891 H 1143.91 -0.383722 3.64586 0
M  V30 11892 H 1143.56 -2.8021 4.17722 0
M  V30 11893 H 1143.26 -1.77496 5.60151 0
M  V30 11894 H 1144.78 -2.69905 5.47708 0
M  V30 11895 H 1146.2 -0.44022 5.71607 0
M  V30 11896 H 1144.59 0.300748 5.99346 0
M  V30 11897 H 1145.66 0.973503 4.75027 0
M  V30 11898 N 1147.01 -1.56678 0.170181 0
M  V30 11899 C 1147.97 -2.16698 -0.746622 0
M  V30 11900 C 1148.97 -1.11475 -1.15888 0
M  V30 11901 O 1150.16 -1.36994 -1.07602 0
M  V30 11902 C 1147.29 -2.74892 -2.01612 0
M  V30 11903 H 1148.48 -2.99061 -0.224135 0
M  V30 11904 H 1146.04 -1.56098 -0.0793761 0
M  V30 11905 H 1146.77 -1.96259 -2.58172 0
M  V30 11906 H 1146.56 -3.51896 -1.72949 0
M  V30 11907 H 1148.05 -3.21058 -2.67042 0
M  V30 11908 N 1148.48 0.103547 -1.57259 0
M  V30 11909 C 1149.89 0.659006 -1.74683 0
M  V30 11910 C 1150.25 1.79542 -0.791142 0
M  V30 11911 O 1149.37 2.16376 0.0323585 0
M  V30 11912 C 1149.97 1.20222 -3.16752 0
M  V30 11913 C 1148.52 1.70382 -3.35629 0
M  V30 11914 C 1147.67 0.609886 -2.7051 0
M  V30 11915 H 1150.62 -0.122474 -1.58227 0
M  V30 11916 H 1150.64 2.07169 -3.19157 0
M  V30 11917 H 1150.16 0.374901 -3.86285 0
M  V30 11918 H 1148.26 2.55542 -2.71162 0
M  V30 11919 H 1148.37 1.80263 -4.43894 0
M  V30 11920 H 1146.73 1.04728 -2.32173 0
M  V30 11921 H 1147.52 -0.206713 -3.42677 0
M  V30 11922 N 1149.96 1.53094 0.37415 0
M  V30 11923 C 1151.21 1.68861 1.11769 0
M  V30 11924 C 1151.54 0.436032 1.89549 0
M  V30 11925 O 1150.79 -0.581879 1.86849 0
M  V30 11926 C 1151.09 2.88432 2.11049 0
M  V30 11927 C 1150.76 4.25284 1.49814 0
M  V30 11928 C 1149.42 4.62501 1.32841 0
M  V30 11929 C 1151.77 5.10425 1.05433 0
M  V30 11930 C 1149.1 5.82502 0.700567 0
M  V30 11931 C 1151.45 6.31064 0.440525 0
M  V30 11932 C 1150.11 6.67 0.258216 0
M  V30 11933 H 1149.38 0.617906 0.40899 0
M  V30 11934 H 1152.03 1.87265 0.4005 0
M  V30 11935 H 1150.34 2.64505 2.8904 0
M  V30 11936 H 1152.03 2.97825 2.68517 0
M  V30 11937 H 1148.62 3.95976 1.64016 0
M  V30 11938 H 1152.81 4.82229 1.17342 0
M  V30 11939 H 1148.06 6.08942 0.547652 0
M  V30 11940 H 1152.24 6.96344 0.0883962 0
M  V30 11941 H 1149.86 7.59851 -0.230354 0
M  V30 11942 N 1151.44 -0.633461 1.44309 0
M  V30 11943 C 1152.37 -1.75676 1.53819 0
M  V30 11944 C 1153.35 -1.65537 0.391365 0
M  V30 11945 O 1154.54 -1.84332 0.611181 0
M  V30 11946 C 1151.67 -3.14197 1.47979 0
M  V30 11947 C 1150.62 -3.39122 2.61113 0
M  V30 11948 C 1149.95 -4.77648 2.40325 0
M  V30 11949 C 1151.25 -3.31914 4.03274 0
M  V30 11950 H 1152.94 -1.67974 2.47841 0
M  V30 11951 H 1150.49 -0.8067 1.19283 0
M  V30 11952 H 1152.44 -3.92553 1.53233 0
M  V30 11953 H 1151.16 -3.22677 0.504718 0
M  V30 11954 H 1149.82 -2.63145 2.55245 0
M  V30 11955 H 1149.47 -4.82829 1.41016 0
M  V30 11956 H 1149.17 -4.95284 3.16177 0
M  V30 11957 H 1150.69 -5.58237 2.47394 0
M  V30 11958 H 1152.11 -4.00178 4.10524 0
M  V30 11959 H 1150.5 -3.61085 4.7931 0
M  V30 11960 H 1151.57 -2.29761 4.2701 0
M  V30 11961 N 1152.92 -1.31168 -0.873655 0
M  V30 11962 C 1154.33 -1.18584 -1.44203 0
M  V30 11963 C 1154.68 0.209114 -1.95082 0
M  V30 11964 O 1153.81 1.10662 -1.85965 0
M  V30 11965 C 1154.4 -2.14668 -2.62112 0
M  V30 11966 C 1152.96 -2.06029 -3.15006 0
M  V30 11967 C 1152.11 -2.04106 -1.87712 0
M  V30 11968 H 1155.06 -1.43273 -0.682536 0
M  V30 11969 H 1155.08 -1.73413 -3.38686 0
M  V30 11970 H 1154.59 -3.16186 -2.25051 0
M  V30 11971 H 1152.69 -1.07693 -3.56697 0
M  V30 11972 H 1152.8 -2.9496 -3.77539 0
M  V30 11973 H 1151.17 -1.49069 -2.0652 0
M  V30 11974 H 1151.95 -3.07373 -1.52894 0
M  V30 11975 N 1154.4 1.08748 -1.14068 0
M  V30 11976 C 1155.34 2.17667 -0.819981 0
M  V30 11977 C 1156.34 1.68207 0.200654 0
M  V30 11978 O 1157.54 1.79909 0.0571014 0
M  V30 11979 H 1153.92 0.710129 -0.247427 0
M  V30 11980 H 1155.89 2.41944 -1.74659 0
M  V30 11981 C 1154.64 3.46315 -0.309985 0
M  V30 11982 H 1153.96 3.84748 -1.08669 0
M  V30 11983 H 1155.4 4.23818 -0.124094 0
M  V30 11984 C 1153.86 3.22762 0.965724 0
M  V30 11985 O 1154.39 3.46034 2.04018 0
M  V30 11986 N 1152.6 2.76326 0.899576 0
M  V30 11987 H 1152.14 2.57588 0.0250598 0
M  V30 11988 H 1152.1 2.60945 1.75371 0
M  V30 11989 N 1155.87 0.935264 1.26849 0
M  V30 11990 C 1156.82 0.411166 2.24262 0
M  V30 11991 C 1157.81 -0.488804 1.53296 0
M  V30 11992 O 1159 -0.325015 1.7399 0
M  V30 11993 C 1156.13 -0.327941 3.4173 0
M  V30 11994 C 1155.22 0.58898 4.1999 0
M  V30 11995 N 1155.61 1.71216 4.7594 0
M  V30 11996 C 1153.9 0.393431 4.44261 0
M  V30 11997 C 1154.61 2.28306 5.35024 0
M  V30 11998 N 1153.58 1.57176 5.20381 0
M  V30 11999 H 1157.38 1.26864 2.65109 0
M  V30 12000 H 1154.9 0.790429 1.41866 0
M  V30 12001 H 1156.89 -0.720404 4.10629 0
M  V30 12002 H 1155.55 -1.18225 3.02412 0
M  V30 12003 H 1156.57 2.09441 4.73661 0
M  V30 12004 H 1153.24 -0.419596 4.15386 0
M  V30 12005 H 1154.63 3.22909 5.89219 0
M  V30 12006 N 1157.35 -1.41121 0.701616 0
M  V30 12007 C 1158.76 -1.84122 0.309208 0
M  V30 12008 C 1159.11 -1.58695 -1.15371 0
M  V30 12009 O 1158.24 -1.06053 -1.88631 0
M  V30 12010 C 1158.83 -3.34233 0.554429 0
M  V30 12011 C 1157.39 -3.7578 0.215876 0
M  V30 12012 C 1156.54 -2.6447 0.833729 0
M  V30 12013 H 1159.49 -1.30587 0.901822 0
M  V30 12014 H 1159.51 -3.8005 -0.18491 0
M  V30 12015 H 1159.02 -3.52707 1.61923 0
M  V30 12016 H 1157.13 -3.62905 -0.844421 0
M  V30 12017 H 1157.24 -4.74319 0.675118 0
M  V30 12018 H 1155.6 -2.5334 0.262851 0
M  V30 12019 H 1156.39 -2.85761 1.90252 0
M  V30 12020 N 1158.83 -0.446794 -1.51134 0
M  V30 12021 C 1160.08 0.116666 -2.02464 0
M  V30 12022 C 1160.41 1.41532 -1.32975 0
M  V30 12023 O 1159.68 1.89278 -0.447651 0
M  V30 12024 C 1159.97 0.325659 -3.58624 0
M  V30 12025 C 1159.82 -0.992307 -4.38718 0
M  V30 12026 C 1161.14 1.09121 -4.26357 0
M  V30 12027 H 1158.26 0.0409262 -0.735863 0
M  V30 12028 H 1160.9 -0.587641 -1.80684 0
M  V30 12029 H 1159.05 0.925585 -3.77313 0
M  V30 12030 H 1160.72 -1.62694 -4.31658 0
M  V30 12031 H 1158.97 -1.5947 -4.03425 0
M  V30 12032 H 1159.64 -0.800005 -5.46172 0
M  V30 12033 H 1162.11 0.582944 -4.11996 0
M  V30 12034 H 1160.99 1.20621 -5.35483 0
M  V30 12035 H 1161.25 2.12171 -3.87861 0
M  V30 12036 N 1160.31 1.56586 -0.178487 0
M  V30 12037 C 1161.56 1.96273 0.464745 0
M  V30 12038 C 1161.87 1.0675 1.63902 0
M  V30 12039 O 1163.08 1.36148 2.34896 0
M  V30 12040 C 1161.53 3.49021 0.878207 0
M  V30 12041 C 1161.14 4.4718 -0.270861 0
M  V30 12042 C 1162.88 3.97512 1.48946 0
M  V30 12043 C 1160.79 5.91176 0.162632 0
M  V30 12044 H 1159.72 0.732834 0.177398 0
M  V30 12045 H 1162.37 1.81534 -0.267861 0
M  V30 12046 H 1160.75 3.59203 1.667 0
M  V30 12047 H 1161.93 4.48718 -1.04826 0
M  V30 12048 H 1160.24 4.08788 -0.792529 0
M  V30 12049 H 1162.84 5.02556 1.82595 0
M  V30 12050 H 1163.18 3.40861 2.38997 0
M  V30 12051 H 1163.72 3.90376 0.76496 0
M  V30 12052 H 1160.46 6.51716 -0.703286 0
M  V30 12053 H 1159.98 5.9293 0.905243 0
M  V30 12054 H 1161.65 6.44174 0.604084 0
M  V30 12055 N 1161.79 -0.095206 1.57312 0
M  V30 12056 C 1163.01 -0.81614 1.90667 0
M  V30 12057 C 1163.44 -1.71494 0.772746 0
M  V30 12058 O 1162.79 -1.79192 -0.275682 0
M  V30 12059 C 1162.84 -1.60555 3.22885 0
M  V30 12060 O 1161.95 -2.71448 3.10467 0
M  V30 12061 H 1161.29 -0.224217 0.624998 0
M  V30 12062 H 1163.82 -0.070464 2.04479 0
M  V30 12063 H 1163.83 -1.98979 3.5619 0
M  V30 12064 H 1162.5 -0.945918 4.05 0
M  V30 12065 H 1161.08 -2.36053 2.88675 0
M  V30 12066 N 1163.26 -1.53291 -0.366026 0
M  V30 12067 C 1164.19 -1.82675 -1.45437 0
M  V30 12068 C 1165.18 -0.680227 -1.55907 0
M  V30 12069 O 1166.36 -0.930032 -1.70482 0
M  V30 12070 C 1163.49 -2.01626 -2.8278 0
M  V30 12071 C 1162.44 -3.17391 -2.87135 0
M  V30 12072 C 1161.77 -3.21634 -4.27148 0
M  V30 12073 C 1163.07 -4.5599 -2.54697 0
M  V30 12074 H 1164.76 -2.73818 -1.21096 0
M  V30 12075 H 1162.31 -1.31754 -0.581108 0
M  V30 12076 H 1164.26 -2.20765 -3.58944 0
M  V30 12077 H 1162.99 -1.07193 -3.08508 0
M  V30 12078 H 1161.65 -2.98071 -2.13422 0
M  V30 12079 H 1161.29 -2.2484 -4.49951 0
M  V30 12080 H 1160.99 -3.99414 -4.30978 0
M  V30 12081 H 1162.52 -3.42957 -5.05186 0
M  V30 12082 H 1163.93 -4.75294 -3.20575 0
M  V30 12083 H 1162.33 -5.36008 -2.69844 0
M  V30 12084 H 1163.4 -4.61133 -1.49949 0
M  V30 12085 N 1164.74 0.6258 -1.44643 0
M  V30 12086 C 1165.69 1.73751 -1.51919 0
M  V30 12087 C 1166.66 1.62007 -0.36647 0
M  V30 12088 O 1167.84 1.81852 -0.577439 0
M  V30 12089 C 1164.98 3.12015 -1.47448 0
M  V30 12090 C 1164.1 3.34696 -2.73135 0
M  V30 12091 C 1163.23 4.62962 -2.6046 0
M  V30 12092 C 1162.27 4.7884 -3.81286 0
M  V30 12093 N 1161.41 5.98388 -3.67255 0
M  V30 12094 H 1166.25 1.66867 -2.46899 0
M  V30 12095 H 1163.79 0.813921 -1.22531 0
M  V30 12096 H 1165.74 3.91983 -1.42846 0
M  V30 12097 H 1164.37 3.179 -0.560312 0
M  V30 12098 H 1163.43 2.4863 -2.87901 0
M  V30 12099 H 1164.74 3.42306 -3.62806 0
M  V30 12100 H 1163.89 5.51099 -2.53722 0
M  V30 12101 H 1162.63 4.57719 -1.68359 0
M  V30 12102 H 1161.64 3.89131 -3.88403 0
M  V30 12103 H 1162.86 4.85893 -4.74431 0
M  V30 12104 H 1160.81 5.94224 -2.77909 0
M  V30 12105 H 1160.72 6.07078 -4.50547 0
M  V30 12106 H 1161.99 6.89072 -3.64417 0
M  V30 12107 N 1166.22 1.31629 0.866686 0
M  V30 12108 C 1167.64 1.10358 1.15296 0
M  V30 12109 C 1167.84 -0.123807 2.01119 0
M  V30 12110 O 1166.89 -0.81219 2.39081 0
M  V30 12111 C 1168.21 2.37684 1.84193 0
M  V30 12112 C 1169.75 2.43326 1.9688 0
M  V30 12113 C 1170.23 3.70541 2.69191 0
M  V30 12114 N 1171.72 3.71454 2.76724 0
M  V30 12115 C 1172.45 4.66585 3.33295 0
M  V30 12116 N 1171.95 5.72075 3.90771 0
M  V30 12117 N 1173.74 4.541 3.31284 0
M  V30 12118 H 1165.89 2.10343 0.29487 0
M  V30 12119 H 1168.16 0.928096 0.193239 0
M  V30 12120 H 1167.86 3.27352 1.28582 0
M  V30 12121 H 1167.74 2.47731 2.84445 0
M  V30 12122 H 1170.12 1.54124 2.51654 0
M  V30 12123 H 1170.21 2.3724 0.956596 0
M  V30 12124 H 1169.85 4.60111 2.15083 0
M  V30 12125 H 1169.78 3.73894 3.70825 0
M  V30 12126 H 1172.27 2.952 2.35936 0
M  V30 12127 H 1172.58 6.40738 4.32058 0
M  V30 12128 H 1170.93 5.75844 3.89138 0
M  V30 12129 H 1174.12 3.70861 2.85622 0
M  V30 12130 H 1174.29 5.28416 3.75074 0
M  V30 12131 N 1167.7 -1.08142 1.14644 0
M  V30 12132 C 1168.65 -2.17229 0.831513 0
M  V30 12133 C 1169.64 -1.68311 -0.19173 0
M  V30 12134 O 1170.85 -1.79937 -0.0475596 0
M  V30 12135 H 1167.22 -0.708807 0.25119 0
M  V30 12136 H 1169.19 -2.41014 1.75939 0
M  V30 12137 C 1167.94 -3.46146 0.328347 0
M  V30 12138 H 1167.27 -3.84166 1.10708 0
M  V30 12139 H 1168.71 -4.23747 0.146568 0
M  V30 12140 C 1167.16 -3.2327 -0.948594 0
M  V30 12141 O 1167.69 -3.47111 -2.0218 0
M  V30 12142 N 1165.9 -2.76799 -0.884909 0
M  V30 12143 H 1165.45 -2.57597 -0.011399 0
M  V30 12144 H 1165.41 -2.61871 -1.73985 0
M  V30 12145 N 1169.18 -0.941978 -1.26351 0
M  V30 12146 C 1170.09 -0.45833 -2.30079 0
M  V30 12147 C 1171.1 0.468084 -1.67586 0
M  V30 12148 O 1172.28 0.347418 -1.98381 0
M  V30 12149 C 1169.34 0.26797 -3.45663 0
M  V30 12150 C 1168.41 -0.695102 -4.23635 0
M  V30 12151 C 1167.64 -0.003369 -5.337 0
M  V30 12152 O 1167.86 1.21342 -5.57344 0
M  V30 12153 O 1166.8 -0.682476 -5.98018 0
M  V30 12154 H 1170.62 -1.31998 -2.73514 0
M  V30 12155 H 1168.21 -0.707897 -1.31564 0
M  V30 12156 H 1170.09 0.677061 -4.15925 0
M  V30 12157 H 1168.76 1.105 -3.04256 0
M  V30 12158 H 1167.67 -1.15415 -3.55851 0
M  V30 12159 H 1169 -1.49977 -4.68794 0
M  V30 12160 N 1170.66 1.40747 -0.709091 0
M  V30 12161 C 1171.93 1.94831 -0.173246 0
M  V30 12162 C 1172.31 1.64766 1.31967 0
M  V30 12163 O 1171.66 0.961853 2.07269 0
M  V30 12164 C 1171.87 3.45697 -0.479013 0
M  V30 12165 C 1173.22 4.22576 -0.414122 0
M  V30 12166 O 1174.24 3.53778 -0.414699 0
M  V30 12167 O 1173.1 5.45135 -0.385986 0
M  V30 12168 H 1170.2 0.826683 -0.0228947 0
M  V30 12169 H 1172.74 1.50391 -0.786178 0
M  V30 12170 H 1171.51 3.60914 -1.51185 0
M  V30 12171 H 1171.14 3.97261 0.164211 0
M  V30 12172 N 1172.13 0.454803 1.50895 0
M  V30 12173 C 1173.1 -0.336293 2.26719 0
M  V30 12174 C 1174.1 -0.93464 1.30848 0
M  V30 12175 O 1175.29 -0.80636 1.54413 0
M  V30 12176 C 1172.42 -1.47744 3.07221 0
M  V30 12177 H 1173.61 0.328462 2.98096 0
M  V30 12178 H 1171.16 0.208419 1.54904 0
M  V30 12179 H 1171.9 -2.17773 2.40302 0
M  V30 12180 H 1171.68 -1.05438 3.77658 0
M  V30 12181 H 1173.17 -2.03592 3.6461 0
M  V30 12182 N 1173.61 -1.56489 0.186789 0
M  V30 12183 C 1174.85 -1.99239 -0.456427 0
M  V30 12184 C 1175.22 -1.07076 -1.5937 0
M  V30 12185 O 1176.42 -1.39028 -2.30054 0
M  V30 12186 C 1174.69 -3.45553 -0.912587 0
M  V30 12187 S 1176.25 -4.1033 -1.55481 0
M  V30 12188 H 1173.06 -0.695792 -0.146267 0
M  V30 12189 H 1175.67 -1.93369 0.287899 0
M  V30 12190 H 1174.37 -4.10332 -0.0746877 0
M  V30 12191 H 1173.9 -3.55222 -1.69058 0
M  V30 12192 H 1175.92 -4.06653 -2.84338 0
M  V30 12193 N 1175.09 0.086862 -1.5736 0
M  V30 12194 C 1176.5 0.640442 -1.75372 0
M  V30 12195 C 1176.85 1.78693 -0.81014 0
M  V30 12196 O 1175.98 2.16398 0.00940712 0
M  V30 12197 C 1176.57 1.16856 -3.1801 0
M  V30 12198 C 1175.13 1.66813 -3.37417 0
M  V30 12199 C 1174.28 0.58116 -2.71142 0
M  V30 12200 H 1177.23 -0.139249 -1.58088 0
M  V30 12201 H 1177.25 2.03772 -3.21337 0
M  V30 12202 H 1176.76 0.333909 -3.86661 0
M  V30 12203 H 1174.86 2.52652 -2.73858 0
M  V30 12204 H 1174.98 1.75545 -4.45781 0
M  V30 12205 H 1173.34 1.0226 -2.3327 0
M  V30 12206 H 1174.12 -0.243047 -3.42439 0
M  V30 12207 N 1176.57 1.53483 0.357892 0
M  V30 12208 C 1177.81 1.70289 1.10134 0
M  V30 12209 C 1178.15 0.457296 1.88739 0
M  V30 12210 O 1177.42 -0.545527 1.86693 0
M  V30 12211 C 1177.7 2.95755 2.05429 0
M  V30 12212 C 1177.56 4.30489 1.30382 0
M  V30 12213 C 1178.88 3.16844 3.05447 0
M  V30 12214 H 1176 0.61965 0.399003 0
M  V30 12215 H 1178.64 1.86133 0.381357 0
M  V30 12216 H 1176.79 2.82377 2.66825 0
M  V30 12217 H 1178.46 4.55692 0.71711 0
M  V30 12218 H 1176.7 4.2955 0.605712 0
M  V30 12219 H 1177.37 5.14427 2.00171 0
M  V30 12220 H 1179.85 3.29458 2.54159 0
M  V30 12221 H 1178.73 4.06053 3.69341 0
M  V30 12222 H 1178.99 2.32476 3.76041 0
M  V30 12223 N 1178.05 -0.61812 1.44973 0
M  V30 12224 C 1179.29 -1.37468 1.48145 0
M  V30 12225 C 1179.61 -1.94628 0.120366 0
M  V30 12226 O 1178.88 -1.76548 -0.848982 0
M  V30 12227 H 1177.46 -0.510293 0.545536 0
M  V30 12228 H 1180.13 -0.726598 1.8085 0
M  V30 12229 H 1179.22 -2.19944 2.2143 0
M  V30 12230 N 1179.52 -1.32087 -0.859693 0
M  V30 12231 C 1180.75 -1.25348 -1.64607 0
M  V30 12232 C 1181.17 0.179425 -1.87945 0
M  V30 12233 O 1180.52 1.11487 -1.44489 0
M  V30 12234 C 1180.57 -2.0047 -3.00822 0
M  V30 12235 O 1180.3 -3.38169 -2.7852 0
M  V30 12236 C 1181.8 -2.00694 -3.95268 0
M  V30 12237 H 1179.02 -0.432692 -0.512854 0
M  V30 12238 H 1181.56 -1.7413 -1.07234 0
M  V30 12239 H 1179.72 -1.55423 -3.54855 0
M  V30 12240 H 1180.13 -3.76553 -3.65113 0
M  V30 12241 H 1181.6 -2.57748 -4.88129 0
M  V30 12242 H 1182.08 -0.99196 -4.27851 0
M  V30 12243 H 1182.69 -2.45666 -3.47172 0
M  V30 12244 N 1181 1.07532 -1.15215 0
M  V30 12245 C 1182.25 1.8036 -0.927263 0
M  V30 12246 C 1182.58 1.86414 0.544371 0
M  V30 12247 O 1181.86 1.34653 1.40353 0
M  V30 12248 C 1182.14 3.25512 -1.53992 0
M  V30 12249 C 1181.99 3.27614 -3.08203 0
M  V30 12250 C 1183.31 4.22731 -1.22418 0
M  V30 12251 H 1180.43 0.654775 -0.338289 0
M  V30 12252 H 1183.07 1.25842 -1.42351 0
M  V30 12253 H 1181.22 3.72068 -1.11791 0
M  V30 12254 H 1182.89 2.89315 -3.59297 0
M  V30 12255 H 1181.14 2.66627 -3.42188 0
M  V30 12256 H 1181.81 4.29956 -3.46182 0
M  V30 12257 H 1184.28 3.84557 -1.58919 0
M  V30 12258 H 1183.16 5.22589 -1.67906 0
M  V30 12259 H 1183.42 4.41875 -0.14091 0
M  V30 12260 N 1182.48 0.948665 1.2585 0
M  V30 12261 C 1183.71 0.616741 1.98018 0
M  V30 12262 C 1184.13 -0.803005 1.70098 0
M  V30 12263 O 1183.49 -1.54208 0.953392 0
M  V30 12264 C 1183.54 0.874429 3.49837 0
M  V30 12265 O 1182.64 -0.0497568 4.1237 0
M  V30 12266 H 1181.98 0.235112 0.620982 0
M  V30 12267 H 1184.51 1.27364 1.60124 0
M  V30 12268 H 1184.52 0.798309 4.00114 0
M  V30 12269 H 1183.2 1.90922 3.69488 0
M  V30 12270 H 1181.77 0.0780591 3.72818 0
M  V30 12271 N 1183.96 -1.40369 0.716545 0
M  V30 12272 C 1184.92 -2.29083 0.0733105 0
M  V30 12273 C 1185.92 -1.45415 -0.686378 0
M  V30 12274 O 1187.11 -1.66316 -0.518139 0
M  V30 12275 C 1184.24 -3.28639 -0.906032 0
M  V30 12276 H 1185.44 -2.87464 0.85467 0
M  V30 12277 H 1182.99 -1.48706 0.481256 0
M  V30 12278 H 1183.72 -2.75279 -1.71441 0
M  V30 12279 H 1183.51 -3.90405 -0.364163 0
M  V30 12280 H 1185 -3.95066 -1.35324 0
M  V30 12281 N 1185.44 -0.462799 -1.50652 0
M  V30 12282 C 1186.4 0.324264 -2.26895 0
M  V30 12283 C 1187.4 0.927687 -1.31342 0
M  V30 12284 O 1188.59 0.798159 -1.54839 0
M  V30 12285 C 1185.72 1.46113 -3.08 0
M  V30 12286 H 1186.91 -0.344266 -2.97917 0
M  V30 12287 H 1184.47 -0.216631 -1.54791 0
M  V30 12288 H 1185.2 2.16496 -2.41454 0
M  V30 12289 H 1184.99 1.03433 -3.78212 0
M  V30 12290 H 1186.48 2.01655 -3.65684 0
M  V30 12291 N 1186.91 1.56388 -0.195085 0
M  V30 12292 C 1188.33 1.8398 0.317513 0
M  V30 12293 C 1188.68 1.11575 1.61386 0
M  V30 12294 O 1187.8 0.376557 2.13099 0
M  V30 12295 C 1188.4 3.33749 0.582859 0
M  V30 12296 C 1186.96 3.61752 1.03983 0
M  V30 12297 C 1186.1 2.77159 0.088434 0
M  V30 12298 H 1189.05 1.53072 -0.418871 0
M  V30 12299 H 1189.07 3.52519 1.43216 0
M  V30 12300 H 1188.59 3.86419 -0.360813 0
M  V30 12301 H 1186.69 3.14515 1.99778 0
M  V30 12302 H 1186.8 4.69937 0.932549 0
M  V30 12303 H 1185.16 2.47765 0.590317 0
M  V30 12304 H 1185.95 3.32619 -0.849682 0
M  V30 12305 N 1188.39 -0.0785156 1.57404 0
M  V30 12306 C 1189.64 -0.774884 1.88061 0
M  V30 12307 C 1189.99 -1.75525 0.787966 0
M  V30 12308 O 1189.29 -1.90462 -0.208514 0
M  V30 12309 C 1189.48 -1.52826 3.23078 0
M  V30 12310 C 1189.31 -0.62236 4.45373 0
M  V30 12311 C 1188.08 -0.261831 5.04621 0
M  V30 12312 C 1190.28 0.077964 5.14241 0
M  V30 12313 N 1188.26 0.650492 6.10444 0
M  V30 12314 C 1189.63 0.847727 6.14177 0
M  V30 12315 C 1191.69 0.150143 4.97674 0
M  V30 12316 C 1190.39 1.68295 6.99335 0
M  V30 12317 C 1192.41 0.972321 5.83352 0
M  V30 12318 C 1191.78 1.73015 6.82821 0
M  V30 12319 H 1187.88 -0.259194 0.737796 0
M  V30 12320 H 1190.46 -0.0366796 1.94665 0
M  V30 12321 H 1188.63 -2.23723 3.17494 0
M  V30 12322 H 1190.36 -2.17311 3.41406 0
M  V30 12323 H 1187.12 -0.613197 4.69614 0
M  V30 12324 H 1187.54 1.0997 6.68009 0
M  V30 12325 H 1192.18 -0.421423 4.20695 0
M  V30 12326 H 1189.9 2.26552 7.75693 0
M  V30 12327 H 1193.49 1.03106 5.72591 0
M  V30 12328 H 1192.37 2.35609 7.47969 0
M  V30 12329 N 1189.87 -1.5367 -0.349747 0
M  V30 12330 C 1191.12 -1.70281 -1.08853 0
M  V30 12331 C 1191.44 -0.465438 -1.89364 0
M  V30 12332 O 1190.71 0.520615 -1.88856 0
M  V30 12333 H 1189.29 -0.627775 -0.404854 0
M  V30 12334 H 1191.95 -1.90906 -0.392523 0
M  V30 12335 H 1191.05 -2.57096 -1.76941 0
M  V30 12336 N 1191.35 0.610423 -1.45298 0
M  V30 12337 C 1192.57 1.40112 -1.52917 0
M  V30 12338 C 1193 1.87404 -0.161696 0
M  V30 12339 O 1192.36 1.59973 0.853135 0
M  V30 12340 C 1192.4 2.58359 -2.51561 0
M  V30 12341 O 1191.51 3.58895 -2.03146 0
M  V30 12342 H 1190.85 0.41841 -0.515586 0
M  V30 12343 H 1193.38 0.743159 -1.90626 0
M  V30 12344 H 1193.39 3.0564 -2.70275 0
M  V30 12345 H 1192.06 2.23286 -3.50879 0
M  V30 12346 H 1190.64 3.18282 -1.94296 0
M  V30 12347 N 1192.83 1.32541 0.852676 0
M  V30 12348 C 1194.05 1.2636 1.64462 0
M  V30 12349 C 1194.48 -0.16508 1.87374 0
M  V30 12350 O 1193.83 -1.11712 1.42794 0
M  V30 12351 C 1193.88 2.03052 2.97997 0
M  V30 12352 O 1192.99 1.37967 3.88637 0
M  V30 12353 H 1192.33 0.435393 0.501327 0
M  V30 12354 H 1194.86 1.74888 1.06186 0
M  V30 12355 H 1194.87 2.133 3.47803 0
M  V30 12356 H 1193.54 3.06941 2.80642 0
M  V30 12357 H 1192.12 1.36279 3.47106 0
M  V30 12358 N 1194.3 -1.0692 1.15784 0
M  V30 12359 C 1195.53 -1.83849 0.959903 0
M  V30 12360 C 1195.95 -1.8169 -0.486873 0
M  V30 12361 O 1195.31 -1.21305 -1.34739 0
M  V30 12362 C 1195.36 -3.28642 1.48414 0
M  V30 12363 O 1194.46 -4.0665 0.686249 0
M  V30 12364 H 1193.81 -0.569115 0.342059 0
M  V30 12365 H 1196.34 -1.34851 1.53871 0
M  V30 12366 H 1196.35 -3.7947 1.49888 0
M  V30 12367 H 1195.02 -3.29529 2.53739 0
M  V30 12368 H 1193.6 -3.65453 0.741501 0
M  V30 12369 N 1195.78 -0.955326 -1.25345 0
M  V30 12370 C 1197.03 -0.606149 -1.92377 0
M  V30 12371 C 1197.34 0.860927 -1.75634 0
M  V30 12372 O 1198.55 1.3201 -2.37246 0
M  V30 12373 C 1197.01 -1.03341 -3.44744 0
M  V30 12374 C 1196.61 -2.52308 -3.70196 0
M  V30 12375 C 1198.36 -0.756797 -4.17699 0
M  V30 12376 C 1196.27 -2.88831 -5.16072 0
M  V30 12377 H 1195.2 -0.222994 -0.720271 0
M  V30 12378 H 1197.85 -1.15987 -1.42194 0
M  V30 12379 H 1196.23 -0.408096 -3.93892 0
M  V30 12380 H 1197.4 -3.19864 -3.31698 0
M  V30 12381 H 1195.72 -2.77448 -3.10502 0
M  V30 12382 H 1198.31 -1.00583 -5.25154 0
M  V30 12383 H 1198.66 0.306794 -4.15168 0
M  V30 12384 H 1199.19 -1.34249 -3.74462 0
M  V30 12385 H 1195.93 -3.9421 -5.23716 0
M  V30 12386 H 1195.45 -2.25948 -5.55614 0
M  V30 12387 H 1197.13 -2.78061 -5.84201 0
M  V30 12388 N 1197.26 1.39987 -0.723979 0
M  V30 12389 C 1198.19 2.3332 -0.0917282 0
M  V30 12390 C 1199.17 1.53335 0.736361 0
M  V30 12391 O 1200.36 1.81771 0.683582 0
M  V30 12392 C 1197.49 3.3737 0.824549 0
M  V30 12393 C 1196.44 4.2788 0.101452 0
M  V30 12394 C 1195.77 5.22536 1.13401 0
M  V30 12395 C 1197.07 5.11649 -1.04939 0
M  V30 12396 H 1198.76 2.86441 -0.871318 0
M  V30 12397 H 1196.31 1.37725 -0.420448 0
M  V30 12398 H 1198.26 4.01607 1.27631 0
M  V30 12399 H 1196.98 2.82663 1.63613 0
M  V30 12400 H 1195.64 3.65107 -0.330569 0
M  V30 12401 H 1195.29 4.64131 1.93886 0
M  V30 12402 H 1194.99 5.83938 0.65502 0
M  V30 12403 H 1196.52 5.89651 1.58569 0
M  V30 12404 H 1197.93 5.69293 -0.6766 0
M  V30 12405 H 1196.33 5.82137 -1.45729 0
M  V30 12406 H 1197.4 4.47132 -1.8762 0
M  V30 12407 N 1198.74 0.470782 1.50404 0
M  V30 12408 C 1200.15 0.0155901 1.86693 0
M  V30 12409 C 1200.5 -1.38908 1.38561 0
M  V30 12410 O 1199.63 -2.02971 0.750454 0
M  V30 12411 C 1200.22 0.0215152 3.38793 0
M  V30 12412 C 1198.78 -0.378206 3.74495 0
M  V30 12413 C 1197.93 0.407126 2.74295 0
M  V30 12414 H 1200.88 0.68507 1.43152 0
M  V30 12415 H 1200.9 -0.780717 3.72404 0
M  V30 12416 H 1200.41 1.04397 3.73795 0
M  V30 12417 H 1198.51 -1.40503 3.45094 0
M  V30 12418 H 1198.63 -0.0797643 4.79034 0
M  V30 12419 H 1196.99 -0.139123 2.5432 0
M  V30 12420 H 1197.77 1.42909 3.12141 0
M  V30 12421 N 1200.22 -1.56282 0.203376 0
M  V30 12422 C 1201.47 -1.96987 -0.433461 0
M  V30 12423 C 1201.78 -1.09344 -1.62183 0
M  V30 12424 O 1202.99 -1.39868 -2.327 0
M  V30 12425 C 1201.44 -3.50374 -0.82257 0
M  V30 12426 C 1201.05 -4.46693 0.341969 0
M  V30 12427 C 1202.79 -3.99831 -1.42603 0
M  V30 12428 C 1200.7 -5.9136 -0.0685608 0
M  V30 12429 H 1199.63 -0.735564 -0.165717 0
M  V30 12430 H 1202.28 -1.81085 0.296708 0
M  V30 12431 H 1200.66 -3.6181 -1.60964 0
M  V30 12432 H 1201.84 -4.46994 1.11952 0
M  V30 12433 H 1200.15 -4.07476 0.857463 0
M  V30 12434 H 1202.75 -5.05398 -1.74577 0
M  V30 12435 H 1203.09 -3.4462 -2.33544 0
M  V30 12436 H 1203.63 -3.91543 -0.702758 0
M  V30 12437 H 1200.36 -6.50515 0.80688 0
M  V30 12438 H 1199.88 -5.94295 -0.810798 0
M  V30 12439 H 1201.56 -6.45053 -0.501525 0
M  V30 12440 N 1201.7 0.070167 -1.57444 0
M  V30 12441 C 1202.92 0.785703 -1.91941 0
M  V30 12442 C 1203.35 1.70243 -0.799932 0
M  V30 12443 O 1202.7 1.79608 0.247139 0
M  V30 12444 C 1202.75 1.55398 -3.25398 0
M  V30 12445 O 1201.86 2.66475 -3.14746 0
M  V30 12446 H 1201.2 0.214245 -0.628486 0
M  V30 12447 H 1203.73 0.0379243 -2.04565 0
M  V30 12448 H 1203.74 1.93287 -3.5931 0
M  V30 12449 H 1202.41 0.881366 -4.06454 0
M  V30 12450 H 1200.99 2.3143 -2.92394 0
M  V30 12451 N 1203.17 1.53854 0.341593 0
M  V30 12452 C 1204.42 1.72388 1.07954 0
M  V30 12453 C 1204.77 0.482184 1.8626 0
M  V30 12454 O 1204.07 -0.525232 1.8426 0
M  V30 12455 C 1204.26 2.92844 2.04884 0
M  V30 12456 C 1204.09 4.28609 1.36105 0
M  V30 12457 C 1202.86 4.93068 1.10508 0
M  V30 12458 C 1205.06 5.08254 0.786255 0
M  V30 12459 N 1203.04 6.12702 0.383319 0
M  V30 12460 C 1204.41 6.19693 0.195147 0
M  V30 12461 C 1206.47 4.93134 0.687293 0
M  V30 12462 C 1205.17 7.17661 -0.485298 0
M  V30 12463 C 1207.2 5.91396 0.0205841 0
M  V30 12464 C 1206.56 7.02174 -0.559545 0
M  V30 12465 H 1202.66 0.683826 0.37935 0
M  V30 12466 H 1205.24 1.91288 0.36289 0
M  V30 12467 H 1203.41 2.7544 2.73838 0
M  V30 12468 H 1205.14 3.00088 2.71531 0
M  V30 12469 H 1201.9 4.52659 1.39271 0
M  V30 12470 H 1202.32 6.7699 0.0371033 0
M  V30 12471 H 1206.96 4.07653 1.12155 0
M  V30 12472 H 1204.68 8.02714 -0.931438 0
M  V30 12473 H 1208.27 5.81774 -0.0553832 0
M  V30 12474 H 1207.15 7.76904 -1.06726 0
M  V30 12475 N 1204.65 -0.602709 1.4562 0
M  V30 12476 C 1205.61 -1.69508 1.54271 0
M  V30 12477 C 1206.61 -1.55171 0.421727 0
M  V30 12478 O 1207.8 -1.60151 0.685375 0
M  V30 12479 C 1204.94 -3.0881 1.44392 0
M  V30 12480 H 1206.13 -1.63203 2.51605 0
M  V30 12481 H 1203.68 -0.818857 1.33133 0
M  V30 12482 H 1204.42 -3.20689 0.482614 0
M  V30 12483 H 1204.2 -3.20625 2.25704 0
M  V30 12484 H 1205.69 -3.8837 1.53488 0
M  V30 12485 N 1206.13 -1.32992 -0.845635 0
M  V30 12486 C 1207.36 -1.26903 -1.63031 0
M  V30 12487 C 1207.77 0.163589 -1.88491 0
M  V30 12488 O 1207.11 1.11402 -1.46066 0
M  V30 12489 C 1207.17 -1.96843 -3.00821 0
M  V30 12490 C 1206.84 -3.46164 -2.98362 0
M  V30 12491 C 1207.83 -4.41488 -2.74562 0
M  V30 12492 C 1205.52 -3.88237 -3.18712 0
M  V30 12493 C 1207.51 -5.7686 -2.71129 0
M  V30 12494 C 1205.2 -5.23715 -3.14905 0
M  V30 12495 C 1206.2 -6.17838 -2.91144 0
M  V30 12496 O 1205.89 -7.50836 -2.87228 0
M  V30 12497 H 1205.62 -0.438806 -0.514223 0
M  V30 12498 H 1208.17 -1.75817 -1.06196 0
M  V30 12499 H 1206.4 -1.42511 -3.59482 0
M  V30 12500 H 1208.09 -1.84343 -3.61625 0
M  V30 12501 H 1208.86 -4.10308 -2.58598 0
M  V30 12502 H 1204.74 -3.1539 -3.36229 0
M  V30 12503 H 1208.28 -6.50299 -2.52502 0
M  V30 12504 H 1204.18 -5.54523 -3.30416 0
M  V30 12505 H 1204.94 -7.60304 -3.03118 0
M  V30 12506 N 1207.61 1.06304 -1.1635 0
M  V30 12507 C 1208.86 1.78487 -0.939423 0
M  V30 12508 C 1209.17 1.8817 0.533998 0
M  V30 12509 O 1210.38 2.56981 0.875962 0
M  V30 12510 C 1208.83 3.20796 -1.63149 0
M  V30 12511 C 1208.44 3.19281 -3.14267 0
M  V30 12512 C 1210.18 3.97514 -1.48938 0
M  V30 12513 C 1208.09 4.56309 -3.76213 0
M  V30 12514 H 1207.02 0.668973 -0.347837 0
M  V30 12515 H 1209.67 1.19237 -1.3948 0
M  V30 12516 H 1208.05 3.80305 -1.10382 0
M  V30 12517 H 1209.23 2.69356 -3.73877 0
M  V30 12518 H 1207.54 2.56062 -3.28362 0
M  V30 12519 H 1210.14 4.98808 -1.926 0
M  V30 12520 H 1210.48 4.13986 -0.438319 0
M  V30 12521 H 1211.02 3.44528 -1.98861 0
M  V30 12522 H 1207.75 4.45042 -4.81267 0
M  V30 12523 H 1207.27 5.06429 -3.21388 0
M  V30 12524 H 1208.95 5.25266 -3.77762 0
M  V30 12525 N 1209.09 0.96196 1.24836 0
M  V30 12526 C 1210.03 0.48686 2.25607 0
M  V30 12527 C 1211 -0.464546 1.59472 0
M  V30 12528 O 1212.19 -0.376179 1.87055 0
M  V30 12529 C 1209.33 -0.222294 3.44383 0
M  V30 12530 C 1208.44 0.767206 4.25133 0
M  V30 12531 C 1207.58 0.0347458 5.31189 0
M  V30 12532 C 1206.61 1.01469 6.03631 0
M  V30 12533 N 1205.75 0.312619 7.01404 0
M  V30 12534 H 1210.59 1.35104 2.65614 0
M  V30 12535 H 1208.13 0.677373 1.30576 0
M  V30 12536 H 1210.09 -0.650087 4.12104 0
M  V30 12537 H 1208.72 -1.05047 3.0523 0
M  V30 12538 H 1207.77 1.31346 3.57005 0
M  V30 12539 H 1209.08 1.5147 4.75245 0
M  V30 12540 H 1208.23 -0.451325 6.05019 0
M  V30 12541 H 1206.97 -0.745485 4.81969 0
M  V30 12542 H 1205.98 1.51169 5.28609 0
M  V30 12543 H 1207.2 1.79527 6.5494 0
M  V30 12544 H 1205.15 -0.44874 6.54463 0
M  V30 12545 H 1205.07 0.999079 7.49369 0
M  V30 12546 H 1206.33 -0.151673 7.79352 0
M  V30 12547 N 1210.56 -1.39601 0.731392 0
M  V30 12548 C 1211.5 -2.28169 0.0378735 0
M  V30 12549 C 1212.47 -1.44195 -0.751434 0
M  V30 12550 O 1213.66 -1.7359 -0.734753 0
M  V30 12551 C 1210.79 -3.24999 -0.953589 0
M  V30 12552 C 1209.83 -4.25748 -0.253203 0
M  V30 12553 S 1210.66 -5.25496 1.03025 0
M  V30 12554 C 1211.82 -6.25886 0.0412927 0
M  V30 12555 H 1212.05 -2.8664 0.788973 0
M  V30 12556 H 1209.59 -1.45271 0.523044 0
M  V30 12557 H 1211.54 -3.81308 -1.52035 0
M  V30 12558 H 1210.21 -2.65554 -1.6775 0
M  V30 12559 H 1209.4 -4.93913 -1.00328 0
M  V30 12560 H 1209 -3.7322 0.241426 0
M  V30 12561 H 1211.29 -6.72757 -0.800305 0
M  V30 12562 H 1212.24 -7.0473 0.68999 0
M  V30 12563 H 1212.64 -5.63538 -0.329495 0
M  V30 12564 N 1212.04 -0.478751 -1.50152 0
M  V30 12565 C 1212.98 0.357584 -2.25381 0
M  V30 12566 C 1213.95 0.98965 -1.29014 0
M  V30 12567 O 1215.14 1.02409 -1.58255 0
M  V30 12568 C 1212.26 1.50167 -3.03591 0
M  V30 12569 C 1211.31 0.986215 -4.14941 0
M  V30 12570 S 1212.14 -0.105239 -5.35397 0
M  V30 12571 C 1213.3 1.04254 -6.17156 0
M  V30 12572 H 1213.53 -0.280985 -2.95969 0
M  V30 12573 H 1211.07 -0.263734 -1.52131 0
M  V30 12574 H 1213.02 2.15733 -3.49241 0
M  V30 12575 H 1211.68 2.11178 -2.32514 0
M  V30 12576 H 1210.88 1.84295 -4.69096 0
M  V30 12577 H 1210.48 0.408141 -3.71766 0
M  V30 12578 H 1212.77 1.95255 -6.48754 0
M  V30 12579 H 1213.71 0.540083 -7.06037 0
M  V30 12580 H 1214.12 1.29983 -5.49331 0
M  V30 12581 N 1213.52 1.56172 -0.211661 0
M  V30 12582 C 1214.77 1.97648 0.421871 0
M  V30 12583 C 1215.09 1.10026 1.60995 0
M  V30 12584 O 1214.36 0.175109 1.95116 0
M  V30 12585 H 1212.94 0.729914 0.158852 0
M  V30 12586 H 1215.6 1.92542 -0.302254 0
M  V30 12587 H 1214.7 3.02834 0.754868 0
M  V30 12588 N 1215 -0.0618163 1.57479 0
M  V30 12589 C 1216.25 -0.757569 1.87364 0
M  V30 12590 C 1216.57 -1.77607 0.805025 0
M  V30 12591 O 1215.84 -1.95202 -0.165216 0
M  V30 12592 H 1214.42 -0.28278 0.691408 0
M  V30 12593 H 1217.08 -0.0355354 1.94868 0
M  V30 12594 H 1216.18 -1.26758 2.85199 0
M  V30 12595 N 1216.48 -1.54033 -0.333429 0
M  V30 12596 C 1217.42 -1.82729 -1.40992 0
M  V30 12597 C 1218.39 -0.673677 -1.51825 0
M  V30 12598 O 1219.58 -0.919126 -1.67203 0
M  V30 12599 C 1216.72 -2.05155 -2.77498 0
M  V30 12600 C 1215.83 -3.32854 -2.75376 0
M  V30 12601 C 1214.97 -3.45294 -4.03665 0
M  V30 12602 C 1214.01 -4.66905 -3.95811 0
M  V30 12603 N 1213.14 -4.76323 -5.1581 0
M  V30 12604 H 1217.98 -2.74572 -1.15821 0
M  V30 12605 H 1215.52 -1.35988 -0.560859 0
M  V30 12606 H 1217.48 -2.16148 -3.56841 0
M  V30 12607 H 1216.11 -1.16615 -3.01 0
M  V30 12608 H 1215.16 -3.30651 -1.88081 0
M  V30 12609 H 1216.47 -4.22299 -2.65453 0
M  V30 12610 H 1215.63 -3.55775 -4.91436 0
M  V30 12611 H 1214.36 -2.53924 -4.16382 0
M  V30 12612 H 1213.37 -4.56491 -3.06425 0
M  V30 12613 H 1214.59 -5.59649 -3.84668 0
M  V30 12614 H 1212.54 -3.87866 -5.29052 0
M  V30 12615 H 1212.46 -5.59719 -5.08184 0
M  V30 12616 H 1213.73 -4.91125 -6.05324 0
M  V30 12617 N 1217.95 0.594978 -1.45938 0
M  V30 12618 C 1219.2 1.35093 -1.50314 0
M  V30 12619 C 1219.52 1.94412 -0.151315 0
M  V30 12620 O 1218.79 1.77876 0.820787 0
M  V30 12621 H 1217.37 0.501549 -0.553586 0
M  V30 12622 H 1220.04 0.697735 -1.81983 0
M  V30 12623 H 1219.13 2.16393 -2.24901 0
M  V30 12624 N 1219.43 1.33438 0.838571 0
M  V30 12625 C 1220.36 1.26344 1.96365 0
M  V30 12626 C 1221.34 0.143956 1.6949 0
M  V30 12627 O 1222.53 0.333779 1.9131 0
M  V30 12628 C 1219.66 1.0022 3.32526 0
M  V30 12629 C 1218.61 2.08466 3.73799 0
M  V30 12630 C 1217.94 1.67555 5.07769 0
M  V30 12631 C 1219.24 3.50144 3.87552 0
M  V30 12632 H 1220.93 2.20478 2.02558 0
M  V30 12633 H 1218.48 1.06139 0.973168 0
M  V30 12634 H 1220.43 0.939068 4.10803 0
M  V30 12635 H 1219.16 0.0252514 3.2659 0
M  V30 12636 H 1217.81 2.13822 2.97785 0
M  V30 12637 H 1217.46 0.685619 4.98305 0
M  V30 12638 H 1217.16 2.39993 5.36356 0
M  V30 12639 H 1218.69 1.62708 5.88522 0
M  V30 12640 H 1220.1 3.47287 4.56141 0
M  V30 12641 H 1218.5 4.21069 4.27575 0
M  V30 12642 H 1219.57 3.88628 2.89994 0
M  V30 12643 N 1220.91 -1.05686 1.16912 0
M  V30 12644 C 1221.86 -2.13312 0.88129 0
M  V30 12645 C 1222.83 -1.65199 -0.172783 0
M  V30 12646 O 1224.01 -1.90765 -0.0366542 0
M  V30 12647 C 1221.15 -3.42829 0.395264 0
M  V30 12648 C 1220.27 -4.04643 1.51288 0
M  V30 12649 C 1219.4 -5.22059 0.981238 0
M  V30 12650 C 1218.44 -5.75869 2.07464 0
M  V30 12651 N 1217.58 -6.84592 1.55813 0
M  V30 12652 H 1222.42 -2.37271 1.80295 0
M  V30 12653 H 1219.95 -1.16407 0.899322 0
M  V30 12654 H 1221.91 -4.17092 0.0950633 0
M  V30 12655 H 1220.54 -3.19068 -0.489445 0
M  V30 12656 H 1219.59 -3.27867 1.92891 0
M  V30 12657 H 1220.91 -4.40626 2.33774 0
M  V30 12658 H 1220.06 -6.03372 0.634586 0
M  V30 12659 H 1218.8 -4.87538 0.125754 0
M  V30 12660 H 1217.8 -4.93188 2.42992 0
M  V30 12661 H 1219.03 -6.12439 2.93419 0
M  V30 12662 H 1216.97 -6.51978 0.725283 0
M  V30 12663 H 1216.89 -7.19551 2.31911 0
M  V30 12664 H 1218.16 -7.6957 1.24025 0
M  V30 12665 N 1222.39 -0.968567 -1.24324 0
M  V30 12666 C 1223.32 -0.457247 -2.24593 0
M  V30 12667 C 1224.33 0.434483 -1.56895 0
M  V30 12668 O 1225.52 0.240519 -1.76872 0
M  V30 12669 C 1222.62 0.359086 -3.36992 0
M  V30 12670 C 1221.8 -0.522945 -4.34263 0
M  V30 12671 C 1220.85 0.237528 -5.25664 0
M  V30 12672 O 1219.88 -0.368835 -5.68004 0
M  V30 12673 N 1221.08 1.52686 -5.6006 0
M  V30 12674 H 1223.85 -1.31934 -2.69098 0
M  V30 12675 H 1221.41 -0.840488 -1.38374 0
M  V30 12676 H 1223.4 0.87589 -3.95108 0
M  V30 12677 H 1221.97 1.12212 -2.91766 0
M  V30 12678 H 1221.19 -1.22071 -3.74823 0
M  V30 12679 H 1222.48 -1.12447 -4.96219 0
M  V30 12680 H 1221.88 2.0412 -5.2759 0
M  V30 12681 H 1220.43 1.98934 -6.207 0
M  V30 12682 N 1223.87 1.39211 -0.738786 0
M  V30 12683 C 1224.83 2.28937 -0.109746 0
M  V30 12684 C 1225.83 1.46488 0.663157 0
M  V30 12685 O 1227.02 1.67119 0.491614 0
M  V30 12686 C 1224.15 3.30039 0.853633 0
M  V30 12687 H 1225.34 2.86068 -0.900295 0
M  V30 12688 H 1222.9 1.47922 -0.504853 0
M  V30 12689 H 1223.63 2.77971 1.6704 0
M  V30 12690 H 1223.42 3.90935 0.302007 0
M  V30 12691 H 1224.91 3.97169 1.29022 0
M  V30 12692 N 1225.34 0.486708 1.49896 0
M  V30 12693 C 1226.57 -0.0600816 2.06813 0
M  V30 12694 C 1226.99 -1.32112 1.34877 0
M  V30 12695 O 1226.34 -1.77537 0.422725 0
M  V30 12696 C 1226.4 -0.332266 3.5997 0
M  V30 12697 O 1226.12 0.878771 4.29196 0
M  V30 12698 C 1227.62 -0.924289 4.33557 0
M  V30 12699 H 1224.84 0.0140611 0.670853 0
M  V30 12700 H 1227.38 0.67997 1.92864 0
M  V30 12701 H 1225.54 -1.02227 3.73669 0
M  V30 12702 H 1225.95 0.632873 5.20668 0
M  V30 12703 H 1227.42 -1.06441 5.4164 0
M  V30 12704 H 1227.9 -1.91844 3.95085 0
M  V30 12705 H 1228.51 -0.272189 4.24428 0
M  V30 12706 N 1226.82 -1.56058 0.219941 0
M  V30 12707 C 1227.73 -2.23844 -0.70222 0
M  V30 12708 C 1228.75 -1.24554 -1.215 0
M  V30 12709 O 1229.93 -1.57362 -1.25695 0
M  V30 12710 C 1226.99 -2.90384 -1.89416 0
M  V30 12711 C 1226.05 -4.05012 -1.42351 0
M  V30 12712 C 1225.28 -4.68369 -2.55863 0
M  V30 12713 O 1225.51 -4.3071 -3.73958 0
M  V30 12714 O 1224.44 -5.5739 -2.27157 0
M  V30 12715 H 1228.27 -3.03305 -0.15478 0
M  V30 12716 H 1225.85 -1.49396 -0.010438 0
M  V30 12717 H 1227.73 -3.32389 -2.59028 0
M  V30 12718 H 1226.41 -2.13883 -2.42973 0
M  V30 12719 H 1225.32 -3.67579 -0.695448 0
M  V30 12720 H 1226.65 -4.83251 -0.934332 0
M  V30 12721 N 1228.3 0.053464 -1.57509 0
M  V30 12722 C 1229.53 0.761533 -1.92375 0
M  V30 12723 C 1229.94 1.70179 -0.817585 0
M  V30 12724 O 1229.3 1.81313 0.207843 0
M  V30 12725 C 1229.35 1.53954 -3.27078 0
M  V30 12726 O 1229.07 0.637054 -4.33443 0
M  V30 12727 C 1230.57 2.34697 -3.76075 0
M  V30 12728 H 1227.79 0.215483 -0.635459 0
M  V30 12729 H 1230.34 0.0182624 -2.04492 0
M  V30 12730 H 1228.49 2.23492 -3.16434 0
M  V30 12731 H 1228.91 1.18006 -5.11053 0
M  V30 12732 H 1230.38 2.84716 -4.72906 0
M  V30 12733 H 1230.86 3.15041 -3.06016 0
M  V30 12734 H 1231.46 1.70281 -3.89724 0
M  V30 12735 N 1229.78 1.54207 0.325255 0
M  V30 12736 C 1230.74 1.82757 1.38321 0
M  V30 12737 C 1231.74 0.699312 1.44797 0
M  V30 12738 O 1232.93 0.96762 1.44854 0
M  V30 12739 C 1230.06 1.98608 2.7707 0
M  V30 12740 H 1231.26 2.7728 1.14261 0
M  V30 12741 H 1228.81 1.45899 0.560647 0
M  V30 12742 H 1229.55 1.0629 3.06387 0
M  V30 12743 H 1229.33 2.80707 2.73763 0
M  V30 12744 H 1230.82 2.2215 3.53609 0
M  V30 12745 N 1231.26 -0.58723 1.46251 0
M  V30 12746 C 1232.51 -1.34179 1.50595 0
M  V30 12747 C 1232.82 -1.94943 0.160171 0
M  V30 12748 O 1234.03 -2.71378 0.0813797 0
M  V30 12749 C 1232.48 -2.43159 2.65333 0
M  V30 12750 C 1232.09 -1.88718 4.06312 0
M  V30 12751 C 1233.83 -3.19986 2.78943 0
M  V30 12752 C 1231.74 -2.953 5.12398 0
M  V30 12753 H 1230.67 -0.504401 0.560442 0
M  V30 12754 H 1233.32 -0.627179 1.72449 0
M  V30 12755 H 1231.7 -3.17398 2.368 0
M  V30 12756 H 1232.88 -1.21051 4.44616 0
M  V30 12757 H 1231.19 -1.24572 3.97329 0
M  V30 12758 H 1233.79 -3.9952 3.5537 0
M  V30 12759 H 1234.13 -3.72288 1.86298 0
M  V30 12760 H 1234.67 -2.52852 3.07101 0
M  V30 12761 H 1231.4 -2.4789 6.0682 0
M  V30 12762 H 1230.92 -3.61469 4.78644 0
M  V30 12763 H 1232.6 -3.5933 5.38044 0
M  V30 12764 N 1232.74 -1.33881 -0.831482 0
M  V30 12765 C 1233.67 -1.27384 -1.95693 0
M  V30 12766 C 1234.65 -0.152943 -1.69411 0
M  V30 12767 O 1235.83 -0.34392 -1.9113 0
M  V30 12768 C 1232.96 -1.01982 -3.31989 0
M  V30 12769 C 1231.92 -2.10445 -3.72689 0
M  V30 12770 C 1231.24 -1.70245 -5.06873 0
M  V30 12771 C 1232.54 -3.52194 -3.8569 0
M  V30 12772 H 1234.24 -2.21549 -2.01386 0
M  V30 12773 H 1231.78 -1.06653 -0.967526 0
M  V30 12774 H 1233.73 -0.960841 -4.103 0
M  V30 12775 H 1232.46 -0.0425709 -3.26572 0
M  V30 12776 H 1231.12 -2.15398 -2.96647 0
M  V30 12777 H 1230.77 -0.712036 -4.97935 0
M  V30 12778 H 1230.47 -2.42834 -5.35075 0
M  V30 12779 H 1231.99 -1.65827 -5.87651 0
M  V30 12780 H 1233.4 -3.49701 -4.54293 0
M  V30 12781 H 1231.8 -4.23331 -4.25336 0
M  V30 12782 H 1232.87 -3.9016 -2.87929 0
M  V30 12783 N 1234.21 1.05064 -1.1747 0
M  V30 12784 C 1235.16 2.14948 -0.888815 0
M  V30 12785 C 1236.16 1.68761 0.147038 0
M  V30 12786 O 1237.36 1.8 -0.000164278 0
M  V30 12787 H 1233.74 0.701898 -0.269894 0
M  V30 12788 H 1235.71 2.36265 -1.82268 0
M  V30 12789 C 1234.46 3.45154 -0.420006 0
M  V30 12790 H 1233.78 3.81096 -1.20854 0
M  V30 12791 H 1235.22 4.23209 -0.258866 0
M  V30 12792 C 1233.68 3.25671 0.862551 0
M  V30 12793 O 1234.21 3.5235 1.92906 0
M  V30 12794 N 1232.41 2.79048 0.81121 0
M  V30 12795 H 1231.96 2.57537 -0.0569025 0
M  V30 12796 H 1231.92 2.66392 1.66981 0
M  V30 12797 N 1235.69 0.975146 1.23809 0
M  V30 12798 C 1236.65 0.516157 2.23312 0
M  V30 12799 C 1237.65 -0.39136 1.55965 0
M  V30 12800 O 1238.84 -0.185783 1.73206 0
M  V30 12801 C 1235.98 -0.251534 3.39971 0
M  V30 12802 H 1237.17 1.3959 2.65433 0
M  V30 12803 H 1234.72 0.760493 1.36551 0
M  V30 12804 H 1235.46 -1.14805 3.03299 0
M  V30 12805 H 1235.24 0.399825 3.90056 0
M  V30 12806 H 1236.73 -0.561438 4.13809 0
M  V30 12807 N 1237.17 -1.38817 0.746158 0
M  V30 12808 C 1238.12 -2.32373 0.102785 0
M  V30 12809 C 1239.11 -1.53638 -0.713556 0
M  V30 12810 O 1240.32 -1.69223 -0.613488 0
M  V30 12811 H 1236.69 -0.751861 0.0144405 0
M  V30 12812 H 1238.66 -2.84249 0.908032 0
M  V30 12813 C 1237.41 -3.38796 -0.781827 0
M  V30 12814 H 1236.74 -3.99467 -0.163057 0
M  V30 12815 H 1238.18 -4.06682 -1.19941 0
M  V30 12816 C 1236.63 -2.76756 -1.92113 0
M  V30 12817 O 1237.16 -2.65478 -3.0147 0
M  V30 12818 N 1235.37 -2.34676 -1.71392 0
M  V30 12819 H 1234.92 -2.44049 -0.824483 0
M  V30 12820 H 1234.88 -1.93508 -2.47794 0
M  V30 12821 N 1238.65 -0.49465 -1.49636 0
M  V30 12822 C 1239.88 0.0490417 -2.06542 0
M  V30 12823 C 1240.29 1.31945 -1.35599 0
M  V30 12824 O 1239.63 1.78691 -0.426047 0
M  V30 12825 C 1239.69 0.379426 -3.57492 0
M  V30 12826 C 1239.35 -0.792345 -4.50079 0
M  V30 12827 C 1240.35 -1.68106 -4.91972 0
M  V30 12828 C 1238.04 -0.98935 -4.9246 0
M  V30 12829 C 1240.03 -2.75099 -5.74978 0
M  V30 12830 C 1237.72 -2.06247 -5.75244 0
M  V30 12831 C 1238.72 -2.94163 -6.16407 0
M  V30 12832 O 1238.4 -3.99623 -6.97536 0
M  V30 12833 H 1238.14 -0.0143708 -0.675847 0
M  V30 12834 H 1240.69 -0.689358 -1.93486 0
M  V30 12835 H 1238.92 1.17133 -3.68533 0
M  V30 12836 H 1240.61 0.860979 -3.96664 0
M  V30 12837 H 1241.37 -1.54065 -4.59879 0
M  V30 12838 H 1237.25 -0.314435 -4.59926 0
M  V30 12839 H 1240.8 -3.4375 -6.07027 0
M  V30 12840 H 1236.69 -2.20285 -6.06749 0
M  V30 12841 H 1237.46 -3.96899 -7.15831 0
M  V30 12842 N 1240.13 1.55939 -0.228214 0
M  V30 12843 C 1241.06 2.16566 0.719321 0
M  V30 12844 C 1242.04 1.11204 1.18627 0
M  V30 12845 O 1243.22 1.39495 1.2678 0
M  V30 12846 C 1240.35 2.75132 1.97536 0
M  V30 12847 C 1239.39 3.93381 1.64783 0
M  V30 12848 S 1240.23 5.29982 0.76678 0
M  V30 12849 C 1241.38 5.91989 2.03223 0
M  V30 12850 H 1241.62 2.96599 0.204035 0
M  V30 12851 H 1239.15 1.54395 -0.0128406 0
M  V30 12852 H 1241.11 3.09512 2.69652 0
M  V30 12853 H 1239.77 1.95079 2.46176 0
M  V30 12854 H 1238.96 4.32884 2.58122 0
M  V30 12855 H 1238.56 3.60181 1.00724 0
M  V30 12856 H 1240.85 6.08368 2.98152 0
M  V30 12857 H 1241.8 6.87858 1.68099 0
M  V30 12858 H 1242.21 5.20883 2.1758 0
M  V30 12859 N 1241.6 -0.0451101 1.57535 0
M  V30 12860 C 1242.57 -1.03521 2.0449 0
M  V30 12861 C 1243.57 -1.30009 0.946265 0
M  V30 12862 O 1244.76 -1.25282 1.21038 0
M  V30 12863 C 1241.89 -2.37221 2.44824 0
M  V30 12864 H 1243.08 -0.629943 2.93209 0
M  V30 12865 H 1240.64 -0.291544 1.53557 0
M  V30 12866 H 1241.37 -2.82528 1.59212 0
M  V30 12867 H 1241.16 -2.19329 3.25018 0
M  V30 12868 H 1242.65 -3.08337 2.81635 0
M  V30 12869 N 1243.08 -1.54377 -0.317073 0
M  V30 12870 C 1244.03 -1.84214 -1.39046 0
M  V30 12871 C 1245 -0.689742 -1.51102 0
M  V30 12872 O 1246.18 -0.936809 -1.66218 0
M  V30 12873 C 1243.32 -2.08087 -2.75307 0
M  V30 12874 C 1242.44 -3.35756 -2.7183 0
M  V30 12875 C 1241.57 -3.49556 -3.9998 0
M  V30 12876 C 1240.61 -4.71076 -3.90837 0
M  V30 12877 N 1239.75 -4.81767 -5.10729 0
M  V30 12878 H 1244.59 -2.75785 -1.12902 0
M  V30 12879 H 1242.13 -1.36575 -0.546404 0
M  V30 12880 H 1244.08 -2.19921 -3.54529 0
M  V30 12881 H 1242.71 -1.19801 -2.99746 0
M  V30 12882 H 1241.77 -3.32627 -1.84563 0
M  V30 12883 H 1243.08 -4.2509 -2.60959 0
M  V30 12884 H 1242.23 -3.60967 -4.87635 0
M  V30 12885 H 1240.97 -2.58326 -4.13665 0
M  V30 12886 H 1239.98 -4.59715 -3.01566 0
M  V30 12887 H 1241.2 -5.63698 -3.78711 0
M  V30 12888 H 1239.15 -3.93455 -5.24908 0
M  V30 12889 H 1239.06 -5.65077 -5.02219 0
M  V30 12890 H 1240.33 -4.97517 -6.00081 0
M  V30 12891 N 1244.56 0.579466 -1.4656 0
M  V30 12892 C 1245.98 0.903163 -1.31587 0
M  V30 12893 C 1246.18 1.99406 -0.28972 0
M  V30 12894 O 1245.23 2.50632 0.30658 0
M  V30 12895 C 1246.55 1.31745 -2.70303 0
M  V30 12896 C 1248.09 1.43012 -2.78418 0
M  V30 12897 C 1248.57 1.87805 -4.17724 0
M  V30 12898 N 1250.06 1.94993 -4.20157 0
M  V30 12899 C 1250.79 2.30934 -5.2484 0
M  V30 12900 N 1250.29 2.65645 -6.39847 0
M  V30 12901 N 1252.08 2.31517 -5.12207 0
M  V30 12902 H 1244.23 -0.141111 -2.11931 0
M  V30 12903 H 1246.5 -0.000460304 -0.948 0
M  V30 12904 H 1246.2 0.589864 -3.46718 0
M  V30 12905 H 1246.08 2.2783 -3.00622 0
M  V30 12906 H 1248.46 2.14856 -2.02289 0
M  V30 12907 H 1248.55 0.451701 -2.5178 0
M  V30 12908 H 1248.19 1.16539 -4.94349 0
M  V30 12909 H 1248.12 2.86611 -4.41771 0
M  V30 12910 H 1250.61 1.70645 -3.37178 0
M  V30 12911 H 1250.92 2.92032 -7.15498 0
M  V30 12912 H 1249.27 2.63276 -6.43204 0
M  V30 12913 H 1252.46 2.03824 -4.21394 0
M  V30 12914 H 1252.63 2.59199 -5.93902 0
M  V30 12915 N 1246.04 1.3432 0.824371 0
M  V30 12916 C 1246.97 1.2842 1.95014 0
M  V30 12917 C 1247.95 0.161925 1.69328 0
M  V30 12918 O 1249.13 0.354052 1.90945 0
M  V30 12919 C 1246.26 1.03741 3.31444 0
M  V30 12920 C 1245.22 2.12419 3.71567 0
M  V30 12921 C 1244.54 1.72931 5.05963 0
M  V30 12922 C 1245.84 3.54235 3.83817 0
M  V30 12923 H 1247.54 2.22614 2.00209 0
M  V30 12924 H 1245.08 1.07165 0.961856 0
M  V30 12925 H 1247.04 0.982586 4.09784 0
M  V30 12926 H 1245.76 0.0598892 3.26545 0
M  V30 12927 H 1244.42 2.16968 2.955 0
M  V30 12928 H 1244.07 0.738433 4.9755 0
M  V30 12929 H 1243.77 2.45668 5.3378 0
M  V30 12930 H 1245.29 1.68941 5.86763 0
M  V30 12931 H 1246.71 3.52106 4.52432 0
M  V30 12932 H 1245.1 4.25581 4.23085 0
M  V30 12933 H 1246.17 3.91682 2.85856 0
M  V30 12934 N 1247.52 -1.0444 1.18026 0
M  V30 12935 C 1248.43 -2.15862 0.918747 0
M  V30 12936 C 1249.44 -1.73614 -0.115808 0
M  V30 12937 O 1250.62 -2.01294 0.0652312 0
M  V30 12938 C 1247.68 -3.43846 0.443922 0
M  V30 12939 C 1246.74 -4.00497 1.54599 0
M  V30 12940 C 1245.98 -5.22373 1.09372 0
M  V30 12941 O 1246.2 -5.70379 -0.049085 0
M  V30 12942 O 1245.13 -5.71459 1.88992 0
M  V30 12943 H 1248.96 -2.40776 1.85097 0
M  V30 12944 H 1246.55 -1.14326 0.961769 0
M  V30 12945 H 1248.43 -4.20985 0.187017 0
M  V30 12946 H 1247.1 -3.20414 -0.460051 0
M  V30 12947 H 1246.01 -3.24764 1.85686 0
M  V30 12948 H 1247.34 -4.28262 2.42595 0
M  V30 12949 N 1248.99 -0.981699 -1.2329 0
M  V30 12950 C 1250.22 -0.66937 -1.95773 0
M  V30 12951 C 1250.64 0.763898 -1.72656 0
M  V30 12952 O 1249.99 1.51418 -1.01876 0
M  V30 12953 C 1250.05 -0.951863 -3.48743 0
M  V30 12954 O 1249.77 -2.3288 -3.71078 0
M  V30 12955 C 1251.27 -0.655668 -4.38424 0
M  V30 12956 H 1248.49 -0.248545 -0.623271 0
M  V30 12957 H 1251.03 -1.31343 -1.56746 0
M  V30 12958 H 1249.19 -0.353787 -3.85781 0
M  V30 12959 H 1249.6 -2.41948 -4.65362 0
M  V30 12960 H 1251.07 -0.903683 -5.44553 0
M  V30 12961 H 1251.55 0.410269 -4.3728 0
M  V30 12962 H 1252.16 -1.23428 -4.06996 0
M  V30 12963 N 1250.47 1.3842 -0.753509 0
M  V30 12964 C 1251.42 2.27774 -0.101443 0
M  V30 12965 C 1252.41 1.45196 0.693322 0
M  V30 12966 O 1253.6 1.67931 0.55929 0
M  V30 12967 C 1250.73 3.34064 0.790977 0
M  V30 12968 C 1249.81 4.24099 -0.010633 0
M  V30 12969 N 1250.2 4.94845 -1.047 0
M  V30 12970 C 1248.5 4.45476 0.216193 0
M  V30 12971 C 1249.2 5.61164 -1.53199 0
M  V30 12972 N 1248.18 5.36956 -0.847304 0
M  V30 12973 H 1251.98 2.79935 -0.895188 0
M  V30 12974 H 1249.5 1.51321 -0.589545 0
M  V30 12975 H 1251.49 3.96965 1.27375 0
M  V30 12976 H 1250.15 2.83461 1.58367 0
M  V30 12977 H 1251.16 4.97801 -1.42879 0
M  V30 12978 H 1247.84 4.05781 0.982238 0
M  V30 12979 H 1249.23 6.27756 -2.39525 0
M  V30 12980 N 1251.95 0.502579 1.49372 0
M  V30 12981 C 1253.18 -0.0380876 2.06565 0
M  V30 12982 C 1253.59 -1.31224 1.36297 0
M  V30 12983 O 1252.93 -1.78463 0.435517 0
M  V30 12984 C 1252.99 -0.360462 3.57688 0
M  V30 12985 C 1252.66 0.816203 4.49652 0
M  V30 12986 C 1253.65 1.70713 4.91073 0
M  V30 12987 C 1251.34 1.01545 4.91929 0
M  V30 12988 C 1253.33 2.78144 5.73511 0
M  V30 12989 C 1251.02 2.09294 5.74142 0
M  V30 12990 C 1252.02 2.97428 6.14838 0
M  V30 12991 O 1251.71 4.03317 6.95407 0
M  V30 12992 H 1251.44 0.0179548 0.675762 0
M  V30 12993 H 1253.99 0.699609 1.93118 0
M  V30 12994 H 1252.22 -1.15177 3.69149 0
M  V30 12995 H 1253.91 -0.839931 3.97115 0
M  V30 12996 H 1254.68 1.56502 4.59056 0
M  V30 12997 H 1250.56 0.338822 4.59753 0
M  V30 12998 H 1254.1 3.46965 6.05195 0
M  V30 12999 H 1250 2.235 6.05572 0
M  V30 13000 H 1250.77 4.00689 7.13716 0
M  V30 13001 N 1253.43 -1.55816 0.23648 0
M  V30 13002 C 1254.84 -1.59159 -0.118601 0
M  V30 13003 C 1255.04 -1.25352 -1.57763 0
M  V30 13004 O 1254.1 -0.995863 -2.32032 0
M  V30 13005 C 1255.41 -2.99885 0.221175 0
M  V30 13006 C 1256.96 -3.12567 0.164624 0
M  V30 13007 C 1257.44 -4.55496 0.478285 0
M  V30 13008 N 1258.93 -4.61215 0.428402 0
M  V30 13009 C 1259.66 -5.69768 0.644398 0
M  V30 13010 N 1259.16 -6.86624 0.922966 0
M  V30 13011 N 1260.95 -5.59143 0.575814 0
M  V30 13012 H 1253.1 -1.76063 1.18809 0
M  V30 13013 H 1255.37 -0.819079 0.477297 0
M  V30 13014 H 1255.07 -3.29326 1.2344 0
M  V30 13015 H 1254.95 -3.74425 -0.456723 0
M  V30 13016 H 1257.33 -2.82914 -0.839263 0
M  V30 13017 H 1257.41 -2.40325 0.876219 0
M  V30 13018 H 1257.06 -4.85868 1.47968 0
M  V30 13019 H 1256.99 -5.25984 -0.254671 0
M  V30 13020 H 1259.48 -3.77251 0.221398 0
M  V30 13021 H 1259.79 -7.6528 1.07548 0
M  V30 13022 H 1258.14 -6.88333 0.960325 0
M  V30 13023 H 1261.33 -4.66727 0.358307 0
M  V30 13024 H 1261.5 -6.43674 0.747548 0
M  V30 13025 N 1254.91 0.036755 -1.57557 0
M  V30 13026 C 1256.16 0.728107 -1.881 0
M  V30 13027 C 1256.47 1.7693 -0.833974 0
M  V30 13028 O 1257.67 2.5127 -1.02837 0
M  V30 13029 C 1256.13 1.34604 -3.33781 0
M  V30 13030 C 1255.74 0.341599 -4.46696 0
M  V30 13031 C 1257.48 2.01772 -3.73481 0
M  V30 13032 C 1255.39 0.967444 -5.83433 0
M  V30 13033 H 1254.32 0.275695 -0.701789 0
M  V30 13034 H 1256.97 -0.0177555 -1.83491 0
M  V30 13035 H 1255.35 2.14135 -3.3311 0
M  V30 13036 H 1256.53 -0.426441 -4.58823 0
M  V30 13037 H 1254.84 -0.227558 -4.15778 0
M  V30 13038 H 1257.44 2.49435 -4.72955 0
M  V30 13039 H 1257.78 2.83255 -3.05077 0
M  V30 13040 H 1258.31 1.29026 -3.76294 0
M  V30 13041 H 1255.05 0.19219 -6.55218 0
M  V30 13042 H 1254.57 1.70551 -5.75041 0
M  V30 13043 H 1256.25 1.47705 -6.29914 0
M  V30 13044 N 1256.39 1.54543 0.308881 0
M  V30 13045 C 1257.32 1.87947 1.38557 0
M  V30 13046 C 1258.3 0.737622 1.53275 0
M  V30 13047 O 1259.48 0.992664 1.66913 0
M  V30 13048 C 1256.61 2.11982 2.75102 0
M  V30 13049 C 1255.57 3.2783 2.75158 0
M  V30 13050 C 1254.89 3.37266 4.14917 0
M  V30 13051 C 1256.19 4.65129 2.37598 0
M  V30 13052 H 1257.89 2.78123 1.1085 0
M  V30 13053 H 1255.43 1.3382 0.531808 0
M  V30 13054 H 1257.38 2.33935 3.50503 0
M  V30 13055 H 1256.11 1.18569 3.04317 0
M  V30 13056 H 1254.77 3.05787 2.02212 0
M  V30 13057 H 1254.42 2.41384 4.41296 0
M  V30 13058 H 1254.12 4.15135 4.15857 0
M  V30 13059 H 1255.64 3.61471 4.92109 0
M  V30 13060 H 1257.05 4.86865 3.02714 0
M  V30 13061 H 1255.45 5.45653 2.49765 0
M  V30 13062 H 1256.52 4.6638 1.32731 0
M  V30 13063 N 1257.86 -0.571685 1.46866 0
M  V30 13064 C 1259.11 -1.32948 1.52745 0
M  V30 13065 C 1259.44 -1.93631 0.183694 0
M  V30 13066 O 1258.69 -1.77605 -0.821886 0
M  V30 13067 C 1258.99 -2.47051 2.58264 0
M  V30 13068 C 1258.66 -2.04291 4.01965 0
M  V30 13069 C 1257.32 -1.92345 4.41086 0
M  V30 13070 C 1259.67 -1.71458 4.9219 0
M  V30 13071 C 1257 -1.4584 5.68285 0
M  V30 13072 C 1259.35 -1.26429 6.19837 0
M  V30 13073 C 1258.02 -1.13068 6.57854 0
M  V30 13074 H 1257.29 -0.48649 0.558935 0
M  V30 13075 H 1259.93 -0.642618 1.80396 0
M  V30 13076 H 1258.24 -3.21231 2.24316 0
M  V30 13077 H 1259.94 -3.05254 2.6004 0
M  V30 13078 H 1256.53 -2.14527 3.71047 0
M  V30 13079 H 1260.71 -1.79567 4.62676 0
M  V30 13080 H 1255.97 -1.34148 5.96502 0
M  V30 13081 H 1260.14 -1.00081 6.89171 0
M  V30 13082 H 1257.77 -0.768094 7.5631 0
M  V30 13083 N 1259.34 -1.34755 -0.817236 0
M  V30 13084 C 1260.76 -1.14561 -1.11121 0
M  V30 13085 C 1260.96 0.0490776 -2.0144 0
M  V30 13086 O 1260.01 0.722897 -2.41931 0
M  V30 13087 C 1261.33 -2.44356 -1.75244 0
M  V30 13088 C 1262.87 -2.50465 -1.87713 0
M  V30 13089 C 1263.35 -3.80276 -2.55253 0
M  V30 13090 N 1264.84 -3.81468 -2.62747 0
M  V30 13091 C 1265.58 -4.78634 -3.15749 0
M  V30 13092 N 1265.07 -5.86184 -3.6927 0
M  V30 13093 N 1266.86 -4.66083 -3.14203 0
M  V30 13094 H 1259.02 -2.11293 -0.2166 0
M  V30 13095 H 1261.28 -0.934629 -0.158661 0
M  V30 13096 H 1260.98 -3.31899 -1.16344 0
M  V30 13097 H 1260.86 -2.58117 -2.75055 0
M  V30 13098 H 1263.25 -1.63358 -2.45761 0
M  V30 13099 H 1263.33 -2.40627 -0.867887 0
M  V30 13100 H 1262.97 -4.67776 -1.97858 0
M  V30 13101 H 1262.9 -3.87399 -3.56693 0
M  V30 13102 H 1265.39 -3.03753 -2.24817 0
M  V30 13103 H 1265.7 -6.56332 -4.0798 0
M  V30 13104 H 1264.05 -5.8989 -3.67498 0
M  V30 13105 H 1267.24 -3.81206 -2.7166 0
M  V30 13106 H 1267.41 -5.41973 -3.55203 0
M  V30 13107 N 1260.82 1.03812 -1.18578 0
M  V30 13108 C 1262.07 1.76706 -0.980776 0
M  V30 13109 C 1262.39 1.88729 0.490562 0
M  V30 13110 O 1261.66 1.41413 1.35569 0
M  V30 13111 H 1260.24 0.654586 -0.359898 0
M  V30 13112 H 1262.9 1.25274 -1.49306 0
M  V30 13113 H 1262 2.77876 -1.42096 0
M  V30 13114 N 1262.3 0.988223 1.22768 0
M  V30 13115 C 1263.26 0.539813 2.22752 0
M  V30 13116 C 1264.26 -0.374796 1.56371 0
M  V30 13117 O 1265.45 -0.167402 1.73394 0
M  V30 13118 C 1262.58 -0.215461 3.40218 0
M  V30 13119 H 1263.78 1.42397 2.63938 0
M  V30 13120 H 1261.33 0.774933 1.35737 0
M  V30 13121 H 1262.06 -1.11581 3.045 0
M  V30 13122 H 1261.85 0.441173 3.8961 0
M  V30 13123 H 1263.34 -0.517517 4.14381 0
M  V30 13124 N 1263.78 -1.38018 0.760839 0
M  V30 13125 C 1265.19 -1.53437 0.439239 0
M  V30 13126 C 1265.39 -1.72184 -1.04666 0
M  V30 13127 O 1264.45 -1.73698 -1.83263 0
M  V30 13128 C 1265.76 -2.73724 1.24481 0
M  V30 13129 C 1267.31 -2.87579 1.23561 0
M  V30 13130 C 1267.78 -4.10836 2.02429 0
M  V30 13131 N 1269.27 -4.17928 1.99727 0
M  V30 13132 C 1270.01 -5.12309 2.57541 0
M  V30 13133 N 1269.51 -6.12317 3.24098 0
M  V30 13134 N 1271.3 -5.04712 2.47431 0
M  V30 13135 H 1263.45 -1.241 1.72375 0
M  V30 13136 H 1265.71 -0.603427 0.73115 0
M  V30 13137 H 1265.42 -2.663 2.29732 0
M  V30 13138 H 1265.29 -3.67111 0.866579 0
M  V30 13139 H 1267.68 -2.9448 0.191122 0
M  V30 13140 H 1267.76 -1.95183 1.6534 0
M  V30 13141 H 1267.4 -4.04696 3.06893 0
M  V30 13142 H 1267.33 -5.02326 1.58039 0
M  V30 13143 H 1269.83 -3.46307 1.51262 0
M  V30 13144 H 1270.14 -6.80842 3.65615 0
M  V30 13145 H 1268.48 -6.12628 3.28195 0
M  V30 13146 H 1271.67 -4.25524 1.95057 0
M  V30 13147 H 1271.85 -5.78085 2.92783 0
M  V30 13148 N 1265.25 -0.510493 -1.49103 0
M  V30 13149 C 1266.5 0.0305831 -2.02077 0
M  V30 13150 C 1266.82 1.36602 -1.39157 0
M  V30 13151 O 1266.09 1.88016 -0.550154 0
M  V30 13152 H 1264.67 0.0142916 -0.746863 0
M  V30 13153 H 1267.33 -0.669895 -1.83026 0
M  V30 13154 H 1266.43 0.153283 -3.11723 0
M  V30 13155 N 1266.73 1.55688 -0.24474 0
M  V30 13156 C 1267.96 2.02995 0.38425 0
M  V30 13157 C 1268.37 1.12339 1.52239 0
M  V30 13158 O 1267.71 0.129803 1.83241 0
M  V30 13159 C 1267.77 3.46564 0.955701 0
M  V30 13160 C 1267.44 4.56973 -0.0499176 0
M  V30 13161 C 1268.44 5.1276 -0.858682 0
M  V30 13162 C 1266.12 5.01994 -0.175383 0
M  V30 13163 C 1268.11 6.12059 -1.77939 0
M  V30 13164 C 1265.8 6.01126 -1.0996 0
M  V30 13165 C 1266.8 6.56037 -1.90013 0
M  V30 13166 O 1266.49 7.53235 -2.80877 0
M  V30 13167 H 1266.22 0.669189 0.0957212 0
M  V30 13168 H 1268.77 2.02121 -0.36555 0
M  V30 13169 H 1267 3.44581 1.75502 0
M  V30 13170 H 1268.69 3.77383 1.49454 0
M  V30 13171 H 1269.46 4.78811 -0.772325 0
M  V30 13172 H 1265.34 4.58918 0.437644 0
M  V30 13173 H 1268.88 6.54845 -2.40465 0
M  V30 13174 H 1264.78 6.34494 -1.18689 0
M  V30 13175 H 1265.55 7.70844 -2.75214 0
M  V30 13176 N 1268.21 -0.0283989 1.57574 0
M  V30 13177 C 1269.46 -0.720142 1.89583 0
M  V30 13178 C 1269.79 -1.7497 0.842562 0
M  V30 13179 O 1269.06 -1.93979 -0.142294 0
M  V30 13180 C 1269.35 -1.38909 3.32229 0
M  V30 13181 C 1269.2 -0.372998 4.48251 0
M  V30 13182 C 1270.52 -2.32289 3.73804 0
M  V30 13183 H 1267.64 -0.26033 0.689491 0
M  V30 13184 H 1270.28 0.0170607 1.89992 0
M  V30 13185 H 1268.43 -2.01744 3.32011 0
M  V30 13186 H 1270.1 0.253492 4.60603 0
M  V30 13187 H 1268.34 0.30765 4.32708 0
M  V30 13188 H 1269.02 -0.879549 5.44948 0
M  V30 13189 H 1271.49 -1.79497 3.75393 0
M  V30 13190 H 1270.37 -2.76075 4.74419 0
M  V30 13191 H 1270.63 -3.18992 3.06099 0
M  V30 13192 N 1269.69 -1.54705 -0.300681 0
M  V30 13193 C 1270.94 -1.73658 -1.0338 0
M  V30 13194 C 1271.26 -0.525447 -1.87787 0
M  V30 13195 O 1270.53 0.460269 -1.90416 0
M  V30 13196 H 1269.11 -0.640338 -0.384677 0
M  V30 13197 H 1271.77 -1.92059 -0.331588 0
M  V30 13198 H 1270.86 -2.62595 -1.68672 0
M  V30 13199 N 1271.17 0.563888 -1.47167 0
M  V30 13200 C 1272.12 1.66687 -1.55562 0
M  V30 13201 C 1273.1 1.55455 -0.415024 0
M  V30 13202 O 1274.29 1.64051 -0.664557 0
M  V30 13203 C 1271.42 3.05469 -1.56665 0
M  V30 13204 C 1270.51 3.21928 -2.76085 0
M  V30 13205 N 1270.9 3.08477 -4.00844 0
M  V30 13206 C 1269.2 3.52913 -2.72706 0
M  V30 13207 C 1269.9 3.27447 -4.80784 0
M  V30 13208 N 1268.87 3.53474 -4.12986 0
M  V30 13209 H 1272.68 1.54846 -2.498 0
M  V30 13210 H 1270.19 0.76846 -1.43068 0
M  V30 13211 H 1272.19 3.84655 -1.60768 0
M  V30 13212 H 1270.85 3.18427 -0.635174 0
M  V30 13213 H 1271.86 2.85944 -4.31806 0
M  V30 13214 H 1268.53 3.7244 -1.88666 0
M  V30 13215 H 1269.92 3.22072 -5.89677 0
M  V30 13216 N 1272.64 1.35187 0.810078 0
M  V30 13217 C 1273.55 1.29926 1.95337 0
M  V30 13218 C 1274.57 0.204748 1.72791 0
M  V30 13219 O 1275.75 0.433507 1.96679 0
M  V30 13220 C 1272.81 1.06736 3.29861 0
M  V30 13221 C 1271.87 2.25466 3.65326 0
M  V30 13222 C 1271.11 2.03373 4.93432 0
M  V30 13223 O 1271.33 0.998419 5.61594 0
M  V30 13224 O 1270.26 2.90648 5.27075 0
M  V30 13225 H 1274.09 2.26137 2.02721 0
M  V30 13226 H 1271.67 1.15523 0.947354 0
M  V30 13227 H 1273.56 0.956367 4.10404 0
M  V30 13228 H 1272.23 0.135735 3.23415 0
M  V30 13229 H 1271.14 2.42129 2.85175 0
M  V30 13230 H 1272.47 3.17063 3.76473 0
M  V30 13231 N 1274.12 -1.03182 1.19127 0
M  V30 13232 C 1275.37 -1.76533 0.992093 0
M  V30 13233 C 1275.7 -1.88549 -0.477429 0
M  V30 13234 O 1274.95 -1.39675 -1.37074 0
M  V30 13235 C 1275.25 -3.19452 1.60267 0
M  V30 13236 C 1274.92 -3.27449 3.09981 0
M  V30 13237 C 1273.58 -3.29338 3.50841 0
M  V30 13238 C 1275.93 -3.26833 4.05992 0
M  V30 13239 C 1273.26 -3.28265 4.86271 0
M  V30 13240 C 1275.61 -3.27299 5.41348 0
M  V30 13241 C 1274.28 -3.27485 5.81644 0
M  V30 13242 H 1273.55 -0.645979 0.363033 0
M  V30 13243 H 1276.19 -1.21127 1.48326 0
M  V30 13244 H 1274.5 -3.77917 1.03372 0
M  V30 13245 H 1276.19 -3.74869 1.42388 0
M  V30 13246 H 1272.78 -3.26704 2.77421 0
M  V30 13247 H 1276.97 -3.24556 3.75469 0
M  V30 13248 H 1272.22 -3.26731 5.16775 0
M  V30 13249 H 1276.4 -3.25773 6.15504 0
M  V30 13250 H 1274.03 -3.26407 6.86558 0
M  V30 13251 N 1275.6 -0.99472 -1.22242 0
M  V30 13252 C 1276.85 -0.667045 -1.90351 0
M  V30 13253 C 1277.16 0.804615 -1.78284 0
M  V30 13254 O 1278.37 1.24395 -2.41326 0
M  V30 13255 C 1276.82 -1.14256 -3.41282 0
M  V30 13256 C 1276.43 -2.63958 -3.61981 0
M  V30 13257 C 1278.18 -0.889302 -4.1508 0
M  V30 13258 C 1276.08 -3.05103 -5.06622 0
M  V30 13259 H 1275.01 -0.245795 -0.712812 0
M  V30 13260 H 1277.66 -1.20452 -1.38432 0
M  V30 13261 H 1276.05 -0.533203 -3.92394 0
M  V30 13262 H 1277.22 -3.30255 -3.21354 0
M  V30 13263 H 1275.54 -2.87186 -3.01518 0
M  V30 13264 H 1278.13 -1.17239 -5.21689 0
M  V30 13265 H 1278.48 0.174556 -4.15934 0
M  V30 13266 H 1279.01 -1.46095 -3.70002 0
M  V30 13267 H 1275.75 -4.10672 -5.1091 0
M  V30 13268 H 1275.27 -2.4351 -5.48145 0
M  V30 13269 H 1276.95 -2.96506 -5.75059 0
M  V30 13270 N 1277.08 1.37613 -0.768148 0
M  V30 13271 C 1278.01 2.3291 -0.165911 0
M  V30 13272 C 1278.99 1.556 0.687205 0
M  V30 13273 O 1280.17 1.83854 0.625407 0
M  V30 13274 C 1277.3 3.39822 0.7168 0
M  V30 13275 C 1276.26 4.27986 -0.0347264 0
M  V30 13276 C 1275.58 5.2588 0.967192 0
M  V30 13277 C 1276.88 5.08052 -1.21164 0
M  V30 13278 H 1278.58 2.83524 -0.962006 0
M  V30 13279 H 1276.12 1.36318 -0.464051 0
M  V30 13280 H 1278.08 4.05464 1.14789 0
M  V30 13281 H 1276.8 2.87725 1.54538 0
M  V30 13282 H 1275.46 3.6387 -0.446557 0
M  V30 13283 H 1275.11 4.70064 1.79022 0
M  V30 13284 H 1274.81 5.85726 0.468913 0
M  V30 13285 H 1276.33 5.94397 1.3973 0
M  V30 13286 H 1277.75 5.66853 -0.857373 0
M  V30 13287 H 1276.14 5.77206 -1.64176 0
M  V30 13288 H 1277.21 4.40936 -2.0175 0
M  V30 13289 N 1278.56 0.518393 1.4883 0
M  V30 13290 C 1279.83 -0.0837498 1.95421 0
M  V30 13291 C 1280.21 -1.52435 1.46037 0
M  V30 13292 O 1279.56 -2.18093 0.681736 0
M  V30 13293 C 1279.77 0.0215333 3.48993 0
M  V30 13294 C 1281.12 -0.143615 4.24357 0
M  V30 13295 O 1282.14 -0.0528223 3.56161 0
M  V30 13296 O 1281 -0.332231 5.45489 0
M  V30 13297 H 1278.1 -0.0857132 0.822546 0
M  V30 13298 H 1280.64 0.582169 1.59402 0
M  V30 13299 H 1279.41 1.02549 3.77623 0
M  V30 13300 H 1279.04 -0.683756 3.91677 0
M  V30 13301 N 1280.03 -1.55556 0.252993 0
M  V30 13302 C 1281.26 -2.03491 -0.374022 0
M  V30 13303 C 1281.68 -1.13208 -1.51094 0
M  V30 13304 O 1281.03 -0.147705 -1.81901 0
M  V30 13305 C 1281.09 -3.50724 -0.876047 0
M  V30 13306 O 1280.81 -4.37569 0.215574 0
M  V30 13307 C 1282.31 -4.14448 -1.57313 0
M  V30 13308 H 1279.53 -0.665183 -0.0881644 0
M  V30 13309 H 1282.07 -2.00964 0.378636 0
M  V30 13310 H 1280.23 -3.53766 -1.57886 0
M  V30 13311 H 1280.64 -5.24235 -0.166625 0
M  V30 13312 H 1282.11 -5.19142 -1.87606 0
M  V30 13313 H 1282.59 -3.61299 -2.49719 0
M  V30 13314 H 1283.2 -4.15346 -0.914735 0
M  V30 13315 N 1281.51 0.0200419 -1.57587 0
M  V30 13316 C 1282.93 0.375834 -1.55112 0
M  V30 13317 C 1283.13 1.76047 -0.980297 0
M  V30 13318 O 1282.18 2.45138 -0.605297 0
M  V30 13319 C 1283.5 0.269418 -2.99491 0
M  V30 13320 C 1285.05 0.345838 -3.11084 0
M  V30 13321 C 1285.52 0.268771 -4.57211 0
M  V30 13322 N 1287.01 0.32729 -4.62042 0
M  V30 13323 C 1287.75 0.290688 -5.72663 0
M  V30 13324 N 1287.24 0.205851 -6.92494 0
M  V30 13325 N 1289.04 0.341082 -5.61064 0
M  V30 13326 H 1281.19 -0.885979 -1.93039 0
M  V30 13327 H 1283.45 -0.337753 -0.885792 0
M  V30 13328 H 1283.16 -0.682452 -3.45015 0
M  V30 13329 H 1283.03 1.0595 -3.62014 0
M  V30 13330 H 1285.42 1.28814 -2.65501 0
M  V30 13331 H 1285.5 -0.47376 -2.51375 0
M  V30 13332 H 1285.14 -0.669906 -5.03463 0
M  V30 13333 H 1285.07 1.10659 -5.14842 0
M  V30 13334 H 1287.56 0.395004 -3.7583 0
M  V30 13335 H 1287.88 0.18327 -7.72583 0
M  V30 13336 H 1286.22 0.171768 -6.94788 0
M  V30 13337 H 1289.41 0.405415 -4.66341 0
M  V30 13338 H 1289.58 0.309091 -6.47262 0
M  V30 13339 N 1282.99 1.54862 0.292472 0
M  V30 13340 C 1284.4 1.65459 0.864891 0
M  V30 13341 C 1284.75 0.568808 1.87774 0
M  V30 13342 O 1283.88 -0.293107 2.14406 0
M  V30 13343 C 1284.47 2.99939 1.5755 0
M  V30 13344 C 1283.03 3.12628 2.09621 0
M  V30 13345 C 1282.18 2.61179 0.931713 0
M  V30 13346 H 1285.13 1.58549 0.0692679 0
M  V30 13347 H 1285.15 2.91839 2.44152 0
M  V30 13348 H 1284.66 3.78943 0.838088 0
M  V30 13349 H 1282.76 2.3836 2.86383 0
M  V30 13350 H 1282.88 4.18911 2.32488 0
M  V30 13351 H 1281.24 2.17846 1.31967 0
M  V30 13352 H 1282.02 3.42669 0.208121 0
M  V30 13353 N 1284.47 -0.556076 1.47464 0
M  V30 13354 C 1285.72 -1.3132 1.54147 0
M  V30 13355 C 1286.04 -1.93425 0.204221 0
M  V30 13356 O 1285.3 -1.78467 -0.803002 0
M  V30 13357 C 1285.6 -2.44298 2.6087 0
M  V30 13358 C 1285.26 -2.00016 4.04109 0
M  V30 13359 C 1283.93 -1.87656 4.43101 0
M  V30 13360 C 1286.28 -1.66228 4.93981 0
M  V30 13361 C 1283.61 -1.39805 5.698 0
M  V30 13362 C 1285.96 -1.19848 6.21144 0
M  V30 13363 C 1284.62 -1.06084 6.59016 0
M  V30 13364 H 1283.89 -0.480534 0.564064 0
M  V30 13365 H 1286.54 -0.623449 1.81067 0
M  V30 13366 H 1284.84 -3.18834 2.27711 0
M  V30 13367 H 1286.54 -3.02479 2.63263 0
M  V30 13368 H 1283.13 -2.1058 3.73302 0
M  V30 13369 H 1287.31 -1.7465 4.64555 0
M  V30 13370 H 1282.57 -1.27814 5.97891 0
M  V30 13371 H 1286.74 -0.927657 6.90194 0
M  V30 13372 H 1284.37 -0.687834 7.57082 0
M  V30 13373 N 1285.95 -1.35615 -0.802897 0
M  V30 13374 C 1286.89 -1.28839 -1.91492 0
M  V30 13375 C 1287.86 -0.159621 -1.65331 0
M  V30 13376 O 1289.05 -0.343931 -1.87675 0
M  V30 13377 C 1286.19 -1.06999 -3.28093 0
M  V30 13378 C 1285.3 -2.28831 -3.66416 0
M  V30 13379 C 1284.44 -2.00111 -4.92066 0
M  V30 13380 C 1283.48 -3.17977 -5.23027 0
M  V30 13381 N 1282.61 -2.89009 -6.39858 0
M  V30 13382 H 1287.45 -2.2393 -1.96619 0
M  V30 13383 H 1284.99 -1.1131 -0.961687 0
M  V30 13384 H 1286.95 -0.923673 -4.06847 0
M  V30 13385 H 1285.58 -0.155684 -3.22424 0
M  V30 13386 H 1284.63 -2.54314 -2.82893 0
M  V30 13387 H 1285.94 -3.1683 -3.85253 0
M  V30 13388 H 1285.1 -1.82331 -5.78654 0
M  V30 13389 H 1283.84 -1.09402 -4.75271 0
M  V30 13390 H 1282.84 -3.3633 -4.34928 0
M  V30 13391 H 1284.07 -4.09493 -5.41749 0
M  V30 13392 H 1282.01 -2.00898 -6.24481 0
M  V30 13393 H 1281.93 -3.70544 -6.58964 0
M  V30 13394 H 1283.2 -2.74779 -7.29463 0
M  V30 13395 N 1287.43 1.02549 -1.19673 0
M  V30 13396 C 1288.37 2.109 -0.937536 0
M  V30 13397 C 1289.34 1.65599 0.128923 0
M  V30 13398 O 1290.53 1.90795 -0.0139366 0
M  V30 13399 C 1287.67 3.4166 -0.48602 0
M  V30 13400 C 1286.78 4.0049 -1.61963 0
M  V30 13401 C 1285.92 5.19273 -1.11931 0
M  V30 13402 C 1284.95 5.70166 -2.22659 0
M  V30 13403 N 1284.09 6.80221 -1.73909 0
M  V30 13404 H 1288.93 2.32408 -1.86523 0
M  V30 13405 H 1286.47 1.13982 -0.929869 0
M  V30 13406 H 1288.43 4.16693 -0.205614 0
M  V30 13407 H 1287.06 3.20253 0.404678 0
M  V30 13408 H 1286.11 3.22638 -2.01516 0
M  V30 13409 H 1287.42 4.34273 -2.45374 0
M  V30 13410 H 1286.57 6.01478 -0.794336 0
M  V30 13411 H 1285.31 4.87033 -0.254972 0
M  V30 13412 H 1284.32 4.86572 -2.55983 0
M  V30 13413 H 1285.54 6.04444 -3.09554 0
M  V30 13414 H 1283.49 6.49826 -0.897889 0
M  V30 13415 H 1283.41 7.13149 -2.50907 0
M  V30 13416 H 1284.67 7.66011 -1.44386 0
M  V30 13417 N 1288.9 1.00119 1.21713 0
M  V30 13418 C 1290.13 0.700172 1.95224 0
M  V30 13419 C 1290.55 -0.730138 1.73351 0
M  V30 13420 O 1289.91 -1.50026 1.01794 0
M  V30 13421 C 1289.96 1.02202 3.45814 0
M  V30 13422 O 1289.06 0.125188 4.1221 0
M  V30 13423 H 1288.4 0.261238 0.610451 0
M  V30 13424 H 1290.93 1.34041 1.54578 0
M  V30 13425 H 1290.94 0.967293 3.96368 0
M  V30 13426 H 1289.62 2.06422 3.61058 0
M  V30 13427 H 1288.2 0.236114 3.72152 0
M  V30 13428 N 1290.38 -1.37203 0.775435 0
M  V30 13429 C 1291.34 -2.28566 0.170406 0
M  V30 13430 C 1292.34 -1.48195 -0.624085 0
M  V30 13431 O 1293.53 -1.68364 -0.447132 0
M  V30 13432 C 1290.67 -3.32186 -0.765829 0
M  V30 13433 H 1291.86 -2.8358 0.975824 0
M  V30 13434 H 1289.41 -1.46531 0.543895 0
M  V30 13435 H 1290.15 -2.82303 -1.59611 0
M  V30 13436 H 1289.93 -3.91598 -0.198251 0
M  V30 13437 H 1291.42 -4.0045 -1.18446 0
M  V30 13438 N 1291.86 -0.526279 -1.48553 0
M  V30 13439 C 1292.81 0.251938 -2.31232 0
M  V30 13440 C 1293.8 0.938991 -1.40994 0
M  V30 13441 O 1295.01 0.863798 -1.57919 0
M  V30 13442 H 1291.38 0.100114 -0.745306 0
M  V30 13443 H 1293.35 -0.465013 -2.94754 0
M  V30 13444 C 1292.1 1.28816 -3.22958 0
M  V30 13445 H 1291.43 0.768899 -3.92337 0
M  V30 13446 H 1292.87 1.80417 -3.837 0
M  V30 13447 C 1291.32 2.31982 -2.44307 0
M  V30 13448 O 1291.85 3.3835 -2.16523 0
M  V30 13449 N 1290.06 2.051 -2.05869 0
M  V30 13450 H 1289.61 1.18618 -2.28665 0
M  V30 13451 H 1289.57 2.74349 -1.53557 0
M  V30 13452 N 1293.34 1.5542 -0.261239 0
M  V30 13453 C 1294.59 1.9846 0.360052 0
M  V30 13454 C 1294.9 1.15288 1.58013 0
M  V30 13455 O 1296.11 1.48408 2.27348 0
M  V30 13456 C 1294.56 3.53185 0.691964 0
M  V30 13457 C 1294.17 4.45116 -0.507521 0
M  V30 13458 C 1295.91 4.04848 1.27665 0
M  V30 13459 C 1293.82 5.91207 -0.150966 0
M  V30 13460 H 1292.75 0.741207 0.138303 0
M  V30 13461 H 1295.4 1.79859 -0.363712 0
M  V30 13462 H 1293.78 3.67535 1.47425 0
M  V30 13463 H 1294.96 4.42531 -1.28465 0
M  V30 13464 H 1293.27 4.04013 -1.0081 0
M  V30 13465 H 1295.87 5.11529 1.55699 0
M  V30 13466 H 1296.21 3.5305 2.20593 0
M  V30 13467 H 1296.75 3.93882 0.556955 0
M  V30 13468 H 1293.48 6.47072 -1.04776 0
M  V30 13469 H 1293 5.96894 0.589671 0
M  V30 13470 H 1294.68 6.4647 0.261772 0
M  V30 13471 N 1294.82 -0.0116844 1.57596 0
M  V30 13472 C 1295.73 -1.02342 2.111 0
M  V30 13473 C 1296.74 -1.38478 1.05355 0
M  V30 13474 O 1297.92 -1.47447 1.37191 0
M  V30 13475 C 1294.98 -2.30016 2.5941 0
M  V30 13476 C 1294.04 -2.003 3.79708 0
M  V30 13477 C 1293.28 -3.21888 4.25704 0
M  V30 13478 O 1293.5 -4.33171 3.71106 0
M  V30 13479 O 1292.43 -3.0657 5.17975 0
M  V30 13480 H 1296.26 -0.598637 2.97742 0
M  V30 13481 H 1293.84 -0.229779 1.47622 0
M  V30 13482 H 1295.73 -3.05044 2.90733 0
M  V30 13483 H 1294.4 -2.71755 1.75871 0
M  V30 13484 H 1293.31 -1.22785 3.53376 0
M  V30 13485 H 1294.64 -1.63406 4.64284 0
M  V30 13486 N 1296.29 -1.55015 -0.284256 0
M  V30 13487 C 1297.26 -1.8636 -1.33426 0
M  V30 13488 C 1298.26 -0.737457 -1.42892 0
M  V30 13489 O 1299.45 -1.00569 -1.42238 0
M  V30 13490 C 1296.58 -2.05884 -2.71707 0
M  V30 13491 H 1297.77 -2.80212 -1.06869 0
M  V30 13492 H 1295.32 -1.47334 -0.521767 0
M  V30 13493 H 1296.06 -1.14376 -3.03461 0
M  V30 13494 H 1295.84 -2.87867 -2.66224 0
M  V30 13495 H 1297.33 -2.31447 -3.47595 0
M  V30 13496 N 1297.77 0.548248 -1.47757 0
M  V30 13497 C 1299.02 1.30694 -1.55071 0
M  V30 13498 C 1299.35 1.92994 -0.216075 0
M  V30 13499 O 1298.63 1.78341 0.776196 0
M  V30 13500 C 1298.91 2.41024 -2.67543 0
M  V30 13501 C 1298.76 1.83534 -4.10652 0
M  V30 13502 C 1300.08 3.42902 -2.75874 0
M  V30 13503 H 1297.2 0.47383 -0.564494 0
M  V30 13504 H 1299.84 0.612628 -1.79852 0
M  V30 13505 H 1297.99 3.00248 -2.46543 0
M  V30 13506 H 1299.66 1.28503 -4.4304 0
M  V30 13507 H 1297.91 1.14161 -4.18509 0
M  V30 13508 H 1298.58 2.63335 -4.85138 0
M  V30 13509 H 1301.05 2.9361 -2.94843 0
M  V30 13510 H 1299.93 4.17516 -3.5633 0
M  V30 13511 H 1300.19 4.02314 -1.83291 0
M  V30 13512 N 1299.25 1.36039 0.795694 0
M  V30 13513 C 1300.53 1.20474 1.54096 0
M  V30 13514 C 1300.91 -0.211691 2.10036 0
M  V30 13515 O 1300.25 -1.21656 1.93422 0
M  V30 13516 C 1300.46 2.28164 2.64087 0
M  V30 13517 C 1301.81 2.64519 3.32137 0
M  V30 13518 O 1302.84 2.2716 2.74366 0
M  V30 13519 O 1301.7 3.28796 4.36527 0
M  V30 13520 H 1298.79 0.468699 0.681359 0
M  V30 13521 H 1301.34 1.47752 0.834716 0
M  V30 13522 H 1300.11 3.23121 2.20701 0
M  V30 13523 H 1299.73 2.02217 3.42336 0
M  V30 13524 N 1300.73 -1.01913 1.20215 0
M  V30 13525 C 1301.97 -1.7573 1.01226 0
M  V30 13526 C 1302.31 -1.88799 -0.45481 0
M  V30 13527 O 1301.58 -1.41196 -1.33768 0
M  V30 13528 C 1301.87 -3.17795 1.69348 0
M  V30 13529 C 1301.72 -3.12536 3.23483 0
M  V30 13530 C 1303.04 -4.16409 1.42448 0
M  V30 13531 H 1300.16 -0.637889 0.369144 0
M  V30 13532 H 1302.8 -1.18907 1.48193 0
M  V30 13533 H 1300.95 -3.66311 1.29416 0
M  V30 13534 H 1302.62 -2.71843 3.72692 0
M  V30 13535 H 1300.86 -2.49997 3.54519 0
M  V30 13536 H 1301.53 -4.12949 3.66302 0
M  V30 13537 H 1304.01 -3.76537 1.77086 0
M  V30 13538 H 1302.89 -5.13983 1.92648 0
M  V30 13539 H 1303.15 -4.407 0.351574 0
M  V30 13540 N 1302.21 -1.00763 -1.2118 0
M  V30 13541 C 1303.17 -0.575183 -2.21865 0
M  V30 13542 C 1304.17 0.349871 -1.56948 0
M  V30 13543 O 1305.36 0.139795 -1.73638 0
M  V30 13544 C 1302.49 0.161308 -3.40518 0
M  V30 13545 H 1303.68 -1.46578 -2.61639 0
M  V30 13546 H 1301.24 -0.79643 -1.34487 0
M  V30 13547 H 1301.97 1.06723 -3.06236 0
M  V30 13548 H 1301.76 -0.503101 -3.88859 0
M  V30 13549 H 1303.25 0.451527 -4.15152 0
M  V30 13550 N 1303.68 1.3679 -0.7827 0
M  V30 13551 C 1304.63 2.30139 -0.174595 0
M  V30 13552 C 1305.6 1.51645 0.677714 0
M  V30 13553 O 1306.79 1.80176 0.627796 0
M  V30 13554 C 1303.93 3.38133 0.689936 0
M  V30 13555 C 1303.04 4.31624 -0.180179 0
M  V30 13556 C 1302.17 5.26698 0.69009 0
M  V30 13557 C 1301.21 6.1183 -0.181891 0
M  V30 13558 N 1300.35 6.99113 0.646977 0
M  V30 13559 H 1305.19 2.81559 -0.97613 0
M  V30 13560 H 1302.73 1.38595 -0.492944 0
M  V30 13561 H 1304.69 3.99386 1.2061 0
M  V30 13562 H 1303.32 2.88049 1.45696 0
M  V30 13563 H 1302.37 3.71583 -0.81425 0
M  V30 13564 H 1303.68 4.91464 -0.852337 0
M  V30 13565 H 1302.83 5.93209 1.27232 0
M  V30 13566 H 1301.57 4.67297 1.3959 0
M  V30 13567 H 1300.58 5.44288 -0.776572 0
M  V30 13568 H 1301.8 6.73306 -0.885195 0
M  V30 13569 H 1299.75 6.42227 1.3372 0
M  V30 13570 H 1299.67 7.55993 0.0323547 0
M  V30 13571 H 1300.93 7.7 1.21325 0
M  V30 13572 N 1305.16 0.53415 1.48272 0
M  V30 13573 C 1306.58 0.192291 1.58437 0
M  V30 13574 C 1306.78 -1.3046 1.53566 0
M  V30 13575 O 1305.83 -2.08316 1.42692 0
M  V30 13576 C 1307.15 0.798515 2.89904 0
M  V30 13577 C 1308.7 0.76763 3.03441 0
M  V30 13578 C 1309.17 1.3525 4.37574 0
M  V30 13579 N 1310.66 1.31466 4.44152 0
M  V30 13580 C 1311.4 1.73706 5.46456 0
M  V30 13581 N 1310.89 2.23695 6.55692 0
M  V30 13582 N 1312.69 1.64918 5.37363 0
M  V30 13583 H 1304.84 1.50696 1.49681 0
M  V30 13584 H 1307.1 0.627073 0.710973 0
M  V30 13585 H 1306.81 1.8496 2.99136 0
M  V30 13586 H 1306.68 0.278033 3.76174 0
M  V30 13587 H 1309.07 -0.274704 2.93819 0
M  V30 13588 H 1309.15 1.32562 2.18771 0
M  V30 13589 H 1308.79 2.39379 4.47951 0
M  V30 13590 H 1308.72 0.770153 5.20938 0
M  V30 13591 H 1311.21 0.948761 3.65796 0
M  V30 13592 H 1311.53 2.5391 7.29897 0
M  V30 13593 H 1309.87 2.27691 6.56644 0
M  V30 13594 H 1313.06 1.25658 4.50919 0
M  V30 13595 H 1313.23 1.98157 6.16958 0
M  V30 13596 N 1306.64 -1.55279 0.269478 0
M  V30 13597 C 1307.57 -2.25278 -0.614188 0
M  V30 13598 C 1308.55 -1.24092 -1.1634 0
M  V30 13599 O 1309.74 -1.52799 -1.19858 0
M  V30 13600 C 1306.87 -2.96956 -1.80096 0
M  V30 13601 C 1305.82 -4.05021 -1.38353 0
M  V30 13602 C 1305.15 -4.64244 -2.65295 0
M  V30 13603 C 1306.45 -5.19523 -0.537886 0
M  V30 13604 H 1308.14 -2.99385 -0.0304397 0
M  V30 13605 H 1305.69 -1.43994 -0.0132004 0
M  V30 13606 H 1307.64 -3.44633 -2.42499 0
M  V30 13607 H 1306.36 -2.20374 -2.41045 0
M  V30 13608 H 1305.02 -3.58146 -0.78273 0
M  V30 13609 H 1304.67 -3.84337 -3.2449 0
M  V30 13610 H 1304.37 -5.37208 -2.38079 0
M  V30 13611 H 1305.89 -5.14668 -3.28557 0
M  V30 13612 H 1307.31 -5.63287 -1.06677 0
M  V30 13613 H 1305.71 -5.99014 -0.360845 0
M  V30 13614 H 1306.78 -4.82857 0.444672 0
M  V30 13615 N 1308.12 0.00332656 -1.576 0
M  V30 13616 C 1309.05 1.02391 -2.05058 0
M  V30 13617 C 1310.06 1.30903 -0.967901 0
M  V30 13618 O 1311.25 1.27937 -1.24476 0
M  V30 13619 C 1308.35 2.35947 -2.43274 0
M  V30 13620 C 1307.53 2.26423 -3.74234 0
M  V30 13621 C 1306.58 3.4264 -3.99355 0
M  V30 13622 O 1305.61 3.20977 -4.70067 0
M  V30 13623 N 1306.81 4.65379 -3.46991 0
M  V30 13624 H 1309.58 0.619216 -2.93233 0
M  V30 13625 H 1307.14 0.190777 -1.60772 0
M  V30 13626 H 1309.13 3.12462 -2.57196 0
M  V30 13627 H 1307.7 2.6817 -1.60635 0
M  V30 13628 H 1306.92 1.34841 -3.70421 0
M  V30 13629 H 1308.21 2.17229 -4.60097 0
M  V30 13630 H 1307.61 4.85878 -2.89723 0
M  V30 13631 H 1306.16 5.39171 -3.66249 0
M  V30 13632 N 1309.6 1.55164 0.276031 0
M  V30 13633 C 1310.87 1.66338 1.02913 0
M  V30 13634 C 1311.25 0.527876 2.04393 0
M  V30 13635 O 1310.6 -0.472437 2.23563 0
M  V30 13636 C 1310.81 3.05427 1.68865 0
M  V30 13637 C 1312.16 3.63075 2.2014 0
M  V30 13638 O 1313.18 3.0804 1.78857 0
M  V30 13639 O 1312.04 4.59492 2.95854 0
M  V30 13640 H 1309.14 0.675446 0.477181 0
M  V30 13641 H 1311.68 1.67504 0.272129 0
M  V30 13642 H 1310.45 3.79514 0.953125 0
M  V30 13643 H 1310.08 3.08147 2.5126 0
M  V30 13644 N 1311.07 -0.540404 1.48045 0
M  V30 13645 C 1312.3 -1.31986 1.58944 0
M  V30 13646 C 1312.71 -1.87608 0.244889 0
M  V30 13647 O 1312.06 -1.66576 -0.774467 0
M  V30 13648 C 1312.12 -2.51547 2.56835 0
M  V30 13649 C 1311.78 -2.17089 4.02146 0
M  V30 13650 C 1312.78 -1.73379 4.90138 0
M  V30 13651 C 1310.46 -2.27932 4.47607 0
M  V30 13652 C 1312.46 -1.40964 6.21617 0
M  V30 13653 C 1310.14 -1.95129 5.7911 0
M  V30 13654 C 1311.14 -1.51715 6.65937 0
M  V30 13655 O 1310.83 -1.19337 7.94993 0
M  V30 13656 H 1310.56 -0.408028 0.538971 0
M  V30 13657 H 1313.12 -0.659748 1.94516 0
M  V30 13658 H 1311.35 -3.20505 2.16364 0
M  V30 13659 H 1313.04 -3.13617 2.57681 0
M  V30 13660 H 1313.8 -1.64481 4.56258 0
M  V30 13661 H 1309.68 -2.6068 3.8022 0
M  V30 13662 H 1313.22 -1.07005 6.89344 0
M  V30 13663 H 1309.12 -2.03664 6.12528 0
M  V30 13664 H 1309.89 -1.32824 8.07651 0
M  V30 13665 N 1312.55 -1.36459 -0.788468 0
M  V30 13666 C 1313.8 -1.30483 -1.54333 0
M  V30 13667 C 1314.12 0.115266 -1.94659 0
M  V30 13668 O 1313.39 1.05573 -1.65019 0
M  V30 13669 H 1311.97 -0.480004 -0.572368 0
M  V30 13670 H 1314.63 -1.70765 -0.939428 0
M  V30 13671 H 1313.73 -1.93284 -2.45046 0
M  V30 13672 N 1314.03 1.01274 -1.20754 0
M  V30 13673 C 1315.28 1.74932 -1.02005 0
M  V30 13674 C 1315.61 1.89285 0.447372 0
M  V30 13675 O 1314.86 1.41838 1.34835 0
M  V30 13676 C 1315.16 3.16862 -1.65329 0
M  V30 13677 C 1314.83 3.22476 -3.15151 0
M  V30 13678 C 1313.49 3.23715 -3.56036 0
M  V30 13679 C 1315.84 3.20332 -4.11141 0
M  V30 13680 C 1313.17 3.20487 -4.91431 0
M  V30 13681 C 1315.52 3.18646 -5.46487 0
M  V30 13682 C 1314.18 3.18191 -5.8678 0
M  V30 13683 H 1313.45 0.640121 -0.373264 0
M  V30 13684 H 1316.1 1.18751 -1.50234 0
M  V30 13685 H 1314.41 3.76225 -1.09372 0
M  V30 13686 H 1316.1 3.72556 -1.48333 0
M  V30 13687 H 1312.69 3.22249 -2.82584 0
M  V30 13688 H 1316.88 3.18541 -3.80585 0
M  V30 13689 H 1312.13 3.18468 -5.21908 0
M  V30 13690 H 1316.31 3.1594 -6.20609 0
M  V30 13691 H 1313.93 3.15443 -6.91664 0
M  V30 13692 N 1315.51 1.01404 1.20644 0
M  V30 13693 C 1316.46 0.552956 2.21193 0
M  V30 13694 C 1317.44 -0.390324 1.56094 0
M  V30 13695 O 1318.64 -0.213705 1.75705 0
M  V30 13696 C 1315.76 -0.10995 3.43124 0
M  V30 13697 C 1314.85 0.854886 4.15394 0
M  V30 13698 N 1315.24 2.01137 4.64088 0
M  V30 13699 C 1313.54 0.675168 4.4086 0
M  V30 13700 C 1314.24 2.6187 5.19422 0
M  V30 13701 N 1313.22 1.89952 5.09332 0
M  V30 13702 H 1317.02 1.43467 2.56504 0
M  V30 13703 H 1314.53 0.87905 1.36552 0
M  V30 13704 H 1316.53 -0.457802 4.14379 0
M  V30 13705 H 1315.19 -0.987534 3.09318 0
M  V30 13706 H 1316.2 2.3914 4.59383 0
M  V30 13707 H 1312.88 -0.154577 4.17214 0
M  V30 13708 H 1314.27 3.59727 5.67491 0
M  V30 13709 N 1316.99 -1.36373 0.789944 0
M  V30 13710 C 1317.95 -2.28372 0.194639 0
M  V30 13711 C 1318.95 -1.48849 -0.608332 0
M  V30 13712 O 1320.14 -1.68829 -0.42925 0
M  V30 13713 C 1317.27 -3.3298 -0.730553 0
M  V30 13714 H 1318.47 -2.82529 1.00585 0
M  V30 13715 H 1316.02 -1.45946 0.559406 0
M  V30 13716 H 1316.75 -2.8398 -1.56608 0
M  V30 13717 H 1316.54 -3.91787 -0.156706 0
M  V30 13718 H 1318.03 -4.01684 -1.14192 0
M  V30 13719 N 1318.47 -0.542005 -1.47987 0
M  V30 13720 C 1319.88 -0.104646 -1.86406 0
M  V30 13721 C 1320.23 1.32139 -1.4503 0
M  V30 13722 O 1319.35 1.99159 -0.846439 0
M  V30 13723 C 1319.95 -0.183133 -3.38305 0
M  V30 13724 C 1318.51 0.199098 -3.75873 0
M  V30 13725 C 1317.65 -0.537532 -2.7204 0
M  V30 13726 H 1320.6 -0.75259 -1.3972 0
M  V30 13727 H 1320.63 0.602149 -3.75705 0
M  V30 13728 H 1320.14 -1.22113 -3.68389 0
M  V30 13729 H 1318.24 1.23878 -3.51404 0
M  V30 13730 H 1318.35 -0.14888 -4.78869 0
M  V30 13731 H 1316.72 0.0176255 -2.54694 0
M  V30 13732 H 1317.5 -1.57639 -3.04967 0
M  V30 13733 N 1319.94 1.55134 -0.277709 0
M  V30 13734 C 1321.17 2.04061 0.341601 0
M  V30 13735 C 1321.59 1.15597 1.49274 0
M  V30 13736 O 1320.94 0.176625 1.81643 0
M  V30 13737 C 1320.99 3.52074 0.820139 0
M  V30 13738 O 1320.72 4.37171 -0.28516 0
M  V30 13739 C 1322.22 4.16899 1.507 0
M  V30 13740 H 1319.44 0.666501 0.0775708 0
M  V30 13741 H 1321.98 2.00336 -0.410559 0
M  V30 13742 H 1320.14 3.56233 1.52238 0
M  V30 13743 H 1320.55 5.24434 0.0832022 0
M  V30 13744 H 1322.02 5.22061 1.79323 0
M  V30 13745 H 1322.5 3.65227 2.43939 0
M  V30 13746 H 1323.11 4.16749 0.848541 0
M  V30 13747 N 1321.42 0.00503138 1.57599 0
M  V30 13748 C 1322.35 -1.01883 2.04194 0
M  V30 13749 C 1323.33 -1.33183 0.9328 0
M  V30 13750 O 1324.52 -1.45261 1.20131 0
M  V30 13751 C 1321.64 -2.34515 2.44377 0
M  V30 13752 C 1320.69 -2.18843 3.66074 0
M  V30 13753 S 1321.52 -1.50975 5.13777 0
M  V30 13754 C 1322.68 -2.85027 5.57235 0
M  V30 13755 H 1322.91 -0.622099 2.90718 0
M  V30 13756 H 1320.44 -0.205983 1.5302 0
M  V30 13757 H 1322.4 -3.10775 2.68196 0
M  V30 13758 H 1321.06 -2.71327 1.58243 0
M  V30 13759 H 1320.26 -3.16836 3.91958 0
M  V30 13760 H 1319.86 -1.50727 3.42283 0
M  V30 13761 H 1322.15 -3.81318 5.60002 0
M  V30 13762 H 1323.09 -2.63837 6.57112 0
M  V30 13763 H 1323.5 -2.89168 4.84812 0
M  V30 13764 N 1322.9 -1.55308 -0.267798 0
M  V30 13765 C 1324.12 -1.80524 -1.02107 0
M  V30 13766 C 1324.55 -0.579268 -1.78958 0
M  V30 13767 O 1323.91 0.471262 -1.75068 0
M  V30 13768 C 1323.96 -3.03248 -1.95123 0
M  V30 13769 O 1323.06 -2.78699 -3.03975 0
M  V30 13770 H 1322.4 -0.596518 -0.291655 0
M  V30 13771 H 1324.93 -2.0246 -0.295128 0
M  V30 13772 H 1324.94 -3.32121 -2.3698 0
M  V30 13773 H 1323.62 -3.92126 -1.386 0
M  V30 13774 H 1322.19 -2.60936 -2.66396 0
M  V30 13775 N 1324.38 0.532545 -1.4833 0
M  V30 13776 C 1325.62 1.28795 -1.57427 0
M  V30 13777 C 1325.98 1.90848 -0.243885 0
M  V30 13778 O 1325.27 1.76183 0.753 0
M  V30 13779 C 1325.47 2.40117 -2.64724 0
M  V30 13780 C 1325.29 1.88976 -4.08066 0
M  V30 13781 C 1324.06 1.71696 -4.75235 0
M  V30 13782 C 1326.26 1.41979 -4.94314 0
M  V30 13783 N 1324.24 1.15154 -6.03003 0
M  V30 13784 C 1325.62 0.973661 -6.12307 0
M  V30 13785 C 1327.67 1.30258 -4.80559 0
M  V30 13786 C 1326.37 0.42195 -7.18061 0
M  V30 13787 C 1328.4 0.764867 -5.86433 0
M  V30 13788 C 1327.76 0.328799 -7.03632 0
M  V30 13789 H 1323.86 0.462412 -0.630634 0
M  V30 13790 H 1326.44 0.600796 -1.85199 0
M  V30 13791 H 1324.62 3.06332 -2.38779 0
M  V30 13792 H 1326.35 3.07146 -2.63521 0
M  V30 13793 H 1323.1 1.95143 -4.31528 0
M  V30 13794 H 1323.53 0.888999 -6.71138 0
M  V30 13795 H 1328.17 1.62578 -3.90293 0
M  V30 13796 H 1325.89 0.0864233 -8.08054 0
M  V30 13797 H 1329.47 0.677391 -5.77843 0
M  V30 13798 H 1328.35 -0.0808116 -7.84158 0
M  V30 13799 N 1325.86 1.36875 0.78122 0
M  V30 13800 C 1327.27 1.28236 1.35692 0
M  V30 13801 C 1327.62 -0.0742286 1.9606 0
M  V30 13802 O 1326.74 -0.97588 1.93146 0
M  V30 13803 C 1327.34 2.32215 2.46702 0
M  V30 13804 C 1325.9 2.2724 3.00065 0
M  V30 13805 C 1325.04 2.16553 1.73206 0
M  V30 13806 H 1327.99 1.47634 0.582217 0
M  V30 13807 H 1328.02 1.96333 3.25935 0
M  V30 13808 H 1327.53 3.30938 2.02735 0
M  V30 13809 H 1325.63 1.3201 3.48431 0
M  V30 13810 H 1325.74 3.20267 3.56323 0
M  V30 13811 H 1324.11 1.62941 1.95761 0
M  V30 13812 H 1324.89 3.17176 1.31356 0
M  V30 13813 N 1327.33 -1.00632 1.21289 0
M  V30 13814 C 1328.58 -1.74647 1.03084 0
M  V30 13815 C 1328.91 -1.89271 -0.43476 0
M  V30 13816 O 1328.19 -1.42607 -1.32263 0
M  V30 13817 C 1328.47 -3.15981 1.72709 0
M  V30 13818 C 1328.32 -3.09088 3.2678 0
M  V30 13819 C 1329.64 -4.14875 1.46857 0
M  V30 13820 H 1326.76 -0.633938 0.375889 0
M  V30 13821 H 1329.4 -1.17328 1.49446 0
M  V30 13822 H 1327.55 -3.64918 1.33294 0
M  V30 13823 H 1329.23 -2.67875 3.75554 0
M  V30 13824 H 1327.47 -2.46223 3.57151 0
M  V30 13825 H 1328.14 -4.09041 3.70661 0
M  V30 13826 H 1330.62 -3.74637 1.81069 0
M  V30 13827 H 1329.49 -5.1191 1.98088 0
M  V30 13828 H 1329.75 -4.40302 0.398296 0
M  V30 13829 N 1328.81 -1.02043 -1.20104 0
M  V30 13830 C 1329.77 -0.598682 -2.21243 0
M  V30 13831 C 1330.77 0.333205 -1.5731 0
M  V30 13832 O 1331.96 0.12137 -1.73777 0
M  V30 13833 C 1329.1 0.125183 -3.4067 0
M  V30 13834 H 1330.29 -1.49345 -2.60069 0
M  V30 13835 H 1327.84 -0.810649 -1.33634 0
M  V30 13836 H 1328.58 1.03469 -3.07351 0
M  V30 13837 H 1328.36 -0.544316 -3.88304 0
M  V30 13838 H 1329.85 0.407469 -4.15607 0
M  V30 13839 N 1330.29 1.35952 -0.797165 0
M  V30 13840 C 1331.54 1.98639 -0.372405 0
M  V30 13841 C 1331.86 1.63571 1.06158 0
M  V30 13842 O 1331.13 0.913516 1.73297 0
M  V30 13843 H 1329.71 0.734753 -0.13471 0
M  V30 13844 H 1332.37 1.66022 -1.02092 0
M  V30 13845 H 1331.47 3.08533 -0.47049 0
M  V30 13846 N 1331.77 0.549846 1.47697 0
M  V30 13847 C 1333 0.0276889 2.06881 0
M  V30 13848 C 1333.41 -1.26273 1.40359 0
M  V30 13849 O 1332.77 -1.75584 0.497644 0
M  V30 13850 C 1332.82 -0.179291 3.61055 0
M  V30 13851 O 1332.54 1.06002 4.25083 0
M  V30 13852 C 1334.04 -0.739571 4.37087 0
M  V30 13853 H 1331.26 0.0425016 0.669653 0
M  V30 13854 H 1333.81 0.761158 1.89807 0
M  V30 13855 H 1331.96 -0.862867 3.77668 0
M  V30 13856 H 1332.37 0.853137 5.17515 0
M  V30 13857 H 1333.85 -0.833722 5.45668 0
M  V30 13858 H 1334.33 -1.74915 4.02867 0
M  V30 13859 H 1334.93 -0.0919294 4.25201 0
M  V30 13860 N 1333.25 -1.54984 0.285932 0
M  V30 13861 C 1334.18 -2.25916 -0.590259 0
M  V30 13862 C 1335.16 -1.25319 -1.15018 0
M  V30 13863 O 1336.34 -1.54062 -1.18231 0
M  V30 13864 C 1333.47 -2.98849 -1.76936 0
M  V30 13865 C 1332.43 -4.06466 -1.3405 0
M  V30 13866 C 1331.75 -4.67032 -2.60356 0
M  V30 13867 C 1333.05 -5.20064 -0.482754 0
M  V30 13868 H 1334.75 -2.994 0.00131571 0
M  V30 13869 H 1332.29 -1.44 0.00207281 0
M  V30 13870 H 1334.25 -3.47186 -2.3883 0
M  V30 13871 H 1332.97 -2.22918 -2.38694 0
M  V30 13872 H 1331.63 -3.58957 -0.7447 0
M  V30 13873 H 1331.28 -3.87757 -3.20396 0
M  V30 13874 H 1330.98 -5.39703 -2.32368 0
M  V30 13875 H 1332.5 -5.18124 -3.23079 0
M  V30 13876 H 1333.91 -5.64387 -1.00697 0
M  V30 13877 H 1332.31 -5.99363 -0.297291 0
M  V30 13878 H 1333.38 -4.82358 0.495861 0
M  V30 13879 N 1334.72 -0.0133892 -1.57594 0
M  V30 13880 C 1335.66 1.00798 -2.04731 0
M  V30 13881 C 1336.64 1.32686 -0.93985 0
M  V30 13882 O 1337.82 1.44622 -1.209 0
M  V30 13883 C 1334.95 2.33216 -2.45618 0
M  V30 13884 C 1333.99 2.16898 -3.67229 0
M  V30 13885 S 1334.83 1.48248 -5.14571 0
M  V30 13886 C 1335.98 2.82068 -5.58738 0
M  V30 13887 H 1336.21 0.606673 -2.91044 0
M  V30 13888 H 1333.75 0.197865 -1.53127 0
M  V30 13889 H 1335.71 3.09348 -2.69841 0
M  V30 13890 H 1334.37 2.70483 -1.59679 0
M  V30 13891 H 1333.56 3.14753 -3.93632 0
M  V30 13892 H 1333.16 1.4891 -3.43077 0
M  V30 13893 H 1335.45 3.78343 -5.62017 0
M  V30 13894 H 1336.4 2.60348 -6.58502 0
M  V30 13895 H 1336.8 2.86592 -4.86338 0
M  V30 13896 N 1336.2 1.55448 0.259558 0
M  V30 13897 C 1337.45 1.76948 0.990816 0
M  V30 13898 C 1337.78 0.576401 1.85449 0
M  V30 13899 O 1337.06 -0.425693 1.89784 0
M  V30 13900 C 1337.34 3.08221 1.86204 0
M  V30 13901 C 1337.19 4.37909 1.0274 0
M  V30 13902 C 1338.51 3.35627 2.84679 0
M  V30 13903 H 1335.63 0.64377 0.358788 0
M  V30 13904 H 1338.27 1.88182 0.262211 0
M  V30 13905 H 1336.42 2.98775 2.48326 0
M  V30 13906 H 1338.09 4.5933 0.425855 0
M  V30 13907 H 1336.34 4.32533 0.331308 0
M  V30 13908 H 1337.01 5.26116 1.6705 0
M  V30 13909 H 1339.48 3.44954 2.32693 0
M  V30 13910 H 1338.36 4.28719 3.42769 0
M  V30 13911 H 1338.62 2.55921 3.60496 0
M  V30 13912 N 1337.68 -0.524672 1.4861 0
M  V30 13913 C 1338.59 -1.65554 1.6622 0
M  V30 13914 C 1339.61 -1.65254 0.54471 0
M  V30 13915 O 1340.78 -1.84109 0.816454 0
M  V30 13916 C 1337.85 -3.02003 1.7028 0
M  V30 13917 C 1336.91 -3.13116 2.93695 0
M  V30 13918 C 1336.14 -4.43055 2.97553 0
M  V30 13919 O 1336.36 -5.30468 2.09667 0
M  V30 13920 O 1335.3 -4.58646 3.89779 0
M  V30 13921 H 1339.12 -1.53633 2.61974 0
M  V30 13922 H 1336.71 -0.698354 1.32073 0
M  V30 13923 H 1338.59 -3.83143 1.75441 0
M  V30 13924 H 1337.27 -3.14236 0.777002 0
M  V30 13925 H 1336.17 -2.31251 2.94064 0
M  V30 13926 H 1337.51 -3.058 3.85677 0
M  V30 13927 N 1339.16 -1.37287 -0.77395 0
M  V30 13928 C 1340.57 -1.28954 -1.3501 0
M  V30 13929 C 1340.92 0.0638301 -1.96096 0
M  V30 13930 O 1340.05 0.965624 -1.93661 0
M  V30 13931 C 1340.64 -2.3352 -2.45467 0
M  V30 13932 C 1339.2 -2.28828 -2.98856 0
M  V30 13933 C 1338.35 -2.17468 -1.72055 0
M  V30 13934 H 1341.3 -1.47941 -0.57438 0
M  V30 13935 H 1341.32 -1.98058 -3.24889 0
M  V30 13936 H 1340.83 -3.32009 -2.00977 0
M  V30 13937 H 1338.93 -1.33855 -3.47726 0
M  V30 13938 H 1339.04 -3.22152 -3.54619 0
M  V30 13939 H 1337.41 -1.63977 -1.94894 0
M  V30 13940 H 1338.19 -3.17868 -1.29672 0
M  V30 13941 N 1340.64 0.999871 -1.21821 0
M  V30 13942 C 1341.86 1.77405 -1.06467 0
M  V30 13943 C 1342.28 1.84828 0.385227 0
M  V30 13944 O 1341.64 1.31338 1.26714 0
M  V30 13945 C 1341.69 3.21062 -1.66137 0
M  V30 13946 O 1341.41 3.14054 -3.05454 0
M  V30 13947 C 1342.91 4.14958 -1.55963 0
M  V30 13948 H 1340.13 0.557368 -0.373607 0
M  V30 13949 H 1342.67 1.2575 -1.61267 0
M  V30 13950 H 1340.83 3.69808 -1.15416 0
M  V30 13951 H 1341.24 4.04346 -3.34073 0
M  V30 13952 H 1342.72 5.13536 -2.02448 0
M  V30 13953 H 1343.19 4.36171 -0.514949 0
M  V30 13954 H 1343.8 3.72105 -2.05956 0
M  V30 13955 N 1342.11 1.02678 1.19562 0
M  V30 13956 C 1343.02 0.615738 2.26375 0
M  V30 13957 C 1344.04 -0.351525 1.70412 0
M  V30 13958 O 1345.22 -0.209932 2.00303 0
M  V30 13959 C 1342.28 -0.0292135 3.46688 0
M  V30 13960 C 1341.34 0.985284 4.1784 0
M  V30 13961 C 1340.58 0.371016 5.32409 0
M  V30 13962 O 1340.8 -0.826591 5.64379 0
M  V30 13963 O 1339.73 1.09282 5.91896 0
M  V30 13964 H 1343.56 1.50526 2.63772 0
M  V30 13965 H 1341.14 0.796847 1.26375 0
M  V30 13966 H 1343.03 -0.38893 4.19601 0
M  V30 13967 H 1341.7 -0.892778 3.11145 0
M  V30 13968 H 1340.61 1.39655 3.47055 0
M  V30 13969 H 1341.94 1.81915 4.57349 0
M  V30 13970 N 1343.59 -1.35528 0.804364 0
M  V30 13971 C 1344.82 -2.03604 0.395013 0
M  V30 13972 C 1345.24 -1.60225 -0.985371 0
M  V30 13973 O 1344.6 -0.777844 -1.63766 0
M  V30 13974 C 1344.65 -3.57337 0.484011 0
M  V30 13975 O 1343.75 -4.09316 -0.503395 0
M  V30 13976 H 1343.09 -0.643089 0.165325 0
M  V30 13977 H 1345.62 -1.73171 1.08963 0
M  V30 13978 H 1345.63 -4.0647 0.353009 0
M  V30 13979 H 1344.31 -3.8826 1.49088 0
M  V30 13980 H 1342.89 -3.71412 -0.332817 0
M  V30 13981 N 1345.07 -0.557671 -1.47404 0
M  V30 13982 C 1345.98 0.19289 -2.33806 0
M  V30 13983 C 1347 0.911424 -1.4822 0
M  V30 13984 O 1348.17 0.880214 -1.81147 0
M  V30 13985 C 1345.24 1.20937 -3.24923 0
M  V30 13986 C 1344.3 0.498209 -4.26399 0
M  V30 13987 C 1343.53 1.46626 -5.13163 0
M  V30 13988 O 1343.76 2.70111 -5.0239 0
M  V30 13989 O 1342.69 0.990497 -5.93694 0
M  V30 13990 H 1346.52 -0.515861 -2.99287 0
M  V30 13991 H 1344.1 -0.318283 -1.4597 0
M  V30 13992 H 1345.98 1.7961 -3.81206 0
M  V30 13993 H 1344.66 1.90003 -2.6207 0
M  V30 13994 H 1343.56 -0.129736 -3.73875 0
M  V30 13995 H 1344.9 -0.151015 -4.91968 0
M  V30 13996 N 1346.55 1.54831 -0.294147 0
M  V30 13997 C 1347.83 1.92071 0.369902 0
M  V30 13998 C 1348.21 1.22061 1.72233 0
M  V30 13999 O 1347.55 0.353975 2.25742 0
M  V30 14000 C 1347.76 3.45524 0.49135 0
M  V30 14001 C 1349.11 4.17644 0.765411 0
M  V30 14002 O 1350.14 3.51521 0.575428 0
M  V30 14003 O 1349 5.34692 1.12992 0
M  V30 14004 H 1346.09 0.801033 0.20561 0
M  V30 14005 H 1348.64 1.66224 -0.341702 0
M  V30 14006 H 1347.41 3.88591 -0.459663 0
M  V30 14007 H 1347.03 3.77384 1.25169 0
M  V30 14008 N 1348.03 0.0217466 1.57585 0
M  V30 14009 C 1348.97 -0.962559 2.0977 0
M  V30 14010 C 1349.94 -1.32771 0.998053 0
M  V30 14011 O 1351.13 -1.42231 1.27181 0
M  V30 14012 C 1348.27 -2.24214 2.62339 0
M  V30 14013 C 1347.38 -1.9341 3.86286 0
M  V30 14014 C 1346.52 -3.15609 4.27275 0
M  V30 14015 C 1345.56 -2.8059 5.43999 0
M  V30 14016 N 1344.69 -3.95392 5.8018 0
M  V30 14017 H 1349.53 -0.510626 2.93593 0
M  V30 14018 H 1347.07 -0.240456 1.45121 0
M  V30 14019 H 1349.03 -2.99049 2.90905 0
M  V30 14020 H 1347.66 -2.67037 1.81358 0
M  V30 14021 H 1346.71 -1.08849 3.64494 0
M  V30 14022 H 1348.02 -1.63614 4.71203 0
M  V30 14023 H 1347.18 -3.9877 4.57239 0
M  V30 14024 H 1345.92 -3.48561 3.41111 0
M  V30 14025 H 1344.92 -1.9584 5.13738 0
M  V30 14026 H 1346.15 -2.48863 6.31858 0
M  V30 14027 H 1344.09 -4.282 4.96971 0
M  V30 14028 H 1344.01 -3.69195 6.59721 0
M  V30 14029 H 1345.28 -4.79279 6.14746 0
M  V30 14030 N 1349.51 -1.55583 -0.251311 0
M  V30 14031 C 1350.47 -1.89148 -1.29443 0
M  V30 14032 C 1351.47 -0.7676 -1.41296 0
M  V30 14033 O 1352.66 -1.03563 -1.40073 0
M  V30 14034 C 1349.79 -2.11601 -2.67279 0
M  V30 14035 H 1350.98 -2.82416 -1.00901 0
M  V30 14036 H 1348.54 -1.48407 -0.490398 0
M  V30 14037 H 1349.27 -1.20787 -3.00967 0
M  V30 14038 H 1349.06 -2.93449 -2.60058 0
M  V30 14039 H 1350.55 -2.38768 -3.42607 0
M  V30 14040 N 1350.98 0.516783 -1.48886 0
M  V30 14041 C 1351.89 1.6467 -1.67095 0
M  V30 14042 C 1352.91 1.64963 -0.553466 0
M  V30 14043 O 1354.09 1.83673 -0.826206 0
M  V30 14044 C 1351.15 3.01095 -1.71879 0
M  V30 14045 C 1350.21 3.11554 -2.95352 0
M  V30 14046 C 1349.44 4.41471 -2.99898 0
M  V30 14047 O 1349.67 5.29348 -2.12477 0
M  V30 14048 O 1348.6 4.56573 -3.92205 0
M  V30 14049 H 1352.43 1.52242 -2.62785 0
M  V30 14050 H 1350.01 0.69134 -1.32442 0
M  V30 14051 H 1351.89 3.82207 -1.77471 0
M  V30 14052 H 1350.57 3.1382 -0.793656 0
M  V30 14053 H 1349.48 2.29689 -2.95286 0
M  V30 14054 H 1350.81 3.03751 -3.87294 0
M  V30 14055 N 1352.46 1.37696 0.766659 0
M  V30 14056 C 1353.39 1.36576 1.89392 0
M  V30 14057 C 1354.37 0.233597 1.68488 0
M  V30 14058 O 1355.56 0.434719 1.89272 0
M  V30 14059 C 1352.69 1.17705 3.26746 0
M  V30 14060 C 1351.64 2.27987 3.62224 0
M  V30 14061 C 1350.97 1.94235 4.98174 0
M  V30 14062 C 1352.27 3.70195 3.68447 0
M  V30 14063 H 1353.96 2.30905 1.90587 0
M  V30 14064 H 1351.51 1.11148 0.915538 0
M  V30 14065 H 1353.46 1.15551 4.05248 0
M  V30 14066 H 1352.18 0.198334 3.25997 0
M  V30 14067 H 1350.84 2.29306 2.86032 0
M  V30 14068 H 1350.49 0.948796 4.93971 0
M  V30 14069 H 1350.19 2.68086 5.2288 0
M  V30 14070 H 1351.72 1.93676 5.7907 0
M  V30 14071 H 1353.13 3.70978 4.37091 0
M  V30 14072 H 1351.53 4.43142 4.04654 0
M  V30 14073 H 1352.6 4.03453 2.68986 0
M  V30 14074 N 1353.94 -0.993397 1.22349 0
M  V30 14075 C 1355.22 -1.7063 0.956275 0
M  V30 14076 C 1355.6 -2.0437 -0.52877 0
M  V30 14077 O 1354.94 -1.72662 -1.49667 0
M  V30 14078 C 1355.15 -2.95725 1.85331 0
M  V30 14079 C 1356.5 -3.68514 2.10909 0
M  V30 14080 O 1357.53 -3.05732 1.82775 0
M  V30 14081 O 1356.39 -4.81468 2.58556 0
M  V30 14082 H 1353.48 -0.744734 0.359583 0
M  V30 14083 H 1356.03 -1.04979 1.33333 0
M  V30 14084 H 1354.8 -2.6729 2.85782 0
M  V30 14085 H 1354.42 -3.69116 1.47781 0
M  V30 14086 N 1355.42 -1.03311 -1.19015 0
M  V30 14087 C 1356.83 -0.750946 -1.4083 0
M  V30 14088 C 1357.03 0.662704 -1.90291 0
M  V30 14089 O 1356.09 1.42806 -2.08237 0
M  V30 14090 C 1357.4 -1.79064 -2.41571 0
M  V30 14091 C 1358.95 -1.81068 -2.55311 0
M  V30 14092 C 1359.43 -2.84008 -3.59309 0
M  V30 14093 N 1360.92 -2.82852 -3.6681 0
M  V30 14094 C 1361.65 -3.59156 -4.46984 0
M  V30 14095 N 1361.15 -4.45188 -5.30829 0
M  V30 14096 N 1362.94 -3.47679 -4.41674 0
M  V30 14097 H 1355.09 -1.94548 -0.852329 0
M  V30 14098 H 1357.35 -0.841344 -0.436858 0
M  V30 14099 H 1357.06 -2.80425 -2.12261 0
M  V30 14100 H 1356.93 -1.61646 -3.40809 0
M  V30 14101 H 1359.32 -0.803825 -2.83941 0
M  V30 14102 H 1359.4 -2.02562 -1.56212 0
M  V30 14103 H 1359.05 -3.84867 -3.3142 0
M  V30 14104 H 1358.98 -2.59771 -4.58069 0
M  V30 14105 H 1361.47 -2.20457 -3.06932 0
M  V30 14106 H 1361.78 -5.00139 -5.89135 0
M  V30 14107 H 1360.13 -4.49259 -5.30275 0
M  V30 14108 H 1363.32 -2.79876 -3.75216 0
M  V30 14109 H 1363.49 -4.07396 -5.03917 0
M  V30 14110 N 1356.9 1.35099 -0.81154 0
M  V30 14111 C 1358.14 1.98625 -0.394231 0
M  V30 14112 C 1358.47 1.6437 1.03985 0
M  V30 14113 O 1357.73 0.901496 1.737 0
M  V30 14114 C 1358.02 3.53444 -0.530322 0
M  V30 14115 C 1357.69 4.0758 -1.92844 0
M  V30 14116 C 1356.35 4.22077 -2.31094 0
M  V30 14117 C 1358.7 4.36838 -2.84292 0
M  V30 14118 C 1356.03 4.63153 -3.60148 0
M  V30 14119 C 1358.38 4.79355 -4.12798 0
M  V30 14120 C 1357.05 4.92057 -4.51039 0
M  V30 14121 H 1356.32 0.726822 -0.144259 0
M  V30 14122 H 1358.97 1.61231 -1.03329 0
M  V30 14123 H 1357.27 3.91328 0.192166 0
M  V30 14124 H 1358.97 4.00558 -0.188134 0
M  V30 14125 H 1355.56 3.96752 -1.62129 0
M  V30 14126 H 1359.74 4.25187 -2.55988 0
M  V30 14127 H 1355 4.71176 -3.89619 0
M  V30 14128 H 1359.17 5.00954 -4.83754 0
M  V30 14129 H 1356.8 5.23643 -5.51092 0
M  V30 14130 N 1358.37 0.56548 1.47106 0
M  V30 14131 C 1359.61 0.0469867 2.04346 0
M  V30 14132 C 1359.98 -1.28183 1.42944 0
M  V30 14133 O 1361.18 -1.88852 1.91281 0
M  V30 14134 C 1359.45 -0.0357764 3.57382 0
M  V30 14135 S 1361.01 -0.499194 4.35951 0
M  V30 14136 H 1357.83 0.0291355 0.710403 0
M  V30 14137 H 1360.43 0.754085 1.80371 0
M  V30 14138 H 1359.13 0.935578 3.99594 0
M  V30 14139 H 1358.66 -0.766177 3.85867 0
M  V30 14140 H 1360.68 -1.75732 4.6404 0
M  V30 14141 N 1359.85 -1.54672 0.302354 0
M  V30 14142 C 1361.13 -1.92264 -0.359711 0
M  V30 14143 C 1361.51 -1.22973 -1.71583 0
M  V30 14144 O 1360.86 -0.365942 -2.25551 0
M  V30 14145 C 1361.07 -3.4578 -0.473019 0
M  V30 14146 C 1362.42 -4.18044 -0.743252 0
M  V30 14147 O 1363.44 -3.51822 -0.556778 0
M  V30 14148 O 1362.3 -5.35283 -1.10155 0
M  V30 14149 H 1359.39 -0.802112 -0.201359 0
M  V30 14150 H 1361.94 -1.66041 0.350513 0
M  V30 14151 H 1360.71 -3.88342 0.480265 0
M  V30 14152 H 1360.33 -3.78042 -1.23166 0
M  V30 14153 N 1361.33 -0.0301034 -1.57571 0
M  V30 14154 C 1362.29 0.936465 -2.09196 0
M  V30 14155 C 1363.29 1.25347 -1.00722 0
M  V30 14156 O 1364.48 1.19364 -1.26877 0
M  V30 14157 C 1361.62 2.2527 -2.55864 0
M  V30 14158 H 1362.81 0.489332 -2.95881 0
M  V30 14159 H 1360.36 0.217948 -1.54773 0
M  V30 14160 H 1361.1 2.7461 -1.72511 0
M  V30 14161 H 1360.88 2.03573 -3.35113 0
M  V30 14162 H 1362.37 2.94549 -2.96025 0
M  V30 14163 N 1362.81 1.55714 0.243056 0
M  V30 14164 C 1363.74 1.85615 1.32748 0
M  V30 14165 C 1364.72 0.711577 1.46203 0
M  V30 14166 O 1365.9 0.957732 1.62357 0
M  V30 14167 C 1363.03 2.04425 2.70052 0
M  V30 14168 C 1362.08 3.27071 2.73727 0
M  V30 14169 S 1362.91 4.83615 2.2995 0
M  V30 14170 C 1364.07 5.05434 3.69171 0
M  V30 14171 H 1364.3 2.77305 1.07187 0
M  V30 14172 H 1361.83 1.47871 0.444234 0
M  V30 14173 H 1363.79 2.15946 3.4911 0
M  V30 14174 H 1362.45 1.1357 2.92849 0
M  V30 14175 H 1361.64 3.37211 3.74573 0
M  V30 14176 H 1361.25 3.14296 2.02716 0
M  V30 14177 H 1363.54 4.93013 4.64698 0
M  V30 14178 H 1364.48 6.07401 3.63963 0
M  V30 14179 H 1364.89 4.33262 3.61862 0
M  V30 14180 N 1364.29 -0.50888 1.49158 0
M  V30 14181 C 1365.54 -1.26008 1.57496 0
M  V30 14182 C 1365.85 -1.9382 0.263281 0
M  V30 14183 O 1367.05 -2.70565 0.225117 0
M  V30 14184 C 1365.51 -2.28752 2.7785 0
M  V30 14185 C 1365.12 -1.66915 4.15744 0
M  V30 14186 C 1366.86 -3.0475 2.95513 0
M  V30 14187 C 1364.77 -2.67724 5.27331 0
M  V30 14188 H 1363.7 -0.473984 0.586392 0
M  V30 14189 H 1366.35 -0.534886 1.75531 0
M  V30 14190 H 1364.73 -3.044 2.53292 0
M  V30 14191 H 1365.91 -0.973131 4.50407 0
M  V30 14192 H 1364.22 -1.03336 4.03374 0
M  V30 14193 H 1366.82 -3.80121 3.76048 0
M  V30 14194 H 1367.16 -3.6189 2.05771 0
M  V30 14195 H 1367.69 -2.36217 3.20072 0
M  V30 14196 H 1364.43 -2.15375 6.19107 0
M  V30 14197 H 1363.95 -3.35589 4.97132 0
M  V30 14198 H 1365.63 -3.30304 5.56335 0
M  V30 14199 N 1365.76 -1.381 -0.759346 0
M  V30 14200 C 1366.99 -1.37389 -1.55367 0
M  V30 14201 C 1367.41 0.0356097 -1.88066 0
M  V30 14202 O 1366.77 1.0161 -1.5015 0
M  V30 14203 C 1366.82 -2.23098 -2.83302 0
M  V30 14204 O 1365.92 -1.64412 -3.7821 0
M  V30 14205 H 1365.27 -0.468894 -0.470143 0
M  V30 14206 H 1367.8 -1.81787 -0.938858 0
M  V30 14207 H 1367.81 -2.36753 -3.32283 0
M  V30 14208 H 1366.48 -3.25544 -2.58831 0
M  V30 14209 H 1365.06 -1.59867 -3.36893 0
M  V30 14210 N 1367.24 0.986894 -1.22875 0
M  V30 14211 C 1368.49 1.72152 -1.05103 0
M  V30 14212 C 1368.8 1.91185 0.413248 0
M  V30 14213 O 1370.01 2.62031 0.710759 0
M  V30 14214 C 1368.47 3.09771 -1.8322 0
M  V30 14215 C 1368.07 2.98648 -3.33936 0
M  V30 14216 C 1369.82 3.87238 -1.73917 0
M  V30 14217 C 1367.73 4.31459 -4.04471 0
M  V30 14218 H 1366.66 0.645498 -0.389677 0
M  V30 14219 H 1369.31 1.10125 -1.46781 0
M  V30 14220 H 1367.69 3.72515 -1.34345 0
M  V30 14221 H 1368.86 2.45033 -3.9025 0
M  V30 14222 H 1367.18 2.34661 -3.43982 0
M  V30 14223 H 1369.77 4.85549 -2.23933 0
M  V30 14224 H 1370.12 4.1036 -0.700711 0
M  V30 14225 H 1370.65 3.31183 -2.20369 0
M  V30 14226 H 1367.39 4.13534 -5.08596 0
M  V30 14227 H 1366.91 4.84964 -3.52944 0
M  V30 14228 H 1368.59 5.00179 -4.10403 0
M  V30 14229 N 1368.72 1.0394 1.18466 0
M  V30 14230 C 1370.14 0.758404 1.40429 0
M  V30 14231 C 1370.34 -0.652603 1.90639 0
M  V30 14232 O 1369.39 -1.417 2.08991 0
M  V30 14233 C 1370.71 1.80343 2.40618 0
M  V30 14234 C 1372.25 1.82419 2.54347 0
M  V30 14235 C 1372.73 2.8591 3.57798 0
M  V30 14236 N 1374.22 2.84793 3.65304 0
M  V30 14237 C 1374.95 3.61521 4.45073 0
M  V30 14238 N 1374.45 4.47997 5.28461 0
M  V30 14239 N 1376.24 3.50016 4.39824 0
M  V30 14240 H 1368.39 1.94998 0.842 0
M  V30 14241 H 1370.66 0.843649 0.43239 0
M  V30 14242 H 1370.36 2.81547 2.10771 0
M  V30 14243 H 1370.24 1.63451 3.39947 0
M  V30 14244 H 1372.62 0.818872 2.83511 0
M  V30 14245 H 1372.71 2.03388 1.55136 0
M  V30 14246 H 1372.35 3.8662 3.29375 0
M  V30 14247 H 1372.28 2.62196 4.56684 0
M  V30 14248 H 1374.77 2.22082 3.05758 0
M  V30 14249 H 1375.08 5.03257 5.86475 0
M  V30 14250 H 1373.43 4.52065 5.27885 0
M  V30 14251 H 1376.62 2.81862 3.73726 0
M  V30 14252 H 1376.79 4.10063 5.0175 0
M  V30 14253 N 1370.2 -1.34667 0.818693 0
M  V30 14254 C 1371.13 -2.28368 0.195126 0
M  V30 14255 C 1372.14 -1.50836 -0.612562 0
M  V30 14256 O 1373.33 -1.72917 -0.442936 0
M  V30 14257 C 1370.43 -3.30601 -0.745411 0
M  V30 14258 C 1369.61 -4.37396 0.0185308 0
M  V30 14259 C 1368.66 -5.19415 -0.842298 0
M  V30 14260 O 1367.69 -5.68467 -0.288821 0
M  V30 14261 N 1368.89 -5.38709 -2.1627 0
M  V30 14262 H 1371.66 -2.8252 1.00013 0
M  V30 14263 H 1369.22 -1.47146 0.675262 0
M  V30 14264 H 1371.21 -3.82367 -1.3258 0
M  V30 14265 H 1369.78 -2.76875 -1.45118 0
M  V30 14266 H 1369 -3.86402 0.780205 0
M  V30 14267 H 1370.29 -5.05877 0.544575 0
M  V30 14268 H 1369.69 -5.00523 -2.63616 0
M  V30 14269 H 1368.24 -5.9361 -2.69204 0
M  V30 14270 N 1371.68 -0.573274 -1.46804 0
M  V30 14271 C 1372.59 0.168081 -2.33997 0
M  V30 14272 C 1373.6 0.895652 -1.49178 0
M  V30 14273 O 1374.78 0.860951 -1.8207 0
M  V30 14274 C 1371.84 1.17483 -3.26188 0
M  V30 14275 C 1370.9 0.452956 -4.26904 0
M  V30 14276 C 1370.14 1.41175 -5.1469 0
M  V30 14277 O 1370.36 2.64767 -5.05227 0
M  V30 14278 O 1369.29 0.927472 -5.94711 0
M  V30 14279 H 1373.12 -0.547576 -2.98723 0
M  V30 14280 H 1370.71 -0.333747 -1.45624 0
M  V30 14281 H 1372.59 1.75557 -3.8309 0
M  V30 14282 H 1371.26 1.87213 -2.6407 0
M  V30 14283 H 1370.17 -0.169383 -3.73716 0
M  V30 14284 H 1371.5 -0.203186 -4.9178 0
M  V30 14285 N 1373.15 1.5451 -0.310553 0
M  V30 14286 C 1374.4 1.99505 0.296731 0
M  V30 14287 C 1374.72 1.20257 1.54265 0
M  V30 14288 O 1375.92 1.55566 2.22512 0
M  V30 14289 C 1374.38 3.55208 0.579251 0
M  V30 14290 C 1373.99 4.43276 -0.648874 0
M  V30 14291 C 1375.73 4.08705 1.1472 0
M  V30 14292 C 1373.64 5.90428 -0.338978 0
M  V30 14293 H 1372.57 0.745232 0.114652 0
M  V30 14294 H 1375.22 1.78611 -0.420749 0
M  V30 14295 H 1373.6 3.72039 1.35658 0
M  V30 14296 H 1374.77 4.3822 -1.42478 0
M  V30 14297 H 1373.09 4.00601 -1.13613 0
M  V30 14298 H 1375.69 5.16223 1.39346 0
M  V30 14299 H 1376.03 3.59889 2.09249 0
M  V30 14300 H 1376.56 3.95454 0.431363 0
M  V30 14301 H 1373.3 6.43411 -1.25309 0
M  V30 14302 H 1372.82 5.98468 0.399475 0
M  V30 14303 H 1374.5 6.46976 0.0559696 0
M  V30 14304 N 1374.63 0.0384594 1.57553 0
M  V30 14305 C 1375.6 -0.925358 2.0969 0
M  V30 14306 C 1376.6 -1.24811 1.01385 0
M  V30 14307 O 1377.79 -1.1869 1.27508 0
M  V30 14308 C 1374.92 -2.2391 2.57055 0
M  V30 14309 H 1376.11 -0.473633 2.96136 0
M  V30 14310 H 1373.66 -0.209736 1.54886 0
M  V30 14311 H 1374.4 -2.73691 1.73964 0
M  V30 14312 H 1374.18 -2.01793 3.36188 0
M  V30 14313 H 1375.67 -2.92974 2.97583 0
M  V30 14314 N 1376.11 -1.55841 -0.234795 0
M  V30 14315 C 1377.39 -1.69008 -0.984665 0
M  V30 14316 C 1377.77 -0.581882 -2.02922 0
M  V30 14317 O 1377.12 0.412998 -2.24737 0
M  V30 14318 C 1377.33 -3.09796 -1.60708 0
M  V30 14319 C 1378.67 -3.68784 -2.10436 0
M  V30 14320 O 1379.7 -3.12674 -1.70627 0
M  V30 14321 O 1378.56 -4.67175 -2.83567 0
M  V30 14322 H 1375.65 -0.68786 -0.459105 0
M  V30 14323 H 1378.2 -1.68166 -0.227623 0
M  V30 14324 H 1376.97 -3.81908 -0.852169 0
M  V30 14325 H 1376.59 -3.147 -2.43001 0
M  V30 14326 N 1377.59 0.500963 -1.49426 0
M  V30 14327 C 1378.84 1.25171 -1.58162 0
M  V30 14328 C 1379.15 1.93678 -0.273556 0
M  V30 14329 O 1380.36 2.70442 -0.239462 0
M  V30 14330 C 1378.81 2.27276 -2.79059 0
M  V30 14331 C 1378.42 1.64708 -4.16624 0
M  V30 14332 C 1380.17 3.03178 -2.97125 0
M  V30 14333 C 1378.07 2.64923 -5.28743 0
M  V30 14334 H 1377 0.470867 -0.588897 0
M  V30 14335 H 1379.65 0.525569 -1.75812 0
M  V30 14336 H 1378.04 3.03052 -2.54903 0
M  V30 14337 H 1379.21 0.949231 -4.50917 0
M  V30 14338 H 1377.52 1.01195 -4.03916 0
M  V30 14339 H 1380.12 3.78122 -3.78058 0
M  V30 14340 H 1380.46 3.60793 -2.07687 0
M  V30 14341 H 1381 2.34517 -3.2132 0
M  V30 14342 H 1377.74 2.12089 -6.20241 0
M  V30 14343 H 1377.26 3.32948 -4.98904 0
M  V30 14344 H 1378.94 3.27349 -5.58079 0
M  V30 14345 N 1379.07 1.38501 0.752011 0
M  V30 14346 C 1379.98 1.38094 1.8965 0
M  V30 14347 C 1380.99 0.277851 1.71767 0
M  V30 14348 O 1382.17 0.516536 1.94663 0
M  V30 14349 C 1379.23 1.2063 3.25037 0
M  V30 14350 C 1378.3 2.40758 3.55435 0
M  V30 14351 C 1377.53 2.24118 4.84362 0
M  V30 14352 O 1377.75 1.23571 5.56854 0
M  V30 14353 O 1376.69 3.12741 5.14273 0
M  V30 14354 H 1380.51 2.34532 1.92947 0
M  V30 14355 H 1378.1 1.19437 0.897504 0
M  V30 14356 H 1379.98 1.12957 4.05979 0
M  V30 14357 H 1378.65 0.272785 3.22549 0
M  V30 14358 H 1377.56 2.54006 2.74648 0
M  V30 14359 H 1378.89 3.32745 3.62686 0
M  V30 14360 N 1380.55 -0.980364 1.23396 0
M  V30 14361 C 1381.46 -2.10688 1.03188 0
M  V30 14362 C 1382.47 -1.73984 -0.0236159 0
M  V30 14363 O 1383.65 -2.00666 0.171841 0
M  V30 14364 C 1380.71 -3.4101 0.625563 0
M  V30 14365 C 1379.77 -3.91739 1.75611 0
M  V30 14366 C 1379.01 -5.15841 1.36908 0
M  V30 14367 O 1379.23 -5.69837 0.253329 0
M  V30 14368 O 1378.16 -5.60638 2.19018 0
M  V30 14369 H 1381.99 -2.30626 1.97599 0
M  V30 14370 H 1379.57 -1.09067 1.02102 0
M  V30 14371 H 1381.46 -4.19402 0.409909 0
M  V30 14372 H 1380.13 -3.22402 -0.28956 0
M  V30 14373 H 1379.04 -3.14464 2.0264 0
M  V30 14374 H 1380.37 -4.14801 2.64955 0
M  V30 14375 N 1382.02 -1.04567 -1.17913 0
M  V30 14376 C 1383.27 -0.750538 -1.87647 0
M  V30 14377 C 1383.59 0.72423 -1.81052 0
M  V30 14378 O 1382.86 1.52292 -1.23223 0
M  V30 14379 H 1381.44 -0.274636 -0.694683 0
M  V30 14380 H 1384.1 -1.32349 -1.43072 0
M  V30 14381 H 1383.2 -1.05987 -2.93553 0
M  V30 14382 N 1383.5 1.34231 -0.825823 0
M  V30 14383 C 1384.92 1.51166 -0.511945 0
M  V30 14384 C 1385.12 1.76981 0.963318 0
M  V30 14385 O 1384.17 1.82243 1.74767 0
M  V30 14386 C 1385.49 2.67474 -1.37399 0
M  V30 14387 C 1387.03 2.81356 -1.37141 0
M  V30 14388 C 1387.51 4.0071 -2.218 0
M  V30 14389 N 1389 4.07922 -2.19439 0
M  V30 14390 C 1389.74 4.99438 -2.81691 0
M  V30 14391 N 1389.23 5.96157 -3.52944 0
M  V30 14392 N 1391.02 4.92332 -2.7123 0
M  V30 14393 H 1383.18 1.15734 -1.78099 0
M  V30 14394 H 1385.44 0.567856 -0.759107 0
M  V30 14395 H 1385.14 2.55036 -2.42176 0
M  V30 14396 H 1385.02 3.62558 -1.04075 0
M  V30 14397 H 1387.41 2.93233 -0.331405 0
M  V30 14398 H 1387.49 1.87072 -1.74464 0
M  V30 14399 H 1387.13 3.89593 -3.25852 0
M  V30 14400 H 1387.06 4.94213 -1.81826 0
M  V30 14401 H 1389.55 3.38695 -1.67612 0
M  V30 14402 H 1389.86 6.62623 -3.97682 0
M  V30 14403 H 1388.21 5.96272 -3.5705 0
M  V30 14404 H 1391.4 4.15733 -2.15137 0
M  V30 14405 H 1391.57 5.63458 -3.20031 0
M  V30 14406 N 1384.98 0.581051 1.46498 0
M  V30 14407 C 1386.23 0.0637189 2.01599 0
M  V30 14408 C 1386.54 -1.30353 1.45834 0
M  V30 14409 O 1387.75 -1.91211 1.92745 0
M  V30 14410 C 1386.2 0.0633254 3.59844 0
M  V30 14411 C 1385.81 1.42879 4.24605 0
M  V30 14412 C 1387.56 -0.400149 4.2261 0
M  V30 14413 C 1385.46 1.38621 5.74924 0
M  V30 14414 H 1384.39 0.0200512 0.753733 0
M  V30 14415 H 1387.04 0.732451 1.68248 0
M  V30 14416 H 1385.43 -0.671538 3.90264 0
M  V30 14417 H 1386.6 2.18325 4.05796 0
M  V30 14418 H 1384.91 1.83215 3.73927 0
M  V30 14419 H 1387.51 -0.450771 5.32797 0
M  V30 14420 H 1387.85 -1.41733 3.9143 0
M  V30 14421 H 1388.39 0.280598 3.96809 0
M  V30 14422 H 1385.13 2.38014 6.10761 0
M  V30 14423 H 1384.65 0.673926 5.96002 0
M  V30 14424 H 1386.33 1.09841 6.37608 0
M  V30 14425 N 1386.46 -1.54343 0.318742 0
M  V30 14426 C 1387.73 -1.92635 -0.339299 0
M  V30 14427 C 1388.11 -1.24786 -1.7027 0
M  V30 14428 O 1387.46 -0.389844 -2.2515 0
M  V30 14429 C 1387.67 -3.46262 -0.436318 0
M  V30 14430 C 1389.02 -4.18809 -0.698871 0
M  V30 14431 O 1390.04 -3.52392 -0.519431 0
M  V30 14432 O 1388.9 -5.36422 -1.04471 0
M  V30 14433 H 1386 -0.804202 -0.192841 0
M  V30 14434 H 1388.54 -1.6566 0.368104 0
M  V30 14435 H 1387.32 -3.8781 0.521427 0
M  V30 14436 H 1386.94 -3.79327 -1.19149 0
M  V30 14437 N 1387.94 -0.0468143 -1.5753 0
M  V30 14438 C 1389.35 0.489509 -1.80169 0
M  V30 14439 C 1389.7 1.71184 -0.958669 0
M  V30 14440 O 1388.82 2.15699 -0.174025 0
M  V30 14441 C 1389.42 0.894838 -3.26769 0
M  V30 14442 C 1387.98 1.37617 -3.50341 0
M  V30 14443 C 1387.12 0.349275 -2.75092 0
M  V30 14444 H 1390.07 -0.272728 -1.56339 0
M  V30 14445 H 1390.1 1.75805 -3.3745 0
M  V30 14446 H 1389.61 0.00501096 -3.881 0
M  V30 14447 H 1387.71 2.28533 -2.94285 0
M  V30 14448 H 1387.82 1.37133 -4.59055 0
M  V30 14449 H 1386.19 0.821219 -2.41098 0
M  V30 14450 H 1386.97 -0.532391 -3.39147 0
M  V30 14451 N 1389.41 1.55964 0.226527 0
M  V30 14452 C 1390.83 1.48844 0.575999 0
M  V30 14453 C 1391.03 0.740966 1.87382 0
M  V30 14454 O 1390.09 0.278599 2.50958 0
M  V30 14455 C 1391.4 2.93371 0.65984 0
M  V30 14456 C 1392.95 3.03862 0.750802 0
M  V30 14457 C 1393.42 4.49738 0.86603 0
M  V30 14458 N 1394.91 4.5376 0.930379 0
M  V30 14459 C 1395.65 5.63905 1.03916 0
M  V30 14460 N 1395.14 6.83814 1.1122 0
M  V30 14461 N 1396.94 5.51746 1.07391 0
M  V30 14462 H 1389.09 2.02991 -0.625179 0
M  V30 14463 H 1391.35 0.922435 -0.218674 0
M  V30 14464 H 1391.06 3.50985 -0.22411 0
M  V30 14465 H 1390.93 3.44994 1.52509 0
M  V30 14466 H 1393.32 2.46316 1.6252 0
M  V30 14467 H 1393.4 2.55416 -0.140019 0
M  V30 14468 H 1393.04 5.079 -0.00388632 0
M  V30 14469 H 1392.97 4.95884 1.77219 0
M  V30 14470 H 1395.46 3.67404 0.884451 0
M  V30 14471 H 1395.78 7.63507 1.19484 0
M  V30 14472 H 1394.12 6.86535 1.08142 0
M  V30 14473 H 1397.31 4.56997 1.01347 0
M  V30 14474 H 1397.49 6.37619 1.15523 0
M  V30 14475 N 1390.89 -0.493031 1.4969 0
M  V30 14476 C 1392.14 -1.24849 1.59814 0
M  V30 14477 C 1392.47 -1.92059 0.287555 0
M  V30 14478 O 1391.75 -1.81099 -0.709471 0
M  V30 14479 C 1392.03 -2.30929 2.76304 0
M  V30 14480 C 1391.88 -1.68167 4.17181 0
M  V30 14481 C 1393.2 -3.32427 2.8841 0
M  V30 14482 H 1390.32 -0.452553 0.581691 0
M  V30 14483 H 1392.96 -0.545455 1.82002 0
M  V30 14484 H 1391.11 -2.9089 2.57517 0
M  V30 14485 H 1392.78 -1.11971 4.47504 0
M  V30 14486 H 1391.03 -0.985496 4.22458 0
M  V30 14487 H 1391.7 -2.45148 4.94577 0
M  V30 14488 H 1394.17 -2.82464 3.05537 0
M  V30 14489 H 1393.05 -4.04004 3.71581 0
M  V30 14490 H 1393.31 -3.95234 1.98097 0
M  V30 14491 N 1392.37 -1.38898 -0.744656 0
M  V30 14492 C 1393.32 -1.36974 -1.87992 0
M  V30 14493 C 1394.31 -0.254277 -1.67481 0
M  V30 14494 O 1395.52 -0.423797 -1.7494 0
M  V30 14495 H 1391.89 -0.427508 -0.618661 0
M  V30 14496 H 1393.86 -2.32754 -1.86731 0
M  V30 14497 C 1392.61 -1.22054 -3.25573 0
M  V30 14498 H 1391.94 -2.07152 -3.41947 0
M  V30 14499 H 1393.38 -1.24763 -4.05228 0
M  V30 14500 C 1391.84 0.0718413 -3.36823 0
M  V30 14501 O 1392.37 1.0456 -3.87853 0
M  V30 14502 N 1390.57 0.131672 -2.90302 0
M  V30 14503 H 1390.12 -0.661428 -2.48964 0
M  V30 14504 H 1390.08 0.995936 -2.98209 0
M  V30 14505 N 1393.85 0.973806 -1.23914 0
M  V30 14506 C 1395.26 1.53057 -1.06913 0
M  V30 14507 C 1395.61 1.92842 0.361423 0
M  V30 14508 O 1394.74 1.76716 1.24901 0
M  V30 14509 C 1395.33 2.78137 -1.93457 0
M  V30 14510 C 1393.89 3.3019 -1.80697 0
M  V30 14511 C 1393.04 2.03137 -1.88761 0
M  V30 14512 H 1395.99 0.792767 -1.37481 0
M  V30 14513 H 1396.01 3.5124 -1.46325 0
M  V30 14514 H 1395.52 2.49149 -2.97568 0
M  V30 14515 H 1393.62 3.64043 -0.793951 0
M  V30 14516 H 1393.73 3.99503 -2.64451 0
M  V30 14517 H 1392.1 2.17572 -1.32418 0
M  V30 14518 H 1392.88 1.76522 -2.9444 0
M  V30 14519 N 1395.33 1.05191 1.17357 0
M  V30 14520 C 1396.26 0.673931 2.23563 0
M  V30 14521 C 1397.24 -0.328284 1.66902 0
M  V30 14522 O 1398.42 -0.205878 1.93106 0
M  V30 14523 C 1395.55 0.0478801 3.47267 0
M  V30 14524 C 1394.51 0.974855 4.1675 0
M  V30 14525 C 1393.83 0.212684 5.34277 0
M  V30 14526 C 1395.13 2.299 4.68981 0
M  V30 14527 H 1396.83 1.56183 2.55436 0
M  V30 14528 H 1394.37 0.752408 1.2278 0
M  V30 14529 H 1396.33 -0.228343 4.20781 0
M  V30 14530 H 1395.05 -0.874963 3.14662 0
M  V30 14531 H 1393.71 1.23564 3.45148 0
M  V30 14532 H 1393.36 -0.712924 4.97922 0
M  V30 14533 H 1393.06 0.830351 5.81703 0
M  V30 14534 H 1394.58 -0.056255 6.10574 0
M  V30 14535 H 1395.99 2.08269 5.34132 0
M  V30 14536 H 1394.39 2.87064 5.26986 0
M  V30 14537 H 1395.46 2.93759 3.8579 0
M  V30 14538 N 1396.8 -1.33791 0.83293 0
M  V30 14539 C 1397.75 -2.29332 0.25989 0
M  V30 14540 C 1398.72 -1.54056 -0.620965 0
M  V30 14541 O 1399.91 -1.82382 -0.560492 0
M  V30 14542 C 1397.05 -3.40461 -0.563964 0
M  V30 14543 C 1396.16 -4.30658 0.34025 0
M  V30 14544 C 1395.29 -5.28897 -0.494134 0
M  V30 14545 C 1394.33 -6.10733 0.408842 0
M  V30 14546 N 1393.47 -7.01032 -0.38706 0
M  V30 14547 H 1398.31 -2.77743 1.07996 0
M  V30 14548 H 1395.85 -1.3667 0.544043 0
M  V30 14549 H 1397.81 -4.03587 -1.05704 0
M  V30 14550 H 1396.44 -2.93258 -1.34905 0
M  V30 14551 H 1395.49 -3.68305 0.9516 0
M  V30 14552 H 1396.8 -4.87962 1.03415 0
M  V30 14553 H 1395.95 -5.97522 -1.05128 0
M  V30 14554 H 1394.69 -4.72155 -1.2215 0
M  V30 14555 H 1393.7 -5.41031 0.978046 0
M  V30 14556 H 1394.92 -6.69557 1.13448 0
M  V30 14557 H 1392.87 -6.46747 -1.09792 0
M  V30 14558 H 1392.79 -7.55592 0.248249 0
M  V30 14559 H 1394.05 -7.73973 -0.926631 0
M  V30 14560 N 1398.28 -0.588812 -1.46187 0
M  V30 14561 C 1399.22 0.189417 -2.27413 0
M  V30 14562 C 1400.19 0.891224 -1.36 0
M  V30 14563 O 1401.38 0.903883 -1.65415 0
M  V30 14564 C 1398.5 1.27233 -3.13894 0
M  V30 14565 C 1397.55 0.675705 -4.21113 0
M  V30 14566 S 1398.38 -0.502093 -5.33141 0
M  V30 14567 C 1399.54 0.581875 -6.23189 0
M  V30 14568 H 1399.77 -0.499754 -2.9307 0
M  V30 14569 H 1397.31 -0.375854 -1.49755 0
M  V30 14570 H 1399.26 1.89233 -3.64282 0
M  V30 14571 H 1397.92 1.93348 -2.47538 0
M  V30 14572 H 1397.12 1.48991 -4.81475 0
M  V30 14573 H 1396.72 0.131249 -3.7377 0
M  V30 14574 H 1399.01 1.46594 -6.6145 0
M  V30 14575 H 1399.95 0.0148739 -7.08098 0
M  V30 14576 H 1400.36 0.888764 -5.5746 0
M  V30 14577 N 1399.76 1.54172 -0.326923 0
M  V30 14578 C 1400.99 2.05512 0.279231 0
M  V30 14579 C 1401.41 1.20131 1.44741 0
M  V30 14580 O 1400.77 0.211191 1.80066 0
M  V30 14581 C 1400.82 3.53971 0.688263 0
M  V30 14582 O 1399.92 3.71516 1.79025 0
M  V30 14583 H 1399.26 0.662131 0.0497826 0
M  V30 14584 H 1401.79 1.98979 -0.476309 0
M  V30 14585 H 1401.8 3.96302 0.970002 0
M  V30 14586 H 1400.48 4.15568 -0.166132 0
M  V30 14587 H 1399.05 3.4109 1.50706 0
M  V30 14588 N 1401.24 0.0551678 1.57503 0
M  V30 14589 C 1402.65 -0.479948 1.80426 0
M  V30 14590 C 1403 -1.70673 0.967733 0
M  V30 14591 O 1402.13 -2.15604 0.185462 0
M  V30 14592 C 1402.72 -0.877496 3.27239 0
M  V30 14593 C 1401.28 -1.35757 3.51066 0
M  V30 14594 C 1400.43 -0.334681 2.75273 0
M  V30 14595 H 1403.38 0.281016 1.56192 0
M  V30 14596 H 1403.4 -1.74013 3.38378 0
M  V30 14597 H 1402.91 0.015571 3.88097 0
M  V30 14598 H 1401.01 -2.26969 2.95492 0
M  V30 14599 H 1401.12 -1.34697 4.59776 0
M  V30 14600 H 1399.49 -0.808421 2.4153 0
M  V30 14601 H 1400.27 0.550369 3.3886 0
M  V30 14602 N 1402.72 -1.56081 -0.218252 0
M  V30 14603 C 1403.67 -1.89082 -1.27405 0
M  V30 14604 C 1404.65 -0.754204 -1.42129 0
M  V30 14605 O 1405.84 -1.01668 -1.44888 0
M  V30 14606 C 1402.97 -2.21387 -2.62379 0
M  V30 14607 C 1402.06 -3.41448 -2.51543 0
M  V30 14608 N 1402.45 -4.5998 -2.10362 0
M  V30 14609 C 1400.75 -3.45128 -2.82494 0
M  V30 14610 C 1401.45 -5.42139 -2.10857 0
M  V30 14611 N 1400.42 -4.81936 -2.51472 0
M  V30 14612 H 1404.23 -2.78238 -0.946609 0
M  V30 14613 H 1401.74 -1.56691 -0.426801 0
M  V30 14614 H 1403.74 -2.43205 -3.38611 0
M  V30 14615 H 1402.4 -1.33545 -2.95966 0
M  V30 14616 H 1403.41 -4.85077 -1.8144 0
M  V30 14617 H 1400.08 -2.67638 -3.20431 0
M  V30 14618 H 1401.47 -6.47029 -1.81114 0
M  V30 14619 N 1404.2 0.485086 -1.49949 0
M  V30 14620 C 1405.42 1.26648 -1.64241 0
M  V30 14621 C 1405.85 1.85359 -0.319939 0
M  V30 14622 O 1405.2 1.66628 0.714487 0
M  V30 14623 C 1405.25 2.36109 -2.72552 0
M  V30 14624 O 1404.36 3.40387 -2.32832 0
M  V30 14625 H 1403.7 0.373208 -0.549192 0
M  V30 14626 H 1406.23 0.578929 -1.96239 0
M  V30 14627 H 1406.24 2.81634 -2.95205 0
M  V30 14628 H 1404.91 1.92745 -3.6854 0
M  V30 14629 H 1403.49 3.0067 -2.20571 0
M  V30 14630 N 1405.67 1.39291 0.737279 0
M  V30 14631 C 1406.6 1.40562 1.86452 0
M  V30 14632 C 1407.58 0.269283 1.67955 0
M  V30 14633 O 1408.77 0.474769 1.88307 0
M  V30 14634 C 1405.9 1.2461 3.24175 0
M  V30 14635 C 1404.85 2.35619 3.57306 0
M  V30 14636 C 1404.18 2.04758 4.93941 0
M  V30 14637 C 1405.48 3.77927 3.60512 0
M  V30 14638 H 1407.17 2.34896 1.85646 0
M  V30 14639 H 1404.72 1.13065 0.891756 0
M  V30 14640 H 1406.67 1.2412 4.02706 0
M  V30 14641 H 1405.4 0.267438 3.25503 0
M  V30 14642 H 1404.06 2.35322 2.81104 0
M  V30 14643 H 1403.7 1.05336 4.91847 0
M  V30 14644 H 1403.4 2.79117 5.17076 0
M  V30 14645 H 1404.93 2.05915 5.74832 0
M  V30 14646 H 1406.34 3.80166 4.29123 0
M  V30 14647 H 1404.74 4.51626 3.95164 0
M  V30 14648 H 1405.81 4.09068 2.60368 0
M  V30 14649 N 1407.15 -0.967221 1.24429 0
M  V30 14650 C 1408.38 -1.7452 1.11133 0
M  V30 14651 C 1408.79 -1.85785 -0.336087 0
M  V30 14652 O 1408.15 -1.34652 -1.23188 0
M  V30 14653 C 1408.2 -3.16544 1.74591 0
M  V30 14654 O 1407.92 -3.05845 3.13673 0
M  V30 14655 C 1409.42 -4.10677 1.6691 0
M  V30 14656 H 1406.64 -0.547267 0.388253 0
M  V30 14657 H 1409.19 -1.2143 1.64545 0
M  V30 14658 H 1407.34 -3.66618 1.2518 0
M  V30 14659 H 1407.76 -3.95346 3.44676 0
M  V30 14660 H 1409.23 -5.07987 2.15992 0
M  V30 14661 H 1409.71 -4.34652 0.630411 0
M  V30 14662 H 1410.31 -3.66514 2.15749 0
M  V30 14663 N 1408.63 -1.05812 -1.16797 0
M  V30 14664 C 1409.87 -0.781055 -1.88889 0
M  V30 14665 C 1410.23 0.679797 -1.79563 0
M  V30 14666 O 1411.43 1.07124 -2.46532 0
M  V30 14667 C 1409.71 -1.25598 -3.34604 0
M  V30 14668 S 1411.26 -1.10724 -4.24601 0
M  V30 14669 H 1408.08 -0.28347 -0.652047 0
M  V30 14670 H 1410.68 -1.35404 -1.41018 0
M  V30 14671 H 1409.39 -2.31421 -3.38928 0
M  V30 14672 H 1408.92 -0.677541 -3.87522 0
M  V30 14673 H 1410.93 -0.0351807 -4.96188 0
M  V30 14674 N 1410.11 1.33347 -0.840014 0
M  V30 14675 C 1411.35 1.98037 -0.43692 0
M  V30 14676 C 1411.69 1.66382 1.00154 0
M  V30 14677 O 1410.96 0.944311 1.70038 0
M  V30 14678 C 1411.24 3.54012 -0.65937 0
M  V30 14679 C 1411.1 3.9535 -2.14518 0
M  V30 14680 C 1412.42 4.39972 -0.106258 0
M  V30 14681 H 1409.54 0.719373 -0.160221 0
M  V30 14682 H 1412.18 1.57969 -1.05574 0
M  V30 14683 H 1410.33 3.88274 -0.132633 0
M  V30 14684 H 1412 3.7134 -2.73687 0
M  V30 14685 H 1410.24 3.4504 -2.62926 0
M  V30 14686 H 1410.91 5.03992 -2.25158 0
M  V30 14687 H 1413.39 4.12362 -0.556511 0
M  V30 14688 H 1412.27 5.48125 -0.291583 0
M  V30 14689 H 1412.53 4.30872 0.990032 0
M  V30 14690 N 1411.59 0.596556 1.45873 0
M  V30 14691 C 1412.81 0.0934926 2.06689 0
M  V30 14692 C 1413.23 -1.21743 1.44305 0
M  V30 14693 O 1412.59 -1.73912 0.553253 0
M  V30 14694 C 1412.64 -0.0643337 3.61443 0
M  V30 14695 O 1412.36 1.19472 4.21495 0
M  V30 14696 C 1413.86 -0.600141 4.39219 0
M  V30 14697 H 1411.08 0.0637846 0.667961 0
M  V30 14698 H 1413.62 0.821159 1.87289 0
M  V30 14699 H 1411.78 -0.742278 3.80222 0
M  V30 14700 H 1412.19 1.01735 5.14539 0
M  V30 14701 H 1413.67 -0.6597 5.48044 0
M  V30 14702 H 1414.14 -1.62009 4.08227 0
M  V30 14703 H 1414.75 0.0433915 4.25278 0
M  V30 14704 N 1413.06 -1.53996 0.335095 0
M  V30 14705 C 1414.29 -2.05657 -0.268328 0
M  V30 14706 C 1414.71 -1.20897 -1.44102 0
M  V30 14707 O 1414.07 -0.220737 -1.79951 0
M  V30 14708 C 1414.12 -3.54331 -0.669481 0
M  V30 14709 O 1413.22 -3.7246 -1.77052 0
M  V30 14710 H 1412.56 -0.662386 -0.0462705 0
M  V30 14711 H 1415.09 -1.98723 0.486854 0
M  V30 14712 H 1415.1 -3.9681 -0.948971 0
M  V30 14713 H 1413.78 -4.15474 0.188168 0
M  V30 14714 H 1412.36 -3.41884 -1.48895 0
M  V30 14715 N 1414.54 -0.0635198 -1.57472 0
M  V30 14716 C 1415.77 0.620205 -1.9791 0
M  V30 14717 C 1416.19 1.62851 -0.941335 0
M  V30 14718 O 1415.55 1.81056 0.0940313 0
M  V30 14719 C 1415.6 1.27261 -3.37397 0
M  V30 14720 O 1414.7 2.38841 -3.36197 0
M  V30 14721 H 1414.04 0.16021 -0.644382 0
M  V30 14722 H 1416.57 -0.135582 -2.0415 0
M  V30 14723 H 1416.58 1.6214 -3.74399 0
M  V30 14724 H 1415.26 0.533723 -4.12461 0
M  V30 14725 H 1413.83 2.05817 -3.10956 0
M  V30 14726 N 1416.02 1.56195 0.209972 0
M  V30 14727 C 1416.97 1.89755 1.26401 0
M  V30 14728 C 1417.95 0.761731 1.41727 0
M  V30 14729 O 1419.15 1.02435 1.44347 0
M  V30 14730 C 1416.27 2.22775 2.61201 0
M  V30 14731 C 1415.36 3.42777 2.49729 0
M  V30 14732 N 1415.75 4.61089 2.0792 0
M  V30 14733 C 1414.05 3.46621 2.8066 0
M  V30 14734 C 1414.75 5.43249 2.07979 0
M  V30 14735 N 1413.73 4.83263 2.48913 0
M  V30 14736 H 1417.53 2.78736 0.93184 0
M  V30 14737 H 1415.04 1.56915 0.418485 0
M  V30 14738 H 1417.04 2.44997 3.37316 0
M  V30 14739 H 1415.7 1.35112 2.95254 0
M  V30 14740 H 1416.71 4.86033 1.78865 0
M  V30 14741 H 1413.39 2.69334 3.19007 0
M  V30 14742 H 1414.78 6.47981 1.77681 0
M  V30 14743 N 1417.5 -0.477127 1.50204 0
M  V30 14744 C 1418.74 -1.22864 1.62099 0
M  V30 14745 C 1419.1 -1.89811 0.314549 0
M  V30 14746 O 1418.39 -1.78856 -0.687092 0
M  V30 14747 C 1418.59 -2.30126 2.73453 0
M  V30 14748 C 1418.41 -1.73701 4.14799 0
M  V30 14749 C 1417.18 -1.5394 4.8128 0
M  V30 14750 C 1419.38 -1.23535 4.99243 0
M  V30 14751 N 1417.36 -0.926941 6.06862 0
M  V30 14752 C 1418.74 -0.745736 6.15499 0
M  V30 14753 C 1420.79 -1.12333 4.85063 0
M  V30 14754 C 1419.49 -0.155155 7.19133 0
M  V30 14755 C 1421.52 -0.546689 5.88868 0
M  V30 14756 C 1420.88 -0.0674239 7.04368 0
M  V30 14757 H 1416.98 -0.438688 0.647361 0
M  V30 14758 H 1419.56 -0.531647 1.87301 0
M  V30 14759 H 1417.74 -2.97259 2.49984 0
M  V30 14760 H 1419.47 -2.97154 2.74739 0
M  V30 14761 H 1416.22 -1.78993 4.38473 0
M  V30 14762 H 1416.65 -0.639298 6.73975 0
M  V30 14763 H 1421.29 -1.4798 3.96058 0
M  V30 14764 H 1419.01 0.21354 8.07818 0
M  V30 14765 H 1422.59 -0.462461 5.79959 0
M  V30 14766 H 1421.47 0.371791 7.83318 0
M  V30 14767 N 1418.98 -1.3968 -0.729882 0
M  V30 14768 C 1420.25 -1.27689 -1.48172 0
M  V30 14769 C 1420.63 0.111239 -2.10807 0
M  V30 14770 O 1419.98 1.12289 -1.99006 0
M  V30 14771 C 1420.19 -2.40505 -2.529 0
M  V30 14772 C 1421.54 -2.80064 -3.19138 0
M  V30 14773 O 1422.56 -2.39992 -2.63215 0
M  V30 14774 O 1421.42 -3.49248 -4.20342 0
M  V30 14775 H 1418.52 -0.500674 -0.658221 0
M  V30 14776 H 1421.06 -1.51566 -0.763272 0
M  V30 14777 H 1419.83 -3.33282 -2.05033 0
M  V30 14778 H 1419.46 -2.1832 -3.32298 0
M  V30 14779 N 1420.45 0.960609 -1.2494 0
M  V30 14780 C 1421.87 1.23057 -1.01633 0
M  V30 14781 C 1422.07 1.99676 0.270527 0
M  V30 14782 O 1421.13 2.32503 0.984823 0
M  V30 14783 C 1422.44 2.01078 -2.2358 0
M  V30 14784 C 1423.99 2.14144 -2.28279 0
M  V30 14785 C 1424.46 2.95563 -3.49867 0
M  V30 14786 N 1425.95 3.03143 -3.50227 0
M  V30 14787 C 1426.69 3.66518 -4.40967 0
M  V30 14788 N 1426.18 4.31553 -5.41972 0
M  V30 14789 N 1427.98 3.636 -4.28663 0
M  V30 14790 H 1420.13 0.447876 -2.07624 0
M  V30 14791 H 1422.39 0.260581 -0.911483 0
M  V30 14792 H 1422.1 1.52172 -3.17075 0
M  V30 14793 H 1421.97 3.01797 -2.2627 0
M  V30 14794 H 1424.36 2.6225 -1.35311 0
M  V30 14795 H 1424.44 1.1275 -2.29611 0
M  V30 14796 H 1424.08 2.48149 -4.43153 0
M  V30 14797 H 1424.01 3.9717 -3.45779 0
M  V30 14798 H 1426.5 2.56888 -2.77159 0
M  V30 14799 H 1426.82 4.7775 -6.07433 0
M  V30 14800 H 1425.16 4.302 -5.45851 0
M  V30 14801 H 1428.35 3.11973 -3.48985 0
M  V30 14802 H 1428.53 4.12706 -4.99578 0
M  V30 14803 N 1421.93 1.0643 1.16234 0
M  V30 14804 C 1423.34 0.806012 1.68405 0
M  V30 14805 C 1423.69 -0.670197 1.84398 0
M  V30 14806 O 1422.82 -1.51975 1.54054 0
M  V30 14807 C 1423.41 1.45654 3.05893 0
M  V30 14808 C 1421.97 1.24599 3.55179 0
M  V30 14809 C 1421.12 1.53216 2.31128 0
M  V30 14810 H 1424.07 1.22759 1.00578 0
M  V30 14811 H 1424.09 0.872616 3.70359 0
M  V30 14812 H 1423.6 2.53092 2.94221 0
M  V30 14813 H 1421.71 0.191407 3.72108 0
M  V30 14814 H 1421.82 1.95967 4.37188 0
M  V30 14815 H 1420.18 0.952755 2.36209 0
M  V30 14816 H 1420.97 2.61816 2.22052 0
M  V30 14817 N 1423.41 -1.329 0.847073 0
M  V30 14818 C 1424.64 -2.01418 0.459829 0
M  V30 14819 C 1425.05 -1.63857 -0.945921 0
M  V30 14820 O 1424.39 -0.851946 -1.6275 0
M  V30 14821 C 1424.45 -3.55859 0.510376 0
M  V30 14822 C 1424.12 -4.16824 1.87368 0
M  V30 14823 C 1425.11 -4.35602 2.83808 0
M  V30 14824 C 1422.8 -4.53067 2.16876 0
M  V30 14825 C 1424.79 -4.89782 4.07912 0
M  V30 14826 C 1422.48 -5.06953 3.41235 0
M  V30 14827 C 1423.48 -5.25258 4.36569 0
M  V30 14828 O 1423.17 -5.77995 5.58728 0
M  V30 14829 H 1422.9 -0.651608 0.179952 0
M  V30 14830 H 1425.45 -1.70624 1.14353 0
M  V30 14831 H 1423.68 -3.86015 -0.230145 0
M  V30 14832 H 1425.37 -4.05659 0.139804 0
M  V30 14833 H 1426.14 -4.07942 2.62313 0
M  V30 14834 H 1422.02 -4.3811 1.43461 0
M  V30 14835 H 1425.56 -5.03985 4.82333 0
M  V30 14836 H 1421.46 -5.34045 3.62583 0
M  V30 14837 H 1422.23 -5.96399 5.60581 0
M  V30 14838 N 1424.89 -0.604284 -1.45555 0
M  V30 14839 C 1426.11 -0.102634 -2.07146 0
M  V30 14840 C 1426.54 1.20239 -1.44652 0
M  V30 14841 O 1425.9 1.73133 -0.538033 0
M  V30 14842 C 1425.94 0.0270231 -3.6059 0
M  V30 14843 O 1425.05 1.0781 -3.98059 0
M  V30 14844 H 1424.39 -0.0725667 -0.660023 0
M  V30 14845 H 1426.92 -0.833355 -1.86859 0
M  V30 14846 H 1426.93 0.226299 -4.07372 0
M  V30 14847 H 1425.6 -0.925896 -4.05463 0
M  V30 14848 H 1424.18 0.855552 -3.62953 0
M  V30 14849 N 1426.37 1.53816 -0.343257 0
M  V30 14850 C 1427.78 1.59598 0.00867849 0
M  V30 14851 C 1427.98 1.35922 1.48753 0
M  V30 14852 O 1427.04 1.15334 2.2462 0
M  V30 14853 C 1428.35 2.97649 -0.427234 0
M  V30 14854 C 1429.9 3.1069 -0.379554 0
M  V30 14855 C 1430.37 4.51119 -0.79093 0
M  V30 14856 N 1431.87 4.57168 -0.745105 0
M  V30 14857 C 1432.6 5.63975 -1.03537 0
M  V30 14858 N 1432.1 6.78635 -1.39377 0
M  V30 14859 N 1433.89 5.53848 -0.959628 0
M  V30 14860 H 1426.04 1.6746 -1.30656 0
M  V30 14861 H 1428.3 0.784254 -0.532588 0
M  V30 14862 H 1428.01 3.2004 -1.45834 0
M  V30 14863 H 1427.88 3.76682 0.197704 0
M  V30 14864 H 1430.27 2.88024 0.642376 0
M  V30 14865 H 1430.35 2.33718 -1.03969 0
M  V30 14866 H 1430 4.74521 -1.81087 0
M  V30 14867 H 1429.93 5.26489 -0.108274 0
M  V30 14868 H 1432.42 3.7483 -0.480752 0
M  V30 14869 H 1432.73 7.56053 -1.60011 0
M  V30 14870 H 1431.07 6.80083 -1.43222 0
M  V30 14871 H 1434.27 4.6315 -0.678974 0
M  V30 14872 H 1434.44 6.36995 -1.18919 0
M  V30 14873 N 1427.84 0.0718701 1.57436 0
M  V30 14874 C 1428.75 -0.910077 2.16229 0
M  V30 14875 C 1429.77 -1.32699 1.12548 0
M  V30 14876 O 1430.95 -1.39967 1.44814 0
M  V30 14877 C 1428.01 -2.15942 2.71238 0
M  V30 14878 C 1427.07 -1.79891 3.89792 0
M  V30 14879 C 1426.31 -2.9887 4.42168 0
M  V30 14880 O 1426.53 -4.1289 3.93545 0
M  V30 14881 O 1425.46 -2.78682 5.33498 0
M  V30 14882 H 1429.29 -0.439969 3.00496 0
M  V30 14883 H 1426.87 -0.151204 1.48633 0
M  V30 14884 H 1428.76 -2.89204 3.06494 0
M  V30 14885 H 1427.43 -2.62051 1.90029 0
M  V30 14886 H 1426.34 -1.03881 3.59388 0
M  V30 14887 H 1427.67 -1.38566 4.72293 0
M  V30 14888 N 1429.32 -1.56304 -0.201686 0
M  V30 14889 C 1430.57 -1.80504 -0.92446 0
M  V30 14890 C 1430.9 -0.644832 -1.83182 0
M  V30 14891 O 1430.18 0.354963 -1.91234 0
M  V30 14892 C 1430.46 -3.14919 -1.74636 0
M  V30 14893 C 1430.31 -4.41421 -0.864169 0
M  V30 14894 C 1431.63 -3.45962 -2.72026 0
M  V30 14895 H 1428.75 -0.656643 -0.334648 0
M  V30 14896 H 1431.39 -1.89025 -0.192188 0
M  V30 14897 H 1429.54 -3.07785 -2.37066 0
M  V30 14898 H 1431.21 -4.60594 -0.255084 0
M  V30 14899 H 1429.46 -4.33465 -0.170548 0
M  V30 14900 H 1430.13 -5.31954 -1.47409 0
M  V30 14901 H 1432.6 -3.53353 -2.1973 0
M  V30 14902 H 1431.48 -4.41146 -3.26622 0
M  V30 14903 H 1431.74 -2.69124 -3.50749 0
M  V30 14904 N 1430.8 0.469154 -1.50455 0
M  V30 14905 C 1431.76 1.5493 -1.68906 0
M  V30 14906 C 1432.76 1.50744 -0.559721 0
M  V30 14907 O 1433.95 1.5333 -0.826781 0
M  V30 14908 C 1431.09 2.94556 -1.71609 0
M  V30 14909 H 1432.28 1.39887 -2.65276 0
M  V30 14910 H 1429.83 0.695667 -1.39965 0
M  V30 14911 H 1430.57 3.15041 -0.769382 0
M  V30 14912 H 1430.35 2.99002 -2.53654 0
M  V30 14913 H 1431.84 3.72973 -1.87831 0
M  V30 14914 N 1432.28 1.40065 0.722464 0
M  V30 14915 C 1433.24 1.39544 1.81825 0
M  V30 14916 C 1434.24 0.290385 1.58156 0
M  V30 14917 O 1435.43 0.54894 1.65325 0
M  V30 14918 C 1432.56 1.18041 3.19811 0
M  V30 14919 H 1433.76 2.37063 1.83687 0
M  V30 14920 H 1431.31 1.25813 0.927404 0
M  V30 14921 H 1432.04 0.212536 3.23603 0
M  V30 14922 H 1431.83 1.98079 3.38389 0
M  V30 14923 H 1433.32 1.20447 3.99853 0
M  V30 14924 N 1433.76 -0.95397 1.25448 0
M  V30 14925 C 1435 -1.69866 1.10235 0
M  V30 14926 C 1435.33 -1.91204 -0.356552 0
M  V30 14927 O 1434.59 -1.4811 -1.27914 0
M  V30 14928 C 1434.89 -3.08613 1.80258 0
M  V30 14929 C 1434.55 -3.07072 3.30178 0
M  V30 14930 C 1433.21 -3.0636 3.71076 0
M  V30 14931 C 1435.57 -3.00351 4.25956 0
M  V30 14932 C 1432.89 -2.96675 5.06163 0
M  V30 14933 C 1435.25 -2.92209 5.61067 0
M  V30 14934 C 1433.91 -2.89832 6.01293 0
M  V30 14935 H 1433.18 -0.621583 0.40338 0
M  V30 14936 H 1435.83 -1.11448 1.55729 0
M  V30 14937 H 1434.13 -3.70578 1.27197 0
M  V30 14938 H 1435.83 -3.65055 1.6594 0
M  V30 14939 H 1432.42 -3.084 2.97637 0
M  V30 14940 H 1436.6 -3.0002 3.9535 0
M  V30 14941 H 1431.86 -2.93204 5.36508 0
M  V30 14942 H 1436.03 -2.8597 6.34976 0
M  V30 14943 H 1433.66 -2.82084 7.05927 0
M  V30 14944 N 1435.24 -1.07045 -1.15668 0
M  V30 14945 C 1436.65 -0.814932 -1.67975 0
M  V30 14946 C 1437 0.660408 -1.84751 0
M  V30 14947 O 1436.12 1.51156 -1.54857 0
M  V30 14948 C 1436.72 -1.47274 -3.05116 0
M  V30 14949 C 1435.28 -1.26481 -3.54513 0
M  V30 14950 C 1434.42 -1.54439 -2.30312 0
M  V30 14951 H 1437.37 -1.23291 -0.999251 0
M  V30 14952 H 1437.4 -0.892244 -3.69891 0
M  V30 14953 H 1436.91 -2.54649 -2.92874 0
M  V30 14954 H 1435.01 -0.211138 -3.72001 0
M  V30 14955 H 1435.12 -1.98283 -4.36143 0
M  V30 14956 H 1433.49 -0.965269 -2.357 0
M  V30 14957 H 1434.27 -2.6299 -2.20661 0
M  V30 14958 N 1436.71 1.32449 -0.85411 0
M  V30 14959 C 1437.64 2.31383 -0.313697 0
M  V30 14960 C 1438.62 1.59656 0.586858 0
M  V30 14961 O 1439.81 1.87459 0.507216 0
M  V30 14962 C 1436.94 3.43693 0.499235 0
M  V30 14963 C 1435.89 4.26899 -0.306839 0
M  V30 14964 C 1435.22 5.30966 0.630795 0
M  V30 14965 C 1436.52 4.99318 -1.53229 0
M  V30 14966 H 1438.21 2.76832 -1.14037 0
M  V30 14967 H 1435.76 1.33091 -0.549805 0
M  V30 14968 H 1437.71 4.11944 0.887709 0
M  V30 14969 H 1436.44 2.96971 1.35926 0
M  V30 14970 H 1435.1 3.60294 -0.677061 0
M  V30 14971 H 1434.74 4.80498 1.48765 0
M  V30 14972 H 1434.44 5.87522 0.0954635 0
M  V30 14973 H 1435.97 6.0208 1.01646 0
M  V30 14974 H 1437.38 5.60253 -1.21614 0
M  V30 14975 H 1435.78 5.65596 -2.00552 0
M  V30 14976 H 1436.85 4.27213 -2.29383 0
M  V30 14977 N 1438.19 0.611994 1.45232 0
M  V30 14978 C 1439.6 0.193464 1.85695 0
M  V30 14979 C 1439.95 -1.25069 1.5117 0
M  V30 14980 O 1439.08 -1.94894 0.940497 0
M  V30 14981 C 1439.67 0.344334 3.37046 0
M  V30 14982 C 1438.23 -0.0195378 3.76395 0
M  V30 14983 C 1437.38 0.666714 2.69166 0
M  V30 14984 H 1440.33 0.818395 1.35971 0
M  V30 14985 H 1440.35 -0.422209 3.7815 0
M  V30 14986 H 1439.86 1.3955 3.62143 0
M  V30 14987 H 1437.96 -1.06971 3.56915 0
M  V30 14988 H 1438.08 0.377184 4.77613 0
M  V30 14989 H 1436.44 0.103912 2.54488 0
M  V30 14990 H 1437.22 1.7201 2.97099 0
M  V30 14991 N 1439.67 -1.53632 0.351409 0
M  V30 14992 C 1440.92 -2.0104 -0.242687 0
M  V30 14993 C 1441.24 -1.23906 -1.49925 0
M  V30 14994 O 1440.5 -0.316927 -1.93117 0
M  V30 14995 C 1440.8 -3.5242 -0.594561 0
M  V30 14996 C 1440.46 -4.47333 0.566031 0
M  V30 14997 C 1439.13 -4.73001 0.884515 0
M  V30 14998 C 1441.48 -5.03566 1.34426 0
M  V30 14999 C 1438.81 -5.52156 1.98346 0
M  V30 15000 C 1441.16 -5.8392 2.43351 0
M  V30 15001 C 1439.82 -6.0788 2.7575 0
M  V30 15002 H 1439.09 -0.735659 -0.0888056 0
M  V30 15003 H 1441.74 -1.85362 0.480948 0
M  V30 15004 H 1440.04 -3.65971 -1.39902 0
M  V30 15005 H 1441.74 -3.86565 -1.06625 0
M  V30 15006 H 1438.33 -4.27494 0.307751 0
M  V30 15007 H 1442.52 -4.83694 1.11146 0
M  V30 15008 H 1437.77 -5.68942 2.23863 0
M  V30 15009 H 1441.95 -6.26505 3.04079 0
M  V30 15010 H 1439.57 -6.69001 3.61029 0
M  V30 15011 N 1441.15 -0.0802183 -1.57396 0
M  V30 15012 C 1442.39 0.587831 -1.94094 0
M  V30 15013 C 1442.73 1.6875 -0.961093 0
M  V30 15014 O 1442 1.94498 0.00832799 0
M  V30 15015 C 1442.28 1.15692 -3.41009 0
M  V30 15016 C 1442.14 0.0633211 -4.49755 0
M  V30 15017 C 1443.46 2.05987 -3.88918 0
M  V30 15018 H 1440.58 0.212214 -0.705786 0
M  V30 15019 H 1443.22 -0.147902 -1.89423 0
M  V30 15020 H 1441.37 1.78394 -3.4512 0
M  V30 15021 H 1443.04 -0.57019 -4.57763 0
M  V30 15022 H 1441.28 -0.605003 -4.2956 0
M  V30 15023 H 1441.95 0.502056 -5.49712 0
M  V30 15024 H 1444.43 1.5321 -3.86867 0
M  V30 15025 H 1443.31 2.42737 -4.92311 0
M  V30 15026 H 1443.57 2.97147 -3.27347 0
M  V30 15027 N 1442.63 1.56409 0.193394 0
M  V30 15028 C 1443.57 1.94681 1.23968 0
M  V30 15029 C 1444.54 0.807634 1.45143 0
M  V30 15030 O 1445.73 1.06593 1.58248 0
M  V30 15031 C 1442.87 2.29306 2.57901 0
M  V30 15032 C 1441.98 3.56296 2.4429 0
M  V30 15033 C 1441.12 3.80235 3.70938 0
M  V30 15034 C 1440.15 5.00645 3.52167 0
M  V30 15035 N 1439.29 5.20829 4.70831 0
M  V30 15036 H 1444.13 2.83884 0.906298 0
M  V30 15037 H 1441.67 1.40486 0.436146 0
M  V30 15038 H 1443.63 2.47398 3.35932 0
M  V30 15039 H 1442.26 1.43241 2.89278 0
M  V30 15040 H 1441.31 3.46241 1.57547 0
M  V30 15041 H 1442.62 4.44483 2.26354 0
M  V30 15042 H 1441.77 3.98575 4.57408 0
M  V30 15043 H 1440.51 2.90381 3.91829 0
M  V30 15044 H 1439.52 4.82225 2.64081 0
M  V30 15045 H 1440.74 5.92009 3.32719 0
M  V30 15046 H 1438.69 4.33923 4.91983 0
M  V30 15047 H 1438.61 6.03199 4.55726 0
M  V30 15048 H 1439.87 5.4363 5.58648 0
M  V30 15049 N 1444.1 -0.461169 1.50702 0
M  V30 15050 C 1445.51 -1.04177 1.54932 0
M  V30 15051 C 1445.87 -1.92894 0.358648 0
M  V30 15052 O 1444.99 -2.09876 -0.527346 0
M  V30 15053 C 1445.59 -1.8961 2.80773 0
M  V30 15054 C 1444.14 -2.42761 2.87652 0
M  V30 15055 C 1443.29 -1.21356 2.49335 0
M  V30 15056 H 1446.24 -0.243379 1.56823 0
M  V30 15057 H 1446.26 -2.74794 2.63189 0
M  V30 15058 H 1445.78 -1.25014 3.67414 0
M  V30 15059 H 1443.88 -3.10881 2.05386 0
M  V30 15060 H 1443.99 -2.77189 3.90772 0
M  V30 15061 H 1442.35 -1.55146 2.01995 0
M  V30 15062 H 1443.14 -0.584069 3.38295 0
M  V30 15063 N 1445.58 -1.40446 -0.715026 0
M  V30 15064 C 1446.49 -1.43074 -1.85922 0
M  V30 15065 C 1447.51 -0.323294 -1.7097 0
M  V30 15066 O 1448.68 -0.567966 -1.93226 0
M  V30 15067 C 1445.75 -1.29206 -3.21725 0
M  V30 15068 C 1444.81 -2.50097 -3.48927 0
M  V30 15069 C 1444.04 -2.36881 -4.7825 0
M  V30 15070 O 1444.27 -1.38292 -5.53382 0
M  V30 15071 O 1443.2 -3.26266 -5.058 0
M  V30 15072 H 1447.03 -2.39565 -1.86661 0
M  V30 15073 H 1444.61 -1.21775 -0.865522 0
M  V30 15074 H 1446.49 -1.23681 -4.02841 0
M  V30 15075 H 1445.17 -0.358207 -3.21712 0
M  V30 15076 H 1444.07 -2.61199 -2.67817 0
M  V30 15077 H 1445.41 -3.42244 -3.53737 0
M  V30 15078 N 1447.06 0.947303 -1.25952 0
M  V30 15079 C 1448.01 2.06642 -1.06779 0
M  V30 15080 C 1449 1.694 0.00348362 0
M  V30 15081 O 1450.21 1.79351 -0.152715 0
M  V30 15082 H 1446.58 0.676499 -0.32841 0
M  V30 15083 H 1448.55 2.19968 -2.01635 0
M  V30 15084 C 1447.3 3.40353 -0.711015 0
M  V30 15085 H 1446.63 3.69483 -1.52718 0
M  V30 15086 H 1448.07 4.19493 -0.616606 0
M  V30 15087 C 1446.52 3.3181 0.58344 0
M  V30 15088 O 1447.05 3.67431 1.6235 0
M  V30 15089 N 1445.26 2.84919 0.571797 0
M  V30 15090 H 1444.81 2.56128 -0.274962 0
M  V30 15091 H 1444.77 2.79586 1.43803 0
M  V30 15092 N 1448.54 1.07657 1.15099 0
M  V30 15093 C 1449.49 0.699678 2.19939 0
M  V30 15094 C 1450.46 -0.310432 1.63173 0
M  V30 15095 O 1451.64 -0.196177 1.89789 0
M  V30 15096 C 1448.78 0.106963 3.44934 0
M  V30 15097 C 1447.89 1.16892 4.15885 0
M  V30 15098 C 1447.03 0.540884 5.28439 0
M  V30 15099 C 1446.07 1.58542 5.91211 0
M  V30 15100 N 1445.2 0.979731 6.95231 0
M  V30 15101 H 1450.04 1.59805 2.51528 0
M  V30 15102 H 1447.58 0.798746 1.23525 0
M  V30 15103 H 1449.54 -0.254335 4.16424 0
M  V30 15104 H 1448.17 -0.754756 3.13852 0
M  V30 15105 H 1447.22 1.64775 3.4286 0
M  V30 15106 H 1448.53 1.96078 4.58645 0
M  V30 15107 H 1447.69 0.127397 6.06566 0
M  V30 15108 H 1446.43 -0.282708 4.8688 0
M  V30 15109 H 1445.43 2.00865 5.11794 0
M  V30 15110 H 1446.66 2.41135 6.34847 0
M  V30 15111 H 1444.6 0.177098 6.55761 0
M  V30 15112 H 1444.52 1.70878 7.36435 0
M  V30 15113 H 1445.79 0.591849 7.7725 0
M  V30 15114 N 1450.02 -1.31994 0.861122 0
M  V30 15115 C 1451.26 -1.97025 0.467678 0
M  V30 15116 C 1451.59 -1.68116 -0.978129 0
M  V30 15117 O 1450.85 -0.965342 -1.70234 0
M  V30 15118 C 1451.15 -3.51232 0.661135 0
M  V30 15119 C 1450.81 -4.00142 2.07839 0
M  V30 15120 C 1449.47 -4.1321 2.466 0
M  V30 15121 C 1451.83 -4.25986 3.00309 0
M  V30 15122 C 1449.15 -4.49467 3.7709 0
M  V30 15123 C 1451.51 -4.63704 4.30304 0
M  V30 15124 C 1450.17 -4.74978 4.68991 0
M  V30 15125 H 1449.44 -0.720967 0.171136 0
M  V30 15126 H 1452.09 -1.57285 1.09242 0
M  V30 15127 H 1450.39 -3.91772 -0.0467947 0
M  V30 15128 H 1452.09 -3.99584 0.336669 0
M  V30 15129 H 1448.68 -3.90461 1.76743 0
M  V30 15130 H 1452.86 -4.15393 2.71592 0
M  V30 15131 H 1448.12 -4.56391 4.06838 0
M  V30 15132 H 1452.29 -4.82654 5.02014 0
M  V30 15133 H 1449.92 -5.02828 5.70147 0
M  V30 15134 N 1451.49 -0.619688 -1.44906 0
M  V30 15135 C 1452.74 -0.128286 -2.02995 0
M  V30 15136 C 1453.1 1.23194 -1.47787 0
M  V30 15137 O 1452.39 1.80316 -0.64782 0
M  V30 15138 C 1452.58 -0.0432891 -3.57374 0
M  V30 15139 C 1452.41 -1.39373 -4.27557 0
M  V30 15140 C 1451.18 -1.97756 -4.64995 0
M  V30 15141 C 1453.38 -2.32512 -4.5874 0
M  V30 15142 N 1451.36 -3.26154 -5.20093 0
M  V30 15143 C 1452.73 -3.45517 -5.14799 0
M  V30 15144 C 1454.79 -2.31734 -4.40685 0
M  V30 15145 C 1453.49 -4.57924 -5.54706 0
M  V30 15146 C 1455.52 -3.43197 -4.81632 0
M  V30 15147 C 1454.88 -4.54924 -5.37795 0
M  V30 15148 H 1450.98 -0.0905961 -0.776734 0
M  V30 15149 H 1453.56 -0.820685 -1.76558 0
M  V30 15150 H 1451.73 0.61836 -3.83446 0
M  V30 15151 H 1453.46 0.455886 -4.02124 0
M  V30 15152 H 1450.22 -1.50826 -4.48941 0
M  V30 15153 H 1450.64 -3.91768 -5.52129 0
M  V30 15154 H 1455.29 -1.46609 -3.96567 0
M  V30 15155 H 1453 -5.43765 -5.97784 0
M  V30 15156 H 1456.59 -3.43757 -4.69385 0
M  V30 15157 H 1455.47 -5.39748 -5.68896 0
M  V30 15158 N 1452.97 1.53444 -0.359552 0
M  V30 15159 C 1454.38 1.86308 0.120955 0
M  V30 15160 C 1454.73 1.28033 1.48667 0
M  V30 15161 O 1453.86 0.600041 2.07915 0
M  V30 15162 C 1454.45 3.38044 0.226255 0
M  V30 15163 C 1453.01 3.70727 0.65101 0
M  V30 15164 C 1452.16 2.76538 -0.205482 0
M  V30 15165 H 1455.11 1.47778 -0.578569 0
M  V30 15166 H 1455.13 3.65699 1.05092 0
M  V30 15167 H 1454.64 3.80428 -0.767874 0
M  V30 15168 H 1452.75 3.33897 1.65359 0
M  V30 15169 H 1452.86 4.77168 0.429802 0
M  V30 15170 H 1451.22 2.52622 0.3247 0
M  V30 15171 H 1452.01 3.21754 -1.19704 0
M  V30 15172 N 1454.45 0.0885642 1.57351 0
M  V30 15173 C 1455.68 -0.585238 1.9845 0
M  V30 15174 C 1456.09 -1.62127 0.967483 0
M  V30 15175 O 1455.45 -1.82448 -0.0437565 0
M  V30 15176 C 1455.5 -1.23881 3.39611 0
M  V30 15177 O 1455.22 -0.244223 4.37419 0
M  V30 15178 C 1456.72 -1.99885 3.95678 0
M  V30 15179 H 1453.94 -0.157396 0.652279 0
M  V30 15180 H 1456.49 0.165923 2.03826 0
M  V30 15181 H 1454.64 -1.94094 3.3527 0
M  V30 15182 H 1455.06 -0.715149 5.19602 0
M  V30 15183 H 1456.53 -2.40983 4.9662 0
M  V30 15184 H 1457.01 -2.8621 3.33137 0
M  V30 15185 H 1457.61 -1.34501 4.03472 0
M  V30 15186 N 1455.93 -1.56509 -0.185096 0
M  V30 15187 C 1457.18 -1.804 -0.902158 0
M  V30 15188 C 1457.49 -0.663496 -1.84003 0
M  V30 15189 O 1458.7 -0.786963 -2.59844 0
M  V30 15190 C 1457.15 -3.19608 -1.65466 0
M  V30 15191 C 1456.76 -4.41487 -0.761109 0
M  V30 15192 C 1458.5 -3.52801 -2.36076 0
M  V30 15193 C 1456.41 -5.71717 -1.51305 0
M  V30 15194 H 1455.34 -0.67268 -0.340614 0
M  V30 15195 H 1457.99 -1.82842 -0.155273 0
M  V30 15196 H 1456.37 -3.11443 -2.44579 0
M  V30 15197 H 1457.55 -4.60799 -0.00791878 0
M  V30 15198 H 1455.86 -4.16072 -0.165344 0
M  V30 15199 H 1458.46 -4.47339 -2.92902 0
M  V30 15200 H 1458.8 -2.77021 -3.10749 0
M  V30 15201 H 1459.34 -3.62457 -1.63919 0
M  V30 15202 H 1456.08 -6.5049 -0.808907 0
M  V30 15203 H 1455.6 -5.56406 -2.23992 0
M  V30 15204 H 1457.27 -6.13188 -2.0642 0
M  V30 15205 N 1457.41 0.45317 -1.50944 0
M  V30 15206 C 1458.37 1.5313 -1.7054 0
M  V30 15207 C 1459.37 1.50142 -0.575678 0
M  V30 15208 O 1460.56 1.52444 -0.842997 0
M  V30 15209 C 1457.69 2.92719 -1.74723 0
M  V30 15210 H 1458.88 1.37066 -2.66745 0
M  V30 15211 H 1456.44 0.680783 -1.40695 0
M  V30 15212 H 1457.17 3.14208 -0.802753 0
M  V30 15213 H 1456.96 2.96295 -2.56811 0
M  V30 15214 H 1458.45 3.7096 -1.91777 0
M  V30 15215 N 1458.88 1.40823 0.707568 0
M  V30 15216 C 1460.3 1.23029 1.01666 0
M  V30 15217 C 1460.5 0.111152 2.01193 0
M  V30 15218 O 1459.56 -0.52836 2.4691 0
M  V30 15219 C 1460.87 2.57509 1.55272 0
M  V30 15220 C 1462.42 2.6459 1.67216 0
M  V30 15221 C 1462.89 3.99357 2.24227 0
M  V30 15222 N 1464.38 4.01141 2.31603 0
M  V30 15223 C 1465.12 5.02211 2.76715 0
M  V30 15224 N 1464.61 6.13674 3.21521 0
M  V30 15225 N 1466.41 4.89577 2.76172 0
M  V30 15226 H 1458.56 2.12346 0.0480107 0
M  V30 15227 H 1460.82 0.944281 0.0838885 0
M  V30 15228 H 1460.53 3.40095 0.896012 0
M  V30 15229 H 1460.4 2.79158 2.53674 0
M  V30 15230 H 1462.79 1.8237 2.32002 0
M  V30 15231 H 1462.87 2.46763 0.673927 0
M  V30 15232 H 1462.51 4.8202 1.6006 0
M  V30 15233 H 1462.44 4.14518 3.2478 0
M  V30 15234 H 1464.93 3.20657 1.99968 0
M  V30 15235 H 1465.25 6.86677 3.54534 0
M  V30 15236 H 1463.59 6.17228 3.1946 0
M  V30 15237 H 1466.78 4.01588 2.40509 0
M  V30 15238 H 1466.96 5.68485 3.11012 0
M  V30 15239 N 1460.36 -0.94061 1.26453 0
M  V30 15240 C 1461.61 -1.68132 1.1142 0
M  V30 15241 C 1461.92 -1.92587 -0.342006 0
M  V30 15242 O 1463.13 -2.64489 -0.613018 0
M  V30 15243 C 1461.59 -3.02758 1.94591 0
M  V30 15244 C 1461.19 -2.86049 3.4479 0
M  V30 15245 C 1462.94 -3.80516 1.88169 0
M  V30 15246 C 1460.85 -4.1615 4.20206 0
M  V30 15247 H 1459.78 -0.630591 0.413366 0
M  V30 15248 H 1462.43 -1.04602 1.50767 0
M  V30 15249 H 1460.81 -3.67272 1.48078 0
M  V30 15250 H 1461.98 -2.3038 3.99076 0
M  V30 15251 H 1460.3 -2.21732 3.52454 0
M  V30 15252 H 1462.89 -4.76904 2.41799 0
M  V30 15253 H 1463.24 -4.07477 0.852531 0
M  V30 15254 H 1463.77 -3.22776 2.32509 0
M  V30 15255 H 1460.51 -3.94373 5.23593 0
M  V30 15256 H 1460.03 -4.71531 3.707 0
M  V30 15257 H 1461.71 -4.84602 4.28684 0
M  V30 15258 N 1461.84 -1.08266 -1.14527 0
M  V30 15259 C 1463.12 -0.724254 -1.81697 0
M  V30 15260 C 1463.5 0.792212 -1.95671 0
M  V30 15261 O 1462.85 1.71017 -1.51543 0
M  V30 15262 C 1463.06 -1.44949 -3.17475 0
M  V30 15263 C 1464.4 -1.60761 -3.9299 0
M  V30 15264 O 1465.43 -1.41103 -3.2706 0
M  V30 15265 O 1464.29 -1.93184 -5.11216 0
M  V30 15266 H 1461.38 -0.258814 -0.785458 0
M  V30 15267 H 1463.93 -1.18414 -1.21557 0
M  V30 15268 H 1462.7 -2.48262 -3.02459 0
M  V30 15269 H 1462.32 -0.980993 -3.85308 0
M  V30 15270 N 1463.32 1.31536 -0.86811 0
M  V30 15271 C 1464.6 1.9149 -0.398866 0
M  V30 15272 C 1464.98 1.79008 1.1189 0
M  V30 15273 O 1464.32 1.19659 1.94664 0
M  V30 15274 C 1464.53 3.37771 -0.878173 0
M  V30 15275 C 1465.88 4.14882 -0.903216 0
M  V30 15276 O 1466.91 3.46545 -0.823703 0
M  V30 15277 O 1465.77 5.36936 -1.01794 0
M  V30 15278 H 1462.86 0.818398 -0.118971 0
M  V30 15279 H 1465.41 1.40216 -0.955899 0
M  V30 15280 H 1464.18 3.40861 -1.9217 0
M  V30 15281 H 1463.8 3.96472 -0.299346 0
M  V30 15282 N 1464.8 0.627364 1.44575 0
M  V30 15283 C 1466.05 0.127824 2.01295 0
M  V30 15284 C 1466.36 -1.25647 1.49907 0
M  V30 15285 O 1467.57 -1.84982 1.9873 0
M  V30 15286 C 1466.02 0.177775 3.59461 0
M  V30 15287 C 1465.63 1.56315 4.19845 0
M  V30 15288 C 1467.37 -0.265497 4.23669 0
M  V30 15289 C 1465.28 1.56842 5.70223 0
M  V30 15290 H 1464.21 0.0440205 0.752714 0
M  V30 15291 H 1466.86 0.785607 1.65833 0
M  V30 15292 H 1465.24 -0.547038 3.92203 0
M  V30 15293 H 1466.42 2.31125 3.98645 0
M  V30 15294 H 1464.73 1.95019 3.67909 0
M  V30 15295 H 1467.33 -0.281038 5.33961 0
M  V30 15296 H 1467.67 -1.29208 3.95741 0
M  V30 15297 H 1468.21 0.406698 3.95716 0
M  V30 15298 H 1464.94 2.57325 6.0288 0
M  V30 15299 H 1464.46 0.863198 5.93556 0
M  V30 15300 H 1466.14 1.30071 6.33791 0
M  V30 15301 N 1466.28 -1.53251 0.367684 0
M  V30 15302 C 1467.51 -2.05407 -0.221725 0
M  V30 15303 C 1467.91 -1.24081 -1.4283 0
M  V30 15304 O 1467.26 -0.275005 -1.8163 0
M  V30 15305 C 1467.32 -3.53063 -0.677281 0
M  V30 15306 C 1466.98 -4.55131 0.412894 0
M  V30 15307 C 1467.98 -5.04315 1.26343 0
M  V30 15308 C 1465.66 -4.99013 0.573739 0
M  V30 15309 C 1467.66 -5.95984 2.26014 0
M  V30 15310 C 1465.35 -5.90487 1.57381 0
M  V30 15311 C 1466.34 -6.38863 2.41544 0
M  V30 15312 O 1466.03 -7.28533 3.39845 0
M  V30 15313 H 1465.76 -0.674679 -0.0422413 0
M  V30 15314 H 1468.32 -1.98577 0.52501 0
M  V30 15315 H 1466.55 -3.57437 -1.47565 0
M  V30 15316 H 1468.24 -3.88066 -1.18993 0
M  V30 15317 H 1469 -4.7116 1.15037 0
M  V30 15318 H 1464.88 -4.60944 -0.0715806 0
M  V30 15319 H 1468.43 -6.33666 2.91742 0
M  V30 15320 H 1464.32 -6.23056 1.68734 0
M  V30 15321 H 1465.09 -7.46536 3.35598 0
M  V30 15322 N 1467.75 -0.0969077 -1.57302 0
M  V30 15323 C 1469 0.565254 -1.94034 0
M  V30 15324 C 1469.32 1.68609 -0.9796 0
M  V30 15325 O 1468.59 1.95874 -0.0319788 0
M  V30 15326 H 1467.17 0.211796 -0.716346 0
M  V30 15327 H 1469.83 -0.160665 -1.94237 0
M  V30 15328 H 1468.93 0.974268 -2.96504 0
M  V30 15329 N 1469.23 1.56605 0.176793 0
M  V30 15330 C 1470.51 1.72546 0.921261 0
M  V30 15331 C 1470.89 0.656794 2.00623 0
M  V30 15332 O 1470.24 -0.329303 2.26115 0
M  V30 15333 C 1470.45 3.15548 1.491 0
M  V30 15334 C 1471.79 3.7634 1.96604 0
M  V30 15335 O 1472.82 3.18791 1.58905 0
M  V30 15336 O 1471.68 4.77377 2.66033 0
M  V30 15337 H 1468.77 0.704425 0.43326 0
M  V30 15338 H 1471.32 1.68895 0.165052 0
M  V30 15339 H 1470.09 3.84808 0.709839 0
M  V30 15340 H 1469.71 3.23502 2.31154 0
M  V30 15341 N 1470.71 -0.445159 1.51182 0
M  V30 15342 C 1471.64 -1.55788 1.68115 0
M  V30 15343 C 1472.65 -1.52793 0.561964 0
M  V30 15344 O 1473.84 -1.57711 0.836029 0
M  V30 15345 C 1470.94 -2.94702 1.67344 0
M  V30 15346 C 1470.12 -3.22286 2.9572 0
M  V30 15347 C 1469.18 -4.40884 2.87241 0
M  V30 15348 O 1468.2 -4.3992 3.61191 0
M  V30 15349 N 1469.4 -5.44013 2.02558 0
M  V30 15350 H 1472.17 -1.4167 2.64102 0
M  V30 15351 H 1469.73 -0.633984 1.48971 0
M  V30 15352 H 1471.72 -3.7205 1.5925 0
M  V30 15353 H 1470.29 -3.02457 0.789842 0
M  V30 15354 H 1469.51 -2.33309 3.17743 0
M  V30 15355 H 1470.8 -3.3754 3.80715 0
M  V30 15356 H 1470.2 -5.47629 1.4184 0
M  V30 15357 H 1468.75 -6.20245 2.0035 0
M  V30 15358 N 1472.19 -1.41197 -0.700089 0
M  V30 15359 C 1473.14 -1.39158 -1.80607 0
M  V30 15360 C 1474.12 -0.266653 -1.58675 0
M  V30 15361 O 1475.31 -0.506973 -1.69584 0
M  V30 15362 C 1472.44 -1.27176 -3.18875 0
M  V30 15363 C 1471.53 -2.44513 -3.46517 0
M  V30 15364 N 1471.92 -3.69984 -3.44885 0
M  V30 15365 C 1470.22 -2.38228 -3.77046 0
M  V30 15366 C 1470.92 -4.4778 -3.71306 0
M  V30 15367 N 1469.89 -3.77831 -3.90826 0
M  V30 15368 H 1473.7 -2.34093 -1.77701 0
M  V30 15369 H 1471.21 -1.35188 -0.899887 0
M  V30 15370 H 1473.21 -1.23797 -3.98095 0
M  V30 15371 H 1471.87 -0.332215 -3.22996 0
M  V30 15372 H 1472.88 -4.02932 -3.25371 0
M  V30 15373 H 1469.56 -1.52722 -3.88564 0
M  V30 15374 H 1470.95 -5.56695 -3.76218 0
M  V30 15375 N 1473.67 0.933891 -1.2695 0
M  V30 15376 C 1474.6 2.05078 -1.11649 0
M  V30 15377 C 1475.58 1.70089 -0.0196463 0
M  V30 15378 O 1476.76 1.93239 -0.193007 0
M  V30 15379 C 1473.89 3.38963 -0.756387 0
M  V30 15380 C 1472.85 3.88041 -1.80577 0
M  V30 15381 C 1472.17 5.18661 -1.2998 0
M  V30 15382 C 1473.47 4.12116 -3.2087 0
M  V30 15383 H 1475.17 2.18137 -2.05077 0
M  V30 15384 H 1472.71 1.04817 -0.987392 0
M  V30 15385 H 1474.66 4.1657 -0.63619 0
M  V30 15386 H 1473.39 3.25901 0.213607 0
M  V30 15387 H 1472.05 3.12622 -1.91477 0
M  V30 15388 H 1471.7 5.01985 -0.319442 0
M  V30 15389 H 1471.4 5.52467 -2.00134 0
M  V30 15390 H 1472.92 5.98844 -1.19242 0
M  V30 15391 H 1474.33 4.80312 -3.13006 0
M  V30 15392 H 1472.73 4.57218 -3.88679 0
M  V30 15393 H 1473.8 3.17633 -3.66384 0
M  V30 15394 N 1475.14 1.08871 1.13951 0
M  V30 15395 C 1476.39 0.822504 1.85372 0
M  V30 15396 C 1476.72 -0.650183 1.82993 0
M  V30 15397 O 1476 -1.4783 1.26398 0
M  V30 15398 C 1476.28 1.35107 3.33793 0
M  V30 15399 C 1476.13 2.88945 3.44719 0
M  V30 15400 C 1477.45 0.980203 4.29045 0
M  V30 15401 H 1474.57 0.300255 0.673065 0
M  V30 15402 H 1477.21 1.34914 1.33784 0
M  V30 15403 H 1475.36 0.903108 3.77857 0
M  V30 15404 H 1477.04 3.42148 3.09407 0
M  V30 15405 H 1475.28 3.26365 2.85777 0
M  V30 15406 H 1475.95 3.21004 4.49066 0
M  V30 15407 H 1478.43 1.36646 3.93023 0
M  V30 15408 H 1477.3 1.37717 5.31343 0
M  V30 15409 H 1477.56 -0.112253 4.41957 0
M  V30 15410 N 1476.62 -1.31073 0.875073 0
M  V30 15411 C 1477.86 -1.98313 0.495116 0
M  V30 15412 C 1478.23 -1.67629 -0.93619 0
M  V30 15413 O 1479.43 -2.28122 -1.42176 0
M  V30 15414 C 1477.7 -3.49424 0.750847 0
M  V30 15415 S 1479.26 -4.36259 0.471512 0
M  V30 15416 H 1476.07 -0.686614 0.184613 0
M  V30 15417 H 1478.68 -1.59378 1.1322 0
M  V30 15418 H 1477.38 -3.69246 1.79124 0
M  V30 15419 H 1476.91 -3.9327 0.100946 0
M  V30 15420 H 1478.93 -4.91322 -0.69407 0
M  V30 15421 N 1478.1 -0.635022 -1.4424 0
M  V30 15422 C 1479.33 -0.14826 -2.06368 0
M  V30 15423 C 1479.74 1.17875 -1.47482 0
M  V30 15424 O 1479.1 1.72384 -0.599168 0
M  V30 15425 C 1479.15 -0.031519 -3.61486 0
M  V30 15426 O 1478.87 -1.30605 -4.18179 0
M  V30 15427 C 1480.37 0.483479 -4.40656 0
M  V30 15428 H 1477.59 -0.081472 -0.666036 0
M  V30 15429 H 1480.14 -0.870526 -1.85046 0
M  V30 15430 H 1478.29 0.641208 -3.82057 0
M  V30 15431 H 1478.71 -1.15341 -5.11661 0
M  V30 15432 H 1480.18 0.514164 -5.496 0
M  V30 15433 H 1480.66 1.51129 -4.12379 0
M  V30 15434 H 1481.26 -0.156131 -4.25013 0
M  V30 15435 N 1479.58 1.53054 -0.375806 0
M  V30 15436 C 1480.82 2.03312 0.210617 0
M  V30 15437 C 1481.18 1.25671 1.45158 0
M  V30 15438 O 1482.38 1.65986 2.11428 0
M  V30 15439 C 1480.65 3.54089 0.485362 0
M  V30 15440 S 1482.21 4.262 1.044 0
M  V30 15441 H 1479.03 0.708419 0.0605214 0
M  V30 15442 H 1481.63 1.88429 -0.521037 0
M  V30 15443 H 1480.34 4.08192 -0.42513 0
M  V30 15444 H 1479.87 3.73153 1.24581 0
M  V30 15445 H 1481.88 4.38227 2.32747 0
M  V30 15446 N 1481.06 0.105248 1.57248 0
M  V30 15447 C 1482.47 -0.422304 1.81861 0
M  V30 15448 C 1482.82 -1.67508 1.02154 0
M  V30 15449 O 1481.94 -2.14905 0.253961 0
M  V30 15450 C 1482.54 -0.772943 3.29865 0
M  V30 15451 C 1481.1 -1.24519 3.55207 0
M  V30 15452 C 1480.24 -0.246936 2.76198 0
M  V30 15453 H 1483.2 0.330565 1.55219 0
M  V30 15454 H 1483.22 -1.6316 3.43743 0
M  V30 15455 H 1482.73 0.139033 3.87851 0
M  V30 15456 H 1480.83 -2.17453 3.02564 0
M  V30 15457 H 1480.94 -1.20001 4.63828 0
M  V30 15458 H 1479.31 -0.731171 2.43979 0
M  V30 15459 H 1480.09 0.657896 3.36937 0
M  V30 15460 N 1482.53 -1.56697 -0.168486 0
M  V30 15461 C 1483.95 -1.71808 -0.730674 0
M  V30 15462 C 1484.3 -0.716224 -1.8266 0
M  V30 15463 O 1483.42 0.121803 -2.16057 0
M  V30 15464 C 1484.02 -3.1151 -1.33217 0
M  V30 15465 C 1482.58 -3.28297 -1.84115 0
M  V30 15466 C 1481.72 -2.67757 -0.72122 0
M  V30 15467 H 1484.67 -1.58598 0.0569421 0
M  V30 15468 H 1484.69 -3.10318 -2.20189 0
M  V30 15469 H 1484.21 -3.84404 -0.53431 0
M  V30 15470 H 1482.31 -2.60364 -2.66536 0
M  V30 15471 H 1482.42 -4.3606 -1.98464 0
M  V30 15472 H 1480.78 -2.27644 -1.14239 0
M  V30 15473 H 1481.57 -3.43239 0.0648388 0
M  V30 15474 N 1484.01 0.437135 -1.51416 0
M  V30 15475 C 1484.95 1.55058 -1.67429 0
M  V30 15476 C 1485.92 1.53997 -0.521878 0
M  V30 15477 O 1487.11 1.73121 -0.74574 0
M  V30 15478 C 1484.23 2.93637 -1.68805 0
M  V30 15479 C 1483.28 3.12721 -2.90013 0
M  V30 15480 S 1484.11 2.88998 -4.50822 0
M  V30 15481 C 1485.27 4.29858 -4.54942 0
M  V30 15482 H 1485.5 1.41241 -2.61607 0
M  V30 15483 H 1483.04 0.62684 -1.41103 0
M  V30 15484 H 1484.99 3.73516 -1.70282 0
M  V30 15485 H 1483.65 3.04816 -0.758031 0
M  V30 15486 H 1482.85 4.14041 -2.87377 0
M  V30 15487 H 1482.45 2.40667 -2.86278 0
M  V30 15488 H 1484.74 5.23062 -4.30596 0
M  V30 15489 H 1485.68 4.37528 -5.56754 0
M  V30 15490 H 1486.09 4.13523 -3.84265 0
M  V30 15491 N 1485.49 1.41566 0.692592 0
M  V30 15492 C 1486.4 1.46014 1.83622 0
M  V30 15493 C 1487.42 0.350453 1.70434 0
M  V30 15494 O 1488.59 0.598634 1.92298 0
M  V30 15495 C 1485.66 1.34308 3.19628 0
M  V30 15496 C 1484.72 2.55617 3.44904 0
M  V30 15497 C 1483.95 2.4446 4.74421 0
M  V30 15498 O 1484.17 1.47078 5.51112 0
M  V30 15499 O 1483.11 3.34272 5.00546 0
M  V30 15500 H 1486.93 2.42504 1.82826 0
M  V30 15501 H 1484.52 1.23136 0.846039 0
M  V30 15502 H 1486.4 1.30075 4.00822 0
M  V30 15503 H 1485.08 0.409343 3.21101 0
M  V30 15504 H 1483.98 2.65426 2.63628 0
M  V30 15505 H 1485.32 3.47829 3.48247 0
M  V30 15506 N 1486.97 -0.927146 1.27443 0
M  V30 15507 C 1488.21 -1.67738 1.13982 0
M  V30 15508 C 1488.55 -1.91653 -0.313511 0
M  V30 15509 O 1487.82 -1.50729 -1.22926 0
M  V30 15510 C 1488.11 -3.04357 1.92454 0
M  V30 15511 C 1487.96 -2.8768 3.45775 0
M  V30 15512 C 1489.28 -4.04696 1.72944 0
M  V30 15513 H 1486.4 -0.608749 0.415444 0
M  V30 15514 H 1489.04 -1.07587 1.56605 0
M  V30 15515 H 1487.19 -3.55702 1.56232 0
M  V30 15516 H 1488.86 -2.43449 3.9183 0
M  V30 15517 H 1487.1 -2.23011 3.72087 0
M  V30 15518 H 1487.77 -3.8464 3.95924 0
M  V30 15519 H 1490.25 -3.62364 2.04528 0
M  V30 15520 H 1489.13 -4.98276 2.30243 0
M  V30 15521 H 1489.39 -4.36878 0.677505 0
M  V30 15522 N 1488.45 -1.09474 -1.13372 0
M  V30 15523 C 1489.68 -0.851685 -1.88228 0
M  V30 15524 C 1490.08 0.600707 -1.79411 0
M  V30 15525 O 1489.43 1.42527 -1.15895 0
M  V30 15526 C 1489.49 -1.20874 -3.3857 0
M  V30 15527 C 1489.15 -2.66614 -3.71168 0
M  V30 15528 C 1490.15 -3.64862 -3.70367 0
M  V30 15529 C 1487.84 -3.02748 -4.0081 0
M  V30 15530 C 1489.83 -4.97269 -3.98751 0
M  V30 15531 C 1487.52 -4.35347 -4.28855 0
M  V30 15532 C 1488.51 -5.32417 -4.2781 0
M  V30 15533 O 1488.2 -6.6263 -4.55167 0
M  V30 15534 H 1487.93 -0.306097 -0.602728 0
M  V30 15535 H 1490.49 -1.46038 -1.44437 0
M  V30 15536 H 1488.72 -0.543096 -3.82867 0
M  V30 15537 H 1490.41 -0.944753 -3.94752 0
M  V30 15538 H 1491.17 -3.3829 -3.47541 0
M  V30 15539 H 1487.05 -2.27824 -4.00771 0
M  V30 15540 H 1490.6 -5.73028 -3.9785 0
M  V30 15541 H 1486.49 -4.61661 -4.51153 0
M  V30 15542 H 1487.26 -6.6811 -4.72833 0
M  V30 15543 N 1489.92 1.30607 -0.882012 0
M  V30 15544 C 1490.83 2.31967 -0.350503 0
M  V30 15545 C 1491.85 1.6522 0.54575 0
M  V30 15546 O 1493.03 1.96544 0.439581 0
M  V30 15547 C 1490.09 3.44037 0.428924 0
M  V30 15548 C 1489.15 4.26417 -0.496727 0
M  V30 15549 C 1488.39 5.33135 0.245597 0
M  V30 15550 O 1488.61 5.51077 1.47209 0
M  V30 15551 O 1487.54 6.00551 -0.402767 0
M  V30 15552 H 1491.37 2.79374 -1.19095 0
M  V30 15553 H 1488.95 1.34723 -0.645754 0
M  V30 15554 H 1490.84 4.12314 0.870346 0
M  V30 15555 H 1489.51 2.9877 1.24573 0
M  V30 15556 H 1488.42 3.60848 -0.986899 0
M  V30 15557 H 1489.75 4.7528 -1.27945 0
M  V30 15558 N 1491.4 0.642663 1.43901 0
M  V30 15559 C 1492.63 0.157518 2.06801 0
M  V30 15560 C 1493.05 -1.16361 1.47789 0
M  V30 15561 O 1492.41 -1.71645 0.583747 0
M  V30 15562 C 1492.46 0.0685904 3.60535 0
M  V30 15563 O 1491.56 -0.972183 4.00777 0
M  V30 15564 H 1490.9 0.0900406 0.657867 0
M  V30 15565 H 1493.43 0.882604 1.84584 0
M  V30 15566 H 1493.44 -0.118212 4.07829 0
M  V30 15567 H 1492.12 1.03307 4.02865 0
M  V30 15568 H 1490.7 -0.75902 3.65094 0
M  V30 15569 N 1492.88 -1.52852 0.383918 0
M  V30 15570 C 1494.29 -1.86477 -0.0912997 0
M  V30 15571 C 1494.64 -1.30382 -1.46611 0
M  V30 15572 O 1493.77 -0.633042 -2.06934 0
M  V30 15573 C 1494.36 -3.38361 -0.172447 0
M  V30 15574 C 1492.92 -3.71716 -0.591948 0
M  V30 15575 C 1492.07 -2.76176 0.24945 0
M  V30 15576 H 1495.02 -1.46839 0.602006 0
M  V30 15577 H 1495.04 -3.67325 -0.992603 0
M  V30 15578 H 1494.55 -3.79158 0.8283 0
M  V30 15579 H 1492.65 -3.36486 -1.60026 0
M  V30 15580 H 1492.77 -4.77792 -0.353835 0
M  V30 15581 H 1491.13 -2.53106 -0.284469 0
M  V30 15582 H 1491.91 -3.19809 1.24808 0
M  V30 15583 N 1494.36 -0.113586 -1.5719 0
M  V30 15584 C 1495.61 0.54572 -1.95008 0
M  V30 15585 C 1495.93 1.67031 -0.996541 0
M  V30 15586 O 1495.19 1.9569 -0.0194353 0
M  V30 15587 C 1495.49 1.1238 -3.39272 0
M  V30 15588 C 1495.15 0.12112 -4.50737 0
M  V30 15589 C 1493.82 -0.154607 -4.80952 0
M  V30 15590 C 1496.17 -0.562502 -5.18156 0
M  V30 15591 C 1493.5 -1.12033 -5.75904 0
M  V30 15592 C 1495.85 -1.51682 -6.14146 0
M  V30 15593 C 1494.51 -1.80059 -6.42756 0
M  V30 15594 H 1493.78 0.199693 -0.713585 0
M  V30 15595 H 1496.43 -0.193344 -1.90521 0
M  V30 15596 H 1494.73 1.93951 -3.40426 0
M  V30 15597 H 1496.43 1.64195 -3.65843 0
M  V30 15598 H 1493.02 0.34621 -4.27199 0
M  V30 15599 H 1497.21 -0.362645 -4.94973 0
M  V30 15600 H 1492.46 -1.34699 -5.96377 0
M  V30 15601 H 1496.64 -2.05225 -6.65474 0
M  V30 15602 H 1494.26 -2.55046 -7.16139 0
M  V30 15603 N 1495.84 1.56784 0.160173 0
M  V30 15604 C 1497.06 1.87129 0.894283 0
M  V30 15605 C 1497.49 0.701172 1.74543 0
M  V30 15606 O 1496.85 -0.349542 1.77899 0
M  V30 15607 C 1496.89 3.15969 1.73769 0
M  V30 15608 O 1496 2.98977 2.84054 0
M  V30 15609 H 1495.34 0.615192 0.249869 0
M  V30 15610 H 1497.87 2.04012 0.154956 0
M  V30 15611 H 1497.88 3.47657 2.13538 0
M  V30 15612 H 1496.55 4.00742 1.11258 0
M  V30 15613 H 1495.13 2.78668 2.47788 0
M  V30 15614 N 1497.32 -0.429099 1.51646 0
M  V30 15615 C 1498.23 -1.54648 1.76412 0
M  V30 15616 C 1499.24 -1.61455 0.648703 0
M  V30 15617 O 1500.42 -1.78544 0.931888 0
M  V30 15618 C 1497.48 -2.90562 1.89142 0
M  V30 15619 C 1496.54 -2.93804 3.13014 0
M  V30 15620 C 1495.78 -4.23235 3.25127 0
M  V30 15621 O 1496 -5.1606 2.42979 0
M  V30 15622 O 1494.93 -4.32929 4.18158 0
M  V30 15623 H 1498.76 -1.36661 2.71215 0
M  V30 15624 H 1496.34 -0.612946 1.36247 0
M  V30 15625 H 1498.23 -3.7121 1.99453 0
M  V30 15626 H 1496.9 -3.08659 0.975272 0
M  V30 15627 H 1495.81 -2.12082 3.08175 0
M  V30 15628 H 1497.14 -2.80654 4.04344 0
M  V30 15629 N 1498.79 -1.41931 -0.685074 0
M  V30 15630 C 1499.73 -1.40545 -1.81052 0
M  V30 15631 C 1500.74 -0.306024 -1.59898 0
M  V30 15632 O 1501.93 -0.568444 -1.69207 0
M  V30 15633 C 1499.03 -1.17194 -3.17992 0
M  V30 15634 C 1498.2 -2.39376 -3.66084 0
M  V30 15635 C 1497.26 -2.11725 -4.81725 0
M  V30 15636 O 1496.29 -2.84847 -4.92799 0
M  V30 15637 N 1497.49 -1.11399 -5.69711 0
M  V30 15638 H 1500.25 -2.37549 -1.8273 0
M  V30 15639 H 1497.81 -1.36679 -0.86779 0
M  V30 15640 H 1499.81 -0.966307 -3.92994 0
M  V30 15641 H 1498.38 -0.287499 -3.11275 0
M  V30 15642 H 1497.6 -2.75575 -2.81873 0
M  V30 15643 H 1498.88 -3.2076 -3.94956 0
M  V30 15644 H 1498.28 -0.509008 -5.63405 0
M  V30 15645 H 1496.84 -0.968239 -6.44568 0
M  V30 15646 N 1500.27 0.920374 -1.27933 0
M  V30 15647 C 1501.22 2.02196 -1.1129 0
M  V30 15648 C 1502.19 1.66096 -0.0118871 0
M  V30 15649 O 1503.37 1.8999 -0.175586 0
M  V30 15650 C 1500.51 3.36312 -0.77383 0
M  V30 15651 C 1499.63 3.85322 -1.95322 0
M  V30 15652 C 1498.76 5.07919 -1.55537 0
M  V30 15653 C 1497.8 5.49244 -2.7018 0
M  V30 15654 N 1496.94 6.63034 -2.30933 0
M  V30 15655 H 1501.78 2.15764 -2.05548 0
M  V30 15656 H 1499.31 1.05691 -1.02312 0
M  V30 15657 H 1501.27 4.13451 -0.558024 0
M  V30 15658 H 1499.9 3.22531 0.131806 0
M  V30 15659 H 1498.95 3.04399 -2.28135 0
M  V30 15660 H 1500.27 4.11915 -2.81296 0
M  V30 15661 H 1499.42 5.92581 -1.30123 0
M  V30 15662 H 1498.16 4.8312 -0.666818 0
M  V30 15663 H 1497.16 4.63127 -2.96299 0
M  V30 15664 H 1498.39 5.76035 -3.59667 0
M  V30 15665 H 1496.34 6.39878 -1.44539 0
M  V30 15666 H 1496.25 6.89319 -3.10444 0
M  V30 15667 H 1497.52 7.51018 -2.08786 0
M  V30 15668 N 1501.75 1.10074 1.1279 0
M  V30 15669 C 1503.17 0.831776 1.36212 0
M  V30 15670 C 1503.37 -0.550632 1.93831 0
M  V30 15671 O 1502.42 -1.30422 2.16209 0
M  V30 15672 C 1503.73 1.92844 2.3072 0
M  V30 15673 C 1505.28 1.95645 2.4432 0
M  V30 15674 C 1505.76 3.04474 3.4214 0
M  V30 15675 N 1507.25 3.03756 3.49695 0
M  V30 15676 C 1507.98 3.84605 4.25284 0
M  V30 15677 N 1507.48 4.7538 5.0397 0
M  V30 15678 N 1509.27 3.72838 4.20652 0
M  V30 15679 H 1501.42 1.99187 0.737452 0
M  V30 15680 H 1503.69 0.865383 0.387062 0
M  V30 15681 H 1503.39 2.92323 1.9555 0
M  V30 15682 H 1503.27 1.81241 3.30805 0
M  V30 15683 H 1505.65 0.968004 2.78772 0
M  V30 15684 H 1505.73 2.11325 1.44136 0
M  V30 15685 H 1505.38 4.03536 3.08418 0
M  V30 15686 H 1505.31 2.86036 4.42144 0
M  V30 15687 H 1507.8 2.37977 2.93556 0
M  V30 15688 H 1508.11 5.33637 5.58974 0
M  V30 15689 H 1506.46 4.79411 5.0318 0
M  V30 15690 H 1509.65 3.01276 3.5826 0
M  V30 15691 H 1509.82 4.36083 4.79308 0
M  V30 15692 N 1503.23 -1.30138 0.888926 0
M  V30 15693 C 1504.19 -2.26299 0.363504 0
M  V30 15694 C 1505.19 -1.52951 -0.496244 0
M  V30 15695 O 1506.38 -1.71548 -0.302834 0
M  V30 15696 C 1503.51 -3.37482 -0.481544 0
M  V30 15697 H 1504.71 -2.7429 1.21265 0
M  V30 15698 H 1502.26 -1.41395 0.666124 0
M  V30 15699 H 1502.99 -2.94814 -1.35112 0
M  V30 15700 H 1502.78 -3.9187 0.134344 0
M  V30 15701 H 1504.27 -4.09048 -0.840816 0
M  V30 15702 N 1504.71 -0.650285 -1.43559 0
M  V30 15703 C 1505.93 -0.168483 -2.06715 0
M  V30 15704 C 1506.36 1.15576 -1.48404 0
M  V30 15705 O 1505.71 1.71333 -0.592842 0
M  V30 15706 C 1505.76 -0.0877095 -3.60493 0
M  V30 15707 O 1504.87 0.950915 -4.01287 0
M  V30 15708 H 1504.21 -0.0935281 -0.65738 0
M  V30 15709 H 1506.74 -0.892381 -1.84113 0
M  V30 15710 H 1506.75 0.0965825 -4.07886 0
M  V30 15711 H 1505.42 -1.05442 -4.02312 0
M  V30 15712 H 1504 0.739648 -3.65491 0
M  V30 15713 N 1506.18 1.52647 -0.392018 0
M  V30 15714 C 1507.41 2.06511 0.191815 0
M  V30 15715 C 1507.83 1.26162 1.39516 0
M  V30 15716 O 1507.19 0.287373 1.79008 0
M  V30 15717 C 1507.24 3.56571 0.537512 0
M  V30 15718 O 1506.34 3.78774 1.63106 0
M  V30 15719 H 1505.68 0.663647 0.0216546 0
M  V30 15720 H 1508.21 1.96779 -0.560274 0
M  V30 15721 H 1508.22 4.00059 0.801044 0
M  V30 15722 H 1506.9 4.14489 -0.342239 0
M  V30 15723 H 1505.48 3.47175 1.36103 0
M  V30 15724 O 1507.7 0.262365 1.59355 0
M  V30 15725 H 1508.39 -0.310171 1.91201 0
M  V30 END ATOM
M  V30 BEGIN BOND
M  V30 END BOND
M  V30 END CTAB
M  END
$$$$
