drugbank_target|P23340 Endoglucanase C307 (DB02379)
 OpenBabel12092120293D

  0  0  0     0  0            999 V3000
M  V30 BEGIN CTAB
M  V30 COUNTS 5682 5760 0 0 0
M  V30 BEGIN ATOM
M  V30 1 H -0.908 1.98254 -0.117106 0
M  V30 2 N 0 1.576 0 0
M  V30 3 C 0.933 2.03868 1.02534 0
M  V30 4 C 1.911 0.928543 1.3348 0
M  V30 5 O 3.095 1.19667 1.45644 0
M  V30 6 C 0.222 2.43627 2.35294 0
M  V30 7 C -0.732 3.65373 2.2001 0
M  V30 8 S 0.101 5.13292 1.52614 0
M  V30 9 C 1.257 5.56322 2.86805 0
M  V30 10 H 1.49 2.90518 0.631377 0
M  V30 11 H -0.977 1.52953 0.210867 0
M  V30 12 H 0.981 2.67203 3.11629 0
M  V30 13 H -0.358 1.57376 2.7183 0
M  V30 14 H -1.165 3.90944 3.18086 0
M  V30 15 H -1.563 3.418 1.51819 0
M  V30 16 H 0.729 5.58782 3.83104 0
M  V30 17 H 1.672 6.56266 2.65933 0
M  V30 18 H 2.08 4.83886 2.90714 0
M  V30 19 N 1.4781 -0.272755 1.55222 0
M  V30 20 C 2.7241 -1.00581 1.761 0
M  V30 21 C 3.0571 -1.85932 0.560625 0
M  V30 22 O 2.3321 -1.89416 -0.441801 0
M  V30 23 C 2.6151 -1.88816 3.06628 0
M  V30 24 C 2.4681 -1.06457 4.37021 0
M  V30 25 C 3.7871 -2.8752 3.33197 0
M  V30 26 H 0.9061 -0.364244 0.640699 0
M  V30 27 H 3.5481 -0.278189 1.87952 0
M  V30 28 H 1.6981 -2.50856 2.96654 0
M  V30 29 H 3.3701 -0.464863 4.58952 0
M  V30 30 H 1.6131 -0.368043 4.32236 0
M  V30 31 H 2.2841 -1.71514 5.24678 0
M  V30 32 H 4.7601 -2.35615 3.42965 0
M  V30 33 H 3.6361 -3.46399 4.25792 0
M  V30 34 H 3.8971 -3.62657 2.52849 0
M  V30 35 N 2.9562 -1.48159 -0.537278 0
M  V30 36 C 4.1812 -1.59707 -1.32319 0
M  V30 37 C 4.6062 -0.254859 -1.86365 0
M  V30 38 O 3.9642 0.772378 -1.64024 0
M  V30 39 C 4.0122 -2.6412 -2.45505 0
M  V30 40 O 3.1162 -2.20774 -3.48328 0
M  V30 41 H 2.4572 -0.535791 -0.392204 0
M  V30 42 H 4.9872 -1.94092 -0.647268 0
M  V30 43 H 4.9972 -2.85166 -2.91795 0
M  V30 44 H 3.6722 -3.61567 -2.05528 0
M  V30 45 H 2.2492 -2.09911 -3.08207 0
M  V30 46 N 4.4343 0.785586 -1.36625 0
M  V30 47 C 5.6813 1.54362 -1.31067 0
M  V30 48 C 6.0093 1.94195 0.10893 0
M  V30 49 O 5.2643 1.63262 1.07908 0
M  V30 50 C 5.5633 2.83007 -2.1827 0
M  V30 51 C 5.2293 2.62294 -3.6676 0
M  V30 52 C 3.8913 2.56353 -4.0723 0
M  V30 53 C 6.2433 2.43371 -4.6089 0
M  V30 54 C 3.5713 2.29461 -5.39967 0
M  V30 55 C 5.9233 2.18005 -5.93849 0
M  V30 56 C 4.5873 2.105 -6.3344 0
M  V30 57 H 3.8573 0.564851 -0.479609 0
M  V30 58 H 6.5043 0.906028 -1.68711 0
M  V30 59 H 4.8093 3.51253 -1.73576 0
M  V30 60 H 6.5063 3.40817 -2.11292 0
M  V30 61 H 3.0963 2.67774 -3.34656 0
M  V30 62 H 7.2803 2.46959 -4.30494 0
M  V30 63 H 2.5363 2.22135 -5.69619 0
M  V30 64 H 6.7103 2.02359 -6.66351 0
M  V30 65 H 4.3373 1.89425 -7.36222 0
M  V30 66 N 5.9124 1.20967 1.01018 0
M  V30 67 C 6.8594 0.964281 2.09691 0
M  V30 68 C 7.8294 -0.107853 1.65749 0
M  V30 69 O 9.0144 0.0381987 1.90762 0
M  V30 70 C 6.1544 0.52943 3.41015 0
M  V30 71 C 5.2674 1.67043 3.98398 0
M  V30 72 C 4.4024 1.18525 5.17808 0
M  V30 73 C 3.4414 2.29892 5.67288 0
M  V30 74 N 2.5784 1.82546 6.77954 0
M  V30 75 H 7.4184 1.89463 2.30017 0
M  V30 76 H 4.9554 0.944289 1.1279 0
M  V30 77 H 6.9134 0.258588 4.16398 0
M  V30 78 H 5.5434 -0.363919 3.20742 0
M  V30 79 H 4.5954 2.05603 3.20049 0
M  V30 80 H 5.9074 2.50877 4.31117 0
M  V30 81 H 5.0614 0.870762 6.00419 0
M  V30 82 H 3.8004 0.316887 4.86669 0
M  V30 83 H 2.8054 2.6215 4.83278 0
M  V30 84 H 4.0304 3.17216 6.00459 0
M  V30 85 H 1.9764 0.980454 6.48632 0
M  V30 86 H 1.8934 2.59956 7.09901 0
M  V30 87 H 3.1614 1.54115 7.64113 0
M  V30 88 N 7.3905 -1.2043 1.01659 0
M  V30 89 C 8.3535 -2.21433 0.591616 0
M  V30 90 C 9.3535 -1.57203 -0.338226 0
M  V30 91 O 10.5435 -1.73737 -0.126918 0
M  V30 92 C 7.6755 -3.40628 -0.136058 0
M  V30 93 H 8.8685 -2.60545 1.48514 0
M  V30 94 H 6.4215 -1.33893 0.806379 0
M  V30 95 H 7.1565 -3.07019 -1.04449 0
M  V30 96 H 6.9415 -3.88475 0.531917 0
M  V30 97 H 8.4315 -4.15475 -0.420735 0
M  V30 98 N 8.8686 -0.792821 -1.36206 0
M  V30 99 C 10.1166 -0.366062 -1.98757 0
M  V30 100 C 10.4376 1.0668 -1.63231 0
M  V30 101 O 9.7076 1.73587 -0.907978 0
M  V30 102 H 8.2876 -0.132364 -0.735179 0
M  V30 103 H 10.9496 -1.01562 -1.66347 0
M  V30 104 H 10.0456 -0.460638 -3.08682 0
M  V30 105 N 10.3467 1.47872 -0.545128 0
M  V30 106 C 11.5957 2.01695 -0.0145033 0
M  V30 107 C 11.9087 1.42609 1.33873 0
M  V30 108 O 13.1147 1.88021 1.95858 0
M  V30 109 C 11.5707 3.59892 0.0245068 0
M  V30 110 C 11.1787 4.27966 -1.32475 0
M  V30 111 C 12.9227 4.21507 0.50316 0
M  V30 112 C 10.8297 5.78136 -1.2455 0
M  V30 113 H 9.7597 0.753998 -0.00165172 0
M  V30 114 H 12.4107 1.69985 -0.691175 0
M  V30 115 H 10.7927 3.88509 0.766575 0
M  V30 116 H 11.9667 4.11003 -2.08357 0
M  V30 117 H 10.2817 3.78286 -1.74036 0
M  V30 118 H 12.8787 5.31538 0.580656 0
M  V30 119 H 13.2217 3.87855 1.51243 0
M  V30 120 H 13.7547 3.97376 -0.183681 0
M  V30 121 H 10.4937 6.16388 -2.23039 0
M  V30 122 H 10.0137 5.97469 -0.528282 0
M  V30 123 H 11.6927 6.40099 -0.942488 0
M  V30 124 N 11.8248 0.280983 1.55075 0
M  V30 125 C 12.7728 -0.619864 2.24188 0
M  V30 126 C 13.7668 -1.15315 1.24092 0
M  V30 127 O 14.9728 -1.1061 1.42005 0
M  V30 128 H 11.3478 -0.218459 0.719569 0
M  V30 129 H 13.3188 -0.0141831 2.98397 0
M  V30 130 C 12.0678 -1.7899 2.98091 0
M  V30 131 H 11.3908 -1.38874 3.74905 0
M  V30 132 H 12.8308 -2.39672 3.49762 0
M  V30 133 C 11.2898 -2.68192 2.03899 0
M  V30 134 O 11.8198 -3.6872 1.594 0
M  V30 135 N 10.0258 -2.35488 1.70275 0
M  V30 136 H 9.5728 -1.53787 2.06658 0
M  V30 137 H 9.5308 -2.95442 1.07524 0
M  V30 138 N 13.3029 -1.57598 0.00835791 0
M  V30 139 C 14.2329 -2.1198 -0.979113 0
M  V30 140 C 15.2139 -1.03091 -1.35301 0
M  V30 141 O 16.3989 -1.30818 -1.43528 0
M  V30 142 C 13.5289 -2.62995 -2.26828 0
M  V30 143 C 12.4829 -3.76485 -2.03576 0
M  V30 144 C 11.8089 -4.13846 -3.38579 0
M  V30 145 C 13.1089 -5.0342 -1.39161 0
M  V30 146 H 14.8029 -2.94738 -0.526281 0
M  V30 147 H 12.3489 -1.41783 -0.251704 0
M  V30 148 H 14.3019 -2.99669 -2.96271 0
M  V30 149 H 13.0259 -1.7737 -2.7424 0
M  V30 150 H 11.6849 -3.40217 -1.36557 0
M  V30 151 H 11.3329 -3.25232 -3.83709 0
M  V30 152 H 11.0329 -4.90312 -3.23834 0
M  V30 153 H 12.5569 -4.53086 -4.09323 0
M  V30 154 H 13.9709 -5.37812 -1.98573 0
M  V30 155 H 12.3679 -5.84746 -1.34878 0
M  V30 156 H 13.4379 -4.83548 -0.361868 0
M  V30 157 N 14.781 0.264519 -1.55364 0
M  V30 158 C 16.029 0.993021 -1.76021 0
M  V30 159 C 16.35 1.86511 -0.569099 0
M  V30 160 O 15.62 1.91438 0.415735 0
M  V30 161 H 14.2 0.369639 -0.649135 0
M  V30 162 H 16.862 0.286707 -1.9278 0
M  V30 163 H 15.958 1.62502 -2.66457 0
M  V30 164 N 16.2591 1.48442 0.529413 0
M  V30 165 C 17.5071 1.56179 1.28267 0
M  V30 166 C 17.8281 0.237721 1.93546 0
M  V30 167 O 17.0981 -0.740779 1.81354 0
M  V30 168 H 15.6781 0.575367 0.476405 0
M  V30 169 H 18.3401 1.84909 0.61602 0
M  V30 170 H 17.4361 2.34312 2.06165 0
M  V30 171 N 17.7372 -0.778329 1.37039 0
M  V30 172 C 18.9832 -1.53817 1.33086 0
M  V30 173 C 19.3382 -1.92208 -0.0860346 0
M  V30 174 O 18.6312 -1.60713 -1.04316 0
M  V30 175 C 18.8252 -2.81845 2.19768 0
M  V30 176 C 18.6542 -2.55967 3.69744 0
M  V30 177 C 17.4242 -2.50428 4.38878 0
M  V30 178 C 19.6222 -2.2441 4.62758 0
M  V30 179 N 17.6042 -2.16564 5.74433 0
M  V30 180 C 18.9752 -2.0063 5.86641 0
M  V30 181 C 21.0302 -2.1051 4.5121 0
M  V30 182 C 19.7332 -1.64354 7.00272 0
M  V30 183 C 21.7592 -1.75634 5.64718 0
M  V30 184 C 21.1212 -1.52709 6.87648 0
M  V30 185 H 17.2202 -0.563434 0.542279 0
M  V30 186 H 19.8042 -0.908617 1.72198 0
M  V30 187 H 17.9752 -3.42649 1.82883 0
M  V30 188 H 19.7072 -3.47682 2.07122 0
M  V30 189 H 16.4622 -2.66056 3.91805 0
M  V30 190 H 16.8862 -2.02348 6.46053 0
M  V30 191 H 21.5282 -2.26919 3.56746 0
M  V30 192 H 19.2462 -1.46683 7.94676 0
M  V30 193 H 22.8322 -1.65546 5.57751 0
M  V30 194 H 21.7122 -1.2612 7.73992 0
M  V30 195 N 19.2153 -1.21501 -1.00376 0
M  V30 196 C 20.4643 -1.02718 -1.73586 0
M  V30 197 C 20.7773 0.439589 -1.90596 0
M  V30 198 O 21.9833 0.746848 -2.61026 0
M  V30 199 C 20.4393 -1.78929 -3.1227 0
M  V30 200 C 20.0473 -3.29783 -3.03228 0
M  V30 201 C 21.7913 -1.68557 -3.89601 0
M  V30 202 C 19.6983 -3.98479 -4.36999 0
M  V30 203 H 18.6283 -0.380733 -0.650814 0
M  V30 204 H 21.2793 -1.45248 -1.1214 0
M  V30 205 H 19.6613 -1.29192 -3.74333 0
M  V30 206 H 20.8353 -3.86832 -2.50395 0
M  V30 207 H 19.1503 -3.40711 -2.39385 0
M  V30 208 H 21.7473 -2.17211 -4.88593 0
M  V30 209 H 22.0903 -0.644021 -4.11288 0
M  V30 210 H 22.6233 -2.15778 -3.34193 0
M  V30 211 H 19.3623 -5.02841 -4.20513 0
M  V30 212 H 18.8823 -3.46219 -4.89788 0
M  V30 213 H 20.5613 -4.03462 -5.05794 0
M  V30 214 N 20.6934 1.19889 -1.02296 0
M  V30 215 C 21.9184 1.9393 -0.735237 0
M  V30 216 C 22.3434 1.74639 0.698782 0
M  V30 217 O 21.7014 1.04481 1.48167 0
M  V30 218 C 21.7494 3.43916 -1.08417 0
M  V30 219 O 20.8534 4.11917 -0.199446 0
M  V30 220 H 20.1944 0.605645 -0.272196 0
M  V30 221 H 22.7244 1.52137 -1.36804 0
M  V30 222 H 22.7344 3.9456 -1.03856 0
M  V30 223 H 21.4094 3.5728 -2.12894 0
M  V30 224 H 19.9864 3.71666 -0.303136 0
M  V30 225 N 22.1715 0.800033 1.35784 0
M  V30 226 C 23.1035 0.163596 2.28615 0
M  V30 227 C 24.1165 -0.633317 1.49976 0
M  V30 228 O 25.3055 -0.466754 1.72289 0
M  V30 229 C 22.4055 -0.790958 3.29541 0
M  V30 230 C 21.5785 -0.0418255 4.3738 0
M  V30 231 C 20.6375 -0.91389 5.18203 0
M  V30 232 O 19.6635 -0.367234 5.68014 0
M  V30 233 N 20.8655 -2.23682 5.35674 0
M  V30 234 H 23.6305 0.96105 2.83873 0
M  V30 235 H 21.1915 0.654894 1.48063 0
M  V30 236 H 23.1835 -1.37844 3.80501 0
M  V30 237 H 21.7535 -1.48925 2.74846 0
M  V30 238 H 20.9735 0.726813 3.87442 0
M  V30 239 H 22.2615 0.474719 5.06581 0
M  V30 240 H 21.6595 -2.70497 4.96838 0
M  V30 241 H 20.2165 -2.77369 5.89839 0
M  V30 242 N 23.6496 -1.47581 0.552962 0
M  V30 243 C 24.8796 -2.06575 0.0320091 0
M  V30 244 C 25.2876 -1.4067 -1.26525 0
M  V30 245 O 24.6306 -0.495808 -1.76883 0
M  V30 246 C 24.6926 -3.58705 -0.238913 0
M  V30 247 C 24.3566 -4.46625 0.968272 0
M  V30 248 C 25.3536 -4.85 1.87274 0
M  V30 249 C 23.0386 -4.88201 1.18175 0
M  V30 250 C 25.0326 -5.63745 2.9744 0
M  V30 251 C 22.7196 -5.66712 2.28651 0
M  V30 252 C 23.7176 -6.04394 3.18114 0
M  V30 253 O 23.4056 -6.81324 4.26676 0
M  V30 254 H 23.1376 -0.674763 0.0408689 0
M  V30 255 H 25.6916 -1.90634 0.764719 0
M  V30 256 H 23.9216 -3.72844 -1.02588 0
M  V30 257 H 25.6106 -3.99735 -0.704731 0
M  V30 258 H 26.3766 -4.53482 1.71984 0
M  V30 259 H 22.2556 -4.58339 0.494593 0
M  V30 260 H 25.7996 -5.93077 3.67296 0
M  V30 261 H 21.6966 -5.97642 2.43915 0
M  V30 262 H 22.4646 -6.99712 4.24671 0
M  V30 263 N 25.1277 -0.289203 -1.54924 0
M  V30 264 C 26.0597 0.625583 -2.20497 0
M  V30 265 C 27.0727 1.10667 -1.19402 0
M  V30 266 O 28.2617 1.02615 -1.46056 0
M  V30 267 C 25.3617 1.86702 -2.82835 0
M  V30 268 C 24.5347 1.5304 -4.09753 0
M  V30 269 C 23.5937 2.62576 -4.56005 0
M  V30 270 O 22.6197 2.28167 -5.21468 0
M  V30 271 N 23.8217 3.92901 -4.27328 0
M  V30 272 H 26.5867 0.0642801 -2.99631 0
M  V30 273 H 24.1477 -0.110896 -1.6152 0
M  V30 274 H 26.1397 2.59304 -3.10715 0
M  V30 275 H 24.7097 2.33702 -2.07611 0
M  V30 276 H 23.9297 0.637564 -3.8901 0
M  V30 277 H 25.2177 1.28072 -4.92418 0
M  V30 278 H 24.6157 4.23671 -3.74859 0
M  V30 279 H 23.1727 4.61837 -4.59946 0
M  V30 280 N 26.6058 1.57591 -0.0167156 0
M  V30 281 C 27.8518 1.91567 0.665582 0
M  V30 282 C 28.1848 0.892298 1.72487 0
M  V30 283 O 27.4598 -0.0867127 1.94307 0
M  V30 284 C 27.7428 3.36069 1.29342 0
M  V30 285 C 27.5958 4.49135 0.244541 0
M  V30 286 C 28.9148 3.803 2.21495 0
M  V30 287 H 26.0338 0.69666 0.240488 0
M  V30 288 H 28.6758 1.89866 -0.0714356 0
M  V30 289 H 26.8258 3.3765 1.92158 0
M  V30 290 H 28.4978 4.59689 -0.385228 0
M  V30 291 H 26.7408 4.3165 -0.431379 0
M  V30 292 H 27.4118 5.47242 0.723207 0
M  V30 293 H 29.8878 3.80377 1.68678 0
M  V30 294 H 28.7638 4.82127 2.62382 0
M  V30 295 H 29.0248 3.15104 3.101 0
M  V30 296 N 28.0839 -0.256276 1.55502 0
M  V30 297 C 29.3309 -0.985619 1.76895 0
M  V30 298 C 29.6589 -1.85671 0.579355 0
M  V30 299 O 28.9139 -1.90744 -0.437651 0
M  V30 300 C 29.2129 -1.88432 3.03691 0
M  V30 301 C 28.8789 -1.16936 4.35473 0
M  V30 302 C 27.5409 -0.97173 4.71286 0
M  V30 303 C 29.8929 -0.661889 5.1698 0
M  V30 304 C 27.2209 -0.254179 5.86149 0
M  V30 305 C 29.5729 0.042149 6.32586 0
M  V30 306 C 28.2369 0.25134 6.67027 0
M  V30 307 H 27.5069 -0.360663 0.647304 0
M  V30 308 H 30.1539 -0.256483 1.89775 0
M  V30 309 H 28.4589 -2.68021 2.85783 0
M  V30 310 H 30.1559 -2.45015 3.1744 0
M  V30 311 H 26.7459 -1.33332 4.07333 0
M  V30 312 H 30.9299 -0.802145 4.89775 0
M  V30 313 H 26.1859 -0.0815408 6.11346 0
M  V30 314 H 30.3599 0.443049 6.94989 0
M  V30 315 H 27.9869 0.809314 7.5588 0
M  V30 316 N 29.562 -1.4872 -0.521534 0
M  V30 317 C 30.787 -1.61101 -1.30618 0
M  V30 318 C 31.212 -0.274611 -1.86085 0
M  V30 319 O 30.57 0.754937 -1.64834 0
M  V30 320 C 30.618 -2.66709 -2.4269 0
M  V30 321 O 29.722 -2.24456 -3.45967 0
M  V30 322 H 29.063 -0.539921 -0.386499 0
M  V30 323 H 31.593 -1.94767 -0.626645 0
M  V30 324 H 31.603 -2.88245 -2.88754 0
M  V30 325 H 30.278 -3.63727 -2.01682 0
M  V30 326 H 28.855 -2.13168 -3.05964 0
M  V30 327 N 31.0401 0.771051 -1.3745 0
M  V30 328 C 31.9871 1.88435 -1.3327 0
M  V30 329 C 32.9571 1.64914 -0.198136 0
M  V30 330 O 34.1421 1.86821 -0.387606 0
M  V30 331 C 31.2821 3.25509 -1.14622 0
M  V30 332 C 30.3951 3.60979 -2.37314 0
M  V30 333 C 29.5301 4.87265 -2.11533 0
M  V30 334 C 28.5691 5.15469 -3.30088 0
M  V30 335 N 27.7061 6.32944 -3.03853 0
M  V30 336 H 32.5461 1.91344 -2.28455 0
M  V30 337 H 30.0831 0.935466 -1.13523 0
M  V30 338 H 32.0411 4.04582 -1.01831 0
M  V30 339 H 30.6711 3.21974 -0.230837 0
M  V30 340 H 29.7231 2.76885 -2.60842 0
M  V30 341 H 31.0351 3.77759 -3.25729 0
M  V30 342 H 30.1891 5.74244 -1.95777 0
M  V30 343 H 28.9281 4.7259 -1.20457 0
M  V30 344 H 27.9331 4.26966 -3.46382 0
M  V30 345 H 29.1581 5.32052 -4.22016 0
M  V30 346 H 27.1041 6.19625 -2.15407 0
M  V30 347 H 27.0211 6.50143 -3.85812 0
M  V30 348 H 28.2891 7.22857 -2.91716 0
M  V30 349 N 32.5182 1.22032 0.997298 0
M  V30 350 C 33.4282 1.00271 2.12092 0
M  V30 351 C 34.4442 -0.047621 1.73935 0
M  V30 352 O 35.6202 0.144136 2.00884 0
M  V30 353 C 32.6852 0.578449 3.4184 0
M  V30 354 C 31.7462 1.70189 3.94125 0
M  V30 355 C 30.9792 1.29778 5.17681 0
M  V30 356 O 31.2022 0.174676 5.70132 0
M  V30 357 O 30.1362 2.11261 5.63607 0
M  V30 358 H 33.9622 1.94398 2.3333 0
M  V30 359 H 31.5472 1.00587 1.10465 0
M  V30 360 H 33.4292 0.351998 4.19927 0
M  V30 361 H 32.1042 -0.334019 3.21972 0
M  V30 362 H 31.0112 1.98282 3.1723 0
M  V30 363 H 32.3442 2.59206 4.18417 0
M  V30 364 N 33.9963 -1.19345 1.0293 0
M  V30 365 C 34.9463 -2.20472 0.58104 0
M  V30 366 C 35.9303 -1.56578 -0.370442 0
M  V30 367 O 37.1223 -1.75963 -0.191344 0
M  V30 368 C 34.2513 -3.43236 -0.066306 0
M  V30 369 C 33.3373 -4.14274 0.907642 0
M  V30 370 N 33.7283 -4.61492 2.07023 0
M  V30 371 C 32.0263 -4.39966 0.731177 0
M  V30 372 C 32.7273 -5.1605 2.68454 0
M  V30 373 N 31.7033 -5.06875 1.96414 0
M  V30 374 H 35.5053 -2.54659 1.46717 0
M  V30 375 H 33.0193 -1.35423 0.896345 0
M  V30 376 H 35.0163 -4.14927 -0.405068 0
M  V30 377 H 33.6763 -3.10549 -0.948118 0
M  V30 378 H 34.6873 -4.56304 2.44963 0
M  V30 379 H 31.3643 -4.17377 -0.101507 0
M  V30 380 H 32.7543 -5.6287 3.66915 0
M  V30 381 N 35.4744 -0.807222 -1.35358 0
M  V30 382 C 36.7214 -0.387888 -1.9875 0
M  V30 383 C 37.0494 1.04509 -1.64037 0
M  V30 384 O 36.3044 1.73986 -0.895946 0
M  V30 385 C 36.6034 -0.519036 -3.53611 0
M  V30 386 C 36.2694 -1.91542 -4.08194 0
M  V30 387 C 34.9314 -2.29745 -4.22813 0
M  V30 388 C 37.2834 -2.82896 -4.37744 0
M  V30 389 C 34.6114 -3.58668 -4.643 0
M  V30 390 C 36.9634 -4.11265 -4.8067 0
M  V30 391 C 35.6274 -4.49466 -4.93494 0
M  V30 392 H 34.8974 -0.141938 -0.727279 0
M  V30 393 H 37.5444 -1.02814 -1.6156 0
M  V30 394 H 35.8494 0.204658 -3.91265 0
M  V30 395 H 37.5464 -0.175345 -4.00616 0
M  V30 396 H 34.1364 -1.60862 -3.97268 0
M  V30 397 H 38.3204 -2.54629 -4.26002 0
M  V30 398 H 33.5764 -3.88113 -4.72418 0
M  V30 399 H 37.7504 -4.82153 -5.02496 0
M  V30 400 H 35.3774 -5.49418 -5.25399 0
M  V30 401 N 36.9525 1.47285 -0.560781 0
M  V30 402 C 38.2295 1.9558 0.0277798 0
M  V30 403 C 38.6095 1.5034 1.48192 0
M  V30 404 O 37.9575 0.743882 2.16052 0
M  V30 405 C 38.1675 3.48789 -0.121418 0
M  V30 406 C 39.5155 4.24594 0.0220912 0
M  V30 407 O 40.5395 3.56166 -0.0491439 0
M  V30 408 O 39.3985 5.46217 0.175958 0
M  V30 409 H 36.4925 0.824663 0.0621342 0
M  V30 410 H 39.0385 1.5767 -0.627556 0
M  V30 411 H 37.8105 3.74533 -1.13316 0
M  V30 412 H 37.4335 3.93473 0.571366 0
M  V30 413 N 38.4306 0.297415 1.54768 0
M  V30 414 C 39.6586 -0.315623 2.04478 0
M  V30 415 C 40.0736 -1.47792 1.17486 0
M  V30 416 O 39.4306 -1.81404 0.19971 0
M  V30 417 C 39.4816 -0.7753 3.53088 0
M  V30 418 O 39.2026 0.340732 4.36773 0
M  V30 419 C 40.7036 -1.45386 4.18781 0
M  V30 420 H 37.9236 -0.0690887 0.667434 0
M  V30 421 H 40.4676 0.436003 1.99798 0
M  V30 422 H 38.6226 -1.47696 3.58141 0
M  V30 423 H 39.0366 -0.0165035 5.24497 0
M  V30 424 H 40.5106 -1.72669 5.24299 0
M  V30 425 H 40.9876 -2.39275 3.68299 0
M  V30 426 H 41.5936 -0.795475 4.17795 0
M  V30 427 N 39.9087 -1.5758 0.0250728 0
M  V30 428 C 41.1557 -1.91633 -0.654444 0
M  V30 429 C 41.4837 -0.901103 -1.72367 0
M  V30 430 O 40.7387 0.0905647 -1.9549 0
M  V30 431 C 41.0377 -3.32421 -1.31268 0
M  V30 432 C 40.7037 -4.49344 -0.374223 0
M  V30 433 C 39.3657 -4.8106 -0.115911 0
M  V30 434 C 41.7177 -5.20498 0.270432 0
M  V30 435 C 39.0457 -5.8129 0.79493 0
M  V30 436 C 41.3977 -6.21699 1.1693 0
M  V30 437 C 40.0617 -6.51859 1.43655 0
M  V30 438 H 39.3317 -0.701236 -0.239478 0
M  V30 439 H 41.9787 -1.91307 0.0859734 0
M  V30 440 H 40.2837 -3.28989 -2.12775 0
M  V30 441 H 41.9807 -3.56038 -1.84494 0
M  V30 442 H 38.5707 -4.24579 -0.58573 0
M  V30 443 H 42.7547 -4.96229 0.0839194 0
M  V30 444 H 38.0107 -6.03005 1.00973 0
M  V30 445 H 42.1847 -6.75955 1.67504 0
M  V30 446 H 39.8117 -7.2934 2.144 0
M  V30 447 N 41.3868 0.248026 -1.55636 0
M  V30 448 C 42.6358 0.974134 -1.76617 0
M  V30 449 C 42.9488 1.86528 -0.588796 0
M  V30 450 O 44.1548 2.62805 -0.681594 0
M  V30 451 C 42.6108 1.78213 -3.12679 0
M  V30 452 C 42.2188 0.93843 -4.38061 0
M  V30 453 C 43.9628 2.50104 -3.42999 0
M  V30 454 C 41.8698 1.74225 -5.65155 0
M  V30 455 H 40.7998 0.36745 -0.658405 0
M  V30 456 H 43.4508 0.22884 -1.82067 0
M  V30 457 H 41.8328 2.56933 -3.01333 0
M  V30 458 H 43.0068 0.193635 -4.60393 0
M  V30 459 H 41.3218 0.332905 -4.15067 0
M  V30 460 H 43.9188 3.10694 -4.3517 0
M  V30 461 H 44.2618 3.21662 -2.64271 0
M  V30 462 H 44.7948 1.78395 -3.55556 0
M  V30 463 H 41.5338 1.07043 -6.46701 0
M  V30 464 H 41.0538 2.46235 -5.46926 0
M  V30 465 H 42.7328 2.30967 -6.0437 0
M  V30 466 N 42.8649 1.48995 0.513639 0
M  V30 467 C 44.0929 1.61531 1.29288 0
M  V30 468 C 44.5079 0.281801 1.86685 0
M  V30 469 O 43.8649 -0.731111 1.67215 0
M  V30 470 C 43.9159 2.67449 2.43215 0
M  V30 471 O 43.6369 3.95626 1.88179 0
M  V30 472 C 45.1379 2.90575 3.34785 0
M  V30 473 H 42.3579 0.544165 0.392588 0
M  V30 474 H 44.9019 1.9494 0.617956 0
M  V30 475 H 43.0569 2.36853 3.0656 0
M  V30 476 H 43.4709 4.53868 2.62876 0
M  V30 477 H 44.9449 3.68449 4.11035 0
M  V30 478 H 45.4219 2.00011 3.91015 0
M  V30 479 H 46.0279 3.22538 2.77218 0
M  V30 480 N 44.343 -0.763751 1.37857 0
M  V30 481 C 45.253 -1.90817 1.36478 0
M  V30 482 C 46.269 -1.71997 0.263248 0
M  V30 483 O 47.445 -1.95095 0.499979 0
M  V30 484 C 44.51 -3.2605 1.17864 0
M  V30 485 C 43.571 -3.57467 2.3773 0
M  V30 486 C 42.804 -4.86249 2.19995 0
M  V30 487 O 43.027 -5.57884 1.18836 0
M  V30 488 O 41.961 -5.16911 3.08361 0
M  V30 489 H 45.787 -1.94933 2.32884 0
M  V30 490 H 43.372 -0.907619 1.1867 0
M  V30 491 H 45.254 -4.06924 1.09504 0
M  V30 492 H 43.929 -3.22769 0.245372 0
M  V30 493 H 42.836 -2.76796 2.51664 0
M  V30 494 H 44.169 -3.655 3.29652 0
M  V30 495 N 45.8211 -1.22559 -0.990812 0
M  V30 496 C 46.7681 -0.997519 -2.0813 0
M  V30 497 C 47.7381 0.0814702 -1.659 0
M  V30 498 O 48.9231 -0.0685424 -1.90677 0
M  V30 499 C 46.0631 -0.583615 -3.40129 0
M  V30 500 C 45.1761 -1.7336 -3.9569 0
M  V30 501 C 44.3111 -1.26748 -5.15857 0
M  V30 502 C 43.3501 -2.38888 -5.63559 0
M  V30 503 N 42.4871 -1.93308 -6.74964 0
M  V30 504 H 47.3271 -1.93099 -2.26973 0
M  V30 505 H 44.8641 -0.962114 -1.11273 0
M  V30 506 H 46.8221 -0.324801 -4.15934 0
M  V30 507 H 45.4521 0.312845 -3.2128 0
M  V30 508 H 44.5041 -2.10669 -3.16738 0
M  V30 509 H 45.8161 -2.57704 -4.27071 0
M  V30 510 H 44.9701 -0.966173 -5.98957 0
M  V30 511 H 43.7091 -0.394272 -4.86104 0
M  V30 512 H 42.7141 -2.69805 -4.79046 0
M  V30 513 H 43.9391 -3.26728 -5.95336 0
M  V30 514 H 41.8851 -1.08352 -6.4699 0
M  V30 515 H 41.8021 -2.71217 -7.05675 0
M  V30 516 H 43.0701 -1.66252 -7.61564 0
M  V30 517 N 47.2992 1.18797 -1.03562 0
M  V30 518 C 48.5762 1.84469 -0.650434 0
M  V30 519 C 48.9562 1.92319 0.870433 0
M  V30 520 O 48.3042 1.44528 1.76986 0
M  V30 521 C 48.5142 3.2306 -1.32036 0
M  V30 522 C 49.8622 3.9915 -1.44792 0
M  V30 523 O 50.8862 3.32481 -1.27806 0
M  V30 524 O 49.7452 5.18587 -1.72423 0
M  V30 525 H 46.8392 0.795251 -0.226946 0
M  V30 526 H 49.3852 1.26231 -1.13419 0
M  V30 527 H 48.1572 3.1222 -2.3587 0
M  V30 528 H 47.7802 3.88949 -0.8249 0
M  V30 529 N 48.7773 0.814389 1.34928 0
M  V30 530 C 50.0263 0.394871 1.97797 0
M  V30 531 C 50.3393 -1.04555 1.65311 0
M  V30 532 O 51.5453 -1.56856 2.21604 0
M  V30 533 C 50.0013 0.655103 3.53888 0
M  V30 534 C 49.6093 2.10858 3.95276 0
M  V30 535 C 51.3533 0.301329 4.23429 0
M  V30 536 C 49.2603 2.31415 5.44244 0
M  V30 537 H 48.1903 0.143913 0.740139 0
M  V30 538 H 50.8413 0.999544 1.53888 0
M  V30 539 H 49.2233 -0.0196253 3.95995 0
M  V30 540 H 50.3973 2.82176 3.64298 0
M  V30 541 H 48.7123 2.42297 3.38646 0
M  V30 542 H 51.3093 0.432869 5.32945 0
M  V30 543 H 51.6523 -0.75331 4.09428 0
M  V30 544 H 52.1853 0.930288 3.86769 0
M  V30 545 H 48.9243 3.35353 5.63222 0
M  V30 546 H 48.4443 1.6463 5.76764 0
M  V30 547 H 50.1233 2.13352 6.10811 0
M  V30 548 N 50.2554 -1.46986 0.568584 0
M  V30 549 C 51.1654 -2.33942 -0.17555 0
M  V30 550 C 52.1814 -1.48891 -0.90041 0
M  V30 551 O 53.3574 -1.81794 -0.86676 0
M  V30 552 C 50.4224 -3.25811 -1.18524 0
M  V30 553 C 49.4834 -4.26757 -0.466582 0
M  V30 554 C 48.7164 -5.14236 -1.42817 0
M  V30 555 O 48.9394 -5.04379 -2.66379 0
M  V30 556 O 47.8734 -5.94412 -0.946453 0
M  V30 557 H 51.6994 -2.98896 0.538036 0
M  V30 558 H 49.2844 -1.4573 0.329097 0
M  V30 559 H 51.1664 -3.82527 -1.76779 0
M  V30 560 H 49.8414 -2.63471 -1.88055 0
M  V30 561 H 48.7484 -3.73769 0.157451 0
M  V30 562 H 50.0814 -4.91843 0.187485 0
M  V30 563 N 51.7335 -0.305618 -1.54608 0
M  V30 564 C 52.9615 0.304775 -2.04643 0
M  V30 565 C 53.3765 1.47167 -1.18268 0
M  V30 566 O 52.7335 1.81296 -0.209328 0
M  V30 567 C 52.7845 0.756564 -3.53495 0
M  V30 568 O 52.5055 -0.36389 -4.36586 0
M  V30 569 C 54.0065 1.43163 -4.19546 0
M  V30 570 H 51.2265 0.0655481 -0.667791 0
M  V30 571 H 53.7705 -0.446592 -1.99564 0
M  V30 572 H 51.9255 1.45794 -3.58919 0
M  V30 573 H 52.3395 -0.0113121 -5.24499 0
M  V30 574 H 53.8135 1.69886 -5.25207 0
M  V30 575 H 54.2905 2.37318 -3.69563 0
M  V30 576 H 54.8965 0.773307 -4.18211 0
M  V30 577 N 53.2116 1.57565 -0.0334293 0
M  V30 578 C 54.4606 1.91155 0.643639 0
M  V30 579 C 54.7736 0.91192 1.73042 0
M  V30 580 O 55.9796 1.13923 2.46442 0
M  V30 581 C 54.4356 3.39443 1.1961 0
M  V30 582 C 54.0436 4.47774 0.142381 0
M  V30 583 C 55.7876 3.82094 1.84944 0
M  V30 584 C 53.6946 5.87162 0.706727 0
M  V30 585 H 52.6246 0.713368 0.244176 0
M  V30 586 H 55.2756 1.8323 -0.0994323 0
M  V30 587 H 53.6576 3.42313 1.99092 0
M  V30 588 H 54.8316 4.56469 -0.630296 0
M  V30 589 H 53.1466 4.14352 -0.412446 0
M  V30 590 H 55.7436 4.83591 2.2813 0
M  V30 591 H 56.0866 3.17386 2.69392 0
M  V30 592 H 56.6196 3.81665 1.12145 0
M  V30 593 H 53.3586 6.55424 -0.0997178 0
M  V30 594 H 52.8786 5.82064 1.44779 0
M  V30 595 H 54.5576 6.35866 1.19514 0
M  V30 596 N 54.6897 -0.239769 1.55765 0
M  V30 597 C 55.6527 -1.28038 1.90103 0
M  V30 598 C 56.6527 -1.40723 0.778055 0
M  V30 599 O 57.8427 -1.39301 1.04599 0
M  V30 600 C 54.9747 -2.65702 2.13577 0
M  V30 601 H 56.1677 -0.988048 2.83157 0
M  V30 602 H 53.7207 -0.479382 1.48767 0
M  V30 603 H 54.4557 -3.00063 1.23015 0
M  V30 604 H 54.2407 -2.57875 2.95369 0
M  V30 605 H 55.7307 -3.40828 2.41301 0
M  V30 606 N 56.1678 -1.49265 -0.50573 0
M  V30 607 C 57.0778 -1.68312 -1.63427 0
M  V30 608 C 58.0938 -0.565682 -1.64548 0
M  V30 609 O 59.2698 -0.839801 -1.83055 0
M  V30 610 C 56.3348 -1.74107 -2.99813 0
M  V30 611 C 55.3958 -2.97653 -3.09356 0
M  V30 612 C 54.6288 -3.03163 -4.39236 0
M  V30 613 O 54.8518 -2.16396 -5.27758 0
M  V30 614 O 53.7858 -3.9558 -4.53652 0
M  V30 615 H 57.6118 -2.63907 -1.50289 0
M  V30 616 H 55.1968 -1.32951 -0.681502 0
M  V30 617 H 57.0788 -1.803 -3.80881 0
M  V30 618 H 55.7538 -0.816901 -3.13223 0
M  V30 619 H 54.6608 -2.96981 -2.27493 0
M  V30 620 H 55.9938 -3.89535 -3.00871 0
M  V30 621 N 57.6459 0.756429 -1.3826 0
M  V30 622 C 58.6089 1.85176 -1.35065 0
M  V30 623 C 59.6089 1.58818 -0.251703 0
M  V30 624 O 60.7989 1.66615 -0.508433 0
M  V30 625 C 57.9309 3.22596 -1.10201 0
M  V30 626 H 59.1239 1.89417 -2.3251 0
M  V30 627 H 56.6769 0.95783 -1.23512 0
M  V30 628 H 57.4119 3.24025 -0.133504 0
M  V30 629 H 57.1969 3.43122 -1.89762 0
M  V30 630 H 58.6869 4.02673 -1.10654 0
M  V30 631 N 59.124 1.23083 0.984299 0
M  V30 632 C 60.372 1.05848 1.72165 0
M  V30 633 C 60.693 -0.406049 1.90726 0
M  V30 634 O 59.963 -1.29139 1.47309 0
M  V30 635 H 58.543 0.388685 0.637913 0
M  V30 636 H 61.205 1.54736 1.18503 0
M  V30 637 H 60.301 1.54327 2.71274 0
M  V30 638 N 60.6021 -1.18246 1.0419 0
M  V30 639 C 61.8491 -1.88257 0.746017 0
M  V30 640 C 62.1771 -1.80429 -0.726331 0
M  V30 641 O 61.4321 -1.2 -1.54591 0
M  V30 642 C 61.7311 -3.38082 1.15911 0
M  V30 643 C 61.3971 -3.66114 2.63195 0
M  V30 644 C 60.0591 -3.73474 3.03432 0
M  V30 645 C 62.4111 -3.78398 3.5842 0
M  V30 646 C 59.7391 -3.90599 4.37778 0
M  V30 647 C 62.0911 -3.97039 4.92487 0
M  V30 648 C 60.7551 -4.02635 5.32392 0
M  V30 649 H 60.0251 -0.688883 0.272987 0
M  V30 650 H 62.6721 -1.3995 1.30715 0
M  V30 651 H 60.9771 -3.88377 0.516806 0
M  V30 652 H 62.6741 -3.90596 0.907516 0
M  V30 653 H 59.2641 -3.61003 2.3103 0
M  V30 654 H 63.4481 -3.72042 3.28479 0
M  V30 655 H 58.7041 -3.93175 4.68213 0
M  V30 656 H 62.8781 -4.05486 5.66175 0
M  V30 657 H 60.5051 -4.15657 6.36501 0
M  V30 658 N 62.0802 -0.821533 -1.34494 0
M  V30 659 C 63.3572 -0.33159 -1.92769 0
M  V30 660 C 63.7372 1.18088 -1.74981 0
M  V30 661 O 63.0852 1.98733 -1.12772 0
M  V30 662 C 63.2952 -0.759398 -3.40638 0
M  V30 663 C 64.6432 -0.757433 -4.1779 0
M  V30 664 O 65.6672 -0.70189 -3.49216 0
M  V30 665 O 64.5262 -0.829361 -5.4017 0
M  V30 666 H 61.6202 -0.0902502 -0.822061 0
M  V30 667 H 64.1662 -0.906231 -1.43477 0
M  V30 668 H 62.9382 -1.8012 -3.47379 0
M  V30 669 H 62.5612 -0.160378 -3.97276 0
M  V30 670 N 63.5583 1.46682 -0.576371 0
M  V30 671 C 64.5083 2.27278 0.181288 0
M  V30 672 C 65.4923 1.35497 0.867721 0
M  V30 673 O 66.6843 1.59717 0.762863 0
M  V30 674 C 63.8133 3.21703 1.19841 0
M  V30 675 C 62.8993 4.20969 0.51442 0
M  V30 676 N 63.2903 5.03999 -0.426407 0
M  V30 677 C 61.5883 4.39373 0.765963 0
M  V30 678 C 62.2893 5.75812 -0.825565 0
M  V30 679 N 61.2653 5.43315 -0.176116 0
M  V30 680 H 65.0673 2.88863 -0.541785 0
M  V30 681 H 62.5813 1.57455 -0.397697 0
M  V30 682 H 64.5783 3.78145 1.75533 0
M  V30 683 H 63.2383 2.61677 1.92238 0
M  V30 684 H 64.2493 5.11659 -0.8016 0
M  V30 685 H 60.9263 3.90502 1.47698 0
M  V30 686 H 62.3163 6.52577 -1.59976 0
M  V30 687 N 65.0364 0.313813 1.54444 0
M  V30 688 C 66.2824 -0.292108 2.00685 0
M  V30 689 C 66.6154 -1.52548 1.20177 0
M  V30 690 O 65.8904 -1.92452 0.281531 0
M  V30 691 C 66.1734 -0.635968 3.5444 0
M  V30 692 C 66.0264 0.607437 4.4568 0
M  V30 693 C 67.3454 -1.45747 4.15266 0
M  V30 694 H 64.4644 -0.104697 0.729526 0
M  V30 695 H 67.1064 0.428457 1.85106 0
M  V30 696 H 65.2564 -1.24986 3.67846 0
M  V30 697 H 66.9284 1.24581 4.44159 0
M  V30 698 H 65.1714 1.23822 4.15753 0
M  V30 699 H 65.8424 0.322515 5.51057 0
M  V30 700 H 68.3184 -0.938645 4.05375 0
M  V30 701 H 67.1944 -1.66683 5.2298 0
M  V30 702 H 67.4554 -2.45063 3.67963 0
M  V30 703 N 66.5145 -1.57545 0.0417849 0
M  V30 704 C 67.9305 -1.56467 -0.314704 0
M  V30 705 C 68.1305 -1.04859 -1.72066 0
M  V30 706 O 67.1865 -0.700983 -2.42575 0
M  V30 707 C 68.4995 -3.00317 -0.15174 0
M  V30 708 C 70.0475 -3.12201 -0.223553 0
M  V30 709 C 70.5225 -4.57913 -0.0892295 0
M  V30 710 N 72.0135 -4.6297 -0.145808 0
M  V30 711 C 72.7485 -5.73362 -0.0658459 0
M  V30 712 N 72.2445 -6.92769 0.0659282 0
M  V30 713 N 74.0375 -5.6197 -0.12075 0
M  V30 714 H 66.1885 -1.89416 0.961014 0
M  V30 715 H 68.4515 -0.871862 0.372237 0
M  V30 716 H 68.1575 -3.42073 0.817254 0
M  V30 717 H 68.0315 -3.65892 -0.916692 0
M  V30 718 H 70.4185 -2.70349 -1.18301 0
M  V30 719 H 70.4995 -2.49323 0.571994 0
M  V30 720 H 70.1435 -5.00448 0.866867 0
M  V30 721 H 70.0735 -5.18786 -0.903802 0
M  V30 722 H 72.5645 -3.7709 -0.247286 0
M  V30 723 H 72.8775 -7.72707 0.119905 0
M  V30 724 H 71.2225 -6.94927 0.100885 0
M  V30 725 H 74.4135 -4.67572 -0.222187 0
M  V30 726 H 74.5865 -6.47977 -0.0549735 0
M  V30 727 N 67.9926 0.231505 -1.5589 0
M  V30 728 C 68.9226 1.29022 -1.94617 0
M  V30 729 C 69.9036 1.4941 -0.813067 0
M  V30 730 O 71.0886 1.6176 -1.07459 0
M  V30 731 C 68.2186 2.64199 -2.25424 0
M  V30 732 C 67.1726 2.58484 -3.41131 0
M  V30 733 C 66.4986 3.97599 -3.57518 0
M  V30 734 C 67.7986 2.1413 -4.76388 0
M  V30 735 H 69.4926 0.968563 -2.83301 0
M  V30 736 H 67.0386 0.464479 -1.36303 0
M  V30 737 H 68.9916 3.38413 -2.51107 0
M  V30 738 H 67.7156 2.98032 -1.33583 0
M  V30 739 H 66.3746 1.86727 -3.15481 0
M  V30 740 H 66.0226 4.28723 -2.6307 0
M  V30 741 H 65.7226 3.94659 -4.35337 0
M  V30 742 H 67.2466 4.7349 -3.85538 0
M  V30 743 H 68.6606 2.78083 -5.01341 0
M  V30 744 H 67.0576 2.2227 -5.57419 0
M  V30 745 H 68.1276 1.09331 -4.72414 0
M  V30 746 N 69.4707 1.49531 0.497807 0
M  V30 747 C 70.8817 1.52344 1.07927 0
M  V30 748 C 71.2327 0.311469 1.93712 0
M  V30 749 O 70.3577 -0.578405 2.08527 0
M  V30 750 C 70.9527 2.76062 1.96405 0
M  V30 751 C 69.5117 2.81643 2.49709 0
M  V30 752 C 68.6587 2.46299 1.27404 0
M  V30 753 H 71.6097 1.56182 0.281576 0
M  V30 754 H 71.6307 2.56405 2.81135 0
M  V30 755 H 71.1427 3.64254 1.33943 0
M  V30 756 H 69.2437 1.97739 3.15801 0
M  V30 757 H 69.3567 3.83891 2.86643 0
M  V30 758 H 67.7207 1.98148 1.60029 0
M  V30 759 H 68.5037 3.36769 0.66645 0
M  V30 760 N 70.9488 -0.749086 1.3866 0
M  V30 761 C 72.1958 -1.50833 1.35114 0
M  V30 762 C 72.5238 -1.94415 -0.0574049 0
M  V30 763 O 71.7788 -1.66065 -1.03541 0
M  V30 764 C 72.0778 -2.7712 2.25697 0
M  V30 765 C 71.7438 -2.52477 3.73585 0
M  V30 766 C 70.4058 -2.45466 4.13884 0
M  V30 767 C 72.7578 -2.31066 4.67181 0
M  V30 768 C 70.0858 -2.15064 5.45861 0
M  V30 769 C 72.4378 -2.02183 5.9942 0
M  V30 770 C 71.1018 -1.93631 6.38798 0
M  V30 771 H 70.3718 -0.551936 0.494416 0
M  V30 772 H 73.0188 -0.860979 1.71054 0
M  V30 773 H 71.3238 -3.46528 1.82827 0
M  V30 774 H 73.0208 -3.35096 2.20254 0
M  V30 775 H 69.6108 -2.58807 3.41638 0
M  V30 776 H 73.7948 -2.35459 4.3689 0
M  V30 777 H 69.0508 -2.06954 5.75308 0
M  V30 778 H 73.2248 -1.8462 6.71482 0
M  V30 779 H 70.8518 -1.69839 7.40985 0
M  V30 780 N 72.4269 -1.23603 -0.977757 0
M  V30 781 C 73.7039 -0.977897 -1.69401 0
M  V30 782 C 74.0839 0.502738 -2.05026 0
M  V30 783 O 73.4319 1.47459 -1.74551 0
M  V30 784 C 73.6419 -1.89077 -2.93345 0
M  V30 785 C 74.9899 -2.15579 -3.65802 0
M  V30 786 O 76.0139 -1.86648 -3.03383 0
M  V30 787 O 74.8729 -2.64658 -4.78141 0
M  V30 788 H 71.9669 -0.369025 -0.740101 0
M  V30 789 H 74.5129 -1.34657 -1.03274 0
M  V30 790 H 73.2849 -2.89158 -2.63634 0
M  V30 791 H 72.9079 -1.52463 -3.67207 0
M  V30 792 N 73.905 1.17692 -1.04816 0
M  V30 793 C 75.135 1.91508 -0.775128 0
M  V30 794 C 75.543 1.76844 0.67253 0
M  V30 795 O 74.886 1.10057 1.47082 0
M  V30 796 C 74.948 3.43167 -1.0713 0
M  V30 797 C 74.612 3.81612 -2.51438 0
M  V30 798 C 75.609 3.84772 -3.49638 0
M  V30 799 C 73.294 4.12687 -2.86348 0
M  V30 800 C 75.288 4.18469 -4.80794 0
M  V30 801 C 72.975 4.46053 -4.17708 0
M  V30 802 C 73.973 4.48921 -5.14741 0
M  V30 803 O 73.661 4.81504 -6.43746 0
M  V30 804 H 73.393 0.614575 -0.281555 0
M  V30 805 H 75.947 1.50206 -1.40098 0
M  V30 806 H 74.177 3.84745 -0.388342 0
M  V30 807 H 75.866 3.98239 -0.784883 0
M  V30 808 H 76.632 3.60893 -3.24008 0
M  V30 809 H 72.511 4.09627 -2.11486 0
M  V30 810 H 76.055 4.20623 -5.56527 0
M  V30 811 H 71.952 4.69393 -4.43103 0
M  V30 812 H 72.72 4.99377 -6.4851 0
M  V30 813 N 75.3831 0.828654 1.34056 0
M  V30 814 C 76.7941 0.477534 1.8049 0
M  V30 815 C 77.1451 -1.00258 1.6865 0
M  V30 816 O 76.2701 -1.78057 1.22982 0
M  V30 817 C 76.8651 0.860018 3.27703 0
M  V30 818 C 75.4241 0.561185 3.72193 0
M  V30 819 C 74.5711 1.07385 2.55663 0
M  V30 820 H 77.5221 1.0183 1.21722 0
M  V30 821 H 77.5431 0.166038 3.80138 0
M  V30 822 H 77.0551 1.93731 3.36288 0
M  V30 823 H 75.1561 -0.506465 3.69142 0
M  V30 824 H 75.2691 1.10926 4.66082 0
M  V30 825 H 73.6331 0.495149 2.49841 0
M  V30 826 H 74.4161 2.15771 2.67016 0
M  V30 827 N 76.8612 -1.46375 0.584142 0
M  V30 828 C 78.1102 -2.01585 0.0679741 0
M  V30 829 C 78.4232 -1.46109 -1.30045 0
M  V30 830 O 79.6292 -1.93148 -1.90804 0
M  V30 831 C 78.0852 -3.5983 0.0709207 0
M  V30 832 C 77.6932 -4.24303 1.43775 0
M  V30 833 C 79.4372 -4.22693 -0.391228 0
M  V30 834 C 77.3442 -5.74631 1.39834 0
M  V30 835 H 76.2742 -0.753689 0.0216421 0
M  V30 836 H 78.9252 -1.68093 0.736001 0
M  V30 837 H 77.3072 -3.90405 -0.663299 0
M  V30 838 H 78.4812 -4.05335 2.19181 0
M  V30 839 H 76.7962 -3.73539 1.84004 0
M  V30 840 H 79.3932 -5.3289 -0.439524 0
M  V30 841 H 79.7362 -3.91728 -1.40906 0
M  V30 842 H 80.2692 -3.96749 0.288974 0
M  V30 843 H 77.0082 -6.10258 2.39303 0
M  V30 844 H 76.5282 -5.95858 0.686505 0
M  V30 845 H 78.2072 -6.37375 1.11187 0
M  V30 846 N 78.3393 -0.321999 -1.54275 0
M  V30 847 C 79.5883 0.281931 -1.9972 0
M  V30 848 C 79.9013 1.53369 -1.21397 0
M  V30 849 O 81.1073 2.21352 -1.57211 0
M  V30 850 C 79.5633 0.5529 -3.55628 0
M  V30 851 C 79.1713 -0.681721 -4.42783 0
M  V30 852 C 80.9153 1.11687 -4.09544 0
M  V30 853 C 78.8223 -0.382742 -5.9016 0
M  V30 854 H 77.7523 0.109124 -0.746062 0
M  V30 855 H 80.4033 -0.43398 -1.78294 0
M  V30 856 H 78.7853 1.32896 -3.73035 0
M  V30 857 H 79.9593 -1.45723 -4.37151 0
M  V30 858 H 78.2743 -1.1658 -3.99748 0
M  V30 859 H 80.8713 1.35515 -5.17242 0
M  V30 860 H 81.2143 2.06575 -3.61431 0
M  V30 861 H 81.7473 0.402032 -3.95763 0
M  V30 862 H 78.4863 -1.30076 -6.42464 0
M  V30 863 H 78.0063 0.355094 -5.98748 0
M  V30 864 H 79.6853 0.00800157 -6.47 0
M  V30 865 N 79.8174 1.5752 -0.0501392 0
M  V30 866 C 80.7274 2.14952 0.939827 0
M  V30 867 C 81.7434 1.10706 1.34239 0
M  V30 868 O 82.9194 1.42869 1.41952 0
M  V30 869 C 79.9844 2.68232 2.19665 0
M  V30 870 C 79.0454 3.87272 1.85253 0
M  V30 871 C 78.2784 4.38002 3.04943 0
M  V30 872 O 78.5014 3.87811 4.18281 0
M  V30 873 O 77.4354 5.29602 2.86017 0
M  V30 874 H 81.2614 2.9986 0.481392 0
M  V30 875 H 78.8464 1.4841 0.171699 0
M  V30 876 H 80.7284 3.02475 2.93406 0
M  V30 877 H 79.4034 1.86395 2.64648 0
M  V30 878 H 78.3104 3.5792 1.0883 0
M  V30 879 H 79.6434 4.70336 1.4507 0
M  V30 880 N 81.2955 -0.223234 1.56011 0
M  V30 881 C 82.5205 -0.968978 1.83373 0
M  V30 882 C 82.9455 -1.77227 0.630254 0
M  V30 883 O 82.3035 -1.76345 -0.420959 0
M  V30 884 C 82.3515 -1.86363 3.08709 0
M  V30 885 O 81.4555 -2.95873 2.87285 0
M  V30 886 H 80.7965 -0.274461 0.604622 0
M  V30 887 H 83.3265 -0.237056 2.03222 0
M  V30 888 H 83.3365 -2.27376 3.38768 0
M  V30 889 H 82.0115 -1.27319 3.95933 0
M  V30 890 H 80.5885 -2.58818 2.68454 0
M  V30 891 N 82.7736 -1.49793 -0.48987 0
M  V30 892 C 84.0506 -1.50348 -1.25119 0
M  V30 893 C 84.4306 -0.237466 -2.0976 0
M  V30 894 O 83.7786 0.77981 -2.14782 0
M  V30 895 C 83.9886 -2.78872 -2.09837 0
M  V30 896 C 85.3366 -3.288 -2.68655 0
M  V30 897 O 86.3606 -2.80065 -2.20096 0
M  V30 898 O 85.2196 -4.13707 -3.57083 0
M  V30 899 H 82.3136 -0.602242 -0.566775 0
M  V30 900 H 84.8596 -1.62067 -0.503229 0
M  V30 901 H 83.6316 -3.62499 -1.47343 0
M  V30 902 H 83.2546 -2.70066 -2.91805 0
M  V30 903 N 84.2517 0.741722 -1.39055 0
M  V30 904 C 85.5287 1.49252 -1.26425 0
M  V30 905 C 85.9087 2.10705 0.129144 0
M  V30 906 O 85.2567 1.98045 1.13976 0
M  V30 907 C 85.4667 2.54934 -2.38347 0
M  V30 908 C 86.8147 3.21506 -2.77343 0
M  V30 909 O 87.8387 2.65245 -2.37747 0
M  V30 910 O 86.6977 4.23294 -3.45665 0
M  V30 911 H 83.7917 0.662451 -0.495064 0
M  V30 912 H 86.3377 0.776121 -1.50912 0
M  V30 913 H 85.1097 2.07857 -3.31529 0
M  V30 914 H 84.7327 3.34141 -2.15489 0
M  V30 915 N 85.7298 1.2412 0.971189 0
M  V30 916 C 86.6778 1.02812 2.08644 0
M  V30 917 C 87.6718 -0.0358403 1.69362 0
M  V30 918 O 88.8778 0.118429 1.7961 0
M  V30 919 H 85.2528 0.315428 0.682649 0
M  V30 920 H 87.2238 1.97397 2.23779 0
M  V30 921 C 85.9728 0.645874 3.41649 0
M  V30 922 H 85.2958 1.45632 3.72332 0
M  V30 923 H 86.7358 0.536366 4.20594 0
M  V30 924 C 85.1948 -0.646713 3.30635 0
M  V30 925 O 85.7248 -1.69338 3.64263 0
M  V30 926 N 83.9308 -0.626115 2.83775 0
M  V30 927 H 83.4778 0.225988 2.56607 0
M  V30 928 H 83.4358 -1.49117 2.76788 0
M  V30 929 N 87.2079 -1.17134 1.05439 0
M  V30 930 C 88.4539 -1.87733 0.767077 0
M  V30 931 C 88.7869 -1.8098 -0.704253 0
M  V30 932 O 88.0619 -1.21951 -1.5152 0
M  V30 933 C 88.3449 -3.37659 1.25133 0
M  V30 934 C 88.1979 -3.53149 2.78578 0
M  V30 935 C 89.5169 -4.31768 0.852324 0
M  V30 936 H 86.6359 -0.681687 0.280129 0
M  V30 937 H 89.2779 -1.37732 1.30881 0
M  V30 938 H 87.4279 -3.80373 0.790469 0
M  V30 939 H 89.0999 -3.19434 3.32806 0
M  V30 940 H 87.3429 -2.95345 3.17732 0
M  V30 941 H 88.0139 -4.58403 3.07523 0
M  V30 942 H 90.4899 -3.96909 1.24911 0
M  V30 943 H 89.3659 -5.35199 1.21873 0
M  V30 944 H 89.6269 -4.41429 -0.243485 0
M  V30 945 N 88.686 -0.835752 -1.33615 0
M  V30 946 C 89.934 -0.429109 -1.97492 0
M  V30 947 C 90.255 1.01433 -1.66543 0
M  V30 948 O 89.525 1.70611 -0.962744 0
M  V30 949 H 88.105 -0.155686 -0.730596 0
M  V30 950 H 90.767 -1.06802 -1.63031 0
M  V30 951 H 89.863 -0.55861 -3.0706 0
M  V30 952 N 90.1641 1.46063 -0.591896 0
M  V30 953 C 91.0741 2.34192 0.13831 0
M  V30 954 C 92.0901 1.50305 0.876608 0
M  V30 955 O 93.2661 1.8315 0.837728 0
M  V30 956 C 90.3311 3.27656 1.13326 0
M  V30 957 C 89.3921 4.27445 0.39863 0
M  V30 958 C 88.6251 5.16443 1.34618 0
M  V30 959 O 88.8481 5.08553 2.58321 0
M  V30 960 O 87.7821 5.95843 0.851768 0
M  V30 961 H 91.6081 2.98002 -0.58552 0
M  V30 962 H 89.1931 1.45188 -0.352239 0
M  V30 963 H 91.0751 3.85291 1.70671 0
M  V30 964 H 89.7501 2.6643 1.83839 0
M  V30 965 H 88.6571 3.73471 -0.216895 0
M  V30 966 H 89.9901 4.91482 -0.265709 0
M  V30 967 N 91.6422 0.330177 1.54103 0
M  V30 968 C 92.8722 -0.271784 2.04805 0
M  V30 969 C 93.2802 -1.45816 1.20559 0
M  V30 970 O 92.6232 -1.82247 0.2306 0
M  V30 971 C 92.6852 -0.763238 3.51305 0
M  V30 972 C 92.3492 0.301705 4.56003 0
M  V30 973 C 93.3462 1.13999 5.07248 0
M  V30 974 C 91.0312 0.451793 5.00264 0
M  V30 975 C 93.0252 2.11402 6.01322 0
M  V30 976 C 90.7122 1.42924 5.94151 0
M  V30 977 C 91.7102 2.25882 6.44567 0
M  V30 978 O 91.3982 3.21965 7.3661 0
M  V30 979 H 91.1302 -0.058693 0.673447 0
M  V30 980 H 93.6842 0.476395 1.99799 0
M  V30 981 H 91.9142 -1.56244 3.5373 0
M  V30 982 H 93.6032 -1.28427 3.85047 0
M  V30 983 H 94.3692 1.03505 4.73827 0
M  V30 984 H 90.2482 -0.184044 4.60632 0
M  V30 985 H 93.7922 2.76192 6.40596 0
M  V30 986 H 89.6892 1.53479 6.26988 0
M  V30 987 H 90.4572 3.17281 7.54503 0
M  V30 988 N 93.1203 -1.57491 0.0584922 0
M  V30 989 C 94.0673 -2.11958 -0.913376 0
M  V30 990 C 95.0373 -1.02875 -1.30407 0
M  V30 991 O 96.2223 -1.30464 -1.39226 0
M  V30 992 C 93.3623 -2.67497 -2.18035 0
M  V30 993 C 92.4753 -3.90691 -1.84349 0
M  V30 994 C 91.6103 -4.3452 -3.05559 0
M  V30 995 C 90.6493 -5.50395 -2.67827 0
M  V30 996 N 89.7863 -5.89244 -3.81754 0
M  V30 997 H 94.6263 -2.94704 -0.442017 0
M  V30 998 H 92.1633 -1.45643 -0.206545 0
M  V30 999 H 94.1213 -2.978 -2.92183 0
M  V30 1000 H 92.7513 -1.87537 -2.62735 0
M  V30 1001 H 91.8033 -3.66934 -1.00319 0
M  V30 1002 H 93.1153 -4.7489 -1.5258 0
M  V30 1003 H 92.2693 -4.66414 -3.87998 0
M  V30 1004 H 91.0083 -3.49147 -3.40511 0
M  V30 1005 H 90.0133 -5.18165 -1.83806 0
M  V30 1006 H 91.2383 -6.3749 -2.34059 0
M  V30 1007 H 89.1843 -5.06823 -4.16493 0
M  V30 1008 H 89.1013 -6.68151 -3.53708 0
M  V30 1009 H 90.3693 -6.25756 -4.64811 0
M  V30 1010 N 94.5984 0.214957 -1.56127 0
M  V30 1011 C 95.5084 1.28727 -1.96129 0
M  V30 1012 C 96.5244 1.50916 -0.866044 0
M  V30 1013 O 97.7004 1.63918 -1.17016 0
M  V30 1014 C 94.7654 2.61569 -2.27558 0
M  V30 1015 C 93.8264 2.47625 -3.50685 0
M  V30 1016 C 93.0594 3.74132 -3.80606 0
M  V30 1017 O 93.2824 4.77438 -3.12104 0
M  V30 1018 O 92.2164 3.70849 -4.74083 0
M  V30 1019 H 96.0424 0.977855 -2.87527 0
M  V30 1020 H 93.6274 0.418358 -1.43423 0
M  V30 1021 H 95.5094 3.40012 -2.48938 0
M  V30 1022 H 94.1844 2.92178 -1.39332 0
M  V30 1023 H 93.0914 1.67361 -3.34576 0
M  V30 1024 H 94.4244 2.21954 -4.39315 0
M  V30 1025 N 96.0765 1.50051 0.48192 0
M  V30 1026 C 97.3535 1.51009 1.2432 0
M  V30 1027 C 97.7335 0.248587 2.09631 0
M  V30 1028 O 97.0815 -0.768409 2.15192 0
M  V30 1029 C 97.2915 2.79981 2.08355 0
M  V30 1030 C 98.6395 3.3022 2.66908 0
M  V30 1031 O 99.6635 2.81228 2.18607 0
M  V30 1032 O 98.5225 4.15595 3.54884 0
M  V30 1033 H 95.6165 0.605239 0.563573 0
M  V30 1034 H 98.1625 1.62332 0.494627 0
M  V30 1035 H 96.9345 3.63275 1.45419 0
M  V30 1036 H 96.5575 2.7161 2.90368 0
M  V30 1037 N 97.5546 -0.734337 1.39446 0
M  V30 1038 C 98.8026 -1.49096 1.36436 0
M  V30 1039 C 99.1236 -1.94961 -0.0388255 0
M  V30 1040 O 98.3936 -1.69033 -0.990191 0
M  V30 1041 H 96.9736 -0.5531 0.502085 0
M  V30 1042 H 99.6356 -0.871725 1.74319 0
M  V30 1043 H 98.7316 -2.37276 2.02747 0
M  V30 1044 N 99.0327 -1.24633 -0.964593 0
M  V30 1045 C 99.9627 -1.06611 -2.07741 0
M  V30 1046 C 100.944 0.0218666 -1.70086 0
M  V30 1047 O 102.129 -0.145793 -1.93652 0
M  V30 1048 C 99.2587 -0.673444 -3.40708 0
M  V30 1049 C 98.2127 -1.71054 -3.92332 0
M  V30 1050 C 97.5387 -1.17285 -5.21678 0
M  V30 1051 C 98.8387 -3.10718 -4.19824 0
M  V30 1052 H 100.533 -1.99693 -2.23076 0
M  V30 1053 H 98.0787 -0.96152 -1.07195 0
M  V30 1054 H 100.032 -0.534345 -4.17998 0
M  V30 1055 H 98.7557 0.293073 -3.25282 0
M  V30 1056 H 97.4147 -1.83791 -3.17201 0
M  V30 1057 H 97.0627 -0.196847 -5.02615 0
M  V30 1058 H 96.7627 -1.86592 -5.57187 0
M  V30 1059 H 98.2867 -1.04593 -6.01575 0
M  V30 1060 H 99.7007 -3.01192 -4.87808 0
M  V30 1061 H 98.0977 -3.77406 -4.66567 0
M  V30 1062 H 99.1677 -3.58524 -3.26479 0
M  V30 1063 N 100.511 1.16574 -1.06058 0
M  V30 1064 C 101.736 1.91493 -0.796562 0
M  V30 1065 C 102.161 1.76773 0.642868 0
M  V30 1066 O 101.519 1.09142 1.44768 0
M  V30 1067 C 101.567 3.40293 -1.19303 0
M  V30 1068 O 100.671 4.11074 -0.330394 0
M  V30 1069 H 100.012 0.596678 -0.291326 0
M  V30 1070 H 102.542 1.47708 -1.41575 0
M  V30 1071 H 102.552 3.91057 -1.16356 0
M  V30 1072 H 101.227 3.50326 -2.24153 0
M  V30 1073 H 99.8038 3.70513 -0.421225 0
M  V30 1074 N 101.989 0.842826 1.3317 0
M  V30 1075 C 103.219 0.453397 2.01564 0
M  V30 1076 C 103.627 -0.951147 1.63554 0
M  V30 1077 O 102.97 -1.63021 0.846746 0
M  V30 1078 C 103.032 0.499013 3.5602 0
M  V30 1079 C 102.696 1.86037 4.1742 0
M  V30 1080 C 103.693 2.82416 4.36506 0
M  V30 1081 C 101.378 2.15428 4.53757 0
M  V30 1082 C 103.372 4.06346 4.91082 0
M  V30 1083 C 101.059 3.39615 5.0804 0
M  V30 1084 C 102.057 4.3489 5.26649 0
M  V30 1085 O 101.745 5.5688 5.79776 0
M  V30 1086 H 101.477 0.177871 0.652179 0
M  V30 1087 H 104.031 1.13808 1.70988 0
M  V30 1088 H 102.261 -0.242467 3.85939 0
M  V30 1089 H 103.95 0.126852 4.05702 0
M  V30 1090 H 104.716 2.6101 4.08777 0
M  V30 1091 H 100.595 1.42061 4.38565 0
M  V30 1092 H 104.139 4.80722 5.05522 0
M  V30 1093 H 100.036 3.60876 5.352 0
M  V30 1094 H 100.804 5.58674 5.98185 0
M  V30 1095 N 103.467 -1.45747 0.599634 0
M  V30 1096 C 104.716 -2.01502 0.0893511 0
M  V30 1097 C 105.029 -1.4748 -1.28488 0
M  V30 1098 O 106.235 -1.95161 -1.88745 0
M  V30 1099 C 104.691 -3.59735 0.109082 0
M  V30 1100 C 104.299 -4.22754 1.48267 0
M  V30 1101 C 106.043 -4.23085 -0.346374 0
M  V30 1102 C 103.95 -5.73115 1.45921 0
M  V30 1103 H 102.88 -0.753417 0.0296347 0
M  V30 1104 H 105.531 -1.67303 0.753788 0
M  V30 1105 H 103.913 -3.91087 -0.621854 0
M  V30 1106 H 105.087 -4.02987 2.23468 0
M  V30 1107 H 103.402 -3.71567 1.87955 0
M  V30 1108 H 105.999 -5.33327 -0.38298 0
M  V30 1109 H 106.342 -3.93201 -1.36743 0
M  V30 1110 H 106.875 -3.9642 0.331038 0
M  V30 1111 H 103.614 -6.07685 2.45762 0
M  V30 1112 H 103.134 -5.95097 0.749665 0
M  V30 1113 H 104.813 -6.3616 1.17941 0
M  V30 1114 N 104.945 -0.338344 -1.53925 0
M  V30 1115 C 106.222 0.314774 -1.93051 0
M  V30 1116 C 106.602 1.68669 -1.26941 0
M  V30 1117 O 105.95 2.24636 -0.418445 0
M  V30 1118 C 106.16 0.392249 -3.46789 0
M  V30 1119 C 107.508 0.645554 -4.19664 0
M  V30 1120 O 108.532 0.474575 -3.53024 0
M  V30 1121 O 107.391 0.976408 -5.37707 0
M  V30 1122 H 104.485 0.182598 -0.80659 0
M  V30 1123 H 107.031 -0.389141 -1.65178 0
M  V30 1124 H 105.803 -0.570702 -3.87116 0
M  V30 1125 H 105.426 1.14316 -3.80812 0
M  V30 1126 N 106.423 1.57458 -0.0668435 0
M  V30 1127 C 107.839 1.56947 0.289772 0
M  V30 1128 C 108.039 1.07584 1.70376 0
M  V30 1129 O 107.095 0.739486 2.41429 0
M  V30 1130 C 108.408 3.0052 0.103943 0
M  V30 1131 C 109.956 3.12517 0.173857 0
M  V30 1132 C 110.431 4.57997 0.0163682 0
M  V30 1133 N 111.922 4.63144 0.0721352 0
M  V30 1134 C 112.657 5.73394 -0.0253794 0
M  V30 1135 N 112.153 6.92576 -0.176133 0
M  V30 1136 N 113.946 5.62091 0.0313305 0
M  V30 1137 H 106.097 1.87863 -0.991027 0
M  V30 1138 H 108.36 0.86583 -0.38606 0
M  V30 1139 H 108.066 3.40729 -0.871572 0
M  V30 1140 H 107.94 3.67304 0.858366 0
M  V30 1141 H 110.327 2.72197 1.13985 0
M  V30 1142 H 110.408 2.48381 -0.611586 0
M  V30 1143 H 110.052 4.99005 -0.946374 0
M  V30 1144 H 109.982 5.20158 0.821153 0
M  V30 1145 H 112.473 3.77436 0.187263 0
M  V30 1146 H 112.786 7.72418 -0.242821 0
M  V30 1147 H 111.131 6.94678 -0.211429 0
M  V30 1148 H 114.322 4.67867 0.147773 0
M  V30 1149 H 114.495 6.47982 -0.048121 0
M  V30 1150 N 107.901 -0.206675 1.56239 0
M  V30 1151 C 109.141 -0.93574 1.81723 0
M  V30 1152 C 109.505 -1.80927 0.642609 0
M  V30 1153 O 110.706 -2.57323 0.777081 0
M  V30 1154 C 108.977 -1.74012 3.12177 0
M  V30 1155 S 110.536 -2.52279 3.59028 0
M  V30 1156 H 107.354 -0.314065 0.637875 0
M  V30 1157 H 109.956 -0.200071 1.94474 0
M  V30 1158 H 108.66 -1.0888 3.95693 0
M  V30 1159 H 108.191 -2.51782 3.02274 0
M  V30 1160 H 110.206 -3.76209 3.23545 0
M  V30 1161 N 109.379 -1.50304 -0.473955 0
M  V30 1162 C 110.309 -1.71886 -1.58042 0
M  V30 1163 C 111.29 -0.567799 -1.60344 0
M  V30 1164 O 112.475 -0.806623 -1.76656 0
M  V30 1165 C 109.605 -1.81036 -2.96384 0
M  V30 1166 C 108.559 -2.962 -3.08949 0
M  V30 1167 C 107.885 -2.9049 -4.48909 0
M  V30 1168 C 109.185 -4.36752 -2.86434 0
M  V30 1169 H 110.879 -2.64527 -1.40234 0
M  V30 1170 H 108.425 -1.27295 -0.673201 0
M  V30 1171 H 110.378 -1.94719 -3.73714 0
M  V30 1172 H 109.102 -0.850147 -3.15341 0
M  V30 1173 H 107.761 -2.82164 -2.3405 0
M  V30 1174 H 107.409 -1.92321 -4.64781 0
M  V30 1175 H 107.109 -3.67802 -4.58253 0
M  V30 1176 H 108.633 -3.06218 -5.28264 0
M  V30 1177 H 110.047 -4.5133 -3.53517 0
M  V30 1178 H 108.444 -5.15493 -3.07225 0
M  V30 1179 H 109.514 -4.49321 -1.82316 0
M  V30 1180 N 110.857 0.726932 -1.39834 0
M  V30 1181 C 111.767 1.87131 -1.41489 0
M  V30 1182 C 112.783 1.71239 -0.308757 0
M  V30 1183 O 113.959 1.93701 -0.551529 0
M  V30 1184 C 111.024 3.22811 -1.26468 0
M  V30 1185 C 110.085 3.51039 -2.47124 0
M  V30 1186 C 109.318 4.80245 -2.3281 0
M  V30 1187 O 109.541 5.54537 -1.33585 0
M  V30 1188 O 108.475 5.08554 -3.21957 0
M  V30 1189 H 112.301 1.8869 -2.3797 0
M  V30 1190 H 109.886 0.875837 -1.21035 0
M  V30 1191 H 111.768 4.03877 -1.20255 0
M  V30 1192 H 110.443 3.22005 -0.330862 0
M  V30 1193 H 109.35 2.70027 -2.58914 0
M  V30 1194 H 110.683 3.56632 -3.39227 0
M  V30 1195 N 112.336 1.25143 0.95797 0
M  V30 1196 C 113.582 1.10863 1.70531 0
M  V30 1197 C 113.937 -0.347391 1.89238 0
M  V30 1198 O 113.23 -1.25262 1.44983 0
M  V30 1199 C 113.424 1.79272 3.09187 0
M  V30 1200 C 113.253 3.31376 3.04006 0
M  V30 1201 C 112.023 4.0062 3.07948 0
M  V30 1202 C 114.221 4.27825 2.8543 0
M  V30 1203 N 112.203 5.39526 2.9289 0
M  V30 1204 C 113.574 5.53794 2.78769 0
M  V30 1205 C 115.629 4.1828 2.70085 0
M  V30 1206 C 114.332 6.7131 2.58331 0
M  V30 1207 C 116.358 5.35485 2.51017 0
M  V30 1208 C 115.72 6.60393 2.45073 0
M  V30 1209 H 111.819 0.460362 0.632132 0
M  V30 1210 H 114.403 1.58196 1.13499 0
M  V30 1211 H 112.574 1.34439 3.64391 0
M  V30 1212 H 114.306 1.57764 3.72683 0
M  V30 1213 H 111.061 3.51855 3.17009 0
M  V30 1214 H 111.485 6.12416 2.88574 0
M  V30 1215 H 116.127 3.22461 2.73457 0
M  V30 1216 H 113.845 7.67243 2.53701 0
M  V30 1217 H 117.431 5.29959 2.40073 0
M  V30 1218 H 116.311 7.49557 2.30509 0
M  V30 1219 N 113.814 -1.1601 1.06675 0
M  V30 1220 C 115.054 -1.88304 0.795037 0
M  V30 1221 C 115.418 -1.80062 -0.666466 0
M  V30 1222 O 116.619 -2.47319 -1.05293 0
M  V30 1223 C 114.89 -3.33664 1.28076 0
M  V30 1224 S 116.449 -4.23768 1.13868 0
M  V30 1225 H 113.267 -0.649928 0.288296 0
M  V30 1226 H 115.869 -1.4001 1.36445 0
M  V30 1227 H 114.573 -3.37203 2.33927 0
M  V30 1228 H 114.104 -3.87009 0.706253 0
M  V30 1229 H 116.119 -4.96148 0.0719668 0
M  V30 1230 N 115.292 -0.849877 -1.32721 0
M  V30 1231 C 116.239 -0.289033 -2.28983 0
M  V30 1232 C 117.209 0.601324 -1.54833 0
M  V30 1233 O 118.394 0.537253 -1.8308 0
M  V30 1234 C 115.534 0.520623 -3.4115 0
M  V30 1235 C 114.647 -0.394989 -4.3019 0
M  V30 1236 C 113.782 0.426834 -5.29482 0
M  V30 1237 C 112.821 -0.486476 -6.10164 0
M  V30 1238 N 111.958 0.297879 -7.01468 0
M  V30 1239 H 116.798 -1.11519 -2.76347 0
M  V30 1240 H 114.335 -0.56138 -1.35967 0
M  V30 1241 H 116.293 1.00563 -4.04899 0
M  V30 1242 H 114.923 1.31165 -2.9495 0
M  V30 1243 H 113.975 -0.99836 -3.67065 0
M  V30 1244 H 115.287 -1.09612 -4.86607 0
M  V30 1245 H 114.441 0.975205 -5.98811 0
M  V30 1246 H 113.18 1.16136 -4.73671 0
M  V30 1247 H 112.185 -1.04677 -5.39743 0
M  V30 1248 H 113.41 -1.21953 -6.6806 0
M  V30 1249 H 111.356 1.01558 -6.48091 0
M  V30 1250 H 111.273 -0.344318 -7.55216 0
M  V30 1251 H 112.541 0.828131 -7.75089 0
M  V30 1252 N 116.77 1.45427 -0.607355 0
M  V30 1253 C 117.717 2.3053 0.111625 0
M  V30 1254 C 118.687 1.4209 0.860216 0
M  V30 1255 O 119.872 1.71019 0.845998 0
M  V30 1256 C 117.012 3.26992 1.10319 0
M  V30 1257 C 116.125 4.30535 0.355493 0
M  V30 1258 C 115.26 5.14105 1.33676 0
M  V30 1259 C 114.299 6.09376 0.576862 0
M  V30 1260 N 113.436 6.85727 1.5074 0
M  V30 1261 H 118.276 2.91477 -0.620093 0
M  V30 1262 H 115.813 1.43631 -0.317594 0
M  V30 1263 H 117.771 3.81385 1.6912 0
M  V30 1264 H 116.401 2.67799 1.80232 0
M  V30 1265 H 115.453 3.78805 -0.348023 0
M  V30 1266 H 116.765 4.98235 -0.237423 0
M  V30 1267 H 115.919 5.72897 1.99684 0
M  V30 1268 H 114.658 4.46423 1.9636 0
M  V30 1269 H 113.663 5.49715 -0.0968519 0
M  V30 1270 H 114.888 6.79085 -0.0449341 0
M  V30 1271 H 112.834 6.20735 2.12189 0
M  V30 1272 H 112.751 7.49778 0.967913 0
M  V30 1273 H 114.019 7.4906 2.15706 0
M  V30 1274 N 118.248 0.346503 1.53744 0
M  V30 1275 C 119.478 -0.250047 2.05081 0
M  V30 1276 C 119.886 -1.44529 1.22098 0
M  V30 1277 O 119.229 -1.81992 0.249917 0
M  V30 1278 C 119.291 -0.725934 3.52094 0
M  V30 1279 C 118.955 0.350053 4.55657 0
M  V30 1280 C 119.952 1.19372 5.0601 0
M  V30 1281 C 117.637 0.504827 4.99757 0
M  V30 1282 C 119.631 2.17768 5.99046 0
M  V30 1283 C 117.318 1.49218 5.92602 0
M  V30 1284 C 118.316 2.32706 6.42135 0
M  V30 1285 O 118.004 3.2976 7.33153 0
M  V30 1286 H 117.736 -0.0515469 0.674032 0
M  V30 1287 H 120.29 0.497559 1.99282 0
M  V30 1288 H 118.52 -1.52483 3.55367 0
M  V30 1289 H 120.209 -1.24336 3.86388 0
M  V30 1290 H 120.975 1.08525 4.72702 0
M  V30 1291 H 116.854 -0.135178 4.60802 0
M  V30 1292 H 120.398 2.82971 6.37631 0
M  V30 1293 H 116.295 1.6012 6.25325 0
M  V30 1294 H 117.063 3.25265 7.51096 0
M  V30 1295 N 119.726 -1.57421 0.075193 0
M  V30 1296 C 120.674 -2.14124 -0.908508 0
M  V30 1297 C 121.668 -1.07898 -1.30592 0
M  V30 1298 O 122.874 -1.26273 -1.28277 0
M  V30 1299 H 119.249 -0.684707 -0.310935 0
M  V30 1300 H 121.22 -2.95634 -0.405374 0
M  V30 1301 C 119.969 -2.72044 -2.16535 0
M  V30 1302 H 119.292 -3.53456 -1.86839 0
M  V30 1303 H 120.732 -3.15311 -2.83469 0
M  V30 1304 C 119.191 -1.66968 -2.92615 0
M  V30 1305 O 119.721 -1.0967 -3.86439 0
M  V30 1306 N 117.927 -1.37923 -2.55784 0
M  V30 1307 H 117.474 -1.84706 -1.79559 0
M  V30 1308 H 117.432 -0.67852 -3.06991 0
M  V30 1309 N 121.204 0.198386 -1.56346 0
M  V30 1310 C 122.134 1.24865 -1.9731 0
M  V30 1311 C 123.115 1.47651 -0.844576 0
M  V30 1312 O 124.3 1.59444 -1.10866 0
M  V30 1313 C 121.43 2.59358 -2.30977 0
M  V30 1314 C 120.384 2.5119 -3.46537 0
M  V30 1315 C 119.71 3.89926 -3.65871 0
M  V30 1316 C 121.01 2.03977 -4.80823 0
M  V30 1317 H 122.704 0.908252 -2.85291 0
M  V30 1318 H 120.25 0.435462 -1.37258 0
M  V30 1319 H 122.203 3.33011 -2.58228 0
M  V30 1320 H 120.927 2.95132 -1.39874 0
M  V30 1321 H 119.586 1.79993 -3.19371 0
M  V30 1322 H 119.234 4.23046 -2.72105 0
M  V30 1323 H 118.934 3.85336 -4.4361 0
M  V30 1324 H 120.458 4.65205 -3.95495 0
M  V30 1325 H 121.872 2.67386 -5.07127 0
M  V30 1326 H 120.269 2.10397 -5.62008 0
M  V30 1327 H 121.339 0.992861 -4.74626 0
M  V30 1328 N 122.682 1.50554 0.465978 0
M  V30 1329 C 123.93 1.61479 1.21528 0
M  V30 1330 C 124.251 0.319596 1.92363 0
M  V30 1331 O 123.521 -0.663194 1.84333 0
M  V30 1332 H 122.101 0.595055 0.451573 0
M  V30 1333 H 124.763 1.87355 0.53704 0
M  V30 1334 H 123.859 2.42846 1.96042 0
M  V30 1335 N 124.16 -0.719506 1.40217 0
M  V30 1336 C 125.09 -1.8465 1.42922 0
M  V30 1337 C 126.071 -1.67599 0.29062 0
M  V30 1338 O 127.256 -1.87688 0.498677 0
M  V30 1339 C 124.386 -3.22565 1.28722 0
M  V30 1340 C 123.34 -3.54281 2.40144 0
M  V30 1341 C 122.666 -4.91298 2.11023 0
M  V30 1342 C 123.966 -3.55676 3.82481 0
M  V30 1343 H 125.66 -1.82644 2.37237 0
M  V30 1344 H 123.206 -0.877305 1.1419 0
M  V30 1345 H 125.159 -4.01095 1.29232 0
M  V30 1346 H 123.883 -3.25137 0.308811 0
M  V30 1347 H 122.542 -2.78088 2.38877 0
M  V30 1348 H 122.19 -4.90468 1.11582 0
M  V30 1349 H 121.89 -5.13485 2.8567 0
M  V30 1350 H 123.414 -5.72166 2.13209 0
M  V30 1351 H 124.828 -4.24254 3.85592 0
M  V30 1352 H 123.225 -3.89388 4.56614 0
M  V30 1353 H 124.295 -2.55144 4.12346 0
M  V30 1354 N 125.638 -1.25649 -0.95132 0
M  V30 1355 C 126.884 -1.10757 -1.69884 0
M  V30 1356 C 127.217 0.350061 -1.91019 0
M  V30 1357 O 126.492 1.25783 -1.48354 0
M  V30 1358 C 126.775 -1.86606 -3.07978 0
M  V30 1359 C 126.628 -3.40217 -2.94232 0
M  V30 1360 C 127.947 -1.65182 -4.07925 0
M  V30 1361 H 125.066 -0.40374 -0.616574 0
M  V30 1362 H 127.708 -1.54521 -1.10558 0
M  V30 1363 H 125.858 -1.49409 -3.58621 0
M  V30 1364 H 127.53 -3.87108 -2.50889 0
M  V30 1365 H 125.773 -3.67759 -2.30078 0
M  V30 1366 H 126.444 -3.88505 -3.92133 0
M  V30 1367 H 128.92 -1.9757 -3.66204 0
M  V30 1368 H 127.796 -2.20683 -5.02583 0
M  V30 1369 H 128.057 -0.593933 -4.38092 0
M  V30 1370 N 127.117 1.15442 -1.07289 0
M  V30 1371 C 128.047 2.22312 -0.714107 0
M  V30 1372 C 129.028 1.67467 0.298155 0
M  V30 1373 O 130.213 1.93445 0.171048 0
M  V30 1374 C 127.343 3.47124 -0.110448 0
M  V30 1375 C 126.297 4.14926 -1.04979 0
M  V30 1376 C 125.623 5.33807 -0.308924 0
M  V30 1377 C 126.923 4.64762 -2.38314 0
M  V30 1378 H 128.617 2.5258 -1.6076 0
M  V30 1379 H 126.163 1.21404 -0.77441 0
M  V30 1380 H 128.116 4.21124 0.152482 0
M  V30 1381 H 126.84 3.16187 0.81812 0
M  V30 1382 H 125.499 3.42866 -1.29764 0
M  V30 1383 H 125.147 4.99126 0.623084 0
M  V30 1384 H 124.847 5.80113 -0.935036 0
M  V30 1385 H 126.371 6.10576 -0.0537771 0
M  V30 1386 H 127.785 5.30292 -2.1786 0
M  V30 1387 H 126.182 5.21728 -2.96514 0
M  V30 1388 H 127.252 3.80434 -3.00663 0
M  V30 1389 N 128.595 0.856903 1.32268 0
M  V30 1390 C 129.872 0.382583 1.91822 0
M  V30 1391 C 130.252 -1.13407 1.78051 0
M  V30 1392 O 129.6 -1.95673 1.18001 0
M  V30 1393 C 129.81 0.849446 3.38505 0
M  V30 1394 C 131.158 0.867936 4.15634 0
M  V30 1395 O 132.182 0.794232 3.47232 0
M  V30 1396 O 131.041 0.972286 5.37781 0
M  V30 1397 H 128.135 0.112014 0.819379 0
M  V30 1398 H 130.681 0.943952 1.41024 0
M  V30 1399 H 129.453 1.89267 3.42482 0
M  V30 1400 H 129.076 0.265652 3.96712 0
M  V30 1401 N 130.073 -1.45103 0.615059 0
M  V30 1402 C 131.006 -2.27717 -0.148408 0
M  V30 1403 C 131.984 -1.37584 -0.866572 0
M  V30 1404 O 133.168 -1.67017 -0.87393 0
M  V30 1405 C 130.295 -3.16136 -1.21557 0
M  V30 1406 C 129.341 -4.22263 -0.599712 0
M  V30 1407 S 130.174 -5.3215 0.598081 0
M  V30 1408 C 131.33 -6.24137 -0.469484 0
M  V30 1409 H 131.563 -2.92121 0.552483 0
M  V30 1410 H 129.096 -1.49054 0.402778 0
M  V30 1411 H 131.054 -3.67633 -1.82638 0
M  V30 1412 H 129.715 -2.50982 -1.88857 0
M  V30 1413 H 128.908 -4.84081 -1.4029 0
M  V30 1414 H 128.51 -3.73945 -0.063876 0
M  V30 1415 H 130.802 -6.63984 -1.34652 0
M  V30 1416 H 131.745 -7.0801 0.112725 0
M  V30 1417 H 132.153 -5.58971 -0.788168 0
M  V30 1418 N 131.551 -0.354651 -1.53558 0
M  V30 1419 C 132.501 0.513179 -2.2215 0
M  V30 1420 C 133.485 1.05734 -1.21281 0
M  V30 1421 O 134.677 0.989202 -1.46778 0
M  V30 1422 C 131.806 1.65798 -3.00609 0
M  V30 1423 C 130.892 1.12722 -4.08845 0
M  V30 1424 N 131.283 0.318563 -5.04796 0
M  V30 1425 C 129.581 1.40307 -4.23356 0
M  V30 1426 C 130.282 0.0292224 -5.81693 0
M  V30 1427 N 129.258 0.623891 -5.40008 0
M  V30 1428 H 133.06 -0.111586 -2.93688 0
M  V30 1429 H 130.574 -0.162091 -1.61589 0
M  V30 1430 H 132.571 2.29176 -3.48258 0
M  V30 1431 H 131.231 2.28591 -2.306 0
M  V30 1432 H 132.242 -0.0413091 -5.17884 0
M  V30 1433 H 128.919 2.03458 -3.6457 0
M  V30 1434 H 130.309 -0.623808 -6.68998 0
M  V30 1435 N 133.029 1.57378 -0.0835403 0
M  V30 1436 C 133.979 2.09916 0.889905 0
M  V30 1437 C 134.963 1.01151 1.25129 0
M  V30 1438 O 136.155 1.27443 1.2283 0
M  V30 1439 C 133.284 2.67379 2.15322 0
M  V30 1440 C 132.37 3.83167 1.81779 0
M  V30 1441 N 132.761 4.91665 1.18739 0
M  V30 1442 C 131.059 3.92685 2.11459 0
M  V30 1443 C 131.76 5.72409 1.0355 0
M  V30 1444 N 130.736 5.21062 1.54906 0
M  V30 1445 H 134.538 2.91188 0.398378 0
M  V30 1446 H 132.052 1.61956 0.120013 0
M  V30 1447 H 134.049 3.0334 2.8599 0
M  V30 1448 H 132.709 1.87558 2.65051 0
M  V30 1449 H 133.72 5.10784 0.855604 0
M  V30 1450 H 130.397 3.23856 2.63483 0
M  V30 1451 H 131.787 6.69699 0.543425 0
M  V30 1452 N 134.507 -0.190092 1.56449 0
M  V30 1453 C 135.47 -1.21925 1.9408 0
M  V30 1454 C 136.47 -1.38176 0.822431 0
M  V30 1455 O 137.66 -1.35903 1.08977 0
M  V30 1456 C 134.792 -2.58773 2.21922 0
M  V30 1457 H 135.985 -0.897464 2.86157 0
M  V30 1458 H 133.538 -0.43181 1.50217 0
M  V30 1459 H 134.273 -2.95998 1.32499 0
M  V30 1460 H 134.058 -2.48348 3.03424 0
M  V30 1461 H 135.548 -3.32978 2.52022 0
M  V30 1462 N 135.985 -1.50799 -0.457987 0
M  V30 1463 C 137.396 -1.55152 -1.0385 0
M  V30 1464 C 137.747 -0.362719 -1.92818 0
M  V30 1465 O 136.872 0.522915 -2.09987 0
M  V30 1466 C 137.467 -2.81173 -1.89017 0
M  V30 1467 C 136.026 -2.88164 -2.42154 0
M  V30 1468 C 135.173 -2.49591 -1.20829 0
M  V30 1469 H 138.124 -1.56874 -0.240068 0
M  V30 1470 H 138.145 -2.63769 -2.74238 0
M  V30 1471 H 137.657 -3.67677 -1.24238 0
M  V30 1472 H 135.758 -2.06042 -3.10447 0
M  V30 1473 H 135.871 -3.91356 -2.76364 0
M  V30 1474 H 134.235 -2.02322 -1.54719 0
M  V30 1475 H 135.018 -3.38418 -0.576927 0
M  V30 1476 N 137.463 0.71206 -1.40597 0
M  V30 1477 C 138.711 1.46907 -1.38791 0
M  V30 1478 C 139.032 1.94998 0.00780391 0
M  V30 1479 O 138.302 1.70587 0.963174 0
M  V30 1480 H 136.882 0.545043 -0.51082 0
M  V30 1481 H 139.544 0.843882 -1.75683 0
M  V30 1482 H 138.64 2.34021 -2.06496 0
M  V30 1483 N 138.941 1.26152 0.944643 0
M  V30 1484 C 140.171 1.14094 1.72239 0
M  V30 1485 C 140.579 -0.306931 1.86694 0
M  V30 1486 O 139.922 -1.22222 1.3714 0
M  V30 1487 C 139.984 1.73316 3.14963 0
M  V30 1488 C 139.648 3.2239 3.23904 0
M  V30 1489 C 140.645 4.19252 3.07447 0
M  V30 1490 C 138.33 3.62788 3.47405 0
M  V30 1491 C 140.324 5.54491 3.14353 0
M  V30 1492 C 138.011 4.98162 3.53947 0
M  V30 1493 C 139.009 5.93823 3.37436 0
M  V30 1494 O 138.697 7.26732 3.43679 0
M  V30 1495 H 138.429 0.398292 0.546205 0
M  V30 1496 H 140.983 1.67201 1.19301 0
M  V30 1497 H 139.213 1.14667 3.69308 0
M  V30 1498 H 140.902 1.56214 3.74636 0
M  V30 1499 H 141.668 3.8938 2.8915 0
M  V30 1500 H 137.547 2.88816 3.59313 0
M  V30 1501 H 141.091 6.29137 3.01384 0
M  V30 1502 H 136.988 5.27695 3.71763 0
M  V30 1503 H 137.756 7.3496 3.60245 0
M  V30 1504 N 140.419 -1.14872 1.07899 0
M  V30 1505 C 141.835 -1.37776 0.805606 0
M  V30 1506 C 142.035 -1.92743 -0.587555 0
M  V30 1507 O 141.091 -2.13678 -1.34528 0
M  V30 1508 C 142.404 -2.34361 1.88402 0
M  V30 1509 C 143.952 -2.48012 1.90942 0
M  V30 1510 C 144.427 -3.47893 2.97883 0
M  V30 1511 N 145.918 -3.55433 2.97021 0
M  V30 1512 C 146.653 -4.32553 3.76412 0
M  V30 1513 N 146.149 -5.12959 4.65666 0
M  V30 1514 N 147.942 -4.27697 3.64735 0
M  V30 1515 H 140.093 -0.775365 1.97742 0
M  V30 1516 H 142.356 -0.403521 0.857831 0
M  V30 1517 H 142.062 -2.01098 2.88535 0
M  V30 1518 H 141.936 -3.34206 1.74889 0
M  V30 1519 H 144.323 -2.8057 0.914579 0
M  V30 1520 H 144.404 -1.48147 2.08534 0
M  V30 1521 H 144.048 -3.16069 3.97571 0
M  V30 1522 H 143.978 -4.47527 2.77538 0
M  V30 1523 H 146.469 -2.98048 2.32326 0
M  V30 1524 H 146.782 -5.69065 5.22862 0
M  V30 1525 H 145.127 -5.12245 4.69712 0
M  V30 1526 H 148.318 -3.63949 2.94378 0
M  V30 1527 H 148.491 -4.8755 4.26848 0
M  V30 1528 N 141.898 -0.863906 -1.31812 0
M  V30 1529 C 143.145 -0.471836 -1.96926 0
M  V30 1530 C 143.473 0.974578 -1.68322 0
M  V30 1531 O 142.728 1.7003 -0.968933 0
M  V30 1532 C 143.027 -0.668547 -3.51091 0
M  V30 1533 C 142.693 -2.08683 -3.99703 0
M  V30 1534 C 141.355 -2.47471 -4.12688 0
M  V30 1535 C 143.707 -3.01207 -4.25351 0
M  V30 1536 C 141.035 -3.78037 -4.4867 0
M  V30 1537 C 143.387 -4.31282 -4.62794 0
M  V30 1538 C 142.051 -4.69992 -4.73987 0
M  V30 1539 H 141.321 -0.172657 -0.720604 0
M  V30 1540 H 143.968 -1.09573 -1.57054 0
M  V30 1541 H 142.273 0.0385252 -3.91781 0
M  V30 1542 H 143.97 -0.345102 -3.99512 0
M  V30 1543 H 140.56 -1.77566 -3.90087 0
M  V30 1544 H 144.744 -2.72469 -4.14819 0
M  V30 1545 H 140 -4.078 -4.55532 0
M  V30 1546 H 144.174 -5.03031 -4.81594 0
M  V30 1547 H 141.801 -5.71207 -5.01624 0
M  V30 1548 N 143.376 1.44774 -0.622745 0
M  V30 1549 C 144.308 2.28856 0.125485 0
M  V30 1550 C 145.321 1.40811 0.817069 0
M  V30 1551 O 146.51 1.65044 0.679918 0
M  V30 1552 C 143.61 3.16963 1.19949 0
M  V30 1553 C 142.783 4.33374 0.592064 0
M  V30 1554 C 141.842 5.02577 1.55893 0
M  V30 1555 O 140.868 5.58873 1.07933 0
M  V30 1556 N 142.07 5.03256 2.89334 0
M  V30 1557 H 144.835 2.93713 -0.596068 0
M  V30 1558 H 142.396 1.55129 -0.463303 0
M  V30 1559 H 144.388 3.60123 1.84644 0
M  V30 1560 H 142.958 2.53913 1.82337 0
M  V30 1561 H 142.178 3.93509 -0.233322 0
M  V30 1562 H 143.466 5.08527 0.166738 0
M  V30 1563 H 142.864 4.58836 3.30887 0
M  V30 1564 H 141.421 5.50232 3.49412 0
M  V30 1565 N 144.854 0.36279 1.53368 0
M  V30 1566 C 146.131 -0.284021 1.93527 0
M  V30 1567 C 146.511 -1.66628 1.29608 0
M  V30 1568 O 145.859 -2.23942 0.45413 0
M  V30 1569 C 146.069 -0.337028 3.47369 0
M  V30 1570 C 147.417 -0.578708 4.20638 0
M  V30 1571 O 148.441 -0.418352 3.53735 0
M  V30 1572 O 147.3 -0.89074 5.39192 0
M  V30 1573 H 144.394 -0.169743 0.809393 0
M  V30 1574 H 146.94 0.41537 1.64538 0
M  V30 1575 H 145.712 0.632217 3.86159 0
M  V30 1576 H 145.335 -1.08243 3.82582 0
M  V30 1577 N 146.332 -1.57332 0.0918853 0
M  V30 1578 C 147.579 -1.94236 -0.572577 0
M  V30 1579 C 147.907 -0.973398 -1.6839 0
M  V30 1580 O 147.162 0.00756912 -1.95699 0
M  V30 1581 C 147.461 -3.37689 -1.17051 0
M  V30 1582 C 147.127 -4.50527 -0.183304 0
M  V30 1583 C 145.789 -4.81119 0.0882276 0
M  V30 1584 C 148.141 -5.18883 0.49095 0
M  V30 1585 C 145.469 -5.77395 1.04076 0
M  V30 1586 C 147.821 -6.1618 1.43193 0
M  V30 1587 C 146.485 -6.45179 1.71173 0
M  V30 1588 H 145.755 -0.710762 -0.209521 0
M  V30 1589 H 148.402 -1.9077 0.167036 0
M  V30 1590 H 146.707 -3.37718 -1.9863 0
M  V30 1591 H 148.404 -3.63543 -1.69227 0
M  V30 1592 H 144.994 -4.26681 -0.405124 0
M  V30 1593 H 149.178 -4.95427 0.294312 0
M  V30 1594 H 144.434 -5.98179 1.26457 0
M  V30 1595 H 148.608 -6.68243 1.96023 0
M  V30 1596 H 146.235 -7.1959 2.4514 0
M  V30 1597 N 147.81 0.181792 -1.56548 0
M  V30 1598 C 148.757 1.22521 -1.95595 0
M  V30 1599 C 149.727 1.4454 -0.818373 0
M  V30 1600 O 150.912 1.57454 -1.07763 0
M  V30 1601 C 148.052 2.56193 -2.31212 0
M  V30 1602 C 147.165 2.41641 -3.58097 0
M  V30 1603 C 146.3 3.68108 -3.82975 0
M  V30 1604 C 145.339 3.48445 -5.03242 0
M  V30 1605 N 144.476 4.66956 -5.24306 0
M  V30 1606 H 149.316 0.885226 -2.84548 0
M  V30 1607 H 146.853 0.425718 -1.40805 0
M  V30 1608 H 148.811 3.34088 -2.49882 0
M  V30 1609 H 147.441 2.88208 -1.45382 0
M  V30 1610 H 146.493 1.54976 -3.474 0
M  V30 1611 H 147.805 2.23052 -4.46149 0
M  V30 1612 H 146.959 4.54441 -4.01956 0
M  V30 1613 H 145.698 3.89666 -2.93278 0
M  V30 1614 H 144.703 2.60499 -4.8417 0
M  V30 1615 H 145.928 3.2832 -5.9446 0
M  V30 1616 H 143.874 4.88752 -4.37559 0
M  V30 1617 H 143.791 4.51242 -6.06561 0
M  V30 1618 H 145.059 5.54602 -5.47756 0
M  V30 1619 N 149.288 1.51039 0.449983 0
M  V30 1620 C 150.516 1.66869 1.2232 0
M  V30 1621 C 150.931 0.360727 1.85322 0
M  V30 1622 O 150.288 -0.659531 1.70166 0
M  V30 1623 C 150.339 2.77524 2.31652 0
M  V30 1624 O 150.06 4.03252 1.7123 0
M  V30 1625 C 151.561 3.04512 3.2216 0
M  V30 1626 H 148.781 0.560326 0.369155 0
M  V30 1627 H 151.325 1.97385 0.534719 0
M  V30 1628 H 149.48 2.49642 2.96239 0
M  V30 1629 H 149.894 4.64609 2.43389 0
M  V30 1630 H 151.368 3.85551 3.95038 0
M  V30 1631 H 151.845 2.16415 3.8218 0
M  V30 1632 H 152.451 3.34005 2.63288 0
M  V30 1633 N 150.766 -0.704594 1.40972 0
M  V30 1634 C 151.991 -1.49858 1.43378 0
M  V30 1635 C 152.416 -1.88061 0.038184 0
M  V30 1636 O 151.774 -1.5402 -0.956425 0
M  V30 1637 C 151.822 -2.74333 2.34038 0
M  V30 1638 O 150.926 -3.7147 1.7912 0
M  V30 1639 H 150.267 -0.45139 0.486974 0
M  V30 1640 H 152.797 -0.866832 1.8533 0
M  V30 1641 H 152.807 -3.22741 2.49604 0
M  V30 1642 H 151.482 -2.45863 3.35446 0
M  V30 1643 H 150.059 -3.30363 1.72958 0
M  V30 1644 N 152.244 -1.26651 -0.937939 0
M  V30 1645 C 153.472 -1.15173 -1.7188 0
M  V30 1646 C 153.887 0.292668 -1.86518 0
M  V30 1647 O 153.244 1.20014 -1.37488 0
M  V30 1648 C 153.295 -1.81925 -3.12387 0
M  V30 1649 O 153.016 -3.2072 -2.98446 0
M  V30 1650 C 154.517 -1.76442 -4.06673 0
M  V30 1651 H 151.737 -0.400911 -0.538063 0
M  V30 1652 H 154.281 -1.67332 -1.1756 0
M  V30 1653 H 152.436 -1.33696 -3.63599 0
M  V30 1654 H 152.85 -3.53802 -3.872 0
M  V30 1655 H 154.324 -2.27781 -5.02812 0
M  V30 1656 H 154.801 -0.731608 -4.33064 0
M  V30 1657 H 155.407 -2.24238 -3.61382 0
M  V30 1658 N 153.722 1.14298 -1.08507 0
M  V30 1659 C 154.652 2.21542 -0.737646 0
M  V30 1660 C 155.633 1.67773 0.280377 0
M  V30 1661 O 156.818 1.93616 0.150521 0
M  V30 1662 C 153.948 3.46988 -0.147259 0
M  V30 1663 C 152.902 4.13789 -1.09374 0
M  V30 1664 C 152.228 5.33449 -0.365524 0
M  V30 1665 C 153.528 4.62208 -2.4323 0
M  V30 1666 H 155.222 2.5086 -1.6343 0
M  V30 1667 H 152.768 1.20576 -0.787243 0
M  V30 1668 H 154.721 4.21262 0.107808 0
M  V30 1669 H 153.445 3.17037 0.784538 0
M  V30 1670 H 152.104 3.4147 -1.33393 0
M  V30 1671 H 151.752 4.99759 0.57011 0
M  V30 1672 H 151.452 5.79088 -0.996512 0
M  V30 1673 H 152.976 6.10485 -0.118534 0
M  V30 1674 H 154.39 5.27952 -2.23472 0
M  V30 1675 H 152.787 5.18553 -3.02031 0
M  V30 1676 H 153.857 3.77224 -3.04681 0
M  V30 1677 N 155.201 0.870884 1.31352 0
M  V30 1678 C 156.448 0.482273 1.96673 0
M  V30 1679 C 156.776 -0.965638 1.68836 0
M  V30 1680 O 156.031 -1.69514 0.977937 0
M  V30 1681 C 156.33 0.687157 3.50732 0
M  V30 1682 C 155.996 2.108 3.9859 0
M  V30 1683 C 154.658 2.49656 4.1137 0
M  V30 1684 C 157.01 3.03459 4.23748 0
M  V30 1685 C 154.338 3.80412 4.46659 0
M  V30 1686 C 156.69 4.3373 4.60501 0
M  V30 1687 C 155.354 4.725 4.71487 0
M  V30 1688 H 154.624 0.176476 0.719679 0
M  V30 1689 H 157.271 1.10405 1.56471 0
M  V30 1690 H 155.576 -0.0177476 3.91796 0
M  V30 1691 H 157.273 0.366284 3.99324 0
M  V30 1692 H 153.863 1.79633 3.8914 0
M  V30 1693 H 158.047 2.74665 4.13368 0
M  V30 1694 H 153.303 4.1021 4.53362 0
M  V30 1695 H 157.477 5.05578 4.78919 0
M  V30 1696 H 155.104 5.73859 4.98588 0
M  V30 1697 N 156.679 -1.44442 0.630414 0
M  V30 1698 C 157.589 -2.34476 -0.0761693 0
M  V30 1699 C 158.605 -1.52576 -0.836449 0
M  V30 1700 O 159.781 -1.85307 -0.788874 0
M  V30 1701 C 156.846 -3.30545 -1.04599 0
M  V30 1702 C 155.907 -4.28352 -0.28516 0
M  V30 1703 C 155.14 -5.19831 -1.20878 0
M  V30 1704 O 155.363 -5.15223 -2.44747 0
M  V30 1705 O 154.297 -5.97892 -0.693491 0
M  V30 1706 H 158.123 -2.96345 0.664324 0
M  V30 1707 H 155.708 -1.44203 0.39061 0
M  V30 1708 H 157.59 -3.89681 -1.60396 0
M  V30 1709 H 156.265 -2.7121 -1.76711 0
M  V30 1710 H 155.172 -3.72764 0.315837 0
M  V30 1711 H 156.505 -4.90605 0.395924 0
M  V30 1712 N 158.157 -0.370918 -1.53173 0
M  V30 1713 C 159.434 0.273754 -1.93675 0
M  V30 1714 C 159.814 1.65938 -1.3049 0
M  V30 1715 O 159.162 2.23698 -0.465999 0
M  V30 1716 C 159.372 0.318602 -3.47543 0
M  V30 1717 C 160.72 0.556392 -4.20939 0
M  V30 1718 O 161.744 0.399587 -3.53952 0
M  V30 1719 O 160.603 0.862133 -5.39657 0
M  V30 1720 H 157.697 0.165448 -0.810281 0
M  V30 1721 H 160.243 -0.42409 -1.64315 0
M  V30 1722 H 159.015 -0.652687 -3.85818 0
M  V30 1723 H 158.638 1.06212 -3.83151 0
M  V30 1724 N 159.635 1.57281 -0.100228 0
M  V30 1725 C 161.046 1.81725 0.428107 0
M  V30 1726 C 161.397 1.01619 1.67833 0
M  V30 1727 O 160.522 0.247098 2.14985 0
M  V30 1728 C 161.117 3.29617 0.78347 0
M  V30 1729 C 159.676 3.54808 1.25653 0
M  V30 1730 C 158.823 2.76118 0.255752 0
M  V30 1731 H 161.774 1.55324 -0.325608 0
M  V30 1732 H 161.795 3.4322 1.64256 0
M  V30 1733 H 161.307 3.87893 -0.12665 0
M  V30 1734 H 159.408 3.01868 2.18418 0
M  V30 1735 H 159.521 4.63443 1.21482 0
M  V30 1736 H 157.885 2.43745 0.738956 0
M  V30 1737 H 158.668 3.37145 -0.647136 0
M  V30 1738 N 161.113 -0.173488 1.56642 0
M  V30 1739 C 162.061 -1.23417 1.97157 0
M  V30 1740 C 163.055 -1.45946 0.860013 0
M  V30 1741 O 164.261 -1.46551 1.04512 0
M  V30 1742 H 160.636 -0.414818 0.62724 0
M  V30 1743 H 162.607 -0.865582 2.8557 0
M  V30 1744 C 161.356 -2.5665 2.34576 0
M  V30 1745 H 160.679 -2.40137 3.19647 0
M  V30 1746 H 162.119 -3.2956 2.6677 0
M  V30 1747 C 160.578 -3.15245 1.18836 0
M  V30 1748 O 161.108 -3.98883 0.474869 0
M  V30 1749 N 159.314 -2.74303 0.959497 0
M  V30 1750 H 158.861 -2.0639 1.54146 0
M  V30 1751 H 158.819 -3.13844 0.186932 0
M  V30 1752 N 162.591 -1.51276 -0.441967 0
M  V30 1753 C 163.523 -1.68444 -1.55433 0
M  V30 1754 C 164.536 -0.565187 -1.52674 0
M  V30 1755 O 165.725 -0.839356 -1.57534 0
M  V30 1756 C 162.825 -1.67966 -2.94348 0
M  V30 1757 C 161.998 -2.964 -3.21661 0
M  V30 1758 C 161.057 -2.88171 -4.40277 0
M  V30 1759 O 160.083 -3.62119 -4.39157 0
M  V30 1760 N 161.285 -2.03706 -5.43584 0
M  V30 1761 H 164.05 -2.644 -1.41112 0
M  V30 1762 H 161.611 -1.49104 -0.630838 0
M  V30 1763 H 163.603 -1.60035 -3.71713 0
M  V30 1764 H 162.173 -0.796225 -3.0229 0
M  V30 1765 H 161.393 -3.18234 -2.32638 0
M  V30 1766 H 162.681 -3.81427 -3.36736 0
M  V30 1767 H 162.079 -1.42995 -5.47329 0
M  V30 1768 H 160.636 -2.01658 -6.1982 0
M  V30 1769 N 164.069 0.697108 -1.41344 0
M  V30 1770 C 165.001 1.8224 -1.39001 0
M  V30 1771 C 166.014 1.60152 -0.292428 0
M  V30 1772 O 167.203 1.69684 -0.554048 0
M  V30 1773 C 164.303 3.18976 -1.14489 0
M  V30 1774 C 163.476 3.68105 -2.36258 0
M  V30 1775 C 162.535 4.83506 -2.07625 0
M  V30 1776 O 161.561 4.95201 -2.8065 0
M  V30 1777 N 162.763 5.70637 -1.06555 0
M  V30 1778 H 165.528 1.84742 -2.35988 0
M  V30 1779 H 163.089 0.87937 -1.35936 0
M  V30 1780 H 165.081 3.93801 -0.932885 0
M  V30 1781 H 163.651 3.11508 -0.261043 0
M  V30 1782 H 162.871 2.84204 -2.7317 0
M  V30 1783 H 164.159 3.97667 -3.17393 0
M  V30 1784 H 163.557 5.63817 -0.461125 0
M  V30 1785 H 162.114 6.45368 -0.913444 0
M  V30 1786 N 165.547 1.27147 0.931209 0
M  V30 1787 C 166.494 1.09568 2.03134 0
M  V30 1788 C 167.464 -0.00222433 1.661 0
M  V30 1789 O 168.649 0.159439 1.90133 0
M  V30 1790 C 165.789 0.745231 3.36957 0
M  V30 1791 C 164.902 1.92041 3.86968 0
M  V30 1792 C 164.037 1.51216 5.09222 0
M  V30 1793 C 163.076 2.65504 5.5152 0
M  V30 1794 N 162.213 2.25291 6.64972 0
M  V30 1795 H 167.053 2.03708 2.17502 0
M  V30 1796 H 164.59 1.01411 1.06556 0
M  V30 1797 H 166.548 0.522878 4.1391 0
M  V30 1798 H 165.178 -0.159202 3.22407 0
M  V30 1799 H 164.23 2.25541 3.06326 0
M  V30 1800 H 165.542 2.77787 4.1429 0
M  V30 1801 H 164.696 1.25084 5.93666 0
M  V30 1802 H 163.435 0.625749 4.83669 0
M  V30 1803 H 162.44 2.92354 4.65628 0
M  V30 1804 H 163.665 3.54761 5.7907 0
M  V30 1805 H 161.611 1.39098 6.41083 0
M  V30 1806 H 161.528 3.04577 6.91931 0
M  V30 1807 H 162.796 2.02398 7.52765 0
M  V30 1808 N 167.025 -1.13721 1.09112 0
M  V30 1809 C 168.441 -1.36914 0.820174 0
M  V30 1810 C 168.641 -1.93356 -0.567079 0
M  V30 1811 O 167.697 -2.15093 -1.32255 0
M  V30 1812 C 169.01 -2.3235 1.90877 0
M  V30 1813 C 170.558 -2.45973 1.93562 0
M  V30 1814 C 171.033 -3.44714 3.01556 0
M  V30 1815 N 172.524 -3.52263 3.00775 0
M  V30 1816 C 173.259 -4.28536 3.80978 0
M  V30 1817 N 172.755 -5.07991 4.71081 0
M  V30 1818 N 174.548 -4.23804 3.69251 0
M  V30 1819 H 166.699 -0.754348 1.98553 0
M  V30 1820 H 168.962 -0.3944 0.862063 0
M  V30 1821 H 168.668 -1.98027 2.90651 0
M  V30 1822 H 168.542 -3.32332 1.78424 0
M  V30 1823 H 170.929 -2.79584 0.944286 0
M  V30 1824 H 171.01 -1.45926 2.10093 0
M  V30 1825 H 170.654 -3.11835 4.00901 0
M  V30 1826 H 170.584 -4.44558 2.82269 0
M  V30 1827 H 173.075 -2.95567 2.35475 0
M  V30 1828 H 173.388 -5.63487 5.28869 0
M  V30 1829 H 171.733 -5.07235 4.75119 0
M  V30 1830 H 174.924 -3.60806 2.98222 0
M  V30 1831 H 175.097 -4.82995 4.31995 0
M  V30 1832 N 168.503 -0.877838 -1.30888 0
M  V30 1833 C 169.75 -0.492696 -1.96415 0
M  V30 1834 C 170.078 0.956671 -1.69346 0
M  V30 1835 O 169.333 1.68993 -0.986913 0
M  V30 1836 C 169.632 -0.705748 -3.50363 0
M  V30 1837 C 169.298 -2.1291 -3.97467 0
M  V30 1838 C 167.96 -2.51834 -4.1004 0
M  V30 1839 C 170.312 -3.05702 -4.22132 0
M  V30 1840 C 167.64 -3.82775 -4.44635 0
M  V30 1841 C 169.992 -4.36166 -4.58194 0
M  V30 1842 C 168.656 -4.74993 -4.68975 0
M  V30 1843 H 167.926 -0.18029 -0.718733 0
M  V30 1844 H 170.573 -1.11233 -1.55883 0
M  V30 1845 H 168.878 -0.00303058 -3.918 0
M  V30 1846 H 170.575 -0.387456 -3.99124 0
M  V30 1847 H 167.165 -1.81694 -3.88182 0
M  V30 1848 H 171.349 -2.76853 -4.11906 0
M  V30 1849 H 166.605 -4.12609 -4.51181 0
M  V30 1850 H 170.779 -5.08111 -4.76231 0
M  V30 1851 H 168.406 -5.76495 -4.95537 0
M  V30 1852 N 169.982 1.44106 -0.638065 0
M  V30 1853 C 171.228 2.02277 -0.145546 0
M  V30 1854 C 171.561 1.50125 1.23191 0
M  V30 1855 O 170.836 0.688133 1.8192 0
M  V30 1856 C 171.119 3.59829 -0.139791 0
M  V30 1857 C 170.972 4.22247 -1.55008 0
M  V30 1858 C 172.291 4.36873 0.531966 0
M  V30 1859 H 169.41 0.734992 -0.0543632 0
M  V30 1860 H 172.052 1.71592 -0.815863 0
M  V30 1861 H 170.202 3.86102 0.431007 0
M  V30 1862 H 171.874 4.07057 -2.1703 0
M  V30 1863 H 170.117 3.79476 -2.10191 0
M  V30 1864 H 170.788 5.31284 -1.49804 0
M  V30 1865 H 173.264 4.16074 0.0464781 0
M  V30 1866 H 172.14 5.4657 0.505206 0
M  V30 1867 H 172.401 4.11995 1.60352 0
M  V30 1868 N 171.46 0.379036 1.52974 0
M  V30 1869 C 172.737 -0.263479 1.93817 0
M  V30 1870 C 173.117 -1.65244 1.31368 0
M  V30 1871 O 172.465 -2.23448 0.477856 0
M  V30 1872 C 172.675 -0.300166 3.47707 0
M  V30 1873 C 174.023 -0.534061 4.21228 0
M  V30 1874 O 175.047 -0.38081 3.54159 0
M  V30 1875 O 173.906 -0.833501 5.40106 0
M  V30 1876 H 171 -0.161149 0.811147 0
M  V30 1877 H 173.546 0.432798 1.64088 0
M  V30 1878 H 172.318 0.673138 3.85467 0
M  V30 1879 H 171.941 -1.04179 3.83709 0
M  V30 1880 N 172.938 -1.57226 0.108567 0
M  V30 1881 C 174.187 -1.94008 -0.551703 0
M  V30 1882 C 174.5 -0.993442 -1.68494 0
M  V30 1883 O 175.706 -1.25551 -2.40726 0
M  V30 1884 C 174.162 -3.44763 -1.03279 0
M  V30 1885 C 173.77 -4.47943 0.0714193 0
M  V30 1886 C 175.514 -3.90483 -1.66503 0
M  V30 1887 C 173.421 -5.89865 -0.425779 0
M  V30 1888 H 172.351 -0.724206 -0.209863 0
M  V30 1889 H 175.002 -1.82547 0.186741 0
M  V30 1890 H 173.384 -3.51422 -1.82533 0
M  V30 1891 H 174.558 -4.52942 0.847365 0
M  V30 1892 H 172.873 -4.11913 0.609669 0
M  V30 1893 H 175.47 -4.93925 -2.04798 0
M  V30 1894 H 175.813 -3.29877 -2.53942 0
M  V30 1895 H 176.346 -3.86581 -0.938074 0
M  V30 1896 H 173.085 -6.54202 0.412316 0
M  V30 1897 H 172.605 -5.88309 -1.16843 0
M  V30 1898 H 174.284 -6.40844 -0.890397 0
M  V30 1899 N 174.416 0.165178 -1.56732 0
M  V30 1900 C 175.662 0.877389 -1.83503 0
M  V30 1901 C 176.017 1.79602 -0.689996 0
M  V30 1902 O 175.31 1.89023 0.313205 0
M  V30 1903 C 175.504 1.70405 -3.1416 0
M  V30 1904 C 175.333 0.866961 -4.41264 0
M  V30 1905 C 174.103 0.539646 -5.0241 0
M  V30 1906 C 176.301 0.205671 -5.13889 0
M  V30 1907 N 174.283 -0.312946 -6.13102 0
M  V30 1908 C 175.654 -0.507823 -6.17917 0
M  V30 1909 C 177.709 0.124468 -4.97744 0
M  V30 1910 C 176.412 -1.29483 -7.0755 0
M  V30 1911 C 178.438 -0.649222 -5.87826 0
M  V30 1912 C 177.8 -1.35106 -6.91322 0
M  V30 1913 H 173.899 0.299477 -0.722383 0
M  V30 1914 H 176.483 0.143949 -1.94167 0
M  V30 1915 H 174.654 2.40887 -3.04677 0
M  V30 1916 H 176.386 2.35804 -3.28905 0
M  V30 1917 H 173.141 0.871176 -4.65519 0
M  V30 1918 H 173.565 -0.729731 -6.73056 0
M  V30 1919 H 178.207 0.652724 -4.17731 0
M  V30 1920 H 175.925 -1.83441 -7.87004 0
M  V30 1921 H 179.511 -0.713804 -5.77405 0
M  V30 1922 H 178.391 -1.94013 -7.59821 0
M  V30 1923 N 175.894 1.51508 0.433938 0
M  V30 1924 C 177.31 1.39759 0.770682 0
M  V30 1925 C 177.51 0.482594 1.95636 0
M  V30 1926 O 176.566 -0.0609691 2.52426 0
M  V30 1927 C 177.879 2.81851 1.04787 0
M  V30 1928 C 179.427 2.91025 1.1521 0
M  V30 1929 C 179.902 4.34032 1.46219 0
M  V30 1930 N 181.393 4.37154 1.53136 0
M  V30 1931 C 182.128 5.4484 1.78709 0
M  V30 1932 N 181.624 6.62682 2.02051 0
M  V30 1933 N 183.417 5.32324 1.80519 0
M  V30 1934 H 175.568 2.09548 -0.346892 0
M  V30 1935 H 177.831 0.943446 -0.0928074 0
M  V30 1936 H 177.537 3.50815 0.249304 0
M  V30 1937 H 177.411 3.21386 1.97461 0
M  V30 1938 H 179.798 2.22257 1.94128 0
M  V30 1939 H 179.879 2.54983 0.204281 0
M  V30 1940 H 179.523 5.03351 0.678274 0
M  V30 1941 H 179.453 4.6759 2.42212 0
M  V30 1942 H 181.944 3.52197 1.36987 0
M  V30 1943 H 182.257 7.40543 2.20943 0
M  V30 1944 H 180.602 6.65791 1.99366 0
M  V30 1945 H 183.793 4.39246 1.61805 0
M  V30 1946 H 183.966 6.16328 2.00111 0
M  V30 1947 N 177.372 -0.689602 1.41712 0
M  V30 1948 C 178.619 -1.44966 1.4139 0
M  V30 1949 C 178.947 -1.94484 0.025105 0
M  V30 1950 O 178.202 -1.70307 -0.964048 0
M  V30 1951 C 178.501 -2.67298 2.37247 0
M  V30 1952 C 178.167 -2.36405 3.83958 0
M  V30 1953 C 176.829 -2.27691 4.23923 0
M  V30 1954 C 179.181 -2.11043 4.76561 0
M  V30 1955 C 176.509 -1.91719 5.54492 0
M  V30 1956 C 178.861 -1.76578 6.07456 0
M  V30 1957 C 177.525 -1.66363 6.46436 0
M  V30 1958 H 176.795 -0.53047 0.517381 0
M  V30 1959 H 179.442 -0.787655 1.74552 0
M  V30 1960 H 177.747 -3.38461 1.9736 0
M  V30 1961 H 179.444 -3.25452 2.34269 0
M  V30 1962 H 176.034 -2.44085 3.52308 0
M  V30 1963 H 180.218 -2.16717 4.46483 0
M  V30 1964 H 175.474 -1.82367 5.83568 0
M  V30 1965 H 179.648 -1.55974 6.78708 0
M  V30 1966 H 177.275 -1.38258 7.47522 0
M  V30 1967 N 178.85 -1.27639 -0.924453 0
M  V30 1968 C 179.78 -1.13166 -2.04244 0
M  V30 1969 C 180.761 -0.032256 -1.70069 0
M  V30 1970 O 181.946 -0.207328 -1.9309 0
M  V30 1971 C 179.076 -0.781496 -3.38393 0
M  V30 1972 C 178.03 -1.83449 -3.86692 0
M  V30 1973 C 177.356 -1.33822 -5.17683 0
M  V30 1974 C 178.656 -3.23917 -4.09726 0
M  V30 1975 H 180.35 -2.06689 -2.1661 0
M  V30 1976 H 177.896 -0.995136 -1.04082 0
M  V30 1977 H 179.849 -0.667057 -4.16087 0
M  V30 1978 H 178.573 0.189439 -3.2605 0
M  V30 1979 H 177.232 -1.93789 -3.11193 0
M  V30 1980 H 176.88 -0.35665 -5.01734 0
M  V30 1981 H 176.58 -2.04224 -5.50968 0
M  V30 1982 H 178.104 -1.23679 -5.97943 0
M  V30 1983 H 179.518 -3.16559 -4.77978 0
M  V30 1984 H 177.915 -3.92059 -4.54324 0
M  V30 1985 H 178.985 -3.68729 -3.14908 0
M  V30 1986 N 180.328 1.1314 -1.09713 0
M  V30 1987 C 181.291 2.16831 -0.742751 0
M  V30 1988 C 182.291 1.59159 0.229129 0
M  V30 1989 O 183.481 1.74199 0.00693237 0
M  V30 1990 C 180.613 3.40756 -0.0989168 0
M  V30 1991 H 181.806 2.49695 -1.66109 0
M  V30 1992 H 179.359 1.2802 -0.896699 0
M  V30 1993 H 180.094 3.13485 0.830514 0
M  V30 1994 H 179.879 3.83888 -0.798265 0
M  V30 1995 H 181.369 4.17386 0.133524 0
M  V30 1996 N 181.806 0.884767 1.30421 0
M  V30 1997 C 182.753 0.349642 2.28136 0
M  V30 1998 C 183.723 -0.560061 1.56373 0
M  V30 1999 O 184.908 -0.488524 1.8444 0
M  V30 2000 C 182.048 -0.42999 3.42411 0
M  V30 2001 C 181.161 0.508907 4.28992 0
M  V30 2002 C 180.296 -0.286301 5.30428 0
M  V30 2003 C 179.335 0.648079 6.08659 0
M  V30 2004 N 178.472 -0.111792 7.02011 0
M  V30 2005 H 183.312 1.18807 2.73293 0
M  V30 2006 H 180.849 0.597231 1.3443 0
M  V30 2007 H 182.807 -0.897923 4.07423 0
M  V30 2008 H 181.437 -1.23299 2.98324 0
M  V30 2009 H 180.489 1.09533 3.64289 0
M  V30 2010 H 181.801 1.22475 4.8353 0
M  V30 2011 H 180.955 -0.816098 6.01186 0
M  V30 2012 H 179.694 -1.03536 4.76583 0
M  V30 2013 H 178.699 1.18951 5.36778 0
M  V30 2014 H 179.924 1.39623 6.64592 0
M  V30 2015 H 177.87 -0.843395 6.50556 0
M  V30 2016 H 177.787 0.544429 7.54037 0
M  V30 2017 H 179.055 -0.622339 7.77012 0
M  V30 2018 N 183.284 -1.43765 0.645699 0
M  V30 2019 C 184.7 -1.56509 0.312591 0
M  V30 2020 C 184.9 -1.6307 -1.18365 0
M  V30 2021 O 183.956 -1.58167 -1.96824 0
M  V30 2022 C 185.269 -2.82968 1.01733 0
M  V30 2023 C 186.817 -2.96701 0.996865 0
M  V30 2024 C 187.292 -4.25982 1.68236 0
M  V30 2025 N 188.783 -4.32829 1.64964 0
M  V30 2026 C 189.518 -5.31613 2.14885 0
M  V30 2027 N 189.014 -6.36718 2.73061 0
M  V30 2028 N 190.807 -5.23217 2.05428 0
M  V30 2029 H 182.958 -1.3775 1.61675 0
M  V30 2030 H 185.221 -0.661067 0.679481 0
M  V30 2031 H 184.927 -2.84156 2.0724 0
M  V30 2032 H 184.801 -3.72957 0.564177 0
M  V30 2033 H 187.188 -2.95058 -0.0497719 0
M  V30 2034 H 187.269 -2.08022 1.48865 0
M  V30 2035 H 186.913 -4.28386 2.72852 0
M  V30 2036 H 186.843 -5.13545 1.16529 0
M  V30 2037 H 189.334 -3.57493 1.22503 0
M  V30 2038 H 189.647 -7.08401 3.08848 0
M  V30 2039 H 187.992 -6.37362 2.77118 0
M  V30 2040 H 191.183 -4.40019 1.59689 0
M  V30 2041 H 191.356 -6.00045 2.44643 0
M  V30 2042 N 184.763 -0.387143 -1.52771 0
M  V30 2043 C 185.993 0.195585 -2.05672 0
M  V30 2044 C 186.401 1.41241 -1.25887 0
M  V30 2045 O 185.744 1.81265 -0.298081 0
M  V30 2046 C 185.806 0.632327 -3.53895 0
M  V30 2047 C 185.47 -0.470739 -4.54569 0
M  V30 2048 C 186.467 -1.32746 -5.02667 0
M  V30 2049 C 184.152 -0.637151 -4.98243 0
M  V30 2050 C 186.146 -2.33574 -5.93061 0
M  V30 2051 C 183.833 -1.64877 -5.88438 0
M  V30 2052 C 184.831 -2.49649 -6.35739 0
M  V30 2053 O 184.519 -3.49082 -7.24153 0
M  V30 2054 H 184.251 0.033658 -0.675162 0
M  V30 2055 H 186.805 -0.550221 -1.97893 0
M  V30 2056 H 185.035 1.43008 -3.59285 0
M  V30 2057 H 186.724 1.14048 -3.89548 0
M  V30 2058 H 187.49 -1.21019 -4.69659 0
M  V30 2059 H 183.369 0.0129567 -4.60998 0
M  V30 2060 H 186.913 -2.99777 -6.29904 0
M  V30 2061 H 182.81 -1.76643 -6.2086 0
M  V30 2062 H 183.578 -3.45065 -7.42208 0
M  V30 2063 N 186.241 1.57166 -0.116904 0
M  V30 2064 C 187.49 1.94298 0.541407 0
M  V30 2065 C 187.803 1.00236 1.67964 0
M  V30 2066 O 189.009 1.26826 2.40057 0
M  V30 2067 C 187.465 3.45306 1.01449 0
M  V30 2068 C 187.073 4.47899 -0.0951738 0
M  V30 2069 C 188.817 3.91361 1.6443 0
M  V30 2070 C 186.724 5.90083 0.394491 0
M  V30 2071 H 185.654 0.725308 0.206019 0
M  V30 2072 H 188.305 1.82446 -0.196419 0
M  V30 2073 H 186.687 3.52385 1.80667 0
M  V30 2074 H 187.861 4.52486 -0.871374 0
M  V30 2075 H 186.176 4.11583 -0.631505 0
M  V30 2076 H 188.773 4.95004 2.02176 0
M  V30 2077 H 189.116 3.3122 2.52189 0
M  V30 2078 H 189.649 3.87073 0.917559 0
M  V30 2079 H 186.388 6.53974 -0.447004 0
M  V30 2080 H 185.908 5.88921 1.13722 0
M  V30 2081 H 187.587 6.41307 0.856399 0
M  V30 2082 N 187.719 -0.156864 1.56817 0
M  V30 2083 C 188.667 -1.21319 1.98455 0
M  V30 2084 C 189.661 -1.45025 0.875444 0
M  V30 2085 O 190.867 -1.45435 1.0606 0
M  V30 2086 H 187.242 -0.408142 0.631605 0
M  V30 2087 H 189.213 -0.835244 2.86472 0
M  V30 2088 C 187.962 -2.54148 2.37285 0
M  V30 2089 H 187.285 -2.36733 3.22176 0
M  V30 2090 H 188.725 -3.26712 2.70251 0
M  V30 2091 C 187.184 -3.13967 1.22173 0
M  V30 2092 O 187.714 -3.98357 0.517149 0
M  V30 2093 N 185.92 -2.7327 0.988536 0
M  V30 2094 H 185.467 -2.04744 1.56326 0
M  V30 2095 H 185.425 -3.13628 0.220209 0
M  V30 2096 N 189.197 -1.51736 -0.425897 0
M  V30 2097 C 190.107 -1.76738 -1.54275 0
M  V30 2098 C 191.123 -0.65211 -1.61318 0
M  V30 2099 O 192.299 -0.935654 -1.78346 0
M  V30 2100 C 189.364 -1.89755 -2.90162 0
M  V30 2101 C 188.425 -3.13633 -2.93143 0
M  V30 2102 C 187.658 -3.2602 -4.22548 0
M  V30 2103 O 187.881 -2.44067 -5.15546 0
M  V30 2104 O 186.815 -4.19071 -4.32046 0
M  V30 2105 H 190.641 -2.71502 -1.36089 0
M  V30 2106 H 188.226 -1.36376 -0.610069 0
M  V30 2107 H 190.108 -2.00236 -3.70788 0
M  V30 2108 H 188.783 -0.981785 -3.08452 0
M  V30 2109 H 187.69 -3.08622 -2.11431 0
M  V30 2110 H 189.023 -4.04936 -2.798 0
M  V30 2111 N 190.675 0.682077 -1.42076 0
M  V30 2112 C 192.091 0.994324 -1.24841 0
M  V30 2113 C 192.291 2.0096 -0.147389 0
M  V30 2114 O 191.347 2.47822 0.483782 0
M  V30 2115 C 192.66 1.50607 -2.60265 0
M  V30 2116 C 194.208 1.62421 -2.6756 0
M  V30 2117 C 194.683 2.16994 -4.03333 0
M  V30 2118 N 196.174 2.24337 -4.0525 0
M  V30 2119 C 196.909 2.67621 -5.07116 0
M  V30 2120 N 196.405 3.1041 -6.19368 0
M  V30 2121 N 198.198 2.67305 -4.94474 0
M  V30 2122 H 190.349 0.00973908 -2.12398 0
M  V30 2123 H 192.612 0.0668593 -0.945639 0
M  V30 2124 H 192.318 0.834583 -3.41654 0
M  V30 2125 H 192.192 2.48602 -2.83684 0
M  V30 2126 H 194.579 2.28678 -1.86521 0
M  V30 2127 H 194.66 0.629352 -2.47937 0
M  V30 2128 H 194.304 1.51349 -4.84826 0
M  V30 2129 H 194.234 3.17258 -4.20304 0
M  V30 2130 H 196.725 1.94158 -3.24209 0
M  V30 2131 H 197.038 3.42103 -6.92954 0
M  V30 2132 H 195.383 3.08286 -6.22884 0
M  V30 2133 H 198.574 2.33233 -4.05857 0
M  V30 2134 H 198.747 3.00718 -5.73997 0
M  V30 2135 N 192.153 1.28127 0.917671 0
M  V30 2136 C 193.063 1.13556 2.05286 0
M  V30 2137 C 194.079 0.0630914 1.73886 0
M  V30 2138 O 195.255 0.271598 1.9956 0
M  V30 2139 C 192.32 0.794676 3.3747 0
M  V30 2140 C 191.381 1.94909 3.82504 0
M  V30 2141 C 190.614 1.62437 5.0838 0
M  V30 2142 O 190.837 0.536905 5.67867 0
M  V30 2143 O 189.771 2.46677 5.4903 0
M  V30 2144 H 193.597 2.08844 2.20495 0
M  V30 2145 H 191.182 1.07409 1.03845 0
M  V30 2146 H 193.064 0.618344 4.16839 0
M  V30 2147 H 191.739 -0.128581 3.23445 0
M  V30 2148 H 190.646 2.18055 3.03978 0
M  V30 2149 H 191.979 2.85291 4.01086 0
M  V30 2150 N 193.631 -1.12557 1.10312 0
M  V30 2151 C 194.581 -2.16331 0.720076 0
M  V30 2152 C 195.565 -1.58616 -0.270115 0
M  V30 2153 O 196.757 -1.76823 -0.0790507 0
M  V30 2154 C 193.886 -3.42963 0.152113 0
M  V30 2155 C 192.972 -4.07663 1.16927 0
M  V30 2156 N 193.363 -4.47392 2.35953 0
M  V30 2157 C 191.661 -4.34425 1.0095 0
M  V30 2158 C 192.362 -4.97932 3.0073 0
M  V30 2159 N 191.338 -4.93358 2.28252 0
M  V30 2160 H 195.14 -2.44813 1.62616 0
M  V30 2161 H 192.654 -1.29449 0.980654 0
M  V30 2162 H 194.651 -4.16664 -0.14037 0
M  V30 2163 H 193.311 -3.1595 -0.748701 0
M  V30 2164 H 194.322 -4.39802 2.73486 0
M  V30 2165 H 190.999 -4.17177 0.164134 0
M  V30 2166 H 192.389 -5.38397 4.01969 0
M  V30 2167 N 195.109 -0.891671 -1.2995 0
M  V30 2168 C 196.358 -0.509521 -1.95158 0
M  V30 2169 C 196.671 0.947388 -1.71125 0
M  V30 2170 O 197.877 1.43669 -2.30372 0
M  V30 2171 C 196.333 -0.860315 -3.49466 0
M  V30 2172 C 195.941 -2.33545 -3.8231 0
M  V30 2173 C 197.685 -0.547687 -4.20952 0
M  V30 2174 C 195.592 -2.62752 -5.29826 0
M  V30 2175 H 194.522 -0.18682 -0.730489 0
M  V30 2176 H 197.173 -1.08756 -1.47798 0
M  V30 2177 H 195.555 -0.211285 -3.95436 0
M  V30 2178 H 196.729 -3.02936 -3.47227 0
M  V30 2179 H 195.044 -2.61629 -3.23944 0
M  V30 2180 H 197.641 -0.742854 -5.29515 0
M  V30 2181 H 197.984 0.51332 -4.13123 0
M  V30 2182 H 198.517 -1.1542 -3.80688 0
M  V30 2183 H 195.256 -3.6762 -5.42712 0
M  V30 2184 H 194.776 -1.97977 -5.66185 0
M  V30 2185 H 196.455 -2.48601 -5.97333 0
M  V30 2186 N 196.587 1.43421 -0.653314 0
M  V30 2187 C 197.55 2.29182 0.0287951 0
M  V30 2188 C 198.55 1.42213 0.750465 0
M  V30 2189 O 199.74 1.63843 0.591701 0
M  V30 2190 C 196.872 3.24278 1.05151 0
M  V30 2191 H 198.065 2.90985 -0.725786 0
M  V30 2192 H 195.618 1.50702 -0.414545 0
M  V30 2193 H 196.353 2.6737 1.83532 0
M  V30 2194 H 196.138 3.88396 0.537687 0
M  V30 2195 H 197.628 3.88647 1.52786 0
M  V30 2196 N 198.065 0.39524 1.52563 0
M  V30 2197 C 199.312 -0.185044 2.01653 0
M  V30 2198 C 199.64 -1.46317 1.28146 0
M  V30 2199 O 198.895 -1.9213 0.372074 0
M  V30 2200 C 199.194 -0.493444 3.53977 0
M  V30 2201 C 198.86 0.69384 4.4553 0
M  V30 2202 C 197.522 1.01954 4.70275 0
M  V30 2203 C 199.874 1.48785 4.99512 0
M  V30 2204 C 197.202 2.14069 5.46252 0
M  V30 2205 C 199.554 2.59965 5.76716 0
M  V30 2206 C 198.218 2.93037 5.99738 0
M  V30 2207 H 197.488 -0.0677123 0.7379 0
M  V30 2208 H 200.135 0.533807 1.8391 0
M  V30 2209 H 198.44 -1.29369 3.69825 0
M  V30 2210 H 200.137 -0.955163 3.89458 0
M  V30 2211 H 196.727 0.429987 4.26438 0
M  V30 2212 H 200.911 1.24946 4.80315 0
M  V30 2213 H 196.167 2.40056 5.62302 0
M  V30 2214 H 200.341 3.21887 6.17545 0
M  V30 2215 H 197.968 3.8003 6.58393 0
M  V30 2216 N 199.544 -1.57102 0.125237 0
M  V30 2217 C 200.454 -2.19191 -0.8362 0
M  V30 2218 C 201.47 -1.16985 -1.28805 0
M  V30 2219 O 202.646 -1.49479 -1.34974 0
M  V30 2220 C 199.711 -2.78407 -2.06617 0
M  V30 2221 C 198.772 -3.9567 -1.66565 0
M  V30 2222 C 198.005 -4.52052 -2.83698 0
M  V30 2223 O 198.228 -4.07326 -3.99302 0
M  V30 2224 O 197.162 -5.42645 -2.60423 0
M  V30 2225 H 200.988 -3.01816 -0.337776 0
M  V30 2226 H 198.573 -1.4906 -0.100695 0
M  V30 2227 H 200.455 -3.16129 -2.7864 0
M  V30 2228 H 199.13 -1.9881 -2.55453 0
M  V30 2229 H 198.037 -3.62705 -0.916296 0
M  V30 2230 H 199.37 -4.76722 -1.22464 0
M  V30 2231 N 201.022 0.148545 -1.56898 0
M  V30 2232 C 201.952 1.18524 -2.01182 0
M  V30 2233 C 202.933 1.4489 -0.891123 0
M  V30 2234 O 204.118 1.55836 -1.15882 0
M  V30 2235 C 201.248 2.51879 -2.39112 0
M  V30 2236 C 200.202 2.40038 -3.54353 0
M  V30 2237 C 199.528 3.78089 -3.78091 0
M  V30 2238 C 200.828 1.88577 -4.87069 0
M  V30 2239 H 202.522 0.817029 -2.88036 0
M  V30 2240 H 200.068 0.391575 -1.38574 0
M  V30 2241 H 202.021 3.24627 -2.68692 0
M  V30 2242 H 200.745 2.90532 -1.49193 0
M  V30 2243 H 199.404 1.69742 -3.24936 0
M  V30 2244 H 199.052 4.14175 -2.85426 0
M  V30 2245 H 198.752 3.71028 -4.55645 0
M  V30 2246 H 200.276 4.52387 -4.10095 0
M  V30 2247 H 201.69 2.51117 -5.15377 0
M  V30 2248 H 200.087 1.9241 -5.68417 0
M  V30 2249 H 201.157 0.84136 -4.77545 0
M  V30 2250 N 202.5 1.5196 0.417844 0
M  V30 2251 C 203.43 1.77634 1.51554 0
M  V30 2252 C 204.411 0.626918 1.58126 0
M  V30 2253 O 205.596 0.871632 1.7354 0
M  V30 2254 C 202.726 1.91911 2.8946 0
M  V30 2255 C 201.68 3.07463 2.97743 0
M  V30 2256 C 201.006 3.06951 4.37819 0
M  V30 2257 C 202.306 4.47082 2.70027 0
M  V30 2258 H 204 2.6955 1.3032 0
M  V30 2259 H 201.546 1.29706 0.625492 0
M  V30 2260 H 203.499 2.08455 3.6623 0
M  V30 2261 H 202.223 0.966598 3.11969 0
M  V30 2262 H 200.882 2.90656 2.23416 0
M  V30 2263 H 200.53 2.09438 4.57323 0
M  V30 2264 H 200.23 3.84556 4.44286 0
M  V30 2265 H 201.754 3.25613 5.16535 0
M  V30 2266 H 203.168 4.6414 3.36522 0
M  V30 2267 H 201.565 5.2654 2.87881 0
M  V30 2268 H 202.635 4.55777 1.65514 0
M  V30 2269 N 203.978 -0.674533 1.42435 0
M  V30 2270 C 204.926 -1.80934 1.46169 0
M  V30 2271 C 205.92 -1.66006 0.3374 0
M  V30 2272 O 207.126 -1.72611 0.510425 0
M  V30 2273 H 203.501 -0.596594 0.457798 0
M  V30 2274 H 205.472 -1.74903 2.41767 0
M  V30 2275 C 204.221 -3.19088 1.38123 0
M  V30 2276 H 203.544 -3.31203 2.23931 0
M  V30 2277 H 204.984 -3.9851 1.44797 0
M  V30 2278 C 203.443 -3.36763 0.0960517 0
M  V30 2279 O 203.973 -3.92581 -0.851073 0
M  V30 2280 N 202.179 -2.90597 0.0131186 0
M  V30 2281 H 201.726 -2.45359 0.784639 0
M  V30 2282 H 201.684 -3.028 -0.846133 0
M  V30 2283 N 205.456 -1.28612 -0.910864 0
M  V30 2284 C 206.366 -1.14643 -2.0468 0
M  V30 2285 C 207.382 -0.0723121 -1.7385 0
M  V30 2286 O 208.558 -0.282178 -1.99413 0
M  V30 2287 C 205.623 -0.812561 -3.37044 0
M  V30 2288 C 204.684 -1.96935 -3.81465 0
M  V30 2289 C 203.917 -1.65131 -5.07511 0
M  V30 2290 O 204.14 -0.567013 -5.67575 0
M  V30 2291 O 203.074 -2.49585 -5.47714 0
M  V30 2292 H 206.9 -2.1001 -2.19384 0
M  V30 2293 H 204.485 -1.07958 -1.03274 0
M  V30 2294 H 206.367 -0.640441 -4.16505 0
M  V30 2295 H 205.042 0.111426 -3.23508 0
M  V30 2296 H 203.949 -2.19664 -3.02818 0
M  V30 2297 H 205.282 -2.87414 -3.99567 0
M  V30 2298 N 206.934 1.1197 -1.10907 0
M  V30 2299 C 208.18 1.8386 -0.855773 0
M  V30 2300 C 208.513 1.84134 0.617103 0
M  V30 2301 O 207.788 1.29041 1.45529 0
M  V30 2302 C 208.071 3.31305 -1.411 0
M  V30 2303 C 207.924 3.39456 -2.9511 0
M  V30 2304 C 209.243 4.2721 -1.05736 0
M  V30 2305 H 206.362 0.667545 -0.312334 0
M  V30 2306 H 209.004 1.31331 -1.37303 0
M  V30 2307 H 207.154 3.76169 -0.97105 0
M  V30 2308 H 208.826 3.03191 -3.47668 0
M  V30 2309 H 207.069 2.79849 -3.31462 0
M  V30 2310 H 207.74 4.43209 -3.29044 0
M  V30 2311 H 210.216 3.90497 -1.43706 0
M  V30 2312 H 209.092 5.28775 -1.47269 0
M  V30 2313 H 209.353 4.42088 0.0325958 0
M  V30 2314 N 208.412 0.89855 1.29475 0
M  V30 2315 C 209.658 0.524658 1.95896 0
M  V30 2316 C 209.991 -0.926468 1.70676 0
M  V30 2317 O 209.266 -1.65665 1.01908 0
M  V30 2318 C 209.549 0.81633 3.50725 0
M  V30 2319 C 209.402 2.31907 3.85408 0
M  V30 2320 C 210.721 0.302038 4.39062 0
M  V30 2321 H 207.84 0.19209 0.711527 0
M  V30 2322 H 210.482 1.12502 1.53112 0
M  V30 2323 H 208.632 0.305369 3.87298 0
M  V30 2324 H 210.304 2.89949 3.58786 0
M  V30 2325 H 208.547 2.78027 3.32992 0
M  V30 2326 H 209.218 2.47373 4.93468 0
M  V30 2327 H 211.694 0.739551 4.09475 0
M  V30 2328 H 210.57 0.535331 5.46283 0
M  V30 2329 H 210.831 -0.797216 4.34853 0
M  V30 2330 N 209.89 -1.43072 0.660911 0
M  V30 2331 C 210.8 -2.34585 -0.0264163 0
M  V30 2332 C 211.816 -1.54316 -0.803898 0
M  V30 2333 O 212.992 -1.86939 -0.749391 0
M  V30 2334 C 210.057 -3.32689 -0.975639 0
M  V30 2335 C 209.118 -4.2886 -0.194236 0
M  V30 2336 C 208.351 -5.22278 -1.09825 0
M  V30 2337 O 208.574 -5.20299 -2.33763 0
M  V30 2338 O 207.508 -5.99228 -0.566513 0
M  V30 2339 H 211.334 -2.94869 0.727034 0
M  V30 2340 H 208.919 -1.43342 0.42111 0
M  V30 2341 H 210.801 -3.92995 -1.52094 0
M  V30 2342 H 209.476 -2.74898 -1.70918 0
M  V30 2343 H 208.383 -3.72011 0.394835 0
M  V30 2344 H 209.716 -4.89655 0.499899 0
M  V30 2345 N 211.368 -0.403325 -1.52352 0
M  V30 2346 C 212.779 0.0675782 -1.86578 0
M  V30 2347 C 213.13 1.44941 -1.32236 0
M  V30 2348 O 212.255 2.06112 -0.659307 0
M  V30 2349 C 212.85 0.129404 -3.38553 0
M  V30 2350 C 211.409 0.544629 -3.72439 0
M  V30 2351 C 210.556 -0.284551 -2.75836 0
M  V30 2352 H 213.507 -0.620631 -1.46061 0
M  V30 2353 H 213.528 0.94581 -3.68558 0
M  V30 2354 H 213.04 -0.87645 -3.78074 0
M  V30 2355 H 211.141 1.55734 -3.38493 0
M  V30 2356 H 211.254 0.293046 -4.78203 0
M  V30 2357 H 209.618 0.252258 -2.53448 0
M  V30 2358 H 210.401 -1.28865 -3.18196 0
M  V30 2359 N 212.846 1.57033 -0.133567 0
M  V30 2360 C 214.123 1.87256 0.56522 0
M  V30 2361 C 214.503 1.03726 1.83859 0
M  V30 2362 O 213.851 0.120247 2.28183 0
M  V30 2363 C 214.061 3.3865 0.843636 0
M  V30 2364 C 215.409 4.07574 1.19032 0
M  V30 2365 O 216.433 3.43752 0.933429 0
M  V30 2366 O 215.292 5.20259 1.67312 0
M  V30 2367 H 212.386 0.775678 0.286796 0
M  V30 2368 H 214.932 1.68855 -0.169168 0
M  V30 2369 H 213.704 3.91257 -0.0581149 0
M  V30 2370 H 213.327 3.62532 1.63268 0
M  V30 2371 N 214.325 -0.140222 1.56975 0
M  V30 2372 C 215.55 -0.870414 1.88251 0
M  V30 2373 C 215.975 -1.73637 0.723312 0
M  V30 2374 O 215.333 -1.78329 -0.32689 0
M  V30 2375 C 215.381 -1.69737 3.18154 0
M  V30 2376 O 214.485 -2.80229 3.02565 0
M  V30 2377 H 213.826 -0.242025 0.61832 0
M  V30 2378 H 216.356 -0.128999 2.04193 0
M  V30 2379 H 216.366 -2.09099 3.50345 0
M  V30 2380 H 215.041 -1.06152 4.02125 0
M  V30 2381 H 213.618 -2.44224 2.81796 0
M  V30 2382 N 215.803 -1.52179 -0.40978 0
M  V30 2383 C 217.031 -1.70054 -1.17853 0
M  V30 2384 C 217.446 -0.409735 -1.843 0
M  V30 2385 O 216.803 0.614183 -1.71855 0
M  V30 2386 C 216.854 -2.83568 -2.24213 0
M  V30 2387 O 216.575 -4.0765 -1.60478 0
M  V30 2388 C 218.076 -3.12947 -3.13973 0
M  V30 2389 H 215.296 -0.569917 -0.354169 0
M  V30 2390 H 217.84 -1.98734 -0.482198 0
M  V30 2391 H 215.995 -2.57409 -2.89516 0
M  V30 2392 H 216.409 -4.70899 -2.30986 0
M  V30 2393 H 217.883 -3.95889 -3.84677 0
M  V30 2394 H 218.36 -2.26472 -3.76307 0
M  V30 2395 H 218.966 -3.40868 -2.5434 0
M  V30 2396 N 217.281 0.66697 -1.42791 0
M  V30 2397 C 218.697 0.981027 -1.25889 0
M  V30 2398 C 218.897 2.00793 -0.168695 0
M  V30 2399 O 217.953 2.48321 0.45747 0
M  V30 2400 C 219.266 1.47838 -2.61848 0
M  V30 2401 C 220.814 1.59575 -2.69267 0
M  V30 2402 C 221.289 2.12704 -4.05612 0
M  V30 2403 N 222.78 2.20026 -4.07606 0
M  V30 2404 C 223.515 2.62227 -5.09926 0
M  V30 2405 N 223.011 3.03824 -6.22626 0
M  V30 2406 N 224.804 2.62045 -4.97281 0
M  V30 2407 H 216.955 -0.0127891 -2.12396 0
M  V30 2408 H 219.218 0.0568258 -0.946295 0
M  V30 2409 H 218.924 0.798299 -3.4252 0
M  V30 2410 H 218.798 2.45579 -2.86305 0
M  V30 2411 H 221.185 2.26687 -1.88936 0
M  V30 2412 H 221.266 0.60302 -2.48591 0
M  V30 2413 H 220.91 1.46198 -4.86404 0
M  V30 2414 H 220.84 3.12782 -4.23645 0
M  V30 2415 H 223.331 1.90708 -3.2625 0
M  V30 2416 H 223.644 3.34734 -6.96544 0
M  V30 2417 H 221.989 3.01662 -6.26119 0
M  V30 2418 H 225.18 2.28916 -4.08308 0
M  V30 2419 H 225.353 2.94613 -5.77154 0
M  V30 2420 N 218.759 1.29093 0.90403 0
M  V30 2421 C 220.005 1.17996 1.65676 0
M  V30 2422 C 220.36 -0.266816 1.90541 0
M  V30 2423 O 219.653 -1.19 1.50165 0
M  V30 2424 C 219.847 1.92224 3.01305 0
M  V30 2425 C 219.676 3.43972 2.89678 0
M  V30 2426 C 218.446 4.1332 2.90679 0
M  V30 2427 C 220.644 4.39546 2.67028 0
M  V30 2428 N 218.626 5.51463 2.69743 0
M  V30 2429 C 219.997 5.65119 2.5503 0
M  V30 2430 C 222.052 4.29359 2.52101 0
M  V30 2431 C 220.755 6.81663 2.29626 0
M  V30 2432 C 222.781 5.4565 2.28079 0
M  V30 2433 C 222.143 6.70193 2.16843 0
M  V30 2434 H 218.242 0.486759 0.612037 0
M  V30 2435 H 220.826 1.62868 1.06688 0
M  V30 2436 H 218.997 1.49773 3.58361 0
M  V30 2437 H 220.729 1.73429 3.65656 0
M  V30 2438 H 217.484 3.64984 3.01801 0
M  V30 2439 H 217.908 6.24105 2.6234 0
M  V30 2440 H 222.55 3.33769 2.59534 0
M  V30 2441 H 220.268 7.77313 2.20932 0
M  V30 2442 H 223.854 5.39664 2.1738 0
M  V30 2443 H 222.734 7.58659 1.98511 0
M  V30 2444 N 220.237 -1.11381 1.11499 0
M  V30 2445 C 221.185 -2.19522 0.768956 0
M  V30 2446 C 222.179 -1.67693 -0.239857 0
M  V30 2447 O 223.385 -1.79727 -0.0990755 0
M  V30 2448 H 219.76 -0.715711 0.230786 0
M  V30 2449 H 221.731 -2.45954 1.68964 0
M  V30 2450 C 220.48 -3.46945 0.229073 0
M  V30 2451 H 219.803 -3.8718 0.996596 0
M  V30 2452 H 221.243 -4.23993 0.0251441 0
M  V30 2453 C 219.702 -3.2042 -1.04079 0
M  V30 2454 O 220.232 -3.41178 -2.12038 0
M  V30 2455 N 218.438 -2.74151 -0.963823 0
M  V30 2456 H 217.985 -2.57459 -0.0851722 0
M  V30 2457 H 217.943 -2.56781 -1.81414 0
M  V30 2458 N 221.715 -0.905404 -1.28997 0
M  V30 2459 C 222.662 -0.385892 -2.27551 0
M  V30 2460 C 223.632 0.535113 -1.57244 0
M  V30 2461 O 224.817 0.459119 -1.85194 0
M  V30 2462 C 221.957 0.375461 -3.43051 0
M  V30 2463 C 221.07 -0.577092 -4.28128 0
M  V30 2464 C 220.205 0.201879 -5.30816 0
M  V30 2465 C 219.244 -0.744829 -6.07551 0
M  V30 2466 N 218.381 9.42587e-05 -7.021 0
M  V30 2467 H 223.221 -1.23139 -2.71368 0
M  V30 2468 H 220.758 -0.618542 -1.33463 0
M  V30 2469 H 222.716 0.832992 -4.088 0
M  V30 2470 H 221.346 1.18537 -3.00248 0
M  V30 2471 H 220.398 -1.15315 -3.62501 0
M  V30 2472 H 221.71 -1.30152 -4.8152 0
M  V30 2473 H 220.864 0.720351 -6.02408 0
M  V30 2474 H 219.603 0.959413 -4.7817 0
M  V30 2475 H 218.608 -1.27475 -5.34818 0
M  V30 2476 H 219.833 -1.50178 -6.62286 0
M  V30 2477 H 217.779 0.739791 -6.51815 0
M  V30 2478 H 217.696 -0.664321 -7.53076 0
M  V30 2479 H 218.964 0.498644 -7.77903 0
M  V30 2480 N 223.193 1.4272 -0.668489 0
M  V30 2481 C 224.123 2.335 -0.000100175 0
M  V30 2482 C 225.104 1.50328 0.795964 0
M  V30 2483 O 226.289 1.78949 0.754385 0
M  V30 2484 C 223.419 3.33874 0.956302 0
M  V30 2485 C 222.373 4.27152 0.269278 0
M  V30 2486 C 221.699 5.17684 1.33818 0
M  V30 2487 C 222.999 5.15373 -0.847805 0
M  V30 2488 H 224.693 2.89639 -0.758244 0
M  V30 2489 H 222.239 1.39269 -0.366079 0
M  V30 2490 H 224.192 3.9629 1.43292 0
M  V30 2491 H 222.916 2.76025 1.74579 0
M  V30 2492 H 221.575 3.66123 -0.187042 0
M  V30 2493 H 221.223 4.56165 2.1195 0
M  V30 2494 H 220.923 5.80918 0.883659 0
M  V30 2495 H 222.447 5.82974 1.81586 0
M  V30 2496 H 223.861 5.7151 -0.452681 0
M  V30 2497 H 222.258 5.87407 -1.22773 0
M  V30 2498 H 223.328 4.5415 -1.69929 0
M  V30 2499 N 224.671 0.411399 1.52136 0
M  V30 2500 C 225.604 -0.457614 2.23565 0
M  V30 2501 C 226.582 -1.04613 1.24478 0
M  V30 2502 O 227.766 -1.09356 1.53536 0
M  V30 2503 C 224.893 -1.6354 2.96602 0
M  V30 2504 C 223.939 -1.17005 4.10137 0
M  V30 2505 S 224.772 -0.13333 5.35334 0
M  V30 2506 C 225.928 -1.31638 6.119 0
M  V30 2507 H 226.161 0.148883 2.96927 0
M  V30 2508 H 223.694 0.195713 1.53155 0
M  V30 2509 H 225.652 -2.31074 3.39286 0
M  V30 2510 H 224.313 -2.21324 2.22878 0
M  V30 2511 H 223.506 -2.05005 4.60422 0
M  V30 2512 H 223.108 -0.573319 3.6958 0
M  V30 2513 H 225.4 -2.23957 6.39413 0
M  V30 2514 H 226.343 -0.854014 7.02931 0
M  V30 2515 H 226.751 -1.54321 5.42997 0
M  V30 2516 N 226.149 -1.5696 0.141893 0
M  V30 2517 C 227.079 -2.19516 -0.795936 0
M  V30 2518 C 228.06 -1.14187 -1.26077 0
M  V30 2519 O 229.245 -1.42511 -1.31925 0
M  V30 2520 C 226.375 -2.81272 -2.03723 0
M  V30 2521 C 225.329 -3.92384 -1.70936 0
M  V30 2522 C 224.655 -4.41052 -3.02287 0
M  V30 2523 C 225.955 -5.13403 -0.959954 0
M  V30 2524 H 227.649 -2.98138 -0.274596 0
M  V30 2525 H 225.195 -1.43406 -0.130636 0
M  V30 2526 H 227.148 -3.237 -2.69808 0
M  V30 2527 H 225.872 -1.99973 -2.58221 0
M  V30 2528 H 224.531 -3.50566 -1.07232 0
M  V30 2529 H 224.179 -3.56582 -3.54765 0
M  V30 2530 H 223.879 -5.15993 -2.81114 0
M  V30 2531 H 225.403 -4.86146 -3.69451 0
M  V30 2532 H 226.817 -5.52706 -1.52279 0
M  V30 2533 H 225.214 -5.94073 -0.848357 0
M  V30 2534 H 226.284 -4.84875 0.0492434 0
M  V30 2535 N 227.627 0.131896 -1.57047 0
M  V30 2536 C 228.537 1.1815 -2.02676 0
M  V30 2537 C 229.553 1.46113 -0.944824 0
M  V30 2538 O 230.729 1.57485 -1.25541 0
M  V30 2539 C 227.794 2.49139 -2.41103 0
M  V30 2540 C 226.855 2.28688 -3.63318 0
M  V30 2541 C 226.088 3.53431 -3.99903 0
M  V30 2542 O 226.311 4.60223 -3.36973 0
M  V30 2543 O 225.245 3.45198 -4.93074 0
M  V30 2544 H 229.071 0.824069 -2.92306 0
M  V30 2545 H 226.656 0.341745 -1.45439 0
M  V30 2546 H 228.538 3.26338 -2.66611 0
M  V30 2547 H 227.213 2.84382 -1.54624 0
M  V30 2548 H 226.12 1.4939 -3.42977 0
M  V30 2549 H 227.453 1.98355 -4.50462 0
M  V30 2550 N 229.106 1.52395 0.401703 0
M  V30 2551 C 230.346 1.68498 1.15705 0
M  V30 2552 C 230.71 0.409748 1.87577 0
M  V30 2553 O 231.911 0.446983 2.65058 0
M  V30 2554 C 230.182 2.87789 2.11924 0
M  V30 2555 S 231.741 3.24415 2.95466 0
M  V30 2556 H 228.559 0.593267 0.391862 0
M  V30 2557 H 231.161 1.90408 0.443282 0
M  V30 2558 H 229.865 3.7884 1.57824 0
M  V30 2559 H 229.396 2.68175 2.87829 0
M  V30 2560 H 231.411 2.73614 4.13944 0
M  V30 2561 N 230.584 -0.659388 1.43143 0
M  V30 2562 C 231.83 -1.42145 1.44647 0
M  V30 2563 C 232.163 -1.9408 0.0681907 0
M  V30 2564 O 231.438 -1.71899 -0.910007 0
M  V30 2565 C 231.721 -2.60735 2.48373 0
M  V30 2566 C 231.574 -2.14332 3.95451 0
M  V30 2567 C 232.893 -3.62951 2.48906 0
M  V30 2568 H 230.012 -0.51552 0.526696 0
M  V30 2569 H 232.654 -0.748069 1.74654 0
M  V30 2570 H 230.804 -3.18184 2.22916 0
M  V30 2571 H 232.476 -1.61932 4.31944 0
M  V30 2572 H 230.719 -1.4576 4.08578 0
M  V30 2573 H 231.39 -2.99583 4.63631 0
M  V30 2574 H 233.866 -3.1525 2.71582 0
M  V30 2575 H 232.742 -4.43487 3.23435 0
M  V30 2576 H 233.003 -4.15126 1.52061 0
M  V30 2577 N 232.062 -1.29571 -0.897171 0
M  V30 2578 C 233.009 -1.14916 -2.00158 0
M  V30 2579 C 233.979 -0.0418149 -1.66047 0
M  V30 2580 O 235.164 -0.209793 -1.89643 0
M  V30 2581 C 232.304 -0.834307 -3.34863 0
M  V30 2582 C 231.417 -2.02234 -3.8174 0
M  V30 2583 C 230.552 -1.64664 -5.05034 0
M  V30 2584 C 229.591 -2.80033 -5.44286 0
M  V30 2585 N 228.728 -2.42843 -6.58765 0
M  V30 2586 H 233.568 -2.09403 -2.12025 0
M  V30 2587 H 231.105 -1.042 -1.0383 0
M  V30 2588 H 233.063 -0.632436 -4.12379 0
M  V30 2589 H 231.693 0.0736656 -3.22716 0
M  V30 2590 H 230.745 -2.33583 -3.00238 0
M  V30 2591 H 232.057 -2.88673 -4.06779 0
M  V30 2592 H 231.211 -1.4078 -5.9014 0
M  V30 2593 H 229.95 -0.753766 -4.8184 0
M  V30 2594 H 228.955 -3.04596 -4.57713 0
M  V30 2595 H 230.18 -3.69989 -5.6946 0
M  V30 2596 H 228.126 -1.56046 -6.3717 0
M  V30 2597 H 228.043 -3.22815 -6.83613 0
M  V30 2598 H 229.311 -2.22285 -7.47134 0
M  V30 2599 N 233.54 1.10788 -1.12088 0
M  V30 2600 C 234.503 2.15207 -0.788577 0
M  V30 2601 C 235.503 1.59609 0.195317 0
M  V30 2602 O 236.693 1.74174 -0.0300193 0
M  V30 2603 C 233.825 3.4047 -0.171174 0
M  V30 2604 H 235.018 2.46116 -1.71368 0
M  V30 2605 H 232.571 1.26089 -0.923652 0
M  V30 2606 H 233.306 3.15176 0.763832 0
M  V30 2607 H 233.091 3.82109 -0.879514 0
M  V30 2608 H 234.581 4.17576 0.04496 0
M  V30 2609 N 235.018 0.912232 1.28515 0
M  V30 2610 C 236.267 0.540504 1.94323 0
M  V30 2611 C 236.58 -0.920044 1.72611 0
M  V30 2612 O 237.786 -1.39986 2.32629 0
M  V30 2613 C 236.242 0.915803 3.48053 0
M  V30 2614 C 235.85 2.39598 3.78546 0
M  V30 2615 C 237.594 0.614588 4.20027 0
M  V30 2616 C 235.501 2.71148 5.25578 0
M  V30 2617 H 234.431 0.198418 0.727424 0
M  V30 2618 H 237.082 1.11094 1.46049 0
M  V30 2619 H 235.464 0.274168 3.9505 0
M  V30 2620 H 236.638 3.08422 3.42364 0
M  V30 2621 H 234.953 2.66749 3.1974 0
M  V30 2622 H 237.55 0.827002 5.28266 0
M  V30 2623 H 237.893 -0.447531 4.13887 0
M  V30 2624 H 238.426 1.21462 3.78803 0
M  V30 2625 H 235.165 3.76207 5.36794 0
M  V30 2626 H 234.685 2.0696 5.62963 0
M  V30 2627 H 236.364 2.58072 5.93302 0
M  V30 2628 N 236.496 -1.42363 0.676048 0
M  V30 2629 C 237.912 -1.55811 0.345718 0
M  V30 2630 C 238.112 -1.65544 -1.14879 0
M  V30 2631 O 237.168 -1.62306 -1.93424 0
M  V30 2632 C 238.481 -2.80746 1.07713 0
M  V30 2633 C 240.029 -2.9452 1.05958 0
M  V30 2634 C 240.504 -4.22318 1.77233 0
M  V30 2635 N 241.995 -4.29233 1.74108 0
M  V30 2636 C 242.73 -5.26935 2.26113 0
M  V30 2637 N 242.226 -6.30783 2.86505 0
M  V30 2638 N 244.019 -5.18741 2.1648 0
M  V30 2639 H 236.17 -1.34289 1.6456 0
M  V30 2640 H 238.433 -0.646506 0.69335 0
M  V30 2641 H 238.139 -2.79696 2.13221 0
M  V30 2642 H 238.013 -3.71676 0.64316 0
M  V30 2643 H 240.4 -2.95097 0.0128255 0
M  V30 2644 H 240.481 -2.04817 1.53244 0
M  V30 2645 H 240.125 -4.22502 2.81877 0
M  V30 2646 H 240.055 -5.10958 1.27396 0
M  V30 2647 H 242.546 -3.54814 1.30059 0
M  V30 2648 H 242.859 -7.01691 3.23805 0
M  V30 2649 H 241.204 -6.31341 2.90575 0
M  V30 2650 H 244.395 -4.36533 1.68987 0
M  V30 2651 H 244.568 -5.94721 2.57316 0
M  V30 2652 N 237.974 -0.419461 -1.51915 0
M  V30 2653 C 238.884 0.407528 -2.31033 0
M  V30 2654 C 239.9 1.04413 -1.3919 0
M  V30 2655 O 241.076 1.0434 -1.72265 0
M  V30 2656 C 238.141 1.50365 -3.12396 0
M  V30 2657 C 237.202 0.889029 -4.19994 0
M  V30 2658 C 236.435 1.93291 -4.97468 0
M  V30 2659 O 236.658 3.15259 -4.75361 0
M  V30 2660 O 235.592 1.53339 -5.8204 0
M  V30 2661 H 239.418 -0.237865 -3.02767 0
M  V30 2662 H 237.003 -0.182413 -1.48282 0
M  V30 2663 H 238.885 2.13975 -3.63032 0
M  V30 2664 H 237.56 2.13345 -2.43445 0
M  V30 2665 H 236.467 0.215353 -3.7348 0
M  V30 2666 H 237.8 0.302991 -4.91267 0
M  V30 2667 N 239.452 1.56882 -0.150215 0
M  V30 2668 C 240.701 1.95403 0.500071 0
M  V30 2669 C 241.014 1.03777 1.658 0
M  V30 2670 O 242.22 1.31889 2.37313 0
M  V30 2671 C 240.676 3.4738 0.941018 0
M  V30 2672 C 240.284 4.47596 -0.190158 0
M  V30 2673 C 242.028 3.9476 1.56091 0
M  V30 2674 C 239.935 5.90787 0.269237 0
M  V30 2675 H 238.865 0.729515 0.190588 0
M  V30 2676 H 241.516 1.81988 -0.235074 0
M  V30 2677 H 239.898 3.56138 1.73152 0
M  V30 2678 H 241.072 4.50536 -0.967157 0
M  V30 2679 H 239.387 4.10151 -0.718666 0
M  V30 2680 H 241.984 4.99181 1.9163 0
M  V30 2681 H 242.327 3.36494 2.45107 0
M  V30 2682 H 242.86 3.88932 0.835249 0
M  V30 2683 H 239.599 6.52879 -0.585621 0
M  V30 2684 H 239.119 5.912 1.01204 0
M  V30 2685 H 240.798 6.42979 0.720176 0
M  V30 2686 N 240.93 -0.123565 1.57115 0
M  V30 2687 C 242.207 -0.862196 1.75572 0
M  V30 2688 C 242.587 -1.98279 0.724475 0
M  V30 2689 O 241.935 -2.27102 -0.252407 0
M  V30 2690 C 242.145 -1.38309 3.20424 0
M  V30 2691 C 243.493 -1.83724 3.82793 0
M  V30 2692 O 244.517 -1.47999 3.23998 0
M  V30 2693 O 243.376 -2.49685 4.86127 0
M  V30 2694 H 240.47 -0.409113 0.718718 0
M  V30 2695 H 243.016 -0.107661 1.69358 0
M  V30 2696 H 241.788 -0.578889 3.86994 0
M  V30 2697 H 241.411 -2.20046 3.31158 0
M  V30 2698 N 242.408 -1.52605 -0.393616 0
M  V30 2699 C 243.633 -1.71592 -1.16495 0
M  V30 2700 C 244.058 -0.43133 -1.83088 0
M  V30 2701 O 243.416 0.612523 -1.7064 0
M  V30 2702 C 243.464 -2.86318 -2.19213 0
M  V30 2703 O 242.568 -2.52969 -3.257 0
M  V30 2704 H 241.909 -0.570734 -0.33935 0
M  V30 2705 H 244.439 -1.99377 -0.459324 0
M  V30 2706 H 244.449 -3.1168 -2.63286 0
M  V30 2707 H 243.124 -3.79511 -1.7013 0
M  V30 2708 H 241.701 -2.38332 -2.86797 0
M  V30 2709 N 243.887 0.651787 -1.4349 0
M  V30 2710 C 245.115 1.43937 -1.48626 0
M  V30 2711 C 245.53 1.8851 -0.104587 0
M  V30 2712 O 244.887 1.5958 0.885464 0
M  V30 2713 C 244.938 2.6734 -2.43334 0
M  V30 2714 O 244.659 2.24631 -3.76128 0
M  V30 2715 C 246.16 3.60683 -2.57726 0
M  V30 2716 H 243.38 0.44213 -0.504739 0
M  V30 2717 H 245.924 0.798944 -1.88248 0
M  V30 2718 H 244.079 3.2752 -2.06904 0
M  V30 2719 H 244.493 3.04485 -4.2707 0
M  V30 2720 H 245.967 4.43933 -3.28067 0
M  V30 2721 H 246.444 4.08126 -1.62265 0
M  V30 2722 H 247.05 3.06384 -2.94973 0
M  V30 2723 N 245.365 1.30045 0.890287 0
M  V30 2724 C 246.781 1.08261 1.17268 0
M  V30 2725 C 246.981 -0.160063 2.00863 0
M  V30 2726 O 246.037 -0.855181 2.37577 0
M  V30 2727 C 247.35 2.34323 1.8845 0
M  V30 2728 C 248.898 2.39735 2.01237 0
M  V30 2729 C 249.373 3.65625 2.7583 0
M  V30 2730 N 250.864 3.66402 2.83379 0
M  V30 2731 C 251.599 4.60498 3.41657 0
M  V30 2732 N 251.095 5.64933 4.01026 0
M  V30 2733 N 252.888 4.48051 3.39421 0
M  V30 2734 H 245.039 2.09777 0.332762 0
M  V30 2735 H 247.302 0.92446 0.209948 0
M  V30 2736 H 247.008 3.2498 1.34465 0
M  V30 2737 H 246.882 2.4256 2.88867 0
M  V30 2738 H 249.269 1.4956 2.54393 0
M  V30 2739 H 249.35 2.35476 0.999232 0
M  V30 2740 H 248.994 4.56156 2.23347 0
M  V30 2741 H 248.924 3.67144 3.77509 0
M  V30 2742 H 251.415 2.90896 2.41222 0
M  V30 2743 H 251.728 6.32841 4.43545 0
M  V30 2744 H 250.073 5.68732 3.99461 0
M  V30 2745 H 253.264 3.65649 2.92264 0
M  V30 2746 H 253.437 5.21565 3.84544 0
M  V30 2747 N 246.843 -1.10192 1.12674 0
M  V30 2748 C 248.089 -1.82658 0.894847 0
M  V30 2749 C 248.444 -1.83666 -0.573107 0
M  V30 2750 O 247.737 -1.28816 -1.41835 0
M  V30 2751 C 247.931 -3.28552 1.4067 0
M  V30 2752 C 247.76 -3.41756 2.92289 0
M  V30 2753 C 246.53 -3.54021 3.60551 0
M  V30 2754 C 248.728 -3.34949 3.90274 0
M  V30 2755 N 246.71 -3.55827 5.0026 0
M  V30 2756 C 248.081 -3.43531 5.16127 0
M  V30 2757 C 250.136 -3.18565 3.8265 0
M  V30 2758 C 248.839 -3.37416 6.3525 0
M  V30 2759 C 250.865 -3.13772 5.01299 0
M  V30 2760 C 250.227 -3.22938 6.26012 0
M  V30 2761 H 246.326 -0.683044 0.380756 0
M  V30 2762 H 248.91 -1.31752 1.43351 0
M  V30 2763 H 247.081 -3.77946 0.895055 0
M  V30 2764 H 248.813 -3.88991 1.11661 0
M  V30 2765 H 245.568 -3.57135 3.1105 0
M  V30 2766 H 245.992 -3.60335 5.73138 0
M  V30 2767 H 250.634 -3.10354 2.87124 0
M  V30 2768 H 248.352 -3.44391 7.3104 0
M  V30 2769 H 251.938 -3.02242 4.97133 0
M  V30 2770 H 250.818 -3.19235 7.16281 0
M  V30 2771 N 248.321 -0.919034 -1.28029 0
M  V30 2772 C 249.251 -0.428581 -2.29533 0
M  V30 2773 C 250.232 0.50659 -1.62381 0
M  V30 2774 O 251.417 0.413195 -1.89753 0
M  V30 2775 C 248.547 0.327388 -3.45753 0
M  V30 2776 C 247.501 -0.519137 -4.2484 0
M  V30 2777 C 246.827 0.365486 -5.33449 0
M  V30 2778 C 248.127 -1.77914 -4.91064 0
M  V30 2779 H 249.821 -1.27687 -2.70807 0
M  V30 2780 H 247.367 -0.615428 -1.30186 0
M  V30 2781 H 249.32 0.681378 -4.15855 0
M  V30 2782 H 248.044 1.20963 -3.03374 0
M  V30 2783 H 246.703 -0.855717 -3.56473 0
M  V30 2784 H 246.351 1.24642 -4.87312 0
M  V30 2785 H 246.051 -0.197356 -5.87268 0
M  V30 2786 H 247.575 0.715241 -6.06396 0
M  V30 2787 H 248.989 -1.49374 -5.53498 0
M  V30 2788 H 247.386 -2.2848 -5.54903 0
M  V30 2789 H 248.456 -2.50382 -4.15255 0
M  V30 2790 N 249.799 1.42003 -0.683588 0
M  V30 2791 C 251.029 2.05448 -0.217866 0
M  V30 2792 C 251.437 1.51491 1.13346 0
M  V30 2793 O 250.78 0.653048 1.717 0
M  V30 2794 C 250.842 3.59399 -0.0850118 0
M  V30 2795 C 250.506 4.36093 -1.36645 0
M  V30 2796 C 251.503 4.66169 -2.30179 0
M  V30 2797 C 249.188 4.75578 -1.61649 0
M  V30 2798 C 251.182 5.34676 -3.46988 0
M  V30 2799 C 248.869 5.43824 -2.78745 0
M  V30 2800 C 249.867 5.73299 -3.71238 0
M  V30 2801 O 249.555 6.40142 -4.86285 0
M  V30 2802 H 249.287 0.668344 -0.101454 0
M  V30 2803 H 251.841 1.82974 -0.933248 0
M  V30 2804 H 250.071 3.80566 0.686031 0
M  V30 2805 H 251.76 4.04457 0.341973 0
M  V30 2806 H 252.526 4.36156 -2.12115 0
M  V30 2807 H 248.405 4.52025 -0.905243 0
M  V30 2808 H 251.949 5.57599 -4.19201 0
M  V30 2809 H 247.846 5.73254 -2.96732 0
M  V30 2810 H 248.614 6.58636 -4.85944 0
M  V30 2811 N 251.277 0.427512 1.51691 0
M  V30 2812 C 252.526 -0.143679 2.01188 0
M  V30 2813 C 252.839 -1.44642 1.31674 0
M  V30 2814 O 254.045 -2.09997 1.72086 0
M  V30 2815 C 252.501 -0.306602 3.58592 0
M  V30 2816 C 252.109 0.985125 4.37035 0
M  V30 2817 C 253.853 -0.832091 4.16265 0
M  V30 2818 C 251.76 0.788382 5.86122 0
M  V30 2819 H 250.69 -0.0574701 0.751807 0
M  V30 2820 H 253.341 0.555772 1.74881 0
M  V30 2821 H 251.723 -1.06882 3.81303 0
M  V30 2822 H 252.897 1.75492 4.26074 0
M  V30 2823 H 251.212 1.4384 3.90767 0
M  V30 2824 H 253.809 -0.995617 5.25349 0
M  V30 2825 H 254.152 -1.81186 3.74803 0
M  V30 2826 H 254.685 -0.128444 3.97593 0
M  V30 2827 H 251.424 1.74025 6.31978 0
M  V30 2828 H 250.944 0.0582143 5.99772 0
M  V30 2829 H 252.623 0.437722 6.45518 0
M  V30 2830 N 252.755 -1.56801 0.158532 0
M  V30 2831 C 254.003 -1.96102 -0.488712 0
M  V30 2832 C 254.324 -1.04498 -1.64636 0
M  V30 2833 O 253.594 -0.108783 -1.95598 0
M  V30 2834 H 252.174 -0.724102 -0.183535 0
M  V30 2835 H 254.836 -1.93457 0.236728 0
M  V30 2836 H 253.932 -3.00097 -0.857219 0
M  V30 2837 N 254.233 0.115231 -1.57178 0
M  V30 2838 C 255.481 0.820727 -1.84685 0
M  V30 2839 C 255.802 1.80237 -0.744279 0
M  V30 2840 O 255.072 1.94529 0.231375 0
M  V30 2841 H 253.652 0.306084 -0.681411 0
M  V30 2842 H 256.314 0.101656 -1.94635 0
M  V30 2843 H 255.41 1.36366 -2.80733 0
M  V30 2844 N 255.711 1.52812 0.385517 0
M  V30 2845 C 256.659 1.78482 1.49155 0
M  V30 2846 C 257.653 0.652914 1.56312 0
M  V30 2847 O 258.859 0.835464 1.59436 0
M  V30 2848 H 255.234 0.5648 0.496493 0
M  V30 2849 H 257.205 2.71095 1.24699 0
M  V30 2850 C 255.954 1.97378 2.86247 0
M  V30 2851 H 255.277 2.83907 2.81491 0
M  V30 2852 H 256.717 2.19327 3.62866 0
M  V30 2853 C 255.176 0.74728 3.28508 0
M  V30 2854 O 255.706 -0.0736232 4.01633 0
M  V30 2855 N 253.912 0.576396 2.84826 0
M  V30 2856 H 253.459 1.24555 2.25486 0
M  V30 2857 H 253.417 -0.24288 3.1346 0
M  V30 2858 N 257.189 -0.644168 1.43834 0
M  V30 2859 C 258.137 -1.77793 1.49974 0
M  V30 2860 C 259.131 -1.65253 0.372536 0
M  V30 2861 O 260.337 -1.7149 0.546924 0
M  V30 2862 H 256.712 -0.58675 0.47035 0
M  V30 2863 H 258.683 -1.69736 2.45423 0
M  V30 2864 C 257.432 -3.16087 1.4486 0
M  V30 2865 H 256.755 -3.26378 2.30905 0
M  V30 2866 H 258.195 -3.95349 1.53217 0
M  V30 2867 C 256.654 -3.36484 0.167463 0
M  V30 2868 O 257.184 -3.94298 -0.767609 0
M  V30 2869 N 255.39 -2.90504 0.0747556 0
M  V30 2870 H 254.937 -2.4364 0.836507 0
M  V30 2871 H 254.895 -3.04527 -0.781714 0
M  V30 2872 N 258.668 -1.30515 -0.883378 0
M  V30 2873 C 259.898 -1.22182 -1.66599 0
M  V30 2874 C 260.306 0.217507 -1.87946 0
M  V30 2875 O 259.649 1.1554 -1.42815 0
M  V30 2876 C 259.711 -1.88146 -3.06335 0
M  V30 2877 C 259.375 -3.37476 -3.08154 0
M  V30 2878 C 260.372 -4.33443 -2.87094 0
M  V30 2879 C 258.057 -3.7895 -3.29701 0
M  V30 2880 C 260.051 -5.68858 -2.8754 0
M  V30 2881 C 257.738 -5.14482 -3.29776 0
M  V30 2882 C 258.736 -6.09246 -3.0872 0
M  V30 2883 O 258.424 -7.42302 -3.08615 0
M  V30 2884 H 258.156 -0.423898 -0.52658 0
M  V30 2885 H 260.71 -1.72703 -1.11188 0
M  V30 2886 H 258.94 -1.32157 -3.63416 0
M  V30 2887 H 260.629 -1.7391 -3.66756 0
M  V30 2888 H 261.395 -4.02733 -2.70243 0
M  V30 2889 H 257.274 -3.05631 -3.45124 0
M  V30 2890 H 260.818 -6.428 -2.71024 0
M  V30 2891 H 256.715 -5.44832 -3.46163 0
M  V30 2892 H 257.483 -7.5131 -3.24769 0
M  V30 2893 N 260.146 1.09593 -1.13257 0
M  V30 2894 C 261.094 2.18271 -0.803783 0
M  V30 2895 C 262.088 1.68054 0.213148 0
M  V30 2896 O 263.294 1.79862 0.0704699 0
M  V30 2897 H 259.669 0.711949 -0.242143 0
M  V30 2898 H 261.64 2.43235 -1.72856 0
M  V30 2899 C 260.389 3.46536 -0.28424 0
M  V30 2900 H 259.712 3.85545 -1.05807 0
M  V30 2901 H 261.152 4.23899 -0.0925945 0
M  V30 2902 C 259.611 3.22036 0.989684 0
M  V30 2903 O 260.141 3.44509 2.06584 0
M  V30 2904 N 258.347 2.7565 0.920086 0
M  V30 2905 H 257.894 2.57562 0.0442019 0
M  V30 2906 H 257.852 2.59635 1.77306 0
M  V30 2907 N 261.624 0.925811 1.2754 0
M  V30 2908 C 262.849 0.580924 1.99098 0
M  V30 2909 C 263.274 -0.833555 1.68622 0
M  V30 2910 O 262.632 -1.55903 0.925422 0
M  V30 2911 C 262.68 0.811186 3.51358 0
M  V30 2912 O 261.784 -0.124129 4.12213 0
M  V30 2913 H 261.125 0.223873 0.625122 0
M  V30 2914 H 263.655 1.24455 1.62395 0
M  V30 2915 H 263.665 0.72601 4.01489 0
M  V30 2916 H 262.34 1.84227 3.72872 0
M  V30 2917 H 260.917 0.0108006 3.72898 0
M  V30 2918 N 263.102 -1.41638 0.69111 0
M  V30 2919 C 264.513 -1.84346 0.295517 0
M  V30 2920 C 264.864 -1.57833 -1.16547 0
M  V30 2921 O 263.989 -1.04648 -1.89414 0
M  V30 2922 C 264.584 -3.34636 0.529575 0
M  V30 2923 C 263.143 -3.7593 0.187944 0
M  V30 2924 C 262.29 -2.65082 0.814052 0
M  V30 2925 H 265.241 -1.31253 0.892092 0
M  V30 2926 H 265.262 -3.79903 -0.213148 0
M  V30 2927 H 264.774 -3.53901 1.59297 0
M  V30 2928 H 262.875 -3.62268 -0.871367 0
M  V30 2929 H 262.988 -4.74808 0.63985 0
M  V30 2930 H 261.352 -2.53528 0.244017 0
M  V30 2931 H 262.135 -2.87167 1.88123 0
M  V30 2932 N 264.58 -0.43555 -1.51462 0
M  V30 2933 C 265.857 0.191364 -1.94662 0
M  V30 2934 C 266.237 1.60254 -1.37411 0
M  V30 2935 O 265.585 2.2152 -0.560458 0
M  V30 2936 C 265.795 0.17091 -3.48581 0
M  V30 2937 C 267.143 0.377357 -4.2292 0
M  V30 2938 O 268.167 0.249104 -3.55328 0
M  V30 2939 O 267.026 0.63247 -5.42828 0
M  V30 2940 H 264.12 0.130932 -0.816569 0
M  V30 2941 H 266.666 -0.4934 -1.62369 0
M  V30 2942 H 265.438 -0.815738 -3.82703 0
M  V30 2943 H 265.061 0.898659 -3.87311 0
M  V30 2944 N 266.058 1.56714 -0.166846 0
M  V30 2945 C 266.968 2.21331 0.777791 0
M  V30 2946 C 267.984 1.20358 1.25658 0
M  V30 2947 O 269.16 1.53005 1.30964 0
M  V30 2948 C 266.225 2.83787 1.99163 0
M  V30 2949 C 265.286 3.99947 1.56016 0
M  V30 2950 C 264.519 4.59415 2.71613 0
M  V30 2951 O 264.742 4.17769 3.88362 0
M  V30 2952 O 263.676 5.49359 2.45945 0
M  V30 2953 H 267.502 3.02605 0.257636 0
M  V30 2954 H 265.087 1.49275 0.0611393 0
M  V30 2955 H 266.969 3.23405 2.70161 0
M  V30 2956 H 265.644 2.05513 2.50092 0
M  V30 2957 H 264.551 3.65007 0.819809 0
M  V30 2958 H 265.884 4.79801 1.09782 0
M  V30 2959 N 267.536 -0.106894 1.57237 0
M  V30 2960 C 268.466 -1.13148 2.04254 0
M  V30 2961 C 269.447 -1.42476 0.929224 0
M  V30 2962 O 270.632 -1.52709 1.19973 0
M  V30 2963 C 267.762 -2.4545 2.45706 0
M  V30 2964 C 266.716 -2.30558 3.60592 0
M  V30 2965 C 266.042 -3.67931 3.87983 0
M  V30 2966 C 267.342 -1.75597 4.91897 0
M  V30 2967 H 269.036 -0.740374 2.90101 0
M  V30 2968 H 266.582 -0.354696 1.39563 0
M  V30 2969 H 268.535 -3.17389 2.77205 0
M  V30 2970 H 267.259 -2.86475 1.56843 0
M  V30 2971 H 265.918 -1.61067 3.29322 0
M  V30 2972 H 265.566 -4.06462 2.96306 0
M  V30 2973 H 265.266 -3.58817 4.65322 0
M  V30 2974 H 266.79 -4.41356 4.21945 0
M  V30 2975 H 268.204 -2.37364 5.21854 0
M  V30 2976 H 266.601 -1.77272 5.73319 0
M  V30 2977 H 267.671 -0.714451 4.79608 0
M  V30 2978 N 269.014 -1.53014 -0.377408 0
M  V30 2979 C 269.961 -1.78616 -1.46168 0
M  V30 2980 C 270.931 -0.629917 -1.53692 0
M  V30 2981 O 272.116 -0.870861 -1.69766 0
M  V30 2982 C 269.256 -1.97123 -2.8326 0
M  V30 2983 C 268.369 -3.24831 -2.84796 0
M  V30 2984 C 267.504 -3.33591 -4.13389 0
M  V30 2985 C 266.543 -4.55377 -4.09021 0
M  V30 2986 N 265.68 -4.61355 -5.29241 0
M  V30 2987 H 270.52 -2.71142 -1.23637 0
M  V30 2988 H 268.057 -1.34326 -0.599577 0
M  V30 2989 H 270.015 -2.05839 -3.62886 0
M  V30 2990 H 268.645 -1.07946 -3.04216 0
M  V30 2991 H 267.697 -3.25128 -1.97474 0
M  V30 2992 H 269.009 -4.14523 -2.77439 0
M  V30 2993 H 268.163 -3.41554 -5.01424 0
M  V30 2994 H 266.902 -2.41894 -4.23484 0
M  V30 2995 H 265.907 -4.47527 -3.19373 0
M  V30 2996 H 267.132 -5.48402 -4.00539 0
M  V30 2997 H 265.078 -3.72554 -5.39944 0
M  V30 2998 H 264.995 -5.44935 -5.24006 0
M  V30 2999 H 266.263 -4.73586 -6.19141 0
M  V30 3000 N 270.492 0.636531 -1.44174 0
M  V30 3001 C 271.44 1.76995 -1.50915 0
M  V30 3002 C 272.434 1.65053 -0.381295 0
M  V30 3003 O 273.64 1.71197 -0.55601 0
M  V30 3004 H 270.015 0.584247 -0.473455 0
M  V30 3005 H 271.986 1.68432 -2.4632 0
M  V30 3006 C 270.735 3.15314 -1.46534 0
M  V30 3007 H 270.058 3.25149 -2.32633 0
M  V30 3008 H 271.498 3.9453 -1.55312 0
M  V30 3009 C 269.957 3.3639 -0.185305 0
M  V30 3010 O 270.487 3.94699 0.746688 0
M  V30 3011 N 268.693 2.9046 -0.0901606 0
M  V30 3012 H 268.24 2.43193 -0.849416 0
M  V30 3013 H 268.198 3.04937 0.765553 0
M  V30 3014 N 271.97 1.30982 0.876444 0
M  V30 3015 C 272.9 1.20668 1.99903 0
M  V30 3016 C 273.881 0.095354 1.69833 0
M  V30 3017 O 275.066 0.27885 1.92188 0
M  V30 3018 C 272.196 0.90655 3.3526 0
M  V30 3019 C 271.15 1.97675 3.79617 0
M  V30 3020 C 270.476 1.52943 5.1236 0
M  V30 3021 C 271.776 3.389 3.97422 0
M  V30 3022 H 273.47 2.14586 2.0879 0
M  V30 3023 H 271.016 1.03308 1.00317 0
M  V30 3024 H 272.969 0.821025 4.13324 0
M  V30 3025 H 271.693 -0.0682969 3.26529 0
M  V30 3026 H 270.352 2.05205 3.03787 0
M  V30 3027 H 270 0.54262 5.00065 0
M  V30 3028 H 269.7 2.24532 5.43009 0
M  V30 3029 H 271.224 1.45786 5.92941 0
M  V30 3030 H 272.638 3.34081 4.659 0
M  V30 3031 H 271.035 4.0865 4.3946 0
M  V30 3032 H 272.105 3.80163 3.01006 0
M  V30 3033 N 273.449 -1.08991 1.13837 0
M  V30 3034 C 274.412 -2.13925 0.822715 0
M  V30 3035 C 275.412 -1.599 -0.1699 0
M  V30 3036 O 276.602 -1.74104 0.0577251 0
M  V30 3037 C 273.734 -3.40155 0.225318 0
M  V30 3038 H 274.927 -2.43358 1.75262 0
M  V30 3039 H 272.48 -1.24603 0.943594 0
M  V30 3040 H 273.215 -3.16352 -0.713594 0
M  V30 3041 H 273 -3.80661 0.940193 0
M  V30 3042 H 274.49 -4.17594 0.0214784 0
M  V30 3043 N 274.927 -0.932562 -1.27047 0
M  V30 3044 C 276.204 -0.49377 -1.89265 0
M  V30 3045 C 276.584 1.02833 -1.8436 0
M  V30 3046 O 275.932 1.88461 -1.29209 0
M  V30 3047 C 276.142 -1.04536 -3.32976 0
M  V30 3048 C 277.49 -1.10879 -4.09867 0
M  V30 3049 O 278.514 -0.995327 -3.42011 0
M  V30 3050 O 277.373 -1.28417 -5.31198 0
M  V30 3051 H 274.467 -0.159596 -0.811454 0
M  V30 3052 H 277.013 -1.02457 -1.3528 0
M  V30 3053 H 275.785 -2.08913 -3.30864 0
M  V30 3054 H 275.408 -0.496494 -3.94488 0
M  V30 3055 N 276.405 1.4127 -0.698611 0
M  V30 3056 C 277.654 2.00408 -0.227949 0
M  V30 3057 C 277.967 1.55981 1.18023 0
M  V30 3058 O 279.173 2.07699 1.74852 0
M  V30 3059 C 277.629 3.58129 -0.356636 0
M  V30 3060 C 277.237 4.11536 -1.77037 0
M  V30 3061 C 278.981 4.24466 0.0540969 0
M  V30 3062 C 276.888 5.61701 -1.85055 0
M  V30 3063 H 275.818 0.749586 -0.0814657 0
M  V30 3064 H 278.469 1.61713 -0.867249 0
M  V30 3065 H 276.851 3.94442 0.350965 0
M  V30 3066 H 278.025 3.86636 -2.50698 0
M  V30 3067 H 276.34 3.57736 -2.13105 0
M  V30 3068 H 278.937 5.34698 0.0146723 0
M  V30 3069 H 279.28 4.01687 1.09332 0
M  V30 3070 H 279.813 3.93198 -0.603337 0
M  V30 3071 H 276.552 5.89312 -2.8704 0
M  V30 3072 H 276.072 5.88519 -1.15783 0
M  V30 3073 H 277.751 6.26524 -1.61484 0
M  V30 3074 N 277.883 0.443576 1.51229 0
M  V30 3075 C 279.16 -0.181038 1.9476 0
M  V30 3076 C 279.54 -1.59523 1.38259 0
M  V30 3077 O 278.888 -2.2122 0.572198 0
M  V30 3078 C 279.098 -0.152422 3.48667 0
M  V30 3079 C 280.446 -0.354923 4.23114 0
M  V30 3080 O 281.47 -0.230257 3.55455 0
M  V30 3081 O 280.329 -0.603674 5.43156 0
M  V30 3082 H 277.423 -0.1266 0.817252 0
M  V30 3083 H 279.969 0.502004 1.62105 0
M  V30 3084 H 278.741 0.836022 3.82265 0
M  V30 3085 H 278.364 -0.878107 3.87782 0
M  V30 3086 N 279.361 -1.56624 0.175154 0
M  V30 3087 C 280.638 -1.88688 -0.515373 0
M  V30 3088 C 281.018 -1.08564 -1.81044 0
M  V30 3089 O 280.366 -0.180703 -2.27784 0
M  V30 3090 C 280.576 -3.40768 -0.753552 0
M  V30 3091 C 281.924 -4.10587 -1.08184 0
M  V30 3092 O 282.948 -3.46106 -0.841961 0
M  V30 3093 O 281.807 -5.24512 -1.53459 0
M  V30 3094 H 278.901 -0.78301 -0.26613 0
M  V30 3095 H 281.447 -1.68347 0.213877 0
M  V30 3096 H 280.219 -3.90965 0.161829 0
M  V30 3097 H 279.842 -3.66733 -1.53598 0
M  V30 3098 N 280.839 0.0985539 -1.57292 0
M  V30 3099 C 282.116 0.834155 -1.76921 0
M  V30 3100 C 282.496 1.97101 -0.755928 0
M  V30 3101 O 281.844 2.27474 0.216245 0
M  V30 3102 C 282.054 1.33194 -3.22584 0
M  V30 3103 C 283.402 1.77611 -3.85668 0
M  V30 3104 O 284.426 1.42825 -3.26312 0
M  V30 3105 O 283.285 2.4192 -4.90038 0
M  V30 3106 H 280.379 0.397628 -0.725135 0
M  V30 3107 H 282.925 0.0807044 -1.69508 0
M  V30 3108 H 281.697 0.517248 -3.87866 0
M  V30 3109 H 281.32 2.1475 -3.34616 0
M  V30 3110 N 282.317 1.53212 0.369288 0
M  V30 3111 C 283.547 1.72868 1.13139 0
M  V30 3112 C 283.955 0.455754 1.83629 0
M  V30 3113 O 283.298 -0.580861 1.74275 0
M  V30 3114 C 283.36 2.83667 2.20847 0
M  V30 3115 C 283.024 4.24142 1.70155 0
M  V30 3116 C 284.021 5.06619 1.16763 0
M  V30 3117 C 281.706 4.70539 1.7578 0
M  V30 3118 C 283.7 6.33581 0.696678 0
M  V30 3119 C 281.387 5.97481 1.28297 0
M  V30 3120 C 282.385 6.78833 0.753307 0
M  V30 3121 O 282.073 8.03393 0.285475 0
M  V30 3122 H 281.805 0.581707 0.344373 0
M  V30 3123 H 284.359 2.00736 0.435243 0
M  V30 3124 H 282.589 2.51265 2.93944 0
M  V30 3125 H 284.278 2.91536 2.82421 0
M  V30 3126 H 285.044 4.71948 1.11758 0
M  V30 3127 H 280.923 4.07293 2.15949 0
M  V30 3128 H 284.467 6.97027 0.282581 0
M  V30 3129 H 280.364 6.31651 1.32994 0
M  V30 3130 H 281.132 8.17497 0.405145 0
M  V30 3131 N 283.795 -0.628877 1.44509 0
M  V30 3132 C 285.044 -1.38437 1.4669 0
M  V30 3133 C 285.357 -1.95322 0.104272 0
M  V30 3134 O 286.563 -2.715 0.00362163 0
M  V30 3135 C 285.019 -2.50659 2.5826 0
M  V30 3136 C 284.627 -2.00277 4.0074 0
M  V30 3137 C 286.371 -3.27844 2.69664 0
M  V30 3138 C 284.278 -3.09854 5.0373 0
M  V30 3139 H 283.208 -0.520245 0.545766 0
M  V30 3140 H 285.859 -0.676313 1.70582 0
M  V30 3141 H 284.241 -3.2405 2.27612 0
M  V30 3142 H 285.415 -1.33736 4.40966 0
M  V30 3143 H 283.73 -1.35901 3.93599 0
M  V30 3144 H 286.327 -4.09534 3.43781 0
M  V30 3145 H 286.67 -3.77471 1.75559 0
M  V30 3146 H 287.203 -2.61543 2.99733 0
M  V30 3147 H 283.942 -2.65168 5.99472 0
M  V30 3148 H 283.462 -3.7503 4.68095 0
M  V30 3149 H 285.141 -3.74592 5.27532 0
M  V30 3150 N 285.273 -1.31445 -0.869486 0
M  V30 3151 C 286.519 -1.21337 -1.62496 0
M  V30 3152 C 286.852 0.227872 -1.92858 0
M  V30 3153 O 286.127 1.16094 -1.56053 0
M  V30 3154 C 286.41 -2.05814 -2.95487 0
M  V30 3155 C 286.263 -3.5824 -2.72 0
M  V30 3156 C 287.582 -1.9079 -3.96594 0
M  V30 3157 H 284.701 -0.442135 -0.589649 0
M  V30 3158 H 287.343 -1.6124 -1.00507 0
M  V30 3159 H 285.493 -1.71913 -3.48394 0
M  V30 3160 H 287.165 -4.0228 -2.25762 0
M  V30 3161 H 285.408 -3.81647 -2.06224 0
M  V30 3162 H 286.079 -4.12657 -3.66631 0
M  V30 3163 H 288.555 -2.20459 -3.52898 0
M  V30 3164 H 287.431 -2.52199 -4.87531 0
M  V30 3165 H 287.692 -0.871341 -4.33428 0
M  V30 3166 N 286.751 1.08385 -1.14413 0
M  V30 3167 C 287.981 1.8425 -0.934644 0
M  V30 3168 C 288.389 1.81907 0.520234 0
M  V30 3169 O 287.732 1.22126 1.37226 0
M  V30 3170 C 287.794 3.32853 -1.35828 0
M  V30 3171 C 287.458 3.5893 -2.82875 0
M  V30 3172 C 288.455 3.53756 -3.80989 0
M  V30 3173 C 286.14 3.86934 -3.20293 0
M  V30 3174 C 288.134 3.76216 -5.14529 0
M  V30 3175 C 285.821 4.09047 -4.54008 0
M  V30 3176 C 286.819 4.03682 -5.50936 0
M  V30 3177 O 286.507 4.25214 -6.82238 0
M  V30 3178 H 286.239 0.588502 -0.332628 0
M  V30 3179 H 288.793 1.37792 -1.52324 0
M  V30 3180 H 287.023 3.8007 -0.713019 0
M  V30 3181 H 288.712 3.90154 -1.11957 0
M  V30 3182 H 289.478 3.32135 -3.53428 0
M  V30 3183 H 285.357 3.9023 -2.45442 0
M  V30 3184 H 288.901 3.71943 -5.90173 0
M  V30 3185 H 284.798 4.30151 -4.8129 0
M  V30 3186 H 285.566 4.42619 -6.88499 0
M  V30 3187 N 288.23 0.939286 1.26551 0
M  V30 3188 C 289.178 0.43815 2.28436 0
M  V30 3189 C 290.172 -0.483587 1.62351 0
M  V30 3190 O 291.378 -0.362009 1.76322 0
M  V30 3191 H 287.753 0.123149 0.741848 0
M  V30 3192 H 289.724 1.31002 2.68106 0
M  V30 3193 C 288.473 -0.283052 3.46546 0
M  V30 3194 H 287.796 0.417043 3.97619 0
M  V30 3195 H 289.236 -0.597948 4.19763 0
M  V30 3196 C 287.695 -1.50018 3.01656 0
M  V30 3197 O 288.225 -2.59855 3.0633 0
M  V30 3198 N 286.431 -1.35608 2.57019 0
M  V30 3199 H 285.978 -0.46244 2.53415 0
M  V30 3200 H 285.936 -2.17165 2.27347 0
M  V30 3201 N 289.708 -1.40897 0.706093 0
M  V30 3202 C 290.955 -2.01054 0.241531 0
M  V30 3203 C 291.283 -1.55956 -1.16223 0
M  V30 3204 O 290.538 -0.766336 -1.80072 0
M  V30 3205 C 290.837 -3.5646 0.259099 0
M  V30 3206 C 290.503 -4.21106 1.61184 0
M  V30 3207 C 289.165 -4.38479 1.98216 0
M  V30 3208 C 291.517 -4.57256 2.50132 0
M  V30 3209 C 288.845 -4.89282 3.2376 0
M  V30 3210 C 291.197 -5.09454 3.7502 0
M  V30 3211 C 289.861 -5.25037 4.12181 0
M  V30 3212 H 289.131 -0.73571 0.0883825 0
M  V30 3213 H 291.778 -1.68645 0.907257 0
M  V30 3214 H 290.083 -3.88721 -0.490189 0
M  V30 3215 H 291.78 -4.00826 -0.11804 0
M  V30 3216 H 288.37 -4.07966 1.31384 0
M  V30 3217 H 292.554 -4.43479 2.228 0
M  V30 3218 H 287.81 -4.99531 3.52532 0
M  V30 3219 H 291.984 -5.36404 4.44121 0
M  V30 3220 H 289.611 -5.64164 5.09532 0
M  V30 3221 N 291.186 -0.45159 -1.50991 0
M  V30 3222 C 292.136 0.370861 -2.24964 0
M  V30 3223 C 293.12 0.978074 -1.2776 0
M  V30 3224 O 294.312 0.893854 -1.52772 0
M  V30 3225 C 291.441 1.46344 -3.10545 0
M  V30 3226 C 290.527 0.864924 -4.15187 0
M  V30 3227 N 290.918 -0.00311354 -5.058 0
M  V30 3228 C 289.216 1.13099 -4.31422 0
M  V30 3229 C 289.917 -0.340772 -5.80701 0
M  V30 3230 N 288.893 0.279203 -5.42883 0
M  V30 3231 H 292.695 -0.298134 -2.92384 0
M  V30 3232 H 290.209 -0.264528 -1.60231 0
M  V30 3233 H 292.206 2.06565 -3.62128 0
M  V30 3234 H 290.866 2.13463 -2.4467 0
M  V30 3235 H 291.877 -0.37058 -5.16572 0
M  V30 3236 H 288.554 1.79861 -3.76771 0
M  V30 3237 H 289.944 -1.048 -6.63677 0
M  V30 3238 N 292.664 1.56529 -0.183458 0
M  V30 3239 C 293.911 1.97244 0.458357 0
M  V30 3240 C 294.239 1.06992 1.62428 0
M  V30 3241 O 293.494 0.106542 1.9541 0
M  V30 3242 C 293.793 3.43939 0.971637 0
M  V30 3243 C 293.459 4.5083 -0.0796784 0
M  V30 3244 C 292.121 4.79786 -0.368584 0
M  V30 3245 C 294.473 5.15138 -0.792638 0
M  V30 3246 C 291.801 5.70345 -1.37563 0
M  V30 3247 C 294.153 6.06784 -1.78875 0
M  V30 3248 C 292.817 6.34102 -2.08497 0
M  V30 3249 H 292.087 0.721768 0.167725 0
M  V30 3250 H 294.734 1.89472 -0.277976 0
M  V30 3251 H 293.039 3.48724 1.78602 0
M  V30 3252 H 294.736 3.72791 1.47744 0
M  V30 3253 H 291.326 4.28317 0.155668 0
M  V30 3254 H 295.51 4.92868 -0.582659 0
M  V30 3255 H 290.766 5.89789 -1.61118 0
M  V30 3256 H 294.94 6.55677 -2.3465 0
M  V30 3257 H 292.567 7.04074 -2.86678 0
M  V30 3258 N 294.142 -0.090211 1.57342 0
M  V30 3259 C 295.372 -0.805055 1.90269 0
M  V30 3260 C 295.78 -1.72561 0.775842 0
M  V30 3261 O 295.123 -1.81839 -0.260843 0
M  V30 3262 C 295.185 -1.66734 3.18497 0
M  V30 3263 C 294.849 -0.918092 4.47683 0
M  V30 3264 C 295.846 -0.245674 5.19319 0
M  V30 3265 C 293.531 -0.890724 4.94339 0
M  V30 3266 C 295.525 0.444088 6.35851 0
M  V30 3267 C 293.212 -0.197179 6.10782 0
M  V30 3268 C 294.21 0.469044 6.81388 0
M  V30 3269 O 293.898 1.15146 7.95611 0
M  V30 3270 H 293.63 -0.235143 0.633785 0
M  V30 3271 H 296.184 -0.0703805 2.05279 0
M  V30 3272 H 294.414 -2.44437 2.99646 0
M  V30 3273 H 296.103 -2.25919 3.37217 0
M  V30 3274 H 296.869 -0.258246 4.84312 0
M  V30 3275 H 292.748 -1.39873 4.39268 0
M  V30 3276 H 296.292 0.964667 6.90898 0
M  V30 3277 H 292.189 -0.18247 6.45242 0
M  V30 3278 H 292.957 1.05885 8.11622 0
M  V30 3279 N 295.62 -1.53406 -0.361157 0
M  V30 3280 C 296.568 -1.80832 -1.46296 0
M  V30 3281 C 297.562 -0.677699 -1.55253 0
M  V30 3282 O 298.768 -0.860723 -1.58087 0
M  V30 3283 H 295.143 -0.572627 -0.487445 0
M  V30 3284 H 297.114 -2.73045 -1.20371 0
M  V30 3285 C 295.863 -2.01907 -2.8307 0
M  V30 3286 H 295.186 -2.88349 -2.76938 0
M  V30 3287 H 296.626 -2.25072 -3.59331 0
M  V30 3288 C 295.085 -0.799449 -3.27277 0
M  V30 3289 O 295.615 0.00971761 -4.01699 0
M  V30 3290 N 293.821 -0.621637 -2.83873 0
M  V30 3291 H 293.368 -1.28126 -2.23476 0
M  V30 3292 H 293.326 0.19298 -3.13807 0
M  V30 3293 N 297.098 0.621204 -1.44841 0
M  V30 3294 C 298.509 1.20298 -1.42777 0
M  V30 3295 C 298.86 1.95639 -0.148259 0
M  V30 3296 O 297.985 2.02955 0.750892 0
M  V30 3297 C 298.58 2.1882 -2.58657 0
M  V30 3298 C 297.139 2.72403 -2.59756 0
M  V30 3299 C 296.286 1.4757 -2.34773 0
M  V30 3300 H 299.237 0.411297 -1.53278 0
M  V30 3301 H 299.258 3.01607 -2.31977 0
M  V30 3302 H 298.77 1.63957 -3.51766 0
M  V30 3303 H 296.871 3.31242 -1.70615 0
M  V30 3304 H 296.984 3.17765 -3.58556 0
M  V30 3305 H 295.348 1.76051 -1.8406 0
M  V30 3306 H 296.131 0.945954 -3.3001 0
M  V30 3307 N 298.576 1.31904 0.862503 0
M  V30 3308 C 299.823 1.22017 1.61611 0
M  V30 3309 C 300.151 -0.21991 1.93253 0
M  V30 3310 O 299.406 -1.17076 1.56817 0
M  V30 3311 C 299.705 2.01713 2.95037 0
M  V30 3312 C 299.371 3.51145 2.82857 0
M  V30 3313 C 298.033 3.91889 2.79243 0
M  V30 3314 C 300.385 4.46204 2.69353 0
M  V30 3315 C 297.713 5.25947 2.59993 0
M  V30 3316 C 300.065 5.80397 2.5164 0
M  V30 3317 C 298.729 6.20352 2.46413 0
M  V30 3318 H 297.999 0.44649 0.591378 0
M  V30 3319 H 300.646 1.63248 1.00111 0
M  V30 3320 H 298.951 1.53185 3.60613 0
M  V30 3321 H 300.648 1.91437 3.52353 0
M  V30 3322 H 297.238 3.1878 2.86491 0
M  V30 3323 H 301.422 4.15652 2.71196 0
M  V30 3324 H 296.678 5.5597 2.54376 0
M  V30 3325 H 300.852 6.53676 2.40169 0
M  V30 3326 H 298.479 7.24172 2.31256 0
M  V30 3327 N 300.054 -1.07777 1.14986 0
M  V30 3328 C 301.301 -1.8029 0.922056 0
M  V30 3329 C 301.629 -1.86531 -0.55105 0
M  V30 3330 O 300.884 -1.34189 -1.42449 0
M  V30 3331 C 301.183 -3.25495 1.47608 0
M  V30 3332 C 300.849 -3.39361 2.96893 0
M  V30 3333 C 299.511 -3.42852 3.37647 0
M  V30 3334 C 301.863 -3.42512 3.92854 0
M  V30 3335 C 299.191 -3.47094 4.73015 0
M  V30 3336 C 301.543 -3.4829 5.28088 0
M  V30 3337 C 300.207 -3.50058 5.68345 0
M  V30 3338 H 299.477 -0.659727 0.337404 0
M  V30 3339 H 302.124 -1.26854 1.43459 0
M  V30 3340 H 300.429 -3.81683 0.88463 0
M  V30 3341 H 302.126 -3.80168 1.27568 0
M  V30 3342 H 298.716 -3.37339 2.64387 0
M  V30 3343 H 302.9 -3.3904 3.62444 0
M  V30 3344 H 298.156 -3.46758 5.03556 0
M  V30 3345 H 302.33 -3.49675 6.02246 0
M  V30 3346 H 299.957 -3.53097 6.73221 0
M  V30 3347 N 301.532 -0.945985 -1.26051 0
M  V30 3348 C 302.779 -0.596118 -1.93527 0
M  V30 3349 C 303.107 0.865559 -1.74179 0
M  V30 3350 O 302.362 1.63524 -1.0751 0
M  V30 3351 C 302.661 -0.890475 -3.46129 0
M  V30 3352 C 302.327 -2.3368 -3.85622 0
M  V30 3353 C 300.989 -2.73216 -3.96114 0
M  V30 3354 C 303.341 -3.27648 -4.05334 0
M  V30 3355 C 300.669 -4.05806 -4.2372 0
M  V30 3356 C 303.021 -4.59841 -4.3443 0
M  V30 3357 C 301.685 -4.99185 -4.43137 0
M  V30 3358 H 300.955 -0.218135 -0.708165 0
M  V30 3359 H 303.602 -1.1934 -1.49768 0
M  V30 3360 H 301.907 -0.210711 -3.91233 0
M  V30 3361 H 303.604 -0.598478 -3.96509 0
M  V30 3362 H 300.194 -2.02015 -3.78005 0
M  V30 3363 H 304.378 -2.98298 -3.96651 0
M  V30 3364 H 299.634 -4.35945 -4.28675 0
M  V30 3365 H 303.808 -5.32641 -4.48628 0
M  V30 3366 H 301.435 -6.01952 -4.64282 0
M  V30 3367 N 303.011 1.40521 -0.713556 0
M  V30 3368 C 304.239 2.05237 -0.261775 0
M  V30 3369 C 304.654 1.53755 1.09567 0
M  V30 3370 O 304.011 0.693268 1.6882 0
M  V30 3371 C 304.062 3.60763 -0.230706 0
M  V30 3372 O 303.783 4.10345 -1.53455 0
M  V30 3373 C 305.284 4.42651 0.239874 0
M  V30 3374 H 302.504 0.660533 -0.118057 0
M  V30 3375 H 305.048 1.79967 -0.971192 0
M  V30 3376 H 303.203 3.8501 0.429661 0
M  V30 3377 H 303.617 5.04526 -1.43366 0
M  V30 3378 H 305.091 5.51599 0.210468 0
M  V30 3379 H 305.568 4.20082 1.28171 0
M  V30 3380 H 306.174 4.23507 -0.390142 0
M  V30 3381 N 304.489 0.459591 1.5075 0
M  V30 3382 C 305.439 -0.358926 2.25157 0
M  V30 3383 C 306.423 -0.971285 1.28276 0
M  V30 3384 O 307.615 -0.885739 1.53244 0
M  V30 3385 C 304.744 -1.44695 3.11317 0
M  V30 3386 C 303.83 -0.842894 4.15639 0
M  V30 3387 N 304.221 0.0299373 5.05791 0
M  V30 3388 C 302.519 -1.10809 4.32015 0
M  V30 3389 C 303.22 0.371563 5.80512 0
M  V30 3390 N 302.196 -0.250409 5.43023 0
M  V30 3391 H 305.998 0.313636 2.92222 0
M  V30 3392 H 303.512 0.273021 1.60089 0
M  V30 3393 H 305.509 -2.04641 3.63218 0
M  V30 3394 H 304.169 -2.12162 2.45799 0
M  V30 3395 H 305.18 0.39797 5.16369 0
M  V30 3396 H 301.857 -1.7786 3.77719 0
M  V30 3397 H 303.247 1.08319 6.63111 0
M  V30 3398 N 305.967 -1.56429 0.191757 0
M  V30 3399 C 306.899 -2.16154 -0.762245 0
M  V30 3400 C 307.912 -1.12247 -1.17917 0
M  V30 3401 O 309.101 -1.39353 -1.11548 0
M  V30 3402 C 306.201 -2.70606 -2.04024 0
M  V30 3403 C 305.374 -3.99381 -1.78364 0
M  V30 3404 C 304.433 -4.38692 -2.90578 0
M  V30 3405 O 303.459 -5.06179 -2.6033 0
M  V30 3406 N 304.661 -4.01922 -4.18854 0
M  V30 3407 H 307.426 -2.98643 -0.251526 0
M  V30 3408 H 304.987 -1.61897 0.00967373 0
M  V30 3409 H 306.979 -2.93891 -2.78227 0
M  V30 3410 H 305.549 -1.9259 -2.46227 0
M  V30 3411 H 304.769 -3.84262 -0.879581 0
M  V30 3412 H 306.057 -4.83445 -1.58614 0
M  V30 3413 H 305.455 -3.47631 -4.46283 0
M  V30 3414 H 304.012 -4.30165 -4.89695 0
M  V30 3415 N 307.445 0.0818655 -1.57387 0
M  V30 3416 C 308.392 1.09834 -2.0299 0
M  V30 3417 C 309.362 1.39043 -0.908639 0
M  V30 3418 O 310.547 1.50282 -1.17559 0
M  V30 3419 C 307.687 2.40971 -2.47037 0
M  V30 3420 C 306.8 2.18379 -3.7274 0
M  V30 3421 C 305.935 3.43008 -4.0561 0
M  V30 3422 C 304.974 3.15736 -5.24383 0
M  V30 3423 N 304.111 4.32667 -5.52941 0
M  V30 3424 H 308.951 0.702472 -2.89602 0
M  V30 3425 H 306.488 0.33531 -1.43227 0
M  V30 3426 H 308.446 3.1752 -2.70623 0
M  V30 3427 H 307.076 2.78379 -1.63417 0
M  V30 3428 H 306.128 1.32569 -3.56552 0
M  V30 3429 H 307.44 1.94227 -4.59431 0
M  V30 3430 H 306.594 4.27958 -4.30043 0
M  V30 3431 H 305.333 3.70225 -3.17466 0
M  V30 3432 H 304.338 2.2918 -4.99757 0
M  V30 3433 H 305.563 2.8985 -6.14136 0
M  V30 3434 H 303.509 4.59935 -4.67756 0
M  V30 3435 H 303.426 4.11753 -6.34031 0
M  V30 3436 H 304.694 5.18644 -5.81918 0
M  V30 3437 N 308.923 1.53595 0.353017 0
M  V30 3438 C 309.886 1.80232 1.41594 0
M  V30 3439 C 310.886 0.673081 1.46035 0
M  V30 3440 O 312.076 0.941335 1.46576 0
M  V30 3441 C 309.208 1.93578 2.80607 0
M  V30 3442 H 310.401 2.75174 1.19244 0
M  V30 3443 H 307.954 1.44864 0.586872 0
M  V30 3444 H 308.689 1.00746 3.08254 0
M  V30 3445 H 308.474 2.75724 2.78781 0
M  V30 3446 H 309.964 2.15735 3.57558 0
M  V30 3447 N 310.401 -0.613514 1.45168 0
M  V30 3448 C 311.351 -1.71871 1.49815 0
M  V30 3449 C 312.335 -1.56774 0.362021 0
M  V30 3450 O 313.527 -1.66212 0.608493 0
M  V30 3451 C 310.656 -3.1061 1.46207 0
M  V30 3452 C 309.742 -3.31114 2.64999 0
M  V30 3453 N 310.133 -3.21904 3.90143 0
M  V30 3454 C 308.431 -3.61966 2.6057 0
M  V30 3455 C 309.132 -3.43577 4.69393 0
M  V30 3456 N 308.108 -3.67287 4.00751 0
M  V30 3457 H 311.91 -1.63235 2.444 0
M  V30 3458 H 309.424 -0.816577 1.40377 0
M  V30 3459 H 311.421 -3.8989 1.4762 0
M  V30 3460 H 310.081 -3.20399 0.52673 0
M  V30 3461 H 311.092 -3.00436 4.21852 0
M  V30 3462 H 307.769 -3.78629 1.75916 0
M  V30 3463 H 309.159 -3.41901 5.78406 0
M  V30 3464 N 311.879 -1.3236 -0.855495 0
M  V30 3465 C 313.125 -1.24064 -1.61182 0
M  V30 3466 C 313.48 0.195914 -1.914 0
M  V30 3467 O 312.773 1.13345 -1.54478 0
M  V30 3468 C 312.967 -2.03275 -2.93963 0
M  V30 3469 C 312.796 -3.54486 -2.76712 0
M  V30 3470 C 311.566 -4.23824 -2.75139 0
M  V30 3471 C 313.764 -4.49154 -2.50531 0
M  V30 3472 N 311.746 -5.61095 -2.4909 0
M  V30 3473 C 313.117 -5.74195 -2.3388 0
M  V30 3474 C 315.172 -4.3842 -2.35992 0
M  V30 3475 C 313.875 -6.89716 -2.04168 0
M  V30 3476 C 315.901 -5.53739 -2.0767 0
M  V30 3477 C 315.263 -6.77779 -1.9182 0
M  V30 3478 H 311.362 -0.509139 -0.59355 0
M  V30 3479 H 313.946 -1.66715 -1.00569 0
M  V30 3480 H 312.117 -1.6297 -3.52555 0
M  V30 3481 H 313.849 -1.86881 -3.58967 0
M  V30 3482 H 310.604 -3.75934 -2.88047 0
M  V30 3483 H 311.028 -6.33411 -2.38996 0
M  V30 3484 H 315.67 -3.43172 -2.46967 0
M  V30 3485 H 313.388 -7.84977 -1.9193 0
M  V30 3486 H 316.974 -5.4736 -1.97201 0
M  V30 3487 H 315.854 -7.65504 -1.70217 0
M  V30 3488 N 313.357 1.07166 -1.15556 0
M  V30 3489 C 314.582 1.84053 -0.955988 0
M  V30 3490 C 315.007 1.81586 0.490739 0
M  V30 3491 O 314.365 1.21018 1.34997 0
M  V30 3492 C 314.413 3.28957 -1.47714 0
M  V30 3493 O 313.517 4.06795 -0.677593 0
M  V30 3494 H 312.858 0.569842 -0.340847 0
M  V30 3495 H 315.388 1.35178 -1.53584 0
M  V30 3496 H 315.398 3.79788 -1.4908 0
M  V30 3497 H 314.073 3.30068 -2.53037 0
M  V30 3498 H 312.65 3.6561 -0.733721 0
M  V30 3499 N 314.835 0.952656 1.25548 0
M  V30 3500 C 315.745 0.47782 2.29682 0
M  V30 3501 C 316.761 -0.453859 1.67977 0
M  V30 3502 O 317.937 -0.330587 1.98668 0
M  V30 3503 C 315.002 -0.238655 3.45878 0
M  V30 3504 C 314.063 0.730994 4.23031 0
M  V30 3505 C 313.296 0.0486165 5.33678 0
M  V30 3506 O 313.519 -1.16612 5.58353 0
M  V30 3507 O 312.453 0.733152 5.97418 0
M  V30 3508 H 316.279 1.34312 2.72386 0
M  V30 3509 H 313.864 0.719026 1.30959 0
M  V30 3510 H 315.746 -0.641774 4.16484 0
M  V30 3511 H 314.421 -1.07916 3.05181 0
M  V30 3512 H 313.328 1.18428 3.5486 0
M  V30 3513 H 314.661 1.53946 4.67506 0
M  V30 3514 N 316.313 -1.40141 0.720998 0
M  V30 3515 C 317.538 -2.05618 0.271258 0
M  V30 3516 C 317.963 -1.53978 -1.08039 0
M  V30 3517 O 317.321 -0.677463 -1.68167 0
M  V30 3518 C 317.369 -3.59609 0.267197 0
M  V30 3519 O 316.473 -4.05526 -0.749814 0
M  V30 3520 H 315.814 -0.651904 0.126162 0
M  V30 3521 H 318.344 -1.79439 0.982997 0
M  V30 3522 H 318.354 -4.0786 0.106744 0
M  V30 3523 H 317.029 -3.96559 1.25354 0
M  V30 3524 H 315.606 -3.68722 -0.556644 0
M  V30 3525 N 317.792 -0.46758 -1.50504 0
M  V30 3526 C 318.755 0.317059 -2.26996 0
M  V30 3527 C 319.755 0.923513 -1.31635 0
M  V30 3528 O 320.945 0.793239 -1.55091 0
M  V30 3529 C 318.077 1.45134 -3.08462 0
M  V30 3530 H 319.27 -0.353723 -2.97807 0
M  V30 3531 H 316.823 -0.221545 -1.54722 0
M  V30 3532 H 317.558 2.15728 -2.4214 0
M  V30 3533 H 317.343 1.02232 -3.78538 0
M  V30 3534 H 318.833 2.00493 -3.66323 0
M  V30 3535 N 319.27 1.56325 -0.20005 0
M  V30 3536 C 320.203 2.15234 0.758267 0
M  V30 3537 C 321.181 1.09046 1.20614 0
M  V30 3538 O 322.365 1.37186 1.29276 0
M  V30 3539 C 319.492 2.71524 2.02466 0
M  V30 3540 C 318.538 3.90345 1.71852 0
M  V30 3541 S 319.371 5.28513 0.862249 0
M  V30 3542 C 320.527 5.88227 2.13868 0
M  V30 3543 H 320.76 2.96183 0.2575 0
M  V30 3544 H 318.293 1.54393 0.0150099 0
M  V30 3545 H 320.251 3.04598 2.75191 0
M  V30 3546 H 318.912 1.90607 2.49655 0
M  V30 3547 H 318.105 4.28158 2.65888 0
M  V30 3548 H 317.707 3.58306 1.07205 0
M  V30 3549 H 319.999 6.02891 3.09076 0
M  V30 3550 H 320.942 6.84714 1.80479 0
M  V30 3551 H 321.35 5.16874 2.2694 0
M  V30 3552 N 320.748 -0.0735177 1.57428 0
M  V30 3553 C 321.711 -1.07192 2.02589 0
M  V30 3554 C 322.711 -1.31695 0.922661 0
M  V30 3555 O 323.901 -1.27445 1.18758 0
M  V30 3556 C 321.033 -2.41599 2.40506 0
M  V30 3557 H 322.226 -0.682727 2.92025 0
M  V30 3558 H 319.779 -0.319193 1.53006 0
M  V30 3559 H 320.514 -2.85354 1.5409 0
M  V30 3560 H 320.299 -2.25156 3.21009 0
M  V30 3561 H 321.789 -3.13367 2.76027 0
M  V30 3562 N 322.226 -1.5378 -0.344866 0
M  V30 3563 C 323.456 -1.74646 -1.10374 0
M  V30 3564 C 323.864 -0.48491 -1.8288 0
M  V30 3565 O 323.207 0.553062 -1.75177 0
M  V30 3566 C 323.269 -2.87145 -2.16306 0
M  V30 3567 C 322.933 -4.26795 -1.63386 0
M  V30 3568 C 323.93 -5.08412 -1.08688 0
M  V30 3569 C 321.615 -4.73276 -1.68272 0
M  V30 3570 C 323.609 -6.34609 -0.595792 0
M  V30 3571 C 321.296 -5.99446 -1.18776 0
M  V30 3572 C 322.294 -6.79946 -0.645215 0
M  V30 3573 O 321.982 -8.03745 -0.157626 0
M  V30 3574 H 321.714 -0.587112 -0.335075 0
M  V30 3575 H 324.268 -2.01403 -0.403252 0
M  V30 3576 H 322.498 -2.55909 -2.89909 0
M  V30 3577 H 324.187 -2.95992 -2.77747 0
M  V30 3578 H 324.953 -4.73666 -1.04236 0
M  V30 3579 H 320.832 -4.10677 -2.09442 0
M  V30 3580 H 324.376 -6.97389 -0.171654 0
M  V30 3581 H 320.273 -6.33687 -1.22928 0
M  V30 3582 H 321.041 -8.18038 -0.275037 0
M  V30 3583 N 323.704 0.605807 -1.45491 0
M  V30 3584 C 324.652 1.73754 -1.54636 0
M  V30 3585 C 325.646 1.64207 -0.416219 0
M  V30 3586 O 326.852 1.69979 -0.592199 0
M  V30 3587 H 323.227 0.574073 -0.485741 0
M  V30 3588 H 325.198 1.63169 -2.49837 0
M  V30 3589 C 323.947 3.12135 -1.53189 0
M  V30 3590 H 323.27 3.20141 -2.39478 0
M  V30 3591 H 324.71 3.91147 -1.63645 0
M  V30 3592 C 323.169 3.35921 -0.256616 0
M  V30 3593 O 323.699 3.96194 0.662798 0
M  V30 3594 N 321.905 2.90204 -0.151751 0
M  V30 3595 H 321.452 2.41336 -0.90081 0
M  V30 3596 H 321.41 3.06492 0.700699 0
M  V30 3597 N 325.182 1.32811 0.848464 0
M  V30 3598 C 326.598 1.11937 1.13764 0
M  V30 3599 C 326.798 -0.0960789 2.01271 0
M  V30 3600 O 325.854 -0.779165 2.40178 0
M  V30 3601 C 327.167 2.402 1.809 0
M  V30 3602 C 328.715 2.46016 1.93508 0
M  V30 3603 C 329.19 3.74215 2.64059 0
M  V30 3604 N 330.681 3.75232 2.71579 0
M  V30 3605 C 331.416 4.71134 3.26833 0
M  V30 3606 N 330.912 5.77406 3.8285 0
M  V30 3607 N 332.705 4.58623 3.24995 0
M  V30 3608 H 324.856 2.1073 0.265855 0
M  V30 3609 H 327.119 0.930671 0.180431 0
M  V30 3610 H 326.825 3.29093 1.24058 0
M  V30 3611 H 326.699 2.51628 2.81004 0
M  V30 3612 H 329.086 1.57577 2.49506 0
M  V30 3613 H 329.167 2.38536 0.923811 0
M  V30 3614 H 328.811 4.63031 2.08722 0
M  V30 3615 H 328.741 3.78968 3.65637 0
M  V30 3616 H 331.232 2.98423 2.31845 0
M  V30 3617 H 331.545 6.46632 4.23187 0
M  V30 3618 H 329.89 5.81152 3.81165 0
M  V30 3619 H 333.081 3.74762 2.80484 0
M  V30 3620 H 333.254 5.33535 3.67756 0
M  V30 3621 N 326.66 -1.06551 1.16123 0
M  V30 3622 C 327.888 -1.83005 0.965237 0
M  V30 3623 C 328.303 -1.82423 -0.486542 0
M  V30 3624 O 327.66 -1.24152 -1.33763 0
M  V30 3625 C 327.711 -3.29733 1.48183 0
M  V30 3626 O 327.432 -3.30416 2.87674 0
M  V30 3627 C 328.933 -4.22926 1.32848 0
M  V30 3628 H 326.153 -0.577118 0.342309 0
M  V30 3629 H 328.697 -1.3445 1.54089 0
M  V30 3630 H 326.852 -3.75609 0.948517 0
M  V30 3631 H 327.266 -4.22149 3.11272 0
M  V30 3632 H 328.74 -5.23916 1.73827 0
M  V30 3633 H 329.217 -4.38346 0.273692 0
M  V30 3634 H 329.823 -3.82894 1.85127 0
M  V30 3635 N 328.138 -0.959301 -1.25041 0
M  V30 3636 C 329.384 -0.617525 -1.9317 0
M  V30 3637 C 329.717 0.843981 -1.74902 0
M  V30 3638 O 328.992 1.60615 -1.09696 0
M  V30 3639 C 329.275 -0.982736 -3.46431 0
M  V30 3640 C 329.128 -2.50032 -3.73904 0
M  V30 3641 C 330.447 -0.511176 -4.37121 0
M  V30 3642 H 327.566 -0.22582 -0.701552 0
M  V30 3643 H 330.208 -1.19679 -1.4757 0
M  V30 3644 H 328.358 -0.489806 -3.854 0
M  V30 3645 H 330.03 -3.06737 -3.44544 0
M  V30 3646 H 328.273 -2.93598 -3.19348 0
M  V30 3647 H 328.944 -2.70635 -4.81103 0
M  V30 3648 H 331.42 -0.934075 -4.0548 0
M  V30 3649 H 330.296 -0.795361 -5.43107 0
M  V30 3650 H 330.557 0.588834 -4.38161 0
M  V30 3651 N 329.616 1.39756 -0.72842 0
M  V30 3652 C 330.563 2.30647 -0.0841519 0
M  V30 3653 C 331.533 1.48869 0.7367 0
M  V30 3654 O 332.718 1.77574 0.698015 0
M  V30 3655 C 329.858 3.35165 0.822091 0
M  V30 3656 C 328.971 4.31999 -0.0106663 0
M  V30 3657 C 328.106 5.23585 0.896241 0
M  V30 3658 C 327.145 6.12072 0.0583381 0
M  V30 3659 N 326.282 6.96035 0.920818 0
M  V30 3660 H 331.122 2.85173 -0.864891 0
M  V30 3661 H 328.659 1.40422 -0.438179 0
M  V30 3662 H 330.617 3.94345 1.36189 0
M  V30 3663 H 329.247 2.8211 1.56888 0
M  V30 3664 H 328.299 3.74492 -0.66781 0
M  V30 3665 H 329.611 4.9443 -0.658825 0
M  V30 3666 H 328.765 5.87759 1.50412 0
M  V30 3667 H 327.504 4.61459 1.57819 0
M  V30 3668 H 326.509 5.46916 -0.562389 0
M  V30 3669 H 327.734 6.76261 -0.6203 0
M  V30 3670 H 325.68 6.36485 1.58818 0
M  V30 3671 H 325.597 7.55284 0.32899 0
M  V30 3672 H 326.865 7.64646 1.51447 0
M  V30 3673 N 331.094 0.475555 1.50254 0
M  V30 3674 C 332.324 -0.0753399 2.06463 0
M  V30 3675 C 332.732 -1.33661 1.33908 0
M  V30 3676 O 332.075 -1.79219 0.403257 0
M  V30 3677 C 332.137 -0.424921 3.5698 0
M  V30 3678 C 331.801 0.734965 4.51051 0
M  V30 3679 C 332.798 1.61827 4.94073 0
M  V30 3680 C 330.483 0.926557 4.9368 0
M  V30 3681 C 332.477 2.67754 5.78434 0
M  V30 3682 C 330.164 1.98904 5.77824 0
M  V30 3683 C 331.162 2.8629 6.20103 0
M  V30 3684 O 330.85 3.90708 7.02568 0
M  V30 3685 H 330.582 0.00576308 0.675975 0
M  V30 3686 H 333.136 0.664662 1.94349 0
M  V30 3687 H 331.366 -1.21817 3.67012 0
M  V30 3688 H 333.055 -0.911422 3.95535 0
M  V30 3689 H 333.821 1.48196 4.61804 0
M  V30 3690 H 329.7 0.25584 4.6029 0
M  V30 3691 H 333.244 3.35992 6.11355 0
M  V30 3692 H 329.141 2.12541 6.09505 0
M  V30 3693 H 329.909 3.87751 7.20827 0
M  V30 3694 N 332.573 -1.56217 0.208337 0
M  V30 3695 C 333.984 -1.84243 -0.301904 0
M  V30 3696 C 334.335 -1.12939 -1.60434 0
M  V30 3697 O 333.46 -0.39461 -2.12772 0
M  V30 3698 C 334.055 -3.34231 -0.554543 0
M  V30 3699 C 332.614 -3.62621 -1.00912 0
M  V30 3700 C 331.761 -2.77224 -0.064933 0
M  V30 3701 H 334.712 -1.52712 0.431833 0
M  V30 3702 H 334.733 -3.5372 -1.40223 0
M  V30 3703 H 334.245 -3.86099 0.393561 0
M  V30 3704 H 332.346 -3.16197 -1.97104 0
M  V30 3705 H 332.459 -4.7071 -0.892674 0
M  V30 3706 H 330.823 -2.48256 -0.56929 0
M  V30 3707 H 331.606 -3.31887 0.877851 0
M  V30 3708 N 334.051 0.0651679 -1.57465 0
M  V30 3709 C 335.299 0.761555 -1.87202 0
M  V30 3710 C 335.62 1.77778 -0.801243 0
M  V30 3711 O 334.89 1.95166 0.16937 0
M  V30 3712 H 333.47 0.284251 -0.690804 0
M  V30 3713 H 336.132 0.0396827 -1.9486 0
M  V30 3714 H 335.228 1.27365 -2.84929 0
M  V30 3715 N 335.529 1.53961 0.336706 0
M  V30 3716 C 336.461 1.78751 1.4346 0
M  V30 3717 C 337.474 0.669019 1.48418 0
M  V30 3718 O 338.663 0.945884 1.51378 0
M  V30 3719 C 335.763 1.87844 2.82078 0
M  V30 3720 C 334.936 3.17854 3.00479 0
M  V30 3721 C 333.995 3.17816 4.19379 0
M  V30 3722 O 333.021 3.91511 4.13168 0
M  V30 3723 N 334.223 2.40669 5.2826 0
M  V30 3724 H 336.988 2.73493 1.22563 0
M  V30 3725 H 334.549 1.53096 0.526625 0
M  V30 3726 H 336.541 1.85261 3.59806 0
M  V30 3727 H 335.111 1.00257 2.96086 0
M  V30 3728 H 334.331 3.33504 2.10163 0
M  V30 3729 H 335.619 4.03718 3.0966 0
M  V30 3730 H 335.017 1.8036 5.36178 0
M  V30 3731 H 333.574 2.43877 6.04456 0
M  V30 3732 N 337.007 -0.598083 1.45811 0
M  V30 3733 C 338.237 -1.38121 1.53643 0
M  V30 3734 C 338.645 -1.88425 0.171081 0
M  V30 3735 O 337.988 -1.63409 -0.839237 0
M  V30 3736 C 338.05 -2.61432 2.46766 0
M  V30 3737 C 337.714 -2.32702 3.93318 0
M  V30 3738 C 338.711 -1.92479 4.82957 0
M  V30 3739 C 336.396 -2.45321 4.38318 0
M  V30 3740 C 338.39 -1.65248 6.15607 0
M  V30 3741 C 336.077 -2.17703 5.71007 0
M  V30 3742 C 337.075 -1.7773 6.5947 0
M  V30 3743 O 336.763 -1.50441 7.89698 0
M  V30 3744 H 336.495 -0.428863 0.522544 0
M  V30 3745 H 339.049 -0.73557 1.91777 0
M  V30 3746 H 337.279 -3.28749 2.0362 0
M  V30 3747 H 338.968 -3.23487 2.45175 0
M  V30 3748 H 339.734 -1.82258 4.49452 0
M  V30 3749 H 335.613 -2.75399 3.69697 0
M  V30 3750 H 339.157 -1.33973 6.84614 0
M  V30 3751 H 335.054 -2.27544 6.04065 0
M  V30 3752 H 335.822 -1.64415 8.01817 0
M  V30 3753 N 338.485 -1.33259 -0.841409 0
M  V30 3754 C 339.395 -1.25332 -1.98316 0
M  V30 3755 C 340.411 -0.164364 -1.73222 0
M  V30 3756 O 341.587 -0.387486 -1.97637 0
M  V30 3757 C 338.652 -0.990078 -3.32262 0
M  V30 3758 C 337.713 -2.16879 -3.70489 0
M  V30 3759 C 336.946 -1.91801 -4.98044 0
M  V30 3760 O 337.169 -0.867075 -5.63771 0
M  V30 3761 O 336.103 -2.78267 -5.33714 0
M  V30 3762 H 339.929 -2.21344 -2.07944 0
M  V30 3763 H 337.514 -1.1328 -0.974058 0
M  V30 3764 H 339.396 -0.860321 -4.12524 0
M  V30 3765 H 338.071 -0.0602155 -3.23644 0
M  V30 3766 H 336.978 -2.35407 -2.90748 0
M  V30 3767 H 338.311 -3.0819 -3.8377 0
M  V30 3768 N 339.963 1.05934 -1.16686 0
M  V30 3769 C 341.211 1.78447 -0.948744 0
M  V30 3770 C 341.532 1.87813 0.524523 0
M  V30 3771 O 340.802 1.38945 1.38098 0
M  V30 3772 H 339.382 0.660971 -0.348033 0
M  V30 3773 H 342.044 1.27947 -1.47022 0
M  V30 3774 H 341.14 2.80394 -1.37061 0
M  V30 3775 N 341.441 0.965919 1.2453 0
M  V30 3776 C 342.69 0.622437 1.91856 0
M  V30 3777 C 343.003 -0.846006 1.76358 0
M  V30 3778 O 344.209 -1.29993 2.38357 0
M  V30 3779 C 342.665 1.0626 3.43856 0
M  V30 3780 C 342.273 2.55437 3.68043 0
M  V30 3781 C 344.017 0.792183 4.17043 0
M  V30 3782 C 341.924 2.93196 5.13605 0
M  V30 3783 H 340.854 0.229092 0.718354 0
M  V30 3784 H 343.505 1.17189 1.41206 0
M  V30 3785 H 341.887 0.441476 3.93531 0
M  V30 3786 H 343.061 3.22665 3.28974 0
M  V30 3787 H 341.376 2.8007 3.08139 0
M  V30 3788 H 343.973 1.05031 5.24283 0
M  V30 3789 H 344.316 -0.271584 4.15413 0
M  V30 3790 H 344.849 1.37419 3.73311 0
M  V30 3791 H 341.588 3.98636 5.20355 0
M  V30 3792 H 341.108 2.30651 5.53679 0
M  V30 3793 H 342.787 2.83004 5.81823 0
M  V30 3794 N 342.919 -1.39368 0.735821 0
M  V30 3795 C 343.829 -2.34395 0.0979693 0
M  V30 3796 C 344.845 -1.58361 -0.720968 0
M  V30 3797 O 346.021 -1.90648 -0.649245 0
M  V30 3798 C 343.086 -3.37393 -0.797916 0
M  V30 3799 C 342.147 -4.29287 0.0333662 0
M  V30 3800 C 341.38 -5.27365 -0.819854 0
M  V30 3801 O 341.603 -5.31959 -2.05855 0
M  V30 3802 O 340.537 -6.01389 -0.248079 0
M  V30 3803 H 344.363 -2.90601 0.882315 0
M  V30 3804 H 341.948 -1.40909 0.4965 0
M  V30 3805 H 343.83 -4.00505 -1.31048 0
M  V30 3806 H 342.505 -2.83571 -1.56106 0
M  V30 3807 H 341.412 -3.69395 0.591475 0
M  V30 3808 H 342.745 -4.86317 0.758752 0
M  V30 3809 N 344.397 -0.483516 -1.5 0
M  V30 3810 C 345.307 0.309172 -2.32554 0
M  V30 3811 C 346.323 0.984159 -1.43493 0
M  V30 3812 O 347.499 0.969399 -1.76535 0
M  V30 3813 C 344.564 1.36979 -3.18493 0
M  V30 3814 C 343.625 0.710095 -4.23387 0
M  V30 3815 C 342.858 1.72018 -5.05218 0
M  V30 3816 O 343.081 2.94813 -4.88305 0
M  V30 3817 O 342.015 1.28515 -5.8802 0
M  V30 3818 H 345.841 -0.366064 -3.01486 0
M  V30 3819 H 343.426 -0.24514 -1.47375 0
M  V30 3820 H 345.308 1.98385 -3.71781 0
M  V30 3821 H 343.983 2.02828 -2.52275 0
M  V30 3822 H 342.89 0.0567539 -3.74057 0
M  V30 3823 H 344.223 0.0943557 -4.9211 0
M  V30 3824 N 345.875 1.56104 -0.216619 0
M  V30 3825 C 347.122 1.98172 0.416416 0
M  V30 3826 C 347.45 1.10413 1.60122 0
M  V30 3827 O 346.705 0.147967 1.9514 0
M  V30 3828 C 347.004 3.45923 0.898464 0
M  V30 3829 C 346.67 4.50559 -0.175288 0
M  V30 3830 C 345.332 4.78897 -0.470271 0
M  V30 3831 C 347.684 5.1334 -0.901728 0
M  V30 3832 C 345.012 5.67299 -1.4963 0
M  V30 3833 C 347.364 6.02853 -1.91705 0
M  V30 3834 C 346.028 6.29537 -2.21901 0
M  V30 3835 H 345.298 0.725164 0.152377 0
M  V30 3836 H 347.945 1.88839 -0.318103 0
M  V30 3837 H 346.25 3.52434 1.71165 0
M  V30 3838 H 347.947 3.75841 1.39803 0
M  V30 3839 H 344.537 4.28551 0.0647806 0
M  V30 3840 H 348.721 4.91521 -0.687072 0
M  V30 3841 H 343.977 5.86239 -1.73592 0
M  V30 3842 H 348.151 6.50552 -2.48505 0
M  V30 3843 H 345.778 6.97835 -3.01548 0
M  V30 3844 N 347.353 -0.0568162 1.57498 0
M  V30 3845 C 348.599 -0.75422 1.88253 0
M  V30 3846 C 348.932 -1.76461 0.810865 0
M  V30 3847 O 348.207 -1.93691 -0.177259 0
M  V30 3848 C 348.49 -1.44878 3.2967 0
M  V30 3849 C 348.343 -0.453789 4.47505 0
M  V30 3850 C 349.662 -2.38994 3.69554 0
M  V30 3851 H 346.781 -0.272724 0.684683 0
M  V30 3852 H 349.423 -0.0172113 1.89992 0
M  V30 3853 H 347.573 -2.077 3.28318 0
M  V30 3854 H 349.245 0.170371 4.60985 0
M  V30 3855 H 347.488 0.229552 4.33192 0
M  V30 3856 H 348.159 -0.977699 5.43273 0
M  V30 3857 H 350.635 -1.86239 3.72095 0
M  V30 3858 H 349.511 -2.84587 4.69363 0
M  V30 3859 H 349.772 -3.24461 3.00296 0
M  V30 3860 N 348.832 -1.54138 -0.328536 0
M  V30 3861 C 349.779 -1.83176 -1.40411 0
M  V30 3862 C 350.749 -0.678494 -1.5161 0
M  V30 3863 O 351.934 -0.92443 -1.6691 0
M  V30 3864 C 349.074 -2.06035 -2.76846 0
M  V30 3865 C 348.187 -3.33727 -2.74318 0
M  V30 3866 C 347.322 -3.46574 -4.02567 0
M  V30 3867 C 346.361 -4.68159 -3.94327 0
M  V30 3868 N 345.498 -4.77959 -5.14296 0
M  V30 3869 H 350.338 -2.74938 -1.14948 0
M  V30 3870 H 347.875 -1.36166 -0.556538 0
M  V30 3871 H 349.833 -2.1728 -3.56153 0
M  V30 3872 H 348.463 -1.1757 -3.00628 0
M  V30 3873 H 347.515 -3.31246 -1.8703 0
M  V30 3874 H 348.827 -4.23139 -2.64111 0
M  V30 3875 H 347.981 -3.57333 -4.90304 0
M  V30 3876 H 346.72 -2.55245 -4.15574 0
M  V30 3877 H 345.725 -4.57461 -3.04974 0
M  V30 3878 H 346.95 -5.60868 -3.82889 0
M  V30 3879 H 344.896 -3.89544 -5.27818 0
M  V30 3880 H 344.813 -5.6133 -5.06404 0
M  V30 3881 H 346.081 -4.93044 -6.03761 0
M  V30 3882 N 350.31 0.590341 -1.46126 0
M  V30 3883 C 351.258 1.72105 -1.5647 0
M  V30 3884 C 352.252 1.63756 -0.433612 0
M  V30 3885 O 353.458 1.69342 -0.610194 0
M  V30 3886 H 349.833 0.568889 -0.491802 0
M  V30 3887 H 351.804 1.6051 -2.51553 0
M  V30 3888 C 350.553 3.10493 -1.56491 0
M  V30 3889 H 349.876 3.17583 -2.4286 0
M  V30 3890 H 351.316 3.8939 -1.67785 0
M  V30 3891 C 349.775 3.3563 -0.292231 0
M  V30 3892 O 350.305 3.96875 0.620739 0
M  V30 3893 N 348.511 2.90026 -0.182523 0
M  V30 3894 H 348.058 2.40367 -0.926356 0
M  V30 3895 H 348.016 3.07218 0.668152 0
M  V30 3896 N 351.788 1.33704 0.83433 0
M  V30 3897 C 352.736 1.24323 1.96587 0
M  V30 3898 C 353.73 0.143659 1.6879 0
M  V30 3899 O 354.936 0.30791 1.77347 0
M  V30 3900 H 351.311 0.385925 0.645419 0
M  V30 3901 H 353.282 2.19978 2.01624 0
M  V30 3902 C 352.031 1.00394 3.32891 0
M  V30 3903 H 351.354 1.84231 3.54822 0
M  V30 3904 H 352.794 0.97862 4.12552 0
M  V30 3905 C 351.253 -0.293047 3.35623 0
M  V30 3906 O 351.783 -1.29823 3.80143 0
M  V30 3907 N 349.989 -0.322174 2.88809 0
M  V30 3908 H 349.536 0.496379 2.52772 0
M  V30 3909 H 349.494 -1.18977 2.91019 0
M  V30 3910 N 353.266 -1.05314 1.17247 0
M  V30 3911 C 354.677 -1.59753 0.96623 0
M  V30 3912 C 355.028 -1.9005 -0.487378 0
M  V30 3913 O 354.153 -1.68126 -1.36245 0
M  V30 3914 C 354.748 -2.90249 1.74759 0
M  V30 3915 C 353.307 -3.41352 1.58606 0
M  V30 3916 C 352.454 -2.15103 1.75002 0
M  V30 3917 H 355.405 -0.881406 1.31973 0
M  V30 3918 H 355.426 -3.60097 1.22925 0
M  V30 3919 H 354.938 -2.68166 2.8055 0
M  V30 3920 H 353.039 -3.68474 0.552985 0
M  V30 3921 H 353.152 -4.16019 2.37624 0
M  V30 3922 H 351.516 -2.25804 1.17833 0
M  V30 3923 H 352.299 -1.95491 2.82202 0
M  V30 3924 N 354.744 -0.972509 -1.24016 0
M  V30 3925 C 355.691 -0.505969 -2.25186 0
M  V30 3926 C 356.661 0.451009 -1.5986 0
M  V30 3927 O 357.846 0.360307 -1.87367 0
M  V30 3928 C 354.986 0.193089 -3.44559 0
M  V30 3929 C 354.099 -0.803222 -4.24467 0
M  V30 3930 C 353.234 -0.0797793 -5.3114 0
M  V30 3931 C 352.273 -1.06583 -6.02749 0
M  V30 3932 N 351.41 -0.372074 -7.01113 0
M  V30 3933 H 356.25 -1.37351 -2.64459 0
M  V30 3934 H 353.787 -0.688419 -1.29997 0
M  V30 3935 H 355.745 0.615125 -4.1264 0
M  V30 3936 H 354.375 1.02455 -3.06109 0
M  V30 3937 H 353.427 -1.34368 -3.55878 0
M  V30 3938 H 354.739 -1.55494 -4.73944 0
M  V30 3939 H 353.893 0.400015 -6.0538 0
M  V30 3940 H 352.632 0.704597 -4.82583 0
M  V30 3941 H 351.637 -1.55645 -5.27309 0
M  V30 3942 H 352.862 -1.85074 -6.53395 0
M  V30 3943 H 350.808 0.393238 -6.5482 0
M  V30 3944 H 350.725 -1.06258 -7.48495 0
M  V30 3945 H 351.993 0.0855932 -7.79453 0
M  V30 3946 N 356.222 1.38976 -0.743202 0
M  V30 3947 C 357.452 2.04339 -0.304807 0
M  V30 3948 C 357.86 1.56162 1.06819 0
M  V30 3949 O 357.203 0.725284 1.68776 0
M  V30 3950 C 357.265 3.58716 -0.237369 0
M  V30 3951 C 356.929 4.29905 -1.55018 0
M  V30 3952 C 357.926 4.55987 -2.49744 0
M  V30 3953 C 355.611 4.68294 -1.81675 0
M  V30 3954 C 357.605 5.19478 -3.69353 0
M  V30 3955 C 355.292 5.31512 -3.0156 0
M  V30 3956 C 356.29 5.57037 -3.9522 0
M  V30 3957 O 355.978 6.18941 -5.12998 0
M  V30 3958 H 355.71 0.663439 -0.12971 0
M  V30 3959 H 358.264 1.78852 -1.01001 0
M  V30 3960 H 356.494 3.83133 0.524003 0
M  V30 3961 H 358.183 4.05543 0.170121 0
M  V30 3962 H 358.949 4.26767 -2.30423 0
M  V30 3963 H 354.828 4.47779 -1.09615 0
M  V30 3964 H 358.372 5.39318 -4.42473 0
M  V30 3965 H 354.269 5.60153 -3.20778 0
M  V30 3966 H 355.037 6.37433 -5.13441 0
M  V30 3967 N 357.7 0.491464 1.49741 0
M  V30 3968 C 358.925 -0.0557177 2.07325 0
M  V30 3969 C 359.35 -1.30925 1.35056 0
M  V30 3970 O 358.708 -1.76733 0.404365 0
M  V30 3971 C 358.756 -0.302074 3.59333 0
M  V30 3972 O 357.86 -1.37868 3.88672 0
M  V30 3973 H 357.201 0.0219956 0.663636 0
M  V30 3974 H 359.731 0.688352 1.92673 0
M  V30 3975 H 359.741 -0.536464 4.04458 0
M  V30 3976 H 358.416 0.61383 4.11345 0
M  V30 3977 H 356.993 -1.12999 3.55367 0
M  V30 3978 N 359.178 -1.55987 0.224894 0
M  V30 3979 C 360.425 -1.9839 -0.4059 0
M  V30 3980 C 360.753 -1.11261 -1.59535 0
M  V30 3981 O 360.008 -0.158314 -1.95059 0
M  V30 3982 C 360.307 -3.46394 -0.880106 0
M  V30 3983 C 359.973 -4.5046 0.19918 0
M  V30 3984 C 358.635 -4.7864 0.495661 0
M  V30 3985 C 360.987 -5.12855 0.928939 0
M  V30 3986 C 358.315 -5.66497 1.52636 0
M  V30 3987 C 360.667 -6.01828 1.949 0
M  V30 3988 C 359.331 -6.28351 2.25236 0
M  V30 3989 H 358.601 -0.725961 -0.148529 0
M  V30 3990 H 361.248 -1.88668 0.328113 0
M  V30 3991 H 359.553 -3.53337 -1.69294 0
M  V30 3992 H 361.25 -3.76577 -1.37808 0
M  V30 3993 H 357.84 -4.28579 -0.0420526 0
M  V30 3994 H 362.024 -4.9115 0.713129 0
M  V30 3995 H 357.28 -5.8531 1.76698 0
M  V30 3996 H 361.454 -6.49225 2.51951 0
M  V30 3997 H 359.081 -6.96226 3.05244 0
M  V30 3998 N 360.656 0.0484629 -1.57525 0
M  V30 3999 C 361.589 1.08755 -2.00618 0
M  V30 4000 C 362.567 1.36272 -0.887058 0
M  V30 4001 O 363.751 1.49255 -1.15131 0
M  V30 4002 C 360.878 2.42675 -2.36277 0
M  V30 4003 C 359.924 2.31142 -3.58435 0
M  V30 4004 S 360.757 1.68326 -5.08357 0
M  V30 4005 C 361.913 3.03776 -5.47239 0
M  V30 4006 H 362.146 0.720415 -2.88439 0
M  V30 4007 H 359.679 0.257801 -1.52233 0
M  V30 4008 H 361.637 3.19699 -2.57494 0
M  V30 4009 H 360.298 2.76541 -1.48942 0
M  V30 4010 H 359.491 3.29957 -3.80978 0
M  V30 4011 H 359.093 1.62258 -3.36969 0
M  V30 4012 H 361.385 4.00106 -5.46737 0
M  V30 4013 H 362.328 2.85988 -6.47778 0
M  V30 4014 H 362.736 3.05456 -4.74718 0
M  V30 4015 N 362.134 1.5431 0.320358 0
M  V30 4016 C 363.067 1.78769 1.41834 0
M  V30 4017 C 364.045 0.63783 1.49568 0
M  V30 4018 O 365.229 0.875628 1.66928 0
M  V30 4019 C 362.356 1.90712 2.79905 0
M  V30 4020 C 361.402 3.13023 2.89687 0
M  V30 4021 S 362.235 4.71554 2.53766 0
M  V30 4022 C 363.391 4.86408 3.93902 0
M  V30 4023 H 363.624 2.71619 1.20874 0
M  V30 4024 H 361.157 1.45474 0.517377 0
M  V30 4025 H 363.115 1.98279 3.59438 0
M  V30 4026 H 361.776 0.988343 2.98145 0
M  V30 4027 H 360.969 3.18124 3.90913 0
M  V30 4028 H 360.571 3.03803 2.18128 0
M  V30 4029 H 362.863 4.69241 4.88691 0
M  V30 4030 H 363.806 5.88508 3.93782 0
M  V30 4031 H 364.214 4.14689 3.83005 0
M  V30 4032 N 363.613 -0.582584 1.46437 0
M  V30 4033 C 364.523 -1.71949 1.59595 0
M  V30 4034 C 365.539 -1.67264 0.479443 0
M  V30 4035 O 366.715 -1.87171 0.743579 0
M  V30 4036 C 363.78 -3.08452 1.58298 0
M  V30 4037 C 362.841 -3.244 2.81182 0
M  V30 4038 C 362.074 -4.54391 2.79937 0
M  V30 4039 O 362.297 -5.38287 1.8869 0
M  V30 4040 O 361.231 -4.73588 3.71481 0
M  V30 4041 H 365.057 -1.63795 2.55744 0
M  V30 4042 H 362.642 -0.749643 1.29231 0
M  V30 4043 H 364.524 -3.89732 1.60271 0
M  V30 4044 H 363.199 -3.17043 0.653094 0
M  V30 4045 H 362.106 -2.42613 2.84763 0
M  V30 4046 H 363.439 -3.20699 3.7338 0
M  V30 4047 N 365.091 -1.34144 -0.827227 0
M  V30 4048 C 366.021 -1.28005 -1.95287 0
M  V30 4049 C 367.002 -0.158321 -1.69362 0
M  V30 4050 O 368.187 -0.349987 -1.9102 0
M  V30 4051 C 365.317 -1.03036 -3.31664 0
M  V30 4052 C 364.271 -2.11628 -3.72019 0
M  V30 4053 C 363.597 -1.71854 -5.0633 0
M  V30 4054 C 364.897 -3.53417 -3.8457 0
M  V30 4055 H 366.591 -2.22187 -2.00682 0
M  V30 4056 H 364.137 -1.0696 -0.964135 0
M  V30 4057 H 366.09 -0.973863 -4.09993 0
M  V30 4058 H 364.814 -0.0529391 -3.26557 0
M  V30 4059 H 363.473 -2.16339 -2.95961 0
M  V30 4060 H 363.121 -0.727841 -4.97706 0
M  V30 4061 H 362.821 -2.44531 -5.34302 0
M  V30 4062 H 364.345 -1.67692 -5.87122 0
M  V30 4063 H 365.759 -3.51142 -4.5318 0
M  V30 4064 H 364.156 -4.24679 -4.2399 0
M  V30 4065 H 365.226 -3.91072 -2.86689 0
M  V30 4066 N 366.569 1.04691 -1.17803 0
M  V30 4067 C 367.517 2.14665 -0.895635 0
M  V30 4068 C 368.511 1.68806 0.141679 0
M  V30 4069 O 369.717 1.79999 -0.00587914 0
M  V30 4070 H 366.092 0.701038 -0.272121 0
M  V30 4071 H 368.063 2.35685 -1.83017 0
M  V30 4072 C 366.812 3.45019 -0.430962 0
M  V30 4073 H 366.135 3.8071 -1.22064 0
M  V30 4074 H 367.575 4.23125 -0.272301 0
M  V30 4075 C 366.034 3.25943 0.852207 0
M  V30 4076 O 366.564 3.5296 1.91786 0
M  V30 4077 N 364.77 2.79304 0.802346 0
M  V30 4078 H 364.317 2.57518 -0.0650788 0
M  V30 4079 H 364.275 2.66921 1.66134 0
M  V30 4080 N 368.047 0.979072 1.23499 0
M  V30 4081 C 368.995 0.510604 2.26926 0
M  V30 4082 C 369.989 -0.431691 1.63807 0
M  V30 4083 O 371.195 -0.30573 1.77385 0
M  V30 4084 H 367.57 0.146688 0.737554 0
M  V30 4085 H 369.541 1.39466 2.63803 0
M  V30 4086 C 368.29 -0.172658 3.47271 0
M  V30 4087 H 367.613 0.543331 3.96091 0
M  V30 4088 H 369.053 -0.464101 4.21452 0
M  V30 4089 C 367.512 -1.40345 3.06276 0
M  V30 4090 O 368.042 -2.49978 3.14442 0
M  V30 4091 N 366.248 -1.27362 2.61203 0
M  V30 4092 H 365.795 -0.381584 2.54758 0
M  V30 4093 H 365.753 -2.09822 2.34141 0
M  V30 4094 N 369.525 -1.3858 0.750561 0
M  V30 4095 C 370.455 -2.33102 0.136237 0
M  V30 4096 C 371.436 -1.54713 -0.706965 0
M  V30 4097 O 372.621 -1.83043 -0.648769 0
M  V30 4098 C 369.751 -3.38882 -0.760017 0
M  V30 4099 C 368.705 -4.27995 -0.0197785 0
M  V30 4100 C 368.031 -5.24605 -1.03408 0
M  V30 4101 C 369.331 -5.09554 1.14684 0
M  V30 4102 H 371.025 -2.84726 0.925822 0
M  V30 4103 H 368.571 -1.36898 0.446654 0
M  V30 4104 H 370.524 -4.0397 -1.19943 0
M  V30 4105 H 369.248 -2.85734 -1.58189 0
M  V30 4106 H 367.907 -3.64409 0.400184 0
M  V30 4107 H 367.555 -4.67746 -1.84994 0
M  V30 4108 H 367.255 -5.85081 -0.543464 0
M  V30 4109 H 368.779 -5.9257 -1.47288 0
M  V30 4110 H 370.193 -5.67899 0.785118 0
M  V30 4111 H 368.59 -5.7925 1.56812 0
M  V30 4112 H 369.66 -4.4347 1.96118 0
M  V30 4113 N 371.003 -0.499398 -1.49478 0
M  V30 4114 C 371.95 0.279881 -2.29097 0
M  V30 4115 C 372.92 0.961805 -1.3542 0
M  V30 4116 O 374.105 0.968777 -1.64376 0
M  V30 4117 C 371.245 1.33932 -3.18051 0
M  V30 4118 C 370.358 0.669333 -4.26783 0
M  V30 4119 C 369.493 1.70907 -5.02955 0
M  V30 4120 C 368.532 1.02087 -6.03527 0
M  V30 4121 N 367.669 2.00474 -6.7287 0
M  V30 4122 H 372.509 -0.405317 -2.95231 0
M  V30 4123 H 370.046 -0.211726 -1.45568 0
M  V30 4124 H 372.004 1.96553 -3.67998 0
M  V30 4125 H 370.634 1.9933 -2.53904 0
M  V30 4126 H 369.686 -0.0701234 -3.80335 0
M  V30 4127 H 370.998 0.127503 -4.98637 0
M  V30 4128 H 370.152 2.41037 -5.56764 0
M  V30 4129 H 368.891 2.28476 -4.30871 0
M  V30 4130 H 367.896 0.305338 -5.48951 0
M  V30 4131 H 369.121 0.451708 -6.77596 0
M  V30 4132 H 367.067 2.57007 -6.03559 0
M  V30 4133 H 366.984 1.51353 -7.40694 0
M  V30 4134 H 368.252 2.69897 -7.31284 0
M  V30 4135 N 372.481 1.55866 -0.233164 0
M  V30 4136 C 373.411 2.23783 0.666599 0
M  V30 4137 C 374.392 1.21343 1.19205 0
M  V30 4138 O 375.577 1.4996 1.23392 0
M  V30 4139 C 372.707 2.92671 1.86978 0
M  V30 4140 C 371.661 4.01682 1.47768 0
M  V30 4141 C 370.987 4.57926 2.76058 0
M  V30 4142 C 372.287 5.18126 0.658993 0
M  V30 4143 H 373.981 2.99232 0.100306 0
M  V30 4144 H 371.527 1.43924 0.046804 0
M  V30 4145 H 373.48 3.3888 2.50476 0
M  V30 4146 H 372.204 2.14688 2.46123 0
M  V30 4147 H 370.863 3.56222 0.866106 0
M  V30 4148 H 370.511 3.76659 3.33372 0
M  V30 4149 H 370.211 5.31505 2.50552 0
M  V30 4150 H 371.735 5.06859 3.40479 0
M  V30 4151 H 373.149 5.60644 1.19795 0
M  V30 4152 H 371.546 5.98009 0.500552 0
M  V30 4153 H 372.616 4.83763 -0.331856 0
M  V30 4154 N 373.959 -0.0401083 1.57549 0
M  V30 4155 C 374.907 -1.06264 2.06908 0
M  V30 4156 C 375.901 -1.38132 0.980608 0
M  V30 4157 O 377.107 -1.37167 1.16556 0
M  V30 4158 H 373.482 -0.360166 0.660139 0
M  V30 4159 H 375.453 -0.620445 2.91878 0
M  V30 4160 C 374.202 -2.35846 2.55483 0
M  V30 4161 H 373.525 -2.12183 3.38849 0
M  V30 4162 H 374.965 -3.05765 2.93741 0
M  V30 4163 C 373.424 -3.0404 1.45126 0
M  V30 4164 O 373.954 -3.93424 0.811216 0
M  V30 4165 N 372.16 -2.65184 1.18852 0
M  V30 4166 H 371.707 -1.92584 1.71083 0
M  V30 4167 H 371.665 -3.1113 0.452244 0
M  V30 4168 N 375.437 -1.54477 -0.31217 0
M  V30 4169 C 376.384 -1.84655 -1.38461 0
M  V30 4170 C 377.354 -0.694536 -1.50882 0
M  V30 4171 O 378.539 -0.942081 -1.6592 0
M  V30 4172 C 375.679 -2.0896 -2.74645 0
M  V30 4173 C 374.792 -3.36618 -2.70763 0
M  V30 4174 C 373.927 -3.50824 -3.98868 0
M  V30 4175 C 372.966 -4.72315 -3.89339 0
M  V30 4176 N 372.103 -4.83387 -5.09197 0
M  V30 4177 H 376.943 -2.76142 -1.12026 0
M  V30 4178 H 374.48 -1.36748 -0.542065 0
M  V30 4179 H 376.438 -2.21045 -3.53829 0
M  V30 4180 H 375.068 -1.20752 -2.99364 0
M  V30 4181 H 374.12 -3.33211 -1.83506 0
M  V30 4182 H 375.432 -4.25917 -2.59608 0
M  V30 4183 H 374.586 -3.62513 -4.86486 0
M  V30 4184 H 373.325 -2.59638 -4.12843 0
M  V30 4185 H 372.33 -4.6067 -3.00105 0
M  V30 4186 H 373.555 -5.64897 -3.76919 0
M  V30 4187 H 371.501 -3.9512 -5.23657 0
M  V30 4188 H 371.418 -5.66669 -5.00422 0
M  V30 4189 H 372.686 -4.9942 -5.98498 0
M  V30 4190 N 376.915 0.57481 -1.46744 0
M  V30 4191 C 377.825 1.711 -1.60505 0
M  V30 4192 C 378.841 1.67008 -0.488307 0
M  V30 4193 O 380.017 1.86774 -0.753495 0
M  V30 4194 C 377.082 3.07608 -1.59932 0
M  V30 4195 C 376.143 3.22904 -2.82898 0
M  V30 4196 C 375.376 4.529 -2.82343 0
M  V30 4197 O 375.599 5.37278 -1.91542 0
M  V30 4198 O 374.533 4.71611 -3.73987 0
M  V30 4199 H 378.359 1.62436 -2.56609 0
M  V30 4200 H 375.944 0.742779 -1.29627 0
M  V30 4201 H 377.826 3.88877 -1.62336 0
M  V30 4202 H 376.501 3.16692 -0.669898 0
M  V30 4203 H 375.408 2.41099 -2.86046 0
M  V30 4204 H 376.741 3.18715 -3.75076 0
M  V30 4205 N 378.394 1.34581 0.820102 0
M  V30 4206 C 379.324 1.29038 1.94606 0
M  V30 4207 C 380.305 0.1673 1.69275 0
M  V30 4208 O 381.49 0.360112 1.90832 0
M  V30 4209 C 378.62 1.04793 3.31113 0
M  V30 4210 C 377.574 2.13597 3.70891 0
M  V30 4211 C 376.9 1.74537 5.05412 0
M  V30 4212 C 378.2 3.55451 3.8269 0
M  V30 4213 H 379.894 2.23248 1.99501 0
M  V30 4214 H 377.44 1.0747 0.958449 0
M  V30 4215 H 379.393 0.995592 4.0947 0
M  V30 4216 H 378.117 0.0702565 3.26524 0
M  V30 4217 H 376.776 2.17905 2.9481 0
M  V30 4218 H 376.424 0.754226 4.97313 0
M  V30 4219 H 376.124 2.47361 5.32997 0
M  V30 4220 H 377.648 1.70803 5.86224 0
M  V30 4221 H 379.062 3.5354 4.51312 0
M  V30 4222 H 377.459 4.26922 4.21732 0
M  V30 4223 H 378.529 3.92587 2.84611 0
M  V30 4224 N 379.872 -1.04064 1.18357 0
M  V30 4225 C 380.802 -2.14001 0.934113 0
M  V30 4226 C 381.783 -1.69616 -0.128186 0
M  V30 4227 O 382.968 -1.94185 0.0244093 0
M  V30 4228 C 380.098 -3.44253 0.459066 0
M  V30 4229 C 379.052 -4.02261 1.46185 0
M  V30 4230 C 378.378 -5.27992 0.844322 0
M  V30 4231 C 379.678 -4.38432 2.83856 0
M  V30 4232 H 381.372 -2.35127 1.85352 0
M  V30 4233 H 378.918 -1.12998 0.892604 0
M  V30 4234 H 380.871 -4.20522 0.271907 0
M  V30 4235 H 379.595 -3.22813 -0.495912 0
M  V30 4236 H 378.254 -3.28074 1.63595 0
M  V30 4237 H 377.902 -5.02862 -0.117845 0
M  V30 4238 H 377.602 -5.67765 1.51384 0
M  V30 4239 H 379.126 -6.06938 0.667693 0
M  V30 4240 H 380.54 -5.05688 2.70098 0
M  V30 4241 H 378.937 -4.89254 3.47491 0
M  V30 4242 H 380.007 -3.4826 3.37406 0
M  V30 4243 N 381.35 -0.985608 -1.22978 0
M  V30 4244 C 382.766 -0.695104 -1.43668 0
M  V30 4245 C 382.966 0.736866 -1.87543 0
M  V30 4246 O 382.022 1.50868 -2.02473 0
M  V30 4247 C 383.335 -1.69447 -2.48412 0
M  V30 4248 C 384.883 -1.70909 -2.62219 0
M  V30 4249 C 385.358 -2.6969 -3.70178 0
M  V30 4250 N 386.849 -2.6824 -3.77626 0
M  V30 4251 C 387.584 -3.41339 -4.60733 0
M  V30 4252 N 387.08 -4.24015 -5.4789 0
M  V30 4253 N 388.873 -3.30079 -4.54977 0
M  V30 4254 H 381.024 -1.91054 -0.928016 0
M  V30 4255 H 383.287 -0.823553 -0.469536 0
M  V30 4256 H 382.993 -2.7188 -2.23102 0
M  V30 4257 H 382.867 -1.48147 -3.46889 0
M  V30 4258 H 385.254 -0.691785 -2.86877 0
M  V30 4259 H 385.335 -1.96276 -1.6404 0
M  V30 4260 H 384.979 -3.71566 -3.46268 0
M  V30 4261 H 384.909 -2.41595 -4.67909 0
M  V30 4262 H 387.4 -2.08243 -3.15346 0
M  V30 4263 H 387.713 -4.76636 -6.08308 0
M  V30 4264 H 386.058 -4.28104 -5.47496 0
M  V30 4265 H 389.249 -2.64937 -3.85909 0
M  V30 4266 H 389.422 -3.87308 -5.19516 0
M  V30 4267 N 382.828 1.3818 -0.7579 0
M  V30 4268 C 383.775 2.30416 -0.133057 0
M  V30 4269 C 384.745 1.50398 0.704957 0
M  V30 4270 O 385.93 1.79014 0.660192 0
M  V30 4271 C 383.07 3.36834 0.750813 0
M  V30 4272 C 382.183 4.31879 -0.102297 0
M  V30 4273 C 381.318 5.25368 0.784979 0
M  V30 4274 C 380.357 6.12058 -0.0715046 0
M  V30 4275 N 379.494 6.97832 0.772972 0
M  V30 4276 H 384.334 2.83274 -0.925186 0
M  V30 4277 H 381.871 1.39461 -0.467866 0
M  V30 4278 H 383.829 3.97145 1.27794 0
M  V30 4279 H 382.459 2.85374 1.50868 0
M  V30 4280 H 381.511 3.72991 -0.747095 0
M  V30 4281 H 382.823 4.92921 -0.763552 0
M  V30 4282 H 381.977 5.90818 1.37911 0
M  V30 4283 H 380.716 4.64703 1.47996 0
M  V30 4284 H 379.721 5.456 -0.678272 0
M  V30 4285 H 380.946 6.74793 -0.763606 0
M  V30 4286 H 378.892 6.3971 1.45282 0
M  V30 4287 H 378.809 7.55812 0.168709 0
M  V30 4288 H 380.077 7.67687 1.35194 0
M  V30 4289 N 384.306 0.507319 1.49211 0
M  V30 4290 C 385.583 -0.0982702 1.95353 0
M  V30 4291 C 385.963 -1.53516 1.449 0
M  V30 4292 O 385.311 -2.18594 0.66551 0
M  V30 4293 C 385.521 -0.00440283 3.49 0
M  V30 4294 C 386.869 -0.175147 4.24239 0
M  V30 4295 O 387.893 -0.0792891 3.56112 0
M  V30 4296 O 386.752 -0.37276 5.45227 0
M  V30 4297 H 383.846 -0.0918236 0.821887 0
M  V30 4298 H 386.392 0.570307 1.5983 0
M  V30 4299 H 385.164 0.997402 3.78375 0
M  V30 4300 H 384.787 -0.712845 3.91158 0
M  V30 4301 N 385.784 -1.5574 0.241426 0
M  V30 4302 C 386.714 -2.24133 -0.654722 0
M  V30 4303 C 387.695 -1.21974 -1.1856 0
M  V30 4304 O 388.88 -1.50612 -1.22595 0
M  V30 4305 C 386.01 -2.93659 -1.85423 0
M  V30 4306 C 384.964 -4.0246 -1.45636 0
M  V30 4307 C 384.29 -4.59383 -2.73626 0
M  V30 4308 C 385.59 -5.18468 -0.631506 0
M  V30 4309 H 387.284 -2.99281 -0.0844353 0
M  V30 4310 H 384.83 -1.43947 -0.0391707 0
M  V30 4311 H 386.783 -3.40203 -2.48676 0
M  V30 4312 H 385.507 -2.15991 -2.44981 0
M  V30 4313 H 384.166 -3.56676 -0.847202 0
M  V30 4314 H 383.814 -3.78422 -3.3137 0
M  V30 4315 H 383.514 -5.32826 -2.4773 0
M  V30 4316 H 385.038 -5.08658 -3.37786 0
M  V30 4317 H 386.452 -5.61272 -1.1682 0
M  V30 4318 H 384.849 -5.98266 -0.468831 0
M  V30 4319 H 385.919 -4.8358 0.357506 0
M  V30 4320 N 387.262 0.0317525 -1.57568 0
M  V30 4321 C 388.209 1.0332 -2.06382 0
M  V30 4322 C 389.179 1.36082 -0.952414 0
M  V30 4323 O 390.364 1.46466 -1.2228 0
M  V30 4324 C 387.504 2.32989 -2.54578 0
M  V30 4325 C 386.617 2.0641 -3.79498 0
M  V30 4326 C 385.752 3.2993 -4.16317 0
M  V30 4327 C 384.791 2.98893 -5.34162 0
M  V30 4328 N 383.928 4.14857 -5.66426 0
M  V30 4329 H 388.768 0.609982 -2.9169 0
M  V30 4330 H 386.305 0.289573 -1.44222 0
M  V30 4331 H 388.263 3.0875 -2.80587 0
M  V30 4332 H 386.893 2.73039 -1.7219 0
M  V30 4333 H 385.945 1.21158 -3.6059 0
M  V30 4334 H 387.257 1.79513 -4.65378 0
M  V30 4335 H 386.411 4.1406 -4.4344 0
M  V30 4336 H 385.15 3.59938 -3.29083 0
M  V30 4337 H 384.155 2.13164 -5.06795 0
M  V30 4338 H 385.38 2.70165 -6.23047 0
M  V30 4339 H 383.326 4.44821 -4.82151 0
M  V30 4340 H 383.243 3.91374 -6.4681 0
M  V30 4341 H 384.511 4.99868 -5.98124 0
M  V30 4342 N 388.74 1.54641 0.303973 0
M  V30 4343 C 390.151 1.64811 0.877163 0
M  V30 4344 C 390.502 0.554838 1.88191 0
M  V30 4345 O 389.627 -0.309033 2.14182 0
M  V30 4346 C 390.222 2.9876 1.59775 0
M  V30 4347 C 388.781 3.11061 2.11938 0
M  V30 4348 C 387.928 2.60479 0.951097 0
M  V30 4349 H 390.879 1.58493 0.0810486 0
M  V30 4350 H 390.9 2.90017 2.46314 0
M  V30 4351 H 390.412 3.7831 0.866226 0
M  V30 4352 H 388.513 2.36225 2.88146 0
M  V30 4353 H 388.626 4.17171 2.35595 0
M  V30 4354 H 386.99 2.16859 1.33583 0
M  V30 4355 H 387.773 3.42504 0.233581 0
M  V30 4356 N 390.218 -0.567019 1.47046 0
M  V30 4357 C 391.181 -1.65696 1.58359 0
M  V30 4358 C 392.181 -1.54097 0.459441 0
M  V30 4359 O 393.371 -1.58432 0.724225 0
M  V30 4360 C 390.503 -3.05197 1.51879 0
M  V30 4361 H 391.696 -1.57019 2.5551 0
M  V30 4362 H 389.249 -0.786148 1.3509 0
M  V30 4363 H 389.984 -3.19417 0.560673 0
M  V30 4364 H 389.769 -3.15025 2.33455 0
M  V30 4365 H 391.259 -3.84511 1.62913 0
M  V30 4366 N 391.696 -1.35014 -0.812953 0
M  V30 4367 C 392.945 -1.27269 -1.56479 0
M  V30 4368 C 393.258 0.152771 -1.95002 0
M  V30 4369 O 394.464 0.352451 -2.69203 0
M  V30 4370 C 392.92 -2.23159 -2.82362 0
M  V30 4371 C 392.528 -3.71016 -2.511 0
M  V30 4372 C 394.272 -2.24342 -3.60376 0
M  V30 4373 C 392.179 -4.58746 -3.73237 0
M  V30 4374 H 391.109 -0.472829 -0.587324 0
M  V30 4375 H 393.76 -1.6024 -0.894171 0
M  V30 4376 H 392.142 -1.83151 -3.51101 0
M  V30 4377 H 393.316 -4.1962 -1.90409 0
M  V30 4378 H 391.631 -3.72378 -1.86343 0
M  V30 4379 H 394.228 -2.87107 -4.51081 0
M  V30 4380 H 394.571 -1.24542 -3.97234 0
M  V30 4381 H 395.104 -2.62846 -2.98591 0
M  V30 4382 H 391.843 -5.59521 -3.41492 0
M  V30 4383 H 391.363 -4.14871 -4.33176 0
M  V30 4384 H 393.042 -4.73852 -4.40537 0
M  V30 4385 N 393.175 1.03435 -1.18907 0
M  V30 4386 C 394.085 2.15075 -0.937015 0
M  V30 4387 C 395.101 1.73706 0.101085 0
M  V30 4388 O 396.277 2.01232 -0.0822948 0
M  V30 4389 C 393.342 3.43458 -0.473057 0
M  V30 4390 C 392.403 3.99172 -1.57989 0
M  V30 4391 C 391.636 5.21427 -1.13797 0
M  V30 4392 O 391.859 5.704 0.000725941 0
M  V30 4393 O 390.793 5.69837 -1.9383 0
M  V30 4394 H 394.619 2.39198 -1.87131 0
M  V30 4395 H 392.204 1.13506 -0.971427 0
M  V30 4396 H 394.086 4.20811 -0.222702 0
M  V30 4397 H 392.761 3.20793 0.432869 0
M  V30 4398 H 391.668 3.23178 -1.88433 0
M  V30 4399 H 393.001 4.2619 -2.46217 0
M  V30 4400 N 394.653 0.992116 1.22453 0
M  V30 4401 C 395.9 0.667534 1.91181 0
M  V30 4402 C 396.228 -0.800317 1.77271 0
M  V30 4403 O 395.483 -1.59421 1.13505 0
M  V30 4404 C 395.782 1.01832 3.42586 0
M  V30 4405 C 395.448 2.47831 3.76684 0
M  V30 4406 C 394.11 2.87729 3.85701 0
M  V30 4407 C 396.462 3.42466 3.92895 0
M  V30 4408 C 393.79 4.21252 4.08367 0
M  V30 4409 C 396.142 4.75648 4.17064 0
M  V30 4410 C 394.806 5.15288 4.24305 0
M  V30 4411 H 394.076 0.244268 0.699581 0
M  V30 4412 H 396.723 1.24816 1.45235 0
M  V30 4413 H 395.028 0.355769 3.90181 0
M  V30 4414 H 396.725 0.745228 3.94014 0
M  V30 4415 H 393.315 2.15905 3.70247 0
M  V30 4416 H 397.499 3.12814 3.85307 0
M  V30 4417 H 392.755 4.51554 4.122 0
M  V30 4418 H 396.929 5.48924 4.2855 0
M  V30 4419 H 394.556 6.18769 4.41621 0
M  V30 4420 N 396.131 -1.37776 0.765217 0
M  V30 4421 C 397.547 -1.53297 0.444108 0
M  V30 4422 C 397.747 -1.72515 -1.04119 0
M  V30 4423 O 396.803 -1.74278 -1.82711 0
M  V30 4424 C 398.116 -2.73328 1.25349 0
M  V30 4425 C 399.664 -2.87185 1.24473 0
M  V30 4426 C 400.139 -4.10191 2.03733 0
M  V30 4427 N 401.63 -4.17291 2.01053 0
M  V30 4428 C 402.365 -5.11488 2.59166 0
M  V30 4429 N 401.861 -6.11285 3.26041 0
M  V30 4430 N 403.654 -5.03924 2.49032 0
M  V30 4431 H 395.805 -1.23552 1.72768 0
M  V30 4432 H 398.068 -0.601103 0.733062 0
M  V30 4433 H 397.774 -2.6557 2.30577 0
M  V30 4434 H 397.648 -3.66834 0.87823 0
M  V30 4435 H 400.035 -2.94418 0.20047 0
M  V30 4436 H 400.116 -1.94657 1.65959 0
M  V30 4437 H 399.76 -4.0372 3.08176 0
M  V30 4438 H 399.69 -5.01821 1.59633 0
M  V30 4439 H 402.181 -3.45825 1.5236 0
M  V30 4440 H 402.494 -6.79678 3.67774 0
M  V30 4441 H 400.839 -6.11583 3.30138 0
M  V30 4442 H 404.03 -4.24902 1.96407 0
M  V30 4443 H 404.203 -5.77152 2.94617 0
M  V30 4444 N 397.609 -0.515225 -1.4894 0
M  V30 4445 C 398.519 0.259774 -2.33157 0
M  V30 4446 C 399.535 0.953501 -1.45548 0
M  V30 4447 O 400.711 0.931735 -1.78552 0
M  V30 4448 C 397.776 1.30193 -3.21326 0
M  V30 4449 C 396.837 0.620129 -4.24797 0
M  V30 4450 C 396.07 1.61263 -5.08753 0
M  V30 4451 O 396.293 2.84389 -4.94448 0
M  V30 4452 O 395.227 1.16013 -5.90614 0
M  V30 4453 H 399.053 -0.429932 -3.00641 0
M  V30 4454 H 396.638 -0.276346 -1.46822 0
M  V30 4455 H 398.52 1.90455 -3.75905 0
M  V30 4456 H 397.195 1.97431 -2.56521 0
M  V30 4457 H 396.102 -0.0226019 -3.74093 0
M  V30 4458 H 397.435 -0.0100493 -4.92199 0
M  V30 4459 N 399.087 1.5561 -0.249682 0
M  V30 4460 C 400.034 2.21496 0.648694 0
M  V30 4461 C 401.004 1.17977 1.16921 0
M  V30 4462 O 402.189 1.46434 1.22318 0
M  V30 4463 C 399.329 2.92039 1.83868 0
M  V30 4464 C 398.442 4.10219 1.35442 0
M  V30 4465 C 397.577 4.6847 2.50419 0
M  V30 4466 C 396.616 5.78893 1.98869 0
M  V30 4467 N 395.753 6.31315 3.07223 0
M  V30 4468 H 400.593 2.97892 0.0801582 0
M  V30 4469 H 398.13 1.47074 0.0278031 0
M  V30 4470 H 400.088 3.31138 2.53778 0
M  V30 4471 H 398.718 2.18111 2.37965 0
M  V30 4472 H 397.77 3.76413 0.54928 0
M  V30 4473 H 399.082 4.89927 0.936649 0
M  V30 4474 H 398.236 5.10158 3.28366 0
M  V30 4475 H 396.975 3.87984 2.95499 0
M  V30 4476 H 395.98 5.3668 1.19393 0
M  V30 4477 H 397.205 6.61232 1.54755 0
M  V30 4478 H 395.151 5.53733 3.51732 0
M  V30 4479 H 395.068 7.06224 2.69784 0
M  V30 4480 H 396.336 6.77662 3.8522 0
M  V30 4481 N 400.565 -0.0233959 1.57583 0
M  V30 4482 C 401.512 -1.02224 2.06927 0
M  V30 4483 C 402.482 -1.35575 0.959617 0
M  V30 4484 O 403.667 -1.45815 1.23055 0
M  V30 4485 C 400.807 -2.31636 2.5581 0
M  V30 4486 C 399.92 -2.04394 3.80588 0
M  V30 4487 C 399.055 -3.27717 4.18061 0
M  V30 4488 C 398.094 -2.96056 5.3574 0
M  V30 4489 N 397.231 -4.11847 5.68618 0
M  V30 4490 H 402.071 -0.594504 2.9201 0
M  V30 4491 H 399.608 -0.281921 1.44373 0
M  V30 4492 H 401.566 -3.07258 2.82221 0
M  V30 4493 H 400.196 -2.72122 1.73636 0
M  V30 4494 H 399.248 -1.19244 3.61227 0
M  V30 4495 H 400.56 -1.77042 4.66323 0
M  V30 4496 H 399.714 -4.11702 4.4563 0
M  V30 4497 H 398.453 -3.58188 3.30988 0
M  V30 4498 H 397.458 -2.10474 5.07918 0
M  V30 4499 H 398.683 -2.66857 6.24471 0
M  V30 4500 H 396.629 -4.42258 4.84504 0
M  V30 4501 H 396.546 -3.87938 6.48876 0
M  V30 4502 H 397.814 -4.96689 6.00766 0
M  V30 4503 N 402.043 -1.548 -0.295768 0
M  V30 4504 C 402.99 -1.86113 -1.36494 0
M  V30 4505 C 403.96 -0.7105 -1.50137 0
M  V30 4506 O 405.145 -0.959626 -1.64912 0
M  V30 4507 C 402.285 -2.11861 -2.72413 0
M  V30 4508 C 401.398 -3.39471 -2.67177 0
M  V30 4509 C 400.533 -3.55035 -3.95125 0
M  V30 4510 C 399.572 -4.76418 -3.84308 0
M  V30 4511 N 398.709 -4.8876 -5.04042 0
M  V30 4512 H 403.549 -2.77314 -1.09091 0
M  V30 4513 H 401.086 -1.37315 -0.52753 0
M  V30 4514 H 403.044 -2.24786 -3.51464 0
M  V30 4515 H 401.674 -1.2392 -2.98066 0
M  V30 4516 H 400.726 -3.35139 -1.79962 0
M  V30 4517 H 402.038 -4.28646 -2.55076 0
M  V30 4518 H 401.192 -3.67653 -4.82614 0
M  V30 4519 H 399.931 -2.64002 -4.10066 0
M  V30 4520 H 398.936 -4.63827 -2.95202 0
M  V30 4521 H 400.161 -5.68863 -3.70906 0
M  V30 4522 H 398.107 -4.00652 -5.19436 0
M  V30 4523 H 398.024 -5.71945 -4.94384 0
M  V30 4524 H 399.292 -5.0574 -5.93167 0
M  V30 4525 N 403.521 0.559213 -1.47345 0
M  V30 4526 C 404.761 1.32728 -1.55444 0
M  V30 4527 C 405.125 1.90838 -0.210895 0
M  V30 4528 O 406.326 2.68282 -0.166719 0
M  V30 4529 C 404.597 2.4092 -2.63993 0
M  V30 4530 S 406.156 3.2784 -2.91661 0
M  V30 4531 H 402.974 0.451883 -0.548929 0
M  V30 4532 H 405.576 0.640404 -1.84714 0
M  V30 4533 H 404.28 1.9666 -3.60212 0
M  V30 4534 H 403.811 3.14351 -2.36531 0
M  V30 4535 H 405.826 4.40341 -2.28722 0
M  V30 4536 N 404.999 1.35443 0.805782 0
M  V30 4537 C 405.946 1.28431 1.91766 0
M  V30 4538 C 406.916 0.156102 1.65365 0
M  V30 4539 O 408.101 0.339936 1.87747 0
M  V30 4540 C 405.241 1.06301 3.2832 0
M  V30 4541 C 404.354 2.2805 3.66902 0
M  V30 4542 C 403.489 1.99064 4.92491 0
M  V30 4543 C 402.528 3.16863 5.23703 0
M  V30 4544 N 401.665 2.87647 6.40471 0
M  V30 4545 H 406.505 2.23511 1.97096 0
M  V30 4546 H 404.042 1.11105 0.964054 0
M  V30 4547 H 406 0.915012 4.07042 0
M  V30 4548 H 404.63 0.148822 3.22457 0
M  V30 4549 H 403.682 2.53711 2.83434 0
M  V30 4550 H 404.994 3.1601 3.85927 0
M  V30 4551 H 404.148 1.81099 5.7904 0
M  V30 4552 H 402.887 1.0839 4.75503 0
M  V30 4553 H 401.892 3.35404 4.35642 0
M  V30 4554 H 403.117 4.08339 5.4262 0
M  V30 4555 H 401.063 1.99568 6.24907 0
M  V30 4556 H 400.98 3.69141 6.59751 0
M  V30 4557 H 402.248 2.73226 7.30047 0
M  V30 4558 N 406.477 -1.02803 1.19454 0
M  V30 4559 C 407.407 -2.12999 0.956758 0
M  V30 4560 C 408.388 -1.69743 -0.110188 0
M  V30 4561 O 409.573 -1.94148 0.0450038 0
M  V30 4562 C 406.703 -3.43746 0.495553 0
M  V30 4563 C 405.657 -4.00688 1.50443 0
M  V30 4564 C 404.983 -5.27067 0.900275 0
M  V30 4565 C 406.283 -4.35397 2.8849 0
M  V30 4566 H 407.977 -2.33148 1.87836 0
M  V30 4567 H 405.523 -1.12045 0.904539 0
M  V30 4568 H 407.476 -4.2021 0.316493 0
M  V30 4569 H 406.2 -3.23321 -0.461646 0
M  V30 4570 H 404.859 -3.2632 1.67065 0
M  V30 4571 H 404.507 -5.02959 -0.064503 0
M  V30 4572 H 404.207 -5.66127 1.57397 0
M  V30 4573 H 405.731 -6.06196 0.73203 0
M  V30 4574 H 407.145 -5.02795 2.75446 0
M  V30 4575 H 405.542 -4.85541 3.52661 0
M  V30 4576 H 406.612 -3.44662 3.41081 0
M  V30 4577 N 407.956 -0.998596 -1.21925 0
M  V30 4578 C 409.186 -0.695276 -1.94549 0
M  V30 4579 C 409.594 0.745079 -1.73911 0
M  V30 4580 O 408.937 1.51507 -1.03881 0
M  V30 4581 C 408.999 -0.928485 -3.47303 0
M  V30 4582 C 408.663 -2.35443 -3.91683 0
M  V30 4583 C 409.66 -3.33428 -3.98901 0
M  V30 4584 C 407.345 -2.69038 -4.24174 0
M  V30 4585 C 409.339 -4.63079 -4.37992 0
M  V30 4586 C 407.026 -3.98906 -4.62944 0
M  V30 4587 C 408.024 -4.95738 -4.69822 0
M  V30 4588 O 407.712 -6.23285 -5.07711 0
M  V30 4589 H 407.444 -0.255902 -0.625692 0
M  V30 4590 H 409.998 -1.33767 -1.5587 0
M  V30 4591 H 408.228 -0.228917 -3.86022 0
M  V30 4592 H 409.917 -0.619539 -4.01144 0
M  V30 4593 H 410.683 -3.08807 -3.73983 0
M  V30 4594 H 406.562 -1.94367 -4.18022 0
M  V30 4595 H 410.106 -5.38658 -4.43275 0
M  V30 4596 H 406.003 -4.23314 -4.87314 0
M  V30 4597 H 406.771 -6.27306 -5.25766 0
M  V30 4598 N 409.434 1.37368 -0.772513 0
M  V30 4599 C 410.674 2.01512 -0.342361 0
M  V30 4600 C 411.038 1.59997 1.06136 0
M  V30 4601 O 412.239 2.16609 1.59167 0
M  V30 4602 C 410.51 3.54134 -0.482048 0
M  V30 4603 S 412.069 4.38585 -0.137272 0
M  V30 4604 H 408.887 0.698699 -0.131686 0
M  V30 4605 H 411.489 1.67552 -1.0073 0
M  V30 4606 H 410.193 3.81837 -1.50428 0
M  V30 4607 H 409.724 3.92894 0.199413 0
M  V30 4608 H 411.739 4.84594 1.06692 0
M  V30 4609 N 410.912 0.523116 1.48665 0
M  V30 4610 C 412.16 -0.0134497 2.02096 0
M  V30 4611 C 412.481 -1.35418 1.40311 0
M  V30 4612 O 411.751 -1.87543 0.566074 0
M  V30 4613 H 410.331 -0.00795915 0.746958 0
M  V30 4614 H 412.993 0.685388 1.82451 0
M  V30 4615 H 412.089 -0.126849 3.11842 0
M  V30 4616 N 412.39 -1.55475 0.257931 0
M  V30 4617 C 413.3 -2.2549 -0.647425 0
M  V30 4618 C 414.316 -1.2748 -1.18427 0
M  V30 4619 O 415.492 -1.6038 -1.2182 0
M  V30 4620 C 412.557 -2.94916 -1.82278 0
M  V30 4621 C 411.618 -4.08363 -1.32432 0
M  V30 4622 C 410.851 -4.74469 -2.44366 0
M  V30 4623 O 411.074 -4.39701 -3.63344 0
M  V30 4624 O 410.008 -5.62763 -2.13497 0
M  V30 4625 H 413.834 -3.03593 -0.0807707 0
M  V30 4626 H 411.419 -1.49377 0.0259962 0
M  V30 4627 H 413.301 -3.38606 -2.50846 0
M  V30 4628 H 411.976 -2.19744 -2.37685 0
M  V30 4629 H 410.883 -3.69166 -0.605605 0
M  V30 4630 H 412.216 -4.85385 -0.816211 0
M  V30 4631 N 413.868 0.0150385 -1.57593 0
M  V30 4632 C 415.115 0.703001 -1.89906 0
M  V30 4633 C 415.443 1.74604 -0.856944 0
M  V30 4634 O 414.698 1.95197 0.140287 0
M  V30 4635 C 414.997 1.39686 -3.28972 0
M  V30 4636 C 414.663 0.488457 -4.48246 0
M  V30 4637 C 413.325 0.2383 -4.8061 0
M  V30 4638 C 415.677 -0.137881 -5.21018 0
M  V30 4639 C 413.005 -0.646738 -5.83125 0
M  V30 4640 C 415.357 -1.0107 -6.24474 0
M  V30 4641 C 414.021 -1.27019 -6.55303 0
M  V30 4642 H 413.291 0.257246 -0.694914 0
M  V30 4643 H 415.938 -0.037259 -1.91464 0
M  V30 4644 H 414.243 2.21079 -3.23468 0
M  V30 4645 H 415.94 1.93495 -3.51227 0
M  V30 4646 H 412.53 0.693593 -4.22951 0
M  V30 4647 H 416.714 0.0423953 -4.96282 0
M  V30 4648 H 411.97 -0.855937 -6.05379 0
M  V30 4649 H 416.144 -1.50247 -6.79999 0
M  V30 4650 H 413.771 -1.95769 -7.3456 0
M  V30 4651 N 415.346 1.54954 0.287554 0
M  V30 4652 C 416.594 1.74528 1.01904 0
M  V30 4653 C 416.915 0.541349 1.87335 0
M  V30 4654 O 416.185 -0.444108 1.908 0
M  V30 4655 H 414.765 0.643576 0.379235 0
M  V30 4656 H 417.427 1.92333 0.315294 0
M  V30 4657 H 416.523 2.64015 1.6644 0
M  V30 4658 N 416.824 -0.551391 1.4764 0
M  V30 4659 C 418.07 -1.31024 1.54792 0
M  V30 4660 C 418.403 -1.9304 0.211967 0
M  V30 4661 O 417.678 -1.78175 -0.77999 0
M  V30 4662 C 417.961 -2.41593 2.67029 0
M  V30 4663 C 417.814 -1.84408 4.10261 0
M  V30 4664 C 419.133 -3.43488 2.75143 0
M  V30 4665 H 416.252 -0.475031 0.563485 0
M  V30 4666 H 418.894 -0.616454 1.79722 0
M  V30 4667 H 417.044 -3.00772 2.45904 0
M  V30 4668 H 418.716 -1.29445 4.42766 0
M  V30 4669 H 416.959 -1.15051 4.18265 0
M  V30 4670 H 417.63 -2.64367 4.84576 0
M  V30 4671 H 420.106 -2.94236 2.94218 0
M  V30 4672 H 418.982 -4.18274 3.55441 0
M  V30 4673 H 419.243 -4.02703 1.82435 0
M  V30 4674 N 418.302 -1.35869 -0.798587 0
M  V30 4675 C 419.551 -1.28921 -1.5512 0
M  V30 4676 C 419.864 0.13208 -1.95154 0
M  V30 4677 O 421.07 0.323879 -2.69561 0
M  V30 4678 C 419.526 -2.26141 -2.79979 0
M  V30 4679 C 419.134 -3.73658 -2.47151 0
M  V30 4680 C 420.878 -2.28152 -3.57976 0
M  V30 4681 C 418.785 -4.62679 -3.6835 0
M  V30 4682 H 417.715 -0.479031 -0.582276 0
M  V30 4683 H 420.366 -1.61179 -0.877125 0
M  V30 4684 H 418.748 -1.86865 -3.49138 0
M  V30 4685 H 419.922 -4.21616 -1.85947 0
M  V30 4686 H 418.237 -3.74333 -1.82383 0
M  V30 4687 H 420.834 -2.91875 -4.4801 0
M  V30 4688 H 421.177 -1.28748 -3.95891 0
M  V30 4689 H 421.71 -2.65998 -2.95787 0
M  V30 4690 H 418.449 -5.63111 -3.35538 0
M  V30 4691 H 417.969 -4.19442 -4.28752 0
M  V30 4692 H 419.648 -4.78498 -4.35487 0
M  V30 4693 N 419.78 1.02168 -1.19998 0
M  V30 4694 C 420.743 2.08765 -0.94604 0
M  V30 4695 C 421.743 1.60618 0.0763846 0
M  V30 4696 O 422.933 1.73472 -0.159135 0
M  V30 4697 C 420.065 3.38262 -0.423255 0
M  V30 4698 H 421.258 2.32726 -1.89153 0
M  V30 4699 H 418.811 1.1889 -1.01464 0
M  V30 4700 H 419.546 3.19974 0.527938 0
M  V30 4701 H 419.331 3.74532 -1.16053 0
M  V30 4702 H 420.821 4.16759 -0.264911 0
M  V30 4703 N 421.258 1.00505 1.21394 0
M  V30 4704 C 422.507 0.683159 1.89778 0
M  V30 4705 C 422.82 -0.789471 1.7896 0
M  V30 4706 O 424.026 -1.22344 2.42372 0
M  V30 4707 C 422.482 1.17146 3.40301 0
M  V30 4708 C 422.09 2.67017 3.5973 0
M  V30 4709 C 423.834 0.924461 4.14311 0
M  V30 4710 C 421.741 3.09387 5.04017 0
M  V30 4711 H 420.671 0.25183 0.710702 0
M  V30 4712 H 423.322 1.21622 1.37406 0
M  V30 4713 H 421.704 0.566451 3.91928 0
M  V30 4714 H 422.878 3.32968 3.18542 0
M  V30 4715 H 421.193 2.89732 2.99073 0
M  V30 4716 H 423.79 1.21658 5.20676 0
M  V30 4717 H 424.133 -0.139286 4.16067 0
M  V30 4718 H 424.666 1.49226 3.6875 0
M  V30 4719 H 421.405 4.14989 5.07409 0
M  V30 4720 H 420.925 2.48149 5.46061 0
M  V30 4721 H 422.604 3.01371 5.72525 0
M  V30 4722 N 422.737 -1.36956 0.779787 0
M  V30 4723 C 423.7 -2.2851 0.177662 0
M  V30 4724 C 424.7 -1.48393 -0.619377 0
M  V30 4725 O 425.89 -1.68505 -0.441785 0
M  V30 4726 C 423.022 -3.32428 -0.755279 0
M  V30 4727 H 424.215 -2.83269 0.984823 0
M  V30 4728 H 421.768 -1.46358 0.548544 0
M  V30 4729 H 422.503 -2.82808 -1.58714 0
M  V30 4730 H 422.288 -3.91659 -0.185817 0
M  V30 4731 H 423.778 -4.00824 -1.17174 0
M  V30 4732 N 424.215 -0.530993 -1.48385 0
M  V30 4733 C 425.492 0.0671788 -1.95485 0
M  V30 4734 C 425.872 1.51191 -1.47324 0
M  V30 4735 O 425.22 2.17507 -0.700202 0
M  V30 4736 C 425.43 -0.0511206 -3.48963 0
M  V30 4737 C 426.778 0.107632 -4.24464 0
M  V30 4738 O 427.802 0.0226248 -3.56193 0
M  V30 4739 O 426.661 0.285972 -5.45751 0
M  V30 4740 H 423.755 0.0787365 -0.823243 0
M  V30 4741 H 426.301 -0.595662 -1.58902 0
M  V30 4742 H 425.073 -1.05747 -3.7674 0
M  V30 4743 H 424.696 0.650525 -3.92242 0
M  V30 4744 N 425.693 1.55336 -0.266172 0
M  V30 4745 C 426.623 2.25146 0.618981 0
M  V30 4746 C 427.604 1.23845 1.16604 0
M  V30 4747 O 428.789 1.52544 1.20183 0
M  V30 4748 C 425.919 2.96572 1.80728 0
M  V30 4749 C 424.873 4.04726 1.39215 0
M  V30 4750 C 424.199 4.63678 2.66283 0
M  V30 4751 C 425.499 5.19407 0.548942 0
M  V30 4752 H 427.193 2.99377 0.0368116 0
M  V30 4753 H 424.739 1.43991 0.0162651 0
M  V30 4754 H 426.692 3.44116 2.43232 0
M  V30 4755 H 425.416 2.19861 2.41514 0
M  V30 4756 H 424.075 3.57979 0.790351 0
M  V30 4757 H 423.723 3.83646 3.25308 0
M  V30 4758 H 423.423 5.367 2.39222 0
M  V30 4759 H 424.947 5.13967 3.29651 0
M  V30 4760 H 426.361 5.63059 1.07876 0
M  V30 4761 H 424.758 5.98936 0.373593 0
M  V30 4762 H 425.828 4.8295 -0.434394 0
M  V30 4763 N 427.171 -0.0066808 1.57599 0
M  V30 4764 C 428.081 -1.01671 2.11424 0
M  V30 4765 C 429.097 -1.38143 1.05795 0
M  V30 4766 O 430.273 -1.47011 1.37658 0
M  V30 4767 C 427.338 -2.29192 2.60139 0
M  V30 4768 C 426.399 -1.99094 3.80342 0
M  V30 4769 C 425.632 -3.20535 4.26724 0
M  V30 4770 O 425.855 -4.3199 3.72479 0
M  V30 4771 O 424.789 -3.04924 5.18946 0
M  V30 4772 H 428.615 -0.589181 2.9793 0
M  V30 4773 H 426.2 -0.225091 1.47695 0
M  V30 4774 H 428.082 -3.0412 2.917 0
M  V30 4775 H 426.757 -2.71195 1.76733 0
M  V30 4776 H 425.664 -1.21663 3.53764 0
M  V30 4777 H 426.997 -1.61931 4.648 0
M  V30 4778 N 428.649 -1.55105 -0.279332 0
M  V30 4779 C 429.874 -1.7976 -1.03446 0
M  V30 4780 C 430.299 -0.565952 -1.79384 0
M  V30 4781 O 429.657 0.484259 -1.74713 0
M  V30 4782 C 429.705 -3.0179 -1.97371 0
M  V30 4783 O 428.809 -2.76432 -3.06038 0
M  V30 4784 H 428.15 -0.594334 -0.29608 0
M  V30 4785 H 430.68 -2.02235 -0.310165 0
M  V30 4786 H 430.69 -3.30351 -2.39441 0
M  V30 4787 H 429.365 -3.91085 -1.4151 0
M  V30 4788 H 427.942 -2.58949 -2.68328 0
M  V30 4789 N 430.127 0.543554 -1.4793 0
M  V30 4790 C 431.543 0.870806 -1.3375 0
M  V30 4791 C 431.743 1.9864 -0.338261 0
M  V30 4792 O 430.799 2.51305 0.245371 0
M  V30 4793 C 432.112 1.25114 -2.73435 0
M  V30 4794 C 433.66 1.3618 -2.81823 0
M  V30 4795 C 434.135 1.77563 -4.22179 0
M  V30 4796 N 435.626 1.8469 -4.24787 0
M  V30 4797 C 436.361 2.18067 -5.30315 0
M  V30 4798 N 435.857 2.49963 -6.46135 0
M  V30 4799 N 437.65 2.18958 -5.17701 0
M  V30 4800 H 429.801 -0.19275 -2.11524 0
M  V30 4801 H 432.064 -0.0235777 -0.947707 0
M  V30 4802 H 431.77 0.50514 -3.48053 0
M  V30 4803 H 431.644 2.20431 -3.06088 0
M  V30 4804 H 434.031 2.09859 -2.07468 0
M  V30 4805 H 434.112 0.390169 -2.52807 0
M  V30 4806 H 433.756 1.04449 -4.97044 0
M  V30 4807 H 433.686 2.75753 -4.48629 0
M  V30 4808 H 436.177 1.62372 -3.41239 0
M  V30 4809 H 436.49 2.74497 -7.22406 0
M  V30 4810 H 434.835 2.47513 -6.49432 0
M  V30 4811 H 438.026 1.93488 -4.2624 0
M  V30 4812 H 438.199 2.44639 -6.00047 0
M  V30 4813 N 431.605 1.3629 0.791371 0
M  V30 4814 C 432.854 1.29742 1.54434 0
M  V30 4815 C 433.167 -0.121729 1.95221 0
M  V30 4816 O 434.373 -0.309579 2.69729 0
M  V30 4817 C 432.829 2.27623 2.78776 0
M  V30 4818 C 432.437 3.74963 2.45166 0
M  V30 4819 C 434.181 2.30047 3.56761 0
M  V30 4820 C 432.088 4.64626 3.65891 0
M  V30 4821 H 431.018 0.482113 0.579727 0
M  V30 4822 H 433.669 1.61642 0.868565 0
M  V30 4823 H 432.051 1.88714 3.48142 0
M  V30 4824 H 433.225 4.22596 1.83709 0
M  V30 4825 H 431.54 3.75295 1.80396 0
M  V30 4826 H 434.137 2.94247 4.46456 0
M  V30 4827 H 434.48 1.30846 3.95203 0
M  V30 4828 H 435.013 2.67563 2.94372 0
M  V30 4829 H 431.752 5.64883 3.32547 0
M  V30 4830 H 431.272 4.2171 4.26521 0
M  V30 4831 H 432.951 4.80801 4.32943 0
M  V30 4832 N 433.083 -1.0153 1.20538 0
M  V30 4833 C 434.03 -2.10098 0.955383 0
M  V30 4834 C 435 -1.65702 -0.114878 0
M  V30 4835 O 436.185 -1.90776 0.0301118 0
M  V30 4836 C 433.325 -3.41236 0.514969 0
M  V30 4837 C 432.438 -3.99102 1.65353 0
M  V30 4838 C 431.573 -5.18306 1.16329 0
M  V30 4839 C 430.612 -5.68258 2.27485 0
M  V30 4840 N 429.749 -6.78722 1.7967 0
M  V30 4841 H 434.589 -2.30818 1.88486 0
M  V30 4842 H 432.126 -1.13189 0.939499 0
M  V30 4843 H 434.084 -4.16504 0.240935 0
M  V30 4844 H 432.714 -3.20585 -0.377512 0
M  V30 4845 H 431.766 -3.20918 2.04245 0
M  V30 4846 H 433.078 -4.32177 2.49047 0
M  V30 4847 H 432.232 -6.00782 0.845302 0
M  V30 4848 H 430.971 -4.86799 0.296254 0
M  V30 4849 H 429.976 -4.84385 2.60099 0
M  V30 4850 H 431.201 -6.01798 3.14667 0
M  V30 4851 H 429.147 -6.49042 0.95295 0
M  V30 4852 H 429.064 -7.10996 2.56944 0
M  V30 4853 H 430.332 -7.64759 1.50875 0
M  V30 4854 N 434.561 -1.01147 -1.20859 0
M  V30 4855 C 435.807 -0.708598 -1.90658 0
M  V30 4856 C 436.162 0.753069 -1.7705 0
M  V30 4857 O 435.455 1.53952 -1.14059 0
M  V30 4858 C 435.649 -1.0727 -3.40922 0
M  V30 4859 C 435.478 -2.56821 -3.69152 0
M  V30 4860 C 434.248 -3.23524 -3.8815 0
M  V30 4861 C 436.446 -3.54997 -3.72131 0
M  V30 4862 N 434.428 -4.62359 -4.03853 0
M  V30 4863 C 435.799 -4.79371 -3.93196 0
M  V30 4864 C 437.854 -3.49042 -3.55069 0
M  V30 4865 C 436.557 -5.98512 -3.98969 0
M  V30 4866 C 438.583 -4.67579 -3.6211 0
M  V30 4867 C 437.945 -5.9076 -3.83643 0
M  V30 4868 H 434.044 -0.31088 -0.71755 0
M  V30 4869 H 436.628 -1.29526 -1.45366 0
M  V30 4870 H 434.799 -0.51443 -3.84978 0
M  V30 4871 H 436.531 -0.723891 -3.98173 0
M  V30 4872 H 433.286 -2.73958 -3.86321 0
M  V30 4873 H 433.71 -5.34427 -4.15592 0
M  V30 4874 H 438.352 -2.54808 -3.37391 0
M  V30 4875 H 436.07 -6.93132 -4.15444 0
M  V30 4876 H 439.656 -4.64581 -3.50222 0
M  V30 4877 H 438.536 -6.8095 -3.88944 0
M  V30 4878 N 436.039 1.36541 -0.78704 0
M  V30 4879 C 436.989 2.27459 -0.156957 0
M  V30 4880 C 437.973 1.46843 0.657709 0
M  V30 4881 O 439.165 1.69245 0.518173 0
M  V30 4882 C 436.294 3.35893 0.709278 0
M  V30 4883 C 435.38 4.23947 -0.114049 0
M  V30 4884 N 435.771 4.92145 -1.16736 0
M  V30 4885 C 434.069 4.4587 0.107497 0
M  V30 4886 C 434.77 5.57261 -1.66837 0
M  V30 4887 N 433.746 5.3473 -0.977992 0
M  V30 4888 H 437.548 2.77669 -0.963185 0
M  V30 4889 H 435.062 1.49839 -0.62627 0
M  V30 4890 H 437.059 3.99953 1.17656 0
M  V30 4891 H 435.719 2.87238 1.51408 0
M  V30 4892 H 436.73 4.94169 -1.54976 0
M  V30 4893 H 433.407 4.08056 0.882994 0
M  V30 4894 H 434.797 6.21728 -2.54762 0
M  V30 4895 N 437.518 0.538854 1.48102 0
M  V30 4896 C 438.428 -0.222648 2.33541 0
M  V30 4897 C 439.444 -0.930225 1.47047 0
M  V30 4898 O 440.62 -0.903211 1.80011 0
M  V30 4899 C 437.685 -1.25064 3.23357 0
M  V30 4900 C 436.746 -0.552469 4.2573 0
M  V30 4901 C 435.979 -1.53149 5.11254 0
M  V30 4902 O 436.202 -2.76487 4.9891 0
M  V30 4903 O 435.136 -1.06602 5.92385 0
M  V30 4904 H 438.962 0.477707 2.99919 0
M  V30 4905 H 436.547 0.299669 1.46364 0
M  V30 4906 H 438.429 -1.8445 3.78888 0
M  V30 4907 H 437.104 -1.93325 2.59629 0
M  V30 4908 H 436.011 0.082114 3.7401 0
M  V30 4909 H 437.344 0.0883526 4.92121 0
M  V30 4910 N 438.996 -1.55193 0.274407 0
M  V30 4911 C 440.273 -1.91584 -0.394331 0
M  V30 4912 C 440.653 -1.19858 -1.73774 0
M  V30 4913 O 440.001 -0.3252 -2.26174 0
M  V30 4914 C 440.211 -3.4487 -0.535311 0
M  V30 4915 C 441.559 -4.16636 -0.818534 0
M  V30 4916 O 442.583 -3.5076 -0.620146 0
M  V30 4917 O 441.442 -5.33209 -1.19792 0
M  V30 4918 H 438.536 -0.798349 -0.215794 0
M  V30 4919 H 441.082 -1.66646 0.320507 0
M  V30 4920 H 439.854 -3.89145 0.410141 0
M  V30 4921 H 439.477 -3.75759 -1.29964 0
M  V30 4922 N 440.474 -0.00167713 -1.576 0
M  V30 4923 C 441.704 0.692754 -1.94639 0
M  V30 4924 C 442.112 1.67744 -0.87513 0
M  V30 4925 O 441.455 1.8305 0.154382 0
M  V30 4926 C 441.517 1.47881 -3.27676 0
M  V30 4927 C 441.181 0.655518 -4.52274 0
M  V30 4928 C 442.178 -0.0575214 -5.19868 0
M  V30 4929 C 439.863 0.600994 -4.98692 0
M  V30 4930 C 441.857 -0.814052 -6.3218 0
M  V30 4931 C 439.544 -0.15926 -6.10892 0
M  V30 4932 C 440.542 -0.865515 -6.77494 0
M  V30 4933 O 440.23 -1.61336 -7.87544 0
M  V30 4934 H 439.962 0.197792 -0.646417 0
M  V30 4935 H 442.516 -0.049423 -2.05341 0
M  V30 4936 H 440.746 2.2655 -3.13388 0
M  V30 4937 H 442.435 2.05874 -3.49816 0
M  V30 4938 H 443.201 -0.0245611 -4.84994 0
M  V30 4939 H 439.08 1.14025 -4.46676 0
M  V30 4940 H 442.624 -1.36584 -6.84098 0
M  V30 4941 H 438.521 -0.194035 -6.45208 0
M  V30 4942 H 439.289 -1.53025 -8.04068 0
M  V30 4943 N 441.952 1.55251 0.271103 0
M  V30 4944 C 443.201 1.75151 1.00025 0
M  V30 4945 C 443.514 0.561041 1.87381 0
M  V30 4946 O 444.72 0.642506 2.63788 0
M  V30 4947 C 443.176 3.09999 1.82835 0
M  V30 4948 C 442.784 4.3662 1.00336 0
M  V30 4949 C 444.528 3.39249 2.55168 0
M  V30 4950 C 442.435 5.62506 1.82595 0
M  V30 4951 H 441.365 0.652877 0.377183 0
M  V30 4952 H 444.016 1.81708 0.255843 0
M  V30 4953 H 442.398 2.97485 2.61378 0
M  V30 4954 H 443.572 4.60055 0.261959 0
M  V30 4955 H 441.887 4.14527 0.394486 0
M  V30 4956 H 444.484 4.3051 3.1712 0
M  V30 4957 H 444.827 2.59467 3.2555 0
M  V30 4958 H 445.36 3.52869 1.83653 0
M  V30 4959 H 442.099 6.45041 1.16631 0
M  V30 4960 H 441.619 5.43211 2.54327 0
M  V30 4961 H 443.298 6.00875 2.39913 0
M  V30 4962 N 443.43 -0.535701 1.48216 0
M  V30 4963 C 444.655 -1.32149 1.59848 0
M  V30 4964 C 445.08 -1.86338 0.256842 0
M  V30 4965 O 444.438 -1.64107 -0.770632 0
M  V30 4966 C 444.486 -2.45224 2.64381 0
M  V30 4967 O 443.59 -3.48093 2.21144 0
M  V30 4968 H 442.931 -0.391634 0.536208 0
M  V30 4969 H 445.461 -0.645202 1.94161 0
M  V30 4970 H 445.471 -2.91491 2.85476 0
M  V30 4971 H 444.146 -2.05143 3.61786 0
M  V30 4972 H 442.723 -3.07984 2.10239 0
M  V30 4973 N 444.908 -1.36708 -0.784132 0
M  V30 4974 C 445.838 -1.34153 -1.91116 0
M  V30 4975 C 446.819 -0.212121 -1.68772 0
M  V30 4976 O 448.004 -0.410581 -1.8981 0
M  V30 4977 C 445.134 -1.13535 -3.28218 0
M  V30 4978 C 444.088 -2.23356 -3.65097 0
M  V30 4979 C 443.414 -1.87875 -5.00607 0
M  V30 4980 C 444.714 -3.65473 -3.73131 0
M  V30 4981 H 446.408 -2.28459 -1.93512 0
M  V30 4982 H 443.954 -1.09973 -0.929618 0
M  V30 4983 H 445.907 -1.10381 -4.06687 0
M  V30 4984 H 444.631 -0.156804 -3.26223 0
M  V30 4985 H 443.29 -2.25645 -2.88929 0
M  V30 4986 H 442.938 -0.885814 -4.95139 0
M  V30 4987 H 442.638 -2.61406 -5.26252 0
M  V30 4988 H 444.162 -1.86286 -5.81489 0
M  V30 4989 H 445.576 -3.65382 -4.41779 0
M  V30 4990 H 443.973 -4.37953 -4.10265 0
M  V30 4991 H 445.043 -3.99995 -2.74102 0
M  V30 4992 N 446.386 1.0089 -1.21074 0
M  V30 4993 C 447.316 2.1145 -0.990523 0
M  V30 4994 C 448.297 1.69897 0.0831699 0
M  V30 4995 O 449.482 1.94052 -0.0758853 0
M  V30 4996 C 446.612 3.42914 -0.550177 0
M  V30 4997 C 445.566 3.98244 -1.56799 0
M  V30 4998 C 444.892 5.25568 -0.984013 0
M  V30 4999 C 446.192 4.30752 -2.95381 0
M  V30 5000 H 447.886 2.3013 -1.91521 0
M  V30 5001 H 445.432 1.10592 -0.92225 0
M  V30 5002 H 447.385 4.19653 -0.383305 0
M  V30 5003 H 446.109 3.24014 0.41015 0
M  V30 5004 H 444.768 3.23621 -1.72236 0
M  V30 5005 H 444.416 5.02998 -0.0155216 0
M  V30 5006 H 444.116 5.63551 -1.66384 0
M  V30 5007 H 445.64 6.04955 -0.828378 0
M  V30 5008 H 447.054 4.98349 -2.8341 0
M  V30 5009 H 445.451 4.79869 -3.60341 0
M  V30 5010 H 446.521 3.39192 -3.46521 0
M  V30 5011 N 447.864 1.01787 1.20321 0
M  V30 5012 C 448.774 0.598898 2.26827 0
M  V30 5013 C 449.79 -0.36418 1.70146 0
M  V30 5014 O 450.966 -0.224812 2.00141 0
M  V30 5015 C 448.031 -0.0549769 3.46656 0
M  V30 5016 C 447.092 0.954205 4.18561 0
M  V30 5017 C 446.325 0.331439 5.3267 0
M  V30 5018 O 446.548 -0.86851 5.63749 0
M  V30 5019 O 445.482 1.0488 5.92692 0
M  V30 5020 H 449.308 1.48562 2.64883 0
M  V30 5021 H 446.893 0.787434 1.26964 0
M  V30 5022 H 448.775 -0.420102 4.19301 0
M  V30 5023 H 447.45 -0.915876 3.10473 0
M  V30 5024 H 446.357 1.37072 3.48083 0
M  V30 5025 H 447.69 1.78511 4.58688 0
M  V30 5026 N 449.342 -1.36122 0.79427 0
M  V30 5027 C 450.252 -2.33769 0.197296 0
M  V30 5028 C 451.268 -1.61276 -0.653153 0
M  V30 5029 O 452.444 -1.9323 -0.5678 0
M  V30 5030 C 449.509 -3.40474 -0.654098 0
M  V30 5031 C 448.57 -4.28759 0.215411 0
M  V30 5032 C 447.803 -5.30368 -0.595443 0
M  V30 5033 O 448.026 -5.40211 -1.83107 0
M  V30 5034 O 446.96 -6.019 0.00721351 0
M  V30 5035 H 450.786 -2.86597 1.00478 0
M  V30 5036 H 448.371 -1.38676 0.555818 0
M  V30 5037 H 450.253 -4.05703 -1.13944 0
M  V30 5038 H 448.928 -2.89937 -1.43938 0
M  V30 5039 H 447.835 -3.66554 0.747615 0
M  V30 5040 H 449.168 -4.82661 0.964332 0
M  V30 5041 N 450.82 -0.546701 -1.47814 0
M  V30 5042 C 452.05 -0.0232519 -2.06587 0
M  V30 5043 C 452.458 1.2712 -1.40133 0
M  V30 5044 O 451.801 1.77091 -0.488305 0
M  V30 5045 C 451.863 0.254117 -3.58601 0
M  V30 5046 C 451.527 -0.949331 -4.47031 0
M  V30 5047 C 452.524 -1.85216 -4.85789 0
M  V30 5048 C 450.209 -1.16104 -4.88697 0
M  V30 5049 C 452.203 -2.95047 -5.65001 0
M  V30 5050 C 449.89 -2.26247 -5.67676 0
M  V30 5051 C 450.888 -3.1555 -6.05737 0
M  V30 5052 O 450.576 -4.23784 -6.83127 0
M  V30 5053 H 450.308 -0.0380082 -0.674931 0
M  V30 5054 H 452.862 -0.756631 -1.90956 0
M  V30 5055 H 451.092 1.04168 -3.72406 0
M  V30 5056 H 452.781 0.72167 -3.99433 0
M  V30 5057 H 453.547 -1.70061 -4.54207 0
M  V30 5058 H 449.426 -0.475159 -4.58545 0
M  V30 5059 H 452.97 -3.64778 -5.94628 0
M  V30 5060 H 448.867 -2.41379 -5.98671 0
M  V30 5061 H 449.635 -4.21701 -7.01506 0
M  V30 5062 N 452.299 1.55045 -0.282633 0
M  V30 5063 C 453.576 1.9179 0.384166 0
M  V30 5064 C 453.956 1.20778 1.73136 0
M  V30 5065 O 453.304 0.33719 2.25998 0
M  V30 5066 C 453.514 3.45149 0.517014 0
M  V30 5067 C 454.862 4.17064 0.796427 0
M  V30 5068 O 455.886 3.51084 0.601535 0
M  V30 5069 O 454.745 5.33837 1.16962 0
M  V30 5070 H 451.839 0.799483 0.211558 0
M  V30 5071 H 454.385 1.66474 -0.32934 0
M  V30 5072 H 453.157 3.88922 -0.430772 0
M  V30 5073 H 452.78 3.76443 1.2797 0
M  V30 5074 N 453.777 0.010035 1.57597 0
M  V30 5075 C 455.026 -0.671945 1.90178 0
M  V30 5076 C 455.339 -1.74376 0.886131 0
M  V30 5077 O 456.545 -2.48107 1.10252 0
M  V30 5078 C 455.001 -1.24636 3.3763 0
M  V30 5079 C 454.609 -0.208838 4.47513 0
M  V30 5080 C 456.353 -1.90595 3.79307 0
M  V30 5081 C 454.26 -0.793814 5.86048 0
M  V30 5082 H 453.19 -0.25474 0.709665 0
M  V30 5083 H 455.841 0.0722206 1.83358 0
M  V30 5084 H 454.223 -2.04152 3.3932 0
M  V30 5085 H 455.397 0.562463 4.57354 0
M  V30 5086 H 453.712 0.350889 4.14919 0
M  V30 5087 H 456.309 -2.35284 4.80151 0
M  V30 5088 H 456.652 -2.74074 3.13352 0
M  V30 5089 H 457.185 -1.17798 3.79958 0
M  V30 5090 H 453.924 0.00240855 6.555 0
M  V30 5091 H 453.444 -1.53404 5.79851 0
M  V30 5092 H 455.123 -1.2894 6.34022 0
M  V30 5093 N 455.255 -1.55392 -0.262866 0
M  V30 5094 C 456.503 -1.76127 -0.991147 0
M  V30 5095 C 456.824 -0.571083 -1.8645 0
M  V30 5096 O 456.094 0.413698 -1.91482 0
M  V30 5097 H 454.674 -0.649528 -0.368948 0
M  V30 5098 H 457.336 -1.9281 -0.284655 0
M  V30 5099 H 456.432 -2.6663 -1.62219 0
M  V30 5100 N 456.733 0.527833 -1.48498 0
M  V30 5101 C 457.981 1.28101 -1.56316 0
M  V30 5102 C 458.302 1.9352 -0.239781 0
M  V30 5103 O 457.572 1.81433 0.738849 0
M  V30 5104 H 456.152 0.475793 -0.575873 0
M  V30 5105 H 458.814 0.614052 -1.84974 0
M  V30 5106 H 457.91 2.05916 -2.34532 0
M  V30 5107 N 458.211 1.37122 0.776871 0
M  V30 5108 C 459.174 1.32301 1.8716 0
M  V30 5109 C 460.174 0.228099 1.59174 0
M  V30 5110 O 461.364 0.483642 1.67352 0
M  V30 5111 C 458.496 1.054 3.24197 0
M  V30 5112 H 459.689 2.29673 1.92848 0
M  V30 5113 H 457.242 1.22077 0.97606 0
M  V30 5114 H 457.977 0.0853872 3.24188 0
M  V30 5115 H 457.762 1.84648 3.45901 0
M  V30 5116 H 459.252 1.04664 4.04271 0
M  V30 5117 N 459.689 -1.00246 1.21608 0
M  V30 5118 C 460.935 -1.74319 1.03638 0
M  V30 5119 C 461.268 -1.89408 -0.428749 0
M  V30 5120 O 460.543 -1.43026 -1.3181 0
M  V30 5121 C 460.826 -3.15431 1.73711 0
M  V30 5122 C 460.679 -3.08049 3.27759 0
M  V30 5123 C 461.998 -4.14407 1.48173 0
M  V30 5124 H 459.117 -0.632741 0.377899 0
M  V30 5125 H 461.759 -1.16853 1.49818 0
M  V30 5126 H 459.909 -3.64493 1.34452 0
M  V30 5127 H 461.581 -2.66681 3.76403 0
M  V30 5128 H 459.824 -2.45088 3.57931 0
M  V30 5129 H 460.495 -4.07862 3.71958 0
M  V30 5130 H 462.971 -3.74061 1.82258 0
M  V30 5131 H 461.847 -5.11279 1.99713 0
M  V30 5132 H 462.108 -4.40174 0.412273 0
M  V30 5133 N 461.167 -1.02423 -1.1978 0
M  V30 5134 C 462.413 -0.72878 -1.89896 0
M  V30 5135 C 462.768 0.734248 -1.77839 0
M  V30 5136 O 462.061 1.52733 -1.15685 0
M  V30 5137 C 462.255 -1.1088 -3.39765 0
M  V30 5138 C 462.084 -2.60722 -3.66407 0
M  V30 5139 C 460.854 -3.27623 -3.84696 0
M  V30 5140 C 463.052 -3.58924 -3.68345 0
M  V30 5141 N 461.034 -4.66617 -3.98926 0
M  V30 5142 C 462.405 -4.83514 -3.8809 0
M  V30 5143 C 464.46 -3.52788 -3.51347 0
M  V30 5144 C 463.163 -6.0271 -3.92598 0
M  V30 5145 C 465.189 -4.71394 -3.5713 0
M  V30 5146 C 464.551 -5.94796 -3.77356 0
M  V30 5147 H 460.65 -0.318473 -0.714212 0
M  V30 5148 H 463.234 -1.3106 -1.43984 0
M  V30 5149 H 461.405 -0.555233 -3.84411 0
M  V30 5150 H 463.137 -0.766082 -3.97383 0
M  V30 5151 H 459.892 -2.7804 -3.83393 0
M  V30 5152 H 460.316 -5.38805 -4.099 0
M  V30 5153 H 464.958 -2.58372 -3.3467 0
M  V30 5154 H 462.676 -6.97499 -4.08069 0
M  V30 5155 H 466.262 -4.6827 -3.45275 0
M  V30 5156 H 465.142 -6.85037 -3.81699 0
M  V30 5157 N 462.645 1.35699 -0.801477 0
M  V30 5158 C 463.593 2.3177 -0.196317 0
M  V30 5159 C 464.587 1.56388 0.651081 0
M  V30 5160 O 465.793 1.71557 0.544815 0
M  V30 5161 H 462.168 0.750669 -0.0447189 0
M  V30 5162 H 464.139 2.8036 -1.02181 0
M  V30 5163 C 462.888 3.41671 0.644702 0
M  V30 5164 H 462.211 3.998 0.0019921 0
M  V30 5165 H 463.651 4.11184 1.0346 0
M  V30 5166 C 462.11 2.84271 1.80808 0
M  V30 5167 O 462.64 2.77408 2.9053 0
M  V30 5168 N 460.846 2.41391 1.61799 0
M  V30 5169 H 460.393 2.47173 0.725493 0
M  V30 5170 H 460.351 2.03334 2.39797 0
M  V30 5171 N 464.123 0.554532 1.47522 0
M  V30 5172 C 465.353 0.0342074 2.06572 0
M  V30 5173 C 465.761 -1.26375 1.40805 0
M  V30 5174 O 465.104 -1.7683 0.49769 0
M  V30 5175 C 465.166 -0.235096 3.5873 0
M  V30 5176 C 464.83 0.973024 4.46521 0
M  V30 5177 C 465.827 1.8779 4.848 0
M  V30 5178 C 463.512 1.18694 4.88075 0
M  V30 5179 C 465.506 2.98039 5.63428 0
M  V30 5180 C 463.193 2.29254 5.66468 0
M  V30 5181 C 464.191 3.18757 6.04055 0
M  V30 5182 O 463.879 4.27401 6.8087 0
M  V30 5183 H 463.611 0.041587 0.67472 0
M  V30 5184 H 466.165 0.766748 1.90552 0
M  V30 5185 H 464.395 -1.02191 3.72953 0
M  V30 5186 H 466.084 -0.700477 3.9981 0
M  V30 5187 H 466.85 1.72467 4.53299 0
M  V30 5188 H 462.729 0.49947 4.58286 0
M  V30 5189 H 466.273 3.67926 5.92685 0
M  V30 5190 H 462.17 2.4455 5.97382 0
M  V30 5191 H 462.938 4.25415 6.9926 0
M  V30 5192 N 465.601 -1.54893 0.290851 0
M  V30 5193 C 466.548 -2.23138 -0.58974 0
M  V30 5194 C 467.518 -1.21036 -1.13752 0
M  V30 5195 O 468.703 -1.49626 -1.18392 0
M  V30 5196 C 465.843 -2.96811 -1.76061 0
M  V30 5197 C 464.956 -4.13665 -1.24519 0
M  V30 5198 C 464.091 -4.74944 -2.3791 0
M  V30 5199 C 463.13 -5.83963 -1.83451 0
M  V30 5200 N 462.267 -6.39239 -2.90376 0
M  V30 5201 H 467.107 -2.98 -0.00114915 0
M  V30 5202 H 464.644 -1.47096 0.0112006 0
M  V30 5203 H 466.602 -3.37751 -2.44909 0
M  V30 5204 H 465.232 -2.24344 -2.32098 0
M  V30 5205 H 464.284 -3.77737 -0.449288 0
M  V30 5206 H 465.596 -4.92238 -0.806424 0
M  V30 5207 H 464.75 -5.18684 -3.14724 0
M  V30 5208 H 463.489 -3.95682 -2.85109 0
M  V30 5209 H 462.494 -5.39657 -1.05122 0
M  V30 5210 H 463.719 -6.65103 -1.37169 0
M  V30 5211 H 461.665 -5.62864 -3.36927 0
M  V30 5212 H 461.582 -7.13129 -2.50965 0
M  V30 5213 H 462.85 -6.87637 -3.67118 0
M  V30 5214 N 467.08 -0.0183926 -1.57589 0
M  V30 5215 C 468.027 0.967022 -2.09565 0
M  V30 5216 C 468.997 1.32983 -0.995225 0
M  V30 5217 O 470.182 1.42501 -1.26878 0
M  V30 5218 C 467.322 2.24772 -2.61861 0
M  V30 5219 C 466.435 1.94232 -3.85873 0
M  V30 5220 C 465.57 3.16518 -4.26603 0
M  V30 5221 C 464.609 2.81748 -5.43401 0
M  V30 5222 N 463.746 3.96626 -5.79338 0
M  V30 5223 H 468.586 0.516874 -2.93483 0
M  V30 5224 H 466.123 0.243544 -1.4507 0
M  V30 5225 H 468.081 2.99667 -2.90268 0
M  V30 5226 H 466.711 2.67423 -1.8079 0
M  V30 5227 H 465.763 1.09625 -3.64262 0
M  V30 5228 H 467.075 1.64616 -4.70853 0
M  V30 5229 H 466.229 3.99743 -4.56389 0
M  V30 5230 H 464.968 3.49286 -3.40368 0
M  V30 5231 H 463.973 1.96933 -5.1332 0
M  V30 5232 H 465.198 2.50207 -6.31327 0
M  V30 5233 H 463.144 4.29257 -4.96059 0
M  V30 5234 H 463.061 3.70598 -6.58933 0
M  V30 5235 H 464.329 4.80586 -6.13724 0
M  V30 5236 N 468.558 1.5553 0.254621 0
M  V30 5237 C 469.491 1.84624 1.34124 0
M  V30 5238 C 470.469 0.700693 1.46728 0
M  V30 5239 O 471.653 0.94564 1.63064 0
M  V30 5240 C 468.78 2.02412 2.71564 0
M  V30 5241 C 467.826 3.25028 2.7615 0
M  V30 5242 S 468.659 4.81893 2.33538 0
M  V30 5243 C 469.815 5.02677 3.72917 0
M  V30 5244 H 470.048 2.76501 1.09245 0
M  V30 5245 H 467.581 1.47537 0.455211 0
M  V30 5246 H 469.539 2.13345 3.50705 0
M  V30 5247 H 468.2 1.11391 2.93685 0
M  V30 5248 H 467.393 3.34418 3.77069 0
M  V30 5249 H 466.995 3.12781 2.05046 0
M  V30 5250 H 469.287 4.89546 4.68349 0
M  V30 5251 H 470.23 6.0468 3.68467 0
M  V30 5252 H 470.638 4.30561 3.65072 0
M  V30 5253 N 470.036 -0.519951 1.48776 0
M  V30 5254 C 471.313 -1.28123 1.47797 0
M  V30 5255 C 471.693 -2.10196 0.195157 0
M  V30 5256 O 471.041 -2.13167 -0.822925 0
M  V30 5257 C 471.251 -2.15413 2.74587 0
M  V30 5258 C 472.599 -2.75225 3.23321 0
M  V30 5259 O 473.623 -2.25694 2.75574 0
M  V30 5260 O 472.482 -3.65346 4.06429 0
M  V30 5261 H 469.576 -0.578793 0.590701 0
M  V30 5262 H 472.122 -0.535779 1.6102 0
M  V30 5263 H 470.894 -1.54617 3.59457 0
M  V30 5264 H 470.517 -2.97186 2.64132 0
M  V30 5265 N 471.514 -1.37532 -0.769588 0
M  V30 5266 C 472.761 -1.3286 -1.52822 0
M  V30 5267 C 473.089 0.0862597 -1.94309 0
M  V30 5268 O 472.344 1.05995 -1.6451 0
M  V30 5269 C 472.643 -2.21558 -2.8044 0
M  V30 5270 C 472.309 -3.69796 -2.57996 0
M  V30 5271 C 470.971 -4.10194 -2.51583 0
M  V30 5272 C 473.323 -4.63699 -2.37976 0
M  V30 5273 C 470.651 -5.42608 -2.23144 0
M  V30 5274 C 473.003 -5.96353 -2.1106 0
M  V30 5275 C 471.667 -6.35853 -2.03093 0
M  V30 5276 H 470.937 -0.486168 -0.559215 0
M  V30 5277 H 473.584 -1.69757 -0.886277 0
M  V30 5278 H 471.889 -1.77663 -3.49204 0
M  V30 5279 H 473.586 -2.15256 -3.38328 0
M  V30 5280 H 470.176 -3.37759 -2.63851 0
M  V30 5281 H 474.36 -4.33346 -2.41919 0
M  V30 5282 H 469.616 -5.72173 -2.15472 0
M  V30 5283 H 473.79 -6.68667 -1.94568 0
M  V30 5284 H 471.417 -7.38382 -1.8082 0
M  V30 5285 N 472.992 0.995999 -1.22138 0
M  V30 5286 C 473.902 2.11985 -1.00496 0
M  V30 5287 C 474.918 1.7394 0.0457701 0
M  V30 5288 O 476.094 2.00868 -0.146273 0
M  V30 5289 C 473.159 3.41779 -0.582086 0
M  V30 5290 C 472.22 3.93943 -1.70608 0
M  V30 5291 C 471.453 5.17542 -1.30328 0
M  V30 5292 O 471.676 5.70114 -0.180743 0
M  V30 5293 O 470.61 5.63382 -2.11861 0
M  V30 5294 H 474.436 2.33123 -1.94647 0
M  V30 5295 H 472.021 1.10358 -1.00705 0
M  V30 5296 H 473.903 4.1989 -0.356467 0
M  V30 5297 H 472.578 3.22007 0.330592 0
M  V30 5298 H 471.485 3.17019 -1.98619 0
M  V30 5299 H 472.818 4.18141 -2.59651 0
M  V30 5300 N 474.47 1.03057 1.19235 0
M  V30 5301 C 475.719 0.72326 1.88287 0
M  V30 5302 C 476.032 -0.751333 1.80594 0
M  V30 5303 O 477.238 -1.17176 2.44912 0
M  V30 5304 C 475.694 1.24338 3.3774 0
M  V30 5305 C 475.302 2.74587 3.53986 0
M  V30 5306 C 477.046 1.01213 4.12257 0
M  V30 5307 C 474.953 3.20009 4.97341 0
M  V30 5308 H 473.883 0.266848 0.705201 0
M  V30 5309 H 476.534 1.24509 1.34795 0
M  V30 5310 H 474.916 0.649457 3.90638 0
M  V30 5311 H 476.09 3.39649 3.11408 0
M  V30 5312 H 474.405 2.9601 2.9286 0
M  V30 5313 H 477.002 1.32675 5.17978 0
M  V30 5314 H 477.345 -0.051001 4.16269 0
M  V30 5315 H 477.878 1.57014 3.65501 0
M  V30 5316 H 474.617 4.25659 4.98493 0
M  V30 5317 H 474.137 2.59676 5.40674 0
M  V30 5318 H 475.816 3.13447 5.66003 0
M  V30 5319 N 475.948 -1.35272 0.808662 0
M  V30 5320 C 477.178 -2.02652 0.401953 0
M  V30 5321 C 477.586 -1.6108 -0.992462 0
M  V30 5322 O 476.929 -0.804984 -1.65123 0
M  V30 5323 C 476.991 -3.57174 0.408246 0
M  V30 5324 C 476.655 -4.22019 1.75353 0
M  V30 5325 C 477.652 -4.43552 2.71215 0
M  V30 5326 C 475.337 -4.59093 2.03811 0
M  V30 5327 C 477.331 -5.01264 3.93717 0
M  V30 5328 C 475.018 -5.16519 3.26576 0
M  V30 5329 C 476.016 -5.37546 4.21347 0
M  V30 5330 O 475.704 -5.93761 5.41944 0
M  V30 5331 H 475.436 -0.656495 0.161216 0
M  V30 5332 H 477.99 -1.73829 1.0942 0
M  V30 5333 H 476.22 -3.85197 -0.340608 0
M  V30 5334 H 477.909 -4.05893 0.0235623 0
M  V30 5335 H 478.675 -4.15288 2.50522 0
M  V30 5336 H 474.554 -4.42039 1.30854 0
M  V30 5337 H 478.098 -5.17592 4.67701 0
M  V30 5338 H 473.995 -5.4421 3.47139 0
M  V30 5339 H 474.763 -6.1221 5.43269 0
M  V30 5340 N 477.426 -0.562348 -1.47226 0
M  V30 5341 C 478.374 0.195476 -2.31777 0
M  V30 5342 C 479.368 0.90433 -1.43242 0
M  V30 5343 O 480.574 0.825031 -1.59979 0
M  V30 5344 H 476.949 0.0819095 -0.747526 0
M  V30 5345 H 478.92 -0.536753 -2.93533 0
M  V30 5346 C 477.669 1.20902 -3.26003 0
M  V30 5347 H 476.992 0.672997 -3.94095 0
M  V30 5348 H 478.432 1.71006 -3.87986 0
M  V30 5349 C 476.891 2.25955 -2.49891 0
M  V30 5350 O 477.421 3.32969 -2.2471 0
M  V30 5351 N 475.627 2.00019 -2.1081 0
M  V30 5352 H 475.174 1.13006 -2.31489 0
M  V30 5353 H 475.132 2.70523 -1.60201 0
M  V30 5354 N 478.904 1.54736 -0.299062 0
M  V30 5355 C 479.814 2.27127 0.587413 0
M  V30 5356 C 480.83 1.30575 1.15005 0
M  V30 5357 O 482.006 1.63554 1.17525 0
M  V30 5358 C 479.071 2.99645 1.74395 0
M  V30 5359 C 478.132 4.11731 1.21559 0
M  V30 5360 C 477.365 4.80781 2.317 0
M  V30 5361 O 477.588 4.4918 3.51558 0
M  V30 5362 O 476.522 5.68226 1.98501 0
M  V30 5363 H 480.348 3.037 0.000250109 0
M  V30 5364 H 477.933 1.49256 -0.0655919 0
M  V30 5365 H 479.815 3.45138 2.4178 0
M  V30 5366 H 478.49 2.25969 2.31775 0
M  V30 5367 H 477.397 3.70641 0.507514 0
M  V30 5368 H 478.73 4.87379 0.687233 0
M  V30 5369 N 480.382 0.0267497 1.57577 0
M  V30 5370 C 481.659 -0.690926 1.82991 0
M  V30 5371 C 482.039 -1.90471 0.910164 0
M  V30 5372 O 481.387 -2.28474 -0.0347985 0
M  V30 5373 C 481.597 -1.07139 3.32148 0
M  V30 5374 C 482.945 -1.46402 3.98562 0
M  V30 5375 O 483.969 -1.16443 3.36629 0
M  V30 5376 O 482.828 -2.02214 5.07712 0
M  V30 5377 H 479.922 -0.338747 0.75444 0
M  V30 5378 H 482.468 0.0542506 1.69613 0
M  V30 5379 H 481.24 -0.207394 3.9075 0
M  V30 5380 H 480.863 -1.87481 3.50623 0
M  V30 5381 N 481.861 -1.55662 -0.24637 0
M  V30 5382 C 483.277 -1.48098 -0.594907 0
M  V30 5383 C 483.477 -0.717044 -1.8831 0
M  V30 5384 O 482.533 -0.246618 -2.51293 0
M  V30 5385 C 483.846 -2.92507 -0.697146 0
M  V30 5386 C 485.394 -3.02881 -0.789436 0
M  V30 5387 C 485.869 -4.48598 -0.923232 0
M  V30 5388 N 487.36 -4.52538 -0.988088 0
M  V30 5389 C 488.095 -5.62536 -1.11089 0
M  V30 5390 N 487.591 -6.82342 -1.19919 0
M  V30 5391 N 489.384 -5.50334 -1.14408 0
M  V30 5392 H 481.535 -2.0377 0.599278 0
M  V30 5393 H 483.798 -0.925145 0.20691 0
M  V30 5394 H 483.504 -3.51242 0.179396 0
M  V30 5395 H 483.378 -3.43024 -1.5689 0
M  V30 5396 H 485.765 -2.44226 -1.65643 0
M  V30 5397 H 485.846 -2.55574 0.107482 0
M  V30 5398 H 485.49 -5.07864 -0.0607927 0
M  V30 5399 H 485.42 -4.93587 -1.8352 0
M  V30 5400 H 487.911 -3.66248 -0.931167 0
M  V30 5401 H 488.224 -7.61924 -1.29197 0
M  V30 5402 H 486.569 -6.85102 -1.16876 0
M  V30 5403 H 489.76 -4.5567 -1.07158 0
M  V30 5404 H 489.933 -6.36096 -1.23634 0
M  V30 5405 N 483.339 0.512053 -1.4905 0
M  V30 5406 C 484.286 1.6148 -1.64902 0
M  V30 5407 C 485.256 1.58687 -0.490673 0
M  V30 5408 O 486.441 1.76842 -0.71636 0
M  V30 5409 C 483.581 2.99676 -1.71139 0
M  V30 5410 C 482.694 3.12568 -2.98203 0
M  V30 5411 C 481.829 4.4143 -2.95487 0
M  V30 5412 C 480.868 4.47916 -4.17179 0
M  V30 5413 N 480.005 5.68191 -4.12437 0
M  V30 5414 H 484.845 1.47271 -2.59066 0
M  V30 5415 H 482.382 0.716713 -1.28459 0
M  V30 5416 H 484.34 3.79761 -1.72736 0
M  V30 5417 H 482.97 3.12614 -0.804508 0
M  V30 5418 H 482.022 2.25618 -3.06269 0
M  V30 5419 H 483.334 3.1322 -3.88194 0
M  V30 5420 H 482.488 5.29825 -2.95585 0
M  V30 5421 H 481.227 4.43326 -2.03256 0
M  V30 5422 H 480.232 3.57925 -4.17337 0
M  V30 5423 H 481.457 4.47744 -5.1059 0
M  V30 5424 H 479.403 5.7095 -3.23036 0
M  V30 5425 H 479.32 5.70413 -4.96151 0
M  V30 5426 H 480.588 6.58823 -4.16621 0
M  V30 5427 N 484.817 1.37938 0.762283 0
M  V30 5428 C 486.228 1.30094 1.33912 0
M  V30 5429 C 486.579 -0.0472026 1.96143 0
M  V30 5430 O 485.704 -0.94917 1.94473 0
M  V30 5431 C 486.299 2.35592 2.43478 0
M  V30 5432 C 484.858 2.31353 2.96905 0
M  V30 5433 C 484.005 2.18919 1.70205 0
M  V30 5434 H 486.956 1.48423 0.561816 0
M  V30 5435 H 486.977 2.00806 3.23199 0
M  V30 5436 H 486.489 3.33701 1.98155 0
M  V30 5437 H 484.59 1.36799 3.46579 0
M  V30 5438 H 484.703 3.25147 3.51875 0
M  V30 5439 H 483.067 1.65624 1.93496 0
M  V30 5440 H 483.85 3.18956 1.26973 0
M  V30 5441 N 486.295 -0.989507 1.22664 0
M  V30 5442 C 487.541 -1.7321 1.05481 0
M  V30 5443 C 487.874 -1.89852 -0.408635 0
M  V30 5444 O 487.149 -1.44416 -1.30285 0
M  V30 5445 C 487.432 -3.1357 1.77047 0
M  V30 5446 C 487.285 -3.04555 3.31008 0
M  V30 5447 C 488.604 -4.12812 1.5256 0
M  V30 5448 H 485.723 -0.628697 0.384589 0
M  V30 5449 H 488.365 -1.15258 1.51049 0
M  V30 5450 H 486.515 -3.63046 1.3831 0
M  V30 5451 H 488.187 -2.62674 3.7921 0
M  V30 5452 H 486.43 -2.41278 3.6051 0
M  V30 5453 H 487.101 -4.03894 3.76263 0
M  V30 5454 H 489.577 -3.72106 1.86215 0
M  V30 5455 H 488.453 -5.09132 2.05124 0
M  V30 5456 H 488.714 -4.39711 0.458936 0
M  V30 5457 N 487.773 -1.03688 -1.18687 0
M  V30 5458 C 488.998 -0.757819 -1.93059 0
M  V30 5459 C 489.423 0.678353 -1.75442 0
M  V30 5460 O 488.781 1.46938 -1.06203 0
M  V30 5461 C 488.829 -1.12423 -3.42627 0
M  V30 5462 O 487.933 -0.247505 -4.11657 0
M  V30 5463 H 487.274 -0.279245 -0.602427 0
M  V30 5464 H 489.804 -1.3857 -1.5053 0
M  V30 5465 H 489.814 -1.08454 -3.93322 0
M  V30 5466 H 488.489 -2.17049 -3.54771 0
M  V30 5467 H 487.066 -0.34649 -3.71287 0
M  V30 5468 N 489.251 1.34841 -0.815825 0
M  V30 5469 C 490.183 2.28409 -0.190265 0
M  V30 5470 C 491.196 1.50705 0.615771 0
M  V30 5471 O 492.385 1.72822 0.446616 0
M  V30 5472 C 489.485 3.30441 0.752446 0
M  V30 5473 C 488.658 4.37399 -0.00922152 0
M  V30 5474 C 487.717 5.19234 0.853351 0
M  V30 5475 O 486.743 5.68404 0.300919 0
M  V30 5476 N 487.945 5.38248 2.17416 0
M  V30 5477 H 490.71 2.82732 -0.994114 0
M  V30 5478 H 488.271 1.47289 -0.672129 0
M  V30 5479 H 490.263 3.82084 1.33394 0
M  V30 5480 H 488.833 2.76565 1.45707 0
M  V30 5481 H 488.053 3.86567 -0.771979 0
M  V30 5482 H 489.341 5.05992 -0.533807 0
M  V30 5483 H 488.739 4.99961 2.6468 0
M  V30 5484 H 487.296 5.93035 2.70467 0
M  V30 5485 N 490.729 0.570148 1.46925 0
M  V30 5486 C 491.639 -0.173061 2.33961 0
M  V30 5487 C 492.655 -0.898825 1.48987 0
M  V30 5488 O 493.831 -0.864825 1.81887 0
M  V30 5489 C 490.896 -1.18177 3.25937 0
M  V30 5490 C 489.957 -0.462041 4.26806 0
M  V30 5491 C 489.19 -1.4227 5.14388 0
M  V30 5492 O 489.413 -2.65842 5.04662 0
M  V30 5493 O 488.347 -0.940127 5.94513 0
M  V30 5494 H 492.173 0.541216 2.98839 0
M  V30 5495 H 489.758 0.330647 1.45695 0
M  V30 5496 H 491.64 -1.76372 3.82715 0
M  V30 5497 H 490.315 -1.87774 2.63671 0
M  V30 5498 H 489.222 0.161429 3.73752 0
M  V30 5499 H 490.555 0.192719 4.91823 0
M  V30 5500 N 492.207 -1.54576 0.307264 0
M  V30 5501 C 493.137 -2.26708 -0.55907 0
M  V30 5502 C 494.118 -1.26893 -1.1328 0
M  V30 5503 O 495.303 -1.55677 -1.16097 0
M  V30 5504 C 492.433 -3.01259 -1.72801 0
M  V30 5505 C 491.387 -4.08275 -1.28435 0
M  V30 5506 C 490.713 -4.70575 -2.53895 0
M  V30 5507 C 492.013 -5.2068 -0.411038 0
M  V30 5508 H 493.707 -2.9937 0.042576 0
M  V30 5509 H 491.253 -1.43983 0.0219173 0
M  V30 5510 H 493.206 -3.50444 -2.34023 0
M  V30 5511 H 491.93 -2.26187 -2.356 0
M  V30 5512 H 490.589 -3.59949 -0.695161 0
M  V30 5513 H 490.237 -3.92136 -3.15021 0
M  V30 5514 H 489.937 -5.42854 -2.24908 0
M  V30 5515 H 491.461 -5.22527 -3.15908 0
M  V30 5516 H 492.875 -5.65721 -0.929097 0
M  V30 5517 H 491.272 -5.99716 -0.214664 0
M  V30 5518 H 492.342 -4.81629 0.562287 0
M  V30 5519 N 493.685 -0.035106 -1.57561 0
M  V30 5520 C 494.931 0.64318 -1.92331 0
M  V30 5521 C 495.264 1.71434 -0.912368 0
M  V30 5522 O 494.539 1.94395 0.0640303 0
M  V30 5523 C 494.822 1.25411 -3.37556 0
M  V30 5524 C 494.675 0.192109 -4.4939 0
M  V30 5525 C 495.994 2.17041 -3.82859 0
M  V30 5526 H 493.113 0.232341 -0.699419 0
M  V30 5527 H 495.755 -0.0935889 -1.89769 0
M  V30 5528 H 493.905 1.88205 -3.39869 0
M  V30 5529 H 495.577 -0.438849 -4.59208 0
M  V30 5530 H 493.82 -0.481725 -4.31117 0
M  V30 5531 H 494.491 0.659292 -5.48049 0
M  V30 5532 H 496.967 1.64228 -3.8232 0
M  V30 5533 H 495.843 2.56738 -4.85157 0
M  V30 5534 H 496.104 3.06401 -3.18702 0
M  V30 5535 N 495.163 1.55791 0.238111 0
M  V30 5536 C 496.111 1.91885 1.31464 0
M  V30 5537 C 497.105 0.798929 1.49377 0
M  V30 5538 O 498.311 0.983626 1.50747 0
M  V30 5539 H 494.686 0.609551 0.440399 0
M  V30 5540 H 496.657 2.81747 0.982925 0
M  V30 5541 C 495.406 2.23763 2.6613 0
M  V30 5542 H 494.729 3.09444 2.53149 0
M  V30 5543 H 496.169 2.52915 3.40309 0
M  V30 5544 C 494.628 1.05699 3.1989 0
M  V30 5545 O 495.158 0.309524 4.00506 0
M  V30 5546 N 493.364 0.845251 2.78036 0
M  V30 5547 H 492.911 1.4548 2.12588 0
M  V30 5548 H 492.869 0.0569973 3.14348 0
M  V30 5549 N 496.642 -0.504142 1.49319 0
M  V30 5550 C 497.891 -1.25507 1.57895 0
M  V30 5551 C 498.204 -1.93735 0.269433 0
M  V30 5552 O 499.41 -2.70492 0.233706 0
M  V30 5553 C 497.866 -2.27869 2.78574 0
M  V30 5554 C 497.474 -1.65594 4.16272 0
M  V30 5555 C 499.218 -3.0381 2.96479 0
M  V30 5556 C 497.125 -2.66048 5.28178 0
M  V30 5557 H 496.055 -0.47212 0.587894 0
M  V30 5558 H 498.706 -0.52931 1.757 0
M  V30 5559 H 497.088 -3.03594 2.54257 0
M  V30 5560 H 498.262 -0.958826 4.50714 0
M  V30 5561 H 496.577 -1.02055 4.037 0
M  V30 5562 H 499.174 -3.78925 3.77253 0
M  V30 5563 H 499.517 -3.61235 2.06918 0
M  V30 5564 H 500.05 -2.352 3.20821 0
M  V30 5565 H 496.789 -2.13408 6.19788 0
M  V30 5566 H 496.309 -3.34009 4.98195 0
M  V30 5567 H 497.988 -3.28536 5.57381 0
M  V30 5568 N 498.12 -1.38341 -0.754957 0
M  V30 5569 C 499.05 -1.38176 -1.88227 0
M  V30 5570 C 500.031 -0.247873 -1.68284 0
M  V30 5571 O 501.216 -0.45075 -1.88896 0
M  V30 5572 C 498.346 -1.20471 -3.25736 0
M  V30 5573 C 497.3 -2.3105 -3.60278 0
M  V30 5574 C 496.626 -1.98452 -4.96509 0
M  V30 5575 C 497.926 -3.73305 -3.65295 0
M  V30 5576 H 499.62 -2.32512 -1.88622 0
M  V30 5577 H 497.166 -1.1192 -0.906082 0
M  V30 5578 H 499.119 -1.18982 -4.04254 0
M  V30 5579 H 497.843 -0.225965 -3.25817 0
M  V30 5580 H 496.502 -2.31723 -2.84078 0
M  V30 5581 H 496.15 -0.990641 -4.93148 0
M  V30 5582 H 495.85 -2.7251 -5.20588 0
M  V30 5583 H 497.374 -1.98578 -5.77407 0
M  V30 5584 H 498.788 -3.7467 -4.3393 0
M  V30 5585 H 497.185 -4.46557 -4.00883 0
M  V30 5586 H 498.255 -4.05719 -2.65556 0
M  V30 5587 N 499.598 0.982988 -1.23187 0
M  V30 5588 C 500.561 2.05649 -1.01198 0
M  V30 5589 C 501.561 1.6078 0.0252464 0
M  V30 5590 O 502.751 1.72878 -0.214243 0
M  V30 5591 C 499.883 3.36744 -0.530656 0
M  V30 5592 H 501.076 2.2659 -1.96461 0
M  V30 5593 H 498.629 1.15602 -1.05195 0
M  V30 5594 H 499.364 3.21492 0.425873 0
M  V30 5595 H 499.149 3.7065 -1.2791 0
M  V30 5596 H 500.639 4.15705 -0.397366 0
M  V30 5597 N 501.076 1.04316 1.18135 0
M  V30 5598 C 502.492 0.762858 1.40188 0
M  V30 5599 C 502.692 -0.646547 1.90846 0
M  V30 5600 O 501.748 -1.41036 2.0944 0
M  V30 5601 C 503.061 1.81106 2.40044 0
M  V30 5602 C 504.609 1.83226 2.53766 0
M  V30 5603 C 505.084 2.87044 3.56889 0
M  V30 5604 N 506.575 2.85951 3.64398 0
M  V30 5605 C 507.31 3.62932 4.43923 0
M  V30 5606 N 506.806 4.49672 5.27036 0
M  V30 5607 N 508.599 3.51411 4.38711 0
M  V30 5608 H 500.75 1.95264 0.835805 0
M  V30 5609 H 503.013 0.845017 0.429709 0
M  V30 5610 H 502.719 2.82214 2.09876 0
M  V30 5611 H 502.593 1.64529 3.39426 0
M  V30 5612 H 504.98 0.827869 2.8325 0
M  V30 5613 H 505.061 2.03879 1.54489 0
M  V30 5614 H 504.705 3.87663 3.28145 0
M  V30 5615 H 504.635 2.63645 4.5585 0
M  V30 5616 H 507.126 2.23051 3.05052 0
M  V30 5617 H 507.439 5.05116 5.84874 0
M  V30 5618 H 505.784 4.53738 5.26447 0
M  V30 5619 H 508.975 2.83047 3.72829 0
M  V30 5620 H 509.148 4.11654 5.00445 0
M  V30 5621 N 502.554 -1.34406 0.822964 0
M  V30 5622 C 503.97 -1.51275 0.508727 0
M  V30 5623 C 504.17 -1.76776 -0.967083 0
M  V30 5624 O 503.226 -1.81871 -1.75155 0
M  V30 5625 C 504.539 -2.67765 1.36829 0
M  V30 5626 C 506.087 -2.81647 1.36542 0
M  V30 5627 C 506.562 -4.01181 2.20947 0
M  V30 5628 N 508.053 -4.08388 2.18571 0
M  V30 5629 C 508.788 -5.00036 2.80627 0
M  V30 5630 N 508.284 -5.96906 3.51674 0
M  V30 5631 N 510.077 -4.92908 2.70181 0
M  V30 5632 H 502.228 -1.16113 1.77852 0
M  V30 5633 H 504.491 -0.56947 0.757897 0
M  V30 5634 H 504.197 -2.55551 2.41633 0
M  V30 5635 H 504.071 -3.62779 1.03303 0
M  V30 5636 H 506.458 -2.93303 0.325163 0
M  V30 5637 H 506.539 -1.87443 1.74066 0
M  V30 5638 H 506.183 -3.90286 3.25022 0
M  V30 5639 H 506.113 -4.94599 1.80774 0
M  V30 5640 H 508.604 -3.39051 1.66891 0
M  V30 5641 H 508.917 -6.63468 3.96271 0
M  V30 5642 H 507.262 -5.9703 3.5578 0
M  V30 5643 H 510.453 -4.1619 2.14251 0
M  V30 5644 H 510.626 -5.64137 3.18831 0
M  V30 5645 N 504.032 -0.577932 -1.46621 0
M  V30 5646 C 504.979 0.158048 -2.30258 0
M  V30 5647 C 505.949 0.888669 -1.40328 0
M  V30 5648 O 507.134 0.880283 -1.6928 0
M  V30 5649 C 504.274 1.16884 -3.24703 0
M  V30 5650 C 503.387 0.442163 -4.29731 0
M  V30 5651 C 502.522 1.44007 -5.11308 0
M  V30 5652 C 501.561 0.69952 -6.0809 0
M  V30 5653 N 500.698 1.64525 -6.82551 0
M  V30 5654 H 505.538 -0.561242 -2.92667 0
M  V30 5655 H 503.075 -0.288591 -1.44241 0
M  V30 5656 H 505.033 1.7677 -3.779 0
M  V30 5657 H 503.663 1.85591 -2.64113 0
M  V30 5658 H 502.715 -0.271632 -3.79429 0
M  V30 5659 H 504.027 -0.136992 -4.98612 0
M  V30 5660 H 503.181 2.11186 -5.68758 0
M  V30 5661 H 501.92 2.05315 -4.42377 0
M  V30 5662 H 500.925 0.0139217 -5.49798 0
M  V30 5663 H 502.15 0.091894 -6.79038 0
M  V30 5664 H 500.096 2.24653 -6.16334 0
M  V30 5665 H 500.013 1.11878 -7.47676 0
M  V30 5666 H 501.281 2.30754 -7.44562 0
M  V30 5667 N 505.51 1.54411 -0.315457 0
M  V30 5668 C 506.738 2.04833 0.291738 0
M  V30 5669 C 507.153 1.19203 1.46411 0
M  V30 5670 O 506.51 0.220867 1.81159 0
M  V30 5671 C 506.561 3.53969 0.73404 0
M  V30 5672 O 506.282 4.36346 -0.391682 0
M  V30 5673 C 507.783 4.2045 1.40489 0
M  V30 5674 H 505.003 0.668195 0.0612947 0
M  V30 5675 H 507.547 1.99276 -0.45929 0
M  V30 5676 H 505.702 3.5984 1.43506 0
M  V30 5677 H 506.116 5.24481 -0.0447088 0
M  V30 5678 H 507.59 5.26278 1.66539 0
M  V30 5679 H 508.067 3.71067 2.3496 0
M  V30 5680 H 508.673 4.18694 0.746662 0
M  V30 5681 O 507.027 0.182621 1.60464 0
M  V30 5682 H 507.718 -0.405074 1.89417 0
M  V30 END ATOM
M  V30 BEGIN BOND
M  V30 END BOND
M  V30 END CTAB
M  END
$$$$
