drugbank_target|P23469 Receptor-type tyrosine-protein phosphatase epsilon (DB00630; DB01133)
 OpenBabel12092120343D

  0  0  0     0  0            999 V3000
M  V30 BEGIN CTAB
M  V30 COUNTS 11322 11457 0 0 0
M  V30 BEGIN ATOM
M  V30 1 H -0.908 1.98254 -0.117106 0
M  V30 2 N 0 1.576 0 0
M  V30 3 C 0.933 2.03868 1.02534 0
M  V30 4 C 1.911 0.928543 1.3348 0
M  V30 5 O 3.095 1.19667 1.45644 0
M  V30 6 C 0.222 2.43627 2.35294 0
M  V30 7 C -0.732 3.65373 2.2001 0
M  V30 8 S 0.101 5.13292 1.52614 0
M  V30 9 C 1.257 5.56322 2.86805 0
M  V30 10 H 1.49 2.90518 0.631377 0
M  V30 11 H -0.977 1.52953 0.210867 0
M  V30 12 H 0.981 2.67203 3.11629 0
M  V30 13 H -0.358 1.57376 2.7183 0
M  V30 14 H -1.165 3.90944 3.18086 0
M  V30 15 H -1.563 3.418 1.51819 0
M  V30 16 H 0.729 5.58782 3.83104 0
M  V30 17 H 1.672 6.56266 2.65933 0
M  V30 18 H 2.08 4.83886 2.90714 0
M  V30 19 N 1.4781 -0.272755 1.55222 0
M  V30 20 C 2.3881 -1.35918 1.91216 0
M  V30 21 C 3.4041 -1.54026 0.809436 0
M  V30 22 O 4.5801 -1.68148 1.10852 0
M  V30 23 C 1.6451 -2.69834 2.17693 0
M  V30 24 C 0.7061 -2.6047 3.41253 0
M  V30 25 C -0.0609 -3.88 3.66458 0
M  V30 26 O 0.1621 -4.88693 2.94169 0
M  V30 27 O -0.9039 -3.88189 4.59992 0
M  V30 28 H 2.9221 -1.0839 2.83699 0
M  V30 29 H 0.5071 -0.471301 1.41771 0
M  V30 30 H 2.3891 -3.49017 2.36147 0
M  V30 31 H 1.0641 -2.97148 1.28392 0
M  V30 32 H -0.0289 -1.79663 3.28134 0
M  V30 33 H 1.3041 -2.38106 4.30774 0
M  V30 34 N 2.9562 -1.48159 -0.537278 0
M  V30 35 C 4.3672 -1.49429 -1.11928 0
M  V30 36 C 4.7182 -0.26 -1.9447 0
M  V30 37 O 3.8432 0.633489 -2.0692 0
M  V30 38 C 4.4382 -2.70758 -2.03656 0
M  V30 39 C 2.9972 -2.74923 -2.57088 0
M  V30 40 C 2.1442 -2.42835 -1.3389 0
M  V30 41 H 5.0952 -1.55381 -0.322886 0
M  V30 42 H 5.1162 -2.48861 -2.87834 0
M  V30 43 H 4.6282 -3.60575 -1.43553 0
M  V30 44 H 2.7292 -1.89296 -3.20933 0
M  V30 45 H 2.8422 -3.76157 -2.9672 0
M  V30 46 H 1.2062 -1.93836 -1.65226 0
M  V30 47 H 1.9892 -3.34884 -0.755504 0
M  V30 48 N 4.4343 0.785586 -1.36625 0
M  V30 49 C 5.3643 1.91259 -1.33949 0
M  V30 50 C 6.3453 1.68795 -0.210325 0
M  V30 51 O 7.5303 1.89854 -0.408561 0
M  V30 52 C 4.6603 3.28339 -1.13186 0
M  V30 53 C 3.6143 3.65335 -2.22967 0
M  V30 54 C 2.9403 5.00806 -1.87342 0
M  V30 55 C 4.2403 3.7352 -3.65075 0
M  V30 56 H 5.9343 1.93755 -2.28253 0
M  V30 57 H 3.4803 0.930788 -1.09874 0
M  V30 58 H 5.4333 4.06804 -1.09948 0
M  V30 59 H 4.1573 3.2624 -0.153332 0
M  V30 60 H 2.8163 2.89169 -2.25337 0
M  V30 61 H 2.4643 4.95233 -0.880545 0
M  V30 62 H 2.1643 5.26529 -2.60846 0
M  V30 63 H 3.6883 5.81687 -1.85667 0
M  V30 64 H 5.1023 4.42168 -3.64911 0
M  V30 65 H 3.4993 4.10731 -4.37516 0
M  V30 66 H 4.5693 2.74527 -3.99703 0
M  V30 67 N 5.9124 1.20967 1.01018 0
M  V30 68 C 7.1524 1.03511 1.76252 0
M  V30 69 C 7.5164 -0.42458 1.87247 0
M  V30 70 O 8.7174 -0.719508 2.58991 0
M  V30 71 C 6.9884 1.70726 3.13986 0
M  V30 72 S 8.5474 1.68458 4.05176 0
M  V30 73 H 5.3654 0.371037 0.606508 0
M  V30 74 H 7.9674 1.53628 1.20908 0
M  V30 75 H 6.6714 2.76128 3.03614 0
M  V30 76 H 6.2024 1.20767 3.74405 0
M  V30 77 H 8.2174 0.721987 4.90919 0
M  V30 78 N 7.3905 -1.2043 1.01659 0
M  V30 79 C 8.8015 -1.71517 0.737482 0
M  V30 80 C 9.1525 -1.81547 -0.743973 0
M  V30 81 O 8.2775 -1.47803 -1.58061 0
M  V30 82 C 8.8725 -3.11515 1.33206 0
M  V30 83 C 7.4315 -3.59912 1.10183 0
M  V30 84 C 6.5785 -2.37116 1.43776 0
M  V30 85 H 9.5295 -1.05444 1.18606 0
M  V30 86 H 9.5505 -3.73575 0.722636 0
M  V30 87 H 9.0625 -3.04182 2.41028 0
M  V30 88 H 7.1635 -3.72577 0.0412756 0
M  V30 89 H 7.2765 -4.44731 1.78188 0
M  V30 90 H 5.6405 -2.39857 0.856778 0
M  V30 91 H 6.4235 -2.32424 2.52654 0
M  V30 92 N 8.8686 -0.792821 -1.36206 0
M  V30 93 C 9.7986 -0.207853 -2.32573 0
M  V30 94 C 10.7796 0.659055 -1.56813 0
M  V30 95 O 11.9646 0.592176 -1.84951 0
M  V30 96 C 9.0946 0.655449 -3.41059 0
M  V30 97 C 8.0486 -0.111842 -4.27854 0
M  V30 98 C 7.3746 0.872274 -5.27537 0
M  V30 99 C 8.6746 -1.30299 -5.05786 0
M  V30 100 H 10.3686 -1.01294 -2.81744 0
M  V30 101 H 7.9146 -0.48854 -1.3546 0
M  V30 102 H 9.8676 1.07464 -4.07467 0
M  V30 103 H 8.5916 1.49328 -2.90463 0
M  V30 104 H 7.2506 -0.512053 -3.63006 0
M  V30 105 H 6.8986 1.70523 -4.73214 0
M  V30 106 H 6.5986 0.363291 -5.86476 0
M  V30 107 H 8.1226 1.28996 -5.96818 0
M  V30 108 H 9.5366 -0.959379 -5.65216 0
M  V30 109 H 7.9336 -1.7455 -5.74154 0
M  V30 110 H 9.0036 -2.09663 -4.37229 0
M  V30 111 N 10.3467 1.47872 -0.545128 0
M  V30 112 C 11.2767 2.32661 0.197793 0
M  V30 113 C 12.2577 1.43041 0.920504 0
M  V30 114 O 13.4427 1.71912 0.90333 0
M  V30 115 C 10.5727 3.24569 1.23582 0
M  V30 116 C 9.5267 4.23333 0.630323 0
M  V30 117 C 8.8527 5.0448 1.77211 0
M  V30 118 C 10.1527 5.20704 -0.407974 0
M  V30 119 H 11.8467 2.95024 -0.510045 0
M  V30 120 H 9.3927 1.4187 -0.246731 0
M  V30 121 H 11.3457 3.8272 1.76362 0
M  V30 122 H 10.0697 2.60236 1.97344 0
M  V30 123 H 8.7287 3.6639 0.123922 0
M  V30 124 H 8.3767 4.36561 2.49847 0
M  V30 125 H 8.0767 5.71339 1.37281 0
M  V30 126 H 9.6007 5.65487 2.3034 0
M  V30 127 H 11.0147 5.7329 0.033305 0
M  V30 128 H 9.4117 5.95699 -0.725486 0
M  V30 129 H 10.4817 4.66917 -1.30828 0
M  V30 130 N 11.8248 0.280983 1.55075 0
M  V30 131 C 12.7548 -0.597469 2.25727 0
M  V30 132 C 13.7358 -1.15417 1.24952 0
M  V30 133 O 14.9208 -1.18722 1.53684 0
M  V30 134 C 12.0508 -1.7789 2.98283 0
M  V30 135 C 11.0048 -1.35347 4.06036 0
M  V30 136 C 10.3308 -2.61846 4.66198 0
M  V30 137 C 11.6308 -0.499354 5.19907 0
M  V30 138 H 13.3248 -0.00824265 2.99399 0
M  V30 139 H 10.8708 -0.0025244 1.44 0
M  V30 140 H 12.8238 -2.39937 3.46422 0
M  V30 141 H 11.5478 -2.39405 2.22155 0
M  V30 142 H 10.2068 -0.756156 3.58717 0
M  V30 143 H 9.8548 -3.21632 3.86732 0
M  V30 144 H 9.5548 -2.3409 5.38958 0
M  V30 145 H 11.0788 -3.24732 5.1709 0
M  V30 146 H 12.4928 -1.02498 5.64063 0
M  V30 147 H 10.8898 -0.316424 5.99265 0
M  V30 148 H 11.9598 0.480459 4.82514 0
M  V30 149 N 13.3029 -1.57598 0.00835791 0
M  V30 150 C 14.5489 -1.91211 -0.675732 0
M  V30 151 C 14.8819 -0.883139 -1.72958 0
M  V30 152 O 14.1569 0.097016 -1.94258 0
M  V30 153 C 14.4399 -3.35379 -1.31123 0
M  V30 154 C 14.2929 -4.48999 -0.268356 0
M  V30 155 C 15.6119 -3.7912 -2.23508 0
M  V30 156 H 12.7309 -0.695374 -0.244179 0
M  V30 157 H 15.3729 -1.89901 0.0613655 0
M  V30 158 H 13.5229 -3.36626 -1.93946 0
M  V30 159 H 15.1949 -4.59887 0.360844 0
M  V30 160 H 13.4379 -4.31873 0.408482 0
M  V30 161 H 14.1089 -5.46851 -0.752218 0
M  V30 162 H 16.5849 -3.79477 -1.70693 0
M  V30 163 H 15.4609 -4.80729 -2.64936 0
M  V30 164 H 15.7219 -3.13455 -3.11766 0
M  V30 165 N 14.781 0.264519 -1.55364 0
M  V30 166 C 16.029 0.993021 -1.76021 0
M  V30 167 C 16.35 1.86511 -0.569099 0
M  V30 168 O 15.62 1.91438 0.415735 0
M  V30 169 H 14.2 0.369639 -0.649135 0
M  V30 170 H 16.862 0.286707 -1.9278 0
M  V30 171 H 15.958 1.62502 -2.66457 0
M  V30 172 N 16.2591 1.48442 0.529413 0
M  V30 173 C 17.5061 1.56488 1.28521 0
M  V30 174 C 17.8341 0.239042 1.93025 0
M  V30 175 O 17.0891 -0.770713 1.79885 0
M  V30 176 C 17.3881 2.6523 2.39558 0
M  V30 177 C 17.0541 4.07648 1.92702 0
M  V30 178 C 15.7161 4.46411 1.79641 0
M  V30 179 C 18.0681 4.96896 1.573 0
M  V30 180 C 15.3961 5.72226 1.29514 0
M  V30 181 C 17.7481 6.23202 1.08636 0
M  V30 182 C 16.4121 6.60821 0.941919 0
M  V30 183 H 15.6821 0.572631 0.470292 0
M  V30 184 H 18.3291 1.82161 0.59072 0
M  V30 185 H 16.6341 2.33419 3.14679 0
M  V30 186 H 18.3311 2.68671 2.97686 0
M  V30 187 H 14.9211 3.77036 2.03819 0
M  V30 188 H 19.1051 4.67626 1.66251 0
M  V30 189 H 14.3611 6.00097 1.17019 0
M  V30 190 H 18.5351 6.91753 0.803136 0
M  V30 191 H 16.1621 7.58198 0.5513 0
M  V30 192 N 17.7372 -0.778329 1.37039 0
M  V30 193 C 18.9622 -1.57248 1.35233 0
M  V30 194 C 19.3872 -1.87999 -0.0615568 0
M  V30 195 O 18.7452 -1.48734 -1.03672 0
M  V30 196 C 18.7932 -2.86353 2.19167 0
M  V30 197 O 17.8972 -3.80442 1.59178 0
M  V30 198 H 17.2382 -0.476569 0.462362 0
M  V30 199 H 19.7682 -0.963853 1.80474 0
M  V30 200 H 19.7782 -3.35519 2.32145 0
M  V30 201 H 18.4532 -2.63299 3.21942 0
M  V30 202 H 17.0302 -3.39067 1.55203 0
M  V30 203 N 19.2153 -1.21501 -1.00376 0
M  V30 204 C 20.1453 -0.999478 -2.11028 0
M  V30 205 C 21.1263 0.0759671 -1.6993 0
M  V30 206 O 22.3113 -0.0841106 -1.94018 0
M  V30 207 C 19.4413 -0.564709 -3.42678 0
M  V30 208 C 18.3953 -1.58486 -3.97576 0
M  V30 209 C 17.7213 -1.00628 -5.25146 0
M  V30 210 C 19.0213 -2.97204 -4.29496 0
M  V30 211 H 20.7153 -1.92495 -2.29317 0
M  V30 212 H 18.2613 -0.92693 -1.102 0
M  V30 213 H 20.2143 -0.401091 -4.19487 0
M  V30 214 H 18.9383 0.396411 -3.24185 0
M  V30 215 H 17.5973 -1.73606 -3.22888 0
M  V30 216 H 17.2453 -0.0368439 -5.02987 0
M  V30 217 H 16.9453 -1.68771 -5.62841 0
M  V30 218 H 18.4693 -0.854015 -6.04598 0
M  V30 219 H 19.8833 -2.8552 -4.97143 0
M  V30 220 H 18.2803 -3.62372 -4.78338 0
M  V30 221 H 19.3503 -3.47956 -3.3772 0
M  V30 222 N 20.6934 1.19889 -1.02296 0
M  V30 223 C 22.1044 1.71124 -0.746568 0
M  V30 224 C 22.4554 1.81939 0.734335 0
M  V30 225 O 21.5804 1.48639 1.57275 0
M  V30 226 C 22.1754 3.10804 -1.34857 0
M  V30 227 C 20.7344 3.59323 -1.1209 0
M  V30 228 C 19.8814 2.3635 -1.45031 0
M  V30 229 H 22.8324 1.04813 -1.19163 0
M  V30 230 H 22.8534 3.73186 -0.742437 0
M  V30 231 H 22.3654 3.029 -2.42638 0
M  V30 232 H 20.4664 3.7255 -0.0610337 0
M  V30 233 H 20.5794 4.4378 -1.80544 0
M  V30 234 H 18.9434 2.39399 -0.869487 0
M  V30 235 H 19.7264 2.31081 -2.53883 0
M  V30 236 N 22.1715 0.800033 1.35784 0
M  V30 237 C 23.1015 0.220184 2.3246 0
M  V30 238 C 24.0825 -0.65073 1.57161 0
M  V30 239 O 25.2675 -0.582359 1.85263 0
M  V30 240 C 22.3975 -0.637353 3.41402 0
M  V30 241 C 21.3515 0.134531 4.27789 0
M  V30 242 C 20.6775 -0.844285 5.27992 0
M  V30 243 C 21.9775 1.32979 5.05088 0
M  V30 244 H 23.6715 1.02787 2.81203 0
M  V30 245 H 21.2175 0.495717 1.35199 0
M  V30 246 H 23.1705 -1.05302 4.08031 0
M  V30 247 H 21.8945 -1.47785 2.91251 0
M  V30 248 H 20.5535 0.531296 3.6273 0
M  V30 249 H 20.2015 -1.68011 4.74111 0
M  V30 250 H 19.9015 -0.332184 5.8666 0
M  V30 251 H 21.4255 -1.2583 5.97494 0
M  V30 252 H 22.8395 0.98934 5.64699 0
M  V30 253 H 21.2365 1.77593 5.7322 0
M  V30 254 H 22.3065 2.11978 4.36111 0
M  V30 255 N 23.6496 -1.47581 0.552962 0
M  V30 256 C 24.6126 -2.28439 -0.186605 0
M  V30 257 C 25.6126 -1.36706 -0.84665 0
M  V30 258 O 26.8026 -1.59378 -0.703164 0
M  V30 259 C 23.9346 -3.16264 -1.2724 0
M  V30 260 H 25.1276 -2.95294 0.523609 0
M  V30 261 H 22.6806 -1.532 0.309745 0
M  V30 262 H 23.4156 -2.54091 -2.01514 0
M  V30 263 H 23.2006 -3.83769 -0.803968 0
M  V30 264 H 24.6906 -3.77198 -1.79196 0
M  V30 265 N 25.1277 -0.289203 -1.54924 0
M  V30 266 C 26.5437 0.0645403 -1.59469 0
M  V30 267 C 26.7437 1.53419 -1.30632 0
M  V30 268 O 25.7997 2.2852 -1.074 0
M  V30 269 C 27.1127 -0.32278 -2.98963 0
M  V30 270 C 28.6607 -0.270564 -3.11828 0
M  V30 271 C 29.1357 -0.632532 -4.53611 0
M  V30 272 N 30.6267 -0.584617 -4.59496 0
M  V30 273 C 31.3617 -0.837314 -5.67254 0
M  V30 274 N 30.8577 -1.15536 -6.83098 0
M  V30 275 N 32.6507 -0.765166 -5.56868 0
M  V30 276 H 24.8017 -1.24714 -1.71931 0
M  V30 277 H 27.0647 -0.504809 -0.802416 0
M  V30 278 H 26.7707 -1.34541 -3.24948 0
M  V30 279 H 26.6447 0.32944 -3.75759 0
M  V30 280 H 29.0317 0.742805 -2.85598 0
M  V30 281 H 29.1127 -0.957242 -2.37214 0
M  V30 282 H 28.7567 -1.64365 -4.80569 0
M  V30 283 H 28.6867 0.07609 -5.26545 0
M  V30 284 H 31.1777 -0.349248 -3.76283 0
M  V30 285 H 31.4907 -1.33447 -7.61191 0
M  V30 286 H 29.8357 -1.19328 -6.84679 0
M  V30 287 H 33.0267 -0.516432 -4.65243 0
M  V30 288 H 33.1997 -0.965477 -6.40767 0
M  V30 289 N 26.6058 1.57591 -0.0167156 0
M  V30 290 C 27.5688 2.08393 0.954204 0
M  V30 291 C 28.5688 0.996531 1.26198 0
M  V30 292 O 29.7588 1.25858 1.20438 0
M  V30 293 C 26.8908 2.5394 2.27436 0
M  V30 294 H 28.0838 2.95455 0.514451 0
M  V30 295 H 25.6368 1.54582 0.231089 0
M  V30 296 H 26.3718 1.70171 2.76066 0
M  V30 297 H 26.1568 3.33371 2.06412 0
M  V30 298 H 27.6468 2.93512 2.97053 0
M  V30 299 N 28.0839 -0.256276 1.55502 0
M  V30 300 C 29.0139 -1.32102 1.92539 0
M  V30 301 C 29.9949 -1.50684 0.789194 0
M  V30 302 O 31.1799 -1.63449 1.04872 0
M  V30 303 C 28.3099 -2.67752 2.21192 0
M  V30 304 C 27.2639 -2.63878 3.36975 0
M  V30 305 C 26.5899 -4.03236 3.51147 0
M  V30 306 C 27.8899 -2.21682 4.72921 0
M  V30 307 H 29.5839 -1.01351 2.81724 0
M  V30 308 H 27.1299 -0.486105 1.35547 0
M  V30 309 H 29.0829 -3.42365 2.45691 0
M  V30 310 H 27.8069 -3.0012 1.28824 0
M  V30 311 H 26.4659 -1.91722 3.12471 0
M  V30 312 H 26.1139 -4.32854 2.56216 0
M  V30 313 H 25.8139 -4.01535 4.29003 0
M  V30 314 H 27.3379 -4.79563 3.77957 0
M  V30 315 H 28.7519 -2.86023 4.96854 0
M  V30 316 H 27.1489 -2.3111 5.53812 0
M  V30 317 H 28.2189 -1.16833 4.70615 0
M  V30 318 N 29.562 -1.4872 -0.521534 0
M  V30 319 C 30.978 -1.35028 -0.850855 0
M  V30 320 C 31.178 -0.367712 -1.98116 0
M  V30 321 O 30.234 0.208037 -2.51642 0
M  V30 322 C 31.547 -2.75263 -1.21041 0
M  V30 323 C 33.095 -2.83813 -1.31981 0
M  V30 324 C 33.57 -4.24769 -1.71276 0
M  V30 325 N 35.061 -4.27482 -1.78363 0
M  V30 326 C 35.796 -5.33494 -2.1017 0
M  V30 327 N 35.292 -6.49775 -2.40343 0
M  V30 328 N 37.085 -5.20894 -2.11248 0
M  V30 329 H 29.236 -2.11214 0.22413 0
M  V30 330 H 31.499 -0.947252 0.0376439 0
M  V30 331 H 31.205 -3.48765 -0.453415 0
M  V30 332 H 31.079 -3.09327 -2.15863 0
M  V30 333 H 33.466 -2.10561 -2.06756 0
M  V30 334 H 33.547 -2.53358 -0.352596 0
M  V30 335 H 33.191 -4.9854 -0.970588 0
M  V30 336 H 33.121 -4.52673 -2.69062 0
M  V30 337 H 35.612 -3.43611 -1.57288 0
M  V30 338 H 35.925 -7.26402 -2.63743 0
M  V30 339 H 34.27 -6.53035 -2.37844 0
M  V30 340 H 37.461 -4.29065 -1.87139 0
M  V30 341 H 37.634 -6.03612 -2.35704 0
M  V30 342 N 31.0401 0.771051 -1.3745 0
M  V30 343 C 32.2881 1.52661 -1.32435 0
M  V30 344 C 32.6091 1.9479 0.0905024 0
M  V30 345 O 31.8791 1.66348 1.03466 0
M  V30 346 H 30.4591 0.566218 -0.487244 0
M  V30 347 H 33.1211 0.917636 -1.71946 0
M  V30 348 H 32.2171 2.42568 -1.96385 0
M  V30 349 N 32.5182 1.22032 0.997298 0
M  V30 350 C 33.4662 0.983634 2.10778 0
M  V30 351 C 34.4602 -0.0717564 1.69248 0
M  V30 352 O 35.6662 0.080304 1.79821 0
M  V30 353 H 32.0412 0.300877 0.689186 0
M  V30 354 H 34.0122 1.92606 2.27916 0
M  V30 355 C 32.7612 0.57326 3.42942 0
M  V30 356 H 32.0842 1.37702 3.75338 0
M  V30 357 H 33.5242 0.447031 4.21637 0
M  V30 358 C 31.9832 -0.7167 3.29188 0
M  V30 359 O 32.5132 -1.77027 3.60589 0
M  V30 360 N 30.7192 -0.686167 2.82383 0
M  V30 361 H 30.2662 0.171507 2.57028 0
M  V30 362 H 30.2242 -1.54955 2.73562 0
M  V30 363 N 33.9963 -1.19345 1.0293 0
M  V30 364 C 34.9063 -2.26245 0.620515 0
M  V30 365 C 35.9223 -1.70486 -0.347928 0
M  V30 366 O 37.0983 -2.00347 -0.205704 0
M  V30 367 C 34.1633 -3.46693 -0.0218957 0
M  V30 368 C 33.2243 -4.17632 0.994102 0
M  V30 369 C 32.4573 -5.32329 0.382253 0
M  V30 370 O 32.6803 -5.64552 -0.814676 0
M  V30 371 O 31.6143 -5.91664 1.10531 0
M  V30 372 H 35.4403 -2.63453 1.51083 0
M  V30 373 H 33.0253 -1.26207 0.799513 0
M  V30 374 H 34.9073 -4.19683 -0.380072 0
M  V30 375 H 33.5823 -3.11333 -0.886209 0
M  V30 376 H 32.4893 -3.4676 1.40387 0
M  V30 377 H 33.8223 -4.56964 1.8288 0
M  V30 378 N 35.4744 -0.807222 -1.35358 0
M  V30 379 C 36.7024 -0.400377 -2.02989 0
M  V30 380 C 37.1174 0.988859 -1.60832 0
M  V30 381 O 36.4744 1.63729 -0.806175 0
M  V30 382 C 36.5254 -0.474867 -3.58368 0
M  V30 383 O 36.2464 -1.80933 -3.98992 0
M  V30 384 C 37.7474 -0.0609112 -4.43258 0
M  V30 385 H 34.9674 -0.162587 -0.651004 0
M  V30 386 H 37.5114 -1.09102 -1.72965 0
M  V30 387 H 35.6664 0.167534 -3.87038 0
M  V30 388 H 36.0804 -1.77256 -4.9364 0
M  V30 389 H 37.5544 -0.164145 -5.51756 0
M  V30 390 H 38.0314 0.993831 -4.27808 0
M  V30 391 H 38.6374 -0.676492 -4.19885 0
M  V30 392 N 36.9525 1.47285 -0.560781 0
M  V30 393 C 38.1805 2.06855 -0.0430262 0
M  V30 394 C 38.5955 1.41291 1.25229 0
M  V30 395 O 37.9525 0.510648 1.7521 0
M  V30 396 C 38.0035 3.61178 0.152518 0
M  V30 397 O 37.7245 4.24285 -1.0915 0
M  V30 398 C 39.2255 4.37624 0.707145 0
M  V30 399 H 36.4455 0.669319 -0.0474652 0
M  V30 400 H 38.9895 1.89237 -0.77521 0
M  V30 401 H 37.1445 3.78298 0.834843 0
M  V30 402 H 37.5585 5.16868 -0.891482 0
M  V30 403 H 39.0325 5.46271 0.793244 0
M  V30 404 H 39.5095 4.04152 1.71923 0
M  V30 405 H 40.1155 4.25257 0.0604027 0
M  V30 406 N 38.4306 0.297415 1.54768 0
M  V30 407 C 39.3936 -0.567375 2.22066 0
M  V30 408 C 40.3936 -1.06409 1.20556 0
M  V30 409 O 41.5836 -0.960691 1.45315 0
M  V30 410 C 38.7156 -1.78517 2.90421 0
M  V30 411 H 39.9086 0.0205534 2.99893 0
M  V30 412 H 37.4616 0.0482163 1.56226 0
M  V30 413 H 38.1966 -2.41303 2.16664 0
M  V30 414 H 37.9816 -1.43669 3.64831 0
M  V30 415 H 39.4716 -2.39964 3.41771 0
M  V30 416 N 39.9087 -1.5758 0.0250728 0
M  V30 417 C 41.1857 -1.82917 -0.692873 0
M  V30 418 C 41.5657 -0.908137 -1.90568 0
M  V30 419 O 40.9137 0.0372298 -2.2847 0
M  V30 420 C 41.1237 -3.32034 -1.07492 0
M  V30 421 C 42.4717 -3.98406 -1.46826 0
M  V30 422 O 43.4957 -3.36505 -1.16801 0
M  V30 423 O 42.3547 -5.07497 -2.02754 0
M  V30 424 H 39.4487 -0.754079 -0.33955 0
M  V30 425 H 41.9947 -1.69619 0.0524456 0
M  V30 426 H 40.7667 -3.90728 -0.211552 0
M  V30 427 H 40.3897 -3.50424 -1.87854 0
M  V30 428 N 41.3868 0.248026 -1.55636 0
M  V30 429 C 42.6118 0.998028 -1.81808 0
M  V30 430 C 43.0368 1.78207 -0.601979 0
M  V30 431 O 42.3948 1.75653 0.448961 0
M  V30 432 C 42.4428 1.9125 -3.05705 0
M  V30 433 O 41.5468 3.00406 -2.82542 0
M  V30 434 H 40.8878 0.284045 -0.600179 0
M  V30 435 H 43.4178 0.269357 -2.02819 0
M  V30 436 H 43.4278 2.32737 -3.35108 0
M  V30 437 H 42.1028 1.33602 -3.93857 0
M  V30 438 H 40.6798 2.63056 -2.64303 0
M  V30 439 N 42.8649 1.48995 0.513639 0
M  V30 440 C 43.8129 1.65199 1.63744 0
M  V30 441 C 44.8069 0.51809 1.61283 0
M  V30 442 O 46.0129 0.697335 1.65943 0
M  V30 443 H 42.3879 0.52069 0.542574 0
M  V30 444 H 44.3589 2.59552 1.47226 0
M  V30 445 C 43.1079 1.72409 3.01945 0
M  V30 446 H 42.4309 2.59029 3.04539 0
M  V30 447 H 43.8709 1.87785 3.80148 0
M  V30 448 C 42.3299 0.46618 3.33659 0
M  V30 449 O 42.8599 -0.413744 3.99564 0
M  V30 450 N 41.0659 0.332931 2.88687 0
M  V30 451 H 40.6129 1.04996 2.35231 0
M  V30 452 H 40.5709 -0.507665 3.10274 0
M  V30 453 N 44.343 -0.763751 1.37857 0
M  V30 454 C 45.253 -1.90817 1.36478 0
M  V30 455 C 46.269 -1.71997 0.263248 0
M  V30 456 O 47.445 -1.95095 0.499979 0
M  V30 457 C 44.51 -3.2605 1.17864 0
M  V30 458 C 43.571 -3.57467 2.3773 0
M  V30 459 C 42.804 -4.86249 2.19995 0
M  V30 460 O 43.027 -5.57884 1.18836 0
M  V30 461 O 41.961 -5.16911 3.08361 0
M  V30 462 H 45.787 -1.94933 2.32884 0
M  V30 463 H 43.372 -0.907619 1.1867 0
M  V30 464 H 45.254 -4.06924 1.09504 0
M  V30 465 H 43.929 -3.22769 0.245372 0
M  V30 466 H 42.836 -2.76796 2.51664 0
M  V30 467 H 44.169 -3.655 3.29652 0
M  V30 468 N 45.8211 -1.22559 -0.990812 0
M  V30 469 C 47.0491 -1.07779 -1.76611 0
M  V30 470 C 47.4641 0.371513 -1.85109 0
M  V30 471 O 46.8211 1.25737 -1.32274 0
M  V30 472 C 46.8721 -1.68512 -3.19822 0
M  V30 473 O 46.5931 -3.07774 -3.1178 0
M  V30 474 C 48.0941 -1.59035 -4.13791 0
M  V30 475 H 45.3141 -0.377729 -0.554583 0
M  V30 476 H 47.8581 -1.62195 -1.24551 0
M  V30 477 H 46.0131 -1.18154 -3.68942 0
M  V30 478 H 46.4271 -3.37062 -4.01858 0
M  V30 479 H 47.9011 -2.0625 -5.1202 0
M  V30 480 H 48.3781 -0.547273 -4.35777 0
M  V30 481 H 48.9841 -2.08709 -3.70568 0
M  V30 482 N 47.2992 1.18797 -1.03562 0
M  V30 483 C 48.5272 1.92599 -0.755869 0
M  V30 484 C 48.9422 1.75886 0.686271 0
M  V30 485 O 48.2992 1.08517 1.46732 0
M  V30 486 C 48.3502 3.44159 -1.10619 0
M  V30 487 O 48.0712 3.60341 -2.4917 0
M  V30 488 C 49.5722 4.3507 -0.850214 0
M  V30 489 H 46.7922 0.611587 -0.276048 0
M  V30 490 H 49.3362 1.50742 -1.38192 0
M  V30 491 H 47.4912 3.83823 -0.525194 0
M  V30 492 H 47.9052 4.54128 -2.62427 0
M  V30 493 H 49.3792 5.39989 -1.14523 0
M  V30 494 H 49.8562 4.38673 0.215176 0
M  V30 495 H 50.4622 4.01097 -1.41426 0
M  V30 496 N 48.7773 0.814389 1.34928 0
M  V30 497 C 50.0053 0.411136 2.02774 0
M  V30 498 C 50.4203 -0.980316 1.61354 0
M  V30 499 O 49.7773 -1.63299 0.814847 0
M  V30 500 C 49.8283 0.493865 3.58111 0
M  V30 501 O 49.5493 1.83047 3.98027 0
M  V30 502 C 51.0503 0.0844174 4.4322 0
M  V30 503 H 48.2703 0.166037 0.650133 0
M  V30 504 H 50.8143 1.10018 1.72384 0
M  V30 505 H 48.9693 -0.147006 3.87121 0
M  V30 506 H 49.3833 1.79872 4.92693 0
M  V30 507 H 50.8573 0.193404 5.51661 0
M  V30 508 H 51.3343 -0.97113 4.28329 0
M  V30 509 H 51.9403 0.69875 4.19521 0
M  V30 510 N 50.2554 -1.46986 0.568584 0
M  V30 511 C 51.4834 -2.0683 0.0539956 0
M  V30 512 C 51.8984 -1.41953 -1.24478 0
M  V30 513 O 51.2554 -0.519933 -1.74937 0
M  V30 514 C 51.3064 -3.61254 -0.133362 0
M  V30 515 O 51.0274 -4.237 1.11399 0
M  V30 516 C 52.5284 -4.37992 -0.683927 0
M  V30 517 H 49.7484 -0.669058 0.0510141 0
M  V30 518 H 52.2924 -1.88824 0.785234 0
M  V30 519 H 50.4474 -3.78735 -0.81477 0
M  V30 520 H 50.8614 -5.16388 0.91888 0
M  V30 521 H 52.3354 -5.46684 -0.764263 0
M  V30 522 H 52.8124 -4.05058 -1.69778 0
M  V30 523 H 53.4184 -4.25283 -0.0378494 0
M  V30 524 N 51.7335 -0.305618 -1.54608 0
M  V30 525 C 52.9585 0.307562 -2.05107 0
M  V30 526 C 53.3835 1.46385 -1.18123 0
M  V30 527 O 52.7415 1.8034 -0.186324 0
M  V30 528 C 52.7895 0.73704 -3.52987 0
M  V30 529 O 51.8935 1.84134 -3.6901 0
M  V30 530 H 51.2345 0.0589143 -0.661381 0
M  V30 531 H 53.7645 -0.448807 -1.99617 0
M  V30 532 H 53.7745 1.02459 -3.94925 0
M  V30 533 H 52.4495 -0.108773 -4.15758 0
M  V30 534 H 51.0265 1.55398 -3.38978 0
M  V30 535 N 53.2116 1.57565 -0.0334293 0
M  V30 536 C 54.4596 1.91598 0.642999 0
M  V30 537 C 54.7806 0.910847 1.7242 0
M  V30 538 O 54.0506 -0.0469931 1.95844 0
M  V30 539 H 52.6306 0.707228 0.240496 0
M  V30 540 H 55.2926 1.94726 -0.0822488 0
M  V30 541 H 54.3886 2.92336 1.09298 0
M  V30 542 N 54.6897 -0.239769 1.55765 0
M  V30 543 C 56.1007 -0.808263 1.68297 0
M  V30 544 C 56.4517 -1.85736 0.632181 0
M  V30 545 O 55.5767 -2.15277 -0.220204 0
M  V30 546 C 56.1717 -1.47284 3.05111 0
M  V30 547 C 54.7307 -1.98895 3.19559 0
M  V30 548 C 53.8777 -0.842575 2.64189 0
M  V30 549 H 56.8287 -0.0154422 1.58692 0
M  V30 550 H 56.8497 -2.34111 2.99954 0
M  V30 551 H 56.3617 -0.709053 3.81568 0
M  V30 552 H 54.4627 -2.78132 2.47938 0
M  V30 553 H 54.5757 -2.18143 4.26556 0
M  V30 554 H 52.9397 -1.24501 2.22197 0
M  V30 555 H 53.7227 -0.0917552 3.43177 0
M  V30 556 N 56.1678 -1.49265 -0.50573 0
M  V30 557 C 57.5788 -1.51769 -1.08734 0
M  V30 558 C 57.9298 -0.301192 -1.93874 0
M  V30 559 O 57.0548 0.589456 -2.08217 0
M  V30 560 C 57.6498 -2.75017 -1.97867 0
M  V30 561 C 56.2088 -2.80314 -2.51199 0
M  V30 562 C 55.3558 -2.4562 -1.28709 0
M  V30 563 H 58.3068 -1.56031 -0.289855 0
M  V30 564 H 58.3278 -2.5491 -2.82491 0
M  V30 565 H 57.8398 -3.63539 -1.35873 0
M  V30 566 H 55.9408 -1.96061 -3.16845 0
M  V30 567 H 56.0538 -3.82366 -2.88675 0
M  V30 568 H 54.4178 -1.97297 -1.61078 0
M  V30 569 H 55.2008 -3.36411 -0.6843 0
M  V30 570 N 57.6459 0.756429 -1.3826 0
M  V30 571 C 58.9229 1.50584 -1.24835 0
M  V30 572 C 59.3029 2.10556 0.151485 0
M  V30 573 O 58.6509 1.96825 1.1607 0
M  V30 574 C 58.8609 2.57448 -2.3563 0
M  V30 575 C 60.2089 3.24429 -2.73917 0
M  V30 576 O 61.2329 2.67751 -2.34921 0
M  V30 577 O 60.0919 4.26937 -3.41156 0
M  V30 578 H 57.1859 0.667664 -0.48801 0
M  V30 579 H 59.7319 0.792083 -1.5008 0
M  V30 580 H 58.5039 2.11362 -3.29305 0
M  V30 581 H 58.1269 3.36408 -2.11933 0
M  V30 582 N 59.124 1.23083 0.984299 0
M  V30 583 C 60.535 1.05609 1.5396 0
M  V30 584 C 60.886 -0.377793 1.92528 0
M  V30 585 O 60.011 -1.26398 1.75649 0
M  V30 586 C 60.606 1.91087 2.7977 0
M  V30 587 C 59.165 1.77885 3.31713 0
M  V30 588 C 58.312 1.87028 2.04733 0
M  V30 589 H 61.263 1.36802 0.804419 0
M  V30 590 H 61.284 1.43336 3.5247 0
M  V30 591 H 60.796 2.9544 2.51668 0
M  V30 592 H 58.897 0.762995 3.64704 0
M  V30 593 H 59.01 2.61047 4.01735 0
M  V30 594 H 57.374 1.30565 2.18689 0
M  V30 595 H 58.157 2.92929 1.79017 0
M  V30 596 N 60.6021 -1.18246 1.0419 0
M  V30 597 C 61.8501 -1.87886 0.744543 0
M  V30 598 C 62.1711 -1.8082 -0.730006 0
M  V30 599 O 61.4411 -1.22736 -1.52685 0
M  V30 600 H 60.0211 -0.695556 0.272417 0
M  V30 601 H 62.6831 -1.43494 1.31892 0
M  V30 602 H 61.7791 -2.9389 1.05049 0
M  V30 603 N 62.0802 -0.821533 -1.34494 0
M  V30 604 C 63.0432 -0.247847 -2.27856 0
M  V30 605 C 64.0432 0.573453 -1.50227 0
M  V30 606 O 65.2332 0.389759 -1.69784 0
M  V30 607 C 62.3652 0.652698 -3.34593 0
M  V30 608 H 63.5582 -1.07146 -2.80107 0
M  V30 609 H 61.1112 -0.593291 -1.44602 0
M  V30 610 H 61.8462 1.49943 -2.87555 0
M  V30 611 H 61.6312 0.065292 -3.92046 0
M  V30 612 H 63.1212 1.04793 -4.04238 0
M  V30 613 N 63.5583 1.46682 -0.576371 0
M  V30 614 C 64.7833 2.07304 -0.0630475 0
M  V30 615 C 65.2083 1.42329 1.2298 0
M  V30 616 O 64.5663 0.504865 1.74129 0
M  V30 617 C 64.6143 3.60472 0.095895 0
M  V30 618 O 63.7183 3.95927 1.15394 0
M  V30 619 H 63.0593 0.661288 -0.0599463 0
M  V30 620 H 65.5893 1.88417 -0.797511 0
M  V30 621 H 65.5993 4.06865 0.304071 0
M  V30 622 H 64.2743 4.07157 -0.84828 0
M  V30 623 H 62.8513 3.61252 0.924724 0
M  V30 624 N 65.0364 0.313813 1.54444 0
M  V30 625 C 65.9684 -0.590425 2.21465 0
M  V30 626 C 66.9814 -1.08753 1.21147 0
M  V30 627 O 68.1704 -1.00278 1.4767 0
M  V30 628 C 65.2704 -1.82179 2.85769 0
M  V30 629 C 64.4434 -1.46502 4.12136 0
M  V30 630 C 63.5024 -2.55288 4.60124 0
M  V30 631 O 62.5284 -2.19842 5.25032 0
M  V30 632 N 63.7304 -3.86053 4.33525 0
M  V30 633 H 66.4954 -0.0166033 2.99695 0
M  V30 634 H 64.0564 0.136578 1.61323 0
M  V30 635 H 66.0484 -2.54328 3.14801 0
M  V30 636 H 64.6184 -2.30369 2.11303 0
M  V30 637 H 63.8384 -0.575595 3.89975 0
M  V30 638 H 65.1264 -1.20221 4.94393 0
M  V30 639 H 64.5244 -4.17654 3.81552 0
M  V30 640 H 63.0814 -4.54461 4.67235 0
M  V30 641 N 66.5145 -1.57545 0.0417849 0
M  V30 642 C 67.9255 -1.80011 -0.495259 0
M  V30 643 C 68.2765 -0.953199 -1.71489 0
M  V30 644 O 67.4015 -0.167138 -2.15754 0
M  V30 645 C 67.9965 -3.26482 -0.905265 0
M  V30 646 C 66.5555 -3.499 -1.38734 0
M  V30 647 C 65.7025 -2.74979 -0.358056 0
M  V30 648 H 68.6535 -1.56425 0.267736 0
M  V30 649 H 68.6745 -3.36887 -1.76882 0
M  V30 650 H 68.1865 -3.88096 -0.017401 0
M  V30 651 H 66.2875 -2.93553 -2.29471 0
M  V30 652 H 66.4005 -4.58615 -1.38598 0
M  V30 653 H 64.7645 -2.40834 -0.828912 0
M  V30 654 H 65.5475 -3.39315 0.521561 0
M  V30 655 N 67.9926 0.231505 -1.5589 0
M  V30 656 C 68.9226 1.29022 -1.94617 0
M  V30 657 C 69.9036 1.4941 -0.813067 0
M  V30 658 O 71.0886 1.6176 -1.07459 0
M  V30 659 C 68.2186 2.64199 -2.25424 0
M  V30 660 C 67.1726 2.58484 -3.41131 0
M  V30 661 C 66.4986 3.97599 -3.57518 0
M  V30 662 C 67.7986 2.1413 -4.76388 0
M  V30 663 H 69.4926 0.968563 -2.83301 0
M  V30 664 H 67.0386 0.464479 -1.36303 0
M  V30 665 H 68.9916 3.38413 -2.51107 0
M  V30 666 H 67.7156 2.98032 -1.33583 0
M  V30 667 H 66.3746 1.86727 -3.15481 0
M  V30 668 H 66.0226 4.28723 -2.6307 0
M  V30 669 H 65.7226 3.94659 -4.35337 0
M  V30 670 H 67.2466 4.7349 -3.85538 0
M  V30 671 H 68.6606 2.78083 -5.01341 0
M  V30 672 H 67.0576 2.2227 -5.57419 0
M  V30 673 H 68.1276 1.09331 -4.72414 0
M  V30 674 N 69.4707 1.49531 0.497807 0
M  V30 675 C 70.4007 1.6935 1.60757 0
M  V30 676 C 71.3817 0.542218 1.61227 0
M  V30 677 O 72.5667 0.778417 1.77917 0
M  V30 678 C 69.6967 1.76298 2.99226 0
M  V30 679 C 68.6507 2.91248 3.13622 0
M  V30 680 C 67.9767 2.83312 4.53474 0
M  V30 681 C 69.2767 4.3214 2.93346 0
M  V30 682 H 70.9707 2.62263 1.44425 0
M  V30 683 H 68.5167 1.26208 0.693367 0
M  V30 684 H 70.4697 1.88749 3.76765 0
M  V30 685 H 69.1937 0.799871 3.16654 0
M  V30 686 H 67.8527 2.78404 2.38509 0
M  V30 687 H 67.5007 1.84902 4.67782 0
M  V30 688 H 67.2007 3.60465 4.64046 0
M  V30 689 H 68.7247 2.97775 5.33069 0
M  V30 690 H 70.1387 4.45649 3.60652 0
M  V30 691 H 68.5357 5.1054 3.15387 0
M  V30 692 H 69.6057 4.46363 1.89441 0
M  V30 693 N 70.9488 -0.749086 1.3866 0
M  V30 694 C 71.9118 -1.84457 1.36045 0
M  V30 695 C 72.9118 -1.58682 0.260122 0
M  V30 696 O 74.1018 -1.66343 0.517261 0
M  V30 697 C 71.2338 -3.22008 1.11911 0
M  V30 698 H 72.4268 -1.88182 2.33512 0
M  V30 699 H 69.9798 -0.951266 1.24019 0
M  V30 700 H 70.7148 -3.2395 0.150686 0
M  V30 701 H 70.4998 -3.42111 1.91579 0
M  V30 702 H 71.9898 -4.0208 1.12788 0
M  V30 703 N 72.4269 -1.23603 -0.977757 0
M  V30 704 C 73.6729 -1.08136 -1.72274 0
M  V30 705 C 74.0279 0.377453 -1.88661 0
M  V30 706 O 73.3209 1.27552 -1.42972 0
M  V30 707 C 73.5149 -1.7433 -3.11999 0
M  V30 708 C 73.3439 -3.26498 -3.0924 0
M  V30 709 C 72.1139 -3.9567 -3.14282 0
M  V30 710 C 74.3119 -4.2323 -2.92201 0
M  V30 711 N 72.2939 -5.34799 -3.01436 0
M  V30 712 C 73.6649 -5.49289 -2.87544 0
M  V30 713 C 75.7199 -4.13931 -2.76705 0
M  V30 714 C 74.4229 -6.67116 -2.68978 0
M  V30 715 C 76.4489 -5.31424 -2.59504 0
M  V30 716 C 75.8109 -6.5641 -2.55548 0
M  V30 717 H 71.9099 -0.450247 -0.639376 0
M  V30 718 H 74.4939 -1.5637 -1.16002 0
M  V30 719 H 72.6649 -1.28624 -3.66484 0
M  V30 720 H 74.3969 -1.51815 -3.75146 0
M  V30 721 H 71.1519 -3.46767 -3.22567 0
M  V30 722 H 71.5759 -6.07748 -2.98281 0
M  V30 723 H 76.2179 -3.1807 -2.78552 0
M  V30 724 H 73.9359 -7.63109 -2.65876 0
M  V30 725 H 77.5219 -5.26072 -2.48474 0
M  V30 726 H 76.4019 -7.45795 -2.42405 0
M  V30 727 N 73.905 1.17692 -1.04816 0
M  V30 728 C 74.835 2.23777 -0.666791 0
M  V30 729 C 75.816 1.66796 0.33361 0
M  V30 730 O 77.001 1.93039 0.212042 0
M  V30 731 C 74.131 3.47281 -0.0367933 0
M  V30 732 C 73.085 4.17059 -0.961546 0
M  V30 733 C 72.411 5.34342 -0.195626 0
M  V30 734 C 73.711 4.69713 -2.28402 0
M  V30 735 H 75.405 2.55933 -1.55367 0
M  V30 736 H 72.951 1.23019 -0.748484 0
M  V30 737 H 74.904 4.20706 0.241775 0
M  V30 738 H 73.628 3.14381 0.885004 0
M  V30 739 H 72.287 3.45541 -1.22462 0
M  V30 740 H 71.935 4.97692 0.728816 0
M  V30 741 H 71.635 5.81966 -0.811775 0
M  V30 742 H 73.159 6.10553 0.0757473 0
M  V30 743 H 74.573 5.34794 -2.06563 0
M  V30 744 H 72.97 5.279 -2.8538 0
M  V30 745 H 74.04 3.86726 -2.92525 0
M  V30 746 N 75.3831 0.828654 1.34056 0
M  V30 747 C 76.3131 0.269443 2.3194 0
M  V30 748 C 77.2941 -0.617247 1.58506 0
M  V30 749 O 78.4791 -0.542931 1.86456 0
M  V30 750 C 75.6091 -0.564793 3.42677 0
M  V30 751 C 74.5631 0.225241 4.27407 0
M  V30 752 C 73.8891 -0.7321 5.29664 0
M  V30 753 C 75.1891 1.43663 5.02154 0
M  V30 754 H 76.8831 1.08728 2.7896 0
M  V30 755 H 74.4291 0.524283 1.34117 0
M  V30 756 H 76.3821 -0.966233 4.10173 0
M  V30 757 H 75.1061 -1.41574 2.9432 0
M  V30 758 H 73.7651 0.608117 3.61521 0
M  V30 759 H 73.4131 -1.57916 4.77568 0
M  V30 760 H 73.1131 -0.20767 5.87233 0
M  V30 761 H 74.6371 -1.13128 6.00029 0
M  V30 762 H 76.0511 1.1089 5.62473 0
M  V30 763 H 74.4481 1.89711 5.69324 0
M  V30 764 H 75.5181 2.21181 4.31517 0
M  V30 765 N 76.8612 -1.46375 0.584142 0
M  V30 766 C 77.7912 -2.33103 -0.136037 0
M  V30 767 C 78.7722 -1.45431 -0.882255 0
M  V30 768 O 79.9572 -1.74246 -0.857434 0
M  V30 769 C 77.0872 -3.27731 -1.14933 0
M  V30 770 C 76.0412 -4.24855 -0.517862 0
M  V30 771 C 75.3672 -5.09001 -1.63773 0
M  V30 772 C 76.6672 -5.19439 0.545886 0
M  V30 773 H 78.3612 -2.93568 0.588086 0
M  V30 774 H 75.9072 -1.41166 0.284259 0
M  V30 775 H 77.8602 -3.87261 -1.66153 0
M  V30 776 H 76.5842 -2.65377 -1.90375 0
M  V30 777 H 75.2432 -3.6659 -0.0267361 0
M  V30 778 H 74.8912 -4.43031 -2.38185 0
M  V30 779 H 74.5912 -5.74777 -1.22085 0
M  V30 780 H 76.1152 -5.71396 -2.15266 0
M  V30 781 H 77.5292 -5.73177 0.118704 0
M  V30 782 H 75.9262 -5.93566 0.88317 0
M  V30 783 H 76.9962 -4.63285 1.43162 0
M  V30 784 N 78.3393 -0.321999 -1.54275 0
M  V30 785 C 79.7503 0.166384 -1.85957 0
M  V30 786 C 80.1013 1.51747 -1.24367 0
M  V30 787 O 79.2263 2.09317 -0.549124 0
M  V30 788 C 79.8213 0.308681 -3.37391 0
M  V30 789 C 78.3803 0.741286 -3.69028 0
M  V30 790 C 77.5273 -0.137937 -2.76957 0
M  V30 791 H 80.4783 -0.542335 -1.49146 0
M  V30 792 H 80.4993 1.13984 -3.63026 0
M  V30 793 H 80.0113 -0.674809 -3.82188 0
M  V30 794 H 78.1123 1.73458 -3.29762 0
M  V30 795 H 78.2253 0.546118 -4.75977 0
M  V30 796 H 76.5893 0.386251 -2.51754 0
M  V30 797 H 77.3723 -1.11816 -3.2458 0
M  V30 798 N 79.8174 1.5752 -0.0501392 0
M  V30 799 C 80.7474 2.14502 0.922566 0
M  V30 800 C 81.7284 1.06642 1.3252 0
M  V30 801 O 82.9134 1.34577 1.4001 0
M  V30 802 C 80.0434 2.68916 2.19776 0
M  V30 803 C 78.9974 3.8175 1.93523 0
M  V30 804 C 78.3234 4.22677 3.27487 0
M  V30 805 C 79.6234 5.06932 1.25765 0
M  V30 806 H 81.3174 2.9603 0.447952 0
M  V30 807 H 78.8634 1.42401 0.214024 0
M  V30 808 H 80.8164 3.07419 2.88222 0
M  V30 809 H 79.5404 1.84578 2.69441 0
M  V30 810 H 78.1994 3.43718 1.27489 0
M  V30 811 H 77.8474 3.35291 3.74952 0
M  V30 812 H 77.5474 4.98725 3.1072 0
M  V30 813 H 79.0714 4.63779 3.97166 0
M  V30 814 H 80.4854 5.42888 1.84244 0
M  V30 815 H 78.8824 5.88116 1.19328 0
M  V30 816 H 79.9524 4.84337 0.233536 0
M  V30 817 N 81.2955 -0.223234 1.56011 0
M  V30 818 C 82.2255 -1.27988 1.95298 0
M  V30 819 C 83.2065 -1.48976 0.820979 0
M  V30 820 O 84.3915 -1.61188 1.08315 0
M  V30 821 C 81.5215 -2.63 2.26822 0
M  V30 822 C 80.4755 -2.56671 3.42497 0
M  V30 823 C 79.8015 -3.95697 3.59622 0
M  V30 824 C 81.1015 -2.11601 4.77517 0
M  V30 825 H 82.7955 -0.953525 2.8381 0
M  V30 826 H 80.3415 -0.457244 1.36548 0
M  V30 827 H 82.2945 -3.37077 2.52898 0
M  V30 828 H 81.0185 -2.9732 1.35161 0
M  V30 829 H 79.6775 -1.85051 3.16467 0
M  V30 830 H 79.3255 -4.27322 2.6534 0
M  V30 831 H 79.0255 -3.92345 4.37424 0
M  V30 832 H 80.5495 -4.71438 3.88044 0
M  V30 833 H 81.9635 -2.7542 5.02809 0
M  V30 834 H 80.3605 -2.19311 5.5859 0
M  V30 835 H 81.4305 -1.06824 4.72987 0
M  V30 836 N 82.7736 -1.49793 -0.48987 0
M  V30 837 C 83.7036 -1.70201 -1.59856 0
M  V30 838 C 84.6846 -0.55076 -1.60937 0
M  V30 839 O 85.8696 -0.787841 -1.77501 0
M  V30 840 C 82.9996 -1.77882 -2.98287 0
M  V30 841 C 81.9536 -2.92907 -3.12073 0
M  V30 842 C 81.2796 -2.85712 -4.51965 0
M  V30 843 C 82.5796 -4.3369 -2.91051 0
M  V30 844 H 84.2736 -2.63025 -1.43032 0
M  V30 845 H 81.8196 -1.26574 -0.686664 0
M  V30 846 H 83.7726 -1.90744 -3.75759 0
M  V30 847 H 82.4966 -0.816653 -3.16225 0
M  V30 848 H 81.1556 -2.79665 -2.37029 0
M  V30 849 H 80.8036 -1.8738 -4.66795 0
M  V30 850 H 80.5036 -3.62921 -4.62128 0
M  V30 851 H 82.0276 -3.00598 -5.31482 0
M  V30 852 H 83.4416 -4.47555 -3.58284 0
M  V30 853 H 81.8386 -5.12205 -3.12675 0
M  V30 854 H 82.9086 -4.47362 -1.87071 0
M  V30 855 N 84.2517 0.741722 -1.39055 0
M  V30 856 C 85.1817 1.869 -1.39966 0
M  V30 857 C 86.1627 1.6804 -0.26392 0
M  V30 858 O 87.3477 1.88458 -0.468755 0
M  V30 859 C 84.4777 3.24572 -1.23574 0
M  V30 860 C 83.4317 3.58056 -2.34477 0
M  V30 861 C 82.7577 4.94593 -2.0318 0
M  V30 862 C 84.0577 3.61716 -3.76774 0
M  V30 863 H 85.7517 1.86395 -2.34302 0
M  V30 864 H 83.2977 0.895361 -1.1278 0
M  V30 865 H 85.2507 4.031 -1.22834 0
M  V30 866 H 83.9747 3.25587 -0.257045 0
M  V30 867 H 82.6337 2.81854 -2.34423 0
M  V30 868 H 82.2817 4.92181 -1.03765 0
M  V30 869 H 81.9817 5.17964 -2.77465 0
M  V30 870 H 83.5057 5.75486 -2.04079 0
M  V30 871 H 84.9197 4.30335 -3.78794 0
M  V30 872 H 83.3167 3.96603 -4.50362 0
M  V30 873 H 84.3867 2.61672 -4.08235 0
M  V30 874 N 85.7298 1.2412 0.971189 0
M  V30 875 C 86.6598 1.05508 2.08304 0
M  V30 876 C 87.6408 -0.0308864 1.70072 0
M  V30 877 O 88.8258 0.135521 1.93727 0
M  V30 878 C 85.9558 0.655365 3.4106 0
M  V30 879 C 84.9098 1.68971 3.93234 0
M  V30 880 C 84.2358 1.14516 5.22293 0
M  V30 881 C 85.5358 3.08487 4.21465 0
M  V30 882 H 87.2298 1.98507 2.24132 0
M  V30 883 H 84.7758 0.955821 1.07704 0
M  V30 884 H 86.7288 0.51217 4.18276 0
M  V30 885 H 85.4528 -0.31032 3.25122 0
M  V30 886 H 84.1118 1.82106 3.18171 0
M  V30 887 H 83.7598 0.170189 5.02712 0
M  V30 888 H 83.4598 1.83635 5.58168 0
M  V30 889 H 84.9838 1.01401 6.02121 0
M  V30 890 H 86.3978 2.98601 4.89398 0
M  V30 891 H 84.7948 3.74926 4.68562 0
M  V30 892 H 85.8648 3.56787 3.28376 0
M  V30 893 N 87.2079 -1.17134 1.05439 0
M  V30 894 C 88.1379 -2.2342 0.678649 0
M  V30 895 C 89.1189 -1.66971 -0.32476 0
M  V30 896 O 90.3039 -1.93149 -0.201802 0
M  V30 897 C 87.4339 -3.47256 0.0552099 0
M  V30 898 C 86.3879 -4.16543 0.98365 0
M  V30 899 C 85.7139 -5.34231 0.223961 0
M  V30 900 C 87.0139 -4.68495 2.3089 0
M  V30 901 H 88.7079 -2.55105 1.56722 0
M  V30 902 H 86.2539 -1.2262 0.754998 0
M  V30 903 H 88.2069 -4.20828 -0.21946 0
M  V30 904 H 86.9309 -3.14846 -0.868319 0
M  V30 905 H 85.5899 -3.44887 1.24293 0
M  V30 906 H 85.2379 -4.98071 -0.702412 0
M  V30 907 H 84.9379 -5.81527 0.842627 0
M  V30 908 H 86.4619 -6.10585 -0.0433671 0
M  V30 909 H 87.8759 -5.33691 2.09396 0
M  V30 910 H 86.2729 -5.26379 2.88176 0
M  V30 911 H 87.3429 -3.85169 2.94572 0
M  V30 912 N 88.686 -0.835752 -1.33615 0
M  V30 913 C 89.932 -0.430596 -1.98176 0
M  V30 914 C 90.265 1.00684 -1.66061 0
M  V30 915 O 89.54 1.70339 -0.938877 0
M  V30 916 C 89.823 -0.648065 -3.5422 0
M  V30 917 C 89.676 -2.13255 -3.96033 0
M  V30 918 C 90.995 -0.0922113 -4.40003 0
M  V30 919 H 88.114 -0.157924 -0.719881 0
M  V30 920 H 90.756 -1.05069 -1.58305 0
M  V30 921 H 88.906 -0.120237 -3.88314 0
M  V30 922 H 90.578 -2.725 -3.72211 0
M  V30 923 H 88.821 -2.61823 -3.45878 0
M  V30 924 H 89.492 -2.23547 -5.04708 0
M  V30 925 H 91.968 -0.543343 -4.12537 0
M  V30 926 H 90.844 -0.274083 -5.48215 0
M  V30 927 H 91.105 1.00378 -4.30554 0
M  V30 928 N 90.1641 1.46063 -0.591896 0
M  V30 929 C 91.0941 2.33172 0.123673 0
M  V30 930 C 92.0751 1.45897 0.87453 0
M  V30 931 O 93.2601 1.74698 0.848181 0
M  V30 932 C 90.3901 3.28336 1.13194 0
M  V30 933 C 89.3441 4.25124 0.495324 0
M  V30 934 C 88.6701 5.09863 1.61071 0
M  V30 935 C 89.9701 5.19143 -0.573425 0
M  V30 936 H 91.6641 2.93252 -0.603646 0
M  V30 937 H 89.2101 1.41014 -0.291741 0
M  V30 938 H 91.1631 3.88137 1.64097 0
M  V30 939 H 89.8871 2.66383 1.88965 0
M  V30 940 H 88.5461 3.66599 0.00729452 0
M  V30 941 H 88.1941 4.44288 2.35832 0
M  V30 942 H 87.8941 5.75417 1.19035 0
M  V30 943 H 89.4181 5.72529 2.12233 0
M  V30 944 H 90.8321 5.73106 -0.1491 0
M  V30 945 H 89.2291 5.93089 -0.914636 0
M  V30 946 H 90.2991 4.62519 -1.45617 0
M  V30 947 N 91.6422 0.330177 1.54103 0
M  V30 948 C 92.5722 -0.525353 2.27513 0
M  V30 949 C 93.5532 -1.11383 1.2856 0
M  V30 950 O 94.7382 -1.13773 1.57383 0
M  V30 951 C 91.8682 -1.6831 3.03791 0
M  V30 952 C 90.8222 -1.2236 4.10137 0
M  V30 953 C 90.1482 -2.46882 4.74293 0
M  V30 954 C 91.4482 -0.333697 5.21233 0
M  V30 955 H 93.1422 0.087013 2.99274 0
M  V30 956 H 90.6882 0.0432893 1.43935 0
M  V30 957 H 92.6412 -2.28795 3.5388 0
M  V30 958 H 91.3652 -2.32216 2.29659 0
M  V30 959 H 90.0242 -0.64165 3.60941 0
M  V30 960 H 89.6722 -3.09165 3.96769 0
M  V30 961 H 89.3722 -2.16825 5.46133 0
M  V30 962 H 90.8962 -3.08117 5.27159 0
M  V30 963 H 92.3102 -0.845013 5.67038 0
M  V30 964 H 90.7072 -0.125612 5.99969 0
M  V30 965 H 91.7772 0.633724 4.80741 0
M  V30 966 N 93.1203 -1.57491 0.0584922 0
M  V30 967 C 94.0503 -2.14988 -0.911178 0
M  V30 968 C 95.0313 -1.07343 -1.31952 0
M  V30 969 O 96.2163 -1.35318 -1.39294 0
M  V30 970 C 93.3463 -2.70078 -2.18347 0
M  V30 971 C 92.3003 -3.82771 -1.91495 0
M  V30 972 C 91.6263 -4.24408 -3.25241 0
M  V30 973 C 92.9263 -5.07592 -1.23075 0
M  V30 974 H 94.6203 -2.96263 -0.432246 0
M  V30 975 H 92.1663 -1.42512 -0.206469 0
M  V30 976 H 94.1193 -3.08943 -2.86587 0
M  V30 977 H 92.8433 -1.86005 -2.68458 0
M  V30 978 H 91.5023 -3.44389 -1.25664 0
M  V30 979 H 91.1503 -3.37275 -3.73168 0
M  V30 980 H 90.8503 -5.00366 -3.08071 0
M  V30 981 H 92.3743 -4.65879 -3.94701 0
M  V30 982 H 93.7883 -5.43857 -1.81362 0
M  V30 983 H 92.1853 -5.88741 -1.16207 0
M  V30 984 H 93.2553 -4.84454 -0.207847 0
M  V30 985 N 94.5984 0.214957 -1.56127 0
M  V30 986 C 95.5614 1.24997 -1.92116 0
M  V30 987 C 96.5614 1.39467 -0.800344 0
M  V30 988 O 97.7514 1.37619 -1.06802 0
M  V30 989 C 94.8834 2.62271 -2.17777 0
M  V30 990 H 96.0764 0.942875 -2.84693 0
M  V30 991 H 93.6294 0.455654 -1.49511 0
M  V30 992 H 94.3644 2.98068 -1.27773 0
M  V30 993 H 94.1494 2.53143 -2.99434 0
M  V30 994 H 95.6394 3.36946 -2.46693 0
M  V30 995 N 96.0765 1.50051 0.48192 0
M  V30 996 C 97.0395 1.67584 1.5636 0
M  V30 997 C 98.0395 0.546894 1.51214 0
M  V30 998 O 99.2295 0.813725 1.54026 0
M  V30 999 C 96.3615 1.691 2.96003 0
M  V30 1000 H 97.5545 2.64078 1.42136 0
M  V30 1001 H 95.1075 1.39369 0.707533 0
M  V30 1002 H 95.8425 0.742589 3.15684 0
M  V30 1003 H 95.6275 2.51105 3.01146 0
M  V30 1004 H 97.1175 1.84656 3.74556 0
M  V30 1005 N 97.5546 -0.734337 1.39446 0
M  V30 1006 C 98.7846 -1.52137 1.39778 0
M  V30 1007 C 99.1926 -1.89198 -0.00929312 0
M  V30 1008 O 98.5356 -1.54666 -0.991168 0
M  V30 1009 C 98.5976 -2.83762 2.20724 0
M  V30 1010 C 98.2616 -2.69131 3.69347 0
M  V30 1011 C 99.2586 -2.37635 4.62413 0
M  V30 1012 C 96.9436 -2.85982 4.1294 0
M  V30 1013 C 98.9376 -2.23172 5.97054 0
M  V30 1014 C 96.6246 -2.71137 5.47657 0
M  V30 1015 C 97.6226 -2.39777 6.39528 0
M  V30 1016 O 97.3106 -2.25026 7.71763 0
M  V30 1017 H 97.0426 -0.476717 0.479288 0
M  V30 1018 H 99.5966 -0.915012 1.83893 0
M  V30 1019 H 97.8266 -3.4666 1.71359 0
M  V30 1020 H 99.5156 -3.45383 2.13226 0
M  V30 1021 H 100.282 -2.24267 4.30034 0
M  V30 1022 H 96.1606 -3.09383 3.41765 0
M  V30 1023 H 99.7046 -1.98617 6.68728 0
M  V30 1024 H 95.6016 -2.84083 5.79626 0
M  V30 1025 H 96.3696 -2.40091 7.82495 0
M  V30 1026 N 99.0327 -1.24633 -0.964593 0
M  V30 1027 C 100.28 -1.08788 -1.70796 0
M  V30 1028 C 100.608 0.372783 -1.90894 0
M  V30 1029 O 99.8627 1.29167 -1.47018 0
M  V30 1030 C 100.162 -1.7763 -3.10133 0
M  V30 1031 C 99.8277 -3.27557 -3.09866 0
M  V30 1032 C 98.4897 -3.6846 -3.09501 0
M  V30 1033 C 100.842 -4.23389 -3.03959 0
M  V30 1034 C 98.1697 -5.03624 -3.00965 0
M  V30 1035 C 100.522 -5.58565 -2.96965 0
M  V30 1036 C 99.1857 -5.98809 -2.9493 0
M  V30 1037 H 98.4557 -0.398084 -0.624988 0
M  V30 1038 H 101.103 -1.54777 -1.12767 0
M  V30 1039 H 99.4077 -1.24044 -3.71645 0
M  V30 1040 H 101.105 -1.62832 -3.66451 0
M  V30 1041 H 97.6947 -2.95006 -3.10917 0
M  V30 1042 H 101.879 -3.92787 -3.03368 0
M  V30 1043 H 97.1347 -5.33998 -2.97752 0
M  V30 1044 H 101.309 -6.32523 -2.91354 0
M  V30 1045 H 98.9357 -7.03505 -2.88071 0
M  V30 1046 N 100.511 1.16574 -1.06058 0
M  V30 1047 C 101.758 1.87047 -0.775873 0
M  V30 1048 C 102.086 1.81562 0.697534 0
M  V30 1049 O 101.341 1.22445 1.52662 0
M  V30 1050 C 101.64 3.36195 -1.21275 0
M  V30 1051 C 101.306 3.6188 -2.68986 0
M  V30 1052 C 99.9678 3.68599 -3.09335 0
M  V30 1053 C 102.32 3.72648 -3.64394 0
M  V30 1054 C 99.6478 3.83584 -4.43937 0
M  V30 1055 C 102 3.89154 -4.98741 0
M  V30 1056 C 100.664 3.94114 -5.3873 0
M  V30 1057 H 99.9338 0.684452 -0.283912 0
M  V30 1058 H 102.581 1.37853 -1.32925 0
M  V30 1059 H 100.886 3.87505 -0.578528 0
M  V30 1060 H 102.583 3.89103 -0.969542 0
M  V30 1061 H 99.1728 3.57281 -2.36744 0
M  V30 1062 H 103.357 3.66769 -3.34356 0
M  V30 1063 H 98.6128 3.85677 -4.74409 0
M  V30 1064 H 102.787 3.96427 -5.72554 0
M  V30 1065 H 100.414 4.05478 -6.43033 0
M  V30 1066 N 101.989 0.842826 1.3317 0
M  V30 1067 C 103.405 0.531128 1.50503 0
M  V30 1068 C 103.605 -0.940734 1.78192 0
M  V30 1069 O 102.661 -1.72436 1.84451 0
M  V30 1070 C 103.974 1.40789 2.65705 0
M  V30 1071 C 105.522 1.40708 2.79589 0
M  V30 1072 C 105.997 2.26878 3.97857 0
M  V30 1073 N 107.488 2.24609 4.05099 0
M  V30 1074 C 108.223 2.88019 4.95815 0
M  V30 1075 N 107.719 3.60496 5.9162 0
M  V30 1076 N 109.512 2.77469 4.88843 0
M  V30 1077 H 101.663 1.79557 1.1346 0
M  V30 1078 H 103.926 0.766267 0.558156 0
M  V30 1079 H 103.632 2.454 2.51936 0
M  V30 1080 H 103.506 1.08677 3.61205 0
M  V30 1081 H 105.893 0.368668 2.92788 0
M  V30 1082 H 105.974 1.76829 1.84838 0
M  V30 1083 H 105.618 3.3078 3.85418 0
M  V30 1084 H 105.548 1.88096 4.91861 0
M  V30 1085 H 108.039 1.71906 3.36536 0
M  V30 1086 H 108.352 4.06076 6.57512 0
M  V30 1087 H 106.697 3.64604 5.91683 0
M  V30 1088 H 109.888 2.20406 4.12963 0
M  V30 1089 H 110.061 3.2717 5.59342 0
M  V30 1090 N 103.467 -1.45747 0.599634 0
M  V30 1091 C 104.714 -2.02292 0.0917284 0
M  V30 1092 C 105.042 -1.46906 -1.27472 0
M  V30 1093 O 104.297 -0.630652 -1.8526 0
M  V30 1094 C 104.596 -3.57399 -0.00602758 0
M  V30 1095 C 104.262 -4.31902 1.29503 0
M  V30 1096 C 102.924 -4.51974 1.65144 0
M  V30 1097 C 105.276 -4.74551 2.15525 0
M  V30 1098 C 102.604 -5.11949 2.86574 0
M  V30 1099 C 104.956 -5.35868 3.36196 0
M  V30 1100 C 103.62 -5.54165 3.72099 0
M  V30 1101 H 102.89 -0.740239 0.0335658 0
M  V30 1102 H 105.537 -1.7491 0.779661 0
M  V30 1103 H 103.842 -3.84014 -0.777183 0
M  V30 1104 H 105.539 -3.98846 -0.415038 0
M  V30 1105 H 102.129 -4.16588 1.00761 0
M  V30 1106 H 106.313 -4.58784 1.8929 0
M  V30 1107 H 101.569 -5.24305 3.14507 0
M  V30 1108 H 105.743 -5.6787 4.03109 0
M  V30 1109 H 103.37 -6.00406 4.6628 0
M  V30 1110 N 104.945 -0.338344 -1.53925 0
M  V30 1111 C 106.361 0.0137736 -1.59594 0
M  V30 1112 C 106.561 1.49186 -1.35447 0
M  V30 1113 O 105.617 2.24987 -1.14616 0
M  V30 1114 C 106.93 -0.41773 -2.97784 0
M  V30 1115 C 108.478 -0.369633 -3.1081 0
M  V30 1116 C 108.953 -0.776524 -4.51369 0
M  V30 1117 N 110.444 -0.730506 -4.57403 0
M  V30 1118 C 111.179 -1.01736 -5.64303 0
M  V30 1119 N 110.675 -1.3721 -6.79077 0
M  V30 1120 N 112.468 -0.941942 -5.54151 0
M  V30 1121 H 104.619 -1.3012 -1.67876 0
M  V30 1122 H 106.882 -0.530082 -0.78595 0
M  V30 1123 H 106.588 -1.44811 -3.20504 0
M  V30 1124 H 106.462 0.209729 -3.76616 0
M  V30 1125 H 108.849 0.651568 -2.87817 0
M  V30 1126 H 108.93 -1.03223 -2.34049 0
M  V30 1127 H 108.574 -1.79571 -4.75096 0
M  V30 1128 H 108.504 -0.0914649 -5.26521 0
M  V30 1129 H 110.995 -0.468783 -3.74981 0
M  V30 1130 H 111.308 -1.57597 -7.5656 0
M  V30 1131 H 109.653 -1.4105 -6.80536 0
M  V30 1132 H 112.844 -0.664184 -4.63364 0
M  V30 1133 H 113.017 -1.16884 -6.37371 0
M  V30 1134 N 106.423 1.57458 -0.0668435 0
M  V30 1135 C 107.37 2.12439 0.902122 0
M  V30 1136 C 108.34 1.03565 1.2986 0
M  V30 1137 O 109.525 1.312 1.38532 0
M  V30 1138 C 106.665 2.6865 2.16614 0
M  V30 1139 C 105.778 3.91663 1.82274 0
M  V30 1140 C 104.913 4.36134 3.0325 0
M  V30 1141 C 103.952 5.51808 2.64904 0
M  V30 1142 N 103.089 5.9126 3.78624 0
M  V30 1143 H 107.929 2.94934 0.426382 0
M  V30 1144 H 105.466 1.4575 0.198819 0
M  V30 1145 H 107.424 2.99346 2.90599 0
M  V30 1146 H 106.054 1.88928 2.61737 0
M  V30 1147 H 105.106 3.6746 0.983719 0
M  V30 1148 H 106.418 4.75693 1.50059 0
M  V30 1149 H 105.572 4.68465 3.85519 0
M  V30 1150 H 104.311 3.50948 3.38655 0
M  V30 1151 H 103.316 5.19133 1.81055 0
M  V30 1152 H 104.541 6.38722 2.30675 0
M  V30 1153 H 102.487 5.09024 4.138 0
M  V30 1154 H 102.404 6.70018 3.5016 0
M  V30 1155 H 103.672 6.28212 4.61486 0
M  V30 1156 N 107.901 -0.206675 1.56239 0
M  V30 1157 C 108.833 -1.27997 1.9013 0
M  V30 1158 C 109.846 -1.42299 0.790883 0
M  V30 1159 O 111.035 -1.42931 1.06925 0
M  V30 1160 C 108.135 -2.65368 2.10792 0
M  V30 1161 C 107.308 -2.72824 3.41886 0
M  V30 1162 C 106.367 -3.9131 3.51799 0
M  V30 1163 O 105.393 -3.78953 4.24716 0
M  V30 1164 N 106.595 -5.06265 2.84035 0
M  V30 1165 H 109.36 -0.992444 2.82791 0
M  V30 1166 H 106.921 -0.396652 1.56966 0
M  V30 1167 H 108.913 -3.43039 2.14724 0
M  V30 1168 H 107.483 -2.86657 1.24685 0
M  V30 1169 H 106.703 -1.81515 3.49923 0
M  V30 1170 H 107.991 -2.74786 4.28217 0
M  V30 1171 H 107.389 -5.19203 2.246 0
M  V30 1172 H 105.946 -5.81925 2.93609 0
M  V30 1173 N 109.379 -1.50304 -0.473955 0
M  V30 1174 C 110.795 -1.37667 -0.807466 0
M  V30 1175 C 110.995 -0.430555 -1.96846 0
M  V30 1176 O 110.051 0.127874 -2.52176 0
M  V30 1177 C 111.364 -2.78974 -1.12223 0
M  V30 1178 C 112.912 -2.87868 -1.22885 0
M  V30 1179 C 113.387 -4.30003 -1.57676 0
M  V30 1180 N 114.878 -4.3294 -1.64673 0
M  V30 1181 C 115.613 -5.3991 -1.93091 0
M  V30 1182 N 115.109 -6.57092 -2.1955 0
M  V30 1183 N 116.902 -5.27351 -1.94569 0
M  V30 1184 H 109.053 -2.10394 0.291212 0
M  V30 1185 H 111.316 -0.945575 0.0677609 0
M  V30 1186 H 111.022 -3.50031 -0.342229 0
M  V30 1187 H 110.896 -3.16038 -2.05913 0
M  V30 1188 H 113.283 -2.17032 -1.99953 0
M  V30 1189 H 113.364 -2.54352 -0.271814 0
M  V30 1190 H 113.008 -5.01375 -0.81149 0
M  V30 1191 H 112.938 -4.61004 -2.54525 0
M  V30 1192 H 115.429 -3.48441 -1.46277 0
M  V30 1193 H 115.742 -7.34425 -2.405 0
M  V30 1194 H 114.087 -6.60272 -2.16948 0
M  V30 1195 H 117.278 -4.34801 -1.73394 0
M  V30 1196 H 117.451 -6.10805 -2.16381 0
M  V30 1197 N 110.857 0.726932 -1.39834 0
M  V30 1198 C 111.804 1.841 -1.39197 0
M  V30 1199 C 112.774 1.642 -0.250502 0
M  V30 1200 O 113.959 1.85494 -0.446846 0
M  V30 1201 C 111.099 3.21697 -1.24919 0
M  V30 1202 C 110.212 3.53247 -2.48678 0
M  V30 1203 C 109.347 4.80289 -2.26928 0
M  V30 1204 C 108.386 5.04707 -3.4632 0
M  V30 1205 N 107.523 6.22956 -3.23836 0
M  V30 1206 H 112.363 1.83979 -2.34427 0
M  V30 1207 H 109.9 0.898876 -1.16442 0
M  V30 1208 H 111.858 4.01137 -1.1465 0
M  V30 1209 H 110.488 3.21076 -0.333153 0
M  V30 1210 H 109.54 2.68447 -2.69519 0
M  V30 1211 H 110.852 3.67205 -3.37582 0
M  V30 1212 H 110.006 5.67725 -2.13947 0
M  V30 1213 H 108.745 4.68519 -1.35431 0
M  V30 1214 H 107.75 4.1573 -3.5979 0
M  V30 1215 H 108.975 5.18357 -4.38729 0
M  V30 1216 H 106.921 6.12459 -2.35011 0
M  V30 1217 H 106.838 6.37539 -4.063 0
M  V30 1218 H 108.106 7.1321 -3.14566 0
M  V30 1219 N 112.336 1.25143 0.95797 0
M  V30 1220 C 113.299 1.05321 2.03569 0
M  V30 1221 C 114.299 0.007152 1.60798 0
M  V30 1222 O 115.489 0.24903 1.72411 0
M  V30 1223 C 112.621 0.598394 3.35607 0
M  V30 1224 H 113.814 2.00986 2.22586 0
M  V30 1225 H 111.367 1.07502 1.13459 0
M  V30 1226 H 112.102 -0.361014 3.22284 0
M  V30 1227 H 111.887 1.35351 3.67998 0
M  V30 1228 H 113.377 0.48104 4.1482 0
M  V30 1229 N 113.814 -1.1601 1.06675 0
M  V30 1230 C 115.06 -1.86909 0.786945 0
M  V30 1231 C 115.393 -1.81717 -0.685018 0
M  V30 1232 O 114.668 -1.23551 -1.50218 0
M  V30 1233 C 114.951 -3.36313 1.28707 0
M  V30 1234 C 114.804 -3.50175 2.82308 0
M  V30 1235 C 116.123 -4.3084 0.898071 0
M  V30 1236 H 113.242 -0.678677 0.287343 0
M  V30 1237 H 115.884 -1.36336 1.32334 0
M  V30 1238 H 114.034 -3.79513 0.830768 0
M  V30 1239 H 115.706 -3.15886 3.36175 0
M  V30 1240 H 113.949 -2.91959 3.20847 0
M  V30 1241 H 114.62 -4.55116 3.12368 0
M  V30 1242 H 117.096 -3.95561 1.29114 0
M  V30 1243 H 115.972 -5.33876 1.27543 0
M  V30 1244 H 116.233 -4.41662 -0.196651 0
M  V30 1245 N 115.292 -0.849877 -1.32721 0
M  V30 1246 C 116.538 -0.451591 -1.97708 0
M  V30 1247 C 116.871 0.989175 -1.6712 0
M  V30 1248 O 116.146 1.69334 -0.956891 0
M  V30 1249 C 116.429 -0.685598 -3.53513 0
M  V30 1250 C 116.282 -2.17444 -3.93749 0
M  V30 1251 C 117.601 -0.138874 -4.39881 0
M  V30 1252 H 114.72 -0.16555 -0.718166 0
M  V30 1253 H 117.362 -1.06742 -1.57182 0
M  V30 1254 H 115.512 -0.161416 -3.88165 0
M  V30 1255 H 117.184 -2.76433 -3.693 0
M  V30 1256 H 115.427 -2.65476 -3.43081 0
M  V30 1257 H 116.098 -2.28888 -5.02309 0
M  V30 1258 H 118.574 -0.587068 -4.11938 0
M  V30 1259 H 117.45 -0.332213 -5.47894 0
M  V30 1260 H 117.711 0.95806 -4.31594 0
M  V30 1261 N 116.77 1.45427 -0.607355 0
M  V30 1262 C 117.995 2.07124 -0.107006 0
M  V30 1263 C 118.42 1.44906 1.19933 0
M  V30 1264 O 117.778 0.541687 1.73019 0
M  V30 1265 C 117.826 3.60595 0.0194119 0
M  V30 1266 O 116.93 3.98285 1.0697 0
M  V30 1267 H 116.271 0.659868 -0.0739597 0
M  V30 1268 H 118.801 1.86683 -0.837297 0
M  V30 1269 H 118.811 4.07419 0.2177 0
M  V30 1270 H 117.486 4.05266 -0.934453 0
M  V30 1271 H 116.063 3.63133 0.847889 0
M  V30 1272 N 118.248 0.346503 1.53744 0
M  V30 1273 C 119.476 -0.25041 2.05379 0
M  V30 1274 C 119.891 -1.43979 1.22129 0
M  V30 1275 O 119.248 -1.80677 0.257321 0
M  V30 1276 C 119.299 -0.662575 3.55376 0
M  V30 1277 O 119.02 0.479515 4.35468 0
M  V30 1278 C 120.521 -1.31989 4.23195 0
M  V30 1279 H 117.741 -0.0478198 0.669294 0
M  V30 1280 H 120.285 0.499346 1.9831 0
M  V30 1281 H 118.44 -1.36227 3.62658 0
M  V30 1282 H 118.854 0.15037 5.24284 0
M  V30 1283 H 120.328 -1.55902 5.29527 0
M  V30 1284 H 120.805 -2.27436 3.75725 0
M  V30 1285 H 121.411 -0.662154 4.20114 0
M  V30 1286 N 119.726 -1.57421 0.075193 0
M  V30 1287 C 120.951 -1.98364 -0.605515 0
M  V30 1288 C 121.376 -0.953383 -1.62149 0
M  V30 1289 O 120.734 0.0806053 -1.81121 0
M  V30 1290 C 120.782 -3.38332 -1.24756 0
M  V30 1291 O 119.886 -3.37959 -2.36342 0
M  V30 1292 H 119.227 -0.645553 -0.155428 0
M  V30 1293 H 121.757 -2.04044 0.150714 0
M  V30 1294 H 121.767 -3.75591 -1.5936 0
M  V30 1295 H 120.442 -4.12846 -0.503129 0
M  V30 1296 H 119.019 -3.12474 -2.03506 0
M  V30 1297 N 121.204 0.198386 -1.56346 0
M  V30 1298 C 122.481 0.944982 -1.71258 0
M  V30 1299 C 122.861 2.0151 -0.629048 0
M  V30 1300 O 122.209 2.25639 0.360473 0
M  V30 1301 C 122.419 1.5344 -3.1346 0
M  V30 1302 C 123.767 2.01778 -3.73591 0
M  V30 1303 O 124.791 1.63288 -3.16568 0
M  V30 1304 O 123.65 2.72594 -4.73661 0
M  V30 1305 H 120.744 0.442939 -0.69838 0
M  V30 1306 H 123.29 0.188342 -1.68652 0
M  V30 1307 H 122.062 0.762869 -3.83792 0
M  V30 1308 H 121.685 2.35596 -3.20282 0
M  V30 1309 N 122.682 1.50554 0.465978 0
M  V30 1310 C 123.629 1.6979 1.56333 0
M  V30 1311 C 124.599 0.539239 1.57103 0
M  V30 1312 O 125.784 0.770401 1.74555 0
M  V30 1313 C 122.924 1.80273 2.94271 0
M  V30 1314 C 122.037 3.07674 3.0325 0
M  V30 1315 C 121.172 3.08922 4.32135 0
M  V30 1316 C 120.211 4.30755 4.34875 0
M  V30 1317 N 119.348 4.29714 5.55239 0
M  V30 1318 H 124.188 2.63472 1.39235 0
M  V30 1319 H 121.725 1.30602 0.676873 0
M  V30 1320 H 123.683 1.84332 3.74269 0
M  V30 1321 H 122.313 0.900258 3.09992 0
M  V30 1322 H 121.365 3.13062 2.16094 0
M  V30 1323 H 122.677 3.97642 3.01135 0
M  V30 1324 H 121.831 3.11738 5.20485 0
M  V30 1325 H 120.57 2.16792 4.36866 0
M  V30 1326 H 119.575 4.28146 3.44922 0
M  V30 1327 H 120.8 5.24117 4.31831 0
M  V30 1328 H 118.746 3.4044 5.60746 0
M  V30 1329 H 118.663 5.13456 5.54886 0
M  V30 1330 H 119.931 4.36683 6.457 0
M  V30 1331 N 124.16 -0.719506 1.40217 0
M  V30 1332 C 125.107 -1.83359 1.40172 0
M  V30 1333 C 126.077 -1.64065 0.259206 0
M  V30 1334 O 127.262 -1.85254 0.456677 0
M  V30 1335 C 124.402 -3.2103 1.26624 0
M  V30 1336 C 123.515 -3.51923 2.50548 0
M  V30 1337 C 122.65 -4.79079 2.29471 0
M  V30 1338 C 121.689 -5.02863 3.48992 0
M  V30 1339 N 120.826 -6.2123 3.27135 0
M  V30 1340 H 125.666 -1.82733 2.35399 0
M  V30 1341 H 123.203 -0.892688 1.16917 0
M  V30 1342 H 125.161 -4.00524 1.16776 0
M  V30 1343 H 123.791 -3.20895 0.350176 0
M  V30 1344 H 122.843 -2.67014 2.70939 0
M  V30 1345 H 124.155 -3.6541 3.39525 0
M  V30 1346 H 123.309 -5.66582 2.16955 0
M  V30 1347 H 122.048 -4.67794 1.37913 0
M  V30 1348 H 121.053 -4.13816 3.6199 0
M  V30 1349 H 122.278 -5.16023 4.41472 0
M  V30 1350 H 120.224 -6.11204 2.38256 0
M  V30 1351 H 120.141 -6.35375 4.09675 0
M  V30 1352 H 121.409 -7.11532 3.18344 0
M  V30 1353 N 125.638 -1.25649 -0.95132 0
M  V30 1354 C 126.571 -1.00644 -2.04807 0
M  V30 1355 C 127.549 0.0654271 -1.62468 0
M  V30 1356 O 128.733 -0.074911 -1.88351 0
M  V30 1357 C 125.86 -0.522052 -3.34653 0
M  V30 1358 C 124.906 -1.58495 -3.95957 0
M  V30 1359 S 125.739 -3.17108 -4.31512 0
M  V30 1360 C 126.895 -2.70412 -5.64471 0
M  V30 1361 H 127.128 -1.93508 -2.25703 0
M  V30 1362 H 124.661 -1.09216 -1.09139 0
M  V30 1363 H 126.619 -0.24923 -4.09743 0
M  V30 1364 H 125.28 0.386146 -3.11717 0
M  V30 1365 H 124.473 -1.1968 -4.89584 0
M  V30 1366 H 124.075 -1.80862 -3.2736 0
M  V30 1367 H 126.367 -2.14245 -6.42733 0
M  V30 1368 H 127.31 -3.62693 -6.08161 0
M  V30 1369 H 127.718 -2.10302 -5.23864 0
M  V30 1370 N 127.117 1.15442 -1.07289 0
M  V30 1371 C 128.528 1.67803 -0.818475 0
M  V30 1372 C 128.879 1.8489 0.656507 0
M  V30 1373 O 128.004 1.55176 1.50829 0
M  V30 1374 C 128.599 3.04805 -1.47917 0
M  V30 1375 C 127.158 3.54245 -1.27229 0
M  V30 1376 C 126.305 2.29986 -1.54925 0
M  V30 1377 H 129.256 0.996646 -1.23502 0
M  V30 1378 H 129.277 3.69702 -0.90005 0
M  V30 1379 H 128.789 2.92336 -2.55267 0
M  V30 1380 H 126.89 3.71956 -0.21899 0
M  V30 1381 H 127.003 4.35723 -1.99203 0
M  V30 1382 H 125.367 2.35496 -0.970242 0
M  V30 1383 H 126.15 2.20105 -2.63455 0
M  V30 1384 N 128.595 0.856903 1.32268 0
M  V30 1385 C 129.543 0.291987 2.3076 0
M  V30 1386 C 130.537 -0.585857 1.58947 0
M  V30 1387 O 131.743 -0.47341 1.73663 0
M  V30 1388 H 128.118 0.075721 0.748178 0
M  V30 1389 H 130.089 1.13687 2.75895 0
M  V30 1390 C 128.838 -0.502869 3.44044 0
M  V30 1391 H 128.161 0.163328 3.99466 0
M  V30 1392 H 129.601 -0.863691 4.1511 0
M  V30 1393 C 128.06 -1.68898 2.91505 0
M  V30 1394 O 128.59 -2.78811 2.89184 0
M  V30 1395 N 126.796 -1.51679 2.47875 0
M  V30 1396 H 126.343 -0.622666 2.49961 0
M  V30 1397 H 126.301 -2.31184 2.13076 0
M  V30 1398 N 130.073 -1.45103 0.615059 0
M  V30 1399 C 131.321 -2.01784 0.112955 0
M  V30 1400 C 131.642 -1.48504 -1.26378 0
M  V30 1401 O 130.912 -0.682245 -1.83636 0
M  V30 1402 H 129.492 -0.745993 0.0387668 0
M  V30 1403 H 132.154 -1.77808 0.798141 0
M  V30 1404 H 131.25 -3.12025 0.0684069 0
M  V30 1405 N 131.551 -0.354651 -1.53558 0
M  V30 1406 C 132.8 0.239504 -2.00273 0
M  V30 1407 C 133.113 1.50759 -1.24623 0
M  V30 1408 O 134.319 2.17968 -1.61871 0
M  V30 1409 C 132.775 0.477341 -3.5672 0
M  V30 1410 C 132.383 -0.775488 -4.41237 0
M  V30 1411 C 134.127 1.02975 -4.11821 0
M  V30 1412 C 132.034 -0.507838 -5.89216 0
M  V30 1413 H 130.964 0.0932743 -0.748208 0
M  V30 1414 H 133.615 -0.471701 -1.77334 0
M  V30 1415 H 131.997 1.24953 -3.7577 0
M  V30 1416 H 133.171 -1.54963 -4.33962 0
M  V30 1417 H 131.486 -1.25033 -3.97185 0
M  V30 1418 H 134.083 1.24513 -5.2 0
M  V30 1419 H 134.426 1.98862 -3.65731 0
M  V30 1420 H 134.959 0.317994 -3.96527 0
M  V30 1421 H 131.698 -1.43674 -6.39561 0
M  V30 1422 H 131.218 0.228011 -5.99366 0
M  V30 1423 H 132.897 -0.129238 -6.46871 0
M  V30 1424 N 133.029 1.57378 -0.0835403 0
M  V30 1425 C 133.959 2.1641 0.87686 0
M  V30 1426 C 134.94 1.09429 1.30228 0
M  V30 1427 O 136.125 1.37516 1.37124 0
M  V30 1428 C 133.255 2.73517 2.14022 0
M  V30 1429 C 132.209 3.85769 1.85381 0
M  V30 1430 C 131.535 4.29529 3.18448 0
M  V30 1431 C 132.835 5.09486 1.14984 0
M  V30 1432 H 134.529 2.96914 0.385059 0
M  V30 1433 H 132.075 1.42823 0.18377 0
M  V30 1434 H 134.028 3.13463 2.81636 0
M  V30 1435 H 132.752 1.90252 2.65465 0
M  V30 1436 H 131.411 3.46345 1.20169 0
M  V30 1437 H 131.059 3.43169 3.67755 0
M  V30 1438 H 130.759 5.05204 3.00071 0
M  V30 1439 H 132.283 4.72099 3.8724 0
M  V30 1440 H 133.697 5.46674 1.72687 0
M  V30 1441 H 132.094 5.90515 1.06826 0
M  V30 1442 H 133.164 4.84724 0.130749 0
M  V30 1443 N 134.507 -0.190092 1.56449 0
M  V30 1444 C 135.417 -1.25591 1.98152 0
M  V30 1445 C 136.433 -1.49519 0.889944 0
M  V30 1446 O 137.609 -1.62036 1.19609 0
M  V30 1447 C 134.674 -2.57916 2.3169 0
M  V30 1448 C 133.735 -2.42015 3.5458 0
M  V30 1449 C 132.968 -3.6803 3.8651 0
M  V30 1450 O 133.191 -4.72413 3.1966 0
M  V30 1451 O 132.125 -3.6326 4.79923 0
M  V30 1452 H 135.951 -0.931988 2.89046 0
M  V30 1453 H 133.536 -0.395488 1.4407 0
M  V30 1454 H 135.418 -3.36008 2.54316 0
M  V30 1455 H 134.093 -2.89925 1.43963 0
M  V30 1456 H 133 -1.62017 3.37196 0
M  V30 1457 H 134.333 -2.14937 4.4279 0
M  V30 1458 N 135.985 -1.50799 -0.457987 0
M  V30 1459 C 136.895 -1.73426 -1.57989 0
M  V30 1460 C 137.911 -0.617745 -1.62665 0
M  V30 1461 O 139.087 -0.897614 -1.80291 0
M  V30 1462 C 136.152 -1.83557 -2.94122 0
M  V30 1463 C 135.213 -3.07345 -2.99729 0
M  V30 1464 C 134.446 -3.16983 -4.29368 0
M  V30 1465 O 134.669 -2.33077 -5.20607 0
M  V30 1466 O 133.603 -4.09812 -4.40837 0
M  V30 1467 H 137.429 -2.68555 -1.41817 0
M  V30 1468 H 135.014 -1.35052 -0.638859 0
M  V30 1469 H 136.896 -1.92326 -3.74952 0
M  V30 1470 H 135.571 -0.916137 -3.10465 0
M  V30 1471 H 134.478 -3.04068 -2.1793 0
M  V30 1472 H 135.811 -3.9891 -2.88326 0
M  V30 1473 N 137.463 0.71206 -1.40597 0
M  V30 1474 C 138.395 1.83704 -1.37061 0
M  V30 1475 C 139.408 1.60453 -0.275426 0
M  V30 1476 O 140.597 1.70262 -0.53602 0
M  V30 1477 C 137.697 3.20172 -1.11099 0
M  V30 1478 C 136.87 3.7059 -2.3234 0
M  V30 1479 C 135.929 4.85681 -2.02485 0
M  V30 1480 O 134.955 4.9815 -2.75382 0
M  V30 1481 N 136.157 5.71735 -1.00497 0
M  V30 1482 H 138.922 1.87235 -2.34016 0
M  V30 1483 H 136.483 0.893739 -1.34996 0
M  V30 1484 H 138.475 3.94768 -0.891064 0
M  V30 1485 H 137.045 3.11767 -0.227989 0
M  V30 1486 H 136.265 2.87085 -2.7014 0
M  V30 1487 H 137.553 4.01011 -3.13157 0
M  V30 1488 H 136.951 5.64275 -0.401298 0
M  V30 1489 H 135.508 6.463 -0.844942 0
M  V30 1490 N 138.941 1.26152 0.944643 0
M  V30 1491 C 139.851 1.09176 2.07648 0
M  V30 1492 C 140.867 0.0261935 1.7398 0
M  V30 1493 O 142.043 0.229208 2.00091 0
M  V30 1494 C 139.108 0.722915 3.39079 0
M  V30 1495 C 138.169 1.86752 3.86552 0
M  V30 1496 C 137.402 1.51617 5.11711 0
M  V30 1497 O 137.625 0.416331 5.68879 0
M  V30 1498 O 136.559 2.34975 5.54139 0
M  V30 1499 H 140.385 2.0412 2.24875 0
M  V30 1500 H 137.97 1.05182 1.061 0
M  V30 1501 H 139.852 0.529787 4.18056 0
M  V30 1502 H 138.527 -0.197159 3.23099 0
M  V30 1503 H 137.434 2.11558 3.08535 0
M  V30 1504 H 138.767 2.76719 4.07047 0
M  V30 1505 N 140.419 -1.14872 1.07899 0
M  V30 1506 C 141.351 -2.19425 0.662231 0
M  V30 1507 C 142.364 -1.60231 -0.288079 0
M  V30 1508 O 143.553 -1.78336 -0.076534 0
M  V30 1509 C 140.653 -3.38867 -0.0470695 0
M  V30 1510 C 139.826 -4.27597 0.920831 0
M  V30 1511 C 138.885 -5.25616 0.247805 0
M  V30 1512 O 137.911 -5.62189 0.890599 0
M  V30 1513 N 139.113 -5.71746 -1.00435 0
M  V30 1514 H 141.878 -2.55797 1.56166 0
M  V30 1515 H 139.439 -1.30042 0.964404 0
M  V30 1516 H 141.431 -4.01497 -0.50813 0
M  V30 1517 H 140.001 -3.00864 -0.848523 0
M  V30 1518 H 139.221 -3.61982 1.56087 0
M  V30 1519 H 140.509 -4.83748 1.57688 0
M  V30 1520 H 139.907 -5.44153 -1.54642 0
M  V30 1521 H 138.464 -6.36389 -1.40899 0
M  V30 1522 N 141.898 -0.863906 -1.31812 0
M  V30 1523 C 142.83 -0.272485 -2.27575 0
M  V30 1524 C 143.843 0.56104 -1.52827 0
M  V30 1525 O 145.032 0.384021 -1.7432 0
M  V30 1526 C 142.132 0.63283 -3.32939 0
M  V30 1527 C 141.305 -0.166902 -4.37081 0
M  V30 1528 C 140.364 0.665608 -5.21973 0
M  V30 1529 O 139.39 0.0958091 -5.69119 0
M  V30 1530 N 140.592 1.9787 -5.45736 0
M  V30 1531 H 143.357 -1.0954 -2.78964 0
M  V30 1532 H 140.918 -0.724791 -1.4477 0
M  V30 1533 H 142.91 1.19532 -3.86645 0
M  V30 1534 H 141.48 1.35642 -2.81638 0
M  V30 1535 H 140.7 -0.910838 -3.83533 0
M  V30 1536 H 141.988 -0.715874 -5.03739 0
M  V30 1537 H 141.386 2.46484 -5.09178 0
M  V30 1538 H 139.943 2.48911 -6.024 0
M  V30 1539 N 143.376 1.44774 -0.622745 0
M  V30 1540 C 144.792 1.56986 -0.287652 0
M  V30 1541 C 144.992 1.61167 1.20944 0
M  V30 1542 O 144.048 1.55015 1.99315 0
M  V30 1543 C 145.361 2.84551 -0.972188 0
M  V30 1544 C 146.909 2.9825 -0.949536 0
M  V30 1545 C 147.384 4.28605 -1.61437 0
M  V30 1546 N 148.875 4.35399 -1.58057 0
M  V30 1547 C 149.61 5.34964 -2.064 0
M  V30 1548 N 149.106 6.40981 -2.62897 0
M  V30 1549 N 150.899 5.26419 -1.97078 0
M  V30 1550 H 143.05 1.40304 -1.59463 0
M  V30 1551 H 145.313 0.671794 -0.668878 0
M  V30 1552 H 145.019 2.87417 -2.02693 0
M  V30 1553 H 144.893 3.73807 -0.504771 0
M  V30 1554 H 147.28 2.94941 0.0967067 0
M  V30 1555 H 147.361 2.10364 -1.45536 0
M  V30 1556 H 147.005 4.32672 -2.66002 0
M  V30 1557 H 146.935 5.15334 -1.08344 0
M  V30 1558 H 149.426 3.59397 -1.16801 0
M  V30 1559 H 149.739 7.13225 -2.97539 0
M  V30 1560 H 148.084 6.4169 -2.66943 0
M  V30 1561 H 151.275 4.42504 -1.52669 0
M  V30 1562 H 151.448 6.03861 -2.35066 0
M  V30 1563 N 144.854 0.36279 1.53368 0
M  V30 1564 C 146.1 -0.228113 2.01513 0
M  V30 1565 C 146.433 -1.48648 1.2497 0
M  V30 1566 O 145.708 -1.91459 0.342616 0
M  V30 1567 C 145.991 -0.522884 3.56284 0
M  V30 1568 C 145.844 0.74892 4.43521 0
M  V30 1569 C 147.163 -1.32461 4.19693 0
M  V30 1570 H 144.282 -0.0814343 0.732487 0
M  V30 1571 H 146.924 0.48713 1.83649 0
M  V30 1572 H 145.074 -1.1322 3.71636 0
M  V30 1573 H 146.746 1.38648 4.39971 0
M  V30 1574 H 144.989 1.36986 4.11603 0
M  V30 1575 H 145.66 0.497667 5.49752 0
M  V30 1576 H 148.136 -0.809203 4.08156 0
M  V30 1577 H 147.012 -1.49961 5.28018 0
M  V30 1578 H 147.273 -2.33232 3.75573 0
M  V30 1579 N 146.332 -1.57332 0.0918853 0
M  V30 1580 C 147.265 -2.09499 -0.904735 0
M  V30 1581 C 148.243 -1.00479 -1.27839 0
M  V30 1582 O 149.427 -1.27954 -1.38419 0
M  V30 1583 C 146.554 -2.56931 -2.2069 0
M  V30 1584 C 145.6 -3.77579 -1.98334 0
M  V30 1585 S 146.433 -5.21317 -1.22428 0
M  V30 1586 C 147.589 -5.72097 -2.53882 0
M  V30 1587 H 147.822 -2.93705 -0.460922 0
M  V30 1588 H 145.355 -1.53923 -0.121332 0
M  V30 1589 H 147.313 -2.84917 -2.95521 0
M  V30 1590 H 145.974 -1.72956 -2.62192 0
M  V30 1591 H 145.167 -4.08824 -2.94752 0
M  V30 1592 H 144.769 -3.5007 -1.31633 0
M  V30 1593 H 147.061 -5.80168 -3.49874 0
M  V30 1594 H 148.004 -6.70654 -2.27219 0
M  V30 1595 H 148.412 -5.00012 -2.62007 0
M  V30 1596 N 147.81 0.181792 -1.56548 0
M  V30 1597 C 148.74 1.22765 -1.98623 0
M  V30 1598 C 149.721 1.46747 -0.860189 0
M  V30 1599 O 150.906 1.58259 -1.12551 0
M  V30 1600 C 148.036 2.56894 -2.33715 0
M  V30 1601 C 146.99 2.475 -3.49182 0
M  V30 1602 C 146.316 3.86023 -3.69986 0
M  V30 1603 C 147.616 1.98866 -4.82959 0
M  V30 1604 H 149.31 0.877942 -2.86239 0
M  V30 1605 H 146.856 0.42088 -1.37712 0
M  V30 1606 H 148.809 3.30253 -2.61746 0
M  V30 1607 H 147.533 2.93632 -1.42997 0
M  V30 1608 H 146.192 1.76596 -3.21262 0
M  V30 1609 H 145.84 4.20136 -2.76576 0
M  V30 1610 H 145.54 3.80609 -4.47672 0
M  V30 1611 H 147.064 4.60984 -4.00407 0
M  V30 1612 H 148.478 2.61992 -5.09934 0
M  V30 1613 H 146.875 2.04424 -5.64208 0
M  V30 1614 H 147.945 0.942465 -4.75653 0
M  V30 1615 N 149.288 1.51039 0.449983 0
M  V30 1616 C 150.218 1.74379 1.55288 0
M  V30 1617 C 151.199 0.593236 1.5942 0
M  V30 1618 O 152.384 0.834625 1.7535 0
M  V30 1619 C 149.514 1.85728 2.93466 0
M  V30 1620 C 148.468 3.01078 3.04197 0
M  V30 1621 C 147.794 2.97595 4.44231 0
M  V30 1622 C 149.094 4.41254 2.7945 0
M  V30 1623 H 150.788 2.66725 1.36008 0
M  V30 1624 H 148.334 1.2835 0.652864 0
M  V30 1625 H 150.287 2.0064 3.70569 0
M  V30 1626 H 149.011 0.900207 3.13949 0
M  V30 1627 H 147.67 2.85851 2.29531 0
M  V30 1628 H 147.318 1.99691 4.61663 0
M  V30 1629 H 147.018 3.75046 4.52343 0
M  V30 1630 H 148.542 3.14583 5.23326 0
M  V30 1631 H 149.956 4.56897 3.46292 0
M  V30 1632 H 148.353 5.20315 2.98985 0
M  V30 1633 H 149.423 4.52164 1.75144 0
M  V30 1634 N 150.766 -0.704594 1.40972 0
M  V30 1635 C 151.991 -1.49858 1.43378 0
M  V30 1636 C 152.416 -1.88061 0.038184 0
M  V30 1637 O 151.774 -1.5402 -0.956425 0
M  V30 1638 C 151.822 -2.74333 2.34038 0
M  V30 1639 O 150.926 -3.7147 1.7912 0
M  V30 1640 H 150.267 -0.45139 0.486974 0
M  V30 1641 H 152.797 -0.866832 1.8533 0
M  V30 1642 H 152.807 -3.22741 2.49604 0
M  V30 1643 H 151.482 -2.45863 3.35446 0
M  V30 1644 H 150.059 -3.30363 1.72958 0
M  V30 1645 N 152.244 -1.26651 -0.937939 0
M  V30 1646 C 153.66 -1.03834 -1.21205 0
M  V30 1647 C 153.86 0.234502 -2.00131 0
M  V30 1648 O 152.916 0.942767 -2.3424 0
M  V30 1649 C 154.229 -2.27167 -1.97017 0
M  V30 1650 C 155.777 -2.32101 -2.09996 0
M  V30 1651 C 156.252 -3.55136 -2.8921 0
M  V30 1652 N 157.743 -3.55632 -2.96783 0
M  V30 1653 C 158.478 -4.475 -3.58512 0
M  V30 1654 N 157.974 -5.4966 -4.21717 0
M  V30 1655 N 159.767 -4.35145 -3.55816 0
M  V30 1656 H 151.918 -2.08398 -0.410391 0
M  V30 1657 H 154.181 -0.916031 -0.244114 0
M  V30 1658 H 153.887 -3.19765 -1.46434 0
M  V30 1659 H 153.761 -2.31672 -2.97671 0
M  V30 1660 H 156.148 -1.40015 -2.59769 0
M  V30 1661 H 156.229 -2.31605 -1.08594 0
M  V30 1662 H 155.873 -4.47553 -2.40123 0
M  V30 1663 H 155.803 -3.5288 -3.90875 0
M  V30 1664 H 158.294 -2.81743 -2.51852 0
M  V30 1665 H 158.607 -6.15943 -4.66727 0
M  V30 1666 H 156.952 -5.53514 -4.20294 0
M  V30 1667 H 160.143 -3.5455 -3.05634 0
M  V30 1668 H 160.316 -5.06934 -4.03636 0
M  V30 1669 N 153.722 1.14298 -1.08507 0
M  V30 1670 C 154.947 1.8976 -0.837001 0
M  V30 1671 C 155.372 1.78097 0.605228 0
M  V30 1672 O 154.73 1.12188 1.4242 0
M  V30 1673 C 154.778 3.37685 -1.26495 0
M  V30 1674 O 153.882 4.10281 -0.417514 0
M  V30 1675 H 153.223 0.590365 -0.303917 0
M  V30 1676 H 155.753 1.44672 -1.44676 0
M  V30 1677 H 155.763 3.88501 -1.24625 0
M  V30 1678 H 154.438 3.45492 -2.31534 0
M  V30 1679 H 153.015 3.69536 -0.499722 0
M  V30 1680 N 155.201 0.870884 1.31352 0
M  V30 1681 C 156.612 0.534714 1.78879 0
M  V30 1682 C 156.963 -0.948423 1.71754 0
M  V30 1683 O 156.088 -1.74055 1.28584 0
M  V30 1684 C 156.683 0.963839 3.24801 0
M  V30 1685 C 155.242 0.679311 3.70219 0
M  V30 1686 C 154.389 1.15465 2.52117 0
M  V30 1687 H 157.34 1.05651 1.18421 0
M  V30 1688 H 157.361 0.286892 3.79417 0
M  V30 1689 H 156.873 2.04332 3.29955 0
M  V30 1690 H 154.974 -0.388769 3.70566 0
M  V30 1691 H 155.087 1.25698 4.62317 0
M  V30 1692 H 153.451 0.574383 2.48139 0
M  V30 1693 H 154.234 2.24157 2.60016 0
M  V30 1694 N 156.679 -1.44442 0.630414 0
M  V30 1695 C 157.904 -2.06927 0.139944 0
M  V30 1696 C 158.329 -1.46795 -1.17613 0
M  V30 1697 O 157.687 -0.569144 -1.72135 0
M  V30 1698 C 157.735 -3.6058 0.0379581 0
M  V30 1699 O 156.839 -3.99937 -1.0062 0
M  V30 1700 H 156.18 -0.658608 0.0844483 0
M  V30 1701 H 158.71 -1.85327 0.866891 0
M  V30 1702 H 158.72 -4.07714 -0.152856 0
M  V30 1703 H 157.395 -4.03728 0.998809 0
M  V30 1704 H 155.972 -3.64436 -0.79001 0
M  V30 1705 N 158.157 -0.370918 -1.53173 0
M  V30 1706 C 159.405 0.216673 -2.00935 0
M  V30 1707 C 159.726 1.48845 -1.25977 0
M  V30 1708 O 158.996 1.92286 -0.374551 0
M  V30 1709 H 157.576 0.0830565 -0.742368 0
M  V30 1710 H 160.238 -0.49838 -1.8842 0
M  V30 1711 H 159.334 0.439893 -3.08984 0
M  V30 1712 N 159.635 1.57281 -0.100228 0
M  V30 1713 C 161.046 1.81725 0.428107 0
M  V30 1714 C 161.397 1.01619 1.67833 0
M  V30 1715 O 160.522 0.247098 2.14985 0
M  V30 1716 C 161.117 3.29617 0.78347 0
M  V30 1717 C 159.676 3.54808 1.25653 0
M  V30 1718 C 158.823 2.76118 0.255752 0
M  V30 1719 H 161.774 1.55324 -0.325608 0
M  V30 1720 H 161.795 3.4322 1.64256 0
M  V30 1721 H 161.307 3.87893 -0.12665 0
M  V30 1722 H 159.408 3.01868 2.18418 0
M  V30 1723 H 159.521 4.63443 1.21482 0
M  V30 1724 H 157.885 2.43745 0.738956 0
M  V30 1725 H 158.668 3.37145 -0.647136 0
M  V30 1726 N 161.113 -0.173488 1.56642 0
M  V30 1727 C 162.06 -1.21482 1.96242 0
M  V30 1728 C 163.03 -1.44104 0.826027 0
M  V30 1729 O 164.215 -1.5688 1.08597 0
M  V30 1730 C 161.355 -2.54964 2.32567 0
M  V30 1731 C 160.468 -2.39739 3.59373 0
M  V30 1732 C 159.603 -3.66072 3.84921 0
M  V30 1733 C 158.642 -3.45771 5.05083 0
M  V30 1734 N 157.779 -4.64169 5.26775 0
M  V30 1735 H 162.619 -0.870123 2.85014 0
M  V30 1736 H 160.156 -0.418245 1.41029 0
M  V30 1737 H 162.114 -3.32758 2.5165 0
M  V30 1738 H 160.744 -2.87433 1.46908 0
M  V30 1739 H 159.796 -1.53131 3.48217 0
M  V30 1740 H 161.108 -2.20683 4.47326 0
M  V30 1741 H 160.262 -4.52303 4.0436 0
M  V30 1742 H 159.001 -3.88105 2.9534 0
M  V30 1743 H 158.006 -2.57927 4.85545 0
M  V30 1744 H 159.231 -3.25163 5.96193 0
M  V30 1745 H 157.177 -4.86425 4.40144 0
M  V30 1746 H 157.094 -4.48019 6.08946 0
M  V30 1747 H 158.362 -5.51689 5.5069 0
M  V30 1748 N 162.591 -1.51276 -0.441967 0
M  V30 1749 C 163.538 -1.72256 -1.53612 0
M  V30 1750 C 164.508 -0.564164 -1.56225 0
M  V30 1751 O 165.693 -0.798074 -1.73307 0
M  V30 1752 C 162.833 -1.84932 -2.91366 0
M  V30 1753 C 161.946 -3.12459 -2.98317 0
M  V30 1754 C 161.081 -3.15758 -4.27166 0
M  V30 1755 C 160.12 -4.37619 -4.27967 0
M  V30 1756 N 159.257 -4.38493 -5.48333 0
M  V30 1757 H 164.097 -2.65654 -1.35026 0
M  V30 1758 H 161.634 -1.31662 -0.656009 0
M  V30 1759 H 163.592 -1.90263 -3.7129 0
M  V30 1760 H 162.222 -0.949461 -3.08521 0
M  V30 1761 H 161.274 -3.1646 -2.11086 0
M  V30 1762 H 162.586 -4.02382 -2.94771 0
M  V30 1763 H 161.74 -3.19979 -5.15459 0
M  V30 1764 H 160.479 -2.23715 -4.33362 0
M  V30 1765 H 159.484 -4.33579 -3.38067 0
M  V30 1766 H 160.709 -5.30921 -4.23438 0
M  V30 1767 H 158.655 -3.49318 -5.55259 0
M  V30 1768 H 158.572 -5.22219 -5.46647 0
M  V30 1769 H 159.84 -4.469 -6.38671 0
M  V30 1770 N 164.069 0.697108 -1.41344 0
M  V30 1771 C 165.299 1.48377 -1.43763 0
M  V30 1772 C 165.707 1.89156 -0.0408726 0
M  V30 1773 O 165.05 1.57239 0.949812 0
M  V30 1774 C 165.112 2.7781 -2.2817 0
M  V30 1775 C 164.776 2.59244 -3.76353 0
M  V30 1776 C 165.773 2.25292 -4.68551 0
M  V30 1777 C 163.458 2.74933 -4.20378 0
M  V30 1778 C 165.452 2.07264 -6.02761 0
M  V30 1779 C 163.139 2.56521 -5.54653 0
M  V30 1780 C 164.137 2.22737 -6.4566 0
M  V30 1781 O 163.825 2.04485 -7.77458 0
M  V30 1782 H 163.557 0.463842 -0.491759 0
M  V30 1783 H 166.111 0.865934 -1.86255 0
M  V30 1784 H 164.341 3.41995 -1.8049 0
M  V30 1785 H 166.03 3.39608 -2.22309 0
M  V30 1786 H 166.796 2.12787 -4.35829 0
M  V30 1787 H 162.675 3.00213 -3.49848 0
M  V30 1788 H 166.219 1.80817 -6.73759 0
M  V30 1789 H 162.116 2.68616 -5.86955 0
M  V30 1790 H 162.884 2.1926 -7.88586 0
M  V30 1791 N 165.547 1.27147 0.931209 0
M  V30 1792 C 166.794 1.13278 1.67852 0
M  V30 1793 C 167.122 -0.32204 1.91815 0
M  V30 1794 O 166.377 -1.25224 1.50391 0
M  V30 1795 C 166.676 1.8579 3.05314 0
M  V30 1796 C 166.342 3.35657 3.01073 0
M  V30 1797 C 165.004 3.76536 2.99623 0
M  V30 1798 C 167.356 4.31299 2.92627 0
M  V30 1799 C 164.684 5.11426 2.87506 0
M  V30 1800 C 167.036 5.66242 2.82051 0
M  V30 1801 C 165.7 6.06418 2.7895 0
M  V30 1802 H 164.97 0.414515 0.614214 0
M  V30 1803 H 167.617 1.57712 1.08624 0
M  V30 1804 H 165.922 1.33854 3.68226 0
M  V30 1805 H 167.619 1.72491 3.62005 0
M  V30 1806 H 164.209 3.03146 3.02986 0
M  V30 1807 H 168.393 4.00692 2.92848 0
M  V30 1808 H 163.649 5.41705 2.83489 0
M  V30 1809 H 167.823 6.40026 2.74481 0
M  V30 1810 H 165.45 7.10895 2.69318 0
M  V30 1811 N 167.025 -1.13721 1.09112 0
M  V30 1812 C 168.436 -1.6648 0.845068 0
M  V30 1813 C 168.787 -1.85911 -0.62701 0
M  V30 1814 O 167.912 -1.57556 -1.48341 0
M  V30 1815 C 168.507 -3.02413 1.52748 0
M  V30 1816 C 167.066 -3.52176 1.32849 0
M  V30 1817 C 166.213 -2.27492 1.58564 0
M  V30 1818 H 169.164 -0.976872 1.25072 0
M  V30 1819 H 169.185 -3.68223 0.958752 0
M  V30 1820 H 168.697 -2.88238 2.59885 0
M  V30 1821 H 166.798 -3.7156 0.278137 0
M  V30 1822 H 166.911 -4.32499 2.0611 0
M  V30 1823 H 165.275 -2.33923 1.00758 0
M  V30 1824 H 166.058 -2.15886 2.66924 0
M  V30 1825 N 168.503 -0.877838 -1.30888 0
M  V30 1826 C 169.752 -0.488793 -1.95688 0
M  V30 1827 C 170.065 0.965485 -1.70111 0
M  V30 1828 O 171.271 1.46104 -2.28836 0
M  V30 1829 C 169.727 -0.823201 -3.50359 0
M  V30 1830 C 169.335 -2.29477 -3.84765 0
M  V30 1831 C 171.079 -0.503009 -4.21509 0
M  V30 1832 C 168.986 -2.57118 -5.32583 0
M  V30 1833 H 167.916 -0.179062 -0.732429 0
M  V30 1834 H 170.567 -1.07183 -1.48943 0
M  V30 1835 H 168.949 -0.169331 -3.95638 0
M  V30 1836 H 170.123 -2.99236 -3.5042 0
M  V30 1837 H 168.438 -2.58178 -3.267 0
M  V30 1838 H 171.035 -0.68665 -5.30273 0
M  V30 1839 H 171.378 0.557109 -4.12555 0
M  V30 1840 H 171.911 -1.11376 -3.8189 0
M  V30 1841 H 168.65 -3.61843 -5.4658 0
M  V30 1842 H 168.17 -1.91961 -5.68253 0
M  V30 1843 H 169.849 -2.42251 -5.99936 0
M  V30 1844 N 169.982 1.44106 -0.638065 0
M  V30 1845 C 171.393 1.85316 -0.226894 0
M  V30 1846 C 171.744 1.53399 1.22324 0
M  V30 1847 O 170.869 0.975463 1.93167 0
M  V30 1848 C 171.464 3.3637 -0.405013 0
M  V30 1849 C 170.023 3.76369 -0.0482902 0
M  V30 1850 C 169.17 2.67921 -0.715108 0
M  V30 1851 H 172.121 1.34474 -0.842764 0
M  V30 1852 H 172.142 3.7885 0.354 0
M  V30 1853 H 171.654 3.59569 -1.46053 0
M  V30 1854 H 169.755 3.58784 1.00522 0
M  V30 1855 H 169.868 4.76856 -0.463187 0
M  V30 1856 H 168.232 2.54259 -0.149753 0
M  V30 1857 H 169.015 2.93951 -1.77335 0
M  V30 1858 N 171.46 0.379036 1.52974 0
M  V30 1859 C 172.706 -0.206727 2.01744 0
M  V30 1860 C 173.039 -1.47314 1.26539 0
M  V30 1861 O 172.314 -1.91084 0.362903 0
M  V30 1862 C 172.597 -0.485066 3.56818 0
M  V30 1863 C 172.45 0.795919 4.42702 0
M  V30 1864 C 173.769 -1.28003 4.21074 0
M  V30 1865 H 170.888 -0.0736607 0.73331 0
M  V30 1866 H 173.53 0.506581 1.83122 0
M  V30 1867 H 171.68 -1.09272 3.72816 0
M  V30 1868 H 173.352 1.43307 4.38476 0
M  V30 1869 H 171.595 1.41344 4.10127 0
M  V30 1870 H 172.266 0.555947 5.49193 0
M  V30 1871 H 174.742 -0.765867 4.08991 0
M  V30 1872 H 173.618 -1.44352 5.29579 0
M  V30 1873 H 173.879 -2.29236 3.78026 0
M  V30 1874 N 172.938 -1.57226 0.108567 0
M  V30 1875 C 173.848 -2.18292 -0.859401 0
M  V30 1876 C 174.864 -1.15612 -1.30038 0
M  V30 1877 O 176.04 -1.48039 -1.36552 0
M  V30 1878 C 173.105 -2.762 -2.09558 0
M  V30 1879 C 172.166 -3.93881 -1.70752 0
M  V30 1880 C 171.399 -4.49018 -2.88477 0
M  V30 1881 O 171.622 -4.03068 -4.036 0
M  V30 1882 O 170.556 -5.39852 -2.66164 0
M  V30 1883 H 174.382 -3.01441 -0.369769 0
M  V30 1884 H 171.967 -1.48945 -0.1165 0
M  V30 1885 H 173.849 -3.13156 -2.81978 0
M  V30 1886 H 172.524 -1.96089 -2.57548 0
M  V30 1887 H 171.431 -3.61713 -0.954714 0
M  V30 1888 H 172.764 -4.75396 -1.27513 0
M  V30 1889 N 174.416 0.165178 -1.56732 0
M  V30 1890 C 175.366 1.20917 -1.93295 0
M  V30 1891 C 176.35 1.39488 -0.801985 0
M  V30 1892 O 177.542 1.41356 -1.06525 0
M  V30 1893 C 174.671 2.54718 -2.3016 0
M  V30 1894 C 173.757 2.39815 -3.49785 0
M  V30 1895 N 174.148 1.94637 -4.66851 0
M  V30 1896 C 172.446 2.70623 -3.54513 0
M  V30 1897 C 173.147 1.92344 -5.4898 0
M  V30 1898 N 172.123 2.34978 -4.9019 0
M  V30 1899 H 175.925 0.851675 -2.81289 0
M  V30 1900 H 173.439 0.373399 -1.58049 0
M  V30 1901 H 175.436 3.30165 -2.54552 0
M  V30 1902 H 174.096 2.91265 -1.43508 0
M  V30 1903 H 175.107 1.6488 -4.90953 0
M  V30 1904 H 171.784 3.11167 -2.78354 0
M  V30 1905 H 173.174 1.5906 -6.52801 0
M  V30 1906 N 175.894 1.51508 0.433938 0
M  V30 1907 C 176.824 1.76016 1.53429 0
M  V30 1908 C 177.805 0.610112 1.58782 0
M  V30 1909 O 178.99 0.853177 1.74455 0
M  V30 1910 C 176.12 1.88831 2.9148 0
M  V30 1911 C 175.074 3.04288 3.00987 0
M  V30 1912 C 174.4 3.0229 4.4105 0
M  V30 1913 C 175.7 4.44193 2.74754 0
M  V30 1914 H 177.394 2.68152 1.33171 0
M  V30 1915 H 174.94 1.29035 0.639214 0
M  V30 1916 H 176.893 2.04559 3.6842 0
M  V30 1917 H 175.617 0.933455 3.12976 0
M  V30 1918 H 174.276 2.8827 2.26486 0
M  V30 1919 H 173.924 2.04576 4.59519 0
M  V30 1920 H 173.624 3.79822 4.4834 0
M  V30 1921 H 175.148 3.20116 5.1996 0
M  V30 1922 H 176.562 4.60544 3.41426 0
M  V30 1923 H 174.959 5.23457 2.9345 0
M  V30 1924 H 176.029 4.53996 1.70339 0
M  V30 1925 N 177.372 -0.689602 1.41712 0
M  V30 1926 C 178.282 -1.83314 1.46401 0
M  V30 1927 C 179.298 -1.7036 0.35405 0
M  V30 1928 O 180.474 -1.92171 0.602692 0
M  V30 1929 C 177.539 -3.19344 1.34982 0
M  V30 1930 C 176.6 -3.44363 2.56344 0
M  V30 1931 C 175.833 -4.73904 2.45461 0
M  V30 1932 O 176.056 -5.508 1.48241 0
M  V30 1933 O 174.99 -4.99839 3.35328 0
M  V30 1934 H 178.816 -1.82314 2.42889 0
M  V30 1935 H 176.401 -0.843438 1.23315 0
M  V30 1936 H 178.283 -4.00547 1.3092 0
M  V30 1937 H 176.958 -3.21014 0.41612 0
M  V30 1938 H 175.865 -2.63067 2.65982 0
M  V30 1939 H 177.198 -3.47512 3.48563 0
M  V30 1940 N 178.85 -1.27639 -0.924453 0
M  V30 1941 C 179.76 -1.12466 -2.05885 0
M  V30 1942 C 180.776 -0.053869 -1.73917 0
M  V30 1943 O 181.952 -0.261012 -1.99702 0
M  V30 1944 C 179.017 -0.776768 -3.37886 0
M  V30 1945 C 178.078 -1.92878 -3.83532 0
M  V30 1946 C 177.311 -1.59739 -5.09234 0
M  V30 1947 O 177.534 -0.506782 -5.68144 0
M  V30 1948 O 176.468 -2.43761 -5.50331 0
M  V30 1949 H 180.294 -2.07671 -2.21599 0
M  V30 1950 H 177.879 -1.06857 -1.04413 0
M  V30 1951 H 179.761 -0.596229 -4.17161 0
M  V30 1952 H 178.436 0.145732 -3.23372 0
M  V30 1953 H 177.343 -2.1644 -3.0513 0
M  V30 1954 H 178.676 -2.8316 -4.02593 0
M  V30 1955 N 180.328 1.1314 -1.09713 0
M  V30 1956 C 181.238 2.22242 -0.751367 0
M  V30 1957 C 182.254 1.72224 0.247938 0
M  V30 1958 O 183.43 2.01205 0.0885463 0
M  V30 1959 C 180.495 3.46231 -0.180274 0
M  V30 1960 C 179.556 4.11125 -1.2359 0
M  V30 1961 C 178.789 5.29195 -0.691966 0
M  V30 1962 O 179.012 5.68342 0.48414 0
M  V30 1963 O 177.946 5.84214 -1.44838 0
M  V30 1964 H 181.772 2.54197 -1.66186 0
M  V30 1965 H 179.357 1.21331 -0.871735 0
M  V30 1966 H 181.239 4.21185 0.134739 0
M  V30 1967 H 179.914 3.1597 0.703185 0
M  V30 1968 H 178.821 3.37985 -1.60366 0
M  V30 1969 H 180.154 4.45524 -2.09211 0
M  V30 1970 N 181.806 0.884767 1.30421 0
M  V30 1971 C 183.055 0.499164 1.95426 0
M  V30 1972 C 183.368 -0.95645 1.70621 0
M  V30 1973 O 184.574 -1.44889 2.29607 0
M  V30 1974 C 183.03 0.84177 3.49917 0
M  V30 1975 C 182.638 2.31514 3.83543 0
M  V30 1976 C 184.382 0.525355 4.21237 0
M  V30 1977 C 182.289 2.59939 5.31212 0
M  V30 1978 H 181.219 0.182944 0.73147 0
M  V30 1979 H 183.87 1.07971 1.48373 0
M  V30 1980 H 182.252 0.190311 3.95542 0
M  V30 1981 H 183.426 3.0109 3.48829 0
M  V30 1982 H 181.741 2.59907 3.25326 0
M  V30 1983 H 184.338 0.714762 5.29901 0
M  V30 1984 H 184.681 -0.535222 4.12845 0
M  V30 1985 H 185.214 1.134 3.81294 0
M  V30 1986 H 181.953 3.64736 5.44654 0
M  V30 1987 H 181.473 1.94972 5.67227 0
M  V30 1988 H 183.152 2.45429 5.98643 0
M  V30 1989 N 183.284 -1.43765 0.645699 0
M  V30 1990 C 184.7 -1.56509 0.312591 0
M  V30 1991 C 184.9 -1.6307 -1.18365 0
M  V30 1992 O 183.956 -1.58167 -1.96824 0
M  V30 1993 C 185.269 -2.82968 1.01733 0
M  V30 1994 C 186.817 -2.96701 0.996865 0
M  V30 1995 C 187.292 -4.25982 1.68236 0
M  V30 1996 N 188.783 -4.32829 1.64964 0
M  V30 1997 C 189.518 -5.31613 2.14885 0
M  V30 1998 N 189.014 -6.36718 2.73061 0
M  V30 1999 N 190.807 -5.23217 2.05428 0
M  V30 2000 H 182.958 -1.3775 1.61675 0
M  V30 2001 H 185.221 -0.661067 0.679481 0
M  V30 2002 H 184.927 -2.84156 2.0724 0
M  V30 2003 H 184.801 -3.72957 0.564177 0
M  V30 2004 H 187.188 -2.95058 -0.0497719 0
M  V30 2005 H 187.269 -2.08022 1.48865 0
M  V30 2006 H 186.913 -4.28386 2.72852 0
M  V30 2007 H 186.843 -5.13545 1.16529 0
M  V30 2008 H 189.334 -3.57493 1.22503 0
M  V30 2009 H 189.647 -7.08401 3.08848 0
M  V30 2010 H 187.992 -6.37362 2.77118 0
M  V30 2011 H 191.183 -4.40019 1.59689 0
M  V30 2012 H 191.356 -6.00045 2.44643 0
M  V30 2013 N 184.763 -0.387143 -1.52771 0
M  V30 2014 C 186.012 0.19697 -2.00736 0
M  V30 2015 C 186.325 1.48082 -1.27793 0
M  V30 2016 O 187.531 2.14485 -1.66458 0
M  V30 2017 C 185.987 0.401568 -3.57653 0
M  V30 2018 C 185.595 -0.868907 -4.39493 0
M  V30 2019 C 187.339 0.942164 -4.13912 0
M  V30 2020 C 185.246 -0.632705 -5.88006 0
M  V30 2021 H 184.176 0.0773827 -0.750019 0
M  V30 2022 H 186.827 -0.50921 -1.76293 0
M  V30 2023 H 185.209 1.16954 -3.78335 0
M  V30 2024 H 186.383 -1.64133 -4.30577 0
M  V30 2025 H 184.698 -1.33429 -3.94443 0
M  V30 2026 H 187.295 1.13455 -5.22525 0
M  V30 2027 H 187.638 1.9106 -3.69867 0
M  V30 2028 H 188.171 0.233814 -3.97112 0
M  V30 2029 H 184.91 -1.57208 -6.36369 0
M  V30 2030 H 184.43 0.100825 -5.99715 0
M  V30 2031 H 186.109 -0.26642 -6.46451 0
M  V30 2032 N 186.241 1.57166 -0.116904 0
M  V30 2033 C 187.657 1.5779 0.239693 0
M  V30 2034 C 187.857 1.1295 1.66867 0
M  V30 2035 O 186.913 0.81592 2.38954 0
M  V30 2036 C 188.226 3.00699 0.00828202 0
M  V30 2037 C 189.774 3.12912 0.0743438 0
M  V30 2038 C 190.249 4.57817 -0.129348 0
M  V30 2039 N 191.74 4.63139 -0.075247 0
M  V30 2040 C 192.475 5.73023 -0.207788 0
M  V30 2041 N 191.971 6.91665 -0.396382 0
M  V30 2042 N 193.764 5.61906 -0.14751 0
M  V30 2043 H 185.915 1.84615 -1.05029 0
M  V30 2044 H 188.178 0.85311 -0.41341 0
M  V30 2045 H 187.884 3.37784 -0.979531 0
M  V30 2046 H 187.758 3.69848 0.741077 0
M  V30 2047 H 190.145 2.75686 1.05268 0
M  V30 2048 H 190.226 2.4631 -0.690297 0
M  V30 2049 H 189.87 4.95742 -1.10465 0
M  V30 2050 H 189.8 5.22507 0.655253 0
M  V30 2051 H 192.291 3.7784 0.0670898 0
M  V30 2052 H 192.604 7.71255 -0.488437 0
M  V30 2053 H 190.949 6.93654 -0.432329 0
M  V30 2054 H 194.14 4.681 -0.00115036 0
M  V30 2055 H 194.313 6.47501 -0.254247 0
M  V30 2056 N 187.719 -0.156864 1.56817 0
M  V30 2057 C 188.944 -0.890331 1.87318 0
M  V30 2058 C 189.369 -1.74394 0.704855 0
M  V30 2059 O 188.727 -1.77972 -0.345786 0
M  V30 2060 C 188.775 -1.73102 3.16336 0
M  V30 2061 O 187.879 -2.83422 2.99576 0
M  V30 2062 H 187.22 -0.24857 0.615718 0
M  V30 2063 H 189.75 -0.150649 2.04045 0
M  V30 2064 H 189.76 -2.12803 3.48107 0
M  V30 2065 H 188.435 -1.10412 4.00976 0
M  V30 2066 H 187.012 -2.47199 2.7919 0
M  V30 2067 N 189.197 -1.51736 -0.425897 0
M  V30 2068 C 190.16 -1.73271 -1.50032 0
M  V30 2069 C 191.16 -0.602639 -1.4908 0
M  V30 2070 O 192.35 -0.87033 -1.509 0
M  V30 2071 C 189.482 -1.79969 -2.89523 0
M  V30 2072 H 190.675 -2.69172 -1.32237 0
M  V30 2073 H 188.228 -1.41899 -0.65532 0
M  V30 2074 H 188.963 -0.859241 -3.1271 0
M  V30 2075 H 188.748 -2.62109 -2.91619 0
M  V30 2076 H 190.238 -1.9843 -3.67444 0
M  V30 2077 N 190.675 0.682077 -1.42076 0
M  V30 2078 C 191.952 1.43755 -1.32642 0
M  V30 2079 C 192.332 2.11063 0.0396611 0
M  V30 2080 O 191.68 2.02701 1.05474 0
M  V30 2081 C 191.89 2.44596 -2.48946 0
M  V30 2082 C 193.238 3.09454 -2.9073 0
M  V30 2083 O 194.262 2.54922 -2.48783 0
M  V30 2084 O 193.121 4.08253 -3.63307 0
M  V30 2085 H 190.215 0.640857 -0.522715 0
M  V30 2086 H 192.761 0.711415 -1.54068 0
M  V30 2087 H 191.533 1.93609 -3.40046 0
M  V30 2088 H 191.156 3.24701 -2.29467 0
M  V30 2089 N 192.153 1.28127 0.917671 0
M  V30 2090 C 193.43 1.05761 1.64542 0
M  V30 2091 C 193.81 -0.404344 2.07191 0
M  V30 2092 O 193.158 -1.38963 1.81388 0
M  V30 2093 C 193.368 2.02857 2.83989 0
M  V30 2094 C 194.716 2.32786 3.551 0
M  V30 2095 O 195.74 2.0091 2.94132 0
M  V30 2096 O 194.599 2.87169 4.64969 0
M  V30 2097 H 191.693 0.403916 0.721652 0
M  V30 2098 H 194.239 1.39431 0.967322 0
M  V30 2099 H 193.011 3.01407 2.49538 0
M  V30 2100 H 192.634 1.69809 3.59514 0
M  V30 2101 N 193.631 -1.12557 1.10312 0
M  V30 2102 C 194.871 -1.8568 0.854543 0
M  V30 2103 C 195.235 -1.82091 -0.608843 0
M  V30 2104 O 196.436 -2.50544 -0.973717 0
M  V30 2105 C 194.707 -3.2942 1.38626 0
M  V30 2106 S 196.266 -4.19931 1.27293 0
M  V30 2107 H 193.084 -0.640427 0.308827 0
M  V30 2108 H 195.686 -1.35599 1.40831 0
M  V30 2109 H 194.39 -3.2959 2.44537 0
M  V30 2110 H 193.921 -3.84566 0.82902 0
M  V30 2111 H 195.936 -4.95668 0.229776 0
M  V30 2112 N 195.109 -0.891671 -1.2995 0
M  V30 2113 C 196.056 -0.361736 -2.27948 0
M  V30 2114 C 197.026 0.551761 -1.56668 0
M  V30 2115 O 198.211 0.478736 -1.84696 0
M  V30 2116 C 195.351 0.411825 -3.42634 0
M  V30 2117 C 194.464 -0.531651 -4.28716 0
M  V30 2118 C 193.599 0.258167 -5.30572 0
M  V30 2119 C 192.638 -0.680349 -6.08307 0
M  V30 2120 N 191.775 0.0745613 -7.0206 0
M  V30 2121 H 196.615 -1.20254 -2.72659 0
M  V30 2122 H 194.152 -0.604352 -1.34112 0
M  V30 2123 H 196.11 0.876304 -4.07893 0
M  V30 2124 H 194.74 1.21715 -2.98974 0
M  V30 2125 H 193.792 -1.11463 -3.63703 0
M  V30 2126 H 195.104 -1.25038 -4.82874 0
M  V30 2127 H 194.258 0.784204 -6.0161 0
M  V30 2128 H 192.997 1.01008 -4.77126 0
M  V30 2129 H 192.002 -1.21796 -5.3614 0
M  V30 2130 H 193.227 -1.43145 -6.63842 0
M  V30 2131 H 191.173 0.808883 -6.50994 0
M  V30 2132 H 191.09 -0.584409 -7.53738 0
M  V30 2133 H 192.358 0.581123 -7.77331 0
M  V30 2134 N 196.587 1.43421 -0.653314 0
M  V30 2135 C 197.519 2.29071 0.0769134 0
M  V30 2136 C 198.532 1.42513 0.787017 0
M  V30 2137 O 199.721 1.66449 0.644757 0
M  V30 2138 C 196.821 3.19436 1.13199 0
M  V30 2139 C 195.994 4.34533 0.500006 0
M  V30 2140 C 195.053 5.05771 1.45198 0
M  V30 2141 O 194.079 5.61037 0.960538 0
M  V30 2142 N 195.281 5.0928 2.78594 0
M  V30 2143 H 198.046 2.92382 -0.658235 0
M  V30 2144 H 195.607 1.54112 -0.496104 0
M  V30 2145 H 197.599 3.63958 1.76964 0
M  V30 2146 H 196.169 2.57724 1.7691 0
M  V30 2147 H 195.389 3.92925 -0.316738 0
M  V30 2148 H 196.677 5.08766 0.0588345 0
M  V30 2149 H 196.075 4.65751 3.2108 0
M  V30 2150 H 194.632 5.57519 3.37662 0
M  V30 2151 N 198.065 0.39524 1.52563 0
M  V30 2152 C 199.312 -0.185044 2.01653 0
M  V30 2153 C 199.64 -1.46317 1.28146 0
M  V30 2154 O 198.895 -1.9213 0.372074 0
M  V30 2155 C 199.194 -0.493444 3.53977 0
M  V30 2156 C 198.86 0.69384 4.4553 0
M  V30 2157 C 197.522 1.01954 4.70275 0
M  V30 2158 C 199.874 1.48785 4.99512 0
M  V30 2159 C 197.202 2.14069 5.46252 0
M  V30 2160 C 199.554 2.59965 5.76716 0
M  V30 2161 C 198.218 2.93037 5.99738 0
M  V30 2162 H 197.488 -0.0677123 0.7379 0
M  V30 2163 H 200.135 0.533807 1.8391 0
M  V30 2164 H 198.44 -1.29369 3.69825 0
M  V30 2165 H 200.137 -0.955163 3.89458 0
M  V30 2166 H 196.727 0.429987 4.26438 0
M  V30 2167 H 200.911 1.24946 4.80315 0
M  V30 2168 H 196.167 2.40056 5.62302 0
M  V30 2169 H 200.341 3.21887 6.17545 0
M  V30 2170 H 197.968 3.8003 6.58393 0
M  V30 2171 N 199.544 -1.57102 0.125237 0
M  V30 2172 C 200.96 -1.57915 -0.231322 0
M  V30 2173 C 201.16 -1.13833 -1.66266 0
M  V30 2174 O 200.216 -0.828581 -2.38518 0
M  V30 2175 C 201.529 -3.00699 0.00766489 0
M  V30 2176 C 203.077 -3.12947 -0.0577483 0
M  V30 2177 C 203.552 -4.57742 0.153626 0
M  V30 2178 N 205.043 -4.63092 0.0998073 0
M  V30 2179 C 205.778 -5.72905 0.238174 0
M  V30 2180 N 205.274 -6.91445 0.433057 0
M  V30 2181 N 207.067 -5.6182 0.177308 0
M  V30 2182 H 199.218 -1.84055 1.06007 0
M  V30 2183 H 201.481 -0.850905 0.417929 0
M  V30 2184 H 201.187 -3.3726 0.997431 0
M  V30 2185 H 201.061 -3.70236 -0.721452 0
M  V30 2186 H 203.448 -2.7624 -1.03804 0
M  V30 2187 H 203.529 -2.4594 0.70335 0
M  V30 2188 H 203.173 -4.95149 1.13092 0
M  V30 2189 H 203.103 -5.22848 -0.627534 0
M  V30 2190 H 205.594 -3.77871 -0.047051 0
M  V30 2191 H 205.907 -7.70985 0.529332 0
M  V30 2192 H 204.252 -6.93415 0.469109 0
M  V30 2193 H 207.443 -4.68093 0.0259748 0
M  V30 2194 H 207.616 -6.47357 0.288582 0
M  V30 2195 N 201.022 0.148545 -1.56898 0
M  V30 2196 C 201.932 1.20293 -2.01412 0
M  V30 2197 C 202.948 1.47107 -0.929273 0
M  V30 2198 O 204.124 1.58807 -1.23863 0
M  V30 2199 C 201.189 2.51682 -2.38447 0
M  V30 2200 C 200.25 2.32529 -3.60872 0
M  V30 2201 C 199.483 3.57653 -3.96132 0
M  V30 2202 O 199.706 4.63771 -3.32073 0
M  V30 2203 O 198.64 3.50408 -4.89385 0
M  V30 2204 H 202.466 0.855025 -2.91416 0
M  V30 2205 H 200.051 0.357151 -1.45068 0
M  V30 2206 H 201.933 3.29147 -2.63135 0
M  V30 2207 H 200.608 2.86006 -1.51599 0
M  V30 2208 H 199.515 1.53019 -3.41373 0
M  V30 2209 H 200.848 2.03121 -4.48333 0
M  V30 2210 N 202.5 1.5196 0.417844 0
M  V30 2211 C 203.41 1.77554 1.53336 0
M  V30 2212 C 204.426 0.660655 1.6097 0
M  V30 2213 O 205.602 0.945099 1.77848 0
M  V30 2214 C 202.667 1.91291 2.89152 0
M  V30 2215 C 201.728 3.15183 2.91475 0
M  V30 2216 C 200.961 3.28256 4.20813 0
M  V30 2217 O 201.184 2.46798 5.14244 0
M  V30 2218 O 200.118 4.21356 4.29817 0
M  V30 2219 H 203.944 2.7222 1.34647 0
M  V30 2220 H 201.529 1.36698 0.602828 0
M  V30 2221 H 203.411 2.02199 3.69721 0
M  V30 2222 H 202.086 0.998129 3.07927 0
M  V30 2223 H 200.993 3.09739 2.09791 0
M  V30 2224 H 202.326 4.06414 2.77648 0
M  V30 2225 N 203.978 -0.674533 1.42435 0
M  V30 2226 C 205.225 -1.43459 1.42919 0
M  V30 2227 C 205.553 -1.94446 0.0457312 0
M  V30 2228 O 204.808 -1.7132 -0.94593 0
M  V30 2229 C 205.107 -2.64767 2.40069 0
M  V30 2230 C 204.773 -2.3232 3.86443 0
M  V30 2231 C 203.435 -2.23182 4.26314 0
M  V30 2232 C 205.787 -2.05977 4.78773 0
M  V30 2233 C 203.115 -1.85827 5.56494 0
M  V30 2234 C 205.467 -1.70125 6.09295 0
M  V30 2235 C 204.131 -1.59498 6.48164 0
M  V30 2236 H 203.401 -0.524952 0.522978 0
M  V30 2237 H 206.048 -0.769097 1.75377 0
M  V30 2238 H 204.353 -3.36349 2.00939 0
M  V30 2239 H 206.05 -3.22949 2.37707 0
M  V30 2240 H 202.64 -2.40334 3.54877 0
M  V30 2241 H 206.824 -2.11969 4.48757 0
M  V30 2242 H 202.08 -1.76168 5.8547 0
M  V30 2243 H 206.254 -1.48767 6.80324 0
M  V30 2244 H 203.881 -1.30322 7.48946 0
M  V30 2245 N 205.456 -1.28612 -0.910864 0
M  V30 2246 C 206.404 -1.1265 -2.03501 0
M  V30 2247 C 207.398 -0.0450054 -1.6934 0
M  V30 2248 O 208.604 -0.203988 -1.7884 0
M  V30 2249 H 204.979 -0.347639 -0.666822 0
M  V30 2250 H 206.95 -2.07849 -2.14106 0
M  V30 2251 C 205.699 -0.808143 -3.38178 0
M  V30 2252 H 205.022 -1.63231 -3.6496 0
M  V30 2253 H 206.462 -0.736426 -4.17556 0
M  V30 2254 C 204.921 0.488226 -3.33344 0
M  V30 2255 O 205.451 1.51766 -3.71927 0
M  V30 2256 N 203.657 0.490009 -2.86439 0
M  V30 2257 H 203.204 -0.348161 -2.55236 0
M  V30 2258 H 203.162 1.35741 -2.83587 0
M  V30 2259 N 206.934 1.1197 -1.10907 0
M  V30 2260 C 208.159 1.87942 -0.877064 0
M  V30 2261 C 208.584 1.79341 0.567314 0
M  V30 2262 O 207.942 1.15184 1.40009 0
M  V30 2263 C 207.99 3.34926 -1.33629 0
M  V30 2264 O 207.094 4.09303 -0.504447 0
M  V30 2265 H 206.435 0.583785 -0.316371 0
M  V30 2266 H 208.965 1.4157 -1.47712 0
M  V30 2267 H 208.975 3.8577 -1.32837 0
M  V30 2268 H 207.65 3.40504 -2.3881 0
M  V30 2269 H 206.227 3.68393 -0.577993 0
M  V30 2270 N 208.412 0.89855 1.29475 0
M  V30 2271 C 209.342 0.39201 2.30186 0
M  V30 2272 C 210.323 -0.532359 1.61555 0
M  V30 2273 O 211.508 -0.443331 1.89072 0
M  V30 2274 C 208.638 -0.382353 3.45189 0
M  V30 2275 C 207.592 0.451483 4.25612 0
M  V30 2276 C 206.918 -0.450307 5.328 0
M  V30 2277 C 208.218 1.70079 4.93832 0
M  V30 2278 H 209.912 1.23362 2.72804 0
M  V30 2279 H 207.458 0.594638 1.31149 0
M  V30 2280 H 209.411 -0.747451 4.14718 0
M  V30 2281 H 208.135 -1.25774 3.01411 0
M  V30 2282 H 206.794 0.798897 3.57789 0
M  V30 2283 H 206.442 -1.32379 4.85268 0
M  V30 2284 H 206.142 0.103902 5.87508 0
M  V30 2285 H 207.666 -0.811623 6.05182 0
M  V30 2286 H 209.08 1.40549 5.55805 0
M  V30 2287 H 207.477 2.19623 5.58467 0
M  V30 2288 H 208.547 2.43744 4.19186 0
M  V30 2289 N 209.89 -1.43072 0.660911 0
M  V30 2290 C 211.301 -1.84932 0.256348 0
M  V30 2291 C 211.652 -1.55325 -1.19868 0
M  V30 2292 O 210.777 -1.00607 -1.91591 0
M  V30 2293 C 211.372 -3.35684 0.458475 0
M  V30 2294 C 209.931 -3.76245 0.108161 0
M  V30 2295 C 209.078 -2.66749 0.757641 0
M  V30 2296 H 212.029 -1.33116 0.864051 0
M  V30 2297 H 212.05 -3.79365 -0.293683 0
M  V30 2298 H 211.562 -3.572 1.51755 0
M  V30 2299 H 209.663 -3.60338 -0.948014 0
M  V30 2300 H 209.776 -4.76058 0.538992 0
M  V30 2301 H 208.14 -2.53989 0.190185 0
M  V30 2302 H 208.923 -2.91092 1.81989 0
M  V30 2303 N 211.368 -0.403325 -1.52352 0
M  V30 2304 C 212.593 0.176499 -2.06648 0
M  V30 2305 C 213.018 1.38577 -1.27193 0
M  V30 2306 O 212.376 1.7879 -0.300637 0
M  V30 2307 C 212.424 0.511061 -3.5696 0
M  V30 2308 O 211.528 1.60294 -3.79973 0
M  V30 2309 H 210.869 0.0167337 -0.663789 0
M  V30 2310 H 213.399 -0.574848 -1.96359 0
M  V30 2311 H 213.409 0.771362 -4.00642 0
M  V30 2312 H 212.084 -0.37296 -4.14224 0
M  V30 2313 H 210.661 1.33526 -3.48174 0
M  V30 2314 N 212.846 1.57033 -0.133567 0
M  V30 2315 C 214.094 1.953 0.519848 0
M  V30 2316 C 214.415 1.01866 1.66278 0
M  V30 2317 O 213.685 0.0776513 1.95746 0
M  V30 2318 H 212.265 0.721091 0.195032 0
M  V30 2319 H 214.927 1.93809 -0.205921 0
M  V30 2320 H 214.023 2.98695 0.904854 0
M  V30 2321 N 214.325 -0.140222 1.56975 0
M  V30 2322 C 215.275 -1.17827 1.95194 0
M  V30 2323 C 216.259 -1.38195 0.824075 0
M  V30 2324 O 217.451 -1.39643 1.0876 0
M  V30 2325 C 214.58 -2.51024 2.34184 0
M  V30 2326 C 213.666 -2.3422 3.53556 0
M  V30 2327 N 214.057 -1.87185 4.69889 0
M  V30 2328 C 212.355 -2.64949 3.58773 0
M  V30 2329 C 213.056 -1.83586 5.5197 0
M  V30 2330 N 212.032 -2.2715 4.93866 0
M  V30 2331 H 215.834 -0.806817 2.82609 0
M  V30 2332 H 213.348 -0.348208 1.58623 0
M  V30 2333 H 215.345 -3.26074 2.59772 0
M  V30 2334 H 214.005 -2.88945 1.48124 0
M  V30 2335 H 215.016 -1.57048 4.93514 0
M  V30 2336 H 211.693 -3.067 2.8327 0
M  V30 2337 H 213.083 -1.48655 6.55249 0
M  V30 2338 N 215.803 -1.52179 -0.40978 0
M  V30 2339 C 217.052 -1.65434 -1.15388 0
M  V30 2340 C 217.365 -0.390056 -1.91671 0
M  V30 2341 O 218.571 -0.402399 -2.68501 0
M  V30 2342 C 217.027 -2.92279 -2.10003 0
M  V30 2343 C 216.635 -4.25813 -1.39239 0
M  V30 2344 C 218.379 -3.14897 -2.84675 0
M  V30 2345 C 216.286 -5.43782 -2.32498 0
M  V30 2346 H 215.216 -0.616267 -0.434432 0
M  V30 2347 H 217.867 -1.78666 -0.418401 0
M  V30 2348 H 216.249 -2.72744 -2.871 0
M  V30 2349 H 217.423 -4.55828 -0.675099 0
M  V30 2350 H 215.738 -4.09292 -0.766097 0
M  V30 2351 H 218.335 -4.0021 -3.54593 0
M  V30 2352 H 218.678 -2.29103 -3.47588 0
M  V30 2353 H 219.211 -3.34901 -2.14677 0
M  V30 2354 H 215.95 -6.3192 -1.74233 0
M  V30 2355 H 215.47 -5.18106 -3.02201 0
M  V30 2356 H 217.149 -5.76834 -2.93038 0
M  V30 2357 N 217.281 0.66697 -1.42791 0
M  V30 2358 C 218.213 1.7925 -1.42836 0
M  V30 2359 C 219.226 1.59496 -0.326333 0
M  V30 2360 O 220.415 1.6847 -0.589916 0
M  V30 2361 C 217.515 3.16476 -1.21229 0
M  V30 2362 C 216.688 3.63011 -2.44013 0
M  V30 2363 C 215.747 4.78993 -2.17834 0
M  V30 2364 O 214.773 4.89137 -2.91091 0
M  V30 2365 N 215.975 5.68248 -1.18635 0
M  V30 2366 H 218.74 1.79695 -2.39854 0
M  V30 2367 H 216.301 0.850338 -1.37771 0
M  V30 2368 H 218.293 3.91734 -1.01621 0
M  V30 2369 H 216.863 3.10884 -0.32706 0
M  V30 2370 H 216.083 2.78346 -2.79137 0
M  V30 2371 H 217.371 3.90845 -3.25757 0
M  V30 2372 H 216.769 5.62712 -0.580615 0
M  V30 2373 H 215.326 6.43285 -1.05013 0
M  V30 2374 N 218.759 1.29093 0.90403 0
M  V30 2375 C 220.007 1.16583 1.65085 0
M  V30 2376 C 220.328 -0.283933 1.92922 0
M  V30 2377 O 219.598 -1.19509 1.55224 0
M  V30 2378 H 218.178 0.428467 0.611903 0
M  V30 2379 H 220.84 1.61959 1.08422 0
M  V30 2380 H 219.936 1.71266 2.6091 0
M  V30 2381 N 220.237 -1.11381 1.11499 0
M  V30 2382 C 221.465 -1.86934 0.88675 0
M  V30 2383 C 221.88 -1.80195 -0.563476 0
M  V30 2384 O 221.237 -1.18367 -1.38908 0
M  V30 2385 C 221.288 -3.35722 1.34064 0
M  V30 2386 O 221.009 -3.4232 2.73401 0
M  V30 2387 C 222.51 -4.2818 1.14791 0
M  V30 2388 H 219.73 -0.591117 0.317523 0
M  V30 2389 H 222.274 -1.40865 1.48248 0
M  V30 2390 H 220.429 -3.79294 0.788355 0
M  V30 2391 H 220.843 -4.34971 2.93087 0
M  V30 2392 H 222.317 -5.30817 1.5145 0
M  V30 2393 H 222.794 -4.39113 0.0875279 0
M  V30 2394 H 223.4 -3.90402 1.68721 0
M  V30 2395 N 221.715 -0.905404 -1.28997 0
M  V30 2396 C 222.962 -0.534248 -1.95325 0
M  V30 2397 C 223.29 0.920535 -1.71337 0
M  V30 2398 O 222.545 1.66861 -1.02254 0
M  V30 2399 C 222.844 -0.779906 -3.48787 0
M  V30 2400 C 222.51 -2.21293 -3.92861 0
M  V30 2401 C 221.172 -2.60475 -4.04606 0
M  V30 2402 C 223.524 -3.14587 -4.15553 0
M  V30 2403 C 220.852 -3.9212 -4.36416 0
M  V30 2404 C 223.204 -4.45787 -4.48839 0
M  V30 2405 C 221.868 -4.84834 -4.58794 0
M  V30 2406 H 221.138 -0.195495 -0.714747 0
M  V30 2407 H 223.785 -1.14514 -1.53488 0
M  V30 2408 H 222.09 -0.0861365 -3.91705 0
M  V30 2409 H 223.787 -0.472029 -3.98212 0
M  V30 2410 H 220.377 -1.89887 -3.84241 0
M  V30 2411 H 224.561 -2.85528 -4.0594 0
M  V30 2412 H 219.817 -4.22086 -4.42327 0
M  V30 2413 H 223.991 -5.18098 -4.65346 0
M  V30 2414 H 221.618 -5.86877 -4.83197 0
M  V30 2415 N 223.193 1.4272 -0.668489 0
M  V30 2416 C 224.103 2.34596 0.0139753 0
M  V30 2417 C 225.119 1.5474 0.795703 0
M  V30 2418 O 226.295 1.87334 0.739466 0
M  V30 2419 C 223.36 3.33202 0.957982 0
M  V30 2420 C 222.421 4.28957 0.17149 0
M  V30 2421 C 221.654 5.22853 1.07053 0
M  V30 2422 O 221.877 5.21531 2.31001 0
M  V30 2423 O 220.811 5.9952 0.534727 0
M  V30 2424 H 224.637 2.9448 -0.742661 0
M  V30 2425 H 222.222 1.43117 -0.428705 0
M  V30 2426 H 224.104 3.93796 1.50008 0
M  V30 2427 H 222.779 2.758 1.69458 0
M  V30 2428 H 221.686 3.71796 -0.414558 0
M  V30 2429 H 223.019 4.89383 -0.52586 0
M  V30 2430 N 224.671 0.411399 1.52136 0
M  V30 2431 C 225.601 -0.404015 2.29978 0
M  V30 2432 C 226.582 -1.04412 1.34284 0
M  V30 2433 O 227.767 -1.0527 1.63192 0
M  V30 2434 C 224.897 -1.5197 3.12286 0
M  V30 2435 C 223.851 -1.00448 4.16046 0
M  V30 2436 C 223.177 -2.21393 4.86712 0
M  V30 2437 C 224.477 -0.0569336 5.22269 0
M  V30 2438 H 226.171 0.245529 2.98392 0
M  V30 2439 H 223.717 0.119525 1.43503 0
M  V30 2440 H 225.67 -2.09715 3.6551 0
M  V30 2441 H 224.394 -2.19716 2.41646 0
M  V30 2442 H 223.053 -0.449421 3.63835 0
M  V30 2443 H 222.701 -2.87699 4.12599 0
M  V30 2444 H 222.401 -1.87571 5.56858 0
M  V30 2445 H 223.925 -2.7974 5.4275 0
M  V30 2446 H 225.339 -0.54325 5.7072 0
M  V30 2447 H 223.736 0.192594 5.99791 0
M  V30 2448 H 224.806 0.887663 4.76706 0
M  V30 2449 N 226.149 -1.5696 0.141893 0
M  V30 2450 C 227.112 -2.15316 -0.785587 0
M  V30 2451 C 228.112 -1.09366 -1.1788 0
M  V30 2452 O 229.302 -1.35031 -1.10056 0
M  V30 2453 C 226.434 -2.71211 -2.06537 0
M  V30 2454 H 227.627 -2.98608 -0.278041 0
M  V30 2455 H 225.18 -1.5593 -0.107519 0
M  V30 2456 H 225.915 -1.91571 -2.6167 0
M  V30 2457 H 225.7 -3.4872 -1.79268 0
M  V30 2458 H 227.19 -3.16189 -2.72789 0
M  V30 2459 N 227.627 0.131896 -1.57047 0
M  V30 2460 C 228.575 1.18146 -2.0036 0
M  V30 2461 C 229.569 1.43614 -0.898406 0
M  V30 2462 O 230.775 1.43729 -1.08361 0
M  V30 2463 H 227.15 0.398042 -0.638018 0
M  V30 2464 H 229.121 0.789564 -2.87765 0
M  V30 2465 C 227.87 2.50341 -2.41298 0
M  V30 2466 H 227.193 2.31578 -3.25902 0
M  V30 2467 H 228.633 3.22371 -2.75414 0
M  V30 2468 C 227.092 3.11984 -1.27153 0
M  V30 2469 O 227.622 3.97484 -0.580459 0
M  V30 2470 N 225.828 2.71662 -1.03189 0
M  V30 2471 H 225.375 2.02231 -1.59564 0
M  V30 2472 H 225.333 3.13238 -0.270077 0
M  V30 2473 N 229.106 1.52395 0.401703 0
M  V30 2474 C 230.053 1.76268 1.48991 0
M  V30 2475 C 231.023 0.605386 1.54675 0
M  V30 2476 O 232.208 0.843742 1.7113 0
M  V30 2477 C 229.348 1.92592 2.86361 0
M  V30 2478 C 228.461 3.20259 2.89928 0
M  V30 2479 C 227.596 3.26972 4.18644 0
M  V30 2480 C 226.635 4.48812 4.16214 0
M  V30 2481 N 225.772 4.52877 5.36514 0
M  V30 2482 H 230.612 2.6914 1.27935 0
M  V30 2483 H 228.149 1.33355 0.620871 0
M  V30 2484 H 230.107 2.0004 3.66115 0
M  V30 2485 H 228.737 1.03093 3.05895 0
M  V30 2486 H 227.789 3.21945 2.02621 0
M  V30 2487 H 229.101 4.10056 2.83999 0
M  V30 2488 H 228.255 3.33533 5.06794 0
M  V30 2489 H 226.994 2.35126 4.27278 0
M  V30 2490 H 225.999 4.4239 3.26453 0
M  V30 2491 H 227.224 5.41961 4.09213 0
M  V30 2492 H 225.17 3.63917 5.45802 0
M  V30 2493 H 225.087 5.36529 5.32609 0
M  V30 2494 H 226.355 4.63676 6.26597 0
M  V30 2495 N 230.584 -0.659388 1.43143 0
M  V30 2496 C 231.494 -1.80167 1.50256 0
M  V30 2497 C 232.51 -1.69571 0.390106 0
M  V30 2498 O 233.686 -1.90849 0.643319 0
M  V30 2499 C 230.751 -3.16409 1.41725 0
M  V30 2500 C 229.812 -3.38848 2.63591 0
M  V30 2501 C 229.045 -4.68591 2.55458 0
M  V30 2502 O 229.268 -5.47532 1.59891 0
M  V30 2503 O 228.202 -4.92614 3.45854 0
M  V30 2504 H 232.028 -1.77121 2.46702 0
M  V30 2505 H 229.613 -0.817092 1.25076 0
M  V30 2506 H 231.495 -3.9768 1.39387 0
M  V30 2507 H 230.17 -3.20059 0.484118 0
M  V30 2508 H 229.077 -2.57366 2.71502 0
M  V30 2509 H 230.41 -3.4004 3.55856 0
M  V30 2510 N 232.062 -1.29571 -0.897171 0
M  V30 2511 C 232.972 -1.16808 -2.03453 0
M  V30 2512 C 233.988 -0.0907471 -1.73763 0
M  V30 2513 O 235.164 -0.303312 -1.99103 0
M  V30 2514 C 232.229 -0.848264 -3.36163 0
M  V30 2515 C 231.29 -2.0097 -3.79354 0
M  V30 2516 C 230.523 -1.70505 -5.05731 0
M  V30 2517 O 230.746 -0.62718 -5.66941 0
M  V30 2518 O 229.68 -2.5538 -5.45036 0
M  V30 2519 H 233.506 -2.12325 -2.17144 0
M  V30 2520 H 231.091 -1.09047 -1.02123 0
M  V30 2521 H 232.973 -0.684581 -4.15802 0
M  V30 2522 H 231.648 0.0771071 -3.23608 0
M  V30 2523 H 230.555 -2.22863 -3.00471 0
M  V30 2524 H 231.888 -2.91636 -3.96496 0
M  V30 2525 N 233.54 1.10788 -1.12088 0
M  V30 2526 C 234.488 2.19111 -0.780587 0
M  V30 2527 C 235.482 1.67818 0.230961 0
M  V30 2528 O 236.688 1.79777 0.0895427 0
M  V30 2529 H 233.063 0.714477 -0.234578 0
M  V30 2530 H 235.034 2.45055 -1.70266 0
M  V30 2531 C 233.783 3.46818 -0.24747 0
M  V30 2532 H 233.106 3.86646 -1.01712 0
M  V30 2533 H 234.546 4.23973 -0.0476291 0
M  V30 2534 C 233.005 3.20968 1.02378 0
M  V30 2535 O 233.535 3.42298 2.10226 0
M  V30 2536 N 231.741 2.74658 0.949271 0
M  V30 2537 H 231.288 2.57501 0.0715173 0
M  V30 2538 H 231.246 2.57739 1.80049 0
M  V30 2539 N 235.018 0.912232 1.28515 0
M  V30 2540 C 236.434 0.610159 1.47476 0
M  V30 2541 C 236.634 -0.844955 1.82928 0
M  V30 2542 O 235.69 -1.62416 1.93332 0
M  V30 2543 C 237.003 1.54675 2.57868 0
M  V30 2544 C 238.551 1.55331 2.71738 0
M  V30 2545 C 239.026 2.47649 3.85272 0
M  V30 2546 N 240.517 2.45767 3.92623 0
M  V30 2547 C 241.252 3.13896 4.79851 0
M  V30 2548 N 240.748 3.9135 5.71679 0
M  V30 2549 N 242.541 3.02991 4.73448 0
M  V30 2550 H 234.692 1.85318 1.03783 0
M  V30 2551 H 236.955 0.794777 0.516753 0
M  V30 2552 H 236.661 2.5841 2.38574 0
M  V30 2553 H 236.535 1.27671 3.54937 0
M  V30 2554 H 238.922 0.52335 2.90422 0
M  V30 2555 H 239.003 1.86378 1.75205 0
M  V30 2556 H 238.647 3.50745 3.67342 0
M  V30 2557 H 238.577 2.13904 4.81199 0
M  V30 2558 H 241.068 1.89503 3.26951 0
M  V30 2559 H 241.381 4.40359 6.35062 0
M  V30 2560 H 239.726 3.95455 5.71524 0
M  V30 2561 H 242.917 2.41987 4.007 0
M  V30 2562 H 243.09 3.5636 5.41213 0
M  V30 2563 N 236.496 -1.42363 0.676048 0
M  V30 2564 C 237.406 -2.346 -0.00153389 0
M  V30 2565 C 238.422 -1.5516 -0.787485 0
M  V30 2566 O 239.598 -1.87723 -0.729521 0
M  V30 2567 C 236.663 -3.33705 -0.940298 0
M  V30 2568 C 235.724 -4.29042 -0.148739 0
M  V30 2569 C 234.957 -5.23413 -1.04279 0
M  V30 2570 O 235.18 -5.22749 -2.28232 0
M  V30 2571 O 234.114 -5.99795 -0.502925 0
M  V30 2572 H 237.94 -2.94082 0.758268 0
M  V30 2573 H 235.525 -1.42888 0.436289 0
M  V30 2574 H 237.407 -3.94586 -1.47917 0
M  V30 2575 H 236.082 -2.76695 -1.67993 0
M  V30 2576 H 234.989 -3.71571 0.43427 0
M  V30 2577 H 236.322 -4.89097 0.551805 0
M  V30 2578 N 237.974 -0.419461 -1.51915 0
M  V30 2579 C 238.921 0.400927 -2.27291 0
M  V30 2580 C 239.891 1.03224 -1.30131 0
M  V30 2581 O 241.076 1.05455 -1.59009 0
M  V30 2582 C 238.216 1.50603 -3.10504 0
M  V30 2583 C 237.329 0.89462 -4.22635 0
M  V30 2584 C 236.464 1.97328 -4.93189 0
M  V30 2585 C 235.503 1.33935 -5.97267 0
M  V30 2586 N 234.64 2.3586 -6.61298 0
M  V30 2587 H 239.48 -0.248251 -2.96964 0
M  V30 2588 H 237.017 -0.134266 -1.46486 0
M  V30 2589 H 238.975 2.15783 -3.57062 0
M  V30 2590 H 237.605 2.12509 -2.42981 0
M  V30 2591 H 236.657 0.131583 -3.80172 0
M  V30 2592 H 237.969 0.391641 -4.9726 0
M  V30 2593 H 237.123 2.70211 -5.43204 0
M  V30 2594 H 235.862 2.50994 -4.18155 0
M  V30 2595 H 234.867 0.595896 -5.46561 0
M  V30 2596 H 236.092 0.810252 -6.74249 0
M  V30 2597 H 234.038 2.88639 -5.89087 0
M  V30 2598 H 233.955 1.90403 -7.3163 0
M  V30 2599 H 235.223 3.08282 -7.15949 0
M  V30 2600 N 239.452 1.56882 -0.150215 0
M  V30 2601 C 240.4 2.18214 0.805313 0
M  V30 2602 C 241.394 1.14006 1.25296 0
M  V30 2603 O 242.6 1.3225 1.22107 0
M  V30 2604 H 238.975 0.698762 0.277913 0
M  V30 2605 H 240.946 2.97231 0.263862 0
M  V30 2606 C 239.695 2.82065 2.03309 0
M  V30 2607 H 239.018 3.61968 1.69763 0
M  V30 2608 H 240.458 3.28477 2.68103 0
M  V30 2609 C 238.917 1.80739 2.84315 0
M  V30 2610 O 239.447 1.27983 3.80767 0
M  V30 2611 N 237.653 1.4997 2.48913 0
M  V30 2612 H 237.2 1.93062 1.70542 0
M  V30 2613 H 237.158 0.824217 3.03404 0
M  V30 2614 N 240.93 -0.123565 1.57115 0
M  V30 2615 C 242.346 -0.476961 1.52306 0
M  V30 2616 C 242.546 -1.82109 0.86248 0
M  V30 2617 O 241.602 -2.48586 0.442884 0
M  V30 2618 C 242.915 -0.465661 2.97073 0
M  V30 2619 C 244.463 -0.549534 3.08138 0
M  V30 2620 C 244.938 -0.568669 4.54456 0
M  V30 2621 N 246.429 -0.630237 4.58892 0
M  V30 2622 C 247.164 -0.666415 5.69514 0
M  V30 2623 N 246.66 -0.660514 6.89644 0
M  V30 2624 N 248.453 -0.709077 5.5761 0
M  V30 2625 H 240.604 0.757198 1.98445 0
M  V30 2626 H 242.867 0.278808 0.906074 0
M  V30 2627 H 242.573 0.454232 3.48754 0
M  V30 2628 H 242.447 -1.29513 3.54269 0
M  V30 2629 H 244.834 -1.45985 2.56461 0
M  V30 2630 H 244.915 0.307532 2.53945 0
M  V30 2631 H 244.559 0.337581 5.06777 0
M  V30 2632 H 244.489 -1.44256 5.06456 0
M  V30 2633 H 246.98 -0.641146 3.72421 0
M  V30 2634 H 247.293 -0.690616 7.69708 0
M  V30 2635 H 245.638 -0.628012 6.92157 0
M  V30 2636 H 248.829 -0.711019 4.62668 0
M  V30 2637 H 249.002 -0.733804 6.43832 0
M  V30 2638 N 242.408 -1.52605 -0.393616 0
M  V30 2639 C 243.638 -1.71046 -1.15874 0
M  V30 2640 C 244.046 -0.426483 -1.84331 0
M  V30 2641 O 243.389 0.608513 -1.73329 0
M  V30 2642 C 243.451 -2.80118 -2.25332 0
M  V30 2643 C 243.115 -4.21381 -1.76881 0
M  V30 2644 C 244.112 -5.04697 -1.24808 0
M  V30 2645 C 241.797 -4.67683 -1.83244 0
M  V30 2646 C 243.791 -6.32393 -0.797387 0
M  V30 2647 C 241.478 -5.95364 -1.37787 0
M  V30 2648 C 242.476 -6.77549 -0.861208 0
M  V30 2649 O 242.164 -8.02837 -0.413252 0
M  V30 2650 H 241.896 -0.576155 -0.353583 0
M  V30 2651 H 244.45 -2.00018 -0.467123 0
M  V30 2652 H 242.68 -2.46557 -2.97904 0
M  V30 2653 H 244.369 -2.87006 -2.87023 0
M  V30 2654 H 245.135 -4.70111 -1.19252 0
M  V30 2655 H 241.014 -4.03805 -2.22401 0
M  V30 2656 H 244.558 -6.9649 -0.393437 0
M  V30 2657 H 240.455 -6.29455 -1.43026 0
M  V30 2658 H 241.223 -8.16749 -0.53515 0
M  V30 2659 N 243.887 0.651787 -1.4349 0
M  V30 2660 C 245.298 1.233 -1.40193 0
M  V30 2661 C 245.649 1.9591 -0.106727 0
M  V30 2662 O 244.774 2.01316 0.793773 0
M  V30 2663 C 245.369 2.24257 -2.53957 0
M  V30 2664 C 243.928 2.77852 -2.5392 0
M  V30 2665 C 243.075 1.52517 -2.3159 0
M  V30 2666 H 246.026 0.443717 -1.52371 0
M  V30 2667 H 246.047 3.0646 -2.25528 0
M  V30 2668 H 245.559 1.71382 -3.4821 0
M  V30 2669 H 243.66 3.34786 -1.63551 0
M  V30 2670 H 243.773 3.25299 -3.51735 0
M  V30 2671 H 242.137 1.79915 -1.80285 0
M  V30 2672 H 242.92 1.01574 -3.27929 0
M  V30 2673 N 245.365 1.30045 0.890287 0
M  V30 2674 C 246.313 1.15873 2.01683 0
M  V30 2675 C 247.307 0.0719403 1.69247 0
M  V30 2676 O 248.513 0.232414 1.78493 0
M  V30 2677 H 244.888 0.358203 0.661207 0
M  V30 2678 H 246.859 2.11229 2.10772 0
M  V30 2679 C 245.608 0.861842 3.36849 0
M  V30 2680 H 244.931 1.69016 3.62317 0
M  V30 2681 H 246.371 0.802762 4.16331 0
M  V30 2682 C 244.83 -0.435132 3.34078 0
M  V30 2683 O 245.36 -1.4583 3.74295 0
M  V30 2684 N 243.566 -0.444377 2.87182 0
M  V30 2685 H 243.113 0.388723 2.5465 0
M  V30 2686 H 243.071 -1.31213 2.85711 0
M  V30 2687 N 246.843 -1.10192 1.12674 0
M  V30 2688 C 248.092 -1.81573 0.8783 0
M  V30 2689 C 248.405 -1.86249 -0.597557 0
M  V30 2690 O 249.611 -2.5386 -0.962681 0
M  V30 2691 C 248.067 -3.26149 1.52167 0
M  V30 2692 C 247.675 -3.29763 3.03249 0
M  V30 2693 C 249.419 -4.0234 1.3536 0
M  V30 2694 C 247.326 -4.68815 3.60508 0
M  V30 2695 H 246.256 -0.680394 0.324931 0
M  V30 2696 H 248.907 -1.23902 1.35353 0
M  V30 2697 H 247.289 -3.83832 0.974104 0
M  V30 2698 H 248.463 -2.8189 3.6452 0
M  V30 2699 H 246.778 -2.67059 3.19481 0
M  V30 2700 H 249.375 -5.05058 1.75559 0
M  V30 2701 H 249.718 -4.15235 0.297554 0
M  V30 2702 H 250.251 -3.51079 1.87052 0
M  V30 2703 H 246.99 -4.61121 4.65884 0
M  V30 2704 H 246.51 -5.17045 3.04014 0
M  V30 2705 H 248.189 -5.37785 3.59717 0
M  V30 2706 N 248.321 -0.919034 -1.28029 0
M  V30 2707 C 249.251 -0.428581 -2.29533 0
M  V30 2708 C 250.232 0.50659 -1.62381 0
M  V30 2709 O 251.417 0.413195 -1.89753 0
M  V30 2710 C 248.547 0.327388 -3.45753 0
M  V30 2711 C 247.501 -0.519137 -4.2484 0
M  V30 2712 C 246.827 0.365486 -5.33449 0
M  V30 2713 C 248.127 -1.77914 -4.91064 0
M  V30 2714 H 249.821 -1.27687 -2.70807 0
M  V30 2715 H 247.367 -0.615428 -1.30186 0
M  V30 2716 H 249.32 0.681378 -4.15855 0
M  V30 2717 H 248.044 1.20963 -3.03374 0
M  V30 2718 H 246.703 -0.855717 -3.56473 0
M  V30 2719 H 246.351 1.24642 -4.87312 0
M  V30 2720 H 246.051 -0.197356 -5.87268 0
M  V30 2721 H 247.575 0.715241 -6.06396 0
M  V30 2722 H 248.989 -1.49374 -5.53498 0
M  V30 2723 H 247.386 -2.2848 -5.54903 0
M  V30 2724 H 248.456 -2.50382 -4.15255 0
M  V30 2725 N 249.799 1.42003 -0.683588 0
M  V30 2726 C 251.21 1.84501 -0.285736 0
M  V30 2727 C 251.561 1.57213 1.17382 0
M  V30 2728 O 250.686 1.03642 1.89966 0
M  V30 2729 C 251.281 3.34912 -0.511821 0
M  V30 2730 C 249.84 3.76025 -0.168005 0
M  V30 2731 C 248.987 2.6551 -0.799983 0
M  V30 2732 H 251.938 1.31724 -0.885119 0
M  V30 2733 H 251.959 3.79784 0.233292 0
M  V30 2734 H 251.471 3.54741 -1.57418 0
M  V30 2735 H 249.572 3.61801 0.890567 0
M  V30 2736 H 249.685 4.75141 -0.614661 0
M  V30 2737 H 248.049 2.53654 -0.230568 0
M  V30 2738 H 248.832 2.8816 -1.86597 0
M  V30 2739 N 251.277 0.427512 1.51691 0
M  V30 2740 C 252.225 -0.403359 2.29076 0
M  V30 2741 C 253.219 -1.02962 1.34518 0
M  V30 2742 O 254.425 -0.965715 1.51901 0
M  V30 2743 H 250.8 -0.148879 0.737115 0
M  V30 2744 H 252.771 0.270295 2.97173 0
M  V30 2745 C 251.52 -1.49763 3.13794 0
M  V30 2746 H 250.843 -1.02508 3.86435 0
M  V30 2747 H 252.283 -2.05244 3.71014 0
M  V30 2748 C 250.742 -2.47536 2.28533 0
M  V30 2749 O 251.272 -3.51848 1.93819 0
M  V30 2750 N 249.478 -2.18187 1.91945 0
M  V30 2751 H 249.025 -1.33389 2.20375 0
M  V30 2752 H 248.983 -2.83848 1.35195 0
M  V30 2753 N 252.755 -1.56801 0.158532 0
M  V30 2754 C 254.032 -1.88131 -0.535357 0
M  V30 2755 C 254.412 -1.06638 -1.82186 0
M  V30 2756 O 253.76 -0.156533 -2.27963 0
M  V30 2757 C 253.97 -3.39949 -0.789653 0
M  V30 2758 C 255.318 -4.09416 -1.12533 0
M  V30 2759 O 256.342 -3.45194 -0.878622 0
M  V30 2760 O 255.201 -5.22855 -1.59014 0
M  V30 2761 H 252.295 -0.780143 -0.27442 0
M  V30 2762 H 254.841 -1.68564 0.19601 0
M  V30 2763 H 253.613 -3.91115 0.120353 0
M  V30 2764 H 253.236 -3.65084 -1.57479 0
M  V30 2765 N 254.233 0.115231 -1.57178 0
M  V30 2766 C 255.183 1.14707 -1.97044 0
M  V30 2767 C 256.167 1.36866 -0.845957 0
M  V30 2768 O 257.359 1.37895 -1.10968 0
M  V30 2769 C 254.488 2.47266 -2.38148 0
M  V30 2770 C 253.574 2.28566 -3.57237 0
M  V30 2771 N 253.965 1.79685 -4.72807 0
M  V30 2772 C 252.263 2.59208 -3.62943 0
M  V30 2773 C 252.964 1.74781 -5.54821 0
M  V30 2774 N 251.94 2.19264 -4.97417 0
M  V30 2775 H 255.742 0.761754 -2.83857 0
M  V30 2776 H 253.256 0.322928 -1.59157 0
M  V30 2777 H 255.253 3.219 -2.64927 0
M  V30 2778 H 253.913 2.86552 -1.52702 0
M  V30 2779 H 254.924 1.49177 -4.9595 0
M  V30 2780 H 251.601 3.02154 -2.88113 0
M  V30 2781 H 252.991 1.38212 -6.57531 0
M  V30 2782 N 255.711 1.52812 0.385517 0
M  V30 2783 C 256.936 1.72207 1.15583 0
M  V30 2784 C 257.361 0.441034 1.82857 0
M  V30 2785 O 256.719 -0.603465 1.70962 0
M  V30 2786 C 256.767 2.87476 2.17692 0
M  V30 2787 O 255.871 2.54693 3.24354 0
M  V30 2788 H 255.212 0.572526 0.336319 0
M  V30 2789 H 257.742 1.99618 0.448744 0
M  V30 2790 H 257.752 3.13072 2.6163 0
M  V30 2791 H 256.427 3.80408 1.68115 0
M  V30 2792 H 255.004 2.3985 2.85529 0
M  V30 2793 N 257.189 -0.644168 1.43834 0
M  V30 2794 C 258.605 -0.960875 1.27434 0
M  V30 2795 C 258.805 -2.00499 0.200618 0
M  V30 2796 O 257.861 -2.49018 -0.417906 0
M  V30 2797 C 259.174 -1.43653 2.64167 0
M  V30 2798 C 260.722 -1.55271 2.71772 0
M  V30 2799 C 261.197 -2.06224 4.08944 0
M  V30 2800 N 262.688 -2.13513 4.11055 0
M  V30 2801 C 263.423 -2.54081 5.14033 0
M  V30 2802 N 262.919 -2.9388 6.27381 0
M  V30 2803 N 264.712 -2.54101 5.01387 0
M  V30 2804 H 256.863 0.0465779 2.12349 0
M  V30 2805 H 259.126 -0.0417638 0.94708 0
M  V30 2806 H 258.832 -0.743706 3.43747 0
M  V30 2807 H 258.706 -2.40993 2.90176 0
M  V30 2808 H 261.093 -2.23653 1.92519 0
M  V30 2809 H 261.174 -0.563395 2.49519 0
M  V30 2810 H 260.818 -1.38441 4.88668 0
M  V30 2811 H 260.748 -3.06003 4.28567 0
M  V30 2812 H 263.239 -1.85493 3.29242 0
M  V30 2813 H 263.552 -3.2361 7.01781 0
M  V30 2814 H 261.897 -2.91663 6.30839 0
M  V30 2815 H 265.088 -2.22391 4.11898 0
M  V30 2816 H 265.261 -2.85394 5.81768 0
M  V30 2817 N 258.668 -1.30515 -0.883378 0
M  V30 2818 C 259.914 -1.19607 -1.63774 0
M  V30 2819 C 260.247 0.248314 -1.92606 0
M  V30 2820 O 259.522 1.17742 -1.54813 0
M  V30 2821 C 259.805 -2.02669 -2.97653 0
M  V30 2822 C 259.658 -3.55335 -2.75784 0
M  V30 2823 C 260.977 -1.86573 -3.98596 0
M  V30 2824 H 258.096 -0.435856 -0.594305 0
M  V30 2825 H 260.738 -1.60165 -1.02212 0
M  V30 2826 H 258.888 -1.68208 -3.50197 0
M  V30 2827 H 260.56 -3.99863 -2.30016 0
M  V30 2828 H 258.803 -3.79438 -2.1026 0
M  V30 2829 H 259.474 -4.08745 -3.70988 0
M  V30 2830 H 261.95 -2.16703 -3.55217 0
M  V30 2831 H 260.826 -2.47014 -4.90179 0
M  V30 2832 H 261.087 -0.825321 -4.34328 0
M  V30 2833 N 260.146 1.09593 -1.13257 0
M  V30 2834 C 261.395 1.81105 -0.887917 0
M  V30 2835 C 261.708 1.86563 0.587672 0
M  V30 2836 O 262.914 2.54367 0.949204 0
M  V30 2837 C 261.37 3.25338 -1.53895 0
M  V30 2838 C 260.978 3.28151 -3.04994 0
M  V30 2839 C 262.722 4.01617 -1.37492 0
M  V30 2840 C 260.629 4.66897 -3.6299 0
M  V30 2841 H 259.559 0.678661 -0.328534 0
M  V30 2842 H 262.21 1.23183 -1.36008 0
M  V30 2843 H 260.592 3.8331 -0.994446 0
M  V30 2844 H 261.766 2.79953 -3.66009 0
M  V30 2845 H 260.081 2.65361 -3.20893 0
M  V30 2846 H 262.678 5.04119 -1.78235 0
M  V30 2847 H 263.021 4.15072 -0.31957 0
M  V30 2848 H 263.554 3.50082 -1.88912 0
M  V30 2849 H 260.293 4.58643 -4.68323 0
M  V30 2850 H 259.813 5.15426 -3.06752 0
M  V30 2851 H 261.492 5.3587 -3.62563 0
M  V30 2852 N 261.624 0.925811 1.2754 0
M  V30 2853 C 262.554 0.440748 2.29303 0
M  V30 2854 C 263.535 -0.497971 1.62648 0
M  V30 2855 O 264.72 -0.403126 1.8997 0
M  V30 2856 C 261.85 -0.309048 3.45922 0
M  V30 2857 C 260.804 0.54166 4.24559 0
M  V30 2858 C 260.13 -0.337191 5.33636 0
M  V30 2859 C 261.43 1.80516 4.90114 0
M  V30 2860 H 263.124 1.29121 2.70126 0
M  V30 2861 H 260.67 0.622323 1.29858 0
M  V30 2862 H 262.623 -0.659315 4.1621 0
M  V30 2863 H 261.347 -1.19352 3.04011 0
M  V30 2864 H 260.006 0.874609 3.56014 0
M  V30 2865 H 259.654 -1.22056 4.87966 0
M  V30 2866 H 259.354 0.228497 5.87156 0
M  V30 2867 H 260.878 -0.683072 6.06767 0
M  V30 2868 H 262.292 1.52307 5.52698 0
M  V30 2869 H 260.689 2.3142 5.53683 0
M  V30 2870 H 261.759 2.52581 4.13921 0
M  V30 2871 N 263.102 -1.41638 0.69111 0
M  V30 2872 C 264.327 -2.06148 0.227583 0
M  V30 2873 C 264.752 -1.51652 -1.11281 0
M  V30 2874 O 264.11 -0.64164 -1.69566 0
M  V30 2875 C 264.158 -3.60095 0.190858 0
M  V30 2876 O 263.262 -4.03845 -0.835664 0
M  V30 2877 H 262.603 -0.654434 0.112306 0
M  V30 2878 H 265.133 -1.81484 0.944714 0
M  V30 2879 H 265.143 -4.07995 0.020207 0
M  V30 2880 H 263.818 -3.99129 1.16915 0
M  V30 2881 H 262.395 -3.67458 -0.63473 0
M  V30 2882 N 264.58 -0.43555 -1.51462 0
M  V30 2883 C 265.512 0.41257 -2.25456 0
M  V30 2884 C 266.525 0.987822 -1.29406 0
M  V30 2885 O 267.714 0.882266 -1.55172 0
M  V30 2886 C 264.814 1.58894 -2.99342 0
M  V30 2887 C 263.987 1.13288 -4.22474 0
M  V30 2888 C 263.046 2.17917 -4.78956 0
M  V30 2889 O 262.072 1.77425 -5.40841 0
M  V30 2890 N 263.274 3.50382 -4.62832 0
M  V30 2891 H 266.039 -0.221603 -2.9888 0
M  V30 2892 H 263.6 -0.264342 -1.59727 0
M  V30 2893 H 265.592 2.28508 -3.34015 0
M  V30 2894 H 264.162 2.12849 -2.28941 0
M  V30 2895 H 263.382 0.263881 -3.93316 0
M  V30 2896 H 264.67 0.805542 -5.02383 0
M  V30 2897 H 264.068 3.86013 -4.13534 0
M  V30 2898 H 262.625 4.15895 -5.01871 0
M  V30 2899 N 266.058 1.56714 -0.166846 0
M  V30 2900 C 266.988 2.20754 0.760913 0
M  V30 2901 C 267.969 1.16178 1.24244 0
M  V30 2902 O 269.154 1.44592 1.29641 0
M  V30 2903 C 266.284 2.84478 1.99223 0
M  V30 2904 C 265.238 3.95053 1.64672 0
M  V30 2905 C 264.564 4.45805 2.95232 0
M  V30 2906 C 265.864 5.14865 0.878155 0
M  V30 2907 H 267.558 2.98537 0.22713 0
M  V30 2908 H 265.104 1.43596 0.107805 0
M  V30 2909 H 267.057 3.27951 2.64624 0
M  V30 2910 H 265.781 2.04056 2.55007 0
M  V30 2911 H 264.44 3.52228 1.01641 0
M  V30 2912 H 264.088 3.62181 3.49047 0
M  V30 2913 H 263.788 5.204 2.7287 0
M  V30 2914 H 265.312 4.91962 3.6167 0
M  V30 2915 H 266.726 5.55059 1.43466 0
M  V30 2916 H 265.123 5.95348 0.753738 0
M  V30 2917 H 266.193 4.84735 -0.126377 0
M  V30 2918 N 267.536 -0.106894 1.57237 0
M  V30 2919 C 268.813 -0.843526 1.76477 0
M  V30 2920 C 269.193 -1.97499 0.745464 0
M  V30 2921 O 268.541 -2.27357 -0.228306 0
M  V30 2922 C 268.751 -1.34903 3.21873 0
M  V30 2923 C 270.099 -1.79654 3.8472 0
M  V30 2924 O 271.123 -1.44554 3.2555 0
M  V30 2925 O 269.982 -2.44515 4.88748 0
M  V30 2926 H 267.076 -0.401468 0.723016 0
M  V30 2927 H 269.622 -0.0896927 1.69463 0
M  V30 2928 H 268.394 -0.53781 3.87586 0
M  V30 2929 H 268.017 -2.16522 3.33473 0
M  V30 2930 N 269.014 -1.53014 -0.377408 0
M  V30 2931 C 270.262 -1.6829 -1.11906 0
M  V30 2932 C 270.583 -0.431206 -1.90173 0
M  V30 2933 O 269.853 0.554595 -1.87886 0
M  V30 2934 H 268.433 -0.620371 -0.416112 0
M  V30 2935 H 271.095 -1.90167 -0.426893 0
M  V30 2936 H 270.191 -2.53862 -1.8155 0
M  V30 2937 N 270.492 0.636531 -1.44174 0
M  V30 2938 C 271.741 1.39213 -1.45954 0
M  V30 2939 C 272.054 1.95374 -0.0939119 0
M  V30 2940 O 273.26 2.71498 0.0107767 0
M  V30 2941 C 271.716 2.52025 -2.56927 0
M  V30 2942 C 271.324 2.024 -3.99673 0
M  V30 2943 C 273.068 3.29269 -2.67922 0
M  V30 2944 C 270.975 3.12521 -5.0208 0
M  V30 2945 H 269.905 0.523132 -0.542999 0
M  V30 2946 H 272.556 0.685349 -1.70221 0
M  V30 2947 H 270.938 3.25253 -2.25891 0
M  V30 2948 H 272.112 1.36073 -4.40251 0
M  V30 2949 H 270.427 1.37987 -3.92872 0
M  V30 2950 H 273.024 4.11352 -3.41605 0
M  V30 2951 H 273.367 3.78397 -1.73555 0
M  V30 2952 H 273.9 2.63129 -2.98342 0
M  V30 2953 H 270.639 2.68343 -5.98057 0
M  V30 2954 H 270.159 3.77507 -4.66099 0
M  V30 2955 H 271.838 3.77385 -5.25538 0
M  V30 2956 N 271.97 1.30982 0.876444 0
M  V30 2957 C 273.381 1.18277 1.44456 0
M  V30 2958 C 273.732 -0.213265 1.95037 0
M  V30 2959 O 272.857 -1.11057 1.85729 0
M  V30 2960 C 273.452 2.1411 2.62569 0
M  V30 2961 C 272.011 2.05358 3.15444 0
M  V30 2962 C 271.158 2.03706 1.88146 0
M  V30 2963 H 274.109 1.43127 0.685584 0
M  V30 2964 H 274.13 1.72692 3.39054 0
M  V30 2965 H 273.642 3.15706 2.25724 0
M  V30 2966 H 271.743 1.06934 3.56926 0
M  V30 2967 H 271.856 2.94156 3.78166 0
M  V30 2968 H 270.22 1.48629 2.06837 0
M  V30 2969 H 271.003 3.07047 1.53547 0
M  V30 2970 N 273.449 -1.08991 1.13837 0
M  V30 2971 C 274.689 -1.82867 0.913183 0
M  V30 2972 C 275.053 -1.83936 -0.550604 0
M  V30 2973 O 276.254 -2.53515 -0.893515 0
M  V30 2974 C 274.525 -3.24843 1.49036 0
M  V30 2975 S 276.084 -4.15669 1.40588 0
M  V30 2976 H 272.902 -0.630278 0.329046 0
M  V30 2977 H 275.504 -1.31049 1.45073 0
M  V30 2978 H 274.208 -3.21644 2.54899 0
M  V30 2979 H 273.739 -3.81734 0.950947 0
M  V30 2980 H 275.754 -4.94686 0.387353 0
M  V30 2981 N 274.927 -0.932562 -1.27047 0
M  V30 2982 C 276.152 -0.591474 -1.98787 0
M  V30 2983 C 276.577 0.824601 -1.69062 0
M  V30 2984 O 275.935 1.5541 -0.933677 0
M  V30 2985 C 275.983 -0.829808 -3.50922 0
M  V30 2986 O 275.087 0.102266 -4.12273 0
M  V30 2987 H 274.428 -0.227185 -0.623926 0
M  V30 2988 H 276.958 -1.25314 -1.61733 0
M  V30 2989 H 276.968 -0.747292 -4.01098 0
M  V30 2990 H 275.643 -1.86201 -3.7189 0
M  V30 2991 H 274.22 -0.0305761 -3.72887 0
M  V30 2992 N 276.405 1.4127 -0.698611 0
M  V30 2993 C 277.682 1.94955 -0.158762 0
M  V30 2994 C 278.062 1.63781 1.33188 0
M  V30 2995 O 277.41 0.946423 2.07979 0
M  V30 2996 C 277.62 3.46044 -0.453309 0
M  V30 2997 C 278.968 4.22872 -0.382707 0
M  V30 2998 O 279.992 3.54076 -0.388396 0
M  V30 2999 O 278.851 5.45407 -0.345463 0
M  V30 3000 H 275.945 0.82683 -0.0167505 0
M  V30 3001 H 278.491 1.50971 -0.77498 0
M  V30 3002 H 277.263 3.62028 -1.48498 0
M  V30 3003 H 276.886 3.97128 0.19373 0
M  V30 3004 N 277.883 0.443576 1.51229 0
M  V30 3005 C 279.113 -0.119117 2.06256 0
M  V30 3006 C 279.521 -1.36471 1.31043 0
M  V30 3007 O 278.864 -1.80034 0.365151 0
M  V30 3008 C 278.926 -0.500546 3.55998 0
M  V30 3009 C 278.59 0.639125 4.52509 0
M  V30 3010 C 279.587 1.51311 4.97394 0
M  V30 3011 C 277.272 0.821632 4.95535 0
M  V30 3012 C 279.266 2.55425 5.83984 0
M  V30 3013 C 276.953 1.86603 5.81913 0
M  V30 3014 C 277.951 2.73072 6.26036 0
M  V30 3015 O 277.639 3.75718 7.10698 0
M  V30 3016 H 277.371 -0.00857665 0.675946 0
M  V30 3017 H 279.925 0.623288 1.95715 0
M  V30 3018 H 278.155 -1.29575 3.64345 0
M  V30 3019 H 279.844 -0.995116 3.93513 0
M  V30 3020 H 280.61 1.38367 4.64844 0
M  V30 3021 H 276.489 0.158149 4.60729 0
M  V30 3022 H 280.033 3.22949 6.18344 0
M  V30 3023 H 275.93 1.99564 6.13876 0
M  V30 3024 H 276.698 3.72374 7.2889 0
M  V30 3025 N 279.361 -1.56624 0.175154 0
M  V30 3026 C 280.61 -1.96173 -0.468921 0
M  V30 3027 C 280.923 -1.06401 -1.64128 0
M  V30 3028 O 282.129 -1.35648 -2.35185 0
M  V30 3029 C 280.585 -3.48833 -0.885633 0
M  V30 3030 C 280.193 -4.47237 0.261343 0
M  V30 3031 C 281.937 -3.97194 -1.49791 0
M  V30 3032 C 279.844 -5.9114 -0.175214 0
M  V30 3033 H 278.774 -0.732455 -0.178958 0
M  V30 3034 H 281.425 -1.81591 0.263997 0
M  V30 3035 H 279.807 -3.58848 -1.67464 0
M  V30 3036 H 280.981 -4.4894 1.03871 0
M  V30 3037 H 279.296 -4.08956 0.783827 0
M  V30 3038 H 281.893 -5.02167 -1.83665 0
M  V30 3039 H 282.236 -3.40351 -2.39722 0
M  V30 3040 H 282.769 -3.90212 -0.773267 0
M  V30 3041 H 279.508 -6.51865 0.689414 0
M  V30 3042 H 279.028 -5.92735 -0.91786 0
M  V30 3043 H 280.707 -6.44044 -0.617792 0
M  V30 3044 N 280.839 0.0985539 -1.57292 0
M  V30 3045 C 281.787 1.1387 -2.02821 0
M  V30 3046 C 282.781 1.41676 -0.928666 0
M  V30 3047 O 283.987 1.41398 -1.11385 0
M  V30 3048 H 280.362 0.384419 -0.646317 0
M  V30 3049 H 282.333 0.728347 -2.89375 0
M  V30 3050 C 281.082 2.45166 -2.46554 0
M  V30 3051 H 280.405 2.24613 -3.3074 0
M  V30 3052 H 281.845 3.16456 -2.8219 0
M  V30 3053 C 280.304 3.09216 -1.33742 0
M  V30 3054 O 280.834 3.96163 -0.66464 0
M  V30 3055 N 279.04 2.69413 -1.08928 0
M  V30 3056 H 278.587 1.98801 -1.63817 0
M  V30 3057 H 278.545 3.12594 -0.336458 0
M  V30 3058 N 282.317 1.53212 0.369288 0
M  V30 3059 C 283.28 1.7872 1.43498 0
M  V30 3060 C 284.28 0.657554 1.46741 0
M  V30 3061 O 285.47 0.925736 1.47566 0
M  V30 3062 C 282.602 1.90591 2.82645 0
M  V30 3063 H 283.795 2.73894 1.22156 0
M  V30 3064 H 281.348 1.44233 0.602203 0
M  V30 3065 H 282.083 0.974709 3.09306 0
M  V30 3066 H 281.868 2.72751 2.8169 0
M  V30 3067 H 283.358 2.11931 3.59826 0
M  V30 3068 N 283.795 -0.628877 1.44509 0
M  V30 3069 C 285.02 -1.42048 1.5112 0
M  V30 3070 C 285.445 -1.87594 0.137818 0
M  V30 3071 O 284.803 -1.58873 -0.873437 0
M  V30 3072 C 284.851 -2.61541 2.48251 0
M  V30 3073 O 283.955 -3.61453 1.98559 0
M  V30 3074 H 283.296 -0.424942 0.510216 0
M  V30 3075 H 285.826 -0.767374 1.89664 0
M  V30 3076 H 285.836 -3.09057 2.66361 0
M  V30 3077 H 284.511 -2.27736 3.48007 0
M  V30 3078 H 283.088 -3.20731 1.90227 0
M  V30 3079 N 285.273 -1.31445 -0.869486 0
M  V30 3080 C 286.503 -1.23942 -1.65294 0
M  V30 3081 C 286.911 0.197561 -1.88166 0
M  V30 3082 O 286.254 1.14019 -1.44033 0
M  V30 3083 C 286.316 -1.91385 -3.04322 0
M  V30 3084 C 285.98 -3.40726 -3.04557 0
M  V30 3085 C 286.977 -4.36464 -2.82481 0
M  V30 3086 C 284.662 -3.82425 -3.25663 0
M  V30 3087 C 286.656 -5.71876 -2.8149 0
M  V30 3088 C 284.343 -5.1795 -3.243 0
M  V30 3089 C 285.341 -6.12486 -3.02241 0
M  V30 3090 O 285.029 -7.45534 -3.00724 0
M  V30 3091 H 284.761 -0.429459 -0.522054 0
M  V30 3092 H 287.315 -1.73873 -1.0935 0
M  V30 3093 H 285.545 -1.36004 -3.61994 0
M  V30 3094 H 287.234 -1.77791 -3.64891 0
M  V30 3095 H 288 -4.05576 -2.65956 0
M  V30 3096 H 283.879 -3.09274 -3.41863 0
M  V30 3097 H 287.423 -6.45638 -2.64191 0
M  V30 3098 H 283.32 -5.48473 -3.40365 0
M  V30 3099 H 284.088 -7.54713 -3.16782 0
M  V30 3100 N 286.751 1.08385 -1.14413 0
M  V30 3101 C 288 1.80153 -0.907076 0
M  V30 3102 C 288.313 1.87176 0.567851 0
M  V30 3103 O 289.519 2.55359 0.922172 0
M  V30 3104 C 287.975 3.23687 -1.57336 0
M  V30 3105 C 287.583 3.24897 -3.08457 0
M  V30 3106 C 289.327 4.00136 -1.41744 0
M  V30 3107 C 287.234 4.6302 -3.67921 0
M  V30 3108 H 286.164 0.675139 -0.335714 0
M  V30 3109 H 288.815 1.21733 -1.37307 0
M  V30 3110 H 287.197 3.82234 -1.03505 0
M  V30 3111 H 288.371 2.76055 -3.68958 0
M  V30 3112 H 286.686 2.61943 -3.2369 0
M  V30 3113 H 289.283 5.02201 -1.83572 0
M  V30 3114 H 289.626 4.14709 -0.363576 0
M  V30 3115 H 290.159 3.48058 -1.92614 0
M  V30 3116 H 286.898 4.5365 -4.73161 0
M  V30 3117 H 286.418 5.12143 -3.12201 0
M  V30 3118 H 288.097 5.31994 -3.68227 0
M  V30 3119 N 288.23 0.939286 1.26551 0
M  V30 3120 C 289.507 0.5038 1.89001 0
M  V30 3121 C 289.887 -1.01854 1.84903 0
M  V30 3122 O 289.235 -1.87773 1.30206 0
M  V30 3123 C 289.445 1.063 3.32417 0
M  V30 3124 C 290.793 1.13051 4.09273 0
M  V30 3125 O 291.817 1.01345 3.41479 0
M  V30 3126 O 290.676 1.31233 5.30509 0
M  V30 3127 H 287.77 0.163897 0.810597 0
M  V30 3128 H 290.316 1.03173 1.34735 0
M  V30 3129 H 289.088 2.10665 3.29752 0
M  V30 3130 H 288.711 0.517408 3.94219 0
M  V30 3131 N 289.708 -1.40897 0.706093 0
M  V30 3132 C 290.956 -2.00657 0.241054 0
M  V30 3133 C 291.277 -1.56241 -1.16678 0
M  V30 3134 O 290.547 -0.79765 -1.78926 0
M  V30 3135 H 289.127 -0.742018 0.0861308 0
M  V30 3136 H 291.789 -1.72372 0.909604 0
M  V30 3137 H 290.885 -3.10958 0.266705 0
M  V30 3138 N 291.186 -0.45159 -1.50991 0
M  V30 3139 C 292.416 0.108177 -2.06317 0
M  V30 3140 C 292.824 1.35774 -1.31765 0
M  V30 3141 O 292.167 1.79838 -0.374694 0
M  V30 3142 C 292.229 0.481659 -3.56259 0
M  V30 3143 C 291.893 -0.663114 -4.52163 0
M  V30 3144 C 292.89 -1.53947 -4.96585 0
M  V30 3145 C 290.575 -0.8479 -4.95092 0
M  V30 3146 C 292.569 -2.58518 -5.82621 0
M  V30 3147 C 290.256 -1.89686 -5.80915 0
M  V30 3148 C 291.254 -2.76388 -6.24579 0
M  V30 3149 O 290.942 -3.79482 -7.08695 0
M  V30 3150 H 290.674 0.00499183 -0.675982 0
M  V30 3151 H 293.228 -0.633659 -1.95381 0
M  V30 3152 H 291.458 1.27641 -3.65027 0
M  V30 3153 H 293.147 0.974233 -3.94035 0
M  V30 3154 H 293.913 -1.4083 -4.64103 0
M  V30 3155 H 289.792 -0.18258 -4.60638 0
M  V30 3156 H 293.336 -3.26224 -6.16623 0
M  V30 3157 H 289.233 -2.02817 -6.12809 0
M  V30 3158 H 290.001 -3.76234 -7.26905 0
M  V30 3159 N 292.664 1.56529 -0.183458 0
M  V30 3160 C 293.611 2.18546 0.742055 0
M  V30 3161 C 294.581 1.12912 1.2182 0
M  V30 3162 O 295.766 1.41115 1.28418 0
M  V30 3163 C 292.906 2.83977 1.96089 0
M  V30 3164 C 292.019 4.04105 1.52719 0
M  V30 3165 C 291.154 4.57427 2.70063 0
M  V30 3166 C 290.193 5.69938 2.23243 0
M  V30 3167 N 289.33 6.17717 3.33722 0
M  V30 3168 H 294.17 2.97284 0.206432 0
M  V30 3169 H 291.707 1.46823 0.0901571 0
M  V30 3170 H 293.665 3.20077 2.67594 0
M  V30 3171 H 292.295 2.07822 2.47002 0
M  V30 3172 H 291.347 3.73745 0.708436 0
M  V30 3173 H 292.659 4.85513 1.1436 0
M  V30 3174 H 291.813 4.95772 3.49708 0
M  V30 3175 H 290.552 3.75101 3.11689 0
M  V30 3176 H 289.557 5.31133 1.42048 0
M  V30 3177 H 290.782 6.54073 1.82661 0
M  V30 3178 H 288.728 5.38317 3.74902 0
M  V30 3179 H 288.645 6.94146 2.99495 0
M  V30 3180 H 289.913 6.60713 4.13616 0
M  V30 3181 N 294.142 -0.090211 1.57342 0
M  V30 3182 C 295.052 -1.12735 2.05738 0
M  V30 3183 C 296.068 -1.43557 0.983231 0
M  V30 3184 O 297.244 -1.54101 1.29672 0
M  V30 3185 C 294.309 -2.42659 2.47624 0
M  V30 3186 C 293.37 -2.18975 3.69254 0
M  V30 3187 C 292.603 -3.42704 4.09133 0
M  V30 3188 O 292.826 -4.51127 3.49057 0
M  V30 3189 O 291.76 -3.32003 5.02053 0
M  V30 3190 H 295.586 -0.746279 2.94388 0
M  V30 3191 H 293.171 -0.303064 1.46294 0
M  V30 3192 H 295.053 -3.19155 2.7517 0
M  V30 3193 H 293.728 -2.80182 1.62109 0
M  V30 3194 H 292.635 -1.40244 3.46818 0
M  V30 3195 H 293.968 -1.86342 4.55563 0
M  V30 3196 N 295.62 -1.53406 -0.361157 0
M  V30 3197 C 296.567 -1.80156 -1.44265 0
M  V30 3198 C 297.537 -0.646183 -1.53015 0
M  V30 3199 O 298.722 -0.888818 -1.68833 0
M  V30 3200 C 295.862 -2.00116 -2.81154 0
M  V30 3201 C 294.975 -3.27833 -2.81335 0
M  V30 3202 C 294.11 -3.37957 -4.09828 0
M  V30 3203 C 293.149 -4.59689 -4.04168 0
M  V30 3204 N 292.286 -4.66942 -5.24318 0
M  V30 3205 H 297.126 -2.72438 -1.20754 0
M  V30 3206 H 294.663 -1.34954 -0.585296 0
M  V30 3207 H 296.621 -2.09677 -3.60682 0
M  V30 3208 H 295.251 -1.11167 -3.03054 0
M  V30 3209 H 294.303 -3.27204 -1.94014 0
M  V30 3210 H 295.615 -4.17442 -2.73027 0
M  V30 3211 H 294.769 -3.46853 -4.97773 0
M  V30 3212 H 293.508 -2.46372 -4.20894 0
M  V30 3213 H 292.513 -4.50889 -3.14609 0
M  V30 3214 H 293.738 -5.5262 -3.947 0
M  V30 3215 H 291.684 -3.7826 -5.35962 0
M  V30 3216 H 291.601 -5.50462 -5.18197 0
M  V30 3217 H 292.869 -4.80127 -6.14084 0
M  V30 3218 N 297.098 0.621204 -1.44841 0
M  V30 3219 C 298.046 1.75385 -1.52784 0
M  V30 3220 C 299.04 1.64639 -0.398779 0
M  V30 3221 O 300.246 1.70598 -0.574137 0
M  V30 3222 H 296.621 0.579193 -0.479625 0
M  V30 3223 H 298.592 1.6581 -2.48092 0
M  V30 3224 C 297.341 3.13742 -1.4987 0
M  V30 3225 H 296.664 3.22663 -2.36069 0
M  V30 3226 H 298.104 3.92861 -1.59487 0
M  V30 3227 C 296.563 3.36175 -0.220973 0
M  V30 3228 O 297.093 3.95469 0.704782 0
M  V30 3229 N 295.299 2.90348 -0.120963 0
M  V30 3230 H 294.846 2.42278 -0.875162 0
M  V30 3231 H 294.804 3.05732 0.733168 0
M  V30 3232 N 298.576 1.31904 0.862503 0
M  V30 3233 C 299.523 1.20182 1.9704 0
M  V30 3234 C 300.493 0.0858247 1.65878 0
M  V30 3235 O 301.678 0.26 1.8902 0
M  V30 3236 C 298.818 0.922797 3.32533 0
M  V30 3237 C 297.931 2.12284 3.76244 0
M  V30 3238 C 297.066 1.77996 5.00491 0
M  V30 3239 C 296.105 2.94366 5.36671 0
M  V30 3240 N 295.242 2.60223 6.52095 0
M  V30 3241 H 300.082 2.14951 2.06398 0
M  V30 3242 H 297.619 1.06917 1.01031 0
M  V30 3243 H 299.577 0.741548 4.10557 0
M  V30 3244 H 298.207 0.0119227 3.22798 0
M  V30 3245 H 297.259 2.41461 2.9394 0
M  V30 3246 H 298.571 2.99357 3.98982 0
M  V30 3247 H 297.725 1.56377 5.862 0
M  V30 3248 H 296.464 0.881252 4.79672 0
M  V30 3249 H 295.469 3.16625 4.49476 0
M  V30 3250 H 296.694 3.84957 5.59451 0
M  V30 3251 H 294.64 1.72884 6.32809 0
M  V30 3252 H 294.557 3.40827 6.74814 0
M  V30 3253 H 295.825 2.42016 7.40978 0
M  V30 3254 N 300.054 -1.07777 1.14986 0
M  V30 3255 C 301.301 -1.8029 0.922056 0
M  V30 3256 C 301.629 -1.86531 -0.55105 0
M  V30 3257 O 300.884 -1.34189 -1.42449 0
M  V30 3258 C 301.183 -3.25495 1.47608 0
M  V30 3259 C 300.849 -3.39361 2.96893 0
M  V30 3260 C 299.511 -3.42852 3.37647 0
M  V30 3261 C 301.863 -3.42512 3.92854 0
M  V30 3262 C 299.191 -3.47094 4.73015 0
M  V30 3263 C 301.543 -3.4829 5.28088 0
M  V30 3264 C 300.207 -3.50058 5.68345 0
M  V30 3265 H 299.477 -0.659727 0.337404 0
M  V30 3266 H 302.124 -1.26854 1.43459 0
M  V30 3267 H 300.429 -3.81683 0.88463 0
M  V30 3268 H 302.126 -3.80168 1.27568 0
M  V30 3269 H 298.716 -3.37339 2.64387 0
M  V30 3270 H 302.9 -3.3904 3.62444 0
M  V30 3271 H 298.156 -3.46758 5.03556 0
M  V30 3272 H 302.33 -3.49675 6.02246 0
M  V30 3273 H 299.957 -3.53097 6.73221 0
M  V30 3274 N 301.532 -0.945985 -1.26051 0
M  V30 3275 C 302.781 -0.591836 -1.92822 0
M  V30 3276 C 303.094 0.873956 -1.7499 0
M  V30 3277 O 304.3 1.33769 -2.36259 0
M  V30 3278 C 302.756 -1.00776 -3.45503 0
M  V30 3279 C 302.364 -2.4955 -3.7206 0
M  V30 3280 C 304.108 -0.725735 -4.1825 0
M  V30 3281 C 302.015 -2.84988 -5.18205 0
M  V30 3282 H 300.945 -0.217635 -0.721908 0
M  V30 3283 H 303.596 -1.14927 -1.43052 0
M  V30 3284 H 301.978 -0.378812 -3.94184 0
M  V30 3285 H 303.152 -3.1739 -3.34066 0
M  V30 3286 H 301.467 -2.75133 -3.12555 0
M  V30 3287 H 304.064 -0.966771 -5.25887 0
M  V30 3288 H 304.407 0.337639 -4.14929 0
M  V30 3289 H 304.94 -1.31463 -3.7545 0
M  V30 3290 H 301.679 -3.90307 -5.26631 0
M  V30 3291 H 301.199 -2.21813 -5.57278 0
M  V30 3292 H 302.878 -2.73712 -5.86252 0
M  V30 3293 N 303.011 1.40521 -0.713556 0
M  V30 3294 C 303.974 2.29098 -0.0684347 0
M  V30 3295 C 304.974 1.45268 0.689472 0
M  V30 3296 O 306.164 1.66205 0.521677 0
M  V30 3297 C 303.296 3.28446 0.913024 0
M  V30 3298 H 304.489 2.87645 -0.84855 0
M  V30 3299 H 302.042 1.48809 -0.47809 0
M  V30 3300 H 302.777 2.74913 1.72027 0
M  V30 3301 H 302.562 3.90327 0.372472 0
M  V30 3302 H 304.052 3.94777 1.36165 0
M  V30 3303 N 304.489 0.459591 1.5075 0
M  V30 3304 C 305.452 -0.329093 2.26825 0
M  V30 3305 C 306.452 -0.930481 1.31144 0
M  V30 3306 O 307.642 -0.801453 1.54669 0
M  V30 3307 C 304.774 -1.46768 3.07688 0
M  V30 3308 H 305.967 0.337924 2.9799 0
M  V30 3309 H 303.52 0.213336 1.54837 0
M  V30 3310 H 304.255 -2.17009 2.40993 0
M  V30 3311 H 304.04 -1.04238 3.77991 0
M  V30 3312 H 305.53 -2.02433 3.65254 0
M  V30 3313 N 305.967 -1.56429 0.191757 0
M  V30 3314 C 306.899 -2.16154 -0.762245 0
M  V30 3315 C 307.912 -1.12247 -1.17917 0
M  V30 3316 O 309.101 -1.39353 -1.11548 0
M  V30 3317 C 306.201 -2.70606 -2.04024 0
M  V30 3318 C 305.374 -3.99381 -1.78364 0
M  V30 3319 C 304.433 -4.38692 -2.90578 0
M  V30 3320 O 303.459 -5.06179 -2.6033 0
M  V30 3321 N 304.661 -4.01922 -4.18854 0
M  V30 3322 H 307.426 -2.98643 -0.251526 0
M  V30 3323 H 304.987 -1.61897 0.00967373 0
M  V30 3324 H 306.979 -2.93891 -2.78227 0
M  V30 3325 H 305.549 -1.9259 -2.46227 0
M  V30 3326 H 304.769 -3.84262 -0.879581 0
M  V30 3327 H 306.057 -4.83445 -1.58614 0
M  V30 3328 H 305.455 -3.47631 -4.46283 0
M  V30 3329 H 304.012 -4.30165 -4.89695 0
M  V30 3330 N 307.445 0.0818655 -1.57387 0
M  V30 3331 C 308.693 0.781368 -1.86384 0
M  V30 3332 C 309.014 1.78618 -0.782342 0
M  V30 3333 O 308.284 1.94976 0.190061 0
M  V30 3334 H 306.864 0.291562 -0.687751 0
M  V30 3335 H 309.526 0.060348 -1.94807 0
M  V30 3336 H 308.622 1.3038 -2.83562 0
M  V30 3337 N 308.923 1.53595 0.353017 0
M  V30 3338 C 310.334 1.61937 0.929153 0
M  V30 3339 C 310.685 0.494686 1.89861 0
M  V30 3340 O 309.81 -0.377017 2.1309 0
M  V30 3341 C 310.405 2.93526 1.69199 0
M  V30 3342 C 308.964 3.04161 2.21727 0
M  V30 3343 C 308.111 2.57322 1.03348 0
M  V30 3344 H 311.062 1.58155 0.131431 0
M  V30 3345 H 311.083 2.82034 2.55416 0
M  V30 3346 H 310.595 3.75362 0.986144 0
M  V30 3347 H 308.696 2.26938 2.95516 0
M  V30 3348 H 308.809 4.09465 2.48748 0
M  V30 3349 H 307.173 2.12499 1.40414 0
M  V30 3350 H 307.956 3.41588 0.342428 0
M  V30 3351 N 310.401 -0.613514 1.45168 0
M  V30 3352 C 311.348 -1.72456 1.53387 0
M  V30 3353 C 312.318 -1.6169 0.380191 0
M  V30 3354 O 313.503 -1.81356 0.592836 0
M  V30 3355 C 310.643 -3.10753 1.50088 0
M  V30 3356 C 309.756 -3.32368 2.75963 0
M  V30 3357 C 308.891 -4.60737 2.64376 0
M  V30 3358 C 307.93 -4.7559 3.85332 0
M  V30 3359 N 307.067 -5.95253 3.72315 0
M  V30 3360 H 311.907 -1.64768 2.48305 0
M  V30 3361 H 309.444 -0.803503 1.23216 0
M  V30 3362 H 311.402 -3.90758 1.46164 0
M  V30 3363 H 310.032 -3.17413 0.587243 0
M  V30 3364 H 309.084 -2.4618 2.89999 0
M  V30 3365 H 310.396 -3.39218 3.65695 0
M  V30 3366 H 309.55 -5.48928 2.58385 0
M  V30 3367 H 308.289 -4.56275 1.72233 0
M  V30 3368 H 307.294 -3.85824 3.91688 0
M  V30 3369 H 308.519 -4.81854 4.78533 0
M  V30 3370 H 306.465 -5.91847 2.82937 0
M  V30 3371 H 306.382 -6.03236 4.55677 0
M  V30 3372 H 307.65 -6.85958 3.70246 0
M  V30 3373 N 311.879 -1.3236 -0.855495 0
M  V30 3374 C 312.811 -1.17052 -1.97057 0
M  V30 3375 C 313.824 -0.10574 -1.62456 0
M  V30 3376 O 315.013 -0.354619 -1.74942 0
M  V30 3377 C 312.113 -0.769305 -3.30053 0
M  V30 3378 C 311.286 -1.9222 -3.929 0
M  V30 3379 C 310.345 -1.50466 -5.04228 0
M  V30 3380 O 309.371 -2.21655 -5.24269 0
M  V30 3381 N 310.573 -0.400209 -5.79119 0
M  V30 3382 H 313.338 -2.13103 -2.1073 0
M  V30 3383 H 310.899 -1.24885 -1.0303 0
M  V30 3384 H 312.891 -0.472407 -4.01933 0
M  V30 3385 H 311.461 0.100025 -3.1244 0
M  V30 3386 H 310.681 -2.38563 -3.13817 0
M  V30 3387 H 311.969 -2.69403 -4.31624 0
M  V30 3388 H 311.367 0.192319 -5.65373 0
M  V30 3389 H 309.924 -0.162912 -6.51596 0
M  V30 3390 N 313.357 1.07166 -1.15556 0
M  V30 3391 C 314.267 2.17947 -0.868116 0
M  V30 3392 C 315.283 1.73297 0.156297 0
M  V30 3393 O 316.459 2.01392 -0.0182327 0
M  V30 3394 C 313.524 3.44789 -0.36355 0
M  V30 3395 C 312.585 4.03996 -1.45209 0
M  V30 3396 C 311.818 5.24783 -0.971508 0
M  V30 3397 O 312.041 5.70109 0.182194 0
M  V30 3398 O 310.975 5.75715 -1.75603 0
M  V30 3399 H 314.801 2.4503 -1.79427 0
M  V30 3400 H 312.386 1.16539 -0.934824 0
M  V30 3401 H 314.268 4.21307 -0.0887113 0
M  V30 3402 H 312.943 3.19253 0.534708 0
M  V30 3403 H 311.85 3.29009 -1.78056 0
M  V30 3404 H 313.183 4.33808 -2.32533 0
M  V30 3405 N 314.835 0.952656 1.25548 0
M  V30 3406 C 316.063 0.623496 1.97282 0
M  V30 3407 C 316.478 -0.803987 1.70826 0
M  V30 3408 O 315.835 -1.53755 0.983147 0
M  V30 3409 C 315.886 0.870209 3.5087 0
M  V30 3410 O 315.607 2.24156 3.76412 0
M  V30 3411 C 317.108 0.553164 4.39835 0
M  V30 3412 H 314.328 0.233931 0.628902 0
M  V30 3413 H 316.872 1.27649 1.59768 0
M  V30 3414 H 315.027 0.263652 3.86502 0
M  V30 3415 H 315.441 2.31021 4.70882 0
M  V30 3416 H 316.915 0.776342 5.46513 0
M  V30 3417 H 317.392 -0.512215 4.36203 0
M  V30 3418 H 317.998 1.13896 4.09766 0
M  V30 3419 N 316.313 -1.40141 0.720998 0
M  V30 3420 C 317.559 -2.01084 0.263231 0
M  V30 3421 C 317.892 -1.57052 -1.14229 0
M  V30 3422 O 317.167 -0.793027 -1.77599 0
M  V30 3423 C 317.45 -3.58401 0.349344 0
M  V30 3424 C 317.303 -4.12491 1.79363 0
M  V30 3425 C 318.622 -4.39231 -0.276351 0
M  V30 3426 H 315.741 -0.730572 0.0971228 0
M  V30 3427 H 318.383 -1.66543 0.914518 0
M  V30 3428 H 316.533 -3.87958 -0.205165 0
M  V30 3429 H 318.205 -3.93711 2.40394 0
M  V30 3430 H 316.448 -3.66576 2.31958 0
M  V30 3431 H 317.119 -5.21646 1.80524 0
M  V30 3432 H 319.595 -4.15637 0.196184 0
M  V30 3433 H 318.471 -5.48586 -0.185681 0
M  V30 3434 H 318.732 -4.20643 -1.36059 0
M  V30 3435 N 317.792 -0.46758 -1.50504 0
M  V30 3436 C 318.74 0.342482 -2.30065 0
M  V30 3437 C 319.734 0.993596 -1.37201 0
M  V30 3438 O 320.94 0.925102 -1.54408 0
M  V30 3439 H 317.315 0.129283 -0.740803 0
M  V30 3440 H 319.286 -0.34899 -2.96352 0
M  V30 3441 C 318.035 1.4139 -3.17654 0
M  V30 3442 H 317.358 0.922264 -3.89017 0
M  V30 3443 H 318.798 1.95335 -3.76325 0
M  V30 3444 C 317.257 2.4139 -2.35016 0
M  V30 3445 O 317.787 3.46586 -2.03079 0
M  V30 3446 N 315.993 2.13021 -1.97662 0
M  V30 3447 H 315.54 1.27499 -2.23834 0
M  V30 3448 H 315.498 2.80164 -1.42673 0
M  V30 3449 N 319.27 1.56325 -0.20005 0
M  V30 3450 C 320.547 1.89484 0.48529 0
M  V30 3451 C 320.927 1.1143 1.79294 0
M  V30 3452 O 320.275 0.216919 2.27468 0
M  V30 3453 C 320.485 3.41923 0.699243 0
M  V30 3454 C 321.833 4.12256 1.01638 0
M  V30 3455 O 322.857 3.47402 0.786792 0
M  V30 3456 O 321.716 5.26887 1.45095 0
M  V30 3457 H 318.81 0.787144 0.253639 0
M  V30 3458 H 321.356 1.67985 -0.240633 0
M  V30 3459 H 320.128 3.90658 -0.224008 0
M  V30 3460 H 319.751 3.69131 1.47744 0
M  V30 3461 N 320.748 -0.0735177 1.57428 0
M  V30 3462 C 321.995 -0.772999 1.87166 0
M  V30 3463 C 322.323 -1.77665 0.791551 0
M  V30 3464 O 321.578 -1.94541 -0.212636 0
M  V30 3465 C 321.877 -1.51799 3.23561 0
M  V30 3466 C 321.543 -0.654484 4.46125 0
M  V30 3467 C 320.205 -0.416511 4.79394 0
M  V30 3468 C 322.557 -0.0555862 5.2117 0
M  V30 3469 C 319.885 0.429869 5.85123 0
M  V30 3470 C 322.237 0.778239 6.27795 0
M  V30 3471 C 320.901 1.0261 6.59566 0
M  V30 3472 H 320.171 -0.282861 0.684888 0
M  V30 3473 H 322.818 -0.0338272 1.9147 0
M  V30 3474 H 321.123 -2.32932 3.1504 0
M  V30 3475 H 322.82 -2.06397 3.43804 0
M  V30 3476 H 319.41 -0.850091 4.20085 0
M  V30 3477 H 323.594 -0.226558 4.95783 0
M  V30 3478 H 318.85 0.630665 6.08139 0
M  V30 3479 H 323.024 1.24906 6.85107 0
M  V30 3480 H 320.651 1.68371 7.4132 0
M  V30 3481 N 322.226 -1.5378 -0.344866 0
M  V30 3482 C 323.472 -1.72158 -1.0832 0
M  V30 3483 C 323.827 -0.478218 -1.86362 0
M  V30 3484 O 323.12 0.529152 -1.84148 0
M  V30 3485 C 323.314 -2.92407 -2.05506 0
M  V30 3486 C 323.143 -4.28318 -1.37017 0
M  V30 3487 C 321.913 -4.92832 -1.11558 0
M  V30 3488 C 324.111 -5.08086 -0.797071 0
M  V30 3489 N 322.093 -6.12619 -0.396358 0
M  V30 3490 C 323.464 -6.1965 -0.208336 0
M  V30 3491 C 325.519 -4.92986 -0.697787 0
M  V30 3492 C 324.222 -7.17763 0.470023 0
M  V30 3493 C 326.248 -5.91391 -0.033171 0
M  V30 3494 C 325.61 -7.02292 0.544599 0
M  V30 3495 H 321.709 -0.683017 -0.380805 0
M  V30 3496 H 324.293 -1.91211 -0.366961 0
M  V30 3497 H 322.464 -2.74857 -2.74423 0
M  V30 3498 H 324.196 -2.9951 -2.72169 0
M  V30 3499 H 320.951 -4.52362 -1.40234 0
M  V30 3500 H 321.375 -6.7698 -0.0515119 0
M  V30 3501 H 326.017 -4.07414 -1.13022 0
M  V30 3502 H 323.735 -8.0291 0.914351 0
M  V30 3503 H 327.321 -5.81784 0.0430009 0
M  V30 3504 H 326.201 -7.77129 1.05073 0
M  V30 3505 N 323.704 0.605807 -1.45491 0
M  V30 3506 C 325.12 0.926751 -1.29936 0
M  V30 3507 C 325.32 1.99896 -0.253706 0
M  V30 3508 O 324.376 2.50038 0.351737 0
M  V30 3509 C 325.689 1.36599 -2.67883 0
M  V30 3510 C 327.237 1.4801 -2.75793 0
M  V30 3511 C 327.712 1.95309 -4.14268 0
M  V30 3512 N 329.203 2.0254 -4.16571 0
M  V30 3513 C 329.938 2.40363 -5.20589 0
M  V30 3514 N 329.434 2.77143 -6.34952 0
M  V30 3515 N 331.227 2.40718 -5.07948 0
M  V30 3516 H 323.378 -0.102862 -2.12151 0
M  V30 3517 H 325.641 0.016639 -0.947854 0
M  V30 3518 H 325.347 0.652306 -3.45598 0
M  V30 3519 H 325.221 2.33215 -2.96463 0
M  V30 3520 H 327.608 2.1847 -1.98381 0
M  V30 3521 H 327.689 0.497041 -2.50925 0
M  V30 3522 H 327.333 1.25436 -4.92167 0
M  V30 3523 H 327.263 2.94532 -4.3653 0
M  V30 3524 H 329.754 1.76699 -3.34045 0
M  V30 3525 H 330.067 3.0489 -7.10114 0
M  V30 3526 H 328.412 2.74834 -6.3835 0
M  V30 3527 H 331.603 2.11392 -4.1765 0
M  V30 3528 H 331.776 2.69869 -5.89131 0
M  V30 3529 N 325.182 1.32811 0.848464 0
M  V30 3530 C 326.115 1.16601 1.96162 0
M  V30 3531 C 327.093 0.0638855 1.62474 0
M  V30 3532 O 328.277 0.224348 1.8716 0
M  V30 3533 C 325.404 0.786333 3.29446 0
M  V30 3534 C 324.45 1.89459 3.8211 0
M  V30 3535 S 325.283 3.50395 4.04949 0
M  V30 3536 C 326.439 3.14413 5.41198 0
M  V30 3537 H 326.672 2.10832 2.09612 0
M  V30 3538 H 324.205 1.17543 1.00115 0
M  V30 3539 H 326.163 0.574044 4.06466 0
M  V30 3540 H 324.824 -0.137218 3.138 0
M  V30 3541 H 324.017 1.58207 4.78526 0
M  V30 3542 H 323.619 2.06304 3.11953 0
M  V30 3543 H 325.911 2.64642 6.23675 0
M  V30 3544 H 326.854 4.09874 5.77416 0
M  V30 3545 H 327.262 2.51266 5.05495 0
M  V30 3546 N 326.66 -1.06551 1.16123 0
M  V30 3547 C 327.906 -1.79567 0.94252 0
M  V30 3548 C 328.239 -1.86869 -0.528547 0
M  V30 3549 O 327.514 -1.35838 -1.39206 0
M  V30 3550 C 327.797 -3.24195 1.56747 0
M  V30 3551 C 327.65 -3.24989 3.10969 0
M  V30 3552 C 328.969 -4.21678 1.25998 0
M  V30 3553 H 326.088 -0.651883 0.343828 0
M  V30 3554 H 328.73 -1.2463 1.43413 0
M  V30 3555 H 326.88 -3.71107 1.14942 0
M  V30 3556 H 328.552 -2.86258 3.61737 0
M  V30 3557 H 326.795 -2.63716 3.44436 0
M  V30 3558 H 327.466 -4.27005 3.49815 0
M  V30 3559 H 329.942 -3.83196 1.62174 0
M  V30 3560 H 328.818 -5.21146 1.7233 0
M  V30 3561 H 329.079 -4.4174 0.178367 0
M  V30 3562 N 328.138 -0.959301 -1.25041 0
M  V30 3563 C 329.384 -0.627096 -1.93492 0
M  V30 3564 C 329.739 0.827484 -1.73696 0
M  V30 3565 O 329.032 1.58651 -1.07427 0
M  V30 3566 C 329.226 -0.927136 -3.45165 0
M  V30 3567 C 329.055 -2.40933 -3.79712 0
M  V30 3568 C 327.825 -3.0677 -4.01522 0
M  V30 3569 C 330.023 -3.38894 -3.86853 0
M  V30 3570 N 328.005 -4.44815 -4.231 0
M  V30 3571 C 329.376 -4.62263 -4.13174 0
M  V30 3572 C 331.431 -3.33668 -3.69554 0
M  V30 3573 C 330.134 -5.81052 -4.23995 0
M  V30 3574 C 332.16 -4.518 -3.81616 0
M  V30 3575 C 331.522 -5.73957 -4.08354 0
M  V30 3576 H 327.621 -0.280166 -0.73009 0
M  V30 3577 H 330.205 -1.23244 -1.50729 0
M  V30 3578 H 328.376 -0.350685 -3.86814 0
M  V30 3579 H 330.108 -0.554361 -4.00885 0
M  V30 3580 H 326.863 -2.57327 -3.97593 0
M  V30 3581 H 327.287 -5.16319 -4.37885 0
M  V30 3582 H 331.929 -2.40268 -3.47895 0
M  V30 3583 H 329.647 -6.74888 -4.44468 0
M  V30 3584 H 333.233 -4.49309 -3.69612 0
M  V30 3585 H 332.113 -6.6384 -4.17475 0
M  V30 3586 N 329.616 1.39756 -0.72842 0
M  V30 3587 C 330.526 2.34444 -0.0855374 0
M  V30 3588 C 331.542 1.57976 0.729356 0
M  V30 3589 O 332.718 1.90301 0.659346 0
M  V30 3590 C 329.783 3.36965 0.815798 0
M  V30 3591 C 328.844 4.29299 -0.0105996 0
M  V30 3592 C 328.077 5.26923 0.84781 0
M  V30 3593 O 328.3 5.30859 2.08673 0
M  V30 3594 O 327.234 6.01249 0.279969 0
M  V30 3595 H 331.06 2.91065 -0.866892 0
M  V30 3596 H 328.645 1.4117 -0.48902 0
M  V30 3597 H 330.527 3.99804 1.33171 0
M  V30 3598 H 329.202 2.82739 1.57608 0
M  V30 3599 H 328.109 3.69703 -0.571877 0
M  V30 3600 H 329.442 4.86712 -0.73295 0
M  V30 3601 N 331.094 0.475555 1.50254 0
M  V30 3602 C 332.026 -0.352649 2.26471 0
M  V30 3603 C 333.039 -0.953165 1.3198 0
M  V30 3604 O 334.228 -0.840815 1.57457 0
M  V30 3605 C 331.328 -1.50902 3.0345 0
M  V30 3606 C 330.501 -1.02047 4.25329 0
M  V30 3607 C 329.56 -2.05142 4.84565 0
M  V30 3608 O 328.586 -1.63023 5.45355 0
M  V30 3609 N 329.788 -3.37987 4.71959 0
M  V30 3610 H 332.553 0.300767 2.98187 0
M  V30 3611 H 330.114 0.306598 1.5897 0
M  V30 3612 H 332.106 -2.19572 3.39956 0
M  V30 3613 H 330.676 -2.06705 2.34504 0
M  V30 3614 H 329.896 -0.159507 3.93877 0
M  V30 3615 H 331.184 -0.672061 5.04342 0
M  V30 3616 H 330.582 -3.74913 4.23623 0
M  V30 3617 H 329.139 -4.02443 5.12721 0
M  V30 3618 N 332.573 -1.56217 0.208337 0
M  V30 3619 C 333.52 -2.19699 -0.707192 0
M  V30 3620 C 334.49 -1.14836 -1.20008 0
M  V30 3621 O 335.675 -1.4314 -1.26157 0
M  V30 3622 C 332.815 -2.87061 -1.91546 0
M  V30 3623 C 331.928 -4.06483 -1.46271 0
M  V30 3624 C 331.063 -4.61665 -2.62752 0
M  V30 3625 C 330.102 -5.73417 -2.14147 0
M  V30 3626 N 329.239 -6.22948 -3.23853 0
M  V30 3627 H 334.079 -2.97575 -0.159111 0
M  V30 3628 H 331.616 -1.46948 -0.0667874 0
M  V30 3629 H 333.574 -3.24294 -2.62468 0
M  V30 3630 H 332.204 -2.11725 -2.43664 0
M  V30 3631 H 331.256 -3.74825 -0.648886 0
M  V30 3632 H 332.568 -4.87271 -1.06622 0
M  V30 3633 H 331.722 -5.01272 -3.41776 0
M  V30 3634 H 330.461 -3.80013 -3.05682 0
M  V30 3635 H 329.466 -5.33326 -1.33581 0
M  V30 3636 H 330.691 -6.56897 -1.72232 0
M  V30 3637 H 328.637 -5.44213 -3.6629 0
M  V30 3638 H 328.554 -6.98823 -2.88414 0
M  V30 3639 H 329.822 -6.6721 -4.03052 0
M  V30 3640 N 334.051 0.0651679 -1.57465 0
M  V30 3641 C 335.276 0.779605 -1.9219 0
M  V30 3642 C 335.701 1.69988 -0.805333 0
M  V30 3643 O 335.059 1.79685 0.241435 0
M  V30 3644 C 335.107 1.54364 -3.2589 0
M  V30 3645 O 334.211 2.65474 -3.1559 0
M  V30 3646 H 333.552 0.212249 -0.629163 0
M  V30 3647 H 336.082 0.0314294 -2.04576 0
M  V30 3648 H 336.092 1.92146 -3.59922 0
M  V30 3649 H 334.767 0.868457 -4.06732 0
M  V30 3650 H 333.344 2.30501 -2.93128 0
M  V30 3651 N 335.529 1.53961 0.336706 0
M  V30 3652 C 336.492 1.81724 1.39675 0
M  V30 3653 C 337.492 0.688532 1.45313 0
M  V30 3654 O 338.682 0.956829 1.45569 0
M  V30 3655 C 335.814 1.96543 2.78538 0
M  V30 3656 H 337.007 2.76424 1.16318 0
M  V30 3657 H 334.56 1.45478 0.571474 0
M  V30 3658 H 335.295 1.0401 3.07168 0
M  V30 3659 H 335.08 2.78665 2.75841 0
M  V30 3660 H 336.57 2.19516 3.5525 0
M  V30 3661 N 337.007 -0.598083 1.45811 0
M  V30 3662 C 338.235 -1.38322 1.53866 0
M  V30 3663 C 338.65 -1.87992 0.174479 0
M  V30 3664 O 338.007 -1.62756 -0.825627 0
M  V30 3665 C 338.058 -2.58125 2.53089 0
M  V30 3666 O 337.779 -2.10516 3.84206 0
M  V30 3667 C 339.28 -3.50869 2.70935 0
M  V30 3668 H 336.5 -0.423093 0.520801 0
M  V30 3669 H 339.044 -0.728527 1.91083 0
M  V30 3670 H 337.199 -3.19615 2.18917 0
M  V30 3671 H 337.613 -2.88425 4.38077 0
M  V30 3672 H 339.087 -4.31451 3.44317 0
M  V30 3673 H 339.564 -4.01822 1.77301 0
M  V30 3674 H 340.17 -2.95225 3.06141 0
M  V30 3675 N 338.485 -1.33259 -0.841409 0
M  V30 3676 C 339.734 -1.23921 -1.59143 0
M  V30 3677 C 340.047 0.1941 -1.94635 0
M  V30 3678 O 341.253 0.409474 -2.68394 0
M  V30 3679 C 339.709 -2.17119 -2.87032 0
M  V30 3680 C 339.317 -3.65606 -2.58914 0
M  V30 3681 C 341.061 -2.16648 -3.65053 0
M  V30 3682 C 338.968 -4.50726 -3.82884 0
M  V30 3683 H 337.898 -0.460264 -0.597221 0
M  V30 3684 H 340.549 -1.58307 -0.927959 0
M  V30 3685 H 338.931 -1.75663 -3.54906 0
M  V30 3686 H 340.105 -4.15487 -1.99267 0
M  V30 3687 H 338.42 -3.68341 -1.942 0
M  V30 3688 H 341.017 -2.77474 -4.57069 0
M  V30 3689 H 341.36 -1.16088 -3.99787 0
M  V30 3690 H 341.893 -2.56453 -3.041 0
M  V30 3691 H 338.632 -5.52151 -3.53283 0
M  V30 3692 H 338.152 -4.0559 -4.41879 0
M  V30 3693 H 339.831 -4.64401 -4.50489 0
M  V30 3694 N 339.963 1.05934 -1.16686 0
M  V30 3695 C 341.209 1.79065 -0.95203 0
M  V30 3696 C 341.542 1.87147 0.518629 0
M  V30 3697 O 340.817 1.36574 1.38484 0
M  V30 3698 C 341.1 3.23359 -1.58464 0
M  V30 3699 C 340.953 3.23336 -3.12689 0
M  V30 3700 C 342.272 4.21004 -1.28232 0
M  V30 3701 H 339.391 0.65005 -0.34728 0
M  V30 3702 H 342.033 1.23868 -1.44072 0
M  V30 3703 H 340.183 3.70493 -1.16908 0
M  V30 3704 H 341.855 2.84336 -3.6325 0
M  V30 3705 H 340.098 2.61886 -3.4583 0
M  V30 3706 H 340.769 4.25144 -3.52075 0
M  V30 3707 H 343.245 3.8233 -1.64203 0
M  V30 3708 H 342.121 5.20225 -1.75092 0
M  V30 3709 H 342.382 4.41639 -0.201791 0
M  V30 3710 N 341.441 0.965919 1.2453 0
M  V30 3711 C 342.374 0.4393 2.23932 0
M  V30 3712 C 343.352 -0.485615 1.55179 0
M  V30 3713 O 344.536 -0.417402 1.83821 0
M  V30 3714 C 341.663 -0.366042 3.36716 0
M  V30 3715 C 340.709 0.5009 4.23548 0
M  V30 3716 S 341.542 1.94002 4.99123 0
M  V30 3717 C 342.698 1.14342 6.15367 0
M  V30 3718 H 342.931 1.28167 2.68254 0
M  V30 3719 H 340.464 0.770819 1.33782 0
M  V30 3720 H 342.422 -0.824724 4.0213 0
M  V30 3721 H 341.083 -1.18337 2.90956 0
M  V30 3722 H 340.276 -0.117341 5.03863 0
M  V30 3723 H 339.878 0.89524 3.63127 0
M  V30 3724 H 342.17 0.397572 6.76332 0
M  V30 3725 H 343.113 1.92089 6.81548 0
M  V30 3726 H 343.521 0.668579 5.60527 0
M  V30 3727 N 342.919 -1.39368 0.735821 0
M  V30 3728 C 343.849 -2.33234 0.111506 0
M  V30 3729 C 344.83 -1.53954 -0.723334 0
M  V30 3730 O 346.015 -1.82344 -0.668147 0
M  V30 3731 C 343.145 -3.38057 -0.795917 0
M  V30 3732 C 342.099 -4.2795 -0.065172 0
M  V30 3733 C 341.425 -5.23479 -1.08967 0
M  V30 3734 C 342.725 -5.10741 1.09273 0
M  V30 3735 H 344.419 -2.85692 0.895571 0
M  V30 3736 H 341.965 -1.37364 0.432109 0
M  V30 3737 H 343.918 -4.02675 -1.24221 0
M  V30 3738 H 342.642 -2.8404 -1.61211 0
M  V30 3739 H 341.301 -3.64813 0.361511 0
M  V30 3740 H 340.949 -4.65758 -1.89944 0
M  V30 3741 H 340.649 -5.84472 -0.605489 0
M  V30 3742 H 342.173 -5.90974 -1.53565 0
M  V30 3743 H 343.587 -5.68699 0.724841 0
M  V30 3744 H 341.984 -5.8088 1.50659 0
M  V30 3745 H 343.054 -4.45525 1.91404 0
M  V30 3746 N 344.397 -0.483516 -1.5 0
M  V30 3747 C 345.625 0.0644831 -2.06799 0
M  V30 3748 C 346.04 1.32399 -1.34596 0
M  V30 3749 O 345.397 1.77626 -0.418946 0
M  V30 3750 C 345.448 0.339927 -3.59898 0
M  V30 3751 O 345.169 -0.869635 -4.29382 0
M  V30 3752 C 346.67 0.933515 -4.33359 0
M  V30 3753 H 343.89 -0.0126333 -0.670881 0
M  V30 3754 H 346.434 -0.675864 -1.93009 0
M  V30 3755 H 344.589 1.03022 -3.7345 0
M  V30 3756 H 345.003 -0.62179 -5.20801 0
M  V30 3757 H 346.477 1.07593 -5.41413 0
M  V30 3758 H 346.954 1.92685 -3.94676 0
M  V30 3759 H 347.56 0.281221 -4.24369 0
M  V30 3760 N 345.875 1.56104 -0.216619 0
M  V30 3761 C 346.823 2.21434 0.712036 0
M  V30 3762 C 347.817 1.19218 1.20348 0
M  V30 3763 O 349.023 1.3731 1.16387 0
M  V30 3764 H 345.398 0.70992 0.248026 0
M  V30 3765 H 347.369 2.98083 0.137558 0
M  V30 3766 C 346.118 2.90434 1.91163 0
M  V30 3767 H 345.441 3.68842 1.54258 0
M  V30 3768 H 346.881 3.39552 2.5393 0
M  V30 3769 C 345.34 1.92635 2.76394 0
M  V30 3770 O 345.87 1.44017 3.74996 0
M  V30 3771 N 344.076 1.60392 2.42328 0
M  V30 3772 H 343.623 2.00122 1.622 0
M  V30 3773 H 343.581 0.952159 2.99635 0
M  V30 3774 N 347.353 -0.0568162 1.57498 0
M  V30 3775 C 348.283 -1.06593 2.0775 0
M  V30 3776 C 349.264 -1.39448 0.974082 0
M  V30 3777 O 350.449 -1.48815 1.24771 0
M  V30 3778 C 347.579 -2.37509 2.5339 0
M  V30 3779 C 346.533 -2.1897 3.67745 0
M  V30 3780 C 345.859 -3.55402 3.99492 0
M  V30 3781 C 347.159 -1.59859 4.97235 0
M  V30 3782 H 348.853 -0.647706 2.9231 0
M  V30 3783 H 346.399 -0.310116 1.40621 0
M  V30 3784 H 348.352 -3.08409 2.87162 0
M  V30 3785 H 347.076 -2.8134 1.65878 0
M  V30 3786 H 345.735 -1.50508 3.3428 0
M  V30 3787 H 345.383 -3.9683 3.09088 0
M  V30 3788 H 345.083 -3.43831 4.76502 0
M  V30 3789 H 346.607 -4.27708 4.35773 0
M  V30 3790 H 348.021 -2.20642 5.29141 0
M  V30 3791 H 346.418 -1.58942 5.78669 0
M  V30 3792 H 347.488 -0.561506 4.81638 0
M  V30 3793 N 348.832 -1.54138 -0.328536 0
M  V30 3794 C 349.779 -1.83176 -1.40411 0
M  V30 3795 C 350.749 -0.678494 -1.5161 0
M  V30 3796 O 351.934 -0.92443 -1.6691 0
M  V30 3797 C 349.074 -2.06035 -2.76846 0
M  V30 3798 C 348.187 -3.33727 -2.74318 0
M  V30 3799 C 347.322 -3.46574 -4.02567 0
M  V30 3800 C 346.361 -4.68159 -3.94327 0
M  V30 3801 N 345.498 -4.77959 -5.14296 0
M  V30 3802 H 350.338 -2.74938 -1.14948 0
M  V30 3803 H 347.875 -1.36166 -0.556538 0
M  V30 3804 H 349.833 -2.1728 -3.56153 0
M  V30 3805 H 348.463 -1.1757 -3.00628 0
M  V30 3806 H 347.515 -3.31246 -1.8703 0
M  V30 3807 H 348.827 -4.23139 -2.64111 0
M  V30 3808 H 347.981 -3.57333 -4.90304 0
M  V30 3809 H 346.72 -2.55245 -4.15574 0
M  V30 3810 H 345.725 -4.57461 -3.04974 0
M  V30 3811 H 346.95 -5.60868 -3.82889 0
M  V30 3812 H 344.896 -3.89544 -5.27818 0
M  V30 3813 H 344.813 -5.6133 -5.06404 0
M  V30 3814 H 346.081 -4.93044 -6.03761 0
M  V30 3815 N 350.31 0.590341 -1.46126 0
M  V30 3816 C 351.22 1.72793 -1.58681 0
M  V30 3817 C 352.236 1.67516 -0.470566 0
M  V30 3818 O 353.412 1.87562 -0.733642 0
M  V30 3819 C 350.477 3.09287 -1.5666 0
M  V30 3820 C 349.538 3.25886 -2.79458 0
M  V30 3821 C 348.771 4.55869 -2.77524 0
M  V30 3822 O 348.994 5.3928 -1.85832 0
M  V30 3823 O 347.928 4.75552 -3.68964 0
M  V30 3824 H 351.754 1.65149 -2.54872 0
M  V30 3825 H 349.339 0.756486 -1.28832 0
M  V30 3826 H 351.221 3.90577 -1.58202 0
M  V30 3827 H 349.896 3.17385 -0.636271 0
M  V30 3828 H 348.803 2.44119 -2.83472 0
M  V30 3829 H 350.136 3.22675 -3.71674 0
M  V30 3830 N 351.788 1.33704 0.83433 0
M  V30 3831 C 353.204 1.13137 1.12571 0
M  V30 3832 C 353.404 -0.0747261 2.01361 0
M  V30 3833 O 352.46 -0.753647 2.4099 0
M  V30 3834 C 353.773 2.42105 1.78342 0
M  V30 3835 C 355.321 2.48054 1.90888 0
M  V30 3836 C 355.796 3.76995 2.60075 0
M  V30 3837 N 357.287 3.78092 2.67584 0
M  V30 3838 C 358.022 4.74574 3.21818 0
M  V30 3839 N 357.518 5.81434 3.76705 0
M  V30 3840 N 359.311 4.62044 3.20112 0
M  V30 3841 H 351.462 2.11 0.243489 0
M  V30 3842 H 353.725 0.932532 0.17055 0
M  V30 3843 H 353.431 3.30391 1.20561 0
M  V30 3844 H 353.305 2.54594 2.7832 0
M  V30 3845 H 355.692 1.60215 2.47821 0
M  V30 3846 H 355.773 2.39502 0.898459 0
M  V30 3847 H 355.417 4.65219 2.03799 0
M  V30 3848 H 355.347 3.82825 3.61597 0
M  V30 3849 H 357.838 3.00865 2.28667 0
M  V30 3850 H 358.151 6.51084 4.16305 0
M  V30 3851 H 356.496 5.85163 3.7498 0
M  V30 3852 H 359.687 3.77716 2.76493 0
M  V30 3853 H 359.86 5.37406 3.62076 0
M  V30 3854 N 353.266 -1.05314 1.17247 0
M  V30 3855 C 354.213 -2.13031 0.888058 0
M  V30 3856 C 355.183 -1.65253 -0.167537 0
M  V30 3857 O 356.368 -1.90775 -0.0305974 0
M  V30 3858 C 353.508 -3.42702 0.406147 0
M  V30 3859 C 352.621 -4.04161 1.52572 0
M  V30 3860 C 351.756 -5.21744 0.997808 0
M  V30 3861 C 350.795 -5.75207 2.09291 0
M  V30 3862 N 349.932 -6.84094 1.57986 0
M  V30 3863 H 354.772 -2.36698 1.81048 0
M  V30 3864 H 352.309 -1.16121 0.903013 0
M  V30 3865 H 354.267 -4.17059 0.108305 0
M  V30 3866 H 352.897 -3.19222 -0.479313 0
M  V30 3867 H 351.949 -3.27253 1.93931 0
M  V30 3868 H 353.261 -4.39881 2.35172 0
M  V30 3869 H 352.415 -6.03168 0.653739 0
M  V30 3870 H 351.154 -4.87495 0.141232 0
M  V30 3871 H 350.159 -4.92414 2.44557 0
M  V30 3872 H 351.384 -6.11505 2.95362 0
M  V30 3873 H 349.33 -6.51745 0.74598 0
M  V30 3874 H 349.247 -7.18811 2.34195 0
M  V30 3875 H 350.515 -7.69172 1.26468 0
M  V30 3876 N 354.744 -0.972509 -1.24016 0
M  V30 3877 C 355.654 -0.5143 -2.28893 0
M  V30 3878 C 356.67 0.427078 -1.68677 0
M  V30 3879 O 357.846 0.298939 -1.99169 0
M  V30 3880 C 354.911 0.183598 -3.46214 0
M  V30 3881 C 353.972 -0.798202 -4.21814 0
M  V30 3882 C 353.205 -0.133514 -5.33533 0
M  V30 3883 O 353.428 1.07714 -5.60137 0
M  V30 3884 O 352.362 -0.828103 -5.96176 0
M  V30 3885 H 356.188 -1.38629 -2.70214 0
M  V30 3886 H 353.773 -0.739769 -1.29799 0
M  V30 3887 H 355.655 0.575433 -4.17453 0
M  V30 3888 H 354.33 1.03048 -3.0686 0
M  V30 3889 H 353.237 -1.24059 -3.52931 0
M  V30 3890 H 354.57 -1.61364 -4.64997 0
M  V30 3891 N 356.222 1.38976 -0.743202 0
M  V30 3892 C 357.132 2.3434 -0.110399 0
M  V30 3893 C 358.148 1.58741 0.712559 0
M  V30 3894 O 359.324 1.9099 0.639125 0
M  V30 3895 C 356.389 3.37812 0.780012 0
M  V30 3896 C 355.45 4.29263 -0.0561319 0
M  V30 3897 C 354.683 5.27793 0.791875 0
M  V30 3898 O 354.906 5.33043 2.03031 0
M  V30 3899 O 353.84 6.01512 0.216183 0
M  V30 3900 H 357.666 2.90129 -0.897714 0
M  V30 3901 H 355.251 1.40643 -0.503966 0
M  V30 3902 H 357.133 4.01194 1.28923 0
M  V30 3903 H 355.808 2.84395 1.546 0
M  V30 3904 H 354.715 3.69076 -0.611056 0
M  V30 3905 H 356.048 4.85907 -0.784531 0
M  V30 3906 N 357.7 0.491464 1.49741 0
M  V30 3907 C 358.647 -0.292027 2.28945 0
M  V30 3908 C 359.617 -0.968973 1.34908 0
M  V30 3909 O 360.802 -0.97748 1.6386 0
M  V30 3910 C 357.942 -1.35617 3.17336 0
M  V30 3911 C 357.055 -0.691957 4.26422 0
M  V30 3912 C 356.19 -1.73572 5.02042 0
M  V30 3913 C 355.229 -1.05286 6.02977 0
M  V30 3914 N 354.366 -2.0404 6.71798 0
M  V30 3915 H 359.206 0.389654 2.95442 0
M  V30 3916 H 356.743 0.204003 1.45679 0
M  V30 3917 H 358.701 -1.98502 3.66951 0
M  V30 3918 H 357.331 -2.00674 2.52844 0
M  V30 3919 H 356.383 0.0499523 3.80367 0
M  V30 3920 H 357.695 -0.153946 4.98562 0
M  V30 3921 H 356.849 -2.43987 5.55478 0
M  V30 3922 H 355.588 -2.30757 4.29654 0
M  V30 3923 H 354.593 -0.334446 5.48782 0
M  V30 3924 H 355.818 -0.487636 6.77347 0
M  V30 3925 H 353.764 -2.60205 6.02187 0
M  V30 3926 H 353.681 -1.55279 7.39881 0
M  V30 3927 H 354.949 -2.73772 7.29842 0
M  V30 3928 N 359.178 -1.55987 0.224894 0
M  V30 3929 C 360.418 -2.00293 -0.407706 0
M  V30 3930 C 360.782 -1.1093 -1.56711 0
M  V30 3931 O 361.983 -1.44597 -2.26595 0
M  V30 3932 C 360.254 -3.47675 -0.82805 0
M  V30 3933 S 361.813 -4.14 -1.45429 0
M  V30 3934 H 358.631 -0.699152 -0.129256 0
M  V30 3935 H 361.233 -1.92609 0.334967 0
M  V30 3936 H 359.937 -4.10392 0.0253964 0
M  V30 3937 H 359.468 -3.59239 -1.60345 0
M  V30 3938 H 361.483 -4.13465 -2.74337 0
M  V30 3939 N 360.656 0.0484629 -1.57525 0
M  V30 3940 C 361.606 1.06246 -2.01732 0
M  V30 3941 C 362.59 1.33155 -0.903245 0
M  V30 3942 O 363.782 1.33065 -1.16717 0
M  V30 3943 C 360.911 2.36943 -2.48421 0
M  V30 3944 C 359.997 2.13208 -3.6661 0
M  V30 3945 N 360.388 1.5947 -4.80003 0
M  V30 3946 C 358.686 2.43581 -3.7361 0
M  V30 3947 C 359.387 1.51092 -5.61735 0
M  V30 3948 N 358.363 1.9797 -5.0627 0
M  V30 3949 H 362.165 0.640675 -2.86832 0
M  V30 3950 H 359.679 0.255134 -1.60383 0
M  V30 3951 H 361.676 3.10374 -2.78341 0
M  V30 3952 H 360.336 2.79818 -1.64718 0
M  V30 3953 H 361.347 1.28008 -5.01831 0
M  V30 3954 H 358.024 2.89662 -3.00669 0
M  V30 3955 H 359.414 1.10199 -6.62801 0
M  V30 3956 N 362.134 1.5431 0.320358 0
M  V30 3957 C 363.066 1.80262 1.41556 0
M  V30 3958 C 364.079 0.684723 1.477 0
M  V30 3959 O 365.268 0.961886 1.50366 0
M  V30 3960 C 362.368 1.90825 2.8007 0
M  V30 3961 C 361.541 3.21023 2.97091 0
M  V30 3962 C 360.6 3.22247 4.15985 0
M  V30 3963 O 359.626 3.95871 4.08992 0
M  V30 3964 N 360.828 2.46258 5.25678 0
M  V30 3965 H 363.593 2.74778 1.19655 0
M  V30 3966 H 361.154 1.53646 0.510358 0
M  V30 3967 H 363.146 1.89067 3.57821 0
M  V30 3968 H 361.716 1.03392 2.95006 0
M  V30 3969 H 360.936 3.35715 2.06614 0
M  V30 3970 H 362.224 4.0698 3.05361 0
M  V30 3971 H 361.622 1.86037 5.34235 0
M  V30 3972 H 360.179 2.50275 6.01835 0
M  V30 3973 N 363.613 -0.582584 1.46437 0
M  V30 3974 C 364.843 -1.36484 1.55099 0
M  V30 3975 C 365.251 -1.88233 0.191056 0
M  V30 3976 O 364.594 -1.6429 -0.821858 0
M  V30 3977 C 364.656 -2.588 2.49525 0
M  V30 3978 C 364.32 -2.28517 3.95764 0
M  V30 3979 C 365.317 -1.87346 4.84972 0
M  V30 3980 C 363.002 -2.40658 4.40896 0
M  V30 3981 C 364.996 -1.5871 6.17325 0
M  V30 3982 C 362.683 -2.11635 5.73284 0
M  V30 3983 C 363.681 -1.70725 6.61318 0
M  V30 3984 O 363.369 -1.42057 7.91249 0
M  V30 3985 H 363.101 -0.423297 0.527063 0
M  V30 3986 H 365.655 -0.715188 1.92547 0
M  V30 3987 H 363.885 -3.26571 2.07095 0
M  V30 3988 H 365.574 -3.20868 2.48593 0
M  V30 3989 H 366.34 -1.77481 4.5136 0
M  V30 3990 H 362.219 -2.71463 3.72598 0
M  V30 3991 H 365.763 -1.26704 6.85997 0
M  V30 3992 H 361.66 -2.21124 6.06444 0
M  V30 3993 H 362.428 -1.55901 8.03515 0
M  V30 3994 N 365.091 -1.34144 -0.827227 0
M  V30 3995 C 366.337 -1.27455 -1.58515 0
M  V30 3996 C 366.692 0.155271 -1.91772 0
M  V30 3997 O 365.985 1.10042 -1.56848 0
M  V30 3998 C 366.179 -2.09464 -2.89585 0
M  V30 3999 C 366.008 -3.60276 -2.69131 0
M  V30 4000 C 364.778 -4.29565 -2.66087 0
M  V30 4001 C 366.976 -4.54367 -2.40947 0
M  V30 4002 N 364.958 -5.66252 -2.37132 0
M  V30 4003 C 366.329 -5.79027 -2.21648 0
M  V30 4004 C 368.384 -4.43327 -2.26639 0
M  V30 4005 C 367.087 -6.93891 -1.89492 0
M  V30 4006 C 369.113 -5.58019 -1.95878 0
M  V30 4007 C 368.475 -6.81695 -1.774 0
M  V30 4008 H 364.574 -0.521614 -0.582617 0
M  V30 4009 H 367.158 -1.68811 -0.970105 0
M  V30 4010 H 365.329 -1.70411 -3.49019 0
M  V30 4011 H 367.061 -1.94453 -3.54923 0
M  V30 4012 H 363.816 -3.81959 -2.80008 0
M  V30 4013 H 364.24 -6.38338 -2.25507 0
M  V30 4014 H 368.882 -3.48333 -2.39633 0
M  V30 4015 H 366.6 -7.88871 -1.75236 0
M  V30 4016 H 370.186 -5.5142 -1.85546 0
M  V30 4017 H 369.066 -7.68942 -1.53941 0
M  V30 4018 N 366.569 1.04691 -1.17803 0
M  V30 4019 C 367.98 1.59238 -0.974689 0
M  V30 4020 C 368.331 1.90306 0.477292 0
M  V30 4021 O 367.456 1.68846 1.35352 0
M  V30 4022 C 368.051 2.89318 -1.76296 0
M  V30 4023 C 366.61 3.40506 -1.60414 0
M  V30 4024 C 365.757 2.14172 -1.76141 0
M  V30 4025 H 368.708 0.874395 -1.32439 0
M  V30 4026 H 368.729 3.5944 -1.24833 0
M  V30 4027 H 368.241 2.66675 -2.81968 0
M  V30 4028 H 366.342 3.68175 -0.572519 0
M  V30 4029 H 366.455 4.14753 -2.39827 0
M  V30 4030 H 364.819 2.25176 -1.19028 0
M  V30 4031 H 365.602 1.93992 -2.83235 0
M  V30 4032 N 368.047 0.979072 1.23499 0
M  V30 4033 C 369.324 0.563674 1.87302 0
M  V30 4034 C 369.704 -0.959199 1.88049 0
M  V30 4035 O 369.052 -1.83535 1.36114 0
M  V30 4036 C 369.262 1.16822 3.28867 0
M  V30 4037 C 370.61 1.26014 4.0547 0
M  V30 4038 O 371.634 1.12158 3.38082 0
M  V30 4039 O 370.493 1.48044 5.26066 0
M  V30 4040 H 367.587 0.189602 0.804972 0
M  V30 4041 H 370.133 1.07407 1.31384 0
M  V30 4042 H 368.905 2.21049 3.22883 0
M  V30 4043 H 368.528 0.642564 3.92373 0
M  V30 4044 N 369.525 -1.3858 0.750561 0
M  V30 4045 C 370.457 -2.29057 0.0810714 0
M  V30 4046 C 371.47 -1.47596 -0.686973 0
M  V30 4047 O 372.659 -1.70495 -0.528563 0
M  V30 4048 C 369.759 -3.26475 -0.909247 0
M  V30 4049 C 368.932 -4.36945 -0.199478 0
M  V30 4050 C 367.991 -5.14572 -1.10011 0
M  V30 4051 O 367.017 -5.66321 -0.57177 0
M  V30 4052 N 368.219 -5.27262 -2.42849 0
M  V30 4053 H 370.984 -2.87153 0.858087 0
M  V30 4054 H 368.545 -1.50328 0.60109 0
M  V30 4055 H 370.537 -3.75285 -1.51471 0
M  V30 4056 H 369.107 -2.69298 -1.58736 0
M  V30 4057 H 368.327 -3.8981 0.586664 0
M  V30 4058 H 369.615 -5.07963 0.291783 0
M  V30 4059 H 369.013 -4.86763 -2.88233 0
M  V30 4060 H 367.57 -5.79456 -2.98453 0
M  V30 4061 N 371.003 -0.499398 -1.49478 0
M  V30 4062 C 372.251 0.0455996 -2.02049 0
M  V30 4063 C 372.572 1.37633 -1.38138 0
M  V30 4064 O 371.842 1.8842 -0.536166 0
M  V30 4065 H 370.422 0.0198416 -0.746736 0
M  V30 4066 H 373.084 -0.656274 -1.83519 0
M  V30 4067 H 372.18 0.176445 -3.11601 0
M  V30 4068 N 372.481 1.55866 -0.233164 0
M  V30 4069 C 373.721 2.00506 0.397078 0
M  V30 4070 C 374.085 1.1176 1.56121 0
M  V30 4071 O 375.286 1.45796 2.25825 0
M  V30 4072 C 373.557 3.4811 0.809601 0
M  V30 4073 S 375.116 4.14765 1.43231 0
M  V30 4074 H 371.934 0.699828 0.125547 0
M  V30 4075 H 374.536 1.92429 -0.345177 0
M  V30 4076 H 373.24 4.10373 -0.0471601 0
M  V30 4077 H 372.771 3.60085 1.58438 0
M  V30 4078 H 374.786 4.14914 2.7214 0
M  V30 4079 N 373.959 -0.0401083 1.57549 0
M  V30 4080 C 375.205 -0.728793 1.89895 0
M  V30 4081 C 375.56 -1.73551 0.830535 0
M  V30 4082 O 374.853 -1.90914 -0.162007 0
M  V30 4083 C 375.047 -1.44902 3.26708 0
M  V30 4084 C 374.876 -0.513568 4.46758 0
M  V30 4085 C 373.646 -0.138698 5.0511 0
M  V30 4086 C 375.844 0.203341 5.13898 0
M  V30 4087 N 373.826 0.799159 6.08676 0
M  V30 4088 C 375.197 0.997246 6.11927 0
M  V30 4089 C 377.252 0.271459 4.97159 0
M  V30 4090 C 375.955 1.85299 6.95023 0
M  V30 4091 C 377.981 1.11429 5.80808 0
M  V30 4092 C 377.343 1.89615 6.78399 0
M  V30 4093 H 373.442 -0.241125 0.743897 0
M  V30 4094 H 376.026 0.0108016 1.94697 0
M  V30 4095 H 374.197 -2.15914 3.22856 0
M  V30 4096 H 375.929 -2.08921 3.46603 0
M  V30 4097 H 372.684 -0.498496 4.70969 0
M  V30 4098 H 373.108 1.26227 6.65128 0
M  V30 4099 H 377.75 -0.318709 4.21597 0
M  V30 4100 H 375.468 2.454 7.69938 0
M  V30 4101 H 379.054 1.17038 5.69906 0
M  V30 4102 H 377.934 2.53779 7.42001 0
M  V30 4103 N 375.437 -1.54477 -0.31217 0
M  V30 4104 C 376.665 -1.77205 -1.068 0
M  V30 4105 C 377.08 -0.526114 -1.81321 0
M  V30 4106 O 376.437 0.503647 -1.75413 0
M  V30 4107 C 376.488 -2.97253 -2.05725 0
M  V30 4108 O 376.209 -4.1703 -1.34228 0
M  V30 4109 C 377.71 -3.32281 -2.93435 0
M  V30 4110 H 374.93 -0.591287 -0.317208 0
M  V30 4111 H 377.474 -2.01398 -0.354834 0
M  V30 4112 H 375.629 -2.753 -2.72559 0
M  V30 4113 H 376.043 -4.84636 -2.00571 0
M  V30 4114 H 377.517 -4.19551 -3.58721 0
M  V30 4115 H 377.994 -2.49945 -3.61143 0
M  V30 4116 H 378.6 -3.56353 -2.32147 0
M  V30 4117 N 376.915 0.57481 -1.46744 0
M  V30 4118 C 378.145 1.35659 -1.55821 0
M  V30 4119 C 378.553 1.88129 -0.201036 0
M  V30 4120 O 377.896 1.64723 0.813134 0
M  V30 4121 C 377.958 2.57473 -2.50894 0
M  V30 4122 C 377.622 2.26415 -3.9697 0
M  V30 4123 C 378.619 1.84771 -4.85958 0
M  V30 4124 C 376.304 2.38316 -4.42166 0
M  V30 4125 C 378.298 1.55434 -6.18158 0
M  V30 4126 C 375.985 2.08591 -5.74398 0
M  V30 4127 C 376.983 1.67216 -6.62214 0
M  V30 4128 O 376.671 1.37859 -7.91991 0
M  V30 4129 H 376.403 0.420496 -0.529301 0
M  V30 4130 H 378.957 0.704967 -1.92923 0
M  V30 4131 H 377.187 3.25468 -2.08824 0
M  V30 4132 H 378.876 3.19546 -2.50291 0
M  V30 4133 H 379.642 1.75085 -4.52295 0
M  V30 4134 H 375.521 2.69483 -3.74032 0
M  V30 4135 H 379.065 1.23065 -6.86659 0
M  V30 4136 H 374.962 2.17905 -6.07608 0
M  V30 4137 H 375.73 1.51638 -8.04331 0
M  V30 4138 N 378.394 1.34581 0.820102 0
M  V30 4139 C 379.642 1.26845 1.57336 0
M  V30 4140 C 379.963 -0.160667 1.94337 0
M  V30 4141 O 379.233 -1.09396 1.6251 0
M  V30 4142 H 377.813 0.466514 0.583415 0
M  V30 4143 H 380.475 1.68526 0.979027 0
M  V30 4144 H 379.571 1.87513 2.4949 0
M  V30 4145 N 379.872 -1.04064 1.18357 0
M  V30 4146 C 380.82 -2.14187 0.907007 0
M  V30 4147 C 381.814 -1.68879 -0.132725 0
M  V30 4148 O 383.02 -1.79993 0.0154248 0
M  V30 4149 H 379.395 -0.699585 0.275835 0
M  V30 4150 H 381.366 -2.34711 1.84264 0
M  V30 4151 C 380.115 -3.44785 0.449254 0
M  V30 4152 H 379.438 -3.80058 1.24081 0
M  V30 4153 H 380.878 -4.22974 0.294737 0
M  V30 4154 C 379.337 -3.26391 -0.834909 0
M  V30 4155 O 379.867 -3.53973 -1.89911 0
M  V30 4156 N 378.073 -2.79726 -0.787523 0
M  V30 4157 H 377.62 -2.5748 0.0787347 0
M  V30 4158 H 377.578 -2.67798 -1.64716 0
M  V30 4159 N 381.35 -0.985608 -1.22978 0
M  V30 4160 C 382.599 -0.652881 -1.90841 0
M  V30 4161 C 382.912 0.817842 -1.77681 0
M  V30 4162 O 384.118 1.26185 -2.40395 0
M  V30 4163 C 382.574 -1.11717 -3.42122 0
M  V30 4164 C 382.182 -2.6126 -3.63933 0
M  V30 4165 C 383.926 -0.85843 -4.1573 0
M  V30 4166 C 381.833 -3.0133 -5.08876 0
M  V30 4167 H 380.763 -0.240491 -0.714619 0
M  V30 4168 H 383.414 -1.1942 -1.39324 0
M  V30 4169 H 381.796 -0.504027 -3.92779 0
M  V30 4170 H 382.97 -3.27858 -3.23799 0
M  V30 4171 H 381.285 -2.84937 -3.03644 0
M  V30 4172 H 383.882 -1.13359 -5.22546 0
M  V30 4173 H 384.225 0.205461 -4.15793 0
M  V30 4174 H 384.758 -1.43341 -3.71077 0
M  V30 4175 H 381.497 -4.06864 -5.13947 0
M  V30 4176 H 381.017 -2.3943 -5.49939 0
M  V30 4177 H 382.696 -2.92224 -5.77247 0
M  V30 4178 N 382.828 1.3818 -0.7579 0
M  V30 4179 C 384.244 1.5353 -0.435972 0
M  V30 4180 C 384.444 1.71961 1.05032 0
M  V30 4181 O 383.5 1.73307 1.83633 0
M  V30 4182 C 384.813 2.73989 -1.23898 0
M  V30 4183 C 386.361 2.87841 -1.22949 0
M  V30 4184 C 386.836 4.11266 -2.01554 0
M  V30 4185 N 388.327 4.18352 -1.98837 0
M  V30 4186 C 389.062 5.12856 -2.5645 0
M  V30 4187 N 388.558 6.13005 -3.22794 0
M  V30 4188 N 390.351 5.05238 -2.46356 0
M  V30 4189 H 382.502 1.24467 -1.7211 0
M  V30 4190 H 384.765 0.604982 -0.729864 0
M  V30 4191 H 384.471 2.66789 -2.29165 0
M  V30 4192 H 384.345 3.67294 -0.858764 0
M  V30 4193 H 386.732 2.9452 -0.184854 0
M  V30 4194 H 386.813 1.95534 -1.64924 0
M  V30 4195 H 386.457 4.05349 -3.06031 0
M  V30 4196 H 386.387 5.02661 -1.5697 0
M  V30 4197 H 388.878 3.46628 -1.50524 0
M  V30 4198 H 389.191 6.81619 -3.64165 0
M  V30 4199 H 387.536 6.13325 -3.2689 0
M  V30 4200 H 390.727 4.25938 -1.9415 0
M  V30 4201 H 390.9 5.78707 -2.91552 0
M  V30 4202 N 384.306 0.507319 1.49211 0
M  V30 4203 C 385.552 -0.0350047 2.0277 0
M  V30 4204 C 385.885 -1.3606 1.38569 0
M  V30 4205 O 385.16 -1.87321 0.523542 0
M  V30 4206 C 385.443 -0.180916 3.59645 0
M  V30 4207 C 385.296 1.16825 4.34364 0
M  V30 4208 C 386.615 -0.918558 4.30407 0
M  V30 4209 H 383.734 -0.0112473 0.736914 0
M  V30 4210 H 386.376 0.659956 1.7817 0
M  V30 4211 H 384.526 -0.772826 3.80736 0
M  V30 4212 H 386.198 1.79952 4.24753 0
M  V30 4213 H 384.441 1.75594 3.96673 0
M  V30 4214 H 385.112 1.01939 5.42506 0
M  V30 4215 H 387.588 -0.41649 4.1401 0
M  V30 4216 H 386.464 -0.989505 5.39907 0
M  V30 4217 H 386.725 -1.96373 3.96093 0
M  V30 4218 N 385.784 -1.5574 0.241426 0
M  V30 4219 C 387.024 -2.00714 -0.38644 0
M  V30 4220 C 387.388 -1.12586 -1.55526 0
M  V30 4221 O 388.589 -1.46992 -2.25048 0
M  V30 4222 C 386.86 -3.48534 -0.791128 0
M  V30 4223 S 388.419 -4.15519 -1.41029 0
M  V30 4224 H 385.237 -0.700484 -0.121834 0
M  V30 4225 H 387.839 -1.92243 0.355377 0
M  V30 4226 H 386.543 -4.10342 0.0689225 0
M  V30 4227 H 386.074 -3.6092 -1.56526 0
M  V30 4228 H 388.089 -4.16352 -2.69936 0
M  V30 4229 N 387.262 0.0317525 -1.57568 0
M  V30 4230 C 388.508 0.724175 -1.8943 0
M  V30 4231 C 388.841 1.75149 -0.838836 0
M  V30 4232 O 388.116 1.93948 0.146422 0
M  V30 4233 C 388.399 1.39615 -3.31933 0
M  V30 4234 C 388.252 0.382537 -4.4817 0
M  V30 4235 C 389.571 2.33084 -3.73309 0
M  V30 4236 H 386.69 0.261797 -0.688935 0
M  V30 4237 H 389.332 -0.013017 -1.89996 0
M  V30 4238 H 387.482 2.02451 -3.31581 0
M  V30 4239 H 389.154 -0.243689 -4.60656 0
M  V30 4240 H 387.397 -0.29844 -4.32772 0
M  V30 4241 H 388.068 0.891145 -5.44759 0
M  V30 4242 H 390.544 1.80295 -3.7501 0
M  V30 4243 H 389.42 2.77084 -4.73831 0
M  V30 4244 H 389.681 3.19643 -3.05419 0
M  V30 4245 N 388.74 1.54641 0.303973 0
M  V30 4246 C 389.65 1.88439 1.39743 0
M  V30 4247 C 390.666 0.778239 1.55626 0
M  V30 4248 O 391.842 1.07442 1.70347 0
M  V30 4249 C 388.907 2.12212 2.74166 0
M  V30 4250 C 387.968 3.35936 2.67293 0
M  V30 4251 C 387.201 3.58566 3.95305 0
M  V30 4252 O 387.424 2.84263 4.9452 0
M  V30 4253 O 386.358 4.52078 3.97378 0
M  V30 4254 H 390.184 2.81458 1.14083 0
M  V30 4255 H 387.769 1.40793 0.499768 0
M  V30 4256 H 389.651 2.29067 3.53704 0
M  V30 4257 H 388.326 1.22379 2.99675 0
M  V30 4258 H 387.233 3.24448 1.86237 0
M  V30 4259 H 388.566 4.2589 2.46736 0
M  V30 4260 N 390.218 -0.567019 1.47046 0
M  V30 4261 C 391.495 -1.3276 1.43646 0
M  V30 4262 C 391.875 -2.1071 0.128186 0
M  V30 4263 O 391.223 -2.10441 -0.890326 0
M  V30 4264 C 391.433 -2.2404 2.67595 0
M  V30 4265 C 392.781 -2.85372 3.14401 0
M  V30 4266 O 393.805 -2.34346 2.68254 0
M  V30 4267 O 392.664 -3.78091 3.946 0
M  V30 4268 H 389.758 -0.597293 0.571988 0
M  V30 4269 H 392.304 -0.586735 1.59234 0
M  V30 4270 H 391.076 -1.65975 3.54356 0
M  V30 4271 H 390.699 -3.05439 2.54544 0
M  V30 4272 N 391.696 -1.35014 -0.812953 0
M  V30 4273 C 392.936 -1.29289 -1.58315 0
M  V30 4274 C 393.3 0.132727 -1.91541 0
M  V30 4275 O 394.501 0.314269 -2.66957 0
M  V30 4276 C 392.772 -2.1681 -2.84127 0
M  V30 4277 S 394.331 -2.28538 -3.74588 0
M  V30 4278 H 391.149 -0.459569 -0.542511 0
M  V30 4279 H 393.751 -1.70336 -0.959467 0
M  V30 4280 H 392.455 -3.19379 -2.57731 0
M  V30 4281 H 391.986 -1.76697 -3.51485 0
M  V30 4282 H 394.001 -1.4655 -4.74065 0
M  V30 4283 N 393.175 1.03435 -1.18907 0
M  V30 4284 C 394.421 1.77005 -0.989798 0
M  V30 4285 C 394.754 1.88205 0.478816 0
M  V30 4286 O 394.029 1.39481 1.35556 0
M  V30 4287 C 394.312 3.19925 -1.65287 0
M  V30 4288 C 394.165 3.1663 -3.19477 0
M  V30 4289 C 395.484 4.18189 -1.37134 0
M  V30 4290 H 392.603 0.642538 -0.360991 0
M  V30 4291 H 395.245 1.20784 -1.46667 0
M  V30 4292 H 393.395 3.67929 -1.24741 0
M  V30 4293 H 395.067 2.76567 -3.692 0
M  V30 4294 H 393.31 2.54491 -3.51307 0
M  V30 4295 H 393.981 4.1758 -3.61013 0
M  V30 4296 H 396.457 3.78761 -1.72276 0
M  V30 4297 H 395.333 5.16394 -1.86087 0
M  V30 4298 H 395.594 4.41112 -0.295424 0
M  V30 4299 N 394.653 0.992116 1.22453 0
M  V30 4300 C 395.899 0.668523 1.91464 0
M  V30 4301 C 396.232 -0.797313 1.77078 0
M  V30 4302 O 395.507 -1.5765 1.13916 0
M  V30 4303 C 395.79 1.07424 3.43703 0
M  V30 4304 C 395.643 2.59857 3.67143 0
M  V30 4305 C 396.962 0.626891 4.35612 0
M  V30 4306 H 394.081 0.244341 0.695318 0
M  V30 4307 H 396.723 1.2355 1.44345 0
M  V30 4308 H 394.873 0.591816 3.83966 0
M  V30 4309 H 396.545 3.15764 3.3629 0
M  V30 4310 H 394.788 3.01961 3.11451 0
M  V30 4311 H 395.459 2.83296 4.73759 0
M  V30 4312 H 397.935 1.04125 4.02861 0
M  V30 4313 H 396.811 0.939076 5.40807 0
M  V30 4314 H 397.072 -0.472457 4.39568 0
M  V30 4315 N 396.131 -1.37776 0.765217 0
M  V30 4316 C 397.061 -2.32945 0.160953 0
M  V30 4317 C 398.042 -1.55454 -0.690516 0
M  V30 4318 O 399.227 -1.83721 -0.629318 0
M  V30 4319 C 396.357 -3.39669 -0.724031 0
M  V30 4320 C 395.311 -4.27992 0.0256173 0
M  V30 4321 C 394.637 -5.25673 -0.978383 0
M  V30 4322 C 395.937 -5.08309 1.20082 0
M  V30 4323 H 397.631 -2.83728 0.955969 0
M  V30 4324 H 395.177 -1.36416 0.461149 0
M  V30 4325 H 397.13 -4.05219 -1.15652 0
M  V30 4326 H 395.854 -2.87396 -1.5515 0
M  V30 4327 H 394.513 -3.63964 0.438812 0
M  V30 4328 H 394.161 -4.69682 -1.80022 0
M  V30 4329 H 393.861 -5.85625 -0.481378 0
M  V30 4330 H 395.385 -5.94098 -1.40995 0
M  V30 4331 H 396.799 -5.67034 0.845307 0
M  V30 4332 H 395.196 -5.77554 1.62947 0
M  V30 4333 H 396.266 -4.41365 2.00811 0
M  V30 4334 N 397.609 -0.515225 -1.4894 0
M  V30 4335 C 398.855 0.0242508 -2.02785 0
M  V30 4336 C 399.188 1.35323 -1.39289 0
M  V30 4337 O 398.463 1.87041 -0.533469 0
M  V30 4338 C 398.746 0.16184 -3.59736 0
M  V30 4339 C 398.599 -1.19127 -4.33738 0
M  V30 4340 C 399.918 0.895719 -4.30888 0
M  V30 4341 H 397.037 0.00733914 -0.736963 0
M  V30 4342 H 399.679 -0.669395 -1.77818 0
M  V30 4343 H 397.829 0.752624 -3.8114 0
M  V30 4344 H 399.501 -1.82202 -4.23792 0
M  V30 4345 H 397.744 -1.77695 -3.95736 0
M  V30 4346 H 398.415 -1.04815 -5.41957 0
M  V30 4347 H 400.891 0.394528 -4.14225 0
M  V30 4348 H 399.767 0.960859 -5.40425 0
M  V30 4349 H 400.028 1.9427 -3.97129 0
M  V30 4350 N 399.087 1.5561 -0.249682 0
M  V30 4351 C 400.364 1.90932 0.424761 0
M  V30 4352 C 400.744 1.17078 1.75658 0
M  V30 4353 O 400.092 0.289176 2.26663 0
M  V30 4354 C 400.302 3.43975 0.590109 0
M  V30 4355 C 401.65 4.15281 0.884714 0
M  V30 4356 O 402.674 3.49729 0.67587 0
M  V30 4357 O 401.533 5.31236 1.28259 0
M  V30 4358 H 398.627 0.794815 0.228468 0
M  V30 4359 H 401.173 1.67135 -0.293954 0
M  V30 4360 H 399.945 3.89748 -0.34818 0
M  V30 4361 H 399.568 3.73644 1.35926 0
M  V30 4362 N 400.565 -0.0233959 1.57583 0
M  V30 4363 C 401.795 -0.723631 1.93513 0
M  V30 4364 C 402.203 -1.69115 0.848333 0
M  V30 4365 O 401.546 -1.82781 -0.183484 0
M  V30 4366 C 401.608 -1.53075 3.25282 0
M  V30 4367 C 401.272 -0.727388 4.51174 0
M  V30 4368 C 402.269 -0.0251924 5.19894 0
M  V30 4369 C 399.954 -0.680256 4.97672 0
M  V30 4370 C 401.948 0.713374 6.33395 0
M  V30 4371 C 399.635 0.0620523 6.11068 0
M  V30 4372 C 400.633 0.757622 6.78785 0
M  V30 4373 O 400.321 1.48787 7.90011 0
M  V30 4374 H 400.053 -0.208051 0.643188 0
M  V30 4375 H 402.607 0.0167489 2.05393 0
M  V30 4376 H 400.837 -2.31508 3.09744 0
M  V30 4377 H 402.526 -2.11413 3.46496 0
M  V30 4378 H 403.292 -0.0526003 4.84971 0
M  V30 4379 H 399.171 -1.21116 4.44805 0
M  V30 4380 H 402.715 1.25683 6.86185 0
M  V30 4381 H 398.612 0.0913634 6.45435 0
M  V30 4382 H 399.38 1.40213 8.06401 0
M  V30 4383 N 402.043 -1.548 -0.295768 0
M  V30 4384 C 403.271 -1.78327 -1.04914 0
M  V30 4385 C 403.686 -0.545316 -1.80753 0
M  V30 4386 O 403.043 0.485013 -1.75937 0
M  V30 4387 C 403.094 -2.99418 -2.02561 0
M  V30 4388 O 402.815 -4.18431 -1.29798 0
M  V30 4389 C 404.316 -3.35375 -2.89895 0
M  V30 4390 H 401.536 -0.594618 -0.310918 0
M  V30 4391 H 404.08 -2.01763 -0.333454 0
M  V30 4392 H 402.235 -2.78175 -2.69624 0
M  V30 4393 H 402.649 -4.86736 -1.95419 0
M  V30 4394 H 404.123 -4.23332 -3.54251 0
M  V30 4395 H 404.6 -2.53761 -3.58472 0
M  V30 4396 H 405.206 -3.58796 -2.28355 0
M  V30 4397 N 403.521 0.559213 -1.47345 0
M  V30 4398 C 404.77 1.31281 -1.53128 0
M  V30 4399 C 405.083 1.94602 -0.197344 0
M  V30 4400 O 406.289 2.71173 -0.133154 0
M  V30 4401 C 404.745 2.38051 -2.69925 0
M  V30 4402 C 404.353 1.8093 -4.0984 0
M  V30 4403 C 406.097 3.14604 -2.84999 0
M  V30 4404 C 404.004 2.85468 -5.1794 0
M  V30 4405 H 402.934 0.493614 -0.569966 0
M  V30 4406 H 405.585 0.594155 -1.73615 0
M  V30 4407 H 403.967 3.12822 -2.42814 0
M  V30 4408 H 405.141 1.12544 -4.46845 0
M  V30 4409 H 403.456 1.16967 -3.99634 0
M  V30 4410 H 406.053 3.92666 -3.62929 0
M  V30 4411 H 406.396 3.68665 -1.93369 0
M  V30 4412 H 406.929 2.46945 -3.1187 0
M  V30 4413 H 403.668 2.36264 -6.1144 0
M  V30 4414 H 403.188 3.52269 -4.85455 0
M  V30 4415 H 404.867 3.48996 -5.44803 0
M  V30 4416 N 404.999 1.35443 0.805782 0
M  V30 4417 C 406.415 1.15499 1.10146 0
M  V30 4418 C 406.615 -0.0319975 2.01475 0
M  V30 4419 O 405.671 -0.70236 2.42535 0
M  V30 4420 C 406.984 2.45833 1.73166 0
M  V30 4421 C 408.532 2.52047 1.85583 0
M  V30 4422 C 409.007 3.82427 2.52019 0
M  V30 4423 N 410.498 3.83682 2.59504 0
M  V30 4424 C 411.233 4.81294 3.11679 0
M  V30 4425 N 410.729 5.89294 3.64287 0
M  V30 4426 N 412.522 4.6873 3.1024 0
M  V30 4427 H 404.673 2.11469 0.198678 0
M  V30 4428 H 406.936 0.93594 0.150731 0
M  V30 4429 H 406.642 3.32874 1.13526 0
M  V30 4430 H 406.516 2.6044 2.72857 0
M  V30 4431 H 408.903 1.65435 2.44367 0
M  V30 4432 H 408.984 2.41354 0.847455 0
M  V30 4433 H 408.628 4.69437 1.93885 0
M  V30 4434 H 408.558 3.90409 3.53395 0
M  V30 4435 H 411.049 3.05648 2.22234 0
M  V30 4436 H 411.362 6.59768 4.02401 0
M  V30 4437 H 409.707 5.92985 3.62483 0
M  V30 4438 H 412.898 3.83496 2.68419 0
M  V30 4439 H 413.071 5.44965 3.50596 0
M  V30 4440 N 406.477 -1.02803 1.19454 0
M  V30 4441 C 407.424 -2.11099 0.933046 0
M  V30 4442 C 408.394 -1.65571 -0.132447 0
M  V30 4443 O 409.579 -1.90797 0.00987576 0
M  V30 4444 C 406.719 -3.41763 0.478747 0
M  V30 4445 C 405.832 -4.00833 1.6111 0
M  V30 4446 C 404.967 -5.19511 1.10825 0
M  V30 4447 C 404.006 -5.70639 2.21445 0
M  V30 4448 N 403.143 -6.80589 1.72461 0
M  V30 4449 H 407.983 -2.32804 1.86028 0
M  V30 4450 H 405.52 -1.14179 0.927441 0
M  V30 4451 H 407.478 -4.16736 0.196745 0
M  V30 4452 H 406.108 -3.20166 -0.411493 0
M  V30 4453 H 405.16 -3.23066 2.00829 0
M  V30 4454 H 406.472 -4.34794 2.4445 0
M  V30 4455 H 405.626 -6.01645 0.781533 0
M  V30 4456 H 404.365 -4.87086 0.244606 0
M  V30 4457 H 403.37 -4.87116 2.54947 0
M  V30 4458 H 404.595 -6.05102 3.08267 0
M  V30 4459 H 402.541 -6.50016 0.884056 0
M  V30 4460 H 402.458 -7.13681 2.49389 0
M  V30 4461 H 403.726 -7.66317 1.42755 0
M  V30 4462 N 407.956 -0.998596 -1.21925 0
M  V30 4463 C 409.203 -0.677663 -1.90824 0
M  V30 4464 C 409.531 0.790905 -1.77693 0
M  V30 4465 O 408.786 1.58817 -1.14349 0
M  V30 4466 C 409.085 -1.03648 -3.42041 0
M  V30 4467 C 408.751 -2.49825 -3.75364 0
M  V30 4468 C 407.413 -2.8977 -3.8417 0
M  V30 4469 C 409.765 -3.44545 -3.91073 0
M  V30 4470 C 407.093 -4.23412 -4.06127 0
M  V30 4471 C 409.445 -4.77853 -4.14535 0
M  V30 4472 C 408.109 -5.17531 -4.21566 0
M  V30 4473 H 407.379 -0.247975 -0.698276 0
M  V30 4474 H 410.026 -1.25584 -1.44571 0
M  V30 4475 H 408.331 -0.376457 -3.89987 0
M  V30 4476 H 410.028 -0.766113 -3.93614 0
M  V30 4477 H 406.618 -2.17866 -3.69097 0
M  V30 4478 H 410.802 -3.14853 -3.83642 0
M  V30 4479 H 406.058 -4.53734 -4.09799 0
M  V30 4480 H 410.232 -5.51189 -4.25633 0
M  V30 4481 H 407.859 -6.21102 -4.38333 0
M  V30 4482 N 409.434 1.37368 -0.772513 0
M  V30 4483 C 410.674 2.01512 -0.342361 0
M  V30 4484 C 411.038 1.59997 1.06136 0
M  V30 4485 O 412.239 2.16609 1.59167 0
M  V30 4486 C 410.51 3.54134 -0.482048 0
M  V30 4487 S 412.069 4.38585 -0.137272 0
M  V30 4488 H 408.887 0.698699 -0.131686 0
M  V30 4489 H 411.489 1.67552 -1.0073 0
M  V30 4490 H 410.193 3.81837 -1.50428 0
M  V30 4491 H 409.724 3.92894 0.199413 0
M  V30 4492 H 411.739 4.84594 1.06692 0
M  V30 4493 N 410.912 0.523116 1.48665 0
M  V30 4494 C 412.161 -0.01544 2.01694 0
M  V30 4495 C 412.474 -1.35975 1.40606 0
M  V30 4496 O 413.68 -1.98627 1.85093 0
M  V30 4497 C 412.136 -0.0779303 3.59816 0
M  V30 4498 C 411.744 1.26107 4.29885 0
M  V30 4499 C 413.488 -0.565678 4.20714 0
M  V30 4500 C 411.395 1.15954 5.79921 0
M  V30 4501 H 410.325 -0.00954163 0.75394 0
M  V30 4502 H 412.976 0.665865 1.70993 0
M  V30 4503 H 411.358 -0.824165 3.87329 0
M  V30 4504 H 412.532 2.02233 4.14051 0
M  V30 4505 H 410.847 1.68401 3.80828 0
M  V30 4506 H 413.444 -0.6595 5.30617 0
M  V30 4507 H 413.787 -1.56984 3.85567 0
M  V30 4508 H 414.32 0.12467 3.97605 0
M  V30 4509 H 411.059 2.13864 6.19631 0
M  V30 4510 H 410.579 0.439529 5.98187 0
M  V30 4511 H 412.258 0.847361 6.41427 0
M  V30 4512 N 412.39 -1.55475 0.257931 0
M  V30 4513 C 413.322 -2.19192 -0.669881 0
M  V30 4514 C 414.335 -1.17148 -1.1305 0
M  V30 4515 O 415.524 -1.43959 -1.05537 0
M  V30 4516 C 412.624 -2.79016 -1.92363 0
M  V30 4517 C 411.797 -4.06586 -1.61265 0
M  V30 4518 C 410.856 -4.50622 -2.7171 0
M  V30 4519 O 409.882 -5.16765 -2.38627 0
M  V30 4520 N 411.084 -4.19325 -4.01431 0
M  V30 4521 H 413.849 -2.99441 -0.124635 0
M  V30 4522 H 411.41 -1.6171 0.0783311 0
M  V30 4523 H 413.402 -3.05427 -2.65511 0
M  V30 4524 H 411.972 -2.0286 -2.37837 0
M  V30 4525 H 411.192 -3.87646 -0.715811 0
M  V30 4526 H 412.48 -4.89737 -1.37967 0
M  V30 4527 H 411.878 -3.66247 -4.31138 0
M  V30 4528 H 410.435 -4.50547 -4.7101 0
M  V30 4529 N 413.868 0.0150385 -1.57593 0
M  V30 4530 C 415.279 0.559832 -1.78109 0
M  V30 4531 C 415.63 1.74814 -0.890756 0
M  V30 4532 O 414.755 2.16216 -0.0892482 0
M  V30 4533 C 415.35 1.02238 -3.23006 0
M  V30 4534 C 413.909 1.51258 -3.44671 0
M  V30 4535 C 413.056 0.456955 -2.73509 0
M  V30 4536 H 416.007 -0.211169 -1.57289 0
M  V30 4537 H 416.028 1.88912 -3.30292 0
M  V30 4538 H 415.54 0.157302 -3.87781 0
M  V30 4539 H 413.641 2.39905 -2.8509 0
M  V30 4540 H 413.754 1.55042 -4.5332 0
M  V30 4541 H 412.118 0.915196 -2.37689 0
M  V30 4542 H 412.901 -0.398896 -3.40975 0
M  V30 4543 N 415.346 1.54954 0.287554 0
M  V30 4544 C 416.278 1.83224 1.37701 0
M  V30 4545 C 417.291 0.715898 1.46215 0
M  V30 4546 O 418.48 0.993565 1.48292 0
M  V30 4547 C 415.58 1.96723 2.75959 0
M  V30 4548 C 414.753 3.27253 2.90215 0
M  V30 4549 C 413.812 3.30998 4.09056 0
M  V30 4550 O 412.838 4.04457 4.00503 0
M  V30 4551 N 414.04 2.57353 5.20336 0
M  V30 4552 H 416.805 2.77254 1.138 0
M  V30 4553 H 414.366 1.54694 0.477652 0
M  V30 4554 H 416.358 1.96615 3.5373 0
M  V30 4555 H 414.928 1.09626 2.92747 0
M  V30 4556 H 414.148 3.40022 1.99447 0
M  V30 4557 H 415.436 4.13365 2.96659 0
M  V30 4558 H 414.834 1.97327 5.30169 0
M  V30 4559 H 413.391 2.62984 5.96391 0
M  V30 4560 N 416.824 -0.551391 1.4764 0
M  V30 4561 C 417.754 -1.66757 1.63445 0
M  V30 4562 C 418.735 -1.63077 0.483742 0
M  V30 4563 O 419.92 -1.80607 0.71377 0
M  V30 4564 C 417.05 -3.05387 1.65396 0
M  V30 4565 C 416.004 -3.23918 2.79752 0
M  V30 4566 C 415.33 -4.63393 2.66779 0
M  V30 4567 C 416.63 -3.08735 4.21284 0
M  V30 4568 H 418.324 -1.53786 2.56886 0
M  V30 4569 H 415.87 -0.738415 1.23626 0
M  V30 4570 H 417.823 -3.83325 1.75043 0
M  V30 4571 H 416.547 -3.19332 0.685195 0
M  V30 4572 H 415.206 -2.48391 2.69625 0
M  V30 4573 H 414.854 -4.74144 1.67918 0
M  V30 4574 H 414.554 -4.7674 3.43501 0
M  V30 4575 H 416.078 -5.43458 2.78364 0
M  V30 4576 H 417.492 -3.76484 4.32357 0
M  V30 4577 H 415.889 -3.33588 4.98838 0
M  V30 4578 H 416.959 -2.0541 4.39243 0
M  V30 4579 N 418.302 -1.35869 -0.798587 0
M  V30 4580 C 419.713 -1.26498 -1.37314 0
M  V30 4581 C 420.064 0.0991899 -1.95949 0
M  V30 4582 O 419.189 1.0004 -1.91888 0
M  V30 4583 C 419.784 -2.29054 -2.49639 0
M  V30 4584 C 418.343 -2.234 -3.02935 0
M  V30 4585 C 417.49 -2.14329 -1.75949 0
M  V30 4586 H 420.441 -1.46881 -0.600971 0
M  V30 4587 H 420.462 -1.92166 -3.28409 0
M  V30 4588 H 419.974 -3.2833 -2.06933 0
M  V30 4589 H 418.075 -1.27562 -3.50084 0
M  V30 4590 H 418.188 -3.15703 -3.60372 0
M  V30 4591 H 416.552 -1.60435 -1.9782 0
M  V30 4592 H 417.335 -3.15477 -1.35384 0
M  V30 4593 N 419.78 1.02168 -1.19998 0
M  V30 4594 C 421.057 1.72816 -0.916191 0
M  V30 4595 C 421.437 2.03081 0.576325 0
M  V30 4596 O 420.785 1.69122 1.53656 0
M  V30 4597 C 420.995 2.9997 -1.78378 0
M  V30 4598 C 422.343 3.73336 -2.02251 0
M  V30 4599 O 423.367 3.09914 -1.75589 0
M  V30 4600 O 422.226 4.87371 -2.47249 0
M  V30 4601 H 419.32 0.752924 -0.342103 0
M  V30 4602 H 421.866 1.08062 -1.30846 0
M  V30 4603 H 420.638 2.73888 -2.79466 0
M  V30 4604 H 420.261 3.72464 -1.39126 0
M  V30 4605 N 421.258 1.00505 1.21394 0
M  V30 4606 C 422.506 0.686415 1.90086 0
M  V30 4607 C 422.827 -0.785264 1.7849 0
M  V30 4608 O 422.097 -1.56387 1.17983 0
M  V30 4609 H 420.677 0.2509 0.703604 0
M  V30 4610 H 423.339 1.27417 1.47482 0
M  V30 4611 H 422.435 0.959621 2.96981 0
M  V30 4612 N 422.737 -1.36956 0.779787 0
M  V30 4613 C 423.977 -2.01328 0.353043 0
M  V30 4614 C 424.341 -1.60558 -1.05286 0
M  V30 4615 O 425.542 -2.1745 -1.58016 0
M  V30 4616 C 423.813 -3.53874 0.500822 0
M  V30 4617 S 425.372 -4.38506 0.16053 0
M  V30 4618 H 422.19 -0.69799 0.13539 0
M  V30 4619 H 424.792 -1.67016 1.01617 0
M  V30 4620 H 423.496 -3.81034 1.52451 0
M  V30 4621 H 423.027 -3.92994 -0.178574 0
M  V30 4622 H 425.042 -4.85153 -1.04121 0
M  V30 4623 N 424.215 -0.530993 -1.48385 0
M  V30 4624 C 425.162 0.231223 -2.29639 0
M  V30 4625 C 426.132 0.932864 -1.37429 0
M  V30 4626 O 427.317 0.933692 -1.66394 0
M  V30 4627 C 424.457 1.27155 -3.2082 0
M  V30 4628 C 423.57 0.578655 -4.28107 0
M  V30 4629 C 422.705 1.602 -5.06467 0
M  V30 4630 C 421.744 0.892625 -6.05556 0
M  V30 4631 N 420.881 1.86157 -6.76971 0
M  V30 4632 H 425.721 -0.467848 -2.94305 0
M  V30 4633 H 423.258 -0.242556 -1.45086 0
M  V30 4634 H 425.216 1.88703 -3.72085 0
M  V30 4635 H 423.846 1.939 -2.58075 0
M  V30 4636 H 422.898 -0.150782 -3.80101 0
M  V30 4637 H 424.21 0.0217065 -4.98795 0
M  V30 4638 H 423.364 2.29173 -5.61751 0
M  V30 4639 H 422.103 2.19285 -4.35621 0
M  V30 4640 H 421.108 0.188829 -5.49476 0
M  V30 4641 H 422.333 0.307878 -6.78402 0
M  V30 4642 H 420.279 2.44147 -6.08875 0
M  V30 4643 H 420.196 1.35608 -7.43738 0
M  V30 4644 H 421.464 2.54325 -7.36844 0
M  V30 4645 N 425.693 1.55336 -0.266172 0
M  V30 4646 C 426.656 2.20878 0.612001 0
M  V30 4647 C 427.656 1.18388 1.08816 0
M  V30 4648 O 428.846 1.4335 0.989774 0
M  V30 4649 C 425.978 2.86765 1.84332 0
M  V30 4650 H 427.171 2.99873 0.0398718 0
M  V30 4651 H 424.724 1.56291 -0.0167309 0
M  V30 4652 H 425.459 2.11759 2.45619 0
M  V30 4653 H 425.244 3.61862 1.5099 0
M  V30 4654 H 426.734 3.36867 2.46801 0
M  V30 4655 N 427.171 -0.0066808 1.57599 0
M  V30 4656 C 428.582 -0.550379 1.78403 0
M  V30 4657 C 428.933 -1.74339 0.900014 0
M  V30 4658 O 428.058 -2.16166 0.100713 0
M  V30 4659 C 428.653 -1.00523 3.23544 0
M  V30 4660 C 427.212 -1.49428 3.45468 0
M  V30 4661 C 426.359 -0.442444 2.73748 0
M  V30 4662 H 429.31 0.219508 1.57175 0
M  V30 4663 H 429.331 -1.87157 3.31289 0
M  V30 4664 H 428.843 -0.136735 3.87859 0
M  V30 4665 H 426.944 -2.3839 2.86358 0
M  V30 4666 H 427.057 -1.52635 4.54136 0
M  V30 4667 H 425.421 -0.902578 2.38171 0
M  V30 4668 H 426.204 0.416973 3.40758 0
M  V30 4669 N 428.649 -1.55105 -0.279332 0
M  V30 4670 C 430.065 -1.46803 -0.626187 0
M  V30 4671 C 430.265 -0.676939 -1.89789 0
M  V30 4672 O 429.321 -0.19326 -2.51759 0
M  V30 4673 C 430.634 -2.90962 -0.759034 0
M  V30 4674 C 432.182 -3.01138 -0.853504 0
M  V30 4675 C 432.657 -4.46539 -1.01818 0
M  V30 4676 N 434.148 -4.50341 -1.08386 0
M  V30 4677 C 434.883 -5.60053 -1.22996 0
M  V30 4678 N 434.379 -6.79645 -1.34366 0
M  V30 4679 N 436.172 -5.47783 -1.26056 0
M  V30 4680 H 428.323 -2.04996 0.555921 0
M  V30 4681 H 430.586 -0.929325 0.187239 0
M  V30 4682 H 430.292 -3.51544 0.104852 0
M  V30 4683 H 430.166 -3.39619 -1.64131 0
M  V30 4684 H 432.553 -2.40658 -1.70786 0
M  V30 4685 H 432.634 -2.55745 0.0532466 0
M  V30 4686 H 432.278 -5.0762 -0.168504 0
M  V30 4687 H 432.208 -4.89583 -1.93948 0
M  V30 4688 H 434.699 -3.64191 -1.00864 0
M  V30 4689 H 435.012 -7.59012 -1.4533 0
M  V30 4690 H 433.357 -6.82469 -1.31382 0
M  V30 4691 H 436.548 -4.53294 -1.168 0
M  V30 4692 H 436.721 -6.33331 -1.37098 0
M  V30 4693 N 430.127 0.543554 -1.4793 0
M  V30 4694 C 431.057 1.65888 -1.64327 0
M  V30 4695 C 432.038 1.62818 -0.492383 0
M  V30 4696 O 433.223 1.80226 -0.723338 0
M  V30 4697 C 430.353 3.04506 -1.67013 0
M  V30 4698 C 429.307 3.2243 -2.81466 0
M  V30 4699 C 428.633 4.61972 -2.69233 0
M  V30 4700 C 429.933 3.06496 -4.22915 0
M  V30 4701 H 431.627 1.52421 -2.57698 0
M  V30 4702 H 429.173 0.731849 -1.24016 0
M  V30 4703 H 431.126 3.82391 -1.77074 0
M  V30 4704 H 429.85 3.18964 -0.70212 0
M  V30 4705 H 428.509 2.46957 -2.70938 0
M  V30 4706 H 428.157 4.73247 -1.7043 0
M  V30 4707 H 427.857 4.74911 -3.46025 0
M  V30 4708 H 429.381 5.41974 -2.81242 0
M  V30 4709 H 430.795 3.74186 -4.34348 0
M  V30 4710 H 429.192 3.30938 -5.006 0
M  V30 4711 H 430.262 2.03077 -4.40327 0
M  V30 4712 N 431.605 1.3629 0.791371 0
M  V30 4713 C 432.851 1.30605 1.55146 0
M  V30 4714 C 433.184 -0.115042 1.93859 0
M  V30 4715 O 432.459 -1.06798 1.62556 0
M  V30 4716 C 432.742 2.22692 2.82985 0
M  V30 4717 C 432.595 3.73489 2.50651 0
M  V30 4718 C 433.914 2.13588 3.84796 0
M  V30 4719 H 431.033 0.475761 0.562868 0
M  V30 4720 H 433.675 1.66825 0.909358 0
M  V30 4721 H 431.825 1.91933 3.37778 0
M  V30 4722 H 433.497 4.14758 2.01924 0
M  V30 4723 H 431.74 3.93021 1.83622 0
M  V30 4724 H 432.411 4.3333 3.41949 0
M  V30 4725 H 434.887 2.40659 3.39445 0
M  V30 4726 H 433.763 2.80195 4.71998 0
M  V30 4727 H 434.024 1.12256 4.27611 0
M  V30 4728 N 433.083 -1.0153 1.20538 0
M  V30 4729 C 434.308 -1.79283 1.04271 0
M  V30 4730 C 434.733 -1.8372 -0.403544 0
M  V30 4731 O 434.091 -1.27321 -1.2907 0
M  V30 4732 C 434.139 -3.21535 1.63241 0
M  V30 4733 O 433.243 -4.03099 0.870908 0
M  V30 4734 H 432.584 -0.55293 0.367647 0
M  V30 4735 H 435.114 -1.27696 1.59859 0
M  V30 4736 H 435.124 -3.72243 1.6703 0
M  V30 4737 H 433.799 -3.1762 2.68497 0
M  V30 4738 H 432.376 -3.61693 0.907323 0
M  V30 4739 N 434.561 -1.01147 -1.20859 0
M  V30 4740 C 435.493 -0.535546 -2.22855 0
M  V30 4741 C 436.506 0.379323 -1.58319 0
M  V30 4742 O 437.695 0.178489 -1.77605 0
M  V30 4743 C 434.795 0.240962 -3.38042 0
M  V30 4744 C 433.968 -0.674562 -4.32167 0
M  V30 4745 C 433.027 0.053467 -5.26173 0
M  V30 4746 O 432.053 -0.567339 -5.66366 0
M  V30 4747 N 433.255 1.32997 -5.65059 0
M  V30 4748 H 436.02 -1.41268 -2.64317 0
M  V30 4749 H 433.581 -0.888386 -1.35349 0
M  V30 4750 H 435.573 0.737115 -3.97931 0
M  V30 4751 H 434.143 1.01935 -2.95513 0
M  V30 4752 H 433.363 -1.35111 -3.70322 0
M  V30 4753 H 434.651 -1.2974 -4.91981 0
M  V30 4754 H 434.049 1.85536 -5.34409 0
M  V30 4755 H 432.606 1.77095 -6.2728 0
M  V30 4756 N 436.039 1.36541 -0.78704 0
M  V30 4757 C 436.969 2.32659 -0.197992 0
M  V30 4758 C 437.95 1.56533 0.665697 0
M  V30 4759 O 439.135 1.84698 0.60001 0
M  V30 4760 C 436.265 3.40778 0.669901 0
M  V30 4761 C 435.219 4.27897 -0.0937039 0
M  V30 4762 C 434.545 5.27163 0.894629 0
M  V30 4763 C 435.845 5.06334 -1.28154 0
M  V30 4764 H 437.539 2.82171 -1.00099 0
M  V30 4765 H 435.085 1.35665 -0.482793 0
M  V30 4766 H 437.038 4.07008 1.09191 0
M  V30 4767 H 435.762 2.89827 1.50558 0
M  V30 4768 H 434.421 3.6322 -0.49666 0
M  V30 4769 H 434.069 4.72486 1.72527 0
M  V30 4770 H 433.769 5.86317 0.388149 0
M  V30 4771 H 435.293 5.96266 1.31525 0
M  V30 4772 H 436.707 5.65617 -0.93541 0
M  V30 4773 H 435.104 5.74888 -1.72115 0
M  V30 4774 H 436.174 4.38114 -2.07807 0
M  V30 4775 N 437.518 0.538854 1.48102 0
M  V30 4776 C 438.468 -0.23907 2.26743 0
M  V30 4777 C 439.452 -0.901923 1.33245 0
M  V30 4778 O 440.644 -0.803263 1.57723 0
M  V30 4779 C 437.773 -1.2799 3.18549 0
M  V30 4780 C 436.859 -0.621388 4.19523 0
M  V30 4781 N 437.25 0.298004 5.04921 0
M  V30 4782 C 435.548 -0.877533 4.37282 0
M  V30 4783 C 436.249 0.678757 5.77726 0
M  V30 4784 N 435.225 0.0377881 5.43587 0
M  V30 4785 H 439.027 0.468096 2.90148 0
M  V30 4786 H 436.541 0.357497 1.58416 0
M  V30 4787 H 438.538 -1.851 3.73555 0
M  V30 4788 H 437.198 -1.98835 2.567 0
M  V30 4789 H 438.209 0.671126 5.13533 0
M  V30 4790 H 434.886 -1.57588 3.86616 0
M  V30 4791 H 436.276 1.43316 6.56437 0
M  V30 4792 N 438.996 -1.55193 0.274407 0
M  V30 4793 C 440.243 -1.99581 -0.342579 0
M  V30 4794 C 440.571 -1.1628 -1.55914 0
M  V30 4795 O 439.826 -0.22029 -1.94456 0
M  V30 4796 C 440.125 -3.49019 -0.769458 0
M  V30 4797 C 439.791 -4.49598 0.342389 0
M  V30 4798 C 438.453 -4.76821 0.647686 0
M  V30 4799 C 440.805 -5.0964 1.09163 0
M  V30 4800 C 438.133 -5.61354 1.70581 0
M  V30 4801 C 440.485 -5.95323 2.13948 0
M  V30 4802 C 439.149 -6.20867 2.45113 0
M  V30 4803 H 438.419 -0.730319 -0.125358 0
M  V30 4804 H 441.066 -1.87529 0.387971 0
M  V30 4805 H 439.371 -3.58544 -1.57967 0
M  V30 4806 H 441.068 -3.8077 -1.25757 0
M  V30 4807 H 437.658 -4.28496 0.094318 0
M  V30 4808 H 441.842 -4.88632 0.869024 0
M  V30 4809 H 437.098 -5.79392 1.9523 0
M  V30 4810 H 441.272 -6.40881 2.72478 0
M  V30 4811 H 438.899 -6.86162 3.27239 0
M  V30 4812 N 440.474 -0.00167713 -1.576 0
M  V30 4813 C 441.702 0.693759 -1.94922 0
M  V30 4814 C 442.117 1.67215 -0.876626 0
M  V30 4815 O 441.474 1.81929 0.144279 0
M  V30 4816 C 441.525 1.42416 -3.32265 0
M  V30 4817 O 441.246 0.485014 -4.35407 0
M  V30 4818 C 442.747 2.21395 -3.84056 0
M  V30 4819 H 439.967 0.193118 -0.642609 0
M  V30 4820 H 442.511 -0.0532952 -2.04431 0
M  V30 4821 H 440.666 2.12284 -3.24059 0
M  V30 4822 H 441.08 1.00053 -5.14868 0
M  V30 4823 H 442.554 2.67996 -4.82578 0
M  V30 4824 H 443.031 3.04142 -3.16851 0
M  V30 4825 H 443.637 1.56542 -3.95443 0
M  V30 4826 N 441.952 1.55251 0.271103 0
M  V30 4827 C 443.177 1.80306 1.02491 0
M  V30 4828 C 443.602 0.575457 1.79081 0
M  V30 4829 O 442.96 -0.474987 1.74967 0
M  V30 4830 C 443.008 3.02832 1.95768 0
M  V30 4831 O 442.112 2.78051 3.04568 0
M  V30 4832 H 441.453 0.595896 0.292923 0
M  V30 4833 H 443.983 2.02397 0.299436 0
M  V30 4834 H 443.993 3.31616 2.37686 0
M  V30 4835 H 442.668 3.9183 1.39434 0
M  V30 4836 H 441.245 2.60369 2.66951 0
M  V30 4837 N 443.43 -0.535701 1.48216 0
M  V30 4838 C 444.676 -1.2913 1.57153 0
M  V30 4839 C 445.031 -1.90899 0.239823 0
M  V30 4840 O 444.324 -1.76022 -0.756748 0
M  V30 4841 C 444.518 -2.4068 2.64212 0
M  V30 4842 C 444.347 -1.89844 4.07663 0
M  V30 4843 C 443.117 -1.72708 4.74869 0
M  V30 4844 C 445.315 -1.43031 4.94011 0
M  V30 4845 N 443.297 -1.16437 6.02757 0
M  V30 4846 C 444.668 -0.986691 6.12098 0
M  V30 4847 C 446.723 -1.3128 4.80281 0
M  V30 4848 C 445.426 -0.437231 7.1797 0
M  V30 4849 C 447.452 -0.777346 5.86269 0
M  V30 4850 C 446.814 -0.343774 7.03561 0
M  V30 4851 H 442.913 -0.463753 0.629648 0
M  V30 4852 H 445.497 -0.604736 1.8507 0
M  V30 4853 H 443.668 -3.06839 2.38126 0
M  V30 4854 H 445.4 -3.07706 2.62867 0
M  V30 4855 H 442.155 -1.96061 4.31111 0
M  V30 4856 H 442.579 -0.903281 6.70947 0
M  V30 4857 H 447.221 -1.63408 3.89946 0
M  V30 4858 H 444.939 -0.103621 8.08034 0
M  V30 4859 H 448.525 -0.689688 5.77698 0
M  V30 4860 H 447.405 0.0641219 7.84174 0
M  V30 4861 N 444.908 -1.36708 -0.784132 0
M  V30 4862 C 446.319 -1.27947 -1.35965 0
M  V30 4863 C 446.67 0.0784013 -1.96043 0
M  V30 4864 O 445.795 0.979989 -1.92938 0
M  V30 4865 C 446.39 -2.31689 -2.47195 0
M  V30 4866 C 444.949 -2.26601 -3.00548 0
M  V30 4867 C 444.096 -2.16184 -1.73666 0
M  V30 4868 H 447.047 -1.4751 -0.585358 0
M  V30 4869 H 447.068 -1.95638 -3.26352 0
M  V30 4870 H 446.58 -3.30506 -2.03439 0
M  V30 4871 H 444.681 -1.31268 -3.48711 0
M  V30 4872 H 444.794 -3.19508 -3.57004 0
M  V30 4873 H 443.158 -1.62524 -1.96107 0
M  V30 4874 H 443.941 -3.16896 -1.32031 0
M  V30 4875 N 446.386 1.0089 -1.21074 0
M  V30 4876 C 447.663 1.71834 -0.934469 0
M  V30 4877 C 448.043 2.0368 0.554753 0
M  V30 4878 O 447.391 1.70742 1.51854 0
M  V30 4879 C 447.601 2.98061 -1.8155 0
M  V30 4880 C 448.949 3.7117 -2.06199 0
M  V30 4881 O 449.973 3.08034 -1.78867 0
M  V30 4882 O 448.832 4.84721 -2.52404 0
M  V30 4883 H 445.926 0.749253 -0.35007 0
M  V30 4884 H 448.472 1.06668 -1.31985 0
M  V30 4885 H 447.244 2.70908 -2.82355 0
M  V30 4886 H 446.867 3.70968 -1.43068 0
M  V30 4887 N 447.864 1.01787 1.20321 0
M  V30 4888 C 449.111 0.707936 1.89722 0
M  V30 4889 C 449.439 -0.762535 1.78929 0
M  V30 4890 O 448.694 -1.56977 1.16861 0
M  V30 4891 C 448.993 1.09076 3.40349 0
M  V30 4892 C 448.659 2.55765 3.71342 0
M  V30 4893 C 447.321 2.95845 3.79511 0
M  V30 4894 C 449.673 3.50723 3.85542 0
M  V30 4895 C 447.001 4.2982 3.99339 0
M  V30 4896 C 449.353 4.84387 4.06881 0
M  V30 4897 C 448.017 5.24172 4.1328 0
M  V30 4898 H 447.287 0.259052 0.694243 0
M  V30 4899 H 449.934 1.27868 1.42555 0
M  V30 4900 H 448.239 0.438453 3.89339 0
M  V30 4901 H 449.936 0.828636 3.92345 0
M  V30 4902 H 446.526 2.2371 3.65584 0
M  V30 4903 H 450.71 3.20916 3.78585 0
M  V30 4904 H 445.966 4.60196 4.02529 0
M  V30 4905 H 450.14 5.57891 4.1681 0
M  V30 4906 H 447.767 6.27997 4.28396 0
M  V30 4907 N 449.342 -1.36122 0.79427 0
M  V30 4908 C 450.59 -1.98718 0.368177 0
M  V30 4909 C 450.911 -1.63345 -1.06506 0
M  V30 4910 O 450.181 -0.909825 -1.73491 0
M  V30 4911 H 448.761 -0.735038 0.133146 0
M  V30 4912 H 451.423 -1.66239 1.01739 0
M  V30 4913 H 450.519 -3.08633 0.463923 0
M  V30 4914 N 450.82 -0.546701 -1.47814 0
M  V30 4915 C 452.066 -0.0187684 -2.02791 0
M  V30 4916 C 452.399 1.32338 -1.42128 0
M  V30 4917 O 451.674 1.85867 -0.573023 0
M  V30 4918 C 451.957 0.0854985 -3.59998 0
M  V30 4919 C 451.81 -1.283 -4.31114 0
M  V30 4920 C 453.129 0.80412 -4.32691 0
M  V30 4921 H 450.248 -0.0082946 -0.736953 0
M  V30 4922 H 452.89 -0.706962 -1.76358 0
M  V30 4923 H 451.04 0.671609 -3.82651 0
M  V30 4924 H 452.712 -1.91151 -4.19832 0
M  V30 4925 H 450.955 -1.86049 -3.91878 0
M  V30 4926 H 451.626 -1.16287 -5.39612 0
M  V30 4927 H 454.102 0.306576 -4.14969 0
M  V30 4928 H 452.978 0.846011 -5.42341 0
M  V30 4929 H 453.239 1.85802 -4.01161 0
M  V30 4930 N 452.299 1.55045 -0.282633 0
M  V30 4931 C 453.71 1.85473 0.213655 0
M  V30 4932 C 454.061 1.20465 1.54863 0
M  V30 4933 O 453.186 0.495676 2.10647 0
M  V30 4934 C 453.781 3.36496 0.394445 0
M  V30 4935 C 452.34 3.67022 0.834961 0
M  V30 4936 C 451.487 2.77218 -0.0674081 0
M  V30 4937 H 454.438 1.50478 -0.504202 0
M  V30 4938 H 454.459 3.60007 1.23186 0
M  V30 4939 H 453.971 3.83782 -0.577326 0
M  V30 4940 H 452.072 3.25241 1.81794 0
M  V30 4941 H 452.185 4.74433 0.667075 0
M  V30 4942 H 450.549 2.5069 0.450196 0
M  V30 4943 H 451.332 3.2732 -1.0352 0
M  V30 4944 N 453.777 0.010035 1.57597 0
M  V30 4945 C 455.024 -0.6727 1.91 0
M  V30 4946 C 455.352 -1.73219 0.884614 0
M  V30 4947 O 454.607 -1.95395 -0.109215 0
M  V30 4948 C 454.906 -1.34434 3.31153 0
M  V30 4949 C 454.572 -0.417083 4.48967 0
M  V30 4950 C 453.234 -0.161809 4.80928 0
M  V30 4951 C 455.586 0.220753 5.20732 0
M  V30 4952 C 452.914 0.739426 5.82022 0
M  V30 4953 C 455.266 1.10993 6.22787 0
M  V30 4954 C 453.93 1.37428 6.532 0
M  V30 4955 H 453.2 -0.246158 0.698918 0
M  V30 4956 H 455.847 0.0677145 1.9138 0
M  V30 4957 H 454.152 -2.15905 3.26944 0
M  V30 4958 H 455.849 -1.87883 3.54261 0
M  V30 4959 H 452.439 -0.626217 4.24001 0
M  V30 4960 H 456.623 0.0365643 4.96287 0
M  V30 4961 H 451.879 0.952139 6.03941 0
M  V30 4962 H 456.053 1.61046 6.77523 0
M  V30 4963 H 453.68 2.0743 7.31353 0
M  V30 4964 N 455.255 -1.55392 -0.262866 0
M  V30 4965 C 456.483 -1.80513 -1.01108 0
M  V30 4966 C 456.898 -0.583533 -1.79556 0
M  V30 4967 O 456.255 0.447585 -1.76926 0
M  V30 4968 C 456.306 -3.03648 -1.96164 0
M  V30 4969 O 456.027 -4.2109 -1.20893 0
M  V30 4970 C 457.528 -3.41448 -2.82715 0
M  V30 4971 H 454.748 -0.601079 -0.298236 0
M  V30 4972 H 457.292 -2.02425 -0.290582 0
M  V30 4973 H 455.447 -2.83832 -2.63663 0
M  V30 4974 H 455.861 -4.90771 -1.85051 0
M  V30 4975 H 457.335 -4.30751 -3.45192 0
M  V30 4976 H 457.812 -2.61308 -3.53008 0
M  V30 4977 H 458.418 -3.63559 -2.20693 0
M  V30 4978 N 456.733 0.527833 -1.48498 0
M  V30 4979 C 458.144 1.10975 -1.50138 0
M  V30 4980 C 458.495 1.943 -0.272378 0
M  V30 4981 O 457.62 2.07319 0.620301 0
M  V30 4982 C 458.215 2.01927 -2.72049 0
M  V30 4983 C 456.774 2.55332 -2.76554 0
M  V30 4984 C 455.921 1.32341 -2.43683 0
M  V30 4985 H 458.872 0.312986 -1.55583 0
M  V30 4986 H 458.893 2.86244 -2.50689 0
M  V30 4987 H 458.405 1.41254 -3.61481 0
M  V30 4988 H 456.506 3.19721 -1.91336 0
M  V30 4989 H 456.619 2.94319 -3.78038 0
M  V30 4990 H 454.983 1.63989 -1.94884 0
M  V30 4991 H 455.766 0.734165 -3.35358 0
M  V30 4992 N 458.211 1.37122 0.776871 0
M  V30 4993 C 459.46 1.31373 1.53049 0
M  V30 4994 C 459.773 -0.101016 1.95339 0
M  V30 4995 O 460.979 -0.280953 2.70042 0
M  V30 4996 C 459.435 2.30567 2.76346 0
M  V30 4997 C 459.043 3.77543 2.41175 0
M  V30 4998 C 460.787 2.33818 3.54301 0
M  V30 4999 C 458.694 4.68481 3.60943 0
M  V30 5000 H 457.624 0.488234 0.574581 0
M  V30 5001 H 460.275 1.62554 0.851372 0
M  V30 5002 H 458.657 1.92396 3.46121 0
M  V30 5003 H 459.831 4.24521 1.79216 0
M  V30 5004 H 458.146 3.77187 1.76405 0
M  V30 5005 H 460.743 2.98965 4.4331 0
M  V30 5006 H 461.086 1.3503 3.93793 0
M  V30 5007 H 461.619 2.7067 2.91518 0
M  V30 5008 H 458.358 5.68378 3.26537 0
M  V30 5009 H 457.878 4.2621 4.22025 0
M  V30 5010 H 459.557 4.85366 4.27819 0
M  V30 5011 N 459.689 -1.00246 1.21608 0
M  V30 5012 C 460.937 -1.73717 1.0328 0
M  V30 5013 C 461.258 -1.90102 -0.434318 0
M  V30 5014 O 460.528 -1.45376 -1.31311 0
M  V30 5015 H 459.108 -0.643613 0.379172 0
M  V30 5016 H 461.77 -1.20787 1.52959 0
M  V30 5017 H 460.866 -2.73535 1.50283 0
M  V30 5018 N 461.167 -1.02423 -1.1978 0
M  V30 5019 C 462.1 -0.545641 -2.21581 0
M  V30 5020 C 463.078 0.411024 -1.57319 0
M  V30 5021 O 464.262 0.329223 -1.85603 0
M  V30 5022 C 461.389 0.204973 -3.38079 0
M  V30 5023 C 460.435 -0.70241 -4.20676 0
M  V30 5024 S 461.268 -2.17595 -4.89298 0
M  V30 5025 C 462.424 -1.43572 -6.09211 0
M  V30 5026 H 462.657 -1.4082 -2.61834 0
M  V30 5027 H 460.19 -0.833771 -1.29952 0
M  V30 5028 H 462.148 0.631924 -4.05607 0
M  V30 5029 H 460.809 1.0432 -2.9627 0
M  V30 5030 H 460.002 -0.123193 -5.03849 0
M  V30 5031 H 459.604 -1.06747 -3.58442 0
M  V30 5032 H 461.896 -0.719806 -6.73665 0
M  V30 5033 H 462.839 -2.24388 -6.71607 0
M  V30 5034 H 463.247 -0.935252 -5.56699 0
M  V30 5035 N 462.645 1.35699 -0.801477 0
M  V30 5036 C 463.575 2.32436 -0.222658 0
M  V30 5037 C 464.556 1.5723 0.649057 0
M  V30 5038 O 465.741 1.85324 0.580387 0
M  V30 5039 C 462.871 3.41469 0.633719 0
M  V30 5040 C 461.825 4.27774 -0.139083 0
M  V30 5041 C 461.151 5.28082 0.838666 0
M  V30 5042 C 462.451 5.04946 -1.33517 0
M  V30 5043 H 464.145 2.81094 -1.03086 0
M  V30 5044 H 461.691 1.35146 -0.497155 0
M  V30 5045 H 463.644 4.08143 1.04868 0
M  V30 5046 H 462.368 2.91408 1.47475 0
M  V30 5047 H 461.027 3.62673 -0.535156 0
M  V30 5048 H 460.675 4.7429 1.67506 0
M  V30 5049 H 460.375 5.86695 0.32594 0
M  V30 5050 H 461.899 5.97628 1.25194 0
M  V30 5051 H 463.313 5.64593 -0.995349 0
M  V30 5052 H 461.71 5.7303 -1.78202 0
M  V30 5053 H 462.78 4.35886 -2.12442 0
M  V30 5054 N 464.123 0.554532 1.47522 0
M  V30 5055 C 465.07 -0.19466 2.29978 0
M  V30 5056 C 466.04 -0.910882 1.38896 0
M  V30 5057 O 467.225 -0.907102 1.67858 0
M  V30 5058 C 464.365 -1.22035 3.22802 0
M  V30 5059 C 463.478 -0.510474 4.28973 0
M  V30 5060 C 462.613 -1.52123 5.08952 0
M  V30 5061 C 461.652 -0.796173 6.069 0
M  V30 5062 N 460.789 -1.75363 6.79847 0
M  V30 5063 H 465.629 0.51461 2.93523 0
M  V30 5064 H 463.166 0.265607 1.44682 0
M  V30 5065 H 465.124 -1.8276 3.7504 0
M  V30 5066 H 463.754 -1.89769 2.61127 0
M  V30 5067 H 462.806 0.211234 3.79813 0
M  V30 5068 H 464.118 0.0576503 4.98767 0
M  V30 5069 H 463.272 -2.20207 5.65326 0
M  V30 5070 H 462.011 -2.12327 4.39054 0
M  V30 5071 H 461.016 -0.101388 5.49707 0
M  V30 5072 H 462.241 -0.199911 6.78806 0
M  V30 5073 H 460.187 -2.3443 6.12682 0
M  V30 5074 H 460.104 -1.23759 7.45801 0
M  V30 5075 H 461.372 -2.4257 7.40797 0
M  V30 5076 N 465.601 -1.54893 0.290851 0
M  V30 5077 C 466.848 -1.99933 -0.321391 0
M  V30 5078 C 467.176 -1.17927 -1.54672 0
M  V30 5079 O 466.431 -0.240902 -1.94212 0
M  V30 5080 C 466.73 -3.49815 -0.732397 0
M  V30 5081 C 466.396 -4.4921 0.390056 0
M  V30 5082 C 465.058 -4.76107 0.698223 0
M  V30 5083 C 467.41 -5.08453 1.14562 0
M  V30 5084 C 464.738 -5.59514 1.76526 0
M  V30 5085 C 467.09 -5.9302 2.2025 0
M  V30 5086 C 465.754 -6.18232 2.51684 0
M  V30 5087 H 465.024 -0.731608 -0.117605 0
M  V30 5088 H 467.671 -1.87107 0.407839 0
M  V30 5089 H 465.976 -3.60199 -1.54155 0
M  V30 5090 H 467.673 -3.82083 -1.21712 0
M  V30 5091 H 464.263 -4.28372 0.13976 0
M  V30 5092 H 468.447 -4.87683 0.920801 0
M  V30 5093 H 463.703 -5.77289 2.01364 0
M  V30 5094 H 467.877 -6.37955 2.7926 0
M  V30 5095 H 465.504 -6.82653 3.34499 0
M  V30 5096 N 467.08 -0.0183926 -1.57589 0
M  V30 5097 C 468.01 0.965596 -2.12599 0
M  V30 5098 C 468.991 1.34641 -1.0395 0
M  V30 5099 O 470.176 1.42693 -1.31729 0
M  V30 5100 C 467.306 2.25149 -2.64434 0
M  V30 5101 C 466.26 2.01175 -3.77773 0
M  V30 5102 C 465.586 3.35937 -4.15994 0
M  V30 5103 C 466.886 1.35953 -5.04296 0
M  V30 5104 H 468.58 0.507504 -2.95067 0
M  V30 5105 H 466.126 0.242671 -1.41941 0
M  V30 5106 H 468.079 2.94357 -3.01549 0
M  V30 5107 H 466.803 2.73105 -1.79112 0
M  V30 5108 H 465.462 1.34388 -3.4108 0
M  V30 5109 H 465.11 3.81631 -3.27669 0
M  V30 5110 H 464.81 3.20705 -4.92364 0
M  V30 5111 H 466.334 4.0643 -4.55683 0
M  V30 5112 H 467.748 1.95144 -5.39065 0
M  V30 5113 H 466.145 1.31152 -5.85593 0
M  V30 5114 H 467.215 0.331071 -4.83768 0
M  V30 5115 N 468.558 1.5553 0.254621 0
M  V30 5116 C 469.505 1.89666 1.31512 0
M  V30 5117 C 470.475 0.750057 1.482 0
M  V30 5118 O 471.66 1.00301 1.62309 0
M  V30 5119 C 468.8 2.19009 2.667 0
M  V30 5120 C 467.913 3.46435 2.58083 0
M  V30 5121 C 467.048 3.65386 3.85573 0
M  V30 5122 C 466.087 4.8644 3.71541 0
M  V30 5123 N 465.224 5.01952 4.90906 0
M  V30 5124 H 470.064 2.80109 1.017 0
M  V30 5125 H 467.601 1.38666 0.490938 0
M  V30 5126 H 469.559 2.34025 3.45381 0
M  V30 5127 H 468.189 1.31779 2.94676 0
M  V30 5128 H 467.241 3.39792 1.71013 0
M  V30 5129 H 468.553 4.35258 2.43622 0
M  V30 5130 H 467.707 3.80319 4.72697 0
M  V30 5131 H 466.446 2.74781 4.02922 0
M  V30 5132 H 465.451 4.71491 2.82801 0
M  V30 5133 H 466.676 5.78497 3.55694 0
M  V30 5134 H 464.622 4.14283 5.08631 0
M  V30 5135 H 464.539 5.84851 4.79046 0
M  V30 5136 H 465.807 5.21289 5.7955 0
M  V30 5137 N 470.036 -0.519951 1.48776 0
M  V30 5138 C 470.983 -1.62352 1.64044 0
M  V30 5139 C 471.953 -1.58945 0.482251 0
M  V30 5140 O 473.138 -1.77219 0.706971 0
M  V30 5141 C 470.278 -3.00579 1.69547 0
M  V30 5142 C 469.391 -3.14145 2.96541 0
M  V30 5143 C 468.526 -4.42991 2.93142 0
M  V30 5144 C 467.565 -4.50122 4.14797 0
M  V30 5145 N 466.702 -5.7037 4.09418 0
M  V30 5146 H 471.542 -1.48643 2.58281 0
M  V30 5147 H 469.079 -0.723516 1.28077 0
M  V30 5148 H 471.037 -3.80671 1.70719 0
M  V30 5149 H 469.667 -3.13036 0.787918 0
M  V30 5150 H 468.719 -2.27239 3.05068 0
M  V30 5151 H 470.031 -3.15275 3.86527 0
M  V30 5152 H 469.185 -5.31385 2.92772 0
M  V30 5153 H 467.924 -4.44398 2.00902 0
M  V30 5154 H 466.929 -3.60133 4.15433 0
M  V30 5155 H 468.154 -4.50445 5.08208 0
M  V30 5156 H 466.1 -5.72655 3.20004 0
M  V30 5157 H 466.017 -5.73036 4.93119 0
M  V30 5158 H 467.285 -6.61023 4.13121 0
M  V30 5159 N 471.514 -1.37532 -0.769588 0
M  V30 5160 C 472.76 -1.33057 -1.53048 0
M  V30 5161 C 473.093 0.0841865 -1.94017 0
M  V30 5162 O 472.368 1.04198 -1.64235 0
M  V30 5163 C 472.651 -2.27166 -2.79406 0
M  V30 5164 C 472.504 -3.77429 -2.44677 0
M  V30 5165 C 473.823 -2.19683 -3.81349 0
M  V30 5166 H 470.942 -0.484655 -0.555228 0
M  V30 5167 H 473.584 -1.68251 -0.882702 0
M  V30 5168 H 471.734 -1.97283 -3.34682 0
M  V30 5169 H 473.406 -4.17918 -1.953 0
M  V30 5170 H 471.649 -3.95892 -1.77346 0
M  V30 5171 H 472.32 -4.38716 -3.35011 0
M  V30 5172 H 474.796 -2.46029 -3.35573 0
M  V30 5173 H 473.672 -2.87668 -4.67481 0
M  V30 5174 H 473.933 -1.19045 -4.25771 0
M  V30 5175 N 472.992 0.995999 -1.22138 0
M  V30 5176 C 473.939 2.08551 -0.988687 0
M  V30 5177 C 474.909 1.65864 0.0885021 0
M  V30 5178 O 476.094 1.90704 -0.0604589 0
M  V30 5179 C 473.234 3.40374 -0.569191 0
M  V30 5180 C 472.347 3.96421 -1.71681 0
M  V30 5181 C 471.482 5.1639 -1.2456 0
M  V30 5182 C 470.521 5.64567 -2.36497 0
M  V30 5183 N 469.658 6.75777 -1.90445 0
M  V30 5184 H 474.498 2.2779 -1.92135 0
M  V30 5185 H 472.035 1.1168 -0.957388 0
M  V30 5186 H 473.993 4.16068 -0.307166 0
M  V30 5187 H 472.623 3.21145 0.326462 0
M  V30 5188 H 471.675 3.17628 -2.09324 0
M  V30 5189 H 472.987 4.2816 -2.55891 0
M  V30 5190 H 472.141 5.99362 -0.940774 0
M  V30 5191 H 470.88 4.86266 -0.373662 0
M  V30 5192 H 469.885 4.80185 -2.67772 0
M  V30 5193 H 471.11 5.96716 -3.24202 0
M  V30 5194 H 469.056 6.47443 -1.05609 0
M  V30 5195 H 468.973 7.06818 -2.68223 0
M  V30 5196 H 470.241 7.62262 -1.63022 0
M  V30 5197 N 474.47 1.03057 1.19235 0
M  V30 5198 C 475.698 0.747697 1.92917 0
M  V30 5199 C 476.113 -0.69372 1.75593 0
M  V30 5200 O 475.47 -1.47191 1.07894 0
M  V30 5201 C 475.521 1.09159 3.44625 0
M  V30 5202 O 475.242 2.47641 3.61394 0
M  V30 5203 C 476.743 0.831763 4.35427 0
M  V30 5204 H 473.963 0.273453 0.612751 0
M  V30 5205 H 476.507 1.37552 1.51327 0
M  V30 5206 H 474.662 0.508919 3.84043 0
M  V30 5207 H 475.076 2.60499 4.55237 0
M  V30 5208 H 476.55 1.12233 5.4047 0
M  V30 5209 H 477.027 -0.233769 4.38577 0
M  V30 5210 H 477.633 1.39725 4.01693 0
M  V30 5211 N 475.948 -1.35272 0.808662 0
M  V30 5212 C 476.878 -2.32315 0.234981 0
M  V30 5213 C 477.859 -1.57572 -0.64071 0
M  V30 5214 O 479.044 -1.8563 -0.570551 0
M  V30 5215 C 476.174 -3.41801 -0.615601 0
M  V30 5216 C 475.128 -4.27694 0.161767 0
M  V30 5217 C 474.454 -5.28519 -0.810649 0
M  V30 5218 C 475.754 -5.04231 1.36193 0
M  V30 5219 H 477.448 -2.80543 1.04575 0
M  V30 5220 H 474.994 -1.3488 0.504315 0
M  V30 5221 H 476.947 -4.08693 -1.02702 0
M  V30 5222 H 475.671 -2.92186 -1.45928 0
M  V30 5223 H 474.33 -3.62384 0.554382 0
M  V30 5224 H 473.978 -4.75171 -1.64988 0
M  V30 5225 H 473.678 -5.8686 -0.294822 0
M  V30 5226 H 475.202 -5.98283 -1.22023 0
M  V30 5227 H 476.616 -5.64058 1.02528 0
M  V30 5228 H 475.013 -5.72077 1.81239 0
M  V30 5229 H 476.083 -4.34753 2.14751 0
M  V30 5230 N 477.426 -0.562348 -1.47226 0
M  V30 5231 C 478.374 0.195476 -2.31777 0
M  V30 5232 C 479.368 0.90433 -1.43242 0
M  V30 5233 O 480.574 0.825031 -1.59979 0
M  V30 5234 H 476.949 0.0819095 -0.747526 0
M  V30 5235 H 478.92 -0.536753 -2.93533 0
M  V30 5236 C 477.669 1.20902 -3.26003 0
M  V30 5237 H 476.992 0.672997 -3.94095 0
M  V30 5238 H 478.432 1.71006 -3.87986 0
M  V30 5239 C 476.891 2.25955 -2.49891 0
M  V30 5240 O 477.421 3.32969 -2.2471 0
M  V30 5241 N 475.627 2.00019 -2.1081 0
M  V30 5242 H 475.174 1.13006 -2.31489 0
M  V30 5243 H 475.132 2.70523 -1.60201 0
M  V30 5244 N 478.904 1.54736 -0.299062 0
M  V30 5245 C 480.315 1.8569 0.193971 0
M  V30 5246 C 480.666 1.22101 1.53577 0
M  V30 5247 O 479.791 0.51799 2.10109 0
M  V30 5248 C 480.386 3.36895 0.358733 0
M  V30 5249 C 478.945 3.67887 0.795986 0
M  V30 5250 C 478.092 2.77131 -0.096807 0
M  V30 5251 H 481.043 1.49934 -0.520134 0
M  V30 5252 H 481.064 3.61294 1.19361 0
M  V30 5253 H 480.576 3.83148 -0.617998 0
M  V30 5254 H 478.677 3.27151 1.78334 0
M  V30 5255 H 478.79 4.75114 0.616718 0
M  V30 5256 H 477.154 2.51153 0.423581 0
M  V30 5257 H 477.937 3.26204 -1.06986 0
M  V30 5258 N 480.382 0.0267497 1.57577 0
M  V30 5259 C 481.628 -0.653371 1.91987 0
M  V30 5260 C 481.961 -1.71915 0.903263 0
M  V30 5261 O 481.236 -1.94358 -0.0743387 0
M  V30 5262 C 481.519 -1.272 3.36886 0
M  V30 5263 C 481.372 -0.215938 4.49281 0
M  V30 5264 C 482.691 -2.19069 3.81703 0
M  V30 5265 H 479.81 -0.236047 0.698177 0
M  V30 5266 H 482.452 0.0835236 1.89816 0
M  V30 5267 H 480.602 -1.90005 3.38866 0
M  V30 5268 H 482.274 0.41449 4.59434 0
M  V30 5269 H 480.517 0.458855 4.31366 0
M  V30 5270 H 481.188 -0.688347 5.47691 0
M  V30 5271 H 483.664 -1.66253 3.81444 0
M  V30 5272 H 482.54 -2.59307 4.83788 0
M  V30 5273 H 482.801 -3.08087 3.17072 0
M  V30 5274 N 481.861 -1.55662 -0.24637 0
M  V30 5275 C 482.811 -1.86753 -1.30795 0
M  V30 5276 C 483.795 -0.728445 -1.43466 0
M  V30 5277 O 484.987 -0.99038 -1.46699 0
M  V30 5278 C 482.116 -2.16618 -2.66329 0
M  V30 5279 C 481.202 -3.36855 -2.57661 0
M  V30 5280 N 481.593 -4.56111 -2.18624 0
M  V30 5281 C 479.891 -3.39976 -2.88673 0
M  V30 5282 C 480.592 -5.38247 -2.20601 0
M  V30 5283 N 479.568 -4.77322 -2.60124 0
M  V30 5284 H 483.37 -2.76486 -0.996642 0
M  V30 5285 H 480.884 -1.55896 -0.454994 0
M  V30 5286 H 482.881 -2.37057 -3.42942 0
M  V30 5287 H 481.541 -1.28185 -2.98327 0
M  V30 5288 H 482.552 -4.81726 -1.9016 0
M  V30 5289 H 479.229 -2.61815 -3.25206 0
M  V30 5290 H 480.619 -6.43657 -1.92756 0
M  V30 5291 N 483.339 0.512053 -1.4905 0
M  V30 5292 C 484.302 1.59704 -1.64399 0
M  V30 5293 C 485.302 1.52285 -0.516317 0
M  V30 5294 O 486.492 1.55635 -0.782527 0
M  V30 5295 C 483.624 2.9935 -1.63102 0
M  V30 5296 H 484.817 1.47428 -2.61161 0
M  V30 5297 H 482.37 0.735469 -1.37915 0
M  V30 5298 H 483.105 3.17116 -0.678836 0
M  V30 5299 H 482.89 3.06144 -2.44986 0
M  V30 5300 H 484.38 3.782 -1.77072 0
M  V30 5301 N 484.817 1.37938 0.762283 0
M  V30 5302 C 486.065 1.33404 1.51815 0
M  V30 5303 C 486.386 -0.0780975 1.94844 0
M  V30 5304 O 485.656 -1.02405 1.67003 0
M  V30 5305 H 484.236 0.490839 0.563104 0
M  V30 5306 H 486.898 1.72527 0.906669 0
M  V30 5307 H 485.994 1.97926 2.41313 0
M  V30 5308 N 486.295 -0.989507 1.22664 0
M  V30 5309 C 487.706 -1.54406 1.04955 0
M  V30 5310 C 488.057 -1.92366 -0.385951 0
M  V30 5311 O 487.182 -1.75111 -1.27142 0
M  V30 5312 C 487.777 -2.80578 1.89899 0
M  V30 5313 C 486.336 -3.32464 1.76478 0
M  V30 5314 C 485.483 -2.05524 1.86159 0
M  V30 5315 H 488.434 -0.810211 1.3646 0
M  V30 5316 H 488.455 -3.53075 1.4184 0
M  V30 5317 H 487.967 -2.52918 2.94371 0
M  V30 5318 H 486.068 -3.65024 0.747528 0
M  V30 5319 H 486.181 -4.02838 2.59342 0
M  V30 5320 H 484.545 -2.19241 1.29636 0
M  V30 5321 H 485.328 -1.80258 2.92168 0
M  V30 5322 N 487.773 -1.03688 -1.18687 0
M  V30 5323 C 489.022 -0.733235 -1.879 0
M  V30 5324 C 489.335 0.741745 -1.8099 0
M  V30 5325 O 490.541 1.15875 -2.4553 0
M  V30 5326 C 488.997 -1.26127 -3.37076 0
M  V30 5327 C 488.605 -2.76461 -3.52524 0
M  V30 5328 C 490.349 -1.03398 -4.11715 0
M  V30 5329 C 488.256 -3.22642 -4.95637 0
M  V30 5330 H 487.186 -0.270584 -0.703776 0
M  V30 5331 H 489.837 -1.25222 -1.34133 0
M  V30 5332 H 488.219 -0.670165 -3.90288 0
M  V30 5333 H 489.393 -3.41296 -3.09602 0
M  V30 5334 H 487.708 -2.97559 -2.91286 0
M  V30 5335 H 490.305 -1.3542 -5.17267 0
M  V30 5336 H 490.648 0.0289246 -4.1629 0
M  V30 5337 H 491.181 -1.5895 -3.64664 0
M  V30 5338 H 487.92 -4.28296 -4.96228 0
M  V30 5339 H 487.44 -2.62539 -5.39289 0
M  V30 5340 H 489.119 -3.16444 -5.64333 0
M  V30 5341 N 489.251 1.34841 -0.815825 0
M  V30 5342 C 490.497 1.98793 -0.401129 0
M  V30 5343 C 490.83 1.64548 1.03139 0
M  V30 5344 O 490.105 0.913487 1.71714 0
M  V30 5345 C 490.388 3.55143 -0.595409 0
M  V30 5346 C 490.241 3.99155 -2.07352 0
M  V30 5347 C 491.56 4.40092 -0.0268823 0
M  V30 5348 H 488.679 0.722146 -0.14722 0
M  V30 5349 H 491.321 1.59847 -1.02707 0
M  V30 5350 H 489.471 3.8845 -0.0625779 0
M  V30 5351 H 491.143 3.76216 -2.66945 0
M  V30 5352 H 489.386 3.49726 -2.56659 0
M  V30 5353 H 490.057 5.07971 -2.1603 0
M  V30 5354 H 492.533 4.13298 -0.482042 0
M  V30 5355 H 491.409 5.48562 -0.19267 0
M  V30 5356 H 491.67 4.29016 1.06759 0
M  V30 5357 N 490.729 0.570148 1.46925 0
M  V30 5358 C 491.975 0.0510284 2.02736 0
M  V30 5359 C 492.308 -1.3006 1.44215 0
M  V30 5360 O 491.583 -1.84932 0.602521 0
M  V30 5361 C 491.866 -0.028215 3.60089 0
M  V30 5362 C 491.719 1.35142 4.29018 0
M  V30 5363 C 493.038 -0.735181 4.33916 0
M  V30 5364 H 490.157 0.0200178 0.736728 0
M  V30 5365 H 492.799 0.73493 1.75211 0
M  V30 5366 H 490.949 -0.610648 3.83671 0
M  V30 5367 H 492.621 1.97806 4.16738 0
M  V30 5368 H 490.864 1.9226 3.88868 0
M  V30 5369 H 491.535 1.24857 5.37694 0
M  V30 5370 H 494.011 -0.240519 4.15404 0
M  V30 5371 H 492.887 -0.759622 5.43618 0
M  V30 5372 H 493.148 -1.79397 4.04066 0
M  V30 5373 N 492.207 -1.54576 0.307264 0
M  V30 5374 C 493.157 -2.20467 -0.581249 0
M  V30 5375 C 494.141 -1.17972 -1.09414 0
M  V30 5376 O 495.333 -1.43667 -1.03387 0
M  V30 5377 C 492.462 -2.95369 -1.74963 0
M  V30 5378 C 491.548 -4.05186 -1.25241 0
M  V30 5379 N 491.939 -5.03577 -0.47364 0
M  V30 5380 C 490.237 -4.18841 -1.53259 0
M  V30 5381 C 490.938 -5.81328 -0.208083 0
M  V30 5382 N 489.914 -5.37834 -0.789651 0
M  V30 5383 H 493.716 -2.93892 0.0212221 0
M  V30 5384 H 491.23 -1.62011 0.112325 0
M  V30 5385 H 493.227 -3.41046 -2.39777 0
M  V30 5386 H 491.887 -2.23461 -2.35574 0
M  V30 5387 H 492.898 -5.17766 -0.117963 0
M  V30 5388 H 489.575 -3.58141 -2.14573 0
M  V30 5389 H 490.965 -6.706 0.417793 0
M  V30 5390 N 493.685 -0.035106 -1.57561 0
M  V30 5391 C 494.925 0.646316 -1.93913 0
M  V30 5392 C 495.289 1.68947 -0.912185 0
M  V30 5393 O 496.49 2.42381 -1.1621 0
M  V30 5394 C 494.761 1.24136 -3.35149 0
M  V30 5395 S 496.32 1.94302 -3.93436 0
M  V30 5396 H 493.138 0.212642 -0.678457 0
M  V30 5397 H 495.74 -0.100203 -1.95243 0
M  V30 5398 H 494.444 0.46979 -4.07702 0
M  V30 5399 H 493.975 2.02505 -3.37276 0
M  V30 5400 H 495.99 3.22205 -3.77357 0
M  V30 5401 N 495.163 1.55791 0.238111 0
M  V30 5402 C 496.388 1.8244 0.986432 0
M  V30 5403 C 496.813 0.613314 1.7782 0
M  V30 5404 O 496.171 -0.437767 1.75935 0
M  V30 5405 C 496.219 3.06917 1.893 0
M  V30 5406 O 495.323 2.84449 2.98601 0
M  V30 5407 H 494.664 0.601975 0.280218 0
M  V30 5408 H 497.194 2.02987 0.256437 0
M  V30 5409 H 497.204 3.36583 2.30598 0
M  V30 5410 H 495.879 3.947 1.31091 0
M  V30 5411 H 494.456 2.65972 2.61368 0
M  V30 5412 N 496.642 -0.504142 1.49319 0
M  V30 5413 C 497.605 -1.5883 1.65244 0
M  V30 5414 C 498.605 -1.52009 0.524386 0
M  V30 5415 O 499.795 -1.55218 0.79077 0
M  V30 5416 C 496.927 -2.98481 1.64687 0
M  V30 5417 H 498.12 -1.4604 2.61939 0
M  V30 5418 H 495.673 -0.728144 1.38303 0
M  V30 5419 H 496.408 -3.16751 0.695644 0
M  V30 5420 H 496.193 -3.0484 2.46607 0
M  V30 5421 H 497.683 -3.77256 1.79075 0
M  V30 5422 N 498.12 -1.38341 -0.754957 0
M  V30 5423 C 499.368 -1.34208 -1.51105 0
M  V30 5424 C 499.689 0.0677634 -1.94882 0
M  V30 5425 O 498.959 1.01517 -1.67544 0
M  V30 5426 H 497.539 -0.493819 -0.560493 0
M  V30 5427 H 500.201 -1.73005 -0.897507 0
M  V30 5428 H 499.297 -1.99203 -2.4026 0
M  V30 5429 N 499.598 0.982988 -1.23187 0
M  V30 5430 C 500.844 1.72648 -1.06398 0
M  V30 5431 C 501.177 1.90066 0.398561 0
M  V30 5432 O 500.452 1.45105 1.29518 0
M  V30 5433 C 500.735 3.12627 -1.78707 0
M  V30 5434 C 500.588 3.02795 -3.32618 0
M  V30 5435 C 501.907 4.11997 -1.54747 0
M  V30 5436 H 499.026 0.626649 -0.387918 0
M  V30 5437 H 501.668 1.14455 -1.51658 0
M  V30 5438 H 499.818 3.62308 -1.40234 0
M  V30 5439 H 501.49 2.60659 -3.80598 0
M  V30 5440 H 499.733 2.39362 -3.61785 0
M  V30 5441 H 500.404 4.01893 -3.78399 0
M  V30 5442 H 502.88 3.71114 -1.88186 0
M  V30 5443 H 501.756 5.08037 -2.07821 0
M  V30 5444 H 502.017 4.39462 -0.482249 0
M  V30 5445 N 501.076 1.04316 1.18135 0
M  V30 5446 C 502.324 0.746542 1.87806 0
M  V30 5447 C 502.645 -0.728082 1.80898 0
M  V30 5448 O 501.915 -1.52554 1.22899 0
M  V30 5449 H 500.495 0.273157 0.695265 0
M  V30 5450 H 503.157 1.32044 1.43354 0
M  V30 5451 H 502.253 1.05362 2.93778 0
M  V30 5452 N 502.554 -1.34406 0.822964 0
M  V30 5453 C 503.97 -1.51275 0.508727 0
M  V30 5454 C 504.17 -1.76776 -0.967083 0
M  V30 5455 O 503.226 -1.81871 -1.75155 0
M  V30 5456 C 504.539 -2.67765 1.36829 0
M  V30 5457 C 506.087 -2.81647 1.36542 0
M  V30 5458 C 506.562 -4.01181 2.20947 0
M  V30 5459 N 508.053 -4.08388 2.18571 0
M  V30 5460 C 508.788 -5.00036 2.80627 0
M  V30 5461 N 508.284 -5.96906 3.51674 0
M  V30 5462 N 510.077 -4.92908 2.70181 0
M  V30 5463 H 502.228 -1.16113 1.77852 0
M  V30 5464 H 504.491 -0.56947 0.757897 0
M  V30 5465 H 504.197 -2.55551 2.41633 0
M  V30 5466 H 504.071 -3.62779 1.03303 0
M  V30 5467 H 506.458 -2.93303 0.325163 0
M  V30 5468 H 506.539 -1.87443 1.74066 0
M  V30 5469 H 506.183 -3.90286 3.25022 0
M  V30 5470 H 506.113 -4.94599 1.80774 0
M  V30 5471 H 508.604 -3.39051 1.66891 0
M  V30 5472 H 508.917 -6.63468 3.96271 0
M  V30 5473 H 507.262 -5.9703 3.5578 0
M  V30 5474 H 510.453 -4.1619 2.14251 0
M  V30 5475 H 510.626 -5.64137 3.18831 0
M  V30 5476 N 504.032 -0.577932 -1.46621 0
M  V30 5477 C 505.26 -0.0671642 -2.06791 0
M  V30 5478 C 505.675 1.23571 -1.42743 0
M  V30 5479 O 505.032 1.74602 -0.531062 0
M  V30 5480 C 505.083 0.110357 -3.61332 0
M  V30 5481 O 504.804 -1.14095 -4.22982 0
M  V30 5482 C 506.305 0.656025 -4.38419 0
M  V30 5483 H 503.525 -0.0552732 -0.66872 0
M  V30 5484 H 506.069 -0.797242 -1.8832 0
M  V30 5485 H 504.224 0.790637 -3.79246 0
M  V30 5486 H 504.638 -0.951742 -5.15793 0
M  V30 5487 H 506.112 0.729438 -5.47159 0
M  V30 5488 H 506.589 1.67195 -4.06131 0
M  V30 5489 H 507.195 0.0107692 -4.25299 0
M  V30 5490 N 505.51 1.54411 -0.315457 0
M  V30 5491 C 506.758 2.00023 0.288971 0
M  V30 5492 C 507.079 1.20529 1.5329 0
M  V30 5493 O 506.349 0.304986 1.93511 0
M  V30 5494 H 504.929 0.738891 0.109766 0
M  V30 5495 H 507.591 1.90094 -0.430129 0
M  V30 5496 H 506.687 3.07198 0.550999 0
M  V30 5497 N 506.988 0.0434614 1.5754 0
M  V30 5498 C 508.216 -0.641835 1.96693 0
M  V30 5499 C 508.631 -1.64832 0.920652 0
M  V30 5500 O 507.988 -1.82247 -0.095993 0
M  V30 5501 C 508.039 -1.33557 3.35924 0
M  V30 5502 O 507.76 -0.369403 4.3654 0
M  V30 5503 C 509.261 -2.11135 3.89791 0
M  V30 5504 H 506.481 -0.176013 0.647503 0
M  V30 5505 H 509.025 0.107478 2.04217 0
M  V30 5506 H 507.18 -2.03617 3.29574 0
M  V30 5507 H 507.594 -0.863674 5.1734 0
M  V30 5508 H 509.068 -2.55107 4.89514 0
M  V30 5509 H 509.545 -2.95634 3.24803 0
M  V30 5510 H 510.151 -1.46002 3.99454 0
M  V30 5511 N 508.466 -1.55915 -0.229846 0
M  V30 5512 C 509.713 -1.78542 -0.955452 0
M  V30 5513 C 510.041 -0.610785 -1.84661 0
M  V30 5514 O 509.296 0.405213 -1.91459 0
M  V30 5515 C 509.595 -3.06845 -1.8325 0
M  V30 5516 C 509.261 -4.37395 -1.09528 0
M  V30 5517 C 507.923 -4.72868 -0.891598 0
M  V30 5518 C 510.275 -5.18029 -0.574046 0
M  V30 5519 C 507.603 -5.86496 -0.154655 0
M  V30 5520 C 509.955 -6.32423 0.149513 0
M  V30 5521 C 508.619 -6.66504 0.364519 0
M  V30 5522 H 507.889 -0.653333 -0.349625 0
M  V30 5523 H 510.536 -1.90183 -0.224235 0
M  V30 5524 H 508.841 -2.90291 -2.63132 0
M  V30 5525 H 510.538 -3.21553 -2.39592 0
M  V30 5526 H 507.128 -4.09538 -1.26399 0
M  V30 5527 H 511.312 -4.91066 -0.718899 0
M  V30 5528 H 506.568 -6.11396 0.0222356 0
M  V30 5529 H 510.742 -6.94137 0.560947 0
M  V30 5530 H 508.369 -7.54397 0.937495 0
M  V30 5531 N 509.944 0.496216 -1.49584 0
M  V30 5532 C 511.193 1.24668 -1.58558 0
M  V30 5533 C 511.506 1.9359 -0.279703 0
M  V30 5534 O 512.712 2.70365 -0.248048 0
M  V30 5535 C 511.168 2.26388 -2.79779 0
M  V30 5536 C 510.776 1.63384 -4.17145 0
M  V30 5537 C 512.52 3.02233 -2.98086 0
M  V30 5538 C 510.427 2.63243 -5.29582 0
M  V30 5539 H 509.357 0.468995 -0.590389 0
M  V30 5540 H 512.008 0.519985 -1.75978 0
M  V30 5541 H 510.39 3.02241 -2.55863 0
M  V30 5542 H 511.564 0.93491 -4.51216 0
M  V30 5543 H 509.879 0.999121 -4.04236 0
M  V30 5544 H 512.476 3.76919 -3.79257 0
M  V30 5545 H 512.819 3.60132 -2.08831 0
M  V30 5546 H 513.352 2.33495 -3.22063 0
M  V30 5547 H 510.091 2.10119 -6.20911 0
M  V30 5548 H 509.611 3.31363 -4.99959 0
M  V30 5549 H 511.29 3.25575 -5.59115 0
M  V30 5550 N 511.423 1.38739 0.74761 0
M  V30 5551 C 512.669 1.35475 1.50912 0
M  V30 5552 C 513.002 -0.0533093 1.94127 0
M  V30 5553 O 512.277 -1.01572 1.65871 0
M  V30 5554 C 512.56 2.31582 2.75757 0
M  V30 5555 C 512.413 3.81274 2.38642 0
M  V30 5556 C 513.732 2.25722 3.77806 0
M  V30 5557 H 510.851 0.493427 0.547447 0
M  V30 5558 H 513.493 1.69634 0.855823 0
M  V30 5559 H 511.643 2.02582 3.31501 0
M  V30 5560 H 513.315 4.20972 1.88626 0
M  V30 5561 H 511.558 3.98664 1.71025 0
M  V30 5562 H 512.229 4.4399 3.27989 0
M  V30 5563 H 514.705 2.51336 3.31616 0
M  V30 5564 H 513.581 2.95069 4.62845 0
M  V30 5565 H 513.842 1.25803 4.23823 0
M  V30 5566 N 512.901 -0.976442 1.23707 0
M  V30 5567 C 514.15 -1.71254 1.06559 0
M  V30 5568 C 514.463 -1.91528 -0.397024 0
M  V30 5569 O 515.669 -2.62625 -0.688518 0
M  V30 5570 C 514.125 -3.08207 1.8584 0
M  V30 5571 C 513.733 -2.95806 3.36456 0
M  V30 5572 C 515.477 -3.85749 1.77194 0
M  V30 5573 C 513.384 -4.28015 4.08114 0
M  V30 5574 H 512.314 -0.642171 0.395136 0
M  V30 5575 H 514.965 -1.08877 1.4771 0
M  V30 5576 H 513.347 -3.71363 1.37498 0
M  V30 5577 H 514.521 -2.41716 3.92314 0
M  V30 5578 H 512.836 -2.31736 3.45959 0
M  V30 5579 H 515.433 -4.83633 2.28041 0
M  V30 5580 H 515.776 -4.09752 0.735477 0
M  V30 5581 H 516.309 -3.29303 2.23169 0
M  V30 5582 H 513.048 -4.09208 5.12083 0
M  V30 5583 H 512.568 -4.81955 3.57043 0
M  V30 5584 H 514.247 -4.96681 4.14629 0
M  V30 5585 N 514.379 -1.04941 -1.1758 0
M  V30 5586 C 515.656 -0.671918 -1.83697 0
M  V30 5587 C 516.036 0.847929 -1.93322 0
M  V30 5588 O 515.384 1.75287 -1.46583 0
M  V30 5589 C 515.594 -1.35797 -3.21497 0
M  V30 5590 C 516.942 -1.4944 -3.97433 0
M  V30 5591 O 517.966 -1.31678 -3.30967 0
M  V30 5592 O 516.825 -1.78463 -5.1654 0
M  V30 5593 H 513.919 -0.236212 -0.792548 0
M  V30 5594 H 516.465 -1.14884 -1.24899 0
M  V30 5595 H 515.237 -2.39498 -3.09446 0
M  V30 5596 H 514.86 -0.870236 -3.8796 0
M  V30 5597 N 515.857 1.33968 -0.830081 0
M  V30 5598 C 516.82 2.27694 -0.26235 0
M  V30 5599 C 517.82 1.50589 0.563876 0
M  V30 5600 O 519.01 1.70028 0.378941 0
M  V30 5601 C 516.142 3.35002 0.63138 0
M  V30 5602 H 517.335 2.79419 -1.08928 0
M  V30 5603 H 514.888 1.44221 -0.602486 0
M  V30 5604 H 515.623 2.88504 1.48109 0
M  V30 5605 H 515.408 3.92079 0.0403276 0
M  V30 5606 H 516.898 4.04897 1.02217 0
M  V30 5607 N 517.335 0.585699 1.46312 0
M  V30 5608 C 518.268 -0.194257 2.27372 0
M  V30 5609 C 519.246 -0.894116 1.3581 0
M  V30 5610 O 520.43 -0.907402 1.65222 0
M  V30 5611 C 517.557 -1.27901 3.13622 0
M  V30 5612 C 516.603 -0.684666 4.20969 0
M  V30 5613 S 517.436 0.490745 5.33247 0
M  V30 5614 C 518.592 -0.595137 6.23064 0
M  V30 5615 H 518.825 0.493515 2.93175 0
M  V30 5616 H 516.358 0.372666 1.49835 0
M  V30 5617 H 518.316 -1.90008 3.63878 0
M  V30 5618 H 516.977 -1.93875 2.47126 0
M  V30 5619 H 516.17 -1.50015 4.81156 0
M  V30 5620 H 515.772 -0.139204 3.73741 0
M  V30 5621 H 518.064 -1.48002 6.61137 0
M  V30 5622 H 519.007 -0.0299446 7.08094 0
M  V30 5623 H 519.415 -0.900627 5.57269 0
M  V30 5624 N 518.813 -1.54241 0.323641 0
M  V30 5625 C 519.746 -2.20579 -0.584833 0
M  V30 5626 C 520.724 -1.18286 -1.11567 0
M  V30 5627 O 521.908 -1.47025 -1.17966 0
M  V30 5628 C 519.035 -2.86754 -1.80249 0
M  V30 5629 C 518.081 -4.02767 -1.4029 0
M  V30 5630 S 518.914 -5.33693 -0.439539 0
M  V30 5631 C 520.07 -6.03362 -1.66448 0
M  V30 5632 H 520.303 -2.97292 -0.0213238 0
M  V30 5633 H 517.836 -1.54024 0.107726 0
M  V30 5634 H 519.794 -3.25503 -2.50116 0
M  V30 5635 H 518.455 -2.09844 -2.33719 0
M  V30 5636 H 517.648 -4.47933 -2.31024 0
M  V30 5637 H 517.25 -3.65692 -0.783928 0
M  V30 5638 H 519.542 -6.25546 -2.6019 0
M  V30 5639 H 520.485 -6.9689 -1.25498 0
M  V30 5640 H 520.893 -5.33273 -1.85149 0
M  V30 5641 N 520.291 -0.0518155 -1.57515 0
M  V30 5642 C 521.254 0.907547 -2.10467 0
M  V30 5643 C 522.254 1.23947 -1.02439 0
M  V30 5644 O 523.444 1.17604 -1.2851 0
M  V30 5645 C 520.576 2.21723 -2.58944 0
M  V30 5646 H 521.769 0.44851 -2.96527 0
M  V30 5647 H 519.322 0.196598 -1.55059 0
M  V30 5648 H 520.057 2.72206 -1.76279 0
M  V30 5649 H 519.842 1.98935 -3.37886 0
M  V30 5650 H 521.332 2.90441 -3.00056 0
M  V30 5651 N 521.769 1.56035 0.221574 0
M  V30 5652 C 522.702 1.87427 1.30178 0
M  V30 5653 C 523.68 0.731658 1.45209 0
M  V30 5654 O 524.864 0.980016 1.61022 0
M  V30 5655 C 521.991 2.08127 2.67209 0
M  V30 5656 C 521.037 3.30813 2.69194 0
M  V30 5657 S 521.87 4.86738 2.23263 0
M  V30 5658 C 523.026 5.10474 3.62171 0
M  V30 5659 H 523.259 2.78756 1.03355 0
M  V30 5660 H 520.792 1.48469 0.423813 0
M  V30 5661 H 522.75 2.20736 3.46101 0
M  V30 5662 H 521.411 1.17595 2.91256 0
M  V30 5663 H 520.604 3.42341 3.6989 0
M  V30 5664 H 520.206 3.1706 1.98366 0
M  V30 5665 H 522.498 4.9937 4.5786 0
M  V30 5666 H 523.441 6.12359 3.55558 0
M  V30 5667 H 523.849 4.38208 3.55857 0
M  V30 5668 N 523.247 -0.488276 1.49845 0
M  V30 5669 C 524.18 -1.60651 1.62069 0
M  V30 5670 C 525.158 -1.5568 0.469308 0
M  V30 5671 O 526.342 -1.75553 0.686551 0
M  V30 5672 C 523.469 -2.99197 1.58741 0
M  V30 5673 C 522.515 -3.22385 2.79232 0
M  V30 5674 S 523.348 -3.04133 4.40753 0
M  V30 5675 C 524.504 -4.45052 4.4009 0
M  V30 5676 H 524.737 -1.50039 2.56662 0
M  V30 5677 H 522.27 -0.674371 1.38894 0
M  V30 5678 H 524.228 -3.79081 1.57506 0
M  V30 5679 H 522.889 -3.07213 0.654136 0
M  V30 5680 H 522.082 -4.23557 2.73159 0
M  V30 5681 H 521.684 -2.50245 2.77945 0
M  V30 5682 H 523.976 -5.37375 4.12594 0
M  V30 5683 H 524.919 -4.56172 5.41583 0
M  V30 5684 H 525.327 -4.26327 3.70008 0
M  V30 5685 N 524.725 -1.39134 -0.740242 0
M  V30 5686 C 525.675 -1.33928 -1.84519 0
M  V30 5687 C 526.659 -0.221097 -1.59374 0
M  V30 5688 O 527.851 -0.458195 -1.70967 0
M  V30 5689 C 524.98 -1.17991 -3.22387 0
M  V30 5690 C 524.066 -2.34488 -3.53378 0
M  V30 5691 N 524.457 -3.59954 -3.5534 0
M  V30 5692 C 522.755 -2.27331 -3.83714 0
M  V30 5693 C 523.456 -4.36962 -3.83978 0
M  V30 5694 N 522.432 -3.66482 -4.01487 0
M  V30 5695 H 526.234 -2.28907 -1.84333 0
M  V30 5696 H 523.748 -1.32555 -0.938237 0
M  V30 5697 H 525.745 -1.12345 -4.01478 0
M  V30 5698 H 524.405 -0.23957 -3.23815 0
M  V30 5699 H 525.416 -3.93448 -3.36778 0
M  V30 5700 H 522.093 -1.41531 -3.92779 0
M  V30 5701 H 523.483 -5.45692 -3.92008 0
M  V30 5702 N 526.204 0.969867 -1.24223 0
M  V30 5703 C 527.167 2.04564 -1.03373 0
M  V30 5704 C 528.167 1.60798 0.00819206 0
M  V30 5705 O 529.357 1.72641 -0.232567 0
M  V30 5706 C 526.489 3.36163 -0.566343 0
M  V30 5707 H 527.682 2.24494 -1.98853 0
M  V30 5708 H 525.235 1.1448 -1.06415 0
M  V30 5709 H 525.97 3.21925 0.391751 0
M  V30 5710 H 525.755 3.69273 -1.31834 0
M  V30 5711 H 527.245 4.1526 -0.441435 0
M  V30 5712 N 527.682 1.05563 1.17022 0
M  V30 5713 C 528.592 0.670758 2.24807 0
M  V30 5714 C 529.608 -0.309865 1.71219 0
M  V30 5715 O 530.784 -0.161025 2.00755 0
M  V30 5716 C 527.849 0.055337 3.46656 0
M  V30 5717 C 526.91 1.08688 4.15314 0
M  V30 5718 C 526.143 0.500736 5.31346 0
M  V30 5719 O 526.366 -0.688718 5.66227 0
M  V30 5720 O 525.3 1.23683 5.89055 0
M  V30 5721 H 529.126 1.56914 2.60023 0
M  V30 5722 H 526.711 0.827428 1.24395 0
M  V30 5723 H 528.593 -0.286492 4.20425 0
M  V30 5724 H 527.268 -0.816638 3.13229 0
M  V30 5725 H 526.175 1.48077 3.43546 0
M  V30 5726 H 527.508 1.93014 4.52777 0
M  V30 5727 N 529.16 -1.33526 0.837174 0
M  V30 5728 C 530.092 -2.28077 0.226579 0
M  V30 5729 C 531.105 -1.51666 -0.591717 0
M  V30 5730 O 532.294 -1.73511 -0.419064 0
M  V30 5731 C 529.394 -3.31597 -0.69978 0
M  V30 5732 C 528.567 -4.37329 0.0788067 0
M  V30 5733 C 527.626 -5.20526 -0.770637 0
M  V30 5734 O 526.652 -5.68811 -0.210453 0
M  V30 5735 N 527.854 -5.41639 -2.08825 0
M  V30 5736 H 530.619 -2.81115 1.03897 0
M  V30 5737 H 528.18 -1.46201 0.695476 0
M  V30 5738 H 530.172 -3.84158 -1.27298 0
M  V30 5739 H 528.742 -2.78848 -1.41288 0
M  V30 5740 H 527.962 -3.8529 0.833381 0
M  V30 5741 H 529.25 -5.05079 0.614238 0
M  V30 5742 H 528.648 -5.04108 -2.56693 0
M  V30 5743 H 527.205 -5.97263 -2.60998 0
M  V30 5744 N 530.638 -0.59345 -1.46 0
M  V30 5745 C 531.585 0.133618 -2.30413 0
M  V30 5746 C 532.555 0.873736 -1.41262 0
M  V30 5747 O 533.74 0.862279 -1.70204 0
M  V30 5748 C 530.88 1.13434 -3.25924 0
M  V30 5749 C 529.993 0.39656 -4.30176 0
M  V30 5750 C 529.128 1.38575 -5.12806 0
M  V30 5751 C 528.167 0.634984 -6.08797 0
M  V30 5752 N 527.304 1.57276 -6.84258 0
M  V30 5753 H 532.144 -0.592252 -2.92055 0
M  V30 5754 H 529.681 -0.303874 -1.43927 0
M  V30 5755 H 531.639 1.72752 -3.79753 0
M  V30 5756 H 530.269 1.82779 -2.66067 0
M  V30 5757 H 529.321 -0.311861 -3.79119 0
M  V30 5758 H 530.633 -0.189869 -4.98438 0
M  V30 5759 H 529.787 2.05141 -5.70966 0
M  V30 5760 H 528.526 2.00611 -4.44529 0
M  V30 5761 H 527.531 -0.0443925 -5.49782 0
M  V30 5762 H 528.756 0.0198678 -6.79097 0
M  V30 5763 H 526.702 2.18103 -6.18682 0
M  V30 5764 H 526.619 1.03941 -7.48821 0
M  V30 5765 H 527.887 2.22844 -7.46968 0
M  V30 5766 N 532.116 1.54067 -0.331816 0
M  V30 5767 C 533.362 2.01012 0.268667 0
M  V30 5768 C 533.695 1.2195 1.51136 0
M  V30 5769 O 532.97 0.303972 1.9211 0
M  V30 5770 C 533.253 3.55158 0.59456 0
M  V30 5771 C 533.106 4.4494 -0.659409 0
M  V30 5772 C 534.425 4.16939 1.4089 0
M  V30 5773 H 531.544 0.730698 0.0961756 0
M  V30 5774 H 534.186 1.84593 -0.450031 0
M  V30 5775 H 532.336 3.6928 1.20685 0
M  V30 5776 H 534.008 4.42675 -1.29756 0
M  V30 5777 H 532.251 4.1428 -1.28665 0
M  V30 5778 H 532.922 5.50643 -0.386804 0
M  V30 5779 H 535.398 4.06443 0.891272 0
M  V30 5780 H 534.274 5.24889 1.60569 0
M  V30 5781 H 534.535 3.70798 2.40752 0
M  V30 5782 N 533.594 0.0601682 1.57485 0
M  V30 5783 C 534.871 -0.651956 1.84415 0
M  V30 5784 C 535.251 -1.88498 0.950361 0
M  V30 5785 O 534.599 -2.28496 0.0136719 0
M  V30 5786 C 534.809 -1.00069 3.34346 0
M  V30 5787 C 536.157 -1.37915 4.01578 0
M  V30 5788 O 537.181 -1.09277 3.39024 0
M  V30 5789 O 536.04 -1.91399 5.11887 0
M  V30 5790 H 533.134 -0.322668 0.761455 0
M  V30 5791 H 535.68 0.0902159 1.6946 0
M  V30 5792 H 534.452 -0.124463 3.91102 0
M  V30 5793 H 534.075 -1.80001 3.54521 0
M  V30 5794 N 535.072 -1.5615 -0.213296 0
M  V30 5795 C 536.318 -1.79812 -0.937849 0
M  V30 5796 C 536.651 -0.631201 -1.83656 0
M  V30 5797 O 535.926 0.369165 -1.90964 0
M  V30 5798 C 536.209 -3.13613 -1.76972 0
M  V30 5799 C 536.062 -4.40766 -0.89695 0
M  V30 5800 C 537.381 -3.43931 -2.7459 0
M  V30 5801 H 534.5 -0.654138 -0.339518 0
M  V30 5802 H 537.142 -1.88877 -0.20623 0
M  V30 5803 H 535.292 -3.06015 -2.39347 0
M  V30 5804 H 536.964 -4.60392 -0.289306 0
M  V30 5805 H 535.207 -4.33326 -0.202756 0
M  V30 5806 H 535.878 -5.30843 -1.51358 0
M  V30 5807 H 538.354 -3.5171 -2.22349 0
M  V30 5808 H 537.23 -4.38706 -3.29891 0
M  V30 5809 H 537.491 -2.6651 -3.52739 0
M  V30 5810 N 536.55 0.480323 -1.50102 0
M  V30 5811 C 537.797 1.23307 -1.60629 0
M  V30 5812 C 538.125 1.92135 -0.302375 0
M  V30 5813 O 537.38 1.82321 0.711154 0
M  V30 5814 C 537.679 2.30708 -2.72963 0
M  V30 5815 C 537.345 1.79195 -4.13763 0
M  V30 5816 C 536.007 1.64867 -4.52076 0
M  V30 5817 C 538.359 1.40878 -5.018 0
M  V30 5818 C 535.687 1.10631 -5.76175 0
M  V30 5819 C 538.039 0.880872 -6.26437 0
M  V30 5820 C 536.703 0.724146 -6.6356 0
M  V30 5821 H 535.973 0.451211 -0.587784 0
M  V30 5822 H 538.62 0.53051 -1.84005 0
M  V30 5823 H 536.925 3.06834 -2.43639 0
M  V30 5824 H 538.622 2.88692 -2.78313 0
M  V30 5825 H 535.212 1.91313 -3.83533 0
M  V30 5826 H 539.396 1.50786 -4.7284 0
M  V30 5827 H 534.652 0.972263 -6.0362 0
M  V30 5828 H 538.826 0.575269 -6.9402 0
M  V30 5829 H 536.453 0.301722 -7.59601 0
M  V30 5830 N 538.028 1.39524 0.732853 0
M  V30 5831 C 538.938 1.40695 1.87729 0
M  V30 5832 C 539.954 0.301496 1.71368 0
M  V30 5833 O 541.13 0.543313 1.93933 0
M  V30 5834 C 538.195 1.25098 3.23344 0
M  V30 5835 C 537.256 2.45634 3.52083 0
M  V30 5836 C 536.489 2.30772 4.81228 0
M  V30 5837 O 536.712 1.31233 5.55098 0
M  V30 5838 O 535.646 3.19799 5.09914 0
M  V30 5839 H 539.472 2.37168 1.89697 0
M  V30 5840 H 537.057 1.20663 0.880959 0
M  V30 5841 H 538.939 1.18541 4.04383 0
M  V30 5842 H 537.614 0.317209 3.22142 0
M  V30 5843 H 536.521 2.57767 2.71122 0
M  V30 5844 H 537.854 3.37712 3.58066 0
M  V30 5845 N 539.506 -0.963266 1.24736 0
M  V30 5846 C 540.753 -1.7068 1.0897 0
M  V30 5847 C 541.081 -1.90934 -0.370751 0
M  V30 5848 O 540.336 -1.47155 -1.29011 0
M  V30 5849 C 540.635 -3.09944 1.7796 0
M  V30 5850 C 540.301 -3.09518 3.27887 0
M  V30 5851 C 538.963 -3.09109 3.68789 0
M  V30 5852 C 541.315 -3.03509 4.23712 0
M  V30 5853 C 538.643 -3.00429 5.03944 0
M  V30 5854 C 540.995 -2.96371 5.5888 0
M  V30 5855 C 539.659 -2.94293 5.99123 0
M  V30 5856 H 538.929 -0.624564 0.398749 0
M  V30 5857 H 541.576 -1.12603 1.54896 0
M  V30 5858 H 539.881 -3.71513 1.2444 0
M  V30 5859 H 541.578 -3.66278 1.63222 0
M  V30 5860 H 538.168 -3.10603 2.95337 0
M  V30 5861 H 542.352 -3.0295 3.93109 0
M  V30 5862 H 537.608 -2.97183 5.34314 0
M  V30 5863 H 541.782 -2.90681 6.32833 0
M  V30 5864 H 539.409 -2.87322 7.03811 0
M  V30 5865 N 540.985 -1.06182 -1.16461 0
M  V30 5866 C 542.231 -0.779015 -1.87241 0
M  V30 5867 C 542.564 0.692715 -1.81425 0
M  V30 5868 O 541.839 1.5074 -1.22913 0
M  V30 5869 C 542.122 -1.2728 -3.36856 0
M  V30 5870 C 541.975 -2.80821 -3.51368 0
M  V30 5871 C 543.294 -0.879799 -4.31216 0
M  V30 5872 H 540.413 -0.284464 -0.679889 0
M  V30 5873 H 543.055 -1.31755 -1.36896 0
M  V30 5874 H 541.205 -0.814673 -3.79862 0
M  V30 5875 H 542.877 -3.34833 -3.17308 0
M  V30 5876 H 541.12 -3.19606 -2.93316 0
M  V30 5877 H 541.791 -3.10435 -4.56436 0
M  V30 5878 H 544.267 -1.27436 -3.96105 0
M  V30 5879 H 543.143 -1.25278 -5.34412 0
M  V30 5880 H 543.404 0.215372 -4.41575 0
M  V30 5881 N 542.463 1.3308 -0.844243 0
M  V30 5882 C 543.688 2.02341 -0.455282 0
M  V30 5883 C 544.113 1.6308 0.93737 0
M  V30 5884 O 543.471 0.826118 1.61385 0
M  V30 5885 C 543.519 3.55743 -0.58988 0
M  V30 5886 O 542.623 4.1063 0.38166 0
M  V30 5887 H 541.964 0.637898 -0.184343 0
M  V30 5888 H 544.494 1.6986 -1.14056 0
M  V30 5889 H 544.504 4.05243 -0.473522 0
M  V30 5890 H 543.179 3.83662 -1.60549 0
M  V30 5891 H 541.756 3.72236 0.22241 0
M  V30 5892 N 543.941 0.601185 1.45683 0
M  V30 5893 C 545.357 0.264315 1.57396 0
M  V30 5894 C 545.557 -1.23324 1.59353 0
M  V30 5895 O 544.613 -2.01594 1.52039 0
M  V30 5896 C 545.926 0.929839 2.85962 0
M  V30 5897 C 547.474 0.905156 2.99626 0
M  V30 5898 C 547.949 1.55057 4.30954 0
M  V30 5899 N 549.44 1.51576 4.37697 0
M  V30 5900 C 550.175 1.98436 5.37969 0
M  V30 5901 N 549.671 2.53352 6.44813 0
M  V30 5902 N 551.464 1.89242 5.29286 0
M  V30 5903 H 543.615 1.57363 1.42656 0
M  V30 5904 H 545.878 0.658831 0.681649 0
M  V30 5905 H 545.584 1.98404 2.90394 0
M  V30 5906 H 545.458 0.449224 3.74515 0
M  V30 5907 H 547.845 -0.14048 2.94765 0
M  V30 5908 H 547.926 1.42397 2.12501 0
M  V30 5909 H 547.57 2.5955 4.36573 0
M  V30 5910 H 547.5 1.00682 5.16886 0
M  V30 5911 H 549.991 1.11452 3.61091 0
M  V30 5912 H 550.304 2.86918 7.17564 0
M  V30 5913 H 548.649 2.57388 6.45582 0
M  V30 5914 H 551.84 1.46083 4.44722 0
M  V30 5915 H 552.013 2.26075 6.07284 0
M  V30 5916 N 545.419 -1.53889 0.339982 0
M  V30 5917 C 546.668 -2.00035 -0.258604 0
M  V30 5918 C 546.981 -1.23179 -1.51942 0
M  V30 5919 O 548.187 -1.59784 -2.19503 0
M  V30 5920 C 546.643 -3.56249 -0.511359 0
M  V30 5921 C 546.251 -4.41957 0.733349 0
M  V30 5922 C 547.995 -4.1082 -1.069 0
M  V30 5923 C 545.902 -5.89673 0.451591 0
M  V30 5924 H 544.832 -0.747284 -0.10041 0
M  V30 5925 H 547.483 -1.77776 0.454758 0
M  V30 5926 H 545.865 -3.7456 -1.28533 0
M  V30 5927 H 547.039 -4.35421 1.50815 0
M  V30 5928 H 545.354 -3.9836 1.21237 0
M  V30 5929 H 547.951 -5.18789 -1.2947 0
M  V30 5930 H 548.294 -3.63817 -2.02343 0
M  V30 5931 H 548.827 -3.96205 -0.355817 0
M  V30 5932 H 545.566 -6.40903 1.37565 0
M  V30 5933 H 545.086 -5.99122 -0.285193 0
M  V30 5934 H 546.765 -6.46965 0.0675067 0
M  V30 5935 N 546.897 -0.0685191 -1.57451 0
M  V30 5936 C 548.313 0.288101 -1.56978 0
M  V30 5937 C 548.513 1.70262 -1.07765 0
M  V30 5938 O 547.569 2.4135 -0.742054 0
M  V30 5939 C 548.882 0.100745 -3.00531 0
M  V30 5940 C 550.43 0.170531 -3.12535 0
M  V30 5941 C 550.905 0.0114944 -4.57999 0
M  V30 5942 N 552.396 0.0672065 -4.63151 0
M  V30 5943 C 553.131 -0.0314813 -5.73391 0
M  V30 5944 N 552.627 -0.183503 -6.92557 0
M  V30 5945 N 554.42 0.0253489 -5.62094 0
M  V30 5946 H 546.571 -0.993026 -1.87757 0
M  V30 5947 H 548.834 -0.386981 -0.865419 0
M  V30 5948 H 548.54 -0.875197 -3.40636 0
M  V30 5949 H 548.414 0.854457 -3.67395 0
M  V30 5950 H 550.801 1.13696 -2.72318 0
M  V30 5951 H 550.882 -0.614229 -2.48316 0
M  V30 5952 H 550.526 -0.951684 -4.98904 0
M  V30 5953 H 550.456 0.815617 -5.20245 0
M  V30 5954 H 552.947 0.183246 -3.77455 0
M  V30 5955 H 553.26 -0.251041 -7.72392 0
M  V30 5956 H 551.605 -0.218822 -6.94655 0
M  V30 5957 H 554.796 0.142794 -4.67882 0
M  V30 5958 H 554.969 -0.0550166 -6.47977 0
M  V30 5959 N 548.375 1.56261 0.205012 0
M  V30 5960 C 549.323 1.94631 1.27364 0
M  V30 5961 C 550.317 0.830434 1.47649 0
M  V30 5962 O 551.523 1.01538 1.48627 0
M  V30 5963 H 547.898 0.618755 0.427371 0
M  V30 5964 H 549.869 2.83768 0.922941 0
M  V30 5965 C 548.618 2.29358 2.61324 0
M  V30 5966 H 547.941 3.14744 2.46528 0
M  V30 5967 H 549.381 2.60076 3.34868 0
M  V30 5968 C 547.84 1.12461 3.17575 0
M  V30 5969 O 548.37 0.394407 3.99759 0
M  V30 5970 N 546.576 0.904036 2.7618 0
M  V30 5971 H 546.123 1.49956 2.09454 0
M  V30 5972 H 546.081 0.123662 3.14157 0
M  V30 5973 N 549.853 -0.472356 1.50355 0
M  V30 5974 C 550.785 -1.58795 1.65278 0
M  V30 5975 C 551.798 -1.53782 0.534313 0
M  V30 5976 O 552.987 -1.59193 0.807446 0
M  V30 5977 C 550.087 -2.97672 1.62001 0
M  V30 5978 C 549.26 -3.27568 2.89859 0
M  V30 5979 C 548.319 -4.45993 2.79242 0
M  V30 5980 O 547.345 -4.46364 3.53197 0
M  V30 5981 N 548.547 -5.47578 1.92713 0
M  V30 5982 H 551.312 -1.46411 2.61503 0
M  V30 5983 H 548.873 -0.660751 1.47803 0
M  V30 5984 H 550.865 -3.74862 1.52513 0
M  V30 5985 H 549.435 -3.03832 0.735159 0
M  V30 5986 H 548.655 -2.39003 3.13483 0
M  V30 5987 H 549.943 -3.44352 3.74565 0
M  V30 5988 H 549.341 -5.50099 1.31939 0
M  V30 5989 H 547.898 -6.23757 1.8913 0
M  V30 5990 N 551.331 -1.39911 -0.725443 0
M  V30 5991 C 552.747 -1.21725 -1.03224 0
M  V30 5992 C 552.947 -0.0855224 -2.01318 0
M  V30 5993 O 552.003 0.55976 -2.46217 0
M  V30 5994 C 553.316 -2.55511 -1.58539 0
M  V30 5995 C 554.864 -2.62439 -1.70572 0
M  V30 5996 C 555.339 -3.9647 -2.29294 0
M  V30 5997 N 556.83 -3.98159 -2.36692 0
M  V30 5998 C 557.565 -4.98647 -2.83088 0
M  V30 5999 N 557.061 -6.0953 -3.2931 0
M  V30 6000 N 558.854 -4.8602 -2.82384 0
M  V30 6001 H 551.005 -2.12267 -0.075048 0
M  V30 6002 H 553.268 -0.943136 -0.0959066 0
M  V30 6003 H 552.974 -3.38926 -0.939249 0
M  V30 6004 H 552.848 -2.75905 -2.57208 0
M  V30 6005 H 555.235 -1.79401 -2.34306 0
M  V30 6006 H 555.316 -2.45885 -0.705297 0
M  V30 6007 H 554.96 -4.79942 -1.66186 0
M  V30 6008 H 554.89 -4.10349 -3.30032 0
M  V30 6009 H 557.381 -3.18085 -2.04035 0
M  V30 6010 H 557.694 -6.82106 -3.6325 0
M  V30 6011 H 556.039 -6.1311 -3.27294 0
M  V30 6012 H 559.23 -3.98493 -2.45603 0
M  V30 6013 H 559.403 -5.64478 -3.18226 0
M  V30 6014 N 552.809 0.956637 -1.25245 0
M  V30 6015 C 554.22 1.51569 -1.09012 0
M  V30 6016 C 554.571 1.93322 0.334813 0
M  V30 6017 O 553.696 1.78421 1.22454 0
M  V30 6018 C 554.291 2.75444 -1.97271 0
M  V30 6019 C 552.85 3.27669 -1.8523 0
M  V30 6020 C 551.997 2.00517 -1.91542 0
M  V30 6021 H 554.948 0.773746 -1.3856 0
M  V30 6022 H 554.969 3.4919 -1.51151 0
M  V30 6023 H 554.481 2.45024 -3.00973 0
M  V30 6024 H 552.582 3.62914 -0.844045 0
M  V30 6025 H 552.695 3.9582 -2.69932 0
M  V30 6026 H 551.059 2.15727 -1.35404 0
M  V30 6027 H 551.842 1.72448 -2.96844 0
M  V30 6028 N 554.287 1.06798 1.15896 0
M  V30 6029 C 555.219 0.641263 2.20046 0
M  V30 6030 C 556.232 -0.303355 1.59949 0
M  V30 6031 O 557.421 -0.0935478 1.78255 0
M  V30 6032 C 554.521 -0.0794029 3.38807 0
M  V30 6033 C 553.694 0.879986 4.28457 0
M  V30 6034 C 552.753 0.197638 5.25829 0
M  V30 6035 O 551.779 0.836913 5.63014 0
M  V30 6036 N 552.981 -1.05886 5.70761 0
M  V30 6037 H 555.746 1.53718 2.57276 0
M  V30 6038 H 553.307 0.951951 1.30956 0
M  V30 6039 H 555.299 -0.546418 4.00994 0
M  V30 6040 H 553.869 -0.877193 3.0004 0
M  V30 6041 H 553.089 1.52625 3.63454 0
M  V30 6042 H 554.377 1.53065 4.8523 0
M  V30 6043 H 553.775 -1.59828 5.42652 0
M  V30 6044 H 552.332 -1.46965 6.35015 0
M  V30 6045 N 555.766 -1.3263 0.851289 0
M  V30 6046 C 556.699 -2.26952 0.238318 0
M  V30 6047 C 557.677 -1.50243 -0.621757 0
M  V30 6048 O 558.861 -1.79378 -0.579298 0
M  V30 6049 C 555.988 -3.32124 -0.664178 0
M  V30 6050 C 555.034 -4.26325 0.122067 0
M  V30 6051 S 555.867 -5.14404 1.48824 0
M  V30 6052 C 557.023 -6.231 0.591372 0
M  V30 6053 H 557.256 -2.78594 1.03791 0
M  V30 6054 H 554.789 -1.4011 0.648731 0
M  V30 6055 H 556.747 -3.93197 -1.17924 0
M  V30 6056 H 555.408 -2.79273 -1.43755 0
M  V30 6057 H 554.601 -5.00821 -0.565181 0
M  V30 6058 H 554.203 -3.69652 0.568602 0
M  V30 6059 H 556.495 -6.77187 -0.205762 0
M  V30 6060 H 557.438 -6.95936 1.30687 0
M  V30 6061 H 557.846 -5.64252 0.167206 0
M  V30 6062 N 557.244 -0.608902 -1.45362 0
M  V30 6063 C 558.49 -0.104762 -2.02529 0
M  V30 6064 C 558.823 1.26191 -1.47613 0
M  V30 6065 O 558.098 1.8327 -0.65134 0
M  V30 6066 C 558.381 -0.0672661 -3.60037 0
M  V30 6067 C 558.234 -1.4647 -4.25284 0
M  V30 6068 C 559.553 0.619877 -4.35713 0
M  V30 6069 H 556.672 -0.0395438 -0.735938 0
M  V30 6070 H 559.314 -0.781126 -1.73201 0
M  V30 6071 H 557.464 0.50871 -3.85155 0
M  V30 6072 H 559.136 -2.08785 -4.11347 0
M  V30 6073 H 557.379 -2.02502 -3.83634 0
M  V30 6074 H 558.05 -1.39069 -5.34195 0
M  V30 6075 H 560.526 0.130297 -4.15896 0
M  V30 6076 H 559.402 0.615224 -5.45441 0
M  V30 6077 H 559.663 1.68621 -4.0868 0
M  V30 6078 N 558.722 1.53707 -0.348139 0
M  V30 6079 C 559.654 2.22725 0.540946 0
M  V30 6080 C 560.667 1.2354 1.06027 0
M  V30 6081 O 561.856 1.49867 0.96964 0
M  V30 6082 C 558.956 2.89756 1.75768 0
M  V30 6083 C 558.129 4.15297 1.37285 0
M  V30 6084 C 557.188 4.65697 2.44976 0
M  V30 6085 O 556.214 5.29798 2.08092 0
M  V30 6086 N 557.416 4.42017 3.763 0
M  V30 6087 H 560.181 2.99658 -0.0501592 0
M  V30 6088 H 557.742 1.60979 -0.17248 0
M  V30 6089 H 559.734 3.20388 2.47252 0
M  V30 6090 H 558.304 2.16382 2.25605 0
M  V30 6091 H 557.524 3.9116 0.488584 0
M  V30 6092 H 558.812 4.96948 1.09179 0
M  V30 6093 H 558.21 3.9076 4.09051 0
M  V30 6094 H 556.767 4.77242 4.4394 0
M  V30 6095 N 560.2 0.0768682 1.57412 0
M  V30 6096 C 561.428 -0.59997 1.9801 0
M  V30 6097 C 561.843 -1.62842 0.955408 0
M  V30 6098 O 561.2 -1.8241 -0.057314 0
M  V30 6099 C 561.251 -1.26401 3.38681 0
M  V30 6100 O 560.972 -0.276723 4.37225 0
M  V30 6101 C 562.473 -2.0282 3.94182 0
M  V30 6102 H 559.693 -0.162239 0.651091 0
M  V30 6103 H 562.237 0.150771 2.03943 0
M  V30 6104 H 560.392 -1.96581 3.33819 0
M  V30 6105 H 560.806 -0.753744 5.19056 0
M  V30 6106 H 562.28 -2.44667 4.94815 0
M  V30 6107 H 562.757 -2.88678 3.31001 0
M  V30 6108 H 563.363 -1.37496 4.02461 0
M  V30 6109 N 561.678 -1.56367 -0.196722 0
M  V30 6110 C 562.955 -1.71359 -0.943159 0
M  V30 6111 C 563.335 -0.631192 -2.01443 0
M  V30 6112 O 562.683 0.358071 -2.25677 0
M  V30 6113 C 562.893 -3.13623 -1.53106 0
M  V30 6114 C 564.241 -3.73806 -2.01381 0
M  V30 6115 O 565.265 -3.16742 -1.62951 0
M  V30 6116 O 564.124 -4.73951 -2.7209 0
M  V30 6117 H 561.218 -0.698851 -0.442195 0
M  V30 6118 H 563.764 -1.68672 -0.186547 0
M  V30 6119 H 562.536 -3.83873 -0.758785 0
M  V30 6120 H 562.159 -3.20532 -2.35255 0
M  V30 6121 N 563.156 0.464375 -1.50603 0
M  V30 6122 C 564.089 1.58052 -1.64605 0
M  V30 6123 C 565.067 1.54914 -0.494016 0
M  V30 6124 O 566.251 1.74438 -0.714393 0
M  V30 6125 C 563.378 2.96634 -1.63481 0
M  V30 6126 C 562.424 3.17901 -2.84325 0
M  V30 6127 S 563.257 2.97083 -4.45536 0
M  V30 6128 C 564.413 4.37994 -4.47115 0
M  V30 6129 H 564.646 1.45937 -2.59017 0
M  V30 6130 H 562.179 0.652189 -1.39949 0
M  V30 6131 H 564.137 3.76527 -1.63517 0
M  V30 6132 H 562.798 3.06134 -0.702928 0
M  V30 6133 H 561.991 4.19158 -2.79862 0
M  V30 6134 H 561.593 2.45792 -2.81891 0
M  V30 6135 H 563.885 5.30743 -4.21091 0
M  V30 6136 H 564.828 4.47499 -5.48772 0
M  V30 6137 H 565.236 4.20386 -3.76743 0
M  V30 6138 N 564.634 1.40294 0.718013 0
M  V30 6139 C 565.566 1.36281 1.84283 0
M  V30 6140 C 566.579 0.268621 1.60569 0
M  V30 6141 O 567.768 0.528798 1.70487 0
M  V30 6142 C 564.868 1.09741 3.2064 0
M  V30 6143 C 564.041 2.30767 3.71571 0
M  V30 6144 C 563.1 2.00424 4.86535 0
M  V30 6145 O 562.126 2.73268 4.99313 0
M  V30 6146 N 563.328 0.980724 5.72156 0
M  V30 6147 H 566.093 2.3322 1.88225 0
M  V30 6148 H 563.654 1.34616 0.899453 0
M  V30 6149 H 565.646 0.874322 3.95143 0
M  V30 6150 H 564.216 0.214771 3.11861 0
M  V30 6151 H 563.436 2.68921 2.88228 0
M  V30 6152 H 564.724 3.11455 4.02335 0
M  V30 6153 H 564.122 0.377375 5.6444 0
M  V30 6154 H 562.679 0.817538 6.46653 0
M  V30 6155 N 566.112 -0.949982 1.2575 0
M  V30 6156 C 567.342 -1.72721 1.13363 0
M  V30 6157 C 567.75 -1.86562 -0.314842 0
M  V30 6158 O 567.093 -1.36621 -1.22803 0
M  V30 6159 C 567.155 -3.15695 1.7198 0
M  V30 6160 C 566.819 -3.25268 3.21014 0
M  V30 6161 C 567.816 -3.09222 4.17945 0
M  V30 6162 C 565.501 -3.4894 3.61312 0
M  V30 6163 C 567.495 -3.16701 5.53154 0
M  V30 6164 C 565.182 -3.56055 4.96657 0
M  V30 6165 C 566.18 -3.3995 5.92387 0
M  V30 6166 O 565.868 -3.46757 7.25269 0
M  V30 6167 H 565.6 -0.547888 0.395973 0
M  V30 6168 H 568.154 -1.20009 1.66694 0
M  V30 6169 H 566.384 -3.69791 1.13101 0
M  V30 6170 H 568.073 -3.75295 1.54624 0
M  V30 6171 H 568.839 -2.90798 3.88151 0
M  V30 6172 H 564.718 -3.60534 2.87291 0
M  V30 6173 H 568.262 -3.04048 6.27854 0
M  V30 6174 H 564.159 -3.73997 5.26115 0
M  V30 6175 H 564.927 -3.63358 7.33426 0
M  V30 6176 N 567.59 -1.07411 -1.15328 0
M  V30 6177 C 568.818 -0.818782 -1.90009 0
M  V30 6178 C 569.233 0.628072 -1.78047 0
M  V30 6179 O 568.59 1.43085 -1.13282 0
M  V30 6180 C 568.641 -1.21874 -3.40337 0
M  V30 6181 O 568.362 -2.60883 -3.51954 0
M  V30 6182 C 569.863 -0.992796 -4.3204 0
M  V30 6183 H 567.083 -0.296007 -0.60218 0
M  V30 6184 H 569.627 -1.43073 -1.46117 0
M  V30 6185 H 567.782 -0.651103 -3.81889 0
M  V30 6186 H 568.196 -2.77216 -4.45255 0
M  V30 6187 H 569.67 -1.32215 -5.35932 0
M  V30 6188 H 570.147 0.0708331 -4.39143 0
M  V30 6189 H 570.753 -1.54537 -3.9623 0
M  V30 6190 N 569.068 1.32177 -0.85831 0
M  V30 6191 C 570.315 1.97125 -0.463484 0
M  V30 6192 C 570.643 1.67907 0.981705 0
M  V30 6193 O 569.898 0.961717 1.70439 0
M  V30 6194 C 570.197 3.51372 -0.653658 0
M  V30 6195 C 569.863 4.00584 -2.06987 0
M  V30 6196 C 568.525 4.13733 -2.4572 0
M  V30 6197 C 570.877 4.26624 -2.99402 0
M  V30 6198 C 568.205 4.50268 -3.76132 0
M  V30 6199 C 570.557 4.64618 -4.29316 0
M  V30 6200 C 569.221 4.75975 -4.67979 0
M  V30 6201 H 568.491 0.72133 -0.169601 0
M  V30 6202 H 571.138 1.57517 -1.08907 0
M  V30 6203 H 569.443 3.91761 0.0551328 0
M  V30 6204 H 571.14 3.99655 -0.328163 0
M  V30 6205 H 567.73 3.90837 -1.75911 0
M  V30 6206 H 571.914 4.1597 -2.70708 0
M  V30 6207 H 567.17 4.57256 -4.05865 0
M  V30 6208 H 571.344 4.83722 -5.00985 0
M  V30 6209 H 568.971 5.04041 -5.69076 0
M  V30 6210 N 570.547 0.616602 1.45037 0
M  V30 6211 C 571.796 0.112861 2.01384 0
M  V30 6212 C 572.109 -1.26758 1.48969 0
M  V30 6213 O 573.315 -1.86454 1.9735 0
M  V30 6214 C 571.771 0.151057 3.59583 0
M  V30 6215 C 571.379 1.53191 4.20995 0
M  V30 6216 C 573.123 -0.296974 4.2346 0
M  V30 6217 C 571.03 1.526 5.71373 0
M  V30 6218 H 569.96 0.0384254 0.75302 0
M  V30 6219 H 572.611 0.773262 1.66412 0
M  V30 6220 H 570.993 -0.57617 3.91786 0
M  V30 6221 H 572.167 2.28156 4.00352 0
M  V30 6222 H 570.482 1.92279 3.69348 0
M  V30 6223 H 573.079 -0.320712 5.33737 0
M  V30 6224 H 573.422 -1.32145 3.9477 0
M  V30 6225 H 573.955 0.377279 3.96007 0
M  V30 6226 H 570.694 2.52837 6.04776 0
M  V30 6227 H 570.214 0.819064 5.94181 0
M  V30 6228 H 571.893 1.25357 6.3474 0
M  V30 6229 N 572.025 -1.5352 0.356285 0
M  V30 6230 C 573.255 -2.05236 -0.236983 0
M  V30 6231 C 573.663 -1.23016 -1.43749 0
M  V30 6232 O 573.006 -0.2615 -1.81829 0
M  V30 6233 C 573.068 -3.52549 -0.7035 0
M  V30 6234 C 572.732 -4.55425 0.379059 0
M  V30 6235 C 573.729 -5.0524 1.22592 0
M  V30 6236 C 571.414 -4.99425 0.536638 0
M  V30 6237 C 573.408 -5.97647 2.21578 0
M  V30 6238 C 571.095 -5.9164 1.52988 0
M  V30 6239 C 572.093 -6.4064 2.3679 0
M  V30 6240 O 571.781 -7.31039 3.34421 0
M  V30 6241 H 571.513 -0.674346 -0.047254 0
M  V30 6242 H 574.067 -1.98962 0.510238 0
M  V30 6243 H 572.297 -3.56331 -1.50217 0
M  V30 6244 H 573.986 -3.87171 -1.21873 0
M  V30 6245 H 574.752 -4.72002 1.11532 0
M  V30 6246 H 570.631 -4.60879 -0.105834 0
M  V30 6247 H 574.175 -6.35816 2.87025 0
M  V30 6248 H 570.072 -6.24293 1.64099 0
M  V30 6249 H 570.84 -7.49009 3.30041 0
M  V30 6250 N 573.503 -0.0852151 -1.57369 0
M  V30 6251 C 574.435 0.907099 -2.10486 0
M  V30 6252 C 575.448 1.25259 -1.03991 0
M  V30 6253 O 576.637 1.20743 -1.31467 0
M  V30 6254 C 573.737 2.21908 -2.56145 0
M  V30 6255 C 572.91 2.05042 -3.86363 0
M  V30 6256 C 571.969 3.19664 -4.17973 0
M  V30 6257 O 570.995 2.94062 -4.87356 0
M  V30 6258 N 572.197 4.45151 -3.72587 0
M  V30 6259 H 574.962 0.453505 -2.96249 0
M  V30 6260 H 572.523 0.100157 -1.6159 0
M  V30 6261 H 574.515 2.97519 -2.74343 0
M  V30 6262 H 573.085 2.58723 -1.75446 0
M  V30 6263 H 572.305 1.13819 -3.77411 0
M  V30 6264 H 573.593 1.91039 -4.71574 0
M  V30 6265 H 572.991 4.68834 -3.16561 0
M  V30 6266 H 571.548 5.17744 -3.9596 0
M  V30 6267 N 574.981 1.5647 0.188427 0
M  V30 6268 C 575.944 1.9421 1.21718 0
M  V30 6269 C 576.944 0.823901 1.38089 0
M  V30 6270 O 578.134 1.09122 1.35787 0
M  V30 6271 C 575.266 2.22197 2.58537 0
M  V30 6272 H 576.459 2.86252 0.894418 0
M  V30 6273 H 574.012 1.50263 0.430211 0
M  V30 6274 H 574.747 1.32814 2.95856 0
M  V30 6275 H 574.532 3.03688 2.48025 0
M  V30 6276 H 576.022 2.52376 3.3271 0
M  V30 6277 N 576.459 -0.456382 1.50847 0
M  V30 6278 C 577.389 -1.56025 1.73719 0
M  V30 6279 C 578.37 -1.5967 0.586473 0
M  V30 6280 O 579.555 -1.75702 0.827185 0
M  V30 6281 C 576.685 -2.94251 1.84483 0
M  V30 6282 C 575.639 -3.05471 2.99786 0
M  V30 6283 C 574.965 -4.45489 2.95709 0
M  V30 6284 C 576.265 -2.81318 4.40065 0
M  V30 6285 H 577.959 -1.37138 2.66146 0
M  V30 6286 H 575.505 -0.658299 1.28072 0
M  V30 6287 H 577.458 -3.71417 1.99067 0
M  V30 6288 H 576.182 -3.14328 0.886891 0
M  V30 6289 H 574.841 -2.30741 2.84876 0
M  V30 6290 H 574.489 -4.62505 1.97732 0
M  V30 6291 H 574.189 -4.53929 3.73125 0
M  V30 6292 H 575.713 -5.24655 3.12362 0
M  V30 6293 H 577.127 -3.48226 4.55425 0
M  V30 6294 H 575.524 -3.01188 5.19043 0
M  V30 6295 H 576.594 -1.7706 4.51418 0
M  V30 6296 N 577.937 -1.40673 -0.710563 0
M  V30 6297 C 578.867 -1.44095 -1.83736 0
M  V30 6298 C 579.848 -0.301286 -1.67411 0
M  V30 6299 O 581.033 -0.510618 -1.87367 0
M  V30 6300 C 578.163 -1.30773 -3.21738 0
M  V30 6301 C 577.117 -2.42395 -3.52745 0
M  V30 6302 C 576.443 -2.14147 -4.89944 0
M  V30 6303 C 577.743 -3.84738 -3.53234 0
M  V30 6304 H 579.437 -2.38396 -1.81129 0
M  V30 6305 H 576.983 -1.14746 -0.870017 0
M  V30 6306 H 578.936 -1.31783 -4.00264 0
M  V30 6307 H 577.66 -0.329507 -3.24934 0
M  V30 6308 H 576.319 -2.40643 -2.76562 0
M  V30 6309 H 575.967 -1.14703 -4.89747 0
M  V30 6310 H 575.667 -2.88934 -5.11655 0
M  V30 6311 H 577.191 -2.16848 -5.70797 0
M  V30 6312 H 578.605 -3.88286 -4.2179 0
M  V30 6313 H 577.002 -4.59085 -3.86473 0
M  V30 6314 H 578.072 -4.13962 -2.52514 0
M  V30 6315 N 579.415 0.9433 -1.26252 0
M  V30 6316 C 580.325 2.07532 -1.09397 0
M  V30 6317 C 581.341 1.73977 -0.0280449 0
M  V30 6318 O 582.517 2.00067 -0.231337 0
M  V30 6319 C 579.582 3.39002 -0.726523 0
M  V30 6320 C 578.643 3.86353 -1.87163 0
M  V30 6321 C 577.876 5.11549 -1.52162 0
M  V30 6322 O 578.099 5.68834 -0.422385 0
M  V30 6323 O 577.033 5.53889 -2.35565 0
M  V30 6324 H 580.859 2.24658 -2.04359 0
M  V30 6325 H 578.444 1.05988 -1.05295 0
M  V30 6326 H 580.326 4.18 -0.534236 0
M  V30 6327 H 579.001 3.2312 0.193721 0
M  V30 6328 H 577.908 3.0831 -2.11886 0
M  V30 6329 H 579.241 4.06752 -2.77152 0
M  V30 6330 N 580.893 1.08022 1.14757 0
M  V30 6331 C 582.123 0.827646 1.89298 0
M  V30 6332 C 582.531 -0.623506 1.78631 0
M  V30 6333 O 581.874 -1.43991 1.14071 0
M  V30 6334 C 581.936 1.16553 3.40082 0
M  V30 6335 C 581.6 2.61866 3.74533 0
M  V30 6336 C 582.597 3.60116 3.74984 0
M  V30 6337 C 580.282 2.97619 4.04633 0
M  V30 6338 C 582.276 4.92151 4.05051 0
M  V30 6339 C 579.963 4.2985 4.34364 0
M  V30 6340 C 580.961 5.26926 4.34555 0
M  V30 6341 O 580.649 6.5678 4.63568 0
M  V30 6342 H 580.381 0.298396 0.606577 0
M  V30 6343 H 582.935 1.44187 1.46285 0
M  V30 6344 H 581.165 0.494296 3.83528 0
M  V30 6345 H 582.854 0.894407 3.95923 0
M  V30 6346 H 583.62 3.33837 3.51821 0
M  V30 6347 H 579.499 2.22702 4.03639 0
M  V30 6348 H 583.043 5.67915 4.05115 0
M  V30 6349 H 578.94 4.55879 4.56995 0
M  V30 6350 H 579.708 6.62035 4.81303 0
M  V30 6351 N 582.371 -1.3172 0.865308 0
M  V30 6352 C 583.601 -2.00765 0.487543 0
M  V30 6353 C 584.009 -1.65145 -0.92325 0
M  V30 6354 O 583.352 -0.874294 -1.61561 0
M  V30 6355 C 583.414 -3.55122 0.559369 0
M  V30 6356 C 583.078 -4.14202 1.93095 0
M  V30 6357 C 584.075 -4.3165 2.89784 0
M  V30 6358 C 581.76 -4.50036 2.23099 0
M  V30 6359 C 583.754 -4.84114 4.14623 0
M  V30 6360 C 581.441 -5.02203 3.48189 0
M  V30 6361 C 582.439 -5.19192 4.43767 0
M  V30 6362 O 582.127 -5.70241 5.6664 0
M  V30 6363 H 581.859 -0.649066 0.188915 0
M  V30 6364 H 584.413 -1.69032 1.16694 0
M  V30 6365 H 582.643 -3.86295 -0.176926 0
M  V30 6366 H 584.332 -4.05428 0.195694 0
M  V30 6367 H 585.098 -4.04288 2.6791 0
M  V30 6368 H 580.977 -4.36091 1.49485 0
M  V30 6369 H 584.521 -4.9729 4.89233 0
M  V30 6370 H 580.418 -5.28997 3.69908 0
M  V30 6371 H 581.186 -5.88617 5.68746 0
M  V30 6372 N 583.85 -0.624285 -1.44708 0
M  V30 6373 C 584.779 0.0717025 -2.3339 0
M  V30 6374 C 585.76 0.841814 -1.47809 0
M  V30 6375 O 586.946 0.809056 -1.76544 0
M  V30 6376 C 584.076 1.05852 -3.30776 0
M  V30 6377 C 583.029 0.400503 -4.26122 0
M  V30 6378 C 582.356 1.49674 -5.13324 0
M  V30 6379 C 583.656 -0.688924 -5.17737 0
M  V30 6380 H 585.35 -0.668819 -2.91834 0
M  V30 6381 H 582.896 -0.32308 -1.40329 0
M  V30 6382 H 584.849 1.5541 -3.91696 0
M  V30 6383 H 583.572 1.82984 -2.70526 0
M  V30 6384 H 582.231 -0.0743687 -3.66525 0
M  V30 6385 H 581.88 2.25877 -4.49431 0
M  V30 6386 H 581.58 1.06188 -5.77926 0
M  V30 6387 H 583.104 1.99427 -5.77115 0
M  V30 6388 H 584.518 -0.276724 -5.72632 0
M  V30 6389 H 582.915 -1.04652 -5.90904 0
M  V30 6390 H 583.985 -1.55884 -4.5916 0
M  V30 6391 N 585.328 1.53329 -0.364422 0
M  V30 6392 C 586.558 2.05359 0.226096 0
M  V30 6393 C 586.966 1.23777 1.43094 0
M  V30 6394 O 586.309 0.271139 1.81688 0
M  V30 6395 C 586.371 3.52918 0.684794 0
M  V30 6396 C 586.035 4.55218 -0.403206 0
M  V30 6397 C 587.032 5.04583 -1.2527 0
M  V30 6398 C 584.717 4.99134 -0.563117 0
M  V30 6399 C 586.711 5.96463 -2.24745 0
M  V30 6400 C 584.398 5.9082 -1.56124 0
M  V30 6401 C 585.396 6.39375 -2.40184 0
M  V30 6402 O 585.084 7.29255 -3.38293 0
M  V30 6403 H 584.816 0.674588 0.0436772 0
M  V30 6404 H 587.37 1.98688 -0.520782 0
M  V30 6405 H 585.6 3.57122 1.48326 0
M  V30 6406 H 587.289 3.87812 1.19818 0
M  V30 6407 H 588.055 4.71403 -1.14034 0
M  V30 6408 H 583.934 4.60928 0.0813909 0
M  V30 6409 H 587.478 6.34285 -2.90393 0
M  V30 6410 H 583.375 6.23414 -1.67407 0
M  V30 6411 H 584.143 7.47249 -3.34009 0
M  V30 6412 N 586.806 0.0935595 1.57322 0
M  V30 6413 C 588.054 -0.569383 1.93913 0
M  V30 6414 C 588.375 -1.68817 0.976009 0
M  V30 6415 O 587.645 -1.9588 0.0278099 0
M  V30 6416 H 586.225 -0.21332 0.715894 0
M  V30 6417 H 588.887 0.156531 1.9427 0
M  V30 6418 H 587.983 -0.980577 2.96296 0
M  V30 6419 N 588.284 -1.56567 -0.180126 0
M  V30 6420 C 589.561 -1.7235 -0.924931 0
M  V30 6421 C 589.941 -0.652523 -2.00762 0
M  V30 6422 O 589.289 0.334115 -2.26044 0
M  V30 6423 C 589.499 -3.1523 -1.49771 0
M  V30 6424 C 590.847 -3.75921 -1.97405 0
M  V30 6425 O 591.871 -3.18452 -1.59583 0
M  V30 6426 O 590.73 -4.7681 -2.67048 0
M  V30 6427 H 587.824 -0.703502 -0.434758 0
M  V30 6428 H 590.37 -1.6886 -0.168647 0
M  V30 6429 H 589.142 -3.84656 -0.718027 0
M  V30 6430 H 588.765 -3.23009 -2.31842 0
M  V30 6431 N 589.762 0.448376 -1.51087 0
M  V30 6432 C 590.99 1.22143 -1.66999 0
M  V30 6433 C 591.405 1.85283 -0.362699 0
M  V30 6434 O 590.762 1.70236 0.65772 0
M  V30 6435 C 590.813 2.31357 -2.7777 0
M  V30 6436 O 590.534 1.70801 -4.03434 0
M  V30 6437 C 592.035 3.21836 -3.04855 0
M  V30 6438 H 589.255 0.368558 -0.560719 0
M  V30 6439 H 591.799 0.532618 -1.97442 0
M  V30 6440 H 589.954 2.95973 -2.49958 0
M  V30 6441 H 590.368 2.42895 -4.64868 0
M  V30 6442 H 591.842 3.94627 -3.85971 0
M  V30 6443 H 592.319 3.81949 -2.16821 0
M  V30 6444 H 592.925 2.62933 -3.34285 0
M  V30 6445 N 591.24 1.41047 0.703093 0
M  V30 6446 C 592.15 1.44645 1.84703 0
M  V30 6447 C 593.166 0.337778 1.7069 0
M  V30 6448 O 594.342 0.584327 1.92737 0
M  V30 6449 C 591.407 1.31928 3.20618 0
M  V30 6450 C 590.468 2.53047 3.46794 0
M  V30 6451 C 589.701 2.40927 4.76224 0
M  V30 6452 O 589.924 1.42978 5.5219 0
M  V30 6453 O 588.858 3.30543 5.03016 0
M  V30 6454 H 592.684 2.41139 1.84624 0
M  V30 6455 H 590.269 1.22504 0.855167 0
M  V30 6456 H 592.151 1.27092 4.01778 0
M  V30 6457 H 590.826 0.385469 3.21397 0
M  V30 6458 H 589.733 2.6346 2.65593 0
M  V30 6459 H 591.066 3.45231 3.50822 0
M  V30 6460 N 592.718 -0.936591 1.26751 0
M  V30 6461 C 593.648 -2.05315 1.11212 0
M  V30 6462 C 594.629 -1.70092 0.0160262 0
M  V30 6463 O 595.814 -1.93279 0.188894 0
M  V30 6464 C 592.944 -3.39123 0.749171 0
M  V30 6465 C 591.898 -3.88425 1.79751 0
M  V30 6466 C 591.224 -5.18936 1.28876 0
M  V30 6467 C 592.524 -4.12798 3.19992 0
M  V30 6468 H 594.218 -2.18573 2.04613 0
M  V30 6469 H 591.764 -1.05027 0.985159 0
M  V30 6470 H 593.717 -4.16704 0.627323 0
M  V30 6471 H 592.441 -3.25855 -0.220543 0
M  V30 6472 H 591.1 -3.13028 1.90811 0
M  V30 6473 H 590.748 -5.02051 0.308757 0
M  V30 6474 H 590.448 -5.52892 1.98958 0
M  V30 6475 H 591.972 -5.99096 1.17967 0
M  V30 6476 H 593.386 -4.80977 3.11983 0
M  V30 6477 H 591.783 -4.58044 3.87705 0
M  V30 6478 H 592.853 -3.18412 3.65707 0
M  V30 6479 N 594.196 -1.08629 -1.14182 0
M  V30 6480 C 595.473 -0.73002 -1.81466 0
M  V30 6481 C 595.853 0.785996 -1.95922 0
M  V30 6482 O 595.201 1.70535 -1.52086 0
M  V30 6483 C 595.411 -1.45957 -3.17014 0
M  V30 6484 C 596.759 -1.62008 -3.92477 0
M  V30 6485 O 597.783 -1.42141 -3.26611 0
M  V30 6486 O 596.642 -1.94806 -5.106 0
M  V30 6487 H 593.736 -0.261307 -0.784632 0
M  V30 6488 H 596.282 -1.188 -1.2118 0
M  V30 6489 H 595.054 -2.49221 -3.01669 0
M  V30 6490 H 594.677 -0.993222 -3.84995 0
M  V30 6491 N 595.674 1.31259 -0.872281 0
M  V30 6492 C 596.92 1.96913 -0.485083 0
M  V30 6493 C 597.253 1.68774 0.960667 0
M  V30 6494 O 596.528 0.985495 1.67685 0
M  V30 6495 C 596.811 3.52299 -0.745502 0
M  V30 6496 C 596.664 3.90002 -2.24095 0
M  V30 6497 C 597.983 4.39582 -0.213516 0
M  V30 6498 H 595.102 0.715252 -0.177716 0
M  V30 6499 H 597.744 1.55347 -1.09395 0
M  V30 6500 H 595.894 3.87835 -0.227276 0
M  V30 6501 H 597.566 3.64555 -2.82661 0
M  V30 6502 H 595.809 3.38526 -2.71261 0
M  V30 6503 H 596.48 4.98352 -2.37381 0
M  V30 6504 H 598.956 4.10882 -0.656902 0
M  V30 6505 H 597.832 5.47251 -0.42516 0
M  V30 6506 H 598.093 4.33158 0.884666 0
M  V30 6507 N 597.152 0.631951 1.44375 0
M  V30 6508 C 598.377 0.142146 2.06912 0
M  V30 6509 C 598.802 -1.17456 1.4692 0
M  V30 6510 O 598.16 -1.72074 0.570975 0
M  V30 6511 C 598.208 0.0417952 3.60576 0
M  V30 6512 O 597.312 -1.00194 4.00044 0
M  V30 6513 H 596.653 0.0851491 0.658518 0
M  V30 6514 H 599.183 0.868863 1.85235 0
M  V30 6515 H 599.193 -0.148517 4.0773 0
M  V30 6516 H 597.868 1.0031 4.03622 0
M  V30 6517 H 596.445 -0.786131 3.64519 0
M  V30 6518 N 598.631 -1.53133 0.372548 0
M  V30 6519 C 599.856 -2.0625 -0.218098 0
M  V30 6520 C 600.281 -1.24375 -1.41111 0
M  V30 6521 O 599.639 -0.264554 -1.79359 0
M  V30 6522 C 599.687 -3.55858 -0.582876 0
M  V30 6523 O 598.791 -3.76667 -1.67917 0
M  V30 6524 H 598.132 -0.663317 -0.030104 0
M  V30 6525 H 600.662 -1.97477 0.535169 0
M  V30 6526 H 600.672 -3.99007 -0.851925 0
M  V30 6527 H 599.347 -4.14892 0.289428 0
M  V30 6528 H 597.924 -3.45413 -1.40513 0
M  V30 6529 N 600.109 -0.101901 -1.5727 0
M  V30 6530 C 601.039 0.851544 -2.17419 0
M  V30 6531 C 602.02 1.28942 -1.10941 0
M  V30 6532 O 603.205 1.35509 -1.39107 0
M  V30 6533 C 600.335 2.10816 -2.75996 0
M  V30 6534 C 599.289 1.80867 -3.87906 0
M  V30 6535 C 598.615 3.13413 -4.33216 0
M  V30 6536 C 599.915 1.0903 -5.10793 0
M  V30 6537 H 601.609 0.350381 -2.97343 0
M  V30 6538 H 599.155 0.16709 -1.43027 0
M  V30 6539 H 601.108 2.77959 -3.16729 0
M  V30 6540 H 599.832 2.63227 -1.93337 0
M  V30 6541 H 598.491 1.16119 -3.47724 0
M  V30 6542 H 598.139 3.63725 -3.47438 0
M  V30 6543 H 597.839 2.94155 -5.08671 0
M  V30 6544 H 599.363 3.81704 -4.76586 0
M  V30 6545 H 600.777 1.66295 -5.48652 0
M  V30 6546 H 599.174 0.99927 -5.91722 0
M  V30 6547 H 600.244 0.0741704 -4.84843 0
M  V30 6548 N 601.587 1.56661 0.17182 0
M  V30 6549 C 602.497 1.99604 1.2327 0
M  V30 6550 C 603.513 0.907333 1.4847 0
M  V30 6551 O 604.689 1.21492 1.60629 0
M  V30 6552 C 601.754 2.34685 2.55194 0
M  V30 6553 C 600.815 3.57381 2.3786 0
M  V30 6554 C 600.048 3.90779 3.63494 0
M  V30 6555 O 600.271 3.25152 4.6865 0
M  V30 6556 O 599.205 4.84129 3.57634 0
M  V30 6557 H 603.031 2.90114 0.898192 0
M  V30 6558 H 600.616 1.44522 0.378647 0
M  V30 6559 H 602.498 2.5822 3.33017 0
M  V30 6560 H 601.173 1.47336 2.88225 0
M  V30 6561 H 600.08 3.39064 1.5807 0
M  V30 6562 H 601.413 4.45268 2.09754 0
M  V30 6563 N 603.065 -0.440357 1.51323 0
M  V30 6564 C 604.012 -1.53429 1.72419 0
M  V30 6565 C 604.982 -1.56165 0.565826 0
M  V30 6566 O 606.167 -1.73222 0.799917 0
M  V30 6567 C 603.307 -2.91169 1.85242 0
M  V30 6568 C 602.42 -2.97985 3.12777 0
M  V30 6569 C 601.555 -4.26829 3.16212 0
M  V30 6570 C 600.594 -4.27501 4.38074 0
M  V30 6571 N 599.731 -5.47866 4.39076 0
M  V30 6572 H 604.571 -1.34743 2.65797 0
M  V30 6573 H 602.108 -0.654608 1.31732 0
M  V30 6574 H 604.066 -3.71087 1.90658 0
M  V30 6575 H 602.696 -3.0842 0.952744 0
M  V30 6576 H 601.748 -2.10749 3.16685 0
M  V30 6577 H 603.06 -2.94342 4.02696 0
M  V30 6578 H 602.214 -5.15118 3.20527 0
M  V30 6579 H 600.953 -4.33124 2.24176 0
M  V30 6580 H 599.958 -3.37606 4.33938 0
M  V30 6581 H 601.183 -4.22873 5.31371 0
M  V30 6582 H 599.129 -5.54887 3.49909 0
M  V30 6583 H 599.046 -5.46091 5.22801 0
M  V30 6584 H 600.314 -6.38195 4.4758 0
M  V30 6585 N 604.543 -1.41418 -0.695603 0
M  V30 6586 C 605.493 -1.39731 -1.80165 0
M  V30 6587 C 606.477 -0.271689 -1.5859 0
M  V30 6588 O 607.669 -0.512354 -1.69422 0
M  V30 6589 C 604.798 -1.28187 -3.1847 0
M  V30 6590 C 603.884 -2.45612 -3.45739 0
M  V30 6591 N 604.275 -3.71077 -3.43708 0
M  V30 6592 C 602.573 -2.39424 -3.76288 0
M  V30 6593 C 603.274 -4.48957 -3.69882 0
M  V30 6594 N 602.25 -3.7907 -3.89624 0
M  V30 6595 H 606.052 -2.34656 -1.76957 0
M  V30 6596 H 603.566 -1.35473 -0.89559 0
M  V30 6597 H 605.563 -1.2506 -3.977 0
M  V30 6598 H 604.223 -0.342468 -3.22889 0
M  V30 6599 H 605.234 -4.03963 -3.2409 0
M  V30 6600 H 601.911 -1.53955 -3.88077 0
M  V30 6601 H 603.301 -5.57887 -3.74448 0
M  V30 6602 N 606.021 0.929856 -1.27246 0
M  V30 6603 C 606.951 2.04722 -1.12299 0
M  V30 6604 C 607.932 1.70082 -0.0250464 0
M  V30 6605 O 609.117 1.93176 -0.199141 0
M  V30 6606 C 606.247 3.38721 -0.767145 0
M  V30 6607 C 605.201 3.87466 -1.81808 0
M  V30 6608 C 604.527 5.18246 -1.31626 0
M  V30 6609 C 605.827 4.11095 -3.22177 0
M  V30 6610 H 607.521 2.17485 -2.05769 0
M  V30 6611 H 605.067 1.04503 -0.990715 0
M  V30 6612 H 607.02 4.16366 -0.649413 0
M  V30 6613 H 605.744 3.25967 0.203259 0
M  V30 6614 H 604.403 3.12012 -1.92468 0
M  V30 6615 H 604.051 5.01881 -0.335378 0
M  V30 6616 H 603.751 5.51829 -2.01887 0
M  V30 6617 H 605.275 5.98462 -1.21143 0
M  V30 6618 H 606.689 4.79316 -3.1453 0
M  V30 6619 H 605.086 4.55982 -3.90129 0
M  V30 6620 H 606.156 3.16468 -3.67391 0
M  V30 6621 N 607.499 1.09233 1.13605 0
M  V30 6622 C 608.431 0.687794 2.18637 0
M  V30 6623 C 609.444 -0.26936 1.60556 0
M  V30 6624 O 610.633 -0.0557162 1.78413 0
M  V30 6625 C 607.733 -0.00751901 3.38899 0
M  V30 6626 C 606.906 0.97067 4.26494 0
M  V30 6627 C 605.965 0.309129 5.25291 0
M  V30 6628 O 604.991 0.956149 5.61112 0
M  V30 6629 N 606.193 -0.937555 5.72879 0
M  V30 6630 H 608.958 1.59141 2.53957 0
M  V30 6631 H 606.519 0.979515 1.28907 0
M  V30 6632 H 608.511 -0.461238 4.02063 0
M  V30 6633 H 607.081 -0.813353 3.01833 0
M  V30 6634 H 606.301 1.603 3.60135 0
M  V30 6635 H 607.589 1.63323 4.81875 0
M  V30 6636 H 606.987 -1.48281 5.4592 0
M  V30 6637 H 605.544 -1.33463 6.3799 0
M  V30 6638 N 608.977 -1.30795 0.87923 0
M  V30 6639 C 610.205 -2.00527 0.509548 0
M  V30 6640 C 610.62 -1.65944 -0.90045 0
M  V30 6641 O 609.977 -0.893525 -1.5913 0
M  V30 6642 C 610.028 -3.55276 0.667943 0
M  V30 6643 O 609.749 -3.88625 2.02242 0
M  V30 6644 C 611.25 -4.4228 0.300494 0
M  V30 6645 H 608.47 -0.641261 0.197549 0
M  V30 6646 H 611.014 -1.66813 1.18295 0
M  V30 6647 H 609.169 -3.87377 0.0419843 0
M  V30 6648 H 609.583 -4.83334 2.03688 0
M  V30 6649 H 611.057 -5.50061 0.462242 0
M  V30 6650 H 611.534 -4.32556 -0.76106 0
M  V30 6651 H 612.14 -4.15613 0.902536 0
M  V30 6652 N 610.455 -0.639598 -1.44038 0
M  V30 6653 C 611.388 0.109736 -2.27936 0
M  V30 6654 C 612.366 0.843095 -1.39035 0
M  V30 6655 O 613.55 0.845456 -1.68476 0
M  V30 6656 C 610.677 1.16173 -3.18153 0
M  V30 6657 C 609.723 0.527954 -4.2322 0
M  V30 6658 S 610.556 -0.688318 -5.31058 0
M  V30 6659 C 611.712 0.363481 -6.24844 0
M  V30 6660 H 611.945 -0.601986 -2.91142 0
M  V30 6661 H 609.478 -0.42802 -1.48349 0
M  V30 6662 H 611.436 1.76372 -3.7068 0
M  V30 6663 H 610.097 1.84569 -2.54151 0
M  V30 6664 H 609.29 1.32054 -4.86393 0
M  V30 6665 H 608.892 0.000396444 -3.74 0
M  V30 6666 H 611.184 1.23362 -6.66174 0
M  V30 6667 H 612.127 -0.23288 -7.07717 0
M  V30 6668 H 612.535 0.693179 -5.60228 0
M  V30 6669 N 611.933 1.52934 -0.380664 0
M  V30 6670 C 612.883 2.22989 0.475399 0
M  V30 6671 C 613.867 1.23058 1.03661 0
M  V30 6672 O 615.059 1.48436 0.964146 0
M  V30 6673 C 612.188 3.0338 1.60671 0
M  V30 6674 C 611.274 4.107 1.05766 0
M  V30 6675 N 611.665 5.05264 0.232837 0
M  V30 6676 C 609.963 4.25676 1.33101 0
M  V30 6677 C 610.664 5.81658 -0.0695134 0
M  V30 6678 N 609.64 5.40989 0.532144 0
M  V30 6679 H 613.442 2.93456 -0.161418 0
M  V30 6680 H 610.956 1.61291 -0.189495 0
M  V30 6681 H 612.953 3.52098 2.23232 0
M  V30 6682 H 611.613 2.34446 2.24644 0
M  V30 6683 H 612.624 5.17739 -0.129204 0
M  V30 6684 H 609.301 3.6797 1.97241 0
M  V30 6685 H 610.691 6.67843 -0.737269 0
M  V30 6686 N 613.412 0.11024 1.57214 0
M  V30 6687 C 614.66 -0.548783 1.94506 0
M  V30 6688 C 614.981 -1.67772 0.99386 0
M  V30 6689 O 614.251 -1.9584 0.0485841 0
M  V30 6690 H 612.831 -0.205715 0.718116 0
M  V30 6691 H 615.493 0.177127 1.94093 0
M  V30 6692 H 614.589 -0.949096 2.97319 0
M  V30 6693 N 614.89 -1.56749 -0.16351 0
M  V30 6694 C 616.118 -1.86577 -0.894233 0
M  V30 6695 C 616.533 -0.696543 -1.75481 0
M  V30 6696 O 615.89 0.334161 -1.79415 0
M  V30 6697 C 615.941 -3.15508 -1.76456 0
M  V30 6698 O 615.662 -4.27926 -0.938685 0
M  V30 6699 C 617.163 -3.58737 -2.60428 0
M  V30 6700 H 614.383 -0.618829 -0.259405 0
M  V30 6701 H 616.927 -2.03863 -0.161259 0
M  V30 6702 H 615.082 -3.00025 -2.45079 0
M  V30 6703 H 615.496 -5.01546 -1.53465 0
M  V30 6704 H 616.97 -4.51832 -3.17099 0
M  V30 6705 H 617.447 -2.83229 -3.35675 0
M  V30 6706 H 618.053 -3.76858 -1.97125 0
M  V30 6707 N 616.368 0.432326 -1.51554 0
M  V30 6708 C 617.596 1.20364 -1.68286 0
M  V30 6709 C 618.011 1.84888 -0.38233 0
M  V30 6710 O 617.368 1.70924 0.639627 0
M  V30 6711 C 617.419 2.28398 -2.80208 0
M  V30 6712 O 617.14 1.66512 -4.05223 0
M  V30 6713 C 618.641 3.18584 -3.08251 0
M  V30 6714 H 615.861 0.36259 -0.564596 0
M  V30 6715 H 618.405 0.511647 -1.97996 0
M  V30 6716 H 616.56 2.93305 -2.53083 0
M  V30 6717 H 616.974 2.37951 -4.67418 0
M  V30 6718 H 618.448 3.90511 -3.90135 0
M  V30 6719 H 618.925 3.79628 -2.2086 0
M  V30 6720 H 619.531 2.59372 -3.37055 0
M  V30 6721 N 617.846 1.41785 0.688094 0
M  V30 6722 C 619.074 1.44915 1.47673 0
M  V30 6723 C 619.489 0.0565786 1.88715 0
M  V30 6724 O 618.846 -0.92579 1.57275 0
M  V30 6725 C 618.897 2.36452 2.73446 0
M  V30 6726 O 618.618 3.7029 2.34131 0
M  V30 6727 C 620.119 2.48463 3.67125 0
M  V30 6728 H 617.339 0.493324 0.454832 0
M  V30 6729 H 619.883 1.86153 0.846594 0
M  V30 6730 H 618.038 1.98502 3.3268 0
M  V30 6731 H 618.452 4.19183 3.15255 0
M  V30 6732 H 619.926 3.16662 4.52138 0
M  V30 6733 H 620.403 1.51826 4.12123 0
M  V30 6734 H 621.009 2.8708 3.13792 0
M  V30 6735 N 619.324 -0.923095 1.27737 0
M  V30 6736 C 620.274 -2.01061 1.0751 0
M  V30 6737 C 621.258 -1.609 0.00165451 0
M  V30 6738 O 622.45 -1.75618 0.220724 0
M  V30 6739 C 619.579 -3.35467 0.729162 0
M  V30 6740 C 618.665 -3.82059 1.84098 0
M  V30 6741 N 619.056 -4.01115 3.08124 0
M  V30 6742 C 617.354 -4.11135 1.7287 0
M  V30 6743 C 618.055 -4.39989 3.80506 0
M  V30 6744 N 617.031 -4.47721 3.08297 0
M  V30 6745 H 620.833 -2.13832 2.01626 0
M  V30 6746 H 618.347 -1.11027 1.18519 0
M  V30 6747 H 620.344 -4.13049 0.565355 0
M  V30 6748 H 619.004 -3.24056 -0.204334 0
M  V30 6749 H 620.015 -3.87294 3.43836 0
M  V30 6750 H 616.692 -4.08412 0.866352 0
M  V30 6751 H 618.082 -4.62773 4.87125 0
M  V30 6752 N 620.802 -1.09834 -1.13024 0
M  V30 6753 C 622.049 -0.83695 -1.84395 0
M  V30 6754 C 622.377 0.637463 -1.83757 0
M  V30 6755 O 621.632 1.48554 -1.27398 0
M  V30 6756 C 621.931 -1.32263 -3.32026 0
M  V30 6757 C 621.597 -2.80739 -3.52841 0
M  V30 6758 C 620.259 -3.21286 -3.5823 0
M  V30 6759 C 622.611 -3.76449 -3.60466 0
M  V30 6760 C 619.939 -4.56308 -3.68781 0
M  V30 6761 C 622.291 -5.11266 -3.72546 0
M  V30 6762 C 620.955 -5.51397 -3.76189 0
M  V30 6763 H 620.225 -0.306262 -0.674748 0
M  V30 6764 H 622.872 -1.37385 -1.33408 0
M  V30 6765 H 621.177 -0.705618 -3.85394 0
M  V30 6766 H 622.874 -1.09695 -3.85705 0
M  V30 6767 H 619.464 -2.48363 -3.49305 0
M  V30 6768 H 623.648 -3.46234 -3.55578 0
M  V30 6769 H 618.904 -4.86832 -3.69871 0
M  V30 6770 H 623.078 -5.85279 -3.77388 0
M  V30 6771 H 620.705 -6.56017 -3.84117 0
M  V30 6772 N 622.28 1.30327 -0.886154 0
M  V30 6773 C 623.557 1.90922 -0.425217 0
M  V30 6774 C 623.937 1.80533 1.09413 0
M  V30 6775 O 623.285 1.2233 1.92996 0
M  V30 6776 C 623.495 3.36529 -0.924638 0
M  V30 6777 C 624.843 4.13598 -0.960305 0
M  V30 6778 O 625.867 3.45377 -0.871382 0
M  V30 6779 O 624.726 5.35482 -1.09184 0
M  V30 6780 H 621.82 0.81668 -0.130238 0
M  V30 6781 H 624.366 1.38886 -0.975132 0
M  V30 6782 H 623.138 3.38181 -1.96849 0
M  V30 6783 H 622.761 3.96021 -0.353955 0
M  V30 6784 N 623.758 0.647228 1.43697 0
M  V30 6785 C 624.705 -0.0480092 2.3075 0
M  V30 6786 C 625.675 -0.820705 1.44408 0
M  V30 6787 O 626.86 -0.798515 1.73287 0
M  V30 6788 C 624 -1.01259 3.2991 0
M  V30 6789 C 623.113 -0.236629 4.31351 0
M  V30 6790 C 622.248 -1.19447 5.17596 0
M  V30 6791 C 621.287 -0.408595 6.10735 0
M  V30 6792 N 620.424 -1.31772 6.89623 0
M  V30 6793 H 625.264 0.700238 2.89656 0
M  V30 6794 H 622.801 0.357082 1.427 0
M  V30 6795 H 624.759 -1.58538 3.85903 0
M  V30 6796 H 623.389 -1.72778 2.72667 0
M  V30 6797 H 622.441 0.452353 3.77701 0
M  V30 6798 H 623.753 0.374731 4.9739 0
M  V30 6799 H 622.907 -1.83809 5.78186 0
M  V30 6800 H 621.646 -1.83975 4.51669 0
M  V30 6801 H 620.651 0.24841 5.49239 0
M  V30 6802 H 621.876 0.232188 6.78703 0
M  V30 6803 H 619.822 -1.94991 6.2635 0
M  V30 6804 H 619.739 -0.760779 7.52162 0
M  V30 6805 H 621.007 -1.94967 7.54724 0
M  V30 6806 N 625.236 -1.5273 0.388769 0
M  V30 6807 C 626.485 -2.00757 -0.194833 0
M  V30 6808 C 626.798 -1.27951 -1.47946 0
M  V30 6809 O 628.004 -1.66686 -2.14308 0
M  V30 6810 C 626.46 -3.57695 -0.397762 0
M  V30 6811 C 626.068 -4.394 0.873583 0
M  V30 6812 C 627.812 -4.14012 -0.937759 0
M  V30 6813 C 625.719 -5.87938 0.638962 0
M  V30 6814 H 624.649 -0.750101 -0.0765845 0
M  V30 6815 H 627.3 -1.76239 0.511086 0
M  V30 6816 H 625.682 -3.7846 -1.16552 0
M  V30 6817 H 626.856 -4.30403 1.64591 0
M  V30 6818 H 625.171 -3.94301 1.33849 0
M  V30 6819 H 627.768 -5.22645 -1.12899 0
M  V30 6820 H 628.111 -3.7007 -1.90666 0
M  V30 6821 H 628.644 -3.97137 -0.229588 0
M  V30 6822 H 625.383 -6.36202 1.57885 0
M  V30 6823 H 624.903 -5.99726 -0.094443 0
M  V30 6824 H 626.582 -6.46423 0.273299 0
M  V30 6825 N 626.714 -0.118576 -1.57153 0
M  V30 6826 C 627.962 0.538461 -1.94795 0
M  V30 6827 C 628.283 1.67243 -1.00274 0
M  V30 6828 O 627.553 1.95811 -0.0589692 0
M  V30 6829 H 626.133 0.201904 -0.719197 0
M  V30 6830 H 628.795 -0.187418 -1.93997 0
M  V30 6831 H 627.891 0.933315 -2.97818 0
M  V30 6832 N 628.193 1.56834 0.155195 0
M  V30 6833 C 629.123 2.00678 1.19376 0
M  V30 6834 C 630.104 0.884973 1.45266 0
M  V30 6835 O 631.289 1.1522 1.56326 0
M  V30 6836 C 628.419 2.38042 2.5289 0
M  V30 6837 C 627.373 3.53332 2.41538 0
M  V30 6838 C 626.699 3.76485 3.79688 0
M  V30 6839 C 627.999 4.86265 1.9064 0
M  V30 6840 H 629.693 2.87688 0.829232 0
M  V30 6841 H 627.239 1.38407 0.397445 0
M  V30 6842 H 629.192 2.67314 3.25763 0
M  V30 6843 H 627.916 1.4796 2.91162 0
M  V30 6844 H 626.575 3.24213 1.71117 0
M  V30 6845 H 626.223 2.83667 4.15382 0
M  V30 6846 H 625.923 4.54068 3.72956 0
M  V30 6847 H 627.447 4.08174 4.54122 0
M  V30 6848 H 628.861 5.14308 2.53299 0
M  V30 6849 H 627.258 5.67597 1.94818 0
M  V30 6850 H 628.328 4.77184 0.861596 0
M  V30 6851 N 629.671 -0.424282 1.51781 0
M  V30 6852 C 630.581 -1.54087 1.76902 0
M  V30 6853 C 631.597 -1.61249 0.653826 0
M  V30 6854 O 632.773 -1.78247 0.937552 0
M  V30 6855 C 629.838 -2.8996 1.90063 0
M  V30 6856 C 628.899 -2.92809 3.13945 0
M  V30 6857 C 628.132 -4.22201 3.26469 0
M  V30 6858 O 628.355 -5.15286 2.44616 0
M  V30 6859 O 627.289 -4.31599 4.1953 0
M  V30 6860 H 631.115 -1.358 2.71647 0
M  V30 6861 H 628.7 -0.608618 1.36441 0
M  V30 6862 H 630.582 -3.70575 2.0063 0
M  V30 6863 H 629.257 -3.08347 0.985067 0
M  V30 6864 H 628.164 -2.11102 3.08847 0
M  V30 6865 H 629.497 -2.79369 4.05233 0
M  V30 6866 N 631.149 -1.42148 -0.680565 0
M  V30 6867 C 632.059 -1.47565 -1.82378 0
M  V30 6868 C 633.075 -0.36489 -1.70131 0
M  V30 6869 O 634.251 -0.614916 -1.91783 0
M  V30 6870 C 631.316 -1.37013 -3.18478 0
M  V30 6871 C 630.377 -2.58532 -3.42724 0
M  V30 6872 C 629.61 -2.48473 -4.72331 0
M  V30 6873 O 629.833 -1.51745 -5.49845 0
M  V30 6874 O 628.767 -3.38503 -4.97694 0
M  V30 6875 H 632.593 -2.44045 -1.80764 0
M  V30 6876 H 630.178 -1.23849 -0.835569 0
M  V30 6877 H 632.06 -1.33468 -3.99705 0
M  V30 6878 H 630.735 -0.436552 -3.20743 0
M  V30 6879 H 629.642 -2.67652 -2.61368 0
M  V30 6880 H 630.975 -3.50769 -3.45286 0
M  V30 6881 N 632.627 0.916307 -1.28225 0
M  V30 6882 C 633.537 2.05165 -1.13775 0
M  V30 6883 C 634.553 1.73879 -0.0649418 0
M  V30 6884 O 635.729 1.99531 -0.273722 0
M  V30 6885 C 632.794 3.37385 -0.798267 0
M  V30 6886 C 631.855 3.82296 -1.95316 0
M  V30 6887 C 631.088 5.08206 -1.62978 0
M  V30 6888 O 631.311 5.6781 -0.542948 0
M  V30 6889 O 630.245 5.48768 -2.47261 0
M  V30 6890 H 634.071 2.20273 -2.09078 0
M  V30 6891 H 631.656 1.0373 -1.07519 0
M  V30 6892 H 633.538 4.16773 -0.62278 0
M  V30 6893 H 632.213 3.23458 0.125139 0
M  V30 6894 H 631.12 3.03746 -2.18378 0
M  V30 6895 H 632.453 4.00782 -2.85718 0
M  V30 6896 N 634.105 1.10431 1.1244 0
M  V30 6897 C 635.352 0.846717 1.83948 0
M  V30 6898 C 635.68 -0.627709 1.84093 0
M  V30 6899 O 634.935 -1.47876 1.28184 0
M  V30 6900 C 635.234 1.34022 3.3132 0
M  V30 6901 C 634.9 2.82606 3.51347 0
M  V30 6902 C 633.562 3.23182 3.56521 0
M  V30 6903 C 635.914 3.78356 3.58464 0
M  V30 6904 C 633.242 4.58258 3.66356 0
M  V30 6905 C 635.594 5.13234 3.69829 0
M  V30 6906 C 634.258 5.53384 3.73259 0
M  V30 6907 H 633.528 0.309836 0.673114 0
M  V30 6908 H 636.175 1.38091 1.32677 0
M  V30 6909 H 634.48 0.726047 3.85014 0
M  V30 6910 H 636.177 1.11739 3.85118 0
M  V30 6911 H 632.767 2.50212 3.47983 0
M  V30 6912 H 636.951 3.48115 3.53737 0
M  V30 6913 H 632.207 4.88787 3.67284 0
M  V30 6914 H 636.381 5.87272 3.74279 0
M  V30 6915 H 634.008 6.58045 3.80633 0
M  V30 6916 N 635.583 -1.29855 0.893053 0
M  V30 6917 C 636.999 -1.48366 0.588199 0
M  V30 6918 C 637.199 -1.81654 -0.872018 0
M  V30 6919 O 636.255 -1.909 -1.65268 0
M  V30 6920 C 637.568 -2.60136 1.5083 0
M  V30 6921 C 639.116 -2.74014 1.51279 0
M  V30 6922 C 639.591 -3.88905 2.41902 0
M  V30 6923 N 641.082 -3.96228 2.39911 0
M  V30 6924 C 641.817 -4.84458 3.06738 0
M  V30 6925 N 641.313 -5.77426 3.8282 0
M  V30 6926 N 643.106 -4.77894 2.95929 0
M  V30 6927 H 635.257 -1.06522 1.83757 0
M  V30 6928 H 637.52 -0.528495 0.787018 0
M  V30 6929 H 637.226 -2.42383 2.54839 0
M  V30 6930 H 637.1 -3.56793 1.22388 0
M  V30 6931 H 639.487 -2.91167 0.480179 0
M  V30 6932 H 639.568 -1.77952 1.83757 0
M  V30 6933 H 639.212 -3.72508 3.45253 0
M  V30 6934 H 639.142 -4.84322 2.06737 0
M  V30 6935 H 641.633 -3.29728 1.84629 0
M  V30 6936 H 641.946 -6.41529 4.30883 0
M  V30 6937 H 640.291 -5.77332 3.86927 0
M  V30 6938 H 643.482 -4.04248 2.36012 0
M  V30 6939 H 643.655 -5.46444 3.48286 0
M  V30 6940 N 637.061 -0.65484 -1.43351 0
M  V30 6941 C 638.008 0.0357713 -2.30772 0
M  V30 6942 C 638.978 0.813035 -1.44841 0
M  V30 6943 O 640.163 0.789314 -1.73708 0
M  V30 6944 C 637.303 0.995084 -3.30442 0
M  V30 6945 C 636.416 0.21375 -4.31471 0
M  V30 6946 C 635.551 1.16701 -5.18222 0
M  V30 6947 C 634.59 0.376201 -6.10943 0
M  V30 6948 N 633.727 1.28113 -6.90313 0
M  V30 6949 H 638.567 -0.71559 -2.89281 0
M  V30 6950 H 636.104 -0.364645 -1.42509 0
M  V30 6951 H 638.062 1.5649 -3.86739 0
M  V30 6952 H 636.692 1.7133 -2.7358 0
M  V30 6953 H 635.744 -0.472377 -3.77456 0
M  V30 6954 H 637.056 -0.401103 -4.97185 0
M  V30 6955 H 636.21 1.8074 -5.79153 0
M  V30 6956 H 634.949 1.81577 -4.52638 0
M  V30 6957 H 633.954 -0.277534 -5.49099 0
M  V30 6958 H 635.179 -0.268178 -6.7857 0
M  V30 6959 H 633.125 1.91666 -6.27376 0
M  V30 6960 H 633.042 0.720879 -7.52555 0
M  V30 6961 H 634.31 1.90962 -7.55747 0
M  V30 6962 N 638.539 1.52521 -0.396863 0
M  V30 6963 C 639.469 2.29582 0.425941 0
M  V30 6964 C 640.45 1.33281 1.05689 0
M  V30 6965 O 641.635 1.62181 1.06823 0
M  V30 6966 C 638.765 3.10821 1.54943 0
M  V30 6967 C 637.719 4.15069 1.04413 0
M  V30 6968 C 637.045 4.84578 2.26028 0
M  V30 6969 C 638.345 5.22191 0.106767 0
M  V30 6970 H 640.039 2.98612 -0.217045 0
M  V30 6971 H 637.585 1.43611 -0.105826 0
M  V30 6972 H 639.538 3.63492 2.13193 0
M  V30 6973 H 638.262 2.39538 2.22011 0
M  V30 6974 H 636.921 3.63389 0.484118 0
M  V30 6975 H 636.569 4.09835 2.91623 0
M  V30 6976 H 636.269 5.55043 1.92876 0
M  V30 6977 H 637.793 5.40056 2.84906 0
M  V30 6978 H 639.207 5.70176 0.597685 0
M  V30 6979 H 637.604 5.99947 -0.135352 0
M  V30 6980 H 638.674 4.77531 -0.842134 0
M  V30 6981 N 640.017 0.126909 1.57088 0
M  V30 6982 C 641.245 -0.53667 1.99819 0
M  V30 6983 C 641.66 -1.5972 1.00673 0
M  V30 6984 O 641.017 -1.825 0.000747365 0
M  V30 6985 C 641.068 -1.15563 3.42531 0
M  V30 6986 O 640.789 -0.137483 4.37884 0
M  V30 6987 C 642.29 -1.90176 4.00435 0
M  V30 6988 H 639.51 -0.141443 0.655923 0
M  V30 6989 H 642.054 0.215578 2.03361 0
M  V30 6990 H 640.209 -1.85861 3.39904 0
M  V30 6991 H 640.623 -0.588229 5.21191 0
M  V30 6992 H 642.097 -2.28801 5.02349 0
M  V30 6993 H 642.574 -2.78002 3.40017 0
M  V30 6994 H 643.18 -1.24623 4.06632 0
M  V30 6995 N 641.495 -1.56914 -0.146875 0
M  V30 6996 C 642.443 -1.99224 -1.20053 0
M  V30 6997 C 643.437 -0.884661 -1.44465 0
M  V30 6998 O 644.643 -1.06984 -1.44756 0
M  V30 6999 H 641.018 -0.634191 -0.404112 0
M  V30 7000 H 642.989 -2.86998 -0.816987 0
M  V30 7001 C 641.738 -2.38899 -2.52632 0
M  V30 7002 H 641.061 -3.23677 -2.34677 0
M  V30 7003 H 642.501 -2.72326 -3.24984 0
M  V30 7004 C 640.96 -1.2417 -3.13183 0
M  V30 7005 O 641.49 -0.542503 -3.9802 0
M  V30 7006 N 639.696 -1.00592 -2.72635 0
M  V30 7007 H 639.243 -1.57627 -2.03744 0
M  V30 7008 H 639.201 -0.240174 -3.13481 0
M  V30 7009 N 642.974 0.416227 -1.52004 0
M  V30 7010 C 644.22 1.16555 -1.6596 0
M  V30 7011 C 644.553 1.90347 -0.384906 0
M  V30 7012 O 643.828 1.84474 0.616405 0
M  V30 7013 C 644.111 2.1657 -2.87696 0
M  V30 7014 C 643.964 1.46722 -4.25197 0
M  V30 7015 C 645.283 3.17321 -3.04951 0
M  V30 7016 H 642.402 0.422369 -0.603965 0
M  V30 7017 H 645.044 0.452141 -1.84542 0
M  V30 7018 H 643.194 2.77411 -2.71985 0
M  V30 7019 H 644.866 0.89056 -4.52622 0
M  V30 7020 H 643.109 0.769263 -4.26925 0
M  V30 7021 H 643.78 2.19665 -5.0641 0
M  V30 7022 H 646.256 2.66552 -3.19514 0
M  V30 7023 H 645.132 3.84573 -3.91656 0
M  V30 7024 H 645.393 3.84643 -2.17951 0
M  V30 7025 N 644.452 1.42507 0.673017 0
M  V30 7026 C 645.868 1.25472 0.986355 0
M  V30 7027 C 646.068 0.160181 2.00862 0
M  V30 7028 O 645.124 -0.467993 2.48125 0
M  V30 7029 C 646.437 2.61219 1.48947 0
M  V30 7030 C 647.985 2.68589 1.60715 0
M  V30 7031 C 648.46 4.04707 2.14422 0
M  V30 7032 N 649.951 4.0667 2.21752 0
M  V30 7033 C 650.686 5.0881 2.64386 0
M  V30 7034 N 650.182 6.21332 3.0646 0
M  V30 7035 N 651.975 4.96166 2.64151 0
M  V30 7036 H 644.126 2.124 -0.00378532 0
M  V30 7037 H 646.389 0.946046 0.0608367 0
M  V30 7038 H 646.095 3.42179 0.812812 0
M  V30 7039 H 645.969 2.85261 2.46791 0
M  V30 7040 H 648.356 1.87974 2.27486 0
M  V30 7041 H 648.437 2.48333 0.613552 0
M  V30 7042 H 648.081 4.8578 1.48258 0
M  V30 7043 H 648.011 4.22315 3.14575 0
M  V30 7044 H 650.502 3.25438 1.92089 0
M  V30 7045 H 650.815 6.95118 3.37684 0
M  V30 7046 H 649.16 6.24835 3.04313 0
M  V30 7047 H 652.351 4.07334 2.30644 0
M  V30 7048 H 652.524 5.759 2.97057 0
M  V30 7049 N 645.93 -0.909495 1.28709 0
M  V30 7050 C 647.179 -1.65365 1.15487 0
M  V30 7051 C 647.492 -1.93364 -0.294941 0
M  V30 7052 O 648.698 -2.65905 -0.548338 0
M  V30 7053 C 647.154 -2.97923 2.01916 0
M  V30 7054 C 646.762 -2.77556 3.51663 0
M  V30 7055 C 648.506 -3.75814 1.97393 0
M  V30 7056 C 646.413 -4.0578 4.30229 0
M  V30 7057 H 645.343 -0.620323 0.42862 0
M  V30 7058 H 647.994 -1.00894 1.53273 0
M  V30 7059 H 646.376 -3.63552 1.5699 0
M  V30 7060 H 647.55 -2.2058 4.04575 0
M  V30 7061 H 645.865 -2.13072 3.57756 0
M  V30 7062 H 648.462 -4.70866 2.53357 0
M  V30 7063 H 648.805 -4.05277 0.951643 0
M  V30 7064 H 649.338 -3.1701 2.40311 0
M  V30 7065 H 646.077 -3.81488 5.33055 0
M  V30 7066 H 645.597 -4.62351 3.82089 0
M  V30 7067 H 647.276 -4.74004 4.40374 0
M  V30 7068 N 647.408 -1.11026 -1.11852 0
M  V30 7069 C 648.341 -0.708501 -2.16923 0
M  V30 7070 C 649.319 0.293196 -1.59935 0
M  V30 7071 O 650.503 0.190641 -1.87533 0
M  V30 7072 C 647.63 -0.0463705 -3.38668 0
M  V30 7073 C 646.676 -1.01252 -4.14307 0
M  V30 7074 S 647.509 -2.53291 -4.71809 0
M  V30 7075 C 648.665 -1.88366 -5.96883 0
M  V30 7076 H 648.898 -1.59854 -2.50667 0
M  V30 7077 H 646.431 -0.927869 -1.2341 0
M  V30 7078 H 648.389 0.329314 -4.09177 0
M  V30 7079 H 647.05 0.820562 -3.03192 0
M  V30 7080 H 646.243 -0.496596 -5.01548 0
M  V30 7081 H 645.845 -1.33042 -3.49537 0
M  V30 7082 H 648.137 -1.21753 -6.6647 0
M  V30 7083 H 649.08 -2.73588 -6.53112 0
M  V30 7084 H 649.488 -1.34562 -5.48227 0
M  V30 7085 N 648.886 1.2938 -0.899927 0
M  V30 7086 C 649.833 2.27713 -0.376243 0
M  V30 7087 C 650.803 1.57016 0.541774 0
M  V30 7088 O 651.988 1.84997 0.466966 0
M  V30 7089 C 649.128 3.42889 0.39 0
M  V30 7090 C 648.241 4.28369 -0.558938 0
M  V30 7091 C 647.376 5.30726 0.224379 0
M  V30 7092 C 646.415 6.07862 -0.719068 0
M  V30 7093 N 645.552 7.02094 0.0298569 0
M  V30 7094 H 650.392 2.71888 -1.21988 0
M  V30 7095 H 647.929 1.33724 -0.612879 0
M  V30 7096 H 649.887 4.08443 0.850314 0
M  V30 7097 H 648.517 2.99743 1.19809 0
M  V30 7098 H 647.569 3.62986 -1.13777 0
M  V30 7099 H 648.881 4.82068 -1.2811 0
M  V30 7100 H 648.035 6.02098 0.745881 0
M  V30 7101 H 646.774 4.77759 0.979674 0
M  V30 7102 H 645.779 5.35353 -1.25207 0
M  V30 7103 H 647.004 6.62917 -1.4737 0
M  V30 7104 H 644.95 6.51496 0.767415 0
M  V30 7105 H 644.867 7.5335 -0.632391 0
M  V30 7106 H 646.135 7.77685 0.531615 0
M  V30 7107 N 650.364 0.662433 1.43002 0
M  V30 7108 C 651.274 -0.0239199 2.34588 0
M  V30 7109 C 652.29 -0.802255 1.54402 0
M  V30 7110 O 653.466 -0.747401 1.87018 0
M  V30 7111 C 650.531 -0.972098 3.32793 0
M  V30 7112 C 649.592 -0.189673 4.28881 0
M  V30 7113 C 648.825 -1.09269 5.22395 0
M  V30 7114 O 649.048 -2.33209 5.20547 0
M  V30 7115 O 647.982 -0.560136 5.99288 0
M  V30 7116 H 651.808 0.730171 2.94792 0
M  V30 7117 H 649.393 0.422635 1.43297 0
M  V30 7118 H 651.275 -1.51676 3.93157 0
M  V30 7119 H 649.95 -1.70626 2.75079 0
M  V30 7120 H 648.857 0.398794 3.71968 0
M  V30 7121 H 650.19 0.50511 4.89601 0
M  V30 7122 N 651.842 -1.52309 0.404946 0
M  V30 7123 C 652.79 -2.28452 -0.437321 0
M  V30 7124 C 653.784 -1.32975 -1.04948 0
M  V30 7125 O 654.99 -1.50451 -0.988159 0
M  V30 7126 H 651.365 -0.734824 -0.159805 0
M  V30 7127 H 653.336 -2.97542 0.22615 0
M  V30 7128 C 652.085 -3.11536 -1.54404 0
M  V30 7129 H 651.408 -3.84871 -1.08233 0
M  V30 7130 H 652.848 -3.67926 -2.10729 0
M  V30 7131 C 651.307 -2.24833 -2.50902 0
M  V30 7132 O 651.837 -1.88574 -3.54687 0
M  V30 7133 N 650.043 -1.88685 -2.21012 0
M  V30 7134 H 649.59 -2.18371 -1.36646 0
M  V30 7135 H 649.548 -1.30966 -2.85824 0
M  V30 7136 N 653.32 -0.135238 -1.57019 0
M  V30 7137 C 654.253 0.846618 -2.11914 0
M  V30 7138 C 655.231 1.25019 -1.03966 0
M  V30 7139 O 656.415 1.34838 -1.31723 0
M  V30 7140 C 653.542 2.1352 -2.6292 0
M  V30 7141 C 652.588 1.87846 -3.82905 0
M  V30 7142 S 653.421 1.08005 -5.24495 0
M  V30 7143 C 654.577 2.38008 -5.78881 0
M  V30 7144 H 654.81 0.379752 -2.94865 0
M  V30 7145 H 652.343 0.0788387 -1.54199 0
M  V30 7146 H 654.301 2.87551 -2.92958 0
M  V30 7147 H 652.962 2.57323 -1.80121 0
M  V30 7148 H 652.155 2.83365 -4.16797 0
M  V30 7149 H 651.757 1.21929 -3.53567 0
M  V30 7150 H 654.049 3.33742 -5.89595 0
M  V30 7151 H 654.992 2.08638 -6.76665 0
M  V30 7152 H 655.4 2.48119 -5.07048 0
M  V30 7153 N 654.798 1.5699 0.138552 0
M  V30 7154 C 656.214 1.51844 0.491472 0
M  V30 7155 C 656.414 0.845063 1.82923 0
M  V30 7156 O 655.47 0.419143 2.48997 0
M  V30 7157 C 656.783 2.96615 0.493987 0
M  V30 7158 C 658.331 3.076 0.578913 0
M  V30 7159 C 658.806 4.53893 0.612009 0
M  V30 7160 N 660.297 4.5827 0.673997 0
M  V30 7161 C 661.032 5.68852 0.720729 0
M  V30 7162 N 660.528 6.88982 0.726292 0
M  V30 7163 N 662.321 5.56908 0.762253 0
M  V30 7164 H 654.472 1.99158 -0.738228 0
M  V30 7165 H 656.735 0.908693 -0.270149 0
M  V30 7166 H 656.441 3.49172 -0.420933 0
M  V30 7167 H 656.315 3.53017 1.32887 0
M  V30 7168 H 658.702 2.55057 1.48425 0
M  V30 7169 H 658.783 2.54227 -0.283286 0
M  V30 7170 H 658.427 5.07076 -0.289208 0
M  V30 7171 H 658.357 5.05057 1.49082 0
M  V30 7172 H 660.848 3.71793 0.676654 0
M  V30 7173 H 661.161 7.69014 0.764032 0
M  V30 7174 H 659.506 6.91526 0.69403 0
M  V30 7175 H 662.697 4.61969 0.755135 0
M  V30 7176 H 662.87 6.43102 0.795207 0
M  V30 7177 N 656.276 -0.40816 1.52223 0
M  V30 7178 C 657.504 -1.17672 1.70179 0
M  V30 7179 C 657.919 -1.84257 0.411696 0
M  V30 7180 O 657.276 -1.7192 -0.612354 0
M  V30 7181 C 657.327 -2.23911 2.83806 0
M  V30 7182 O 657.048 -1.60044 4.0782 0
M  V30 7183 C 658.549 -3.1364 3.13281 0
M  V30 7184 H 655.769 -0.353562 0.570293 0
M  V30 7185 H 658.313 -0.480083 1.98785 0
M  V30 7186 H 656.468 -2.89242 2.57717 0
M  V30 7187 H 656.882 -2.30484 4.71145 0
M  V30 7188 H 658.356 -3.84255 3.96298 0
M  V30 7189 H 658.833 -3.76066 2.26872 0
M  V30 7190 H 659.439 -2.53977 3.41139 0
M  V30 7191 N 657.755 -1.42862 -0.66545 0
M  V30 7192 C 659.003 -1.43546 -1.42264 0
M  V30 7193 C 659.324 -0.0563116 -1.94919 0
M  V30 7194 O 658.594 0.906568 -1.73661 0
M  V30 7195 H 657.174 -0.528464 -0.527953 0
M  V30 7196 H 659.836 -1.78363 -0.785665 0
M  V30 7197 H 658.932 -2.14079 -2.27105 0
M  V30 7198 N 659.233 0.902656 -1.29189 0
M  V30 7199 C 660.181 2.0278 -1.13943 0
M  V30 7200 C 661.175 1.69308 -0.055787 0
M  V30 7201 O 662.381 1.78707 -0.215371 0
M  V30 7202 H 658.756 0.664595 -0.351877 0
M  V30 7203 H 660.727 2.12778 -2.09208 0
M  V30 7204 C 659.476 3.37657 -0.82966 0
M  V30 7205 H 658.799 3.63913 -1.65551 0
M  V30 7206 H 660.239 4.17078 -0.762998 0
M  V30 7207 C 658.698 3.33648 0.466991 0
M  V30 7208 O 659.228 3.72886 1.49395 0
M  V30 7209 N 657.434 2.86745 0.471761 0
M  V30 7210 H 656.981 2.55009 -0.364406 0
M  V30 7211 H 656.939 2.84446 1.33933 0
M  V30 7212 N 660.711 1.11618 1.11262 0
M  V30 7213 C 661.641 0.79846 2.19424 0
M  V30 7214 C 662.622 -0.234003 1.68483 0
M  V30 7215 O 663.807 -0.0970704 1.93957 0
M  V30 7216 C 660.937 0.242892 3.4645 0
M  V30 7217 C 659.891 1.20744 4.10615 0
M  V30 7218 C 659.217 0.512494 5.32238 0
M  V30 7219 C 660.517 2.55884 4.55325 0
M  V30 7220 H 662.211 1.70286 2.46258 0
M  V30 7221 H 659.757 0.820195 1.18359 0
M  V30 7222 H 661.71 0.00840447 4.21399 0
M  V30 7223 H 660.434 -0.696811 3.1908 0
M  V30 7224 H 659.093 1.42759 3.37662 0
M  V30 7225 H 658.741 -0.432075 5.01141 0
M  V30 7226 H 658.441 1.15583 5.7612 0
M  V30 7227 H 659.965 0.286842 6.09926 0
M  V30 7228 H 661.379 2.37946 5.21588 0
M  V30 7229 H 659.776 3.16216 5.10027 0
M  V30 7230 H 660.846 3.14968 3.68678 0
M  V30 7231 N 662.189 -1.289 0.906776 0
M  V30 7232 C 663.6 -1.77336 0.58384 0
M  V30 7233 C 663.951 -1.74304 -0.900697 0
M  V30 7234 O 663.076 -1.33335 -1.70443 0
M  V30 7235 C 663.671 -3.22019 1.05304 0
M  V30 7236 C 662.23 -3.68205 0.781148 0
M  V30 7237 C 661.377 -2.48837 1.22373 0
M  V30 7238 H 664.328 -1.15462 1.08877 0
M  V30 7239 H 664.349 -3.78481 0.391414 0
M  V30 7240 H 663.861 -3.24194 2.13353 0
M  V30 7241 H 661.962 -3.71497 -0.28643 0
M  V30 7242 H 662.075 -4.58675 1.384 0
M  V30 7243 H 660.439 -2.46461 0.642594 0
M  V30 7244 H 661.222 -2.53736 2.31242 0
M  V30 7245 N 663.667 -0.670007 -1.42649 0
M  V30 7246 C 664.63 0.00204659 -2.292 0
M  V30 7247 C 665.63 0.733817 -1.4308 0
M  V30 7248 O 666.82 0.57254 -1.64522 0
M  V30 7249 C 663.952 1.01359 -3.25483 0
M  V30 7250 H 665.145 -0.759696 -2.90118 0
M  V30 7251 H 662.698 -0.432105 -1.50208 0
M  V30 7252 H 663.433 1.80399 -2.69493 0
M  V30 7253 H 663.218 0.492323 -3.88997 0
M  V30 7254 H 664.708 1.4824 -3.90403 0
M  V30 7255 N 665.145 1.52092 -0.413018 0
M  V30 7256 C 666.093 2.28681 0.425199 0
M  V30 7257 C 667.087 1.3353 1.04241 0
M  V30 7258 O 668.293 1.50973 0.980166 0
M  V30 7259 H 664.668 0.735661 0.155906 0
M  V30 7260 H 666.639 2.97418 -0.241926 0
M  V30 7261 C 665.388 3.1235 1.5275 0
M  V30 7262 H 664.711 3.85439 1.06191 0
M  V30 7263 H 666.151 3.69038 2.08774 0
M  V30 7264 C 664.61 2.26161 2.49706 0
M  V30 7265 O 665.14 1.90452 3.53682 0
M  V30 7266 N 663.346 1.89854 2.20008 0
M  V30 7267 H 662.893 2.19092 1.35486 0
M  V30 7268 H 662.851 1.3248 2.85125 0
M  V30 7269 N 666.623 0.143563 1.56945 0
M  V30 7270 C 667.556 -0.835367 2.1236 0
M  V30 7271 C 668.534 -1.24466 1.04627 0
M  V30 7272 O 669.718 -1.34138 1.32436 0
M  V30 7273 C 666.845 -2.12123 2.64048 0
M  V30 7274 C 665.891 -1.85812 3.83896 0
M  V30 7275 S 666.724 -1.05222 5.25061 0
M  V30 7276 C 667.88 -2.34935 5.80135 0
M  V30 7277 H 668.113 -0.364109 2.95062 0
M  V30 7278 H 665.646 -0.0706601 1.54238 0
M  V30 7279 H 667.604 -2.85993 2.94479 0
M  V30 7280 H 666.265 -2.56364 1.81483 0
M  V30 7281 H 665.458 -2.81151 4.18294 0
M  V30 7282 H 665.06 -1.20052 3.54208 0
M  V30 7283 H 667.352 -3.3061 5.91357 0
M  V30 7284 H 668.295 -2.05046 6.77762 0
M  V30 7285 H 668.703 -2.45426 5.08356 0
M  V30 7286 N 668.101 -1.57061 -0.130224 0
M  V30 7287 C 669.048 -1.99517 -1.16024 0
M  V30 7288 C 670.018 -0.865452 -1.41771 0
M  V30 7289 O 671.203 -1.12882 -1.53826 0
M  V30 7290 C 668.343 -2.3951 -2.48453 0
M  V30 7291 C 667.456 -3.65848 -2.29737 0
M  V30 7292 C 666.591 -3.9487 -3.55318 0
M  V30 7293 C 665.63 -5.14426 -3.31711 0
M  V30 7294 N 664.767 -5.39375 -4.49466 0
M  V30 7295 H 669.607 -2.87305 -0.791194 0
M  V30 7296 H 667.144 -1.42129 -0.379195 0
M  V30 7297 H 669.102 -2.60731 -3.25692 0
M  V30 7298 H 667.732 -1.54779 -2.83272 0
M  V30 7299 H 666.784 -3.52307 -1.4347 0
M  V30 7300 H 668.096 -4.53241 -2.08263 0
M  V30 7301 H 667.25 -4.16679 -4.4098 0
M  V30 7302 H 665.989 -3.05931 -3.79813 0
M  V30 7303 H 664.994 -4.92473 -2.44439 0
M  V30 7304 H 666.219 -6.04933 -3.08598 0
M  V30 7305 H 664.165 -4.53391 -4.74102 0
M  V30 7306 H 664.082 -6.21069 -4.31055 0
M  V30 7307 H 665.35 -5.65694 -5.36293 0
M  V30 7308 N 669.579 0.400081 -1.52437 0
M  V30 7309 C 670.526 1.48803 -1.76426 0
M  V30 7310 C 671.496 1.5461 -0.607032 0
M  V30 7311 O 672.681 1.71041 -0.845563 0
M  V30 7312 C 669.821 2.86156 -1.92896 0
M  V30 7313 C 668.934 2.89587 -3.20567 0
M  V30 7314 C 668.069 4.18296 -3.27417 0
M  V30 7315 C 667.108 4.15736 -4.49255 0
M  V30 7316 N 666.245 5.36032 -4.53447 0
M  V30 7317 H 671.085 1.27649 -2.69276 0
M  V30 7318 H 668.622 0.619451 -1.33421 0
M  V30 7319 H 670.58 3.65901 -2.00429 0
M  V30 7320 H 669.21 3.05785 -1.03418 0
M  V30 7321 H 668.262 2.02278 -3.22161 0
M  V30 7322 H 669.574 2.83562 -4.10358 0
M  V30 7323 H 668.728 5.06439 -3.34072 0
M  V30 7324 H 667.467 4.27028 -2.35581 0
M  V30 7325 H 666.472 3.25982 -4.42737 0
M  V30 7326 H 667.697 4.08636 -5.42396 0
M  V30 7327 H 665.643 5.45415 -3.64498 0
M  V30 7328 H 665.56 5.32038 -5.37096 0
M  V30 7329 H 666.828 6.26104 -4.64343 0
M  V30 7330 N 671.057 1.43213 0.657864 0
M  V30 7331 C 672.02 1.47687 1.75275 0
M  V30 7332 C 673.02 0.362179 1.56668 0
M  V30 7333 O 674.21 0.623734 1.62651 0
M  V30 7334 C 671.342 1.32497 3.14098 0
M  V30 7335 H 672.535 2.4519 1.7269 0
M  V30 7336 H 670.088 1.2991 0.869087 0
M  V30 7337 H 670.823 0.359831 3.22298 0
M  V30 7338 H 670.608 2.13299 3.29008 0
M  V30 7339 H 672.098 1.38549 3.93946 0
M  V30 7340 N 672.536 -0.895792 1.29666 0
M  V30 7341 C 673.952 -1.17726 1.07763 0
M  V30 7342 C 674.152 -2.00794 -0.168576 0
M  V30 7343 O 673.208 -2.37213 -0.865244 0
M  V30 7344 C 674.521 -1.89441 2.33522 0
M  V30 7345 C 676.069 -2.02251 2.3888 0
M  V30 7346 C 676.544 -2.77378 3.64452 0
M  V30 7347 N 678.035 -2.8493 3.65198 0
M  V30 7348 C 678.77 -3.43606 4.59045 0
M  V30 7349 N 678.266 -4.03417 5.63228 0
M  V30 7350 N 680.059 -3.41317 4.46608 0
M  V30 7351 H 672.21 -0.341652 2.09634 0
M  V30 7352 H 674.473 -0.213865 0.923561 0
M  V30 7353 H 674.179 -1.35842 3.24407 0
M  V30 7354 H 674.053 -2.89893 2.41334 0
M  V30 7355 H 676.44 -2.55025 1.4848 0
M  V30 7356 H 676.521 -1.0092 2.3505 0
M  V30 7357 H 676.165 -2.25279 4.55205 0
M  V30 7358 H 676.095 -3.79062 3.65541 0
M  V30 7359 H 678.586 -2.42453 2.89871 0
M  V30 7360 H 678.899 -4.46224 6.30955 0
M  V30 7361 H 677.244 -4.01868 5.67033 0
M  V30 7362 H 680.435 -2.93812 3.64407 0
M  V30 7363 H 680.608 -3.86751 5.1993 0
M  V30 7364 N 674.014 -1.12206 -1.10668 0
M  V30 7365 C 675.26 -0.877172 -1.82848 0
M  V30 7366 C 675.593 0.595571 -1.84842 0
M  V30 7367 O 674.868 1.44013 -1.30731 0
M  V30 7368 C 675.151 -1.44957 -3.29635 0
M  V30 7369 C 675.004 -2.99051 -3.35989 0
M  V30 7370 C 676.323 -1.10714 -4.25946 0
M  V30 7371 H 673.442 -0.320103 -0.663854 0
M  V30 7372 H 676.084 -1.38827 -1.2972 0
M  V30 7373 H 674.234 -1.01488 -3.7501 0
M  V30 7374 H 675.906 -3.51182 -2.99113 0
M  V30 7375 H 674.149 -3.34705 -2.75962 0
M  V30 7376 H 674.82 -3.34194 -4.39339 0
M  V30 7377 H 677.296 -1.48254 -3.88793 0
M  V30 7378 H 676.172 -1.5343 -5.2702 0
M  V30 7379 H 676.433 -0.019 -4.42096 0
M  V30 7380 N 675.492 1.28418 -0.913599 0
M  V30 7381 C 676.741 1.94265 -0.542572 0
M  V30 7382 C 677.054 1.72709 0.918207 0
M  V30 7383 O 678.26 2.32778 1.39738 0
M  V30 7384 C 676.716 3.47956 -0.919507 0
M  V30 7385 C 676.324 3.78291 -2.4 0
M  V30 7386 C 678.068 4.19962 -0.619057 0
M  V30 7387 C 675.975 5.2529 -2.71707 0
M  V30 7388 H 674.905 0.727213 -0.199192 0
M  V30 7389 H 677.556 1.45931 -1.11249 0
M  V30 7390 H 675.938 3.9502 -0.278372 0
M  V30 7391 H 677.112 3.42035 -3.08786 0
M  V30 7392 H 675.427 3.19456 -2.67089 0
M  V30 7393 H 678.024 5.28178 -0.832623 0
M  V30 7394 H 678.367 4.13935 0.443126 0
M  V30 7395 H 678.9 3.78674 -1.21865 0
M  V30 7396 H 675.639 5.36394 -3.76778 0
M  V30 7397 H 675.159 5.62743 -2.07559 0
M  V30 7398 H 676.838 5.93027 -2.58703 0
M  V30 7399 N 676.97 0.677563 1.42291 0
M  V30 7400 C 677.902 -0.0380218 2.29168 0
M  V30 7401 C 678.915 -0.762714 1.43828 0
M  V30 7402 O 680.104 -0.616413 1.67519 0
M  V30 7403 C 677.204 -1.07761 3.21311 0
M  V30 7404 C 676.377 -0.42618 4.35319 0
M  V30 7405 C 675.436 -1.36592 5.08162 0
M  V30 7406 O 674.462 -0.865174 5.62586 0
M  V30 7407 N 675.664 -2.69909 5.13935 0
M  V30 7408 H 678.429 0.707766 2.91223 0
M  V30 7409 H 675.99 0.52219 1.53247 0
M  V30 7410 H 677.982 -1.70761 3.6691 0
M  V30 7411 H 676.552 -1.72511 2.60689 0
M  V30 7412 H 675.772 0.383385 3.92331 0
M  V30 7413 H 677.06 0.0275277 5.08793 0
M  V30 7414 H 676.458 -3.13129 4.71134 0
M  V30 7415 H 675.015 -3.2815 5.6317 0
M  V30 7416 N 678.448 -1.51871 0.421078 0
M  V30 7417 C 679.697 -2.01125 -0.152206 0
M  V30 7418 C 680.01 -1.3106 -1.45199 0
M  V30 7419 O 681.216 -1.71195 -2.10724 0
M  V30 7420 C 679.672 -3.58458 -0.3218 0
M  V30 7421 C 679.28 -4.37448 0.96659 0
M  V30 7422 C 681.024 -4.15908 -0.84973 0
M  V30 7423 C 678.931 -5.86451 0.763529 0
M  V30 7424 H 677.861 -0.751556 -0.0606565 0
M  V30 7425 H 680.512 -1.75115 0.548354 0
M  V30 7426 H 678.894 -3.80847 -1.08498 0
M  V30 7427 H 680.068 -4.26814 1.73684 0
M  V30 7428 H 678.383 -3.91373 1.42183 0
M  V30 7429 H 680.98 -5.24922 -1.01788 0
M  V30 7430 H 681.323 -3.74031 -1.82774 0
M  V30 7431 H 681.856 -3.97535 -0.145297 0
M  V30 7432 H 678.595 -6.3271 1.71344 0
M  V30 7433 H 678.115 -5.99791 0.0327889 0
M  V30 7434 H 679.794 -6.45697 0.410354 0
M  V30 7435 N 679.926 -0.151884 -1.56866 0
M  V30 7436 C 681.175 0.497992 -1.95456 0
M  V30 7437 C 681.488 1.6569 -1.03953 0
M  V30 7438 O 682.694 2.37173 -1.32142 0
M  V30 7439 C 681.15 0.93732 -3.4748 0
M  V30 7440 C 680.758 -0.194921 -4.47576 0
M  V30 7441 C 682.502 1.55671 -3.94926 0
M  V30 7442 C 680.409 0.26295 -5.90815 0
M  V30 7443 H 679.339 0.189811 -0.729717 0
M  V30 7444 H 681.99 -0.237011 -1.81963 0
M  V30 7445 H 680.372 1.72773 -3.56322 0
M  V30 7446 H 681.546 -0.971951 -4.50433 0
M  V30 7447 H 679.861 -0.72303 -4.10075 0
M  V30 7448 H 682.458 1.91099 -4.99385 0
M  V30 7449 H 682.801 2.44748 -3.36755 0
M  V30 7450 H 683.334 0.831109 -3.89021 0
M  V30 7451 H 680.073 -0.592568 -6.52816 0
M  V30 7452 H 679.593 1.00575 -5.91308 0
M  V30 7453 H 681.272 0.713333 -6.43056 0
M  V30 7454 N 681.404 1.57128 0.121893 0
M  V30 7455 C 682.815 1.73902 0.679348 0
M  V30 7456 C 683.166 0.770135 1.80453 0
M  V30 7457 O 682.291 -0.0576083 2.16323 0
M  V30 7458 C 682.886 3.15328 1.2391 0
M  V30 7459 C 681.445 3.33618 1.74288 0
M  V30 7460 C 680.592 2.6978 0.641414 0
M  V30 7461 H 683.543 1.58359 -0.104 0
M  V30 7462 H 683.564 3.16718 2.10879 0
M  V30 7463 H 683.076 3.85821 0.419957 0
M  V30 7464 H 681.177 2.68162 2.58689 0
M  V30 7465 H 681.29 4.4176 1.85432 0
M  V30 7466 H 679.654 2.30935 1.0743 0
M  V30 7467 H 680.437 3.42895 -0.166707 0
M  V30 7468 N 682.882 -0.391992 1.52647 0
M  V30 7469 C 684.112 -1.15692 1.71169 0
M  V30 7470 C 684.52 -1.84285 0.428444 0
M  V30 7471 O 683.863 -1.73393 -0.606669 0
M  V30 7472 C 683.925 -2.25033 2.80357 0
M  V30 7473 C 683.589 -1.76433 4.21569 0
M  V30 7474 C 684.586 -1.2427 5.0483 0
M  V30 7475 C 682.271 -1.82746 4.67877 0
M  V30 7476 C 684.265 -0.790657 6.32477 0
M  V30 7477 C 681.952 -1.37153 5.9551 0
M  V30 7478 C 682.95 -0.853997 6.7764 0
M  V30 7479 O 682.638 -0.404708 8.02881 0
M  V30 7480 H 682.37 -0.35297 0.576531 0
M  V30 7481 H 684.924 -0.464994 2.00067 0
M  V30 7482 H 683.154 -2.97641 2.46874 0
M  V30 7483 H 684.843 -2.86718 2.87311 0
M  V30 7484 H 685.609 -1.18752 4.70237 0
M  V30 7485 H 681.488 -2.21971 4.04042 0
M  V30 7486 H 685.032 -0.386024 6.96531 0
M  V30 7487 H 680.929 -1.42356 6.29607 0
M  V30 7488 H 681.697 -0.526459 8.16805 0
M  V30 7489 N 684.36 -1.4356 -0.65026 0
M  V30 7490 C 685.637 -1.35811 -1.40765 0
M  V30 7491 C 686.017 -0.00736379 -2.11099 0
M  V30 7492 O 685.365 1.00932 -2.05 0
M  V30 7493 C 685.575 -2.54332 -2.3899 0
M  V30 7494 C 686.923 -2.97551 -3.02901 0
M  V30 7495 O 687.947 -2.544 -2.49317 0
M  V30 7496 O 686.806 -3.72311 -4.00059 0
M  V30 7497 H 683.9 -0.536861 -0.629054 0
M  V30 7498 H 686.446 -1.55615 -0.676919 0
M  V30 7499 H 685.218 -3.44274 -1.85986 0
M  V30 7500 H 684.841 -2.36643 -3.19509 0
M  V30 7501 N 685.838 0.888903 -1.30139 0
M  V30 7502 C 687.085 1.64037 -1.18736 0
M  V30 7503 C 687.413 1.92771 0.258801 0
M  V30 7504 O 686.668 1.54427 1.20212 0
M  V30 7505 C 686.967 2.99041 -1.95728 0
M  V30 7506 C 686.633 2.89874 -3.45375 0
M  V30 7507 C 685.295 2.87082 -3.86183 0
M  V30 7508 C 687.647 2.78289 -4.40687 0
M  V30 7509 C 684.975 2.70536 -5.20603 0
M  V30 7510 C 687.327 2.63282 -5.75209 0
M  V30 7511 C 685.991 2.58861 -6.15262 0
M  V30 7512 H 685.261 0.600253 -0.434485 0
M  V30 7513 H 687.908 1.0338 -1.61198 0
M  V30 7514 H 686.213 3.63626 -1.45888 0
M  V30 7515 H 687.91 3.56139 -1.843 0
M  V30 7516 H 684.5 2.92856 -3.12943 0
M  V30 7517 H 688.684 2.79516 -4.10103 0
M  V30 7518 H 683.94 2.65526 -5.50732 0
M  V30 7519 H 688.114 2.5329 -6.48704 0
M  V30 7520 H 685.741 2.45799 -7.19366 0
M  V30 7521 N 687.317 1.12792 1.10072 0
M  V30 7522 C 688.265 0.794523 2.18609 0
M  V30 7523 C 689.259 -0.220271 1.67962 0
M  V30 7524 O 690.465 -0.0780938 1.79831 0
M  V30 7525 H 686.84 0.239123 0.712969 0
M  V30 7526 H 688.811 1.71823 2.43966 0
M  V30 7527 C 687.56 0.269548 3.46654 0
M  V30 7528 H 686.883 1.04171 3.8599 0
M  V30 7529 H 688.323 0.0746242 4.23934 0
M  V30 7530 C 686.782 -1.00333 3.21613 0
M  V30 7531 O 687.312 -2.08042 3.4363 0
M  V30 7532 N 685.518 -0.931763 2.75257 0
M  V30 7533 H 685.065 -0.0551197 2.57541 0
M  V30 7534 H 685.023 -1.78405 2.58881 0
M  V30 7535 N 688.795 -1.27931 0.920396 0
M  V30 7536 C 690.211 -1.47085 0.619537 0
M  V30 7537 C 690.411 -1.83463 -0.833291 0
M  V30 7538 O 689.467 -1.94363 -1.61181 0
M  V30 7539 C 690.78 -2.56878 1.56314 0
M  V30 7540 C 692.328 -2.70743 1.57058 0
M  V30 7541 C 692.803 -3.83687 2.50097 0
M  V30 7542 N 694.294 -3.9105 2.48262 0
M  V30 7543 C 695.029 -4.77842 3.16945 0
M  V30 7544 N 694.525 -5.69176 3.94982 0
M  V30 7545 N 696.318 -4.71509 3.06 0
M  V30 7546 H 688.469 -1.02601 1.85975 0
M  V30 7547 H 690.732 -0.511682 0.798051 0
M  V30 7548 H 690.438 -2.36923 2.59923 0
M  V30 7549 H 690.312 -3.54117 1.29928 0
M  V30 7550 H 692.699 -2.90083 0.541832 0
M  V30 7551 H 692.78 -1.74015 1.8749 0
M  V30 7552 H 692.424 -3.65101 3.53077 0
M  V30 7553 H 692.354 -4.79827 2.16964 0
M  V30 7554 H 694.845 -3.25738 1.91581 0
M  V30 7555 H 695.158 -6.32245 4.44394 0
M  V30 7556 H 693.503 -5.68995 3.99086 0
M  V30 7557 H 696.694 -3.99151 2.44533 0
M  V30 7558 H 696.867 -5.38933 3.59799 0
M  V30 7559 N 690.273 -0.685099 -1.4193 0
M  V30 7560 C 691.519 -0.211971 -2.01689 0
M  V30 7561 C 691.852 1.18189 -1.54094 0
M  V30 7562 O 691.127 1.79559 -0.747572 0
M  V30 7563 C 691.41 -0.258019 -3.59174 0
M  V30 7564 C 691.263 -1.68807 -4.16922 0
M  V30 7565 C 692.582 0.388044 -4.38386 0
M  V30 7566 H 689.701 -0.0784987 -0.732808 0
M  V30 7567 H 692.343 -0.871837 -1.68816 0
M  V30 7568 H 690.493 0.303832 -3.8731 0
M  V30 7569 H 692.165 -2.30296 -3.99702 0
M  V30 7570 H 690.408 -2.22553 -3.72361 0
M  V30 7571 H 691.079 -1.6719 -5.26072 0
M  V30 7572 H 693.555 -0.0903432 -4.16002 0
M  V30 7573 H 692.431 0.325232 -5.47936 0
M  V30 7574 H 692.692 1.4672 -4.17044 0
M  V30 7575 N 691.751 1.51645 -0.429126 0
M  V30 7576 C 693 2.01203 0.141538 0
M  V30 7577 C 693.313 1.31828 1.44502 0
M  V30 7578 O 694.519 1.7231 2.09813 0
M  V30 7579 C 692.975 3.58624 0.302786 0
M  V30 7580 C 692.583 4.3693 -0.989775 0
M  V30 7581 C 694.327 4.16353 0.827661 0
M  V30 7582 C 692.234 5.86037 -0.794619 0
M  V30 7583 H 691.164 0.751867 0.05667 0
M  V30 7584 H 693.815 1.74822 -0.557633 0
M  V30 7585 H 692.197 3.81417 1.06476 0
M  V30 7586 H 693.371 4.25887 -1.75945 0
M  V30 7587 H 691.686 3.90614 -1.44256 0
M  V30 7588 H 694.283 5.25455 0.990026 0
M  V30 7589 H 694.626 3.74995 1.80787 0
M  V30 7590 H 695.159 3.97606 0.124213 0
M  V30 7591 H 691.898 6.31792 -1.74697 0
M  V30 7592 H 691.418 5.99765 -0.0645968 0
M  V30 7593 H 693.097 6.45471 -0.444591 0
M  V30 7594 N 693.229 0.160201 1.56784 0
M  V30 7595 C 694.159 -0.770264 2.2043 0
M  V30 7596 C 695.14 -1.24736 1.15651 0
M  V30 7597 O 696.325 -1.30253 1.44041 0
M  V30 7598 C 693.455 -2.00427 2.83631 0
M  V30 7599 C 692.409 -1.66345 3.94352 0
M  V30 7600 C 691.735 -2.97119 4.4455 0
M  V30 7601 C 693.035 -0.899972 5.14488 0
M  V30 7602 H 694.729 -0.239783 2.98438 0
M  V30 7603 H 692.275 -0.113891 1.43549 0
M  V30 7604 H 694.228 -2.66012 3.26827 0
M  V30 7605 H 692.952 -2.5587 2.02973 0
M  V30 7606 H 691.611 -1.03133 3.51794 0
M  V30 7607 H 691.259 -3.5058 3.60698 0
M  V30 7608 H 690.959 -2.75073 5.19238 0
M  V30 7609 H 692.483 -3.63753 4.90425 0
M  V30 7610 H 693.897 -1.45818 5.54446 0
M  V30 7611 H 692.294 -0.778968 5.95023 0
M  V30 7612 H 693.364 0.105827 4.84785 0
M  V30 7613 N 694.707 -1.5719 -0.113559 0
M  V30 7614 C 695.932 -1.89702 -0.838336 0
M  V30 7615 C 696.357 -0.752679 -1.72384 0
M  V30 7616 O 695.715 0.296575 -1.78858 0
M  V30 7617 C 695.763 -3.20989 -1.64312 0
M  V30 7618 O 694.867 -3.07278 -2.75053 0
M  V30 7619 H 694.208 -0.622339 -0.231496 0
M  V30 7620 H 696.738 -2.04382 -0.0943228 0
M  V30 7621 H 696.748 -3.53843 -2.03123 0
M  V30 7622 H 695.423 -4.03869 -0.993119 0
M  V30 7623 H 694 -2.85901 -2.39406 0
M  V30 7624 N 696.185 0.383891 -1.52853 0
M  V30 7625 C 697.118 1.49105 -1.72751 0
M  V30 7626 C 698.096 1.52077 -0.575438 0
M  V30 7627 O 699.28 1.70406 -0.805854 0
M  V30 7628 C 696.407 2.87551 -1.78975 0
M  V30 7629 C 695.453 3.02383 -3.00777 0
M  V30 7630 S 696.286 2.73048 -4.60657 0
M  V30 7631 C 697.442 4.13678 -4.69704 0
M  V30 7632 H 697.675 1.32002 -2.66388 0
M  V30 7633 H 695.208 0.577088 -1.4321 0
M  V30 7634 H 697.166 3.6733 -1.83246 0
M  V30 7635 H 695.827 3.01977 -0.864215 0
M  V30 7636 H 695.02 4.03733 -3.01688 0
M  V30 7637 H 694.622 2.30504 -2.94523 0
M  V30 7638 H 696.914 5.07676 -4.48633 0
M  V30 7639 H 697.857 4.1778 -5.71721 0
M  V30 7640 H 698.265 3.99825 -3.98497 0
M  V30 7641 N 697.663 1.43903 0.642637 0
M  V30 7642 C 698.61 1.49881 1.75512 0
M  V30 7643 C 699.58 0.347538 1.62423 0
M  V30 7644 O 700.765 0.556177 1.82514 0
M  V30 7645 C 697.905 1.43797 3.13714 0
M  V30 7646 C 697.018 2.6921 3.37861 0
M  V30 7647 C 696.153 2.5504 4.6597 0
M  V30 7648 C 695.192 3.75671 4.83257 0
M  V30 7649 N 694.329 3.60247 6.02633 0
M  V30 7650 H 699.169 2.44935 1.69737 0
M  V30 7651 H 696.706 1.21572 0.828165 0
M  V30 7652 H 698.664 1.38262 3.93624 0
M  V30 7653 H 697.294 0.523173 3.18532 0
M  V30 7654 H 696.346 2.8498 2.51973 0
M  V30 7655 H 697.658 3.58786 3.46517 0
M  V30 7656 H 696.812 2.47273 5.54023 0
M  V30 7657 H 695.551 1.63006 4.59653 0
M  V30 7658 H 694.556 3.83836 3.93637 0
M  V30 7659 H 695.781 4.68728 4.91397 0
M  V30 7660 H 693.727 2.70955 5.97427 0
M  V30 7661 H 693.644 4.43431 6.12295 0
M  V30 7662 H 694.912 3.56351 6.93278 0
M  V30 7663 N 699.141 -0.881989 1.30609 0
M  V30 7664 C 700.557 -1.16576 1.09005 0
M  V30 7665 C 700.757 -2.00961 -0.14727 0
M  V30 7666 O 699.813 -2.38117 -0.840036 0
M  V30 7667 C 701.126 -1.86954 2.35518 0
M  V30 7668 C 702.674 -1.99706 2.41011 0
M  V30 7669 C 703.149 -2.73497 3.67374 0
M  V30 7670 N 704.64 -2.8104 3.68199 0
M  V30 7671 C 705.375 -3.38718 4.62664 0
M  V30 7672 N 704.871 -3.97421 5.67475 0
M  V30 7673 N 706.664 -3.36561 4.50203 0
M  V30 7674 H 698.815 -0.319398 2.09985 0
M  V30 7675 H 701.078 -0.204058 0.925778 0
M  V30 7676 H 700.784 -1.32393 3.2583 0
M  V30 7677 H 700.658 -2.87317 2.44395 0
M  V30 7678 H 703.045 -2.53436 1.51176 0
M  V30 7679 H 703.126 -0.984218 2.36108 0
M  V30 7680 H 702.77 -2.20438 4.57569 0
M  V30 7681 H 702.7 -3.75163 3.6954 0
M  V30 7682 H 705.191 -2.39365 2.92426 0
M  V30 7683 H 705.504 -4.39507 6.35652 0
M  V30 7684 H 703.849 -3.95832 5.71264 0
M  V30 7685 H 707.04 -2.8993 3.67503 0
M  V30 7686 H 707.213 -3.81215 5.24003 0
M  V30 7687 N 700.619 -1.13374 -1.09472 0
M  V30 7688 C 701.867 -0.893422 -1.8128 0
M  V30 7689 C 702.188 0.582029 -1.86111 0
M  V30 7690 O 701.458 1.42305 -1.34633 0
M  V30 7691 H 700.038 -0.327543 -0.67136 0
M  V30 7692 H 702.7 -1.43018 -1.32408 0
M  V30 7693 H 701.796 -1.28374 -2.84476 0
M  V30 7694 N 702.098 1.27442 -0.927168 0
M  V30 7695 C 703.03 2.25975 -0.383158 0
M  V30 7696 C 704.043 1.55382 0.485832 0
M  V30 7697 O 705.232 1.75986 0.298541 0
M  V30 7698 C 702.332 3.35629 0.469688 0
M  V30 7699 C 701.505 4.35747 -0.379886 0
M  V30 7700 C 700.564 5.24598 0.410227 0
M  V30 7701 O 699.59 5.68909 -0.181888 0
M  V30 7702 N 700.792 5.54737 1.71017 0
M  V30 7703 H 703.557 2.7329 -1.23015 0
M  V30 7704 H 701.118 1.41063 -0.794539 0
M  V30 7705 H 703.11 3.92015 1.00532 0
M  V30 7706 H 701.68 2.87919 1.21744 0
M  V30 7707 H 700.9 3.78634 -1.09682 0
M  V30 7708 H 702.188 4.99648 -0.960717 0
M  V30 7709 H 701.586 5.20594 2.21356 0
M  V30 7710 H 700.143 6.13824 2.19234 0
M  V30 7711 N 703.576 0.692616 1.41565 0
M  V30 7712 C 704.486 0.0258451 2.34586 0
M  V30 7713 C 705.502 -0.769324 1.56069 0
M  V30 7714 O 706.678 -0.707563 1.88562 0
M  V30 7715 C 703.743 -0.901289 3.3478 0
M  V30 7716 C 702.804 -0.0986579 4.29187 0
M  V30 7717 C 702.037 -0.981634 5.24595 0
M  V30 7718 O 702.26 -2.22115 5.25377 0
M  V30 7719 O 701.194 -0.432892 6.00341 0
M  V30 7720 H 705.02 0.792537 2.93177 0
M  V30 7721 H 702.605 0.452935 1.42369 0
M  V30 7722 H 704.487 -1.43302 3.96286 0
M  V30 7723 H 703.162 -1.64752 2.78637 0
M  V30 7724 H 702.069 0.477604 3.71039 0
M  V30 7725 H 703.402 0.608848 4.8842 0
M  V30 7726 N 705.054 -1.51416 0.437162 0
M  V30 7727 C 706.284 -2.06204 -0.127859 0
M  V30 7728 C 706.692 -1.30463 -1.37026 0
M  V30 7729 O 706.035 -0.357516 -1.80187 0
M  V30 7730 C 706.097 -3.55783 -0.515632 0
M  V30 7731 C 705.761 -4.52776 0.619937 0
M  V30 7732 C 706.758 -4.98031 1.49201 0
M  V30 7733 C 704.443 -4.95878 0.800618 0
M  V30 7734 C 706.437 -5.85061 2.52947 0
M  V30 7735 C 704.124 -5.82699 1.84135 0
M  V30 7736 C 705.122 -6.27188 2.70416 0
M  V30 7737 O 704.81 -7.12284 3.72702 0
M  V30 7738 H 704.542 -0.675903 -0.011442 0
M  V30 7739 H 707.096 -1.95977 0.614986 0
M  V30 7740 H 705.326 -3.63793 -1.31118 0
M  V30 7741 H 707.015 -3.93087 -1.01179 0
M  V30 7742 H 707.781 -4.65426 1.36395 0
M  V30 7743 H 703.66 -4.60792 0.138617 0
M  V30 7744 H 707.204 -6.19708 3.20325 0
M  V30 7745 H 703.101 -6.14717 1.9696 0
M  V30 7746 H 703.869 -7.30462 3.69281 0
M  V30 7747 N 706.532 -0.168513 -1.56696 0
M  V30 7748 C 707.76 0.483503 -2.01171 0
M  V30 7749 C 708.175 1.56994 -1.04872 0
M  V30 7750 O 707.532 1.82434 -0.0491337 0
M  V30 7751 C 707.583 1.0644 -3.45475 0
M  V30 7752 O 707.304 0.0213375 -4.38095 0
M  V30 7753 C 708.805 1.79493 -4.05336 0
M  V30 7754 H 706.025 0.124002 -0.659443 0
M  V30 7755 H 708.569 -0.269419 -2.02717 0
M  V30 7756 H 706.724 1.76784 -3.44712 0
M  V30 7757 H 707.138 0.449837 -5.22567 0
M  V30 7758 H 708.612 2.15401 -5.08238 0
M  V30 7759 H 709.089 2.68889 -3.47269 0
M  V30 7760 H 709.695 1.13798 -4.09793 0
M  V30 7761 N 708.01 1.57248 0.105221 0
M  V30 7762 C 709.287 1.76566 0.841647 0
M  V30 7763 C 709.667 0.747566 1.9742 0
M  V30 7764 O 709.015 -0.225886 2.27381 0
M  V30 7765 C 709.225 3.22016 1.3456 0
M  V30 7766 C 710.573 3.84911 1.79244 0
M  V30 7767 O 711.597 3.25703 1.44207 0
M  V30 7768 O 710.456 4.89008 2.43995 0
M  V30 7769 H 707.55 0.723443 0.400698 0
M  V30 7770 H 710.096 1.69472 0.0878893 0
M  V30 7771 H 708.868 3.87644 0.533685 0
M  V30 7772 H 708.491 3.33703 2.16167 0
M  V30 7773 N 709.488 -0.375779 1.53054 0
M  V30 7774 C 710.718 -1.1387 1.72386 0
M  V30 7775 C 711.126 -1.8382 0.447966 0
M  V30 7776 O 710.469 -1.74027 -0.588244 0
M  V30 7777 C 710.531 -2.22047 2.82728 0
M  V30 7778 C 710.195 -1.71951 4.23417 0
M  V30 7779 C 711.192 -1.18909 5.06119 0
M  V30 7780 C 708.877 -1.77773 4.69789 0
M  V30 7781 C 710.871 -0.723529 6.3328 0
M  V30 7782 C 708.558 -1.30829 5.96931 0
M  V30 7783 C 709.556 -0.782077 6.78508 0
M  V30 7784 O 709.244 -0.319529 8.03265 0
M  V30 7785 H 708.976 -0.346835 0.580242 0
M  V30 7786 H 711.53 -0.443748 2.00549 0
M  V30 7787 H 709.76 -2.95006 2.50017 0
M  V30 7788 H 711.449 -2.83654 2.90336 0
M  V30 7789 H 712.215 -1.13758 4.7147 0
M  V30 7790 H 708.094 -2.17673 4.06373 0
M  V30 7791 H 711.638 -0.312126 6.96901 0
M  V30 7792 H 707.535 -1.3567 6.31081 0
M  V30 7793 H 708.303 -0.439796 8.17318 0
M  V30 7794 N 710.966 -1.44241 -0.634997 0
M  V30 7795 C 712.215 -1.46102 -1.39058 0
M  V30 7796 C 712.528 -0.0959909 -1.95364 0
M  V30 7797 O 713.734 0.00788751 -2.71499 0
M  V30 7798 C 712.19 -2.57195 -2.51751 0
M  V30 7799 C 711.798 -3.99888 -2.01974 0
M  V30 7800 C 713.542 -2.68272 -3.28984 0
M  V30 7801 C 711.449 -5.02412 -3.11987 0
M  V30 7802 H 710.379 -0.543556 -0.522554 0
M  V30 7803 H 713.03 -1.70294 -0.683538 0
M  V30 7804 H 711.412 -2.26237 -3.25012 0
M  V30 7805 H 712.586 -4.40396 -1.35604 0
M  V30 7806 H 710.901 -3.93019 -1.37568 0
M  V30 7807 H 713.498 -3.42042 -4.10988 0
M  V30 7808 H 713.841 -1.73957 -3.78212 0
M  V30 7809 H 714.374 -2.98622 -2.62812 0
M  V30 7810 H 711.113 -5.98342 -2.67707 0
M  V30 7811 H 710.633 -4.66501 -3.77011 0
M  V30 7812 H 712.312 -5.25939 -3.76825 0
M  V30 7813 N 712.444 0.87505 -1.31075 0
M  V30 7814 C 713.392 2.00317 -1.18219 0
M  V30 7815 C 714.386 1.69152 -0.0916872 0
M  V30 7816 O 715.592 1.7821 -0.253229 0
M  V30 7817 H 711.967 0.656981 -0.365895 0
M  V30 7818 H 713.938 2.08293 -2.13674 0
M  V30 7819 C 712.687 3.35821 -0.901095 0
M  V30 7820 H 712.01 3.6032 -1.73233 0
M  V30 7821 H 713.45 4.15366 -0.851295 0
M  V30 7822 C 711.909 3.34563 0.396114 0
M  V30 7823 O 712.439 3.75971 1.41452 0
M  V30 7824 N 710.645 2.87681 0.410832 0
M  V30 7825 H 710.192 2.54179 -0.418415 0
M  V30 7826 H 710.15 2.87223 1.27869 0
M  V30 7827 N 713.922 1.13953 1.08869 0
M  V30 7828 C 714.885 0.824991 2.13838 0
M  V30 7829 C 715.885 -0.168198 1.59918 0
M  V30 7830 O 717.075 0.0595778 1.74098 0
M  V30 7831 C 714.207 0.228938 3.4013 0
M  V30 7832 H 715.4 1.75521 2.43171 0
M  V30 7833 H 712.953 0.94492 1.24503 0
M  V30 7834 H 713.688 -0.710227 3.16427 0
M  V30 7835 H 713.473 0.944243 3.80561 0
M  V30 7836 H 714.963 0.0259223 4.17592 0
M  V30 7837 N 715.4 -1.26948 0.933913 0
M  V30 7838 C 716.625 -1.98724 0.593589 0
M  V30 7839 C 717.05 -1.6915 -0.822801 0
M  V30 7840 O 716.408 -0.93533 -1.5531 0
M  V30 7841 C 716.456 -3.50834 0.833542 0
M  V30 7842 O 715.56 -4.12284 -0.0978788 0
M  V30 7843 H 714.901 -0.623683 0.227849 0
M  V30 7844 H 717.431 -1.61599 1.25486 0
M  V30 7845 H 717.441 -4.01018 0.75156 0
M  V30 7846 H 716.116 -3.71691 1.86597 0
M  V30 7847 H 714.693 -3.72884 0.0345443 0
M  V30 7848 N 716.879 -0.700114 -1.41195 0
M  V30 7849 C 718.126 -0.233006 -2.01155 0
M  V30 7850 C 718.454 1.16883 -1.55462 0
M  V30 7851 O 717.709 1.80395 -0.758695 0
M  V30 7852 C 718.008 -0.243986 -3.56566 0
M  V30 7853 C 717.674 -1.59397 -4.21786 0
M  V30 7854 C 716.336 -1.96355 -4.39316 0
M  V30 7855 C 718.688 -2.48192 -4.58312 0
M  V30 7856 C 716.016 -3.21683 -4.9065 0
M  V30 7857 C 718.368 -3.72857 -5.11039 0
M  V30 7858 C 717.032 -4.09951 -5.26779 0
M  V30 7859 H 716.302 -0.085263 -0.736078 0
M  V30 7860 H 718.949 -0.9001 -1.69028 0
M  V30 7861 H 717.254 0.506663 -3.8851 0
M  V30 7862 H 718.951 0.135031 -4.00773 0
M  V30 7863 H 715.541 -1.29654 -4.08519 0
M  V30 7864 H 719.725 -2.20918 -4.4442 0
M  V30 7865 H 714.981 -3.50412 -5.01021 0
M  V30 7866 H 719.155 -4.41844 -5.38282 0
M  V30 7867 H 716.782 -5.07136 -5.66319 0
M  V30 7868 N 718.357 1.51182 -0.445186 0
M  V30 7869 C 719.606 2.01342 0.120189 0
M  V30 7870 C 719.919 1.33353 1.43095 0
M  V30 7871 O 721.125 1.74525 2.07974 0
M  V30 7872 C 719.581 3.58925 0.264732 0
M  V30 7873 C 719.189 4.35855 -1.03606 0
M  V30 7874 C 720.933 4.17208 0.783455 0
M  V30 7875 C 718.84 5.85162 -0.856731 0
M  V30 7876 H 717.77 0.752426 0.0486922 0
M  V30 7877 H 720.421 1.74221 -0.576143 0
M  V30 7878 H 718.803 3.82525 1.02425 0
M  V30 7879 H 719.977 4.23997 -1.80452 0
M  V30 7880 H 718.292 3.89062 -1.48391 0
M  V30 7881 H 720.889 5.26475 0.934239 0
M  V30 7882 H 721.232 3.76892 1.768 0
M  V30 7883 H 721.765 3.97715 0.0820346 0
M  V30 7884 H 718.504 6.29904 -1.81388 0
M  V30 7885 H 718.024 5.99663 -0.128206 0
M  V30 7886 H 719.703 6.44963 -0.513027 0
M  V30 7887 N 719.835 0.176821 1.56605 0
M  V30 7888 C 721.112 -0.513365 1.88743 0
M  V30 7889 C 721.492 -1.80929 1.08757 0
M  V30 7890 O 720.84 -2.27765 0.183127 0
M  V30 7891 C 721.05 -0.749925 3.40848 0
M  V30 7892 C 722.398 -1.07747 4.10701 0
M  V30 7893 O 723.422 -0.838277 3.46196 0
M  V30 7894 O 722.281 -1.52901 5.24675 0
M  V30 7895 H 719.375 -0.265296 0.783292 0
M  V30 7896 H 721.921 0.215669 1.68324 0
M  V30 7897 H 720.693 0.16599 3.90948 0
M  V30 7898 H 720.316 -1.53208 3.66897 0
M  V30 7899 N 721.313 -1.57302 -0.09688 0
M  V30 7900 C 722.561 -1.8563 -0.799117 0
M  V30 7901 C 722.882 -0.765263 -1.79356 0
M  V30 7902 O 722.152 0.208657 -1.94786 0
M  V30 7903 H 720.732 -0.684937 -0.298111 0
M  V30 7904 H 723.394 -1.9474 -0.0789341 0
M  V30 7905 H 722.49 -2.82305 -1.3308 0
M  V30 7906 N 722.791 0.367657 -1.53252 0
M  V30 7907 C 724.021 1.12955 -1.72988 0
M  V30 7908 C 724.429 1.8358 -0.457708 0
M  V30 7909 O 723.772 1.74336 0.579006 0
M  V30 7910 C 723.834 2.20545 -2.83902 0
M  V30 7911 C 723.498 1.69704 -4.24323 0
M  V30 7912 C 724.495 1.16223 -5.06743 0
M  V30 7913 C 722.18 1.7528 -4.70725 0
M  V30 7914 C 724.174 0.689935 -6.33655 0
M  V30 7915 C 721.861 1.27662 -5.97617 0
M  V30 7916 C 722.859 0.746083 -6.78913 0
M  V30 7917 O 722.547 0.276925 -8.03423 0
M  V30 7918 H 722.279 0.343753 -0.582074 0
M  V30 7919 H 724.833 0.433106 -2.00782 0
M  V30 7920 H 723.063 2.93676 -2.51577 0
M  V30 7921 H 724.752 2.82111 -2.91836 0
M  V30 7922 H 725.518 1.11256 -4.72067 0
M  V30 7923 H 721.397 2.15515 -4.07522 0
M  V30 7924 H 724.941 0.275164 -6.97057 0
M  V30 7925 H 720.838 1.32322 -6.31792 0
M  V30 7926 H 721.606 0.396445 -8.17539 0
M  V30 7927 N 724.269 1.44576 0.627338 0
M  V30 7928 C 725.685 1.28546 0.945938 0
M  V30 7929 C 725.885 0.224003 2.00251 0
M  V30 7930 O 724.941 -0.388817 2.49488 0
M  V30 7931 C 726.254 2.65825 1.40561 0
M  V30 7932 C 727.802 2.73566 1.52088 0
M  V30 7933 C 728.277 4.11323 2.01438 0
M  V30 7934 N 729.768 4.13519 2.08702 0
M  V30 7935 C 730.503 5.16964 2.48065 0
M  V30 7936 N 729.999 6.30768 2.86538 0
M  V30 7937 N 731.792 5.04319 2.48232 0
M  V30 7938 H 723.943 2.1228 -0.0713567 0
M  V30 7939 H 726.206 0.947503 0.0307081 0
M  V30 7940 H 725.912 3.44591 0.703539 0
M  V30 7941 H 725.786 2.92969 2.37591 0
M  V30 7942 H 728.173 1.95116 2.21391 0
M  V30 7943 H 728.254 2.50159 0.534237 0
M  V30 7944 H 727.898 4.9025 1.32729 0
M  V30 7945 H 727.828 4.32109 3.0098 0
M  V30 7946 H 730.319 3.31385 1.81638 0
M  V30 7947 H 730.632 7.0551 3.15398 0
M  V30 7948 H 728.977 6.342 2.84281 0
M  V30 7949 H 732.168 4.14465 2.17569 0
M  V30 7950 H 732.341 5.85059 2.78585 0
M  V30 7951 N 725.747 -0.868086 1.31537 0
M  V30 7952 C 726.679 -1.98165 1.15166 0
M  V30 7953 C 727.692 -1.6255 0.0902335 0
M  V30 7954 O 728.881 -1.75272 0.33791 0
M  V30 7955 C 725.981 -3.30772 0.737776 0
M  V30 7956 C 725.154 -3.94716 1.88462 0
M  V30 7957 C 724.213 -5.05641 1.45648 0
M  V30 7958 O 723.239 -5.2636 2.16642 0
M  V30 7959 N 724.441 -5.79474 0.34493 0
M  V30 7960 H 727.206 -2.12754 2.11083 0
M  V30 7961 H 724.767 -1.04217 1.23897 0
M  V30 7962 H 726.759 -4.02366 0.434032 0
M  V30 7963 H 725.329 -3.1233 -0.129834 0
M  V30 7964 H 724.549 -3.16079 2.35558 0
M  V30 7965 H 725.837 -4.34175 2.65273 0
M  V30 7966 H 725.235 -5.65164 -0.246259 0
M  V30 7967 H 723.792 -6.51722 0.100728 0
M  V30 7968 N 727.225 -1.14528 -1.08264 0
M  V30 7969 C 728.172 -0.833556 -2.15222 0
M  V30 7970 C 729.142 0.209539 -1.64773 0
M  V30 7971 O 730.327 0.0791388 -1.90636 0
M  V30 7972 C 727.467 -0.318799 -3.43624 0
M  V30 7973 C 726.58 -1.42237 -4.07913 0
M  V30 7974 C 725.715 -0.864704 -5.24115 0
M  V30 7975 C 724.754 -1.94585 -5.80347 0
M  V30 7976 N 723.891 -1.40525 -6.87893 0
M  V30 7977 H 728.731 -1.74965 -2.41228 0
M  V30 7978 H 726.268 -0.873169 -1.18381 0
M  V30 7979 H 728.226 -0.00213088 -4.172 0
M  V30 7980 H 726.856 0.560397 -3.17898 0
M  V30 7981 H 725.908 -1.8554 -3.32083 0
M  V30 7982 H 727.22 -2.23901 -4.45724 0
M  V30 7983 H 726.374 -0.500025 -6.04636 0
M  V30 7984 H 725.113 -0.0171219 -4.87697 0
M  V30 7985 H 724.118 -2.31946 -4.98479 0
M  V30 7986 H 725.343 -2.79704 -6.18823 0
M  V30 7987 H 723.289 -0.579873 -6.53432 0
M  V30 7988 H 723.206 -2.15825 -7.24538 0
M  V30 7989 H 724.474 -1.06852 -7.72142 0
M  V30 7990 N 728.703 1.26451 -0.940633 0
M  V30 7991 C 729.98 1.88947 -0.505811 0
M  V30 7992 C 730.36 1.85011 1.01657 0
M  V30 7993 O 729.708 1.30406 1.87634 0
M  V30 7994 C 729.918 3.32304 -1.06654 0
M  V30 7995 C 731.266 4.09153 -1.13486 0
M  V30 7996 O 732.29 3.41371 -1.01708 0
M  V30 7997 O 731.149 5.30369 -1.31797 0
M  V30 7998 H 728.243 0.810422 -0.164759 0
M  V30 7999 H 730.789 1.34625 -1.03316 0
M  V30 8000 H 729.561 3.29527 -2.11015 0
M  V30 8001 H 729.184 3.94164 -0.521603 0
M  V30 8002 N 730.181 0.707592 1.40822 0
M  V30 8003 C 731.411 0.252706 2.05049 0
M  V30 8004 C 731.819 -1.10758 1.53393 0
M  V30 8005 O 731.162 -1.70567 0.682097 0
M  V30 8006 C 731.224 0.146001 3.59203 0
M  V30 8007 C 730.888 1.44027 4.33711 0
M  V30 8008 C 731.885 2.38058 4.62195 0
M  V30 8009 C 729.57 1.69698 4.72766 0
M  V30 8010 C 731.564 3.56013 5.28709 0
M  V30 8011 C 729.251 2.87936 5.39014 0
M  V30 8012 C 730.249 3.80915 5.66915 0
M  V30 8013 O 729.937 4.9708 6.31796 0
M  V30 8014 H 729.669 0.112784 0.666525 0
M  V30 8015 H 732.223 0.96417 1.81364 0
M  V30 8016 H 730.453 -0.621338 3.81676 0
M  V30 8017 H 732.142 -0.273275 4.04979 0
M  V30 8018 H 732.908 2.19487 4.32493 0
M  V30 8019 H 728.787 0.981835 4.50423 0
M  V30 8020 H 732.331 4.28604 5.50404 0
M  V30 8021 H 728.228 3.06419 5.68135 0
M  V30 8022 H 728.996 4.97053 6.50293 0
M  V30 8023 N 731.66 -1.50943 0.453197 0
M  V30 8024 C 732.907 -2.02212 -0.107922 0
M  V30 8025 C 733.235 -1.33639 -1.41318 0
M  V30 8026 O 732.49 -0.445154 -1.9057 0
M  V30 8027 C 732.789 -3.55603 -0.357944 0
M  V30 8028 C 732.455 -4.42556 0.863427 0
M  V30 8029 C 731.117 -4.6604 1.19834 0
M  V30 8030 C 733.469 -4.93468 1.67747 0
M  V30 8031 C 730.797 -5.37681 2.34768 0
M  V30 8032 C 733.149 -5.6637 2.81793 0
M  V30 8033 C 731.813 -5.88113 3.1572 0
M  V30 8034 H 731.083 -0.739947 -0.0394916 0
M  V30 8035 H 733.73 -1.81738 0.60363 0
M  V30 8036 H 732.035 -3.74495 -1.15156 0
M  V30 8037 H 733.732 -3.92821 -0.805781 0
M  V30 8038 H 730.322 -4.24485 0.592478 0
M  V30 8039 H 734.506 -4.75194 1.43192 0
M  V30 8040 H 729.762 -5.52727 2.61348 0
M  V30 8041 H 733.936 -6.04806 3.45229 0
M  V30 8042 H 731.563 -6.43404 4.04889 0
M  V30 8043 N 733.138 -0.185124 -1.56509 0
M  V30 8044 C 734.387 0.456421 -1.96468 0
M  V30 8045 C 734.7 1.63448 -1.07444 0
M  V30 8046 O 735.906 2.34316 -1.37143 0
M  V30 8047 C 734.362 0.863404 -3.4939 0
M  V30 8048 C 733.97 -0.289815 -4.47062 0
M  V30 8049 C 735.714 1.47259 -3.98139 0
M  V30 8050 C 733.621 0.137571 -5.9124 0
M  V30 8051 H 732.551 0.17429 -0.733579 0
M  V30 8052 H 735.202 -0.275554 -1.81419 0
M  V30 8053 H 733.584 1.65176 -3.59907 0
M  V30 8054 H 734.758 -1.06728 -4.4827 0
M  V30 8055 H 733.073 -0.809851 -4.08449 0
M  V30 8056 H 735.67 1.80463 -5.03326 0
M  V30 8057 H 736.013 2.3755 -3.41871 0
M  V30 8058 H 736.546 0.748405 -3.90696 0
M  V30 8059 H 733.285 -0.730907 -6.51412 0
M  V30 8060 H 732.805 0.8801 -5.93308 0
M  V30 8061 H 734.484 0.576771 -6.44424 0
M  V30 8062 N 734.616 1.57351 0.0885366 0
M  V30 8063 C 735.579 2.01557 1.09121 0
M  V30 8064 C 736.579 0.910052 1.3257 0
M  V30 8065 O 737.769 1.17537 1.28572 0
M  V30 8066 C 734.901 2.38189 2.43883 0
M  V30 8067 H 736.094 2.91361 0.710562 0
M  V30 8068 H 733.647 1.52694 0.333779 0
M  V30 8069 H 734.382 1.5136 2.86811 0
M  V30 8070 H 734.167 3.18846 2.28209 0
M  V30 8071 H 735.657 2.73025 3.15986 0
M  V30 8072 N 736.094 -0.359525 1.53444 0
M  V30 8073 C 737.322 -1.12198 1.73837 0
M  V30 8074 C 737.737 -1.82854 0.470107 0
M  V30 8075 O 737.094 -1.73781 -0.557349 0
M  V30 8076 C 737.145 -2.14769 2.90786 0
M  V30 8077 O 736.866 -1.46989 4.12706 0
M  V30 8078 C 738.367 -3.03514 3.231 0
M  V30 8079 H 735.587 -0.33524 0.581253 0
M  V30 8080 H 738.131 -0.416598 2.00212 0
M  V30 8081 H 736.286 -2.80896 2.66788 0
M  V30 8082 H 736.7 -2.15378 4.78239 0
M  V30 8083 H 738.174 -3.71453 4.08322 0
M  V30 8084 H 738.651 -3.68658 2.38721 0
M  V30 8085 H 739.257 -2.42996 3.49046 0
M  V30 8086 N 737.572 -1.44907 -0.619662 0
M  V30 8087 C 738.504 -1.48652 -1.74457 0
M  V30 8088 C 739.517 -0.378596 -1.58337 0
M  V30 8089 O 740.706 -0.644987 -1.6644 0
M  V30 8090 C 737.806 -1.31568 -3.12319 0
M  V30 8091 C 736.979 -2.55816 -3.54792 0
M  V30 8092 C 736.038 -2.33465 -4.71573 0
M  V30 8093 O 735.064 -3.07015 -4.79302 0
M  V30 8094 N 736.266 -1.37254 -5.6404 0
M  V30 8095 H 739.031 -2.45632 -1.71712 0
M  V30 8096 H 736.592 -1.40492 -0.804582 0
M  V30 8097 H 738.584 -1.14445 -3.88181 0
M  V30 8098 H 737.154 -0.429095 -3.09641 0
M  V30 8099 H 736.374 -2.88137 -2.69018 0
M  V30 8100 H 737.662 -3.38431 -3.79924 0
M  V30 8101 H 737.06 -0.765309 -5.60499 0
M  V30 8102 H 735.617 -1.26106 -6.39485 0
M  V30 8103 N 739.05 0.861098 -1.31996 0
M  V30 8104 C 740.298 1.61162 -1.21947 0
M  V30 8105 C 740.619 1.93751 0.220351 0
M  V30 8106 O 739.889 1.59069 1.14341 0
M  V30 8107 H 738.469 0.597485 -0.448353 0
M  V30 8108 H 741.131 1.03039 -1.65436 0
M  V30 8109 H 740.227 2.55138 -1.79752 0
M  V30 8110 N 740.528 1.15101 1.07655 0
M  V30 8111 C 741.939 0.933848 1.61667 0
M  V30 8112 C 742.29 -0.525569 1.8903 0
M  V30 8113 O 741.415 -1.39605 1.65346 0
M  V30 8114 C 742.01 1.68876 2.93711 0
M  V30 8115 C 740.569 1.51697 3.44478 0
M  V30 8116 C 739.716 1.70633 2.18586 0
M  V30 8117 H 742.667 1.30171 0.907816 0
M  V30 8118 H 742.688 1.15645 3.625 0
M  V30 8119 H 742.2 2.7509 2.73764 0
M  V30 8120 H 740.301 0.478635 3.69513 0
M  V30 8121 H 740.414 2.29194 4.20722 0
M  V30 8122 H 738.778 1.13259 2.28132 0
M  V30 8123 H 739.561 2.78206 2.01137 0
M  V30 8124 N 742.006 -1.2595 0.947325 0
M  V30 8125 C 742.936 -2.28521 0.479604 0
M  V30 8126 C 743.917 -1.63469 -0.470293 0
M  V30 8127 O 745.102 -1.90627 -0.370824 0
M  V30 8128 C 742.232 -3.46397 -0.250289 0
M  V30 8129 C 741.186 -4.23578 0.613643 0
M  V30 8130 C 740.512 -5.34131 -0.246568 0
M  V30 8131 C 741.812 -4.86979 1.88809 0
M  V30 8132 H 743.506 -2.67895 1.33688 0
M  V30 8133 H 741.052 -1.28783 0.644274 0
M  V30 8134 H 743.005 -4.17269 -0.588576 0
M  V30 8135 H 741.729 -3.05993 -1.14175 0
M  V30 8136 H 740.388 -3.54478 0.93491 0
M  V30 8137 H 740.036 -4.89968 -1.13756 0
M  V30 8138 H 739.736 -5.86683 0.328123 0
M  V30 8139 H 741.26 -6.07839 -0.579986 0
M  V30 8140 H 742.674 -5.50034 1.61666 0
M  V30 8141 H 741.071 -5.49675 2.40784 0
M  V30 8142 H 742.141 -4.09575 2.5957 0
M  V30 8143 N 743.484 -0.715051 -1.40445 0
M  V30 8144 C 744.447 -0.0708726 -2.2909 0
M  V30 8145 C 745.447 0.687926 -1.45342 0
M  V30 8146 O 746.637 0.519908 -1.66261 0
M  V30 8147 C 743.769 0.909528 -3.28543 0
M  V30 8148 H 744.962 -0.851611 -2.87555 0
M  V30 8149 H 742.515 -0.479674 -1.48758 0
M  V30 8150 H 743.25 1.71734 -2.75096 0
M  V30 8151 H 743.035 0.368318 -3.90366 0
M  V30 8152 H 744.525 1.35744 -3.94922 0
M  V30 8153 N 744.962 1.50701 -0.461195 0
M  V30 8154 C 745.912 2.25195 0.35653 0
M  V30 8155 C 746.896 1.2838 0.96992 0
M  V30 8156 O 748.088 1.53338 0.884108 0
M  V30 8157 C 745.217 3.11471 1.44364 0
M  V30 8158 C 744.303 4.15729 0.83847 0
M  V30 8159 N 744.694 5.05788 -0.0353198 0
M  V30 8160 C 742.992 4.32133 1.1035 0
M  V30 8161 C 743.693 5.80472 -0.37774 0
M  V30 8162 N 742.669 5.43049 0.24463 0
M  V30 8163 H 746.471 2.92188 -0.316746 0
M  V30 8164 H 743.985 1.60059 -0.274725 0
M  V30 8165 H 745.982 3.63436 2.04255 0
M  V30 8166 H 744.642 2.46025 2.11901 0
M  V30 8167 H 745.653 5.16326 -0.403465 0
M  V30 8168 H 742.33 3.77908 1.77458 0
M  V30 8169 H 743.72 6.62996 -1.09024 0
M  V30 8170 N 746.441 0.193421 1.56409 0
M  V30 8171 C 747.669 -0.451438 2.01915 0
M  V30 8172 C 748.084 -1.55306 1.07357 0
M  V30 8173 O 747.441 -1.82333 0.0781512 0
M  V30 8174 C 747.492 -1.00931 3.47124 0
M  V30 8175 O 747.213 0.0483623 4.38073 0
M  V30 8176 C 748.714 -1.73021 4.0814 0
M  V30 8177 H 745.934 -0.113495 0.661332 0
M  V30 8178 H 748.478 0.301636 2.02263 0
M  V30 8179 H 746.633 -1.71277 3.47481 0
M  V30 8180 H 747.047 -0.366644 5.23217 0
M  V30 8181 H 748.521 -2.07289 5.11601 0
M  V30 8182 H 748.998 -2.6333 3.51502 0
M  V30 8183 H 749.604 -1.07264 4.11551 0
M  V30 8184 N 747.919 -1.57396 -0.0801906 0
M  V30 8185 C 749.165 -1.87113 -0.782083 0
M  V30 8186 C 749.498 -0.78458 -1.77646 0
M  V30 8187 O 748.773 0.205993 -1.93406 0
M  V30 8188 C 749.056 -3.27483 -1.49756 0
M  V30 8189 C 748.909 -4.46782 -0.520171 0
M  V30 8190 C 750.228 -3.65965 -2.44454 0
M  V30 8191 H 747.347 -0.680559 -0.282858 0
M  V30 8192 H 749.989 -1.89946 -0.0454139 0
M  V30 8193 H 748.139 -3.25199 -2.12551 0
M  V30 8194 H 749.811 -4.61187 0.101919 0
M  V30 8195 H 748.054 -4.33485 0.165219 0
M  V30 8196 H 748.725 -5.41761 -1.05824 0
M  V30 8197 H 751.201 -3.69289 -1.91742 0
M  V30 8198 H 750.077 -4.65086 -2.91524 0
M  V30 8199 H 750.338 -2.95446 -3.28883 0
M  V30 8200 N 749.397 0.351382 -1.53633 0
M  V30 8201 C 750.307 1.45471 -1.84052 0
M  V30 8202 C 751.323 1.57945 -0.730015 0
M  V30 8203 O 752.499 1.73571 -1.02153 0
M  V30 8204 C 749.564 2.80562 -2.03681 0
M  V30 8205 C 748.625 2.77497 -3.27558 0
M  V30 8206 C 747.858 4.06144 -3.46241 0
M  V30 8207 O 748.081 5.03028 -2.68922 0
M  V30 8208 O 747.015 4.11092 -4.39645 0
M  V30 8209 H 750.841 1.22684 -2.77817 0
M  V30 8210 H 748.426 0.542827 -1.3919 0
M  V30 8211 H 750.308 3.6058 -2.18082 0
M  V30 8212 H 748.983 3.03296 -1.13106 0
M  V30 8213 H 747.89 1.96126 -3.18568 0
M  V30 8214 H 749.223 2.59716 -4.18101 0
M  V30 8215 N 750.875 1.45233 0.611969 0
M  V30 8216 C 752.152 1.39495 1.37115 0
M  V30 8217 C 752.532 0.0633303 2.11005 0
M  V30 8218 O 751.88 -0.954617 2.07604 0
M  V30 8219 C 752.09 2.60579 2.32163 0
M  V30 8220 C 753.438 3.05477 2.94905 0
M  V30 8221 O 754.462 2.60921 2.42485 0
M  V30 8222 O 753.321 3.82787 3.90047 0
M  V30 8223 H 750.415 0.55335 0.614599 0
M  V30 8224 H 752.961 1.57355 0.635423 0
M  V30 8225 H 751.733 3.49085 1.76793 0
M  V30 8226 H 751.356 2.45031 3.13122 0
M  V30 8227 N 752.353 -0.854086 1.3245 0
M  V30 8228 C 753.6 -1.60831 1.23043 0
M  V30 8229 C 753.928 -1.93389 -0.2076 0
M  V30 8230 O 753.183 -1.5756 -1.16075 0
M  V30 8231 C 753.482 -2.93746 2.03587 0
M  V30 8232 C 753.148 -2.80615 3.52939 0
M  V30 8233 C 751.81 -2.76742 3.93659 0
M  V30 8234 C 754.162 -2.66507 4.4791 0
M  V30 8235 C 751.49 -2.56638 5.27592 0
M  V30 8236 C 753.842 -2.47939 5.81987 0
M  V30 8237 C 752.506 -2.42458 6.21909 0
M  V30 8238 H 751.776 -0.588523 0.450247 0
M  V30 8239 H 754.423 -0.990699 1.63882 0
M  V30 8240 H 752.728 -3.5963 1.55478 0
M  V30 8241 H 754.425 -3.51127 1.93677 0
M  V30 8242 H 751.015 -2.84456 3.20598 0
M  V30 8243 H 755.199 -2.68544 4.1737 0
M  V30 8244 H 750.455 -2.50831 5.57579 0
M  V30 8245 H 754.629 -2.36002 6.55192 0
M  V30 8246 H 752.256 -2.2664 7.2563 0
M  V30 8247 N 753.831 -1.1567 -1.07043 0
M  V30 8248 C 755.077 -0.944878 -1.80121 0
M  V30 8249 C 755.432 0.522239 -1.85177 0
M  V30 8250 O 754.725 1.38228 -1.32678 0
M  V30 8251 C 754.919 -1.49677 -3.24548 0
M  V30 8252 C 754.748 -3.01602 -3.33566 0
M  V30 8253 C 753.518 -3.70177 -3.43943 0
M  V30 8254 C 755.716 -3.99362 -3.24059 0
M  V30 8255 N 753.698 -5.09882 -3.41896 0
M  V30 8256 C 755.069 -5.25404 -3.29167 0
M  V30 8257 C 757.124 -3.91289 -3.07891 0
M  V30 8258 C 755.827 -6.44314 -3.19769 0
M  V30 8259 C 757.853 -5.09761 -2.99829 0
M  V30 8260 C 757.215 -6.34679 -3.05552 0
M  V30 8261 H 753.314 -0.399447 -0.672284 0
M  V30 8262 H 755.898 -1.4693 -1.27749 0
M  V30 8263 H 754.069 -0.998941 -3.75334 0
M  V30 8264 H 755.801 -1.22346 -3.85764 0
M  V30 8265 H 752.556 -3.2078 -3.48421 0
M  V30 8266 H 752.98 -5.82857 -3.44393 0
M  V30 8267 H 757.622 -2.95573 -3.02318 0
M  V30 8268 H 755.34 -7.4026 -3.24101 0
M  V30 8269 H 758.926 -5.05279 -2.88418 0
M  V30 8270 H 757.806 -7.24812 -2.99361 0
M  V30 8271 N 755.309 1.25446 -0.953992 0
M  V30 8272 C 756.725 1.4539 -0.658316 0
M  V30 8273 C 756.925 1.85607 0.784356 0
M  V30 8274 O 755.981 1.98568 1.55972 0
M  V30 8275 C 757.294 2.52643 -1.6307 0
M  V30 8276 C 758.842 2.66484 -1.64181 0
M  V30 8277 C 759.317 3.76921 -2.60182 0
M  V30 8278 N 760.808 3.84331 -2.58542 0
M  V30 8279 C 761.543 4.69271 -3.29503 0
M  V30 8280 N 761.039 5.58503 -4.09934 0
M  V30 8281 N 762.832 4.6323 -3.18393 0
M  V30 8282 H 754.983 0.976337 -1.8863 0
M  V30 8283 H 757.246 0.490343 -0.811337 0
M  V30 8284 H 756.952 2.29949 -2.66114 0
M  V30 8285 H 756.826 3.50547 -1.39271 0
M  V30 8286 H 759.213 2.88545 -0.618552 0
M  V30 8287 H 759.294 1.68982 -1.92038 0
M  V30 8288 H 758.938 3.55612 -3.62633 0
M  V30 8289 H 758.868 4.73906 -2.29609 0
M  V30 8290 H 761.359 3.20544 -2.0015 0
M  V30 8291 H 761.672 6.20241 -4.61 0
M  V30 8292 H 760.017 5.58214 -4.14032 0
M  V30 8293 H 763.208 3.92527 -2.5503 0
M  V30 8294 H 763.381 5.29204 -3.73961 0
M  V30 8295 N 756.787 0.722489 1.40064 0
M  V30 8296 C 757.72 0.0233443 2.28188 0
M  V30 8297 C 758.698 -0.7606 1.43714 0
M  V30 8298 O 759.882 -0.745791 1.73119 0
M  V30 8299 C 757.009 -0.974264 3.24385 0
M  V30 8300 C 756.055 -0.280307 4.25578 0
M  V30 8301 S 756.888 0.996769 5.26141 0
M  V30 8302 C 758.044 0.00143923 6.259 0
M  V30 8303 H 758.277 0.770705 2.87137 0
M  V30 8304 H 755.81 0.513783 1.45601 0
M  V30 8305 H 757.768 -1.5446 3.80332 0
M  V30 8306 H 756.429 -1.69438 2.6448 0
M  V30 8307 H 755.622 -1.03471 4.93264 0
M  V30 8308 H 755.224 0.217657 3.73366 0
M  V30 8309 H 757.516 -0.843126 6.72233 0
M  V30 8310 H 758.459 0.645104 7.05155 0
M  V30 8311 H 758.867 -0.365371 5.63316 0
M  V30 8312 N 758.265 -1.50454 0.469181 0
M  V30 8313 C 759.514 -2.01507 -0.0881425 0
M  V30 8314 C 759.827 -1.35613 -1.40956 0
M  V30 8315 O 761.033 -1.77812 -2.05171 0
M  V30 8316 C 759.489 -3.59301 -0.207596 0
M  V30 8317 C 759.097 -4.34152 1.10527 0
M  V30 8318 C 760.841 -4.18401 -0.716981 0
M  V30 8319 C 758.748 -5.83725 0.949717 0
M  V30 8320 H 757.678 -0.753106 -0.0367156 0
M  V30 8321 H 760.329 -1.73282 0.603788 0
M  V30 8322 H 758.711 -3.84106 -0.963265 0
M  V30 8323 H 759.885 -4.21073 1.87175 0
M  V30 8324 H 758.2 -3.86652 1.54562 0
M  V30 8325 H 760.797 -5.27895 -0.850363 0
M  V30 8326 H 761.14 -3.79657 -1.70782 0
M  V30 8327 H 761.673 -3.97796 -0.0187511 0
M  V30 8328 H 758.412 -6.26938 1.91387 0
M  V30 8329 H 757.932 -5.99383 0.223591 0
M  V30 8330 H 759.611 -6.44065 0.61557 0
M  V30 8331 N 759.743 -0.201713 -1.56304 0
M  V30 8332 C 760.989 0.429292 -1.98818 0
M  V30 8333 C 761.344 1.58779 -1.08659 0
M  V30 8334 O 760.637 1.91142 -0.132365 0
M  V30 8335 C 760.831 0.931432 -3.45049 0
M  V30 8336 C 760.66 -0.176878 -4.49352 0
M  V30 8337 C 759.43 -0.636712 -5.01272 0
M  V30 8338 C 761.628 -0.988177 -5.04717 0
M  V30 8339 N 759.61 -1.72215 -5.8925 0
M  V30 8340 C 760.981 -1.92288 -5.89428 0
M  V30 8341 C 763.036 -1.02985 -4.87133 0
M  V30 8342 C 761.739 -2.89582 -6.58434 0
M  V30 8343 C 763.765 -1.99087 -5.56883 0
M  V30 8344 C 763.127 -2.913 -6.41345 0
M  V30 8345 H 759.226 0.124322 -0.772054 0
M  V30 8346 H 761.81 -0.308929 -1.92234 0
M  V30 8347 H 759.981 1.63907 -3.52121 0
M  V30 8348 H 761.713 1.5336 -3.74517 0
M  V30 8349 H 758.468 -0.228861 -4.73047 0
M  V30 8350 H 758.892 -2.26627 -6.37941 0
M  V30 8351 H 763.534 -0.330894 -4.21503 0
M  V30 8352 H 761.252 -3.6045 -7.23258 0
M  V30 8353 H 764.838 -2.0296 -5.45251 0
M  V30 8354 H 763.718 -3.6445 -6.94367 0
M  V30 8355 N 761.222 1.57436 0.0718424 0
M  V30 8356 C 762.132 2.07039 1.10326 0
M  V30 8357 C 763.148 0.999918 1.424 0
M  V30 8358 O 764.324 1.31462 1.52577 0
M  V30 8359 C 761.389 2.50439 2.39752 0
M  V30 8360 C 760.45 3.71784 2.14651 0
M  V30 8361 C 759.683 4.13104 3.37906 0
M  V30 8362 O 759.906 3.54298 4.47023 0
M  V30 8363 O 758.84 5.05894 3.26121 0
M  V30 8364 H 762.666 2.95239 0.711872 0
M  V30 8365 H 760.251 1.46638 0.28597 0
M  V30 8366 H 762.133 2.78876 3.15921 0
M  V30 8367 H 760.808 1.65368 2.78271 0
M  V30 8368 H 759.715 3.48431 1.36187 0
M  V30 8369 H 761.048 4.57707 1.81012 0
M  V30 8370 N 762.7 -0.34323 1.53817 0
M  V30 8371 C 763.946 -1.08137 1.72273 0
M  V30 8372 C 764.301 -1.86311 0.480201 0
M  V30 8373 O 763.594 -1.84204 -0.527192 0
M  V30 8374 C 763.788 -2.05195 2.92626 0
M  V30 8375 C 763.617 -1.36561 4.28464 0
M  V30 8376 C 762.387 -1.11033 4.9295 0
M  V30 8377 C 764.585 -0.791663 5.0817 0
M  V30 8378 N 762.567 -0.389839 6.12661 0
M  V30 8379 C 763.938 -0.201742 6.19672 0
M  V30 8380 C 765.993 -0.692541 4.9306 0
M  V30 8381 C 764.696 0.477661 7.17712 0
M  V30 8382 C 766.722 -0.0268775 5.91394 0
M  V30 8383 C 766.084 0.552072 7.02233 0
M  V30 8384 H 762.183 -0.380078 0.683421 0
M  V30 8385 H 764.767 -0.364925 1.9125 0
M  V30 8386 H 762.938 -2.74131 2.75149 0
M  V30 8387 H 764.67 -2.7185 2.99799 0
M  V30 8388 H 761.425 -1.39752 4.52511 0
M  V30 8389 H 761.849 -0.0443076 6.76986 0
M  V30 8390 H 766.491 -1.12589 4.07534 0
M  V30 8391 H 764.209 0.922895 8.02813 0
M  V30 8392 H 767.795 0.0491921 5.81779 0
M  V30 8393 H 766.675 1.05899 7.77017 0
M  V30 8394 N 764.178 -1.45556 -0.604258 0
M  V30 8395 C 765.125 -1.54482 -1.71476 0
M  V30 8396 C 766.095 -0.390479 -1.61445 0
M  V30 8397 O 767.28 -0.604371 -1.80975 0
M  V30 8398 C 764.42 -1.52064 -3.09791 0
M  V30 8399 C 763.533 -2.78073 -3.30604 0
M  V30 8400 C 762.668 -2.67304 -4.59044 0
M  V30 8401 C 761.707 -3.88352 -4.73127 0
M  V30 8402 N 760.844 -3.76098 -5.9287 0
M  V30 8403 H 765.684 -2.49349 -1.63184 0
M  V30 8404 H 763.221 -1.23725 -0.795641 0
M  V30 8405 H 765.179 -1.48649 -3.89819 0
M  V30 8406 H 763.809 -0.607442 -3.17033 0
M  V30 8407 H 762.861 -2.91561 -2.44329 0
M  V30 8408 H 764.173 -3.67847 -3.36883 0
M  V30 8409 H 763.327 -2.61875 -5.47272 0
M  V30 8410 H 762.066 -1.75135 -4.55169 0
M  V30 8411 H 761.071 -3.94137 -3.83322 0
M  V30 8412 H 762.296 -4.81591 -4.78797 0
M  V30 8413 H 760.242 -2.867 -5.90033 0
M  V30 8414 H 760.159 -4.59509 -6.00323 0
M  V30 8415 H 761.427 -3.74607 -6.83586 0
M  V30 8416 N 765.656 0.84705 -1.32902 0
M  V30 8417 C 766.881 1.63925 -1.27056 0
M  V30 8418 C 767.306 1.87443 0.157136 0
M  V30 8419 O 766.664 1.43266 1.11106 0
M  V30 8420 C 766.712 2.97134 -2.04313 0
M  V30 8421 O 765.816 3.88049 -1.39614 0
M  V30 8422 H 765.157 0.499477 -0.437514 0
M  V30 8423 H 767.687 1.05443 -1.75336 0
M  V30 8424 H 767.697 3.46896 -2.14772 0
M  V30 8425 H 766.372 2.79339 -3.08128 0
M  V30 8426 H 764.949 3.46525 -1.3775 0
M  V30 8427 N 767.134 1.16236 1.06428 0
M  V30 8428 C 768.084 0.835994 2.12121 0
M  V30 8429 C 769.068 -0.183955 1.59845 0
M  V30 8430 O 770.26 0.0166741 1.76992 0
M  V30 8431 C 767.389 0.337333 3.41639 0
M  V30 8432 C 766.475 1.38798 4.00744 0
M  V30 8433 N 766.866 2.59799 4.3398 0
M  V30 8434 C 765.164 1.24292 4.28331 0
M  V30 8435 C 765.865 3.27213 4.80943 0
M  V30 8436 N 764.841 2.54594 4.80294 0
M  V30 8437 H 768.643 1.75615 2.35662 0
M  V30 8438 H 766.157 1.04921 1.23957 0
M  V30 8439 H 768.154 0.0851274 4.16813 0
M  V30 8440 H 766.814 -0.57677 3.19536 0
M  V30 8441 H 767.825 2.96867 4.24371 0
M  V30 8442 H 764.502 0.389464 4.15679 0
M  V30 8443 H 765.892 4.30492 5.15874 0
M  V30 8444 N 768.612 -1.24939 0.960631 0
M  V30 8445 C 769.84 -1.96881 0.636045 0
M  V30 8446 C 770.255 -1.71334 -0.793093 0
M  V30 8447 O 769.612 -0.992917 -1.53125 0
M  V30 8448 C 769.663 -3.50309 0.892533 0
M  V30 8449 O 769.384 -3.74977 2.26548 0
M  V30 8450 C 770.885 -4.39474 0.581159 0
M  V30 8451 H 768.105 -0.627399 0.237931 0
M  V30 8452 H 770.649 -1.58952 1.28664 0
M  V30 8453 H 768.804 -3.86326 0.288257 0
M  V30 8454 H 769.218 -4.69401 2.34014 0
M  V30 8455 H 770.692 -5.46008 0.811125 0
M  V30 8456 H 771.169 -4.3652 -0.48443 0
M  V30 8457 H 771.775 -4.09032 1.16502 0
M  V30 8458 N 770.09 -0.729906 -1.39679 0
M  V30 8459 C 771.339 -0.272534 -1.9985 0
M  V30 8460 C 771.652 1.14519 -1.58571 0
M  V30 8461 O 772.858 1.70182 -2.11543 0
M  V30 8462 C 771.314 -0.436322 -3.57245 0
M  V30 8463 C 770.922 -1.86161 -4.0749 0
M  V30 8464 C 772.666 -0.0404679 -4.24481 0
M  V30 8465 C 770.573 -1.97522 -5.5744 0
M  V30 8466 H 769.503 -0.0981428 -0.747585 0
M  V30 8467 H 772.154 -0.903056 -1.59741 0
M  V30 8468 H 770.536 0.263015 -3.95126 0
M  V30 8469 H 771.71 -2.59248 -3.80955 0
M  V30 8470 H 770.025 -2.21021 -3.529 0
M  V30 8471 H 772.622 -0.104437 -5.34598 0
M  V30 8472 H 772.965 1.00357 -4.04023 0
M  V30 8473 H 773.498 -0.690774 -3.91757 0
M  V30 8474 H 770.237 -3.00096 -5.82771 0
M  V30 8475 H 769.757 -1.28864 -5.85794 0
M  V30 8476 H 771.436 -1.754 -6.22771 0
M  V30 8477 N 771.568 1.50203 -0.477153 0
M  V30 8478 C 772.814 2.02658 0.0758507 0
M  V30 8479 C 773.147 1.358 1.38824 0
M  V30 8480 O 772.422 0.485696 1.88338 0
M  V30 8481 C 772.705 3.59208 0.253339 0
M  V30 8482 C 772.558 4.36629 -1.0805 0
M  V30 8483 C 773.877 4.28469 1.00509 0
M  V30 8484 H 770.996 0.736538 0.0260921 0
M  V30 8485 H 773.638 1.79464 -0.623925 0
M  V30 8486 H 771.788 3.79101 0.849378 0
M  V30 8487 H 773.46 4.28292 -1.71358 0
M  V30 8488 H 771.703 4.0013 -1.67566 0
M  V30 8489 H 772.374 5.44449 -0.909883 0
M  V30 8490 H 774.85 4.13087 0.499818 0
M  V30 8491 H 773.726 5.37804 1.09808 0
M  V30 8492 H 773.987 3.92057 2.04314 0
M  V30 8493 N 773.046 0.209999 1.56195 0
M  V30 8494 C 773.979 -0.744546 2.15712 0
M  V30 8495 C 774.957 -1.19917 1.09812 0
M  V30 8496 O 776.141 -1.284 1.38006 0
M  V30 8497 C 773.268 -2.00733 2.72807 0
M  V30 8498 C 772.314 -1.69363 3.91431 0
M  V30 8499 S 773.147 -0.828579 5.29051 0
M  V30 8500 C 774.303 -2.10118 5.89577 0
M  V30 8501 H 774.536 -0.238636 2.96341 0
M  V30 8502 H 772.069 -0.00517877 1.54399 0
M  V30 8503 H 774.027 -2.73246 3.06344 0
M  V30 8504 H 772.688 -2.48436 1.92193 0
M  V30 8505 H 771.881 -2.63157 4.29842 0
M  V30 8506 H 771.483 -1.04921 3.58981 0
M  V30 8507 H 773.775 -3.05231 6.04847 0
M  V30 8508 H 774.718 -1.76116 6.85849 0
M  V30 8509 H 775.126 -2.23644 5.18308 0
M  V30 8510 N 774.524 -1.57472 -0.0634922 0
M  V30 8511 C 775.454 -2.07297 -1.07473 0
M  V30 8512 C 776.435 -0.968162 -1.39859 0
M  V30 8513 O 777.62 -1.24139 -1.49343 0
M  V30 8514 C 774.75 -2.52381 -2.38581 0
M  V30 8515 C 773.704 -3.66813 -2.20526 0
M  V30 8516 C 773.03 -3.97982 -3.57092 0
M  V30 8517 C 774.33 -4.96553 -1.61965 0
M  V30 8518 H 776.024 -2.92033 -0.660092 0
M  V30 8519 H 773.57 -1.40488 -0.316074 0
M  V30 8520 H 775.523 -2.85852 -3.09624 0
M  V30 8521 H 774.247 -1.64684 -2.8204 0
M  V30 8522 H 772.906 -3.33639 -1.51924 0
M  V30 8523 H 772.554 -3.07403 -3.98136 0
M  V30 8524 H 772.254 -4.7504 -3.45848 0
M  V30 8525 H 773.778 -4.33956 -4.29552 0
M  V30 8526 H 775.192 -5.28201 -2.22883 0
M  V30 8527 H 773.589 -5.7799 -1.61394 0
M  V30 8528 H 774.659 -4.81396 -0.581918 0
M  V30 8529 N 776.003 0.335068 -1.53997 0
M  V30 8530 C 777.231 1.09418 -1.756 0
M  V30 8531 C 777.646 1.82083 -0.499138 0
M  V30 8532 O 777.003 1.74646 0.529631 0
M  V30 8533 C 777.054 2.10115 -2.94166 0
M  V30 8534 O 776.775 1.40404 -4.14992 0
M  V30 8535 C 778.276 2.98336 -3.27888 0
M  V30 8536 H 775.496 0.32595 -0.586513 0
M  V30 8537 H 778.04 0.384693 -2.00849 0
M  V30 8538 H 776.195 2.76616 -2.71224 0
M  V30 8539 H 776.609 2.07743 -4.81605 0
M  V30 8540 H 778.083 3.6491 -4.1418 0
M  V30 8541 H 778.56 3.64814 -2.44556 0
M  V30 8542 H 779.166 2.37412 -3.52868 0
M  V30 8543 N 777.481 1.45874 0.596531 0
M  V30 8544 C 778.391 1.57947 1.73464 0
M  V30 8545 C 779.407 0.463461 1.67714 0
M  V30 8546 O 780.583 0.725685 1.87872 0
M  V30 8547 C 777.648 1.55348 3.09948 0
M  V30 8548 C 776.709 2.78074 3.27068 0
M  V30 8549 C 775.942 2.75589 4.57041 0
M  V30 8550 O 776.165 1.83545 5.40063 0
M  V30 8551 O 775.099 3.66945 4.77111 0
M  V30 8552 H 778.925 2.54169 1.66228 0
M  V30 8553 H 776.51 1.2851 0.76194 0
M  V30 8554 H 778.392 1.56545 3.91244 0
M  V30 8555 H 777.067 0.622811 3.17652 0
M  V30 8556 H 775.974 2.82435 2.45319 0
M  V30 8557 H 777.307 3.70303 3.24248 0
M  V30 8558 N 778.959 -0.83999 1.33349 0
M  V30 8559 C 780.205 -1.59753 1.24927 0
M  V30 8560 C 780.538 -1.93318 -0.184855 0
M  V30 8561 O 779.813 -1.586 -1.12589 0
M  V30 8562 C 780.096 -2.90829 2.12345 0
M  V30 8563 C 779.949 -2.63953 3.6421 0
M  V30 8564 C 781.268 -3.92246 1.99577 0
M  V30 8565 H 778.387 -0.579654 0.45516 0
M  V30 8566 H 781.029 -0.968909 1.63439 0
M  V30 8567 H 779.179 -3.44478 1.79631 0
M  V30 8568 H 780.851 -2.16745 4.07209 0
M  V30 8569 H 779.094 -1.97671 3.86146 0
M  V30 8570 H 779.765 -3.57348 4.20721 0
M  V30 8571 H 782.241 -3.479 2.28265 0
M  V30 8572 H 781.117 -4.81793 2.62996 0
M  V30 8573 H 781.378 -4.3138 0.967673 0
M  V30 8574 N 780.437 -1.16799 -1.0581 0
M  V30 8575 C 781.369 -0.836774 -2.13379 0
M  V30 8576 C 782.382 0.158116 -1.6203 0
M  V30 8577 O 783.571 -0.0673211 -1.78373 0
M  V30 8578 C 780.671 -0.225959 -3.38146 0
M  V30 8579 C 779.844 -1.26217 -4.18794 0
M  V30 8580 C 778.903 -0.670257 -5.21914 0
M  V30 8581 O 777.929 -1.34042 -5.53192 0
M  V30 8582 N 779.131 0.540683 -5.77977 0
M  V30 8583 H 781.896 -1.76257 -2.42391 0
M  V30 8584 H 779.457 -1.06599 -1.21853 0
M  V30 8585 H 781.449 0.18317 -4.04285 0
M  V30 8586 H 780.019 0.603494 -3.06719 0
M  V30 8587 H 779.239 -1.84729 -3.48237 0
M  V30 8588 H 780.527 -1.9613 -4.69479 0
M  V30 8589 H 779.925 1.10322 -5.54838 0
M  V30 8590 H 778.482 0.891958 -6.45668 0
M  V30 8591 N 781.915 1.24427 -0.967243 0
M  V30 8592 C 782.825 2.29109 -0.504592 0
M  V30 8593 C 783.841 1.68495 0.434224 0
M  V30 8594 O 785.017 1.99041 0.307379 0
M  V30 8595 C 782.082 3.46133 0.198273 0
M  V30 8596 C 781.143 4.22149 -0.780313 0
M  V30 8597 C 780.376 5.33585 -0.110896 0
M  V30 8598 O 780.599 5.59676 1.10088 0
M  V30 8599 O 779.533 5.96522 -0.802823 0
M  V30 8600 H 783.359 2.708 -1.37482 0
M  V30 8601 H 780.944 1.30111 -0.73426 0
M  V30 8602 H 782.826 4.17205 0.593124 0
M  V30 8603 H 781.501 3.0642 1.04347 0
M  V30 8604 H 780.408 3.53454 -1.22561 0
M  V30 8605 H 781.741 4.65677 -1.59392 0
M  V30 8606 N 783.393 0.737304 1.3929 0
M  V30 8607 C 784.809 0.413132 1.5416 0
M  V30 8608 C 785.009 -1.07574 1.70382 0
M  V30 8609 O 784.065 -1.86185 1.70562 0
M  V30 8610 C 785.378 1.19817 2.75798 0
M  V30 8611 C 786.926 1.18662 2.89635 0
M  V30 8612 C 787.401 1.95427 4.14213 0
M  V30 8613 N 788.892 1.92605 4.21257 0
M  V30 8614 C 789.627 2.48808 5.16606 0
M  V30 8615 N 789.123 3.13659 6.1773 0
M  V30 8616 N 790.916 2.38829 5.08839 0
M  V30 8617 H 783.067 1.70243 1.27008 0
M  V30 8618 H 785.33 0.720802 0.61575 0
M  V30 8619 H 785.036 2.25179 2.70161 0
M  V30 8620 H 784.91 0.804144 3.68529 0
M  V30 8621 H 787.297 0.141112 2.94762 0
M  V30 8622 H 787.378 1.62003 1.97961 0
M  V30 8623 H 787.022 2.9998 4.09847 0
M  V30 8624 H 786.952 1.4949 5.04936 0
M  V30 8625 H 789.443 1.45362 3.48824 0
M  V30 8626 H 789.756 3.54006 6.8695 0
M  V30 8627 H 788.101 3.17749 6.1811 0
M  V30 8628 H 791.292 1.87806 4.28773 0
M  V30 8629 H 791.465 2.82929 5.82971 0
M  V30 8630 N 784.871 -1.49948 0.485112 0
M  V30 8631 C 785.781 -2.32587 -0.306697 0
M  V30 8632 C 786.797 -1.43598 -0.982632 0
M  V30 8633 O 787.973 -1.76638 -0.967519 0
M  V30 8634 C 785.038 -3.18638 -1.3664 0
M  V30 8635 C 784.099 -4.23462 -0.705589 0
M  V30 8636 C 783.332 -5.05401 -1.7148 0
M  V30 8637 O 783.555 -4.88618 -2.94293 0
M  V30 8638 O 782.489 -5.88157 -1.27889 0
M  V30 8639 H 786.315 -3.01447 0.369272 0
M  V30 8640 H 783.9 -1.47349 0.246709 0
M  V30 8641 H 785.782 -3.71992 -1.9799 0
M  V30 8642 H 784.457 -2.52491 -2.02559 0
M  V30 8643 H 783.364 -3.74063 -0.0527733 0
M  V30 8644 H 784.697 -4.92119 -0.0891187 0
M  V30 8645 N 786.349 -0.21828 -1.56081 0
M  V30 8646 C 787.281 0.725447 -2.17416 0
M  V30 8647 C 788.294 1.15995 -1.14233 0
M  V30 8648 O 789.483 1.09166 -1.41227 0
M  V30 8649 C 786.583 1.99401 -2.7403 0
M  V30 8650 C 785.756 1.7156 -4.02351 0
M  V30 8651 C 784.815 2.8309 -4.43561 0
M  V30 8652 O 783.841 2.51701 -5.10525 0
M  V30 8653 N 785.043 4.11972 -4.08973 0
M  V30 8654 H 787.808 0.200801 -2.99027 0
M  V30 8655 H 785.369 -0.0371514 -1.61857 0
M  V30 8656 H 787.361 2.73198 -2.98571 0
M  V30 8657 H 785.931 2.42923 -1.96742 0
M  V30 8658 H 785.151 0.814233 -3.85699 0
M  V30 8659 H 786.439 1.50385 -4.86068 0
M  V30 8660 H 785.837 4.40319 -3.55156 0
M  V30 8661 H 784.394 4.82323 -4.38415 0
M  V30 8662 N 787.827 1.57504 0.0551401 0
M  V30 8663 C 789.104 1.79155 0.785048 0
M  V30 8664 C 789.484 0.809995 1.94942 0
M  V30 8665 O 788.832 -0.153432 2.27984 0
M  V30 8666 C 789.042 3.26134 1.24247 0
M  V30 8667 C 790.39 3.90419 1.66908 0
M  V30 8668 O 791.414 3.30126 1.33772 0
M  V30 8669 O 790.273 4.96523 2.28314 0
M  V30 8670 H 787.367 0.735825 0.377479 0
M  V30 8671 H 789.913 1.69666 0.0339285 0
M  V30 8672 H 788.685 3.89145 0.410089 0
M  V30 8673 H 788.308 3.40411 2.05441 0
M  V30 8674 N 789.305 -0.326896 1.54172 0
M  V30 8675 C 790.252 -1.40216 1.83325 0
M  V30 8676 C 791.222 -1.51538 0.680107 0
M  V30 8677 O 792.407 -1.66811 0.926206 0
M  V30 8678 C 789.547 -2.76626 2.0633 0
M  V30 8679 C 788.66 -2.73963 3.34019 0
M  V30 8680 C 787.795 -4.02198 3.47002 0
M  V30 8681 C 786.834 -3.93828 4.68578 0
M  V30 8682 N 785.971 -5.13787 4.78506 0
M  V30 8683 H 790.811 -1.14656 2.7506 0
M  V30 8684 H 788.348 -0.555089 1.36225 0
M  V30 8685 H 790.306 -3.55922 2.17659 0
M  V30 8686 H 788.936 -3.00503 1.1789 0
M  V30 8687 H 787.988 -1.86677 3.31445 0
M  V30 8688 H 789.3 -2.6366 4.2342 0
M  V30 8689 H 788.454 -4.89923 3.57855 0
M  V30 8690 H 787.193 -4.15302 2.55687 0
M  V30 8691 H 786.198 -3.04487 4.57786 0
M  V30 8692 H 787.423 -3.82292 5.61275 0
M  V30 8693 H 785.369 -5.27403 3.90105 0
M  V30 8694 H 785.286 -5.05807 5.61868 0
M  V30 8695 H 786.554 -6.03236 4.93686 0
M  V30 8696 N 790.784 -1.46188 -0.588786 0
M  V30 8697 C 792.024 -1.52738 -1.35833 0
M  V30 8698 C 792.388 -0.172403 -1.91224 0
M  V30 8699 O 793.589 -0.112633 -2.68564 0
M  V30 8700 C 791.86 -2.59085 -2.4619 0
M  V30 8701 S 793.419 -2.84997 -3.3365 0
M  V30 8702 H 790.237 -0.539713 -0.462851 0
M  V30 8703 H 792.839 -1.83386 -0.677489 0
M  V30 8704 H 791.543 -3.56177 -2.03878 0
M  V30 8705 H 791.074 -2.3015 -3.19053 0
M  V30 8706 H 793.089 -2.19804 -4.4486 0
M  V30 8707 N 792.262 0.832906 -1.33792 0
M  V30 8708 C 793.492 1.61813 -1.28453 0
M  V30 8709 C 793.9 1.88639 0.145595 0
M  V30 8710 O 793.243 1.47122 1.10004 0
M  V30 8711 C 793.305 2.98929 -1.99704 0
M  V30 8712 C 792.969 2.95045 -3.48995 0
M  V30 8713 C 793.966 2.70337 -4.44088 0
M  V30 8714 C 791.651 3.14993 -3.91261 0
M  V30 8715 C 793.645 2.65612 -5.79421 0
M  V30 8716 C 791.332 3.09893 -5.26697 0
M  V30 8717 C 792.33 2.85235 -6.20588 0
M  V30 8718 O 792.018 2.8005 -7.53543 0
M  V30 8719 H 791.75 0.510013 -0.443693 0
M  V30 8720 H 794.304 1.04514 -1.76822 0
M  V30 8721 H 792.534 3.58106 -1.45935 0
M  V30 8722 H 794.223 3.59849 -1.87786 0
M  V30 8723 H 794.989 2.54671 -4.12756 0
M  V30 8724 H 790.868 3.33204 -3.18584 0
M  V30 8725 H 794.412 2.46285 -6.52679 0
M  V30 8726 H 790.309 3.2511 -5.5765 0
M  V30 8727 H 791.077 2.95849 -7.63162 0
M  V30 8728 N 793.74 1.17359 1.05189 0
M  V30 8729 C 794.672 0.848078 2.12933 0
M  V30 8730 C 795.685 -0.149521 1.62112 0
M  V30 8731 O 796.874 0.0767797 1.78335 0
M  V30 8732 C 793.974 0.243889 3.38021 0
M  V30 8733 C 793.147 1.28436 4.18118 0
M  V30 8734 C 792.206 0.697926 5.21551 0
M  V30 8735 O 791.232 1.36973 5.52473 0
M  V30 8736 N 792.434 -0.510024 5.78255 0
M  V30 8737 H 795.199 1.7754 2.41453 0
M  V30 8738 H 792.76 1.07244 1.21286 0
M  V30 8739 H 794.752 -0.161727 4.04377 0
M  V30 8740 H 793.322 -0.58722 3.07035 0
M  V30 8741 H 792.542 1.86573 3.47252 0
M  V30 8742 H 793.83 1.98617 4.68432 0
M  V30 8743 H 793.228 -1.07378 5.55416 0
M  V30 8744 H 791.785 -0.857705 6.46132 0
M  V30 8745 N 795.218 -1.23913 0.973828 0
M  V30 8746 C 796.448 -1.95911 0.655938 0
M  V30 8747 C 796.856 -1.72375 -0.779967 0
M  V30 8748 O 796.199 -1.00807 -1.5357 0
M  V30 8749 C 796.261 -3.49103 0.858324 0
M  V30 8750 C 795.925 -3.96347 2.27504 0
M  V30 8751 C 796.922 -4.05537 3.25324 0
M  V30 8752 C 794.607 -4.29509 2.60437 0
M  V30 8753 C 796.601 -4.47233 4.5416 0
M  V30 8754 C 794.288 -4.70887 3.89498 0
M  V30 8755 C 795.286 -4.79714 4.86172 0
M  V30 8756 O 794.974 -5.20166 6.1293 0
M  V30 8757 H 794.706 -0.630721 0.243244 0
M  V30 8758 H 797.26 -1.58534 1.30599 0
M  V30 8759 H 795.49 -3.86405 0.151097 0
M  V30 8760 H 797.179 -4.02311 0.538592 0
M  V30 8761 H 797.945 -3.80128 3.0121 0
M  V30 8762 H 793.824 -4.21853 1.85906 0
M  V30 8763 H 797.368 -4.54038 5.29618 0
M  V30 8764 H 793.265 -4.95744 4.1341 0
M  V30 8765 H 794.033 -5.38298 6.16586 0
M  V30 8766 N 796.696 -0.74468 -1.38897 0
M  V30 8767 C 797.942 -0.306249 -2.01081 0
M  V30 8768 C 798.297 1.09724 -1.58046 0
M  V30 8769 O 797.59 1.73923 -0.803834 0
M  V30 8770 C 797.784 -0.357302 -3.55609 0
M  V30 8771 C 797.613 -1.76421 -4.13649 0
M  V30 8772 C 796.383 -2.3787 -4.4581 0
M  V30 8773 C 798.581 -2.71942 -4.36523 0
M  V30 8774 N 796.563 -3.70614 -4.89406 0
M  V30 8775 C 797.934 -3.89437 -4.8243 0
M  V30 8776 C 799.989 -2.69579 -4.18607 0
M  V30 8777 C 798.692 -5.04917 -5.123 0
M  V30 8778 C 800.718 -3.8421 -4.49596 0
M  V30 8779 C 800.08 -5.00442 -4.95719 0
M  V30 8780 H 796.179 -0.158531 -0.765762 0
M  V30 8781 H 798.763 -0.972726 -1.6866 0
M  V30 8782 H 796.934 0.278865 -3.87398 0
M  V30 8783 H 798.666 0.100599 -4.04575 0
M  V30 8784 H 795.421 -1.8971 -4.33943 0
M  V30 8785 H 795.845 -4.38791 -5.1555 0
M  V30 8786 H 800.487 -1.80905 -3.82143 0
M  V30 8787 H 798.205 -5.94213 -5.47665 0
M  V30 8788 H 801.791 -3.83691 -4.37347 0
M  V30 8789 H 800.671 -5.87671 -5.19242 0
M  V30 8790 N 798.174 1.49689 -0.493057 0
M  V30 8791 C 799.585 1.8665 -0.0433032 0
M  V30 8792 C 799.936 1.40607 1.36836 0
M  V30 8793 O 799.061 0.780503 2.01834 0
M  V30 8794 C 799.656 3.38724 -0.0718069 0
M  V30 8795 C 798.215 3.75015 0.32257 0
M  V30 8796 C 797.362 2.7366 -0.4478 0
M  V30 8797 H 800.313 1.42119 -0.706246 0
M  V30 8798 H 800.334 3.73522 0.725347 0
M  V30 8799 H 799.846 3.72204 -1.09935 0
M  V30 8800 H 797.947 3.47142 1.35364 0
M  V30 8801 H 798.06 4.79099 0.00864259 0
M  V30 8802 H 796.424 2.54498 0.101354 0
M  V30 8803 H 797.207 3.09985 -1.47527 0
M  V30 8804 N 799.652 0.226554 1.55963 0
M  V30 8805 C 800.88 -0.408507 2.02827 0
M  V30 8806 C 801.295 -1.52994 1.10627 0
M  V30 8807 O 800.652 -1.82126 0.116809 0
M  V30 8808 C 800.703 -0.93545 3.49187 0
M  V30 8809 O 800.424 0.141273 4.37872 0
M  V30 8810 C 801.925 -1.64325 4.11719 0
M  V30 8811 H 799.145 -0.099442 0.66359 0
M  V30 8812 H 801.689 0.344471 2.01578 0
M  V30 8813 H 799.844 -1.63868 3.51036 0
M  V30 8814 H 800.258 -0.25558 5.23877 0
M  V30 8815 H 801.732 -1.9639 5.15883 0
M  V30 8816 H 802.209 -2.55815 3.57009 0
M  V30 8817 H 802.815 -0.9851 4.13734 0
M  V30 8818 N 801.13 -1.57531 -0.0467866 0
M  V30 8819 C 802.04 -2.08768 -1.07018 0
M  V30 8820 C 803.056 -1.02245 -1.40791 0
M  V30 8821 O 804.232 -1.33873 -1.50466 0
M  V30 8822 C 801.297 -2.54221 -2.35738 0
M  V30 8823 C 800.358 -3.75152 -2.08709 0
M  V30 8824 C 799.591 -4.18428 -3.31291 0
M  V30 8825 O 799.814 -3.61365 -4.4133 0
M  V30 8826 O 798.748 -5.11018 -3.18032 0
M  V30 8827 H 802.574 -2.96334 -0.664812 0
M  V30 8828 H 800.159 -1.47074 -0.262605 0
M  V30 8829 H 802.041 -2.83866 -3.11445 0
M  V30 8830 H 800.716 -1.69774 -2.75605 0
M  V30 8831 H 799.623 -3.50553 -1.30627 0
M  V30 8832 H 800.956 -4.60528 -1.73708 0
M  V30 8833 N 802.608 0.318715 -1.54344 0
M  V30 8834 C 803.856 1.054 -1.72439 0
M  V30 8835 C 804.177 1.88388 -0.503495 0
M  V30 8836 O 803.447 1.89866 0.48246 0
M  V30 8837 H 802.027 0.392124 -0.635805 0
M  V30 8838 H 804.689 0.35398 -1.91659 0
M  V30 8839 H 803.785 1.71726 -2.60608 0
M  V30 8840 N 804.086 1.46499 0.581025 0
M  V30 8841 C 805.311 1.55708 1.37002 0
M  V30 8842 C 805.736 0.19942 1.8704 0
M  V30 8843 O 805.094 -0.820731 1.61659 0
M  V30 8844 C 805.142 2.56716 2.53238 0
M  V30 8845 O 804.246 2.10336 3.54729 0
M  V30 8846 H 803.587 0.523912 0.407937 0
M  V30 8847 H 806.117 1.92085 0.704602 0
M  V30 8848 H 806.127 2.76378 3.00132 0
M  V30 8849 H 804.802 3.55307 2.16171 0
M  V30 8850 H 803.379 2.00669 3.14303 0
M  V30 8851 N 805.565 -0.825799 1.34232 0
M  V30 8852 C 806.811 -1.58419 1.26614 0
M  V30 8853 C 807.144 -1.93503 -0.164341 0
M  V30 8854 O 806.419 -1.59785 -1.109 0
M  V30 8855 C 806.702 -2.8856 2.15418 0
M  V30 8856 C 806.555 -2.60075 3.66989 0
M  V30 8857 C 807.874 -3.90107 2.03726 0
M  V30 8858 H 804.993 -0.574794 0.461282 0
M  V30 8859 H 807.635 -0.951519 1.64457 0
M  V30 8860 H 805.785 -3.42553 1.83275 0
M  V30 8861 H 807.457 -2.12414 4.09485 0
M  V30 8862 H 805.7 -1.93565 3.88221 0
M  V30 8863 H 806.371 -3.52866 4.24488 0
M  V30 8864 H 808.847 -3.45459 2.31942 0
M  V30 8865 H 807.723 -4.78976 2.68092 0
M  V30 8866 H 807.984 -4.30329 1.01337 0
M  V30 8867 N 807.043 -1.17915 -1.04565 0
M  V30 8868 C 808.271 -0.99616 -1.8134 0
M  V30 8869 C 808.686 0.455509 -1.83223 0
M  V30 8870 O 808.043 1.31636 -1.26405 0
M  V30 8871 C 808.094 -1.53758 -3.27171 0
M  V30 8872 O 807.815 -2.93241 -3.25486 0
M  V30 8873 C 809.316 -1.40007 -4.2061 0
M  V30 8874 H 806.536 -0.352055 -0.571225 0
M  V30 8875 H 809.08 -1.56349 -1.31815 0
M  V30 8876 H 807.235 -1.01213 -3.73945 0
M  V30 8877 H 807.649 -3.18392 -4.16805 0
M  V30 8878 H 809.123 -1.82695 -5.2089 0
M  V30 8879 H 809.6 -0.348054 -4.37819 0
M  V30 8880 H 810.206 -1.916 -3.79697 0
M  V30 8881 N 808.521 1.23394 -0.980386 0
M  V30 8882 C 809.471 2.22634 -0.491747 0
M  V30 8883 C 810.455 1.54958 0.433222 0
M  V30 8884 O 811.647 1.75049 0.262078 0
M  V30 8885 C 808.776 3.4269 0.204531 0
M  V30 8886 C 807.862 4.17594 -0.740007 0
M  V30 8887 N 808.253 4.69458 -1.88263 0
M  V30 8888 C 806.551 4.42554 -0.553335 0
M  V30 8889 C 807.252 5.26446 -2.47446 0
M  V30 8890 N 806.228 5.14377 -1.75834 0
M  V30 8891 H 810.03 2.60363 -1.36339 0
M  V30 8892 H 807.544 1.38924 -0.841059 0
M  V30 8893 H 809.541 4.12959 0.571901 0
M  V30 8894 H 808.201 3.06477 1.07246 0
M  V30 8895 H 809.212 4.65803 -2.26381 0
M  V30 8896 H 805.889 4.16629 0.269573 0
M  V30 8897 H 807.279 5.77195 -3.43941 0
M  V30 8898 N 809.999 0.752036 1.385 0
M  V30 8899 C 811.247 0.306895 1.99756 0
M  V30 8900 C 811.568 -1.11478 1.59992 0
M  V30 8901 O 810.838 -1.76206 0.856045 0
M  V30 8902 H 809.418 0.11048 0.738785 0
M  V30 8903 H 812.08 0.965785 1.69289 0
M  V30 8904 H 811.176 0.368797 3.09913 0
M  V30 8905 N 811.477 -1.49425 0.500989 0
M  V30 8906 C 812.387 -2.32899 -0.282011 0
M  V30 8907 C 813.403 -1.44632 -0.967346 0
M  V30 8908 O 814.579 -1.77654 -0.94873 0
M  V30 8909 C 811.644 -3.20069 -1.33253 0
M  V30 8910 C 810.705 -4.24186 -0.660636 0
M  V30 8911 C 809.938 -5.07191 -1.6611 0
M  V30 8912 O 810.161 -4.91712 -2.89094 0
M  V30 8913 O 809.095 -5.8948 -1.21643 0
M  V30 8914 H 812.921 -3.01038 0.401224 0
M  V30 8915 H 810.506 -1.47079 0.262323 0
M  V30 8916 H 812.388 -3.74071 -1.94033 0
M  V30 8917 H 811.063 -2.54625 -1.9987 0
M  V30 8918 H 809.97 -3.74098 -0.0130959 0
M  V30 8919 H 811.303 -4.92186 -0.0369179 0
M  V30 8920 N 812.955 -0.234822 -1.55841 0
M  V30 8921 C 814.204 0.393685 -1.97821 0
M  V30 8922 C 814.517 1.59947 -1.1259 0
M  V30 8923 O 815.723 2.29835 -1.44528 0
M  V30 8924 C 814.179 0.751811 -3.5196 0
M  V30 8925 C 813.787 -0.431898 -4.45913 0
M  V30 8926 C 815.531 1.34518 -4.02623 0
M  V30 8927 C 813.438 -0.0505976 -5.91378 0
M  V30 8928 H 812.368 0.150864 -0.738753 0
M  V30 8929 H 815.019 -0.333132 -1.80451 0
M  V30 8930 H 813.401 1.53642 -3.6498 0
M  V30 8931 H 814.575 -1.20935 -4.44647 0
M  V30 8932 H 812.89 -0.939385 -4.05666 0
M  V30 8933 H 815.487 1.64359 -5.08813 0
M  V30 8934 H 815.83 2.26554 -3.49255 0
M  V30 8935 H 816.363 0.623729 -3.9288 0
M  V30 8936 H 813.102 -0.937779 -6.48757 0
M  V30 8937 H 812.622 0.690898 -5.95808 0
M  V30 8938 H 814.301 0.37146 -6.45933 0
M  V30 8939 N 814.433 1.57553 0.0384317 0
M  V30 8940 C 815.661 1.93093 0.743141 0
M  V30 8941 C 816.076 0.833787 1.69391 0
M  V30 8942 O 815.433 -0.190532 1.81503 0
M  V30 8943 C 815.484 3.28533 1.50826 0
M  V30 8944 O 815.205 4.34032 0.595665 0
M  V30 8945 C 816.706 3.78297 2.31098 0
M  V30 8946 H 813.926 0.637486 0.20941 0
M  V30 8947 H 816.47 2.045 -0.00125154 0
M  V30 8948 H 814.625 3.18552 2.20462 0
M  V30 8949 H 815.039 5.12155 1.13124 0
M  V30 8950 H 816.513 4.75602 2.80191 0
M  V30 8951 H 816.99 3.09008 3.12107 0
M  V30 8952 H 817.596 3.91331 1.66555 0
M  V30 8953 N 815.911 -0.310526 1.54511 0
M  V30 8954 C 817.16 -1.0445 1.72549 0
M  V30 8955 C 817.473 -1.88748 0.513172 0
M  V30 8956 O 818.679 -2.65338 0.575165 0
M  V30 8957 C 817.135 -1.90665 3.05246 0
M  V30 8958 C 816.743 -1.11415 4.33925 0
M  V30 8959 C 818.487 -2.63719 3.32645 0
M  V30 8960 C 816.394 -1.96852 5.57677 0
M  V30 8961 H 815.324 -0.393676 0.643067 0
M  V30 8962 H 817.975 -0.302003 1.80998 0
M  V30 8963 H 816.357 -2.68864 2.90737 0
M  V30 8964 H 817.531 -0.378956 4.59239 0
M  V30 8965 H 815.846 -0.499853 4.13389 0
M  V30 8966 H 818.443 -3.27974 4.223 0
M  V30 8967 H 818.786 -3.32047 2.51098 0
M  V30 8968 H 819.319 -1.92574 3.48081 0
M  V30 8969 H 816.058 -1.33009 6.41864 0
M  V30 8970 H 815.578 -2.68069 5.36562 0
M  V30 8971 H 817.257 -2.55127 5.94575 0
M  V30 8972 N 817.389 -1.46805 -0.573248 0
M  V30 8973 C 818.299 -1.60687 -1.70929 0
M  V30 8974 C 819.315 -0.490084 -1.66956 0
M  V30 8975 O 820.491 -0.755482 -1.86693 0
M  V30 8976 C 817.556 -1.60259 -3.07438 0
M  V30 8977 C 816.617 -2.83242 -3.22603 0
M  V30 8978 C 815.85 -2.82825 -4.52599 0
M  V30 8979 O 816.073 -1.92113 -5.37074 0
M  V30 8980 O 815.007 -3.74489 -4.71213 0
M  V30 8981 H 818.833 -2.56782 -1.62163 0
M  V30 8982 H 816.418 -1.29706 -0.741399 0
M  V30 8983 H 818.3 -1.6275 -3.88704 0
M  V30 8984 H 816.975 -0.673268 -3.16621 0
M  V30 8985 H 815.882 -2.86302 -2.40794 0
M  V30 8986 H 817.215 -3.75415 -3.18315 0
M  V30 8987 N 818.867 0.818669 -1.34668 0
M  V30 8988 C 820.116 1.57017 -1.26604 0
M  V30 8989 C 820.429 1.94936 0.161036 0
M  V30 8990 O 821.635 2.69051 0.36386 0
M  V30 8991 C 820.091 2.83305 -2.2196 0
M  V30 8992 C 819.699 2.52671 -3.69948 0
M  V30 8993 C 821.443 3.61324 -2.22813 0
M  V30 8994 C 819.35 3.75178 -4.5716 0
M  V30 8995 H 818.28 0.589323 -0.470335 0
M  V30 8996 H 820.931 0.900956 -1.59859 0
M  V30 8997 H 819.313 3.51874 -1.81661 0
M  V30 8998 H 820.487 1.92186 -4.18809 0
M  V30 8999 H 818.802 1.8792 -3.71584 0
M  V30 9000 H 821.399 4.52294 -2.85192 0
M  V30 9001 H 821.742 3.97759 -1.22857 0
M  V30 9002 H 822.275 2.99703 -2.61578 0
M  V30 9003 H 819.014 3.43861 -5.58068 0
M  V30 9004 H 818.534 4.34931 -4.13031 0
M  V30 9005 H 820.213 4.42542 -4.71981 0
M  V30 9006 N 820.346 1.18468 1.03938 0
M  V30 9007 C 821.293 0.912859 2.1198 0
M  V30 9008 C 822.263 -0.14824 1.65437 0
M  V30 9009 O 823.448 -0.008331 1.90798 0
M  V30 9010 C 820.588 0.446114 3.42204 0
M  V30 9011 C 819.701 1.57278 4.02353 0
M  V30 9012 C 818.836 1.05863 5.20544 0
M  V30 9013 C 817.875 2.1599 5.72726 0
M  V30 9014 N 817.012 1.65959 6.82204 0
M  V30 9015 H 821.852 1.83798 2.34569 0
M  V30 9016 H 819.389 0.916504 1.15059 0
M  V30 9017 H 821.347 0.15697 4.16905 0
M  V30 9018 H 819.977 -0.442025 3.19759 0
M  V30 9019 H 819.029 1.97737 3.24968 0
M  V30 9020 H 820.341 2.40289 4.37107 0
M  V30 9021 H 819.495 0.724087 6.02364 0
M  V30 9022 H 818.234 0.198116 4.87297 0
M  V30 9023 H 817.239 2.50287 4.89527 0
M  V30 9024 H 818.464 3.02479 6.08016 0
M  V30 9025 H 816.41 0.82199 6.5083 0
M  V30 9026 H 816.327 2.42567 7.16029 0
M  V30 9027 H 817.595 1.35436 7.67644 0
M  V30 9028 N 821.824 -1.22873 0.986916 0
M  V30 9029 C 822.772 -2.26597 0.525043 0
M  V30 9030 C 823.766 -1.64079 -0.421252 0
M  V30 9031 O 824.972 -1.77576 -0.294429 0
M  V30 9032 H 821.347 -0.736606 0.151381 0
M  V30 9033 H 823.318 -2.62909 1.41142 0
M  V30 9034 C 822.067 -3.47374 -0.150542 0
M  V30 9035 H 821.39 -3.95737 0.568541 0
M  V30 9036 H 822.83 -4.21739 -0.437256 0
M  V30 9037 C 821.289 -3.07163 -1.38392 0
M  V30 9038 O 821.819 -3.16028 -2.47971 0
M  V30 9039 N 820.025 -2.62009 -1.25697 0
M  V30 9040 H 819.572 -2.54996 -0.365355 0
M  V30 9041 H 819.53 -2.35472 -2.08327 0
M  V30 9042 N 823.302 -0.75937 -1.38099 0
M  V30 9043 C 824.579 -0.243371 -1.9408 0
M  V30 9044 C 824.959 1.25942 -1.69416 0
M  V30 9045 O 824.307 2.03667 -1.03595 0
M  V30 9046 C 824.517 -0.603328 -3.43745 0
M  V30 9047 C 825.865 -0.566195 -4.20808 0
M  V30 9048 O 826.889 -0.541969 -3.52053 0
M  V30 9049 O 825.748 -0.582261 -5.43389 0
M  V30 9050 H 822.842 -0.0526825 -0.82532 0
M  V30 9051 H 825.388 -0.839884 -1.47459 0
M  V30 9052 H 824.16 -1.64098 -3.55229 0
M  V30 9053 H 823.783 0.0208887 -3.97595 0
M  V30 9054 N 824.78 1.49157 -0.508906 0
M  V30 9055 C 826.008 2.06879 0.0293734 0
M  V30 9056 C 826.423 1.36823 1.30095 0
M  V30 9057 O 825.78 0.449034 1.7689 0
M  V30 9058 C 825.831 3.60423 0.278791 0
M  V30 9059 O 825.552 4.27844 -0.942389 0
M  V30 9060 C 827.053 4.34881 0.859825 0
M  V30 9061 H 824.273 0.67057 -0.0240184 0
M  V30 9062 H 826.817 1.91834 -0.708526 0
M  V30 9063 H 824.972 3.75145 0.966689 0
M  V30 9064 H 825.386 5.19671 -0.710097 0
M  V30 9065 H 826.86 5.43161 0.983884 0
M  V30 9066 H 827.337 3.9789 1.85958 0
M  V30 9067 H 827.943 4.24785 0.209152 0
M  V30 9068 N 826.258 0.243083 1.55714 0
M  V30 9069 C 827.188 -0.652336 2.24203 0
M  V30 9070 C 828.169 -1.1843 1.221 0
M  V30 9071 O 829.354 -1.22435 1.50743 0
M  V30 9072 C 826.484 -1.85111 2.93856 0
M  V30 9073 C 825.438 -1.45208 4.02615 0
M  V30 9074 C 824.764 -2.73137 4.59674 0
M  V30 9075 C 826.064 -0.625988 5.18535 0
M  V30 9076 H 827.758 -0.0812504 2.9929 0
M  V30 9077 H 825.304 -0.0376388 1.43951 0
M  V30 9078 H 827.257 -2.48314 3.40468 0
M  V30 9079 H 825.981 -2.44751 2.16251 0
M  V30 9080 H 824.64 -0.843406 3.56766 0
M  V30 9081 H 824.288 -3.30967 3.78774 0
M  V30 9082 H 823.988 -2.47163 5.33089 0
M  V30 9083 H 825.512 -3.37245 5.09017 0
M  V30 9084 H 826.926 -1.16223 5.61396 0
M  V30 9085 H 825.323 -0.462465 5.98315 0
M  V30 9086 H 826.393 0.362652 4.83542 0
M  V30 9087 N 827.736 -1.57571 -0.0300757 0
M  V30 9088 C 828.961 -1.93879 -0.736601 0
M  V30 9089 C 829.386 -0.842998 -1.68152 0
M  V30 9090 O 828.744 0.20135 -1.80178 0
M  V30 9091 C 828.792 -3.29247 -1.47066 0
M  V30 9092 O 827.896 -3.21426 -2.58378 0
M  V30 9093 H 827.237 -0.633735 -0.198181 0
M  V30 9094 H 829.767 -2.04595 0.0141485 0
M  V30 9095 H 829.777 -3.64113 -1.84081 0
M  V30 9096 H 828.452 -4.08565 -0.77764 0
M  V30 9097 H 827.029 -2.98189 -2.23914 0
M  V30 9098 N 829.214 0.302327 -1.54673 0
M  V30 9099 C 830.124 1.39542 -1.88587 0
M  V30 9100 C 831.14 1.55543 -0.779895 0
M  V30 9101 O 832.316 1.70233 -1.07623 0
M  V30 9102 C 829.381 2.7394 -2.12504 0
M  V30 9103 C 828.442 2.66935 -3.3622 0
M  V30 9104 C 827.675 3.94923 -3.58987 0
M  V30 9105 O 827.898 4.94218 -2.84789 0
M  V30 9106 O 826.832 3.96896 -4.52501 0
M  V30 9107 H 830.658 1.13784 -2.81579 0
M  V30 9108 H 828.243 0.49827 -1.40846 0
M  V30 9109 H 830.125 3.5346 -2.29443 0
M  V30 9110 H 828.8 2.99544 -1.22698 0
M  V30 9111 H 827.707 1.85892 -3.24646 0
M  V30 9112 H 829.04 2.46283 -4.26152 0
M  V30 9113 N 830.692 1.47107 0.565454 0
M  V30 9114 C 831.655 1.58535 1.65527 0
M  V30 9115 C 832.655 0.461081 1.54048 0
M  V30 9116 O 833.845 0.725911 1.58355 0
M  V30 9117 C 830.977 1.52204 3.05036 0
M  V30 9118 H 832.17 2.55676 1.56747 0
M  V30 9119 H 829.723 1.35174 0.78471 0
M  V30 9120 H 830.458 0.564071 3.19357 0
M  V30 9121 H 830.243 2.3379 3.14777 0
M  V30 9122 H 831.733 1.63322 3.84338 0
M  V30 9123 N 832.17 -0.811516 1.35101 0
M  V30 9124 C 833.419 -1.56343 1.27435 0
M  V30 9125 C 833.732 -1.95019 -0.150696 0
M  V30 9126 O 834.938 -2.6924 -0.349586 0
M  V30 9127 C 833.394 -2.82124 2.23459 0
M  V30 9128 C 833.002 -2.50706 3.71283 0
M  V30 9129 C 834.746 -3.60137 2.24726 0
M  V30 9130 C 832.653 -3.72748 4.59143 0
M  V30 9131 H 831.583 -0.58682 0.473453 0
M  V30 9132 H 834.234 -0.892465 1.60335 0
M  V30 9133 H 832.616 -3.50905 1.83525 0
M  V30 9134 H 833.79 -1.89962 4.19823 0
M  V30 9135 H 832.105 -1.85947 3.72576 0
M  V30 9136 H 834.702 -4.50775 2.87587 0
M  V30 9137 H 835.045 -3.97101 1.24965 0
M  V30 9138 H 835.578 -2.98311 2.63164 0
M  V30 9139 H 832.317 -3.40896 5.59884 0
M  V30 9140 H 831.837 -4.32735 4.15332 0
M  V30 9141 H 833.516 -4.40033 4.74321 0
M  V30 9142 N 833.648 -1.19017 -1.03309 0
M  V30 9143 C 834.873 -1.01598 -1.80811 0
M  V30 9144 C 835.298 0.430773 -1.83101 0
M  V30 9145 O 834.656 1.30946 -1.25391 0
M  V30 9146 C 834.704 -1.5845 -3.23923 0
M  V30 9147 O 833.808 -0.810972 -4.04348 0
M  V30 9148 H 833.149 -0.359398 -0.558327 0
M  V30 9149 H 835.679 -1.57945 -1.30055 0
M  V30 9150 H 835.689 -1.61486 -3.74682 0
M  V30 9151 H 834.364 -2.63752 -3.21571 0
M  V30 9152 H 832.941 -0.85353 -3.63 0
M  V30 9153 N 835.127 1.22348 -0.993418 0
M  V30 9154 C 836.376 1.90422 -0.665019 0
M  V30 9155 C 836.689 1.78199 0.806512 0
M  V30 9156 O 837.895 2.41193 1.24652 0
M  V30 9157 C 836.351 3.41403 -1.13893 0
M  V30 9158 C 835.959 3.62262 -2.63572 0
M  V30 9159 C 837.703 4.15175 -0.884884 0
M  V30 9160 C 835.61 5.06947 -3.04564 0
M  V30 9161 H 834.54 0.713073 -0.245037 0
M  V30 9162 H 837.191 1.3856 -1.20305 0
M  V30 9163 H 835.573 3.9245 -0.529027 0
M  V30 9164 H 836.747 3.21705 -3.29913 0
M  V30 9165 H 835.062 3.01824 -2.86865 0
M  V30 9166 H 837.659 5.21813 -1.16684 0
M  V30 9167 H 838.002 4.15915 0.178982 0
M  V30 9168 H 838.535 3.70157 -1.45701 0
M  V30 9169 H 835.274 5.11346 -4.10128 0
M  V30 9170 H 834.794 5.48404 -2.42927 0
M  V30 9171 H 836.473 5.75374 -2.95894 0
M  V30 9172 N 836.605 0.766683 1.37694 0
M  V30 9173 C 838.021 0.445739 1.53249 0
M  V30 9174 C 838.221 -1.03935 1.72626 0
M  V30 9175 O 837.277 -1.82525 1.74473 0
M  V30 9176 C 838.59 1.2564 2.73194 0
M  V30 9177 C 840.138 1.24779 2.87053 0
M  V30 9178 C 840.613 2.04169 4.09974 0
M  V30 9179 N 842.104 2.01497 4.17077 0
M  V30 9180 C 842.839 2.5971 5.11212 0
M  V30 9181 N 842.335 3.26691 6.10938 0
M  V30 9182 N 844.128 2.49568 5.03659 0
M  V30 9183 H 836.279 1.72899 1.23368 0
M  V30 9184 H 838.542 0.733701 0.600322 0
M  V30 9185 H 838.248 2.30859 2.65324 0
M  V30 9186 H 838.122 0.882133 3.6674 0
M  V30 9187 H 840.509 0.203603 2.94397 0
M  V30 9188 H 840.59 1.66166 1.9448 0
M  V30 9189 H 840.234 3.08606 4.03392 0
M  V30 9190 H 840.164 1.60167 5.01651 0
M  V30 9191 H 842.655 1.52728 3.45662 0
M  V30 9192 H 842.968 3.68497 6.79286 0
M  V30 9193 H 841.313 3.30789 6.11231 0
M  V30 9194 H 844.504 1.96859 4.24693 0
M  V30 9195 H 844.677 2.95231 5.76839 0
M  V30 9196 N 838.083 -1.48885 0.516809 0
M  V30 9197 C 839.36 -1.95412 -0.0858293 0
M  V30 9198 C 839.74 -1.45875 -1.5259 0
M  V30 9199 O 839.088 -0.679415 -2.18166 0
M  V30 9200 C 839.298 -3.48995 0.0178194 0
M  V30 9201 C 840.646 -4.24342 -0.14813 0
M  V30 9202 O 841.67 -3.56155 -0.0566125 0
M  V30 9203 O 840.529 -5.45454 -0.338035 0
M  V30 9204 H 837.623 -0.822455 -0.0865884 0
M  V30 9205 H 840.169 -1.59464 0.580472 0
M  V30 9206 H 838.941 -3.77732 1.02147 0
M  V30 9207 H 838.564 -3.91604 -0.687924 0
M  V30 9208 N 839.561 -0.251338 -1.55583 0
M  V30 9209 C 840.808 0.372169 -1.99051 0
M  V30 9210 C 841.136 1.57623 -1.13953 0
M  V30 9211 O 840.391 1.94762 -0.191398 0
M  V30 9212 C 840.69 0.821186 -3.47838 0
M  V30 9213 C 840.356 -0.275608 -4.50057 0
M  V30 9214 C 839.018 -0.57683 -4.7773 0
M  V30 9215 C 841.37 -1.01585 -5.11204 0
M  V30 9216 C 838.698 -1.62229 -5.63825 0
M  V30 9217 C 841.05 -2.05087 -5.98433 0
M  V30 9218 C 839.714 -2.35869 -6.24437 0
M  V30 9219 H 838.984 0.136186 -0.728378 0
M  V30 9220 H 841.631 -0.360089 -1.88084 0
M  V30 9221 H 839.936 1.63272 -3.56159 0
M  V30 9222 H 841.633 1.31396 -3.78861 0
M  V30 9223 H 838.223 -0.030697 -4.28589 0
M  V30 9224 H 842.407 -0.79639 -4.89869 0
M  V30 9225 H 837.663 -1.86607 -5.82226 0
M  V30 9226 H 841.837 -2.62934 -6.44855 0
M  V30 9227 H 839.464 -3.17017 -6.90944 0
M  V30 9228 N 841.039 1.57585 0.0217189 0
M  V30 9229 C 841.969 2.10073 1.01939 0
M  V30 9230 C 842.95 1.0049 1.37243 0
M  V30 9231 O 844.135 1.28055 1.45999 0
M  V30 9232 C 841.265 2.58618 2.31806 0
M  V30 9233 C 840.219 3.72531 2.10724 0
M  V30 9234 C 839.545 4.07309 3.46415 0
M  V30 9235 C 840.845 5.00672 1.48743 0
M  V30 9236 H 842.539 2.9368 0.582432 0
M  V30 9237 H 840.085 1.41277 0.278715 0
M  V30 9238 H 842.038 2.9396 3.01936 0
M  V30 9239 H 840.762 1.72104 2.77575 0
M  V30 9240 H 839.421 3.37549 1.43025 0
M  V30 9241 H 839.069 3.17851 3.89846 0
M  V30 9242 H 838.769 4.84042 3.33132 0
M  V30 9243 H 840.293 4.45192 4.17895 0
M  V30 9244 H 841.707 5.33925 2.088 0
M  V30 9245 H 840.104 5.82065 1.46013 0
M  V30 9246 H 841.174 4.82769 0.45408 0
M  V30 9247 N 842.517 -0.29412 1.54831 0
M  V30 9248 C 843.763 -1.02999 1.74697 0
M  V30 9249 C 844.096 -1.86687 0.534949 0
M  V30 9250 O 843.371 -1.88789 -0.467863 0
M  V30 9251 C 843.654 -1.93024 3.03996 0
M  V30 9252 C 843.507 -1.1247 4.35512 0
M  V30 9253 C 844.826 -2.92085 3.29203 0
M  V30 9254 H 841.945 -0.373039 0.635618 0
M  V30 9255 H 844.587 -0.304065 1.87551 0
M  V30 9256 H 842.737 -2.5492 2.93169 0
M  V30 9257 H 844.409 -0.528067 4.58268 0
M  V30 9258 H 842.652 -0.427574 4.31688 0
M  V30 9259 H 843.323 -1.78728 5.22265 0
M  V30 9260 H 845.799 -2.40319 3.39685 0
M  V30 9261 H 844.675 -3.52234 4.20978 0
M  V30 9262 H 844.936 -3.66107 2.47827 0
M  V30 9263 N 843.995 -1.47404 -0.557645 0
M  V30 9264 C 845.223 -1.57622 -1.34026 0
M  V30 9265 C 845.638 -0.226256 -1.87439 0
M  V30 9266 O 844.995 0.78043 -1.64971 0
M  V30 9267 C 845.046 -2.60111 -2.51047 0
M  V30 9268 O 844.767 -3.89866 -1.99841 0
M  V30 9269 C 846.268 -2.80508 -3.43264 0
M  V30 9270 H 843.488 -0.532271 -0.40857 0
M  V30 9271 H 846.032 -1.93019 -0.675555 0
M  V30 9272 H 844.187 -2.27648 -3.13457 0
M  V30 9273 H 844.601 -4.45864 -2.76234 0
M  V30 9274 H 846.075 -3.56084 -4.21792 0
M  V30 9275 H 846.552 -1.88314 -3.9678 0
M  V30 9276 H 847.158 -3.14166 -2.86671 0
M  V30 9277 N 845.473 0.80434 -1.35529 0
M  V30 9278 C 846.403 1.93086 -1.31301 0
M  V30 9279 C 847.384 1.69068 -0.187044 0
M  V30 9280 O 848.569 1.90399 -0.382359 0
M  V30 9281 C 845.699 3.29867 -1.0865 0
M  V30 9282 C 844.653 3.68373 -2.17911 0
M  V30 9283 C 843.979 5.0334 -1.80423 0
M  V30 9284 C 845.279 3.78516 -3.59893 0
M  V30 9285 H 846.973 1.96882 -2.25561 0
M  V30 9286 H 844.519 0.945841 -1.08581 0
M  V30 9287 H 846.472 4.08281 -1.04331 0
M  V30 9288 H 845.196 3.2642 -0.108359 0
M  V30 9289 H 843.855 2.92247 -2.21331 0
M  V30 9290 H 843.503 4.96399 -0.812213 0
M  V30 9291 H 843.203 5.30074 -2.53565 0
M  V30 9292 H 844.727 5.84191 -1.77633 0
M  V30 9293 H 846.141 4.47155 -3.58783 0
M  V30 9294 H 844.538 4.16721 -4.31814 0
M  V30 9295 H 845.608 2.8001 -3.95882 0
M  V30 9296 N 846.951 1.19563 1.02676 0
M  V30 9297 C 847.899 0.931942 2.13114 0
M  V30 9298 C 848.893 -0.113007 1.69023 0
M  V30 9299 O 850.099 0.0364298 1.79963 0
M  V30 9300 H 846.474 0.283981 0.696318 0
M  V30 9301 H 848.445 1.86991 2.32545 0
M  V30 9302 C 847.194 0.489461 3.44238 0
M  V30 9303 H 846.517 1.28508 3.78584 0
M  V30 9304 H 847.957 0.34408 4.22602 0
M  V30 9305 C 846.416 -0.796761 3.27343 0
M  V30 9306 O 846.946 -1.85767 3.56165 0
M  V30 9307 N 845.152 -0.754824 2.80626 0
M  V30 9308 H 844.699 0.108778 2.5737 0
M  V30 9309 H 844.657 -1.6158 2.69702 0
M  V30 9310 N 848.429 -1.21819 0.999893 0
M  V30 9311 C 849.361 -2.23356 0.514256 0
M  V30 9312 C 850.374 -1.5795 -0.394413 0
M  V30 9313 O 851.563 -1.77427 -0.195428 0
M  V30 9314 C 848.663 -3.37797 -0.273207 0
M  V30 9315 C 847.836 -4.32791 0.633293 0
M  V30 9316 C 846.895 -5.26098 -0.103673 0
M  V30 9317 O 845.921 -5.66881 0.513269 0
M  V30 9318 N 847.123 -5.63764 -1.38383 0
M  V30 9319 H 849.888 -2.65653 1.3874 0
M  V30 9320 H 847.449 -1.3619 0.875431 0
M  V30 9321 H 849.441 -3.97209 -0.775053 0
M  V30 9322 H 848.011 -2.94527 -1.0475 0
M  V30 9323 H 847.231 -3.71595 1.31571 0
M  V30 9324 H 848.519 -4.93196 1.25039 0
M  V30 9325 H 847.917 -5.32614 -1.90627 0
M  V30 9326 H 846.474 -6.25562 -1.83073 0
M  V30 9327 N 849.908 -0.773975 -1.37286 0
M  V30 9328 C 851.319 -0.404433 -1.82267 0
M  V30 9329 C 851.67 1.06971 -1.64474 0
M  V30 9330 O 850.795 1.82867 -1.15708 0
M  V30 9331 C 851.39 -0.727298 -3.30902 0
M  V30 9332 C 849.949 -0.410784 -3.74152 0
M  V30 9333 C 849.096 -0.969983 -2.59782 0
M  V30 9334 H 852.047 -0.968437 -1.25726 0
M  V30 9335 H 852.068 -0.0127575 -3.80498 0
M  V30 9336 H 851.58 -1.80026 -3.4382 0
M  V30 9337 H 849.681 0.65477 -3.66802 0
M  V30 9338 H 849.794 -0.920592 -4.70172 0
M  V30 9339 H 848.158 -0.394094 -2.51633 0
M  V30 9340 H 848.941 -2.04839 -2.75492 0
M  V30 9341 N 851.386 1.48609 -0.524698 0
M  V30 9342 C 852.318 2.27508 0.278 0
M  V30 9343 C 853.331 1.35042 0.909258 0
M  V30 9344 O 854.52 1.60136 0.788592 0
M  V30 9345 C 851.62 3.08247 1.40843 0
M  V30 9346 C 850.793 4.28455 0.880083 0
M  V30 9347 C 849.852 4.91048 1.891 0
M  V30 9348 O 848.878 5.5042 1.45005 0
M  V30 9349 N 850.08 4.82816 3.22288 0
M  V30 9350 H 852.845 2.97037 -0.398642 0
M  V30 9351 H 850.406 1.57876 -0.358698 0
M  V30 9352 H 852.398 3.46992 2.08276 0
M  V30 9353 H 850.968 2.41173 1.98883 0
M  V30 9354 H 850.188 3.94189 0.0299228 0
M  V30 9355 H 851.476 5.06279 0.505881 0
M  V30 9356 H 850.874 4.3572 3.60783 0
M  V30 9357 H 849.431 5.25676 3.85368 0
M  V30 9358 N 852.864 0.259585 1.55447 0
M  V30 9359 C 853.827 -0.621359 2.20617 0
M  V30 9360 C 854.827 -1.09317 1.17925 0
M  V30 9361 O 856.017 -0.995842 1.42929 0
M  V30 9362 C 853.149 -1.85546 2.85982 0
M  V30 9363 H 854.342 -0.0525833 2.99854 0
M  V30 9364 H 851.895 0.0101055 1.56297 0
M  V30 9365 H 852.63 -2.46515 2.10715 0
M  V30 9366 H 852.415 -1.52523 3.61219 0
M  V30 9367 H 853.905 -2.48227 3.35817 0
M  V30 9368 N 854.342 -1.57594 -0.0133615 0
M  V30 9369 C 855.758 -1.5527 -0.369255 0
M  V30 9370 C 855.958 -0.987751 -1.7563 0
M  V30 9371 O 855.014 -0.615683 -2.44879 0
M  V30 9372 C 856.327 -2.99602 -0.25672 0
M  V30 9373 C 857.875 -3.11227 -0.332647 0
M  V30 9374 C 858.35 -4.57321 -0.249387 0
M  V30 9375 N 859.841 -4.62177 -0.3077 0
M  V30 9376 C 860.576 -5.72781 -0.26641 0
M  V30 9377 N 860.072 -6.92575 -0.176494 0
M  V30 9378 N 861.865 -5.61204 -0.317295 0
M  V30 9379 H 854.016 -1.92662 0.894154 0
M  V30 9380 H 856.279 -0.884352 0.341505 0
M  V30 9381 H 855.985 -3.44723 0.697072 0
M  V30 9382 H 855.859 -3.6246 -1.04415 0
M  V30 9383 H 858.246 -2.66045 -1.27688 0
M  V30 9384 H 858.327 -2.51171 0.484412 0
M  V30 9385 H 857.971 -5.03174 0.691242 0
M  V30 9386 H 857.901 -5.15306 -1.08476 0
M  V30 9387 H 860.392 -3.75994 -0.379069 0
M  V30 9388 H 860.705 -7.72653 -0.150518 0
M  V30 9389 H 859.05 -6.94854 -0.142314 0
M  V30 9390 H 862.241 -4.66509 -0.385643 0
M  V30 9391 H 862.414 -6.47388 -0.28165 0
M  V30 9392 N 855.82 0.285905 -1.54985 0
M  V30 9393 C 856.752 1.37505 -1.83371 0
M  V30 9394 C 857.765 1.46138 -0.717454 0
M  V30 9395 O 858.954 1.48186 -0.995142 0
M  V30 9396 C 856.054 2.7575 -1.97016 0
M  V30 9397 C 855.227 2.89866 -3.27561 0
M  V30 9398 C 854.286 4.08704 -3.31433 0
M  V30 9399 O 853.312 4.00073 -4.04883 0
M  V30 9400 N 854.514 5.20062 -2.57907 0
M  V30 9401 H 857.279 1.13505 -2.77375 0
M  V30 9402 H 854.84 0.476006 -1.54744 0
M  V30 9403 H 856.832 3.5352 -1.96991 0
M  V30 9404 H 855.402 2.9263 -1.09938 0
M  V30 9405 H 854.622 1.99085 -3.40234 0
M  V30 9406 H 855.91 2.96219 -4.13681 0
M  V30 9407 H 855.308 5.29958 -1.97891 0
M  V30 9408 H 853.865 5.96111 -2.63619 0
M  V30 9409 N 857.298 1.47698 0.54982 0
M  V30 9410 C 858.208 1.63386 1.68351 0
M  V30 9411 C 859.224 0.516583 1.66155 0
M  V30 9412 O 860.4 0.785088 1.85468 0
M  V30 9413 C 857.465 1.6513 3.04849 0
M  V30 9414 C 856.526 2.88338 3.18056 0
M  V30 9415 C 855.759 2.8999 4.48042 0
M  V30 9416 O 855.982 2.00633 5.3395 0
M  V30 9417 O 854.916 3.81938 4.65196 0
M  V30 9418 H 858.742 2.59329 1.58057 0
M  V30 9419 H 856.327 1.30869 0.72067 0
M  V30 9420 H 858.209 1.68913 3.86065 0
M  V30 9421 H 856.884 0.723555 3.1551 0
M  V30 9422 H 855.791 2.90097 2.36209 0
M  V30 9423 H 857.124 3.80431 3.12302 0
M  V30 9424 N 858.776 -0.797141 1.35954 0
M  V30 9425 C 859.686 -1.94088 1.31784 0
M  V30 9426 C 860.702 -1.72588 0.221227 0
M  V30 9427 O 861.878 -1.96256 0.452255 0
M  V30 9428 C 858.943 -3.28828 1.09878 0
M  V30 9429 C 858.004 -3.63158 2.28942 0
M  V30 9430 C 857.237 -4.91469 2.08072 0
M  V30 9431 O 857.46 -5.60616 1.05196 0
M  V30 9432 O 856.394 -5.24277 2.95664 0
M  V30 9433 H 860.22 -2.00554 2.28061 0
M  V30 9434 H 857.805 -0.936288 1.16422 0
M  V30 9435 H 859.687 -4.09473 0.995485 0
M  V30 9436 H 858.362 -3.23271 0.16659 0
M  V30 9437 H 857.269 -2.82851 2.44839 0
M  V30 9438 H 858.602 -3.7343 3.20641 0
M  V30 9439 N 860.254 -1.20106 -1.0204 0
M  V30 9440 C 861.186 -0.904236 -2.10609 0
M  V30 9441 C 862.199 0.106487 -1.62451 0
M  V30 9442 O 863.388 -0.124035 -1.78069 0
M  V30 9443 C 860.488 -0.333423 -3.37256 0
M  V30 9444 C 859.661 -1.39476 -4.14566 0
M  V30 9445 C 858.72 -0.835961 -5.19517 0
M  V30 9446 O 857.746 -1.51573 -5.48648 0
M  V30 9447 N 858.948 0.356531 -5.79404 0
M  V30 9448 H 861.713 -1.8388 -2.36661 0
M  V30 9449 H 859.274 -1.10422 -1.184 0
M  V30 9450 H 861.266 0.0544571 -4.04663 0
M  V30 9451 H 859.836 0.505608 -3.08484 0
M  V30 9452 H 859.056 -1.95714 -3.42184 0
M  V30 9453 H 860.344 -2.10967 -4.63001 0
M  V30 9454 H 859.742 0.926143 -5.58067 0
M  V30 9455 H 858.299 0.686093 -6.48179 0
M  V30 9456 N 861.732 1.21287 -1.00634 0
M  V30 9457 C 862.978 1.90671 -0.690822 0
M  V30 9458 C 863.311 1.77996 0.776592 0
M  V30 9459 O 862.586 1.15748 1.5631 0
M  V30 9460 C 862.869 3.42426 -1.11428 0
M  V30 9461 C 862.722 3.64086 -2.64124 0
M  V30 9462 C 864.041 4.34851 -0.677686 0
M  V30 9463 H 861.16 0.692419 -0.252439 0
M  V30 9464 H 863.802 1.42893 -1.25226 0
M  V30 9465 H 861.952 3.83249 -0.636586 0
M  V30 9466 H 863.624 3.32582 -3.19667 0
M  V30 9467 H 861.867 3.07906 -3.05576 0
M  V30 9468 H 862.538 4.7042 -2.88806 0
M  V30 9469 H 865.014 4.01619 -1.0882 0
M  V30 9470 H 863.89 5.39675 -1.00213 0
M  V30 9471 H 864.151 4.4009 0.421125 0
M  V30 9472 N 863.21 0.781244 1.36873 0
M  V30 9473 C 864.626 0.461968 1.52768 0
M  V30 9474 C 864.826 -1.02099 1.73719 0
M  V30 9475 O 863.882 -1.80665 1.76399 0
M  V30 9476 C 865.195 1.2853 2.71846 0
M  V30 9477 C 866.743 1.27817 2.85713 0
M  V30 9478 C 867.218 2.08506 4.07786 0
M  V30 9479 N 868.709 2.05909 4.14917 0
M  V30 9480 C 869.444 2.65118 5.08429 0
M  V30 9481 N 868.94 3.33152 6.07438 0
M  V30 9482 N 870.733 2.54896 5.00983 0
M  V30 9483 H 862.884 1.74198 1.21527 0
M  V30 9484 H 865.147 0.740027 0.592506 0
M  V30 9485 H 864.853 2.3366 2.62861 0
M  V30 9486 H 864.727 0.920981 3.65784 0
M  V30 9487 H 867.114 0.234817 2.94164 0
M  V30 9488 H 867.195 1.68219 1.92707 0
M  V30 9489 H 866.839 3.12867 4.00096 0
M  V30 9490 H 866.769 1.65479 4.99924 0
M  V30 9491 H 869.26 1.56386 3.44023 0
M  V30 9492 H 869.573 3.75681 6.75339 0
M  V30 9493 H 867.918 3.37253 6.07689 0
M  V30 9494 H 871.109 2.01352 4.22581 0
M  V30 9495 H 871.282 3.01332 5.73675 0
M  V30 9496 N 864.689 -1.48329 0.532571 0
M  V30 9497 C 865.935 -2.028 -0.000583219 0
M  V30 9498 C 866.268 -1.40858 -1.33688 0
M  V30 9499 O 865.543 -0.555261 -1.86406 0
M  V30 9500 C 865.826 -3.59901 -0.119846 0
M  V30 9501 C 865.679 -4.32318 1.2418 0
M  V30 9502 C 866.998 -4.31904 -0.845372 0
M  V30 9503 H 864.117 -0.736999 0.00126205 0
M  V30 9504 H 866.759 -1.77024 0.690102 0
M  V30 9505 H 864.909 -3.81993 -0.708092 0
M  V30 9506 H 866.581 -4.21637 1.87136 0
M  V30 9507 H 864.824 -3.93635 1.82301 0
M  V30 9508 H 865.495 -5.40697 1.11132 0
M  V30 9509 H 867.971 -4.14658 -0.346159 0
M  V30 9510 H 866.847 -5.41509 -0.897723 0
M  V30 9511 H 867.108 -3.99369 -1.89622 0
M  V30 9512 N 866.167 -0.267825 -1.55308 0
M  V30 9513 C 867.413 0.351556 -1.9973 0
M  V30 9514 C 867.746 1.56049 -1.15596 0
M  V30 9515 O 867.021 1.93203 -0.224274 0
M  V30 9516 C 867.304 0.74091 -3.52395 0
M  V30 9517 C 867.157 -0.474861 -4.47286 0
M  V30 9518 C 868.476 1.5801 -4.10756 0
M  V30 9519 H 865.595 0.126308 -0.726096 0
M  V30 9520 H 868.237 -0.373316 -1.86296 0
M  V30 9521 H 866.387 1.35851 -3.63973 0
M  V30 9522 H 868.059 -1.1134 -4.47662 0
M  V30 9523 H 866.302 -1.11425 -4.19246 0
M  V30 9524 H 866.973 -0.158782 -5.51772 0
M  V30 9525 H 869.449 1.05857 -4.0241 0
M  V30 9526 H 868.325 1.82135 -5.17801 0
M  V30 9527 H 868.586 2.55878 -3.60526 0
M  V30 9528 N 867.645 1.57599 0.00500368 0
M  V30 9529 C 869.061 1.55463 0.361015 0
M  V30 9530 C 869.261 0.997051 1.75103 0
M  V30 9531 O 868.317 0.628661 2.44549 0
M  V30 9532 C 869.63 2.99734 0.240828 0
M  V30 9533 C 871.178 3.11399 0.316138 0
M  V30 9534 C 871.653 4.57446 0.22513 0
M  V30 9535 N 873.144 4.62334 0.283186 0
M  V30 9536 C 873.879 5.72914 0.23603 0
M  V30 9537 N 873.375 6.92659 0.139762 0
M  V30 9538 N 875.168 5.61364 0.287529 0
M  V30 9539 H 867.319 1.92185 -0.904359 0
M  V30 9540 H 869.582 0.882529 -0.34619 0
M  V30 9541 H 869.288 3.44348 -0.715343 0
M  V30 9542 H 869.162 3.63009 1.02491 0
M  V30 9543 H 871.549 2.66718 1.26275 0
M  V30 9544 H 871.63 2.50911 -0.497725 0
M  V30 9545 H 871.274 5.02801 -0.717917 0
M  V30 9546 H 871.204 5.15874 1.05742 0
M  V30 9547 H 873.695 3.7619 0.359123 0
M  V30 9548 H 874.008 7.72722 0.10954 0
M  V30 9549 H 872.353 6.9492 0.105462 0
M  V30 9550 H 875.544 4.66707 0.360897 0
M  V30 9551 H 875.717 6.47528 0.247313 0
M  V30 9552 N 869.123 -0.277682 1.55134 0
M  V30 9553 C 870.055 -1.36531 1.84098 0
M  V30 9554 C 871.068 -1.45756 0.725194 0
M  V30 9555 O 872.257 -1.47656 1.00299 0
M  V30 9556 C 869.357 -2.74701 1.98476 0
M  V30 9557 C 868.53 -2.88125 3.29094 0
M  V30 9558 C 867.589 -4.0694 3.33596 0
M  V30 9559 O 866.615 -3.9792 4.06999 0
M  V30 9560 N 867.817 -5.18687 2.60661 0
M  V30 9561 H 870.582 -1.12032 2.77973 0
M  V30 9562 H 868.143 -0.467793 1.54995 0
M  V30 9563 H 870.135 -3.52471 1.98863 0
M  V30 9564 H 868.705 -2.92043 1.11488 0
M  V30 9565 H 867.925 -1.97277 3.41285 0
M  V30 9566 H 869.213 -2.94021 4.15246 0
M  V30 9567 H 868.611 -5.28901 2.00699 0
M  V30 9568 H 867.168 -5.94705 2.66776 0
M  V30 9569 N 870.601 -1.47988 -0.541979 0
M  V30 9570 C 871.848 -1.55393 -1.29843 0
M  V30 9571 C 872.176 -0.222668 -1.93221 0
M  V30 9572 O 871.431 0.785936 -1.79225 0
M  V30 9573 C 871.73 -2.63189 -2.41798 0
M  V30 9574 C 871.396 -4.05999 -1.96151 0
M  V30 9575 C 870.058 -4.44872 -1.83419 0
M  V30 9576 C 872.41 -4.95545 -1.61507 0
M  V30 9577 C 869.738 -5.71108 -1.34361 0
M  V30 9578 C 872.09 -6.22259 -1.13915 0
M  V30 9579 C 870.754 -6.59998 -0.997911 0
M  V30 9580 H 870.024 -0.568623 -0.47513 0
M  V30 9581 H 872.671 -1.81654 -0.606142 0
M  V30 9582 H 870.976 -2.30743 -3.16647 0
M  V30 9583 H 872.673 -2.66138 -2.99953 0
M  V30 9584 H 869.263 -3.75294 -2.07008 0
M  V30 9585 H 873.447 -4.662 -1.70209 0
M  V30 9586 H 868.703 -5.99083 -1.22103 0
M  V30 9587 H 872.877 -6.91048 -0.861755 0
M  V30 9588 H 870.504 -7.57704 -0.615561 0
M  V30 9589 N 872.079 0.78992 -1.36375 0
M  V30 9590 C 873.029 1.89227 -1.27189 0
M  V30 9591 C 874.013 1.60067 -0.163498 0
M  V30 9592 O 875.205 1.72507 -0.396262 0
M  V30 9593 C 872.334 3.26431 -1.06292 0
M  V30 9594 C 871.42 3.61602 -2.21596 0
M  V30 9595 N 871.811 3.68086 -3.4691 0
M  V30 9596 C 870.109 3.9166 -2.1335 0
M  V30 9597 C 870.81 3.99481 -4.22835 0
M  V30 9598 N 869.786 4.14438 -3.5177 0
M  V30 9599 H 873.588 1.92465 -2.22113 0
M  V30 9600 H 871.102 0.985414 -1.29087 0
M  V30 9601 H 873.099 4.05267 -0.97798 0
M  V30 9602 H 871.759 3.24468 -0.122676 0
M  V30 9603 H 872.77 3.50743 -3.81051 0
M  V30 9604 H 869.447 3.97626 -1.27279 0
M  V30 9605 H 870.837 4.11425 -5.31205 0
M  V30 9606 N 873.557 1.20646 1.01402 0
M  V30 9607 C 874.804 1.01819 1.7504 0
M  V30 9608 C 875.132 -0.449386 1.89237 0
M  V30 9609 O 874.387 -1.34985 1.41695 0
M  V30 9610 C 874.686 1.64991 3.17037 0
M  V30 9611 C 874.352 3.14808 3.22811 0
M  V30 9612 C 873.014 3.55692 3.24094 0
M  V30 9613 C 875.366 4.108 3.2077 0
M  V30 9614 C 872.694 4.9109 3.2101 0
M  V30 9615 C 875.046 5.46147 3.19227 0
M  V30 9616 C 873.71 5.86441 3.18815 0
M  V30 9617 H 872.98 0.372582 0.640518 0
M  V30 9618 H 875.627 1.50108 1.18911 0
M  V30 9619 H 873.932 1.08971 3.76341 0
M  V30 9620 H 875.629 1.47937 3.72714 0
M  V30 9621 H 872.219 2.8224 3.2255 0
M  V30 9622 H 876.403 3.80246 3.18946 0
M  V30 9623 H 871.659 5.21569 3.19023 0
M  V30 9624 H 875.833 6.20272 3.166 0
M  V30 9625 H 873.46 6.91328 3.16179 0
M  V30 9626 N 875.035 -1.20752 1.01276 0
M  V30 9627 C 875.985 -2.21252 0.550602 0
M  V30 9628 C 876.969 -1.56052 -0.391985 0
M  V30 9629 O 878.161 -1.75682 -0.215575 0
M  V30 9630 C 875.29 -3.43112 -0.113601 0
M  V30 9631 C 874.376 -4.15485 0.850465 0
M  V30 9632 N 874.767 -4.64301 2.00643 0
M  V30 9633 C 873.065 -4.40932 0.670476 0
M  V30 9634 C 873.766 -5.197 2.61317 0
M  V30 9635 N 872.742 -5.09534 1.8941 0
M  V30 9636 H 876.544 -2.56657 1.43194 0
M  V30 9637 H 874.058 -1.36646 0.877597 0
M  V30 9638 H 876.055 -4.1433 -0.462211 0
M  V30 9639 H 874.715 -3.09213 -0.990825 0
M  V30 9640 H 875.726 -4.59637 2.38651 0
M  V30 9641 H 872.403 -4.17197 -0.159016 0
M  V30 9642 H 873.793 -5.67873 3.59123 0
M  V30 9643 N 876.513 -0.788492 -1.36457 0
M  V30 9644 C 877.761 -0.359749 -1.98872 0
M  V30 9645 C 878.082 1.07197 -1.62892 0
M  V30 9646 O 877.352 1.73875 -0.902463 0
M  V30 9647 H 875.932 -0.130029 -0.735596 0
M  V30 9648 H 878.594 -1.01033 -1.66668 0
M  V30 9649 H 877.69 -0.450835 -3.08827 0
M  V30 9650 N 877.991 1.48044 -0.54043 0
M  V30 9651 C 879.237 2.03392 -0.0183377 0
M  V30 9652 C 879.592 1.4091 1.31004 0
M  V30 9653 O 878.885 0.549375 1.83555 0
M  V30 9654 C 879.079 3.57085 0.150008 0
M  V30 9655 C 878.908 4.34468 -1.1605 0
M  V30 9656 C 877.678 4.75008 -1.72324 0
M  V30 9657 C 879.876 4.70641 -2.07368 0
M  V30 9658 N 877.858 5.36968 -2.97555 0
M  V30 9659 C 879.229 5.32728 -3.17176 0
M  V30 9660 C 881.284 4.52571 -2.07567 0
M  V30 9661 C 879.987 5.78654 -4.27261 0
M  V30 9662 C 882.013 4.99485 -3.16653 0
M  V30 9663 C 881.375 5.61606 -4.2518 0
M  V30 9664 H 877.474 0.780497 -0.0484652 0
M  V30 9665 H 880.058 1.80738 -0.724018 0
M  V30 9666 H 878.229 3.79542 0.824787 0
M  V30 9667 H 879.961 3.99071 0.672649 0
M  V30 9668 H 876.716 4.5644 -1.26331 0
M  V30 9669 H 877.14 5.72505 -3.61341 0
M  V30 9670 H 881.782 4.03914 -1.24952 0
M  V30 9671 H 879.5 6.26311 -5.10647 0
M  V30 9672 H 883.086 4.87286 -3.17874 0
M  V30 9673 H 881.966 5.97248 -5.08197 0
M  V30 9674 N 879.47 0.276058 1.55163 0
M  V30 9675 C 880.881 -0.221516 1.85381 0
M  V30 9676 C 881.232 -1.55372 1.19808 0
M  V30 9677 O 880.357 -2.10855 0.486742 0
M  V30 9678 C 880.952 -0.408706 3.36326 0
M  V30 9679 C 879.511 -0.850512 3.66665 0
M  V30 9680 C 878.658 0.055656 2.77244 0
M  V30 9681 H 881.609 0.497819 1.5069 0
M  V30 9682 H 881.63 -1.24711 3.59482 0
M  V30 9683 H 881.142 0.561052 3.84023 0
M  V30 9684 H 879.243 -1.83171 3.24468 0
M  V30 9685 H 879.356 -0.687181 4.74146 0
M  V30 9686 H 877.72 -0.460819 2.50497 0
M  V30 9687 H 878.503 1.02131 3.27756 0
M  V30 9688 N 880.948 -1.576 0.00335426 0
M  V30 9689 C 881.858 -2.12067 -1.00322 0
M  V30 9690 C 882.874 -1.06672 -1.37467 0
M  V30 9691 O 884.05 -1.38592 -1.46131 0
M  V30 9692 C 881.115 -2.61593 -2.27531 0
M  V30 9693 C 880.176 -3.81602 -1.96668 0
M  V30 9694 C 879.409 -4.28756 -3.17811 0
M  V30 9695 O 879.632 -3.75222 -4.2961 0
M  V30 9696 O 878.566 -5.20877 -3.01613 0
M  V30 9697 H 882.392 -2.98299 -0.570199 0
M  V30 9698 H 879.977 -1.47835 -0.215682 0
M  V30 9699 H 881.859 -2.93631 -3.02256 0
M  V30 9700 H 880.534 -1.78457 -2.70065 0
M  V30 9701 H 879.441 -3.54531 -1.19408 0
M  V30 9702 H 880.774 -4.65822 -1.58968 0
M  V30 9703 N 882.426 0.269451 -1.5528 0
M  V30 9704 C 883.675 0.998381 -1.75258 0
M  V30 9705 C 883.988 1.87321 -0.563034 0
M  V30 9706 O 885.194 2.63719 -0.645313 0
M  V30 9707 C 883.65 1.82505 -3.10193 0
M  V30 9708 C 883.258 0.99871 -4.36726 0
M  V30 9709 C 885.002 2.54807 -3.3952 0
M  V30 9710 C 882.909 1.81997 -5.627 0
M  V30 9711 H 881.839 0.376488 -0.653278 0
M  V30 9712 H 884.49 0.253909 -1.81735 0
M  V30 9713 H 882.872 2.61061 -2.97763 0
M  V30 9714 H 884.046 0.257064 -4.60082 0
M  V30 9715 H 882.361 0.390074 -4.14569 0
M  V30 9716 H 884.958 3.16662 -4.30847 0
M  V30 9717 H 885.301 3.25273 -2.59813 0
M  V30 9718 H 885.834 1.83278 -3.53064 0
M  V30 9719 H 882.573 1.15945 -6.45164 0
M  V30 9720 H 882.093 2.53749 -5.43481 0
M  V30 9721 H 883.772 2.39274 -6.0113 0
M  V30 9722 N 883.904 1.48273 0.534124 0
M  V30 9723 C 885.152 1.55771 1.28762 0
M  V30 9724 C 885.473 0.231575 1.9362 0
M  V30 9725 O 884.743 -0.746533 1.81118 0
M  V30 9726 H 883.323 0.573851 0.47823 0
M  V30 9727 H 885.985 1.84712 0.621888 0
M  V30 9728 H 885.081 2.33657 2.06908 0
M  V30 9729 N 885.382 -0.782676 1.36792 0
M  V30 9730 C 886.631 -1.53605 1.30723 0
M  V30 9731 C 886.944 -1.95294 -0.109296 0
M  V30 9732 O 888.15 -2.69921 -0.292398 0
M  V30 9733 C 886.606 -2.77321 2.29393 0
M  V30 9734 C 886.214 -2.42774 3.76517 0
M  V30 9735 C 887.958 -3.55289 2.32314 0
M  V30 9736 C 885.865 -3.62926 4.66947 0
M  V30 9737 H 884.795 -0.576646 0.485794 0
M  V30 9738 H 887.446 -0.858255 1.62192 0
M  V30 9739 H 885.828 -3.46934 1.90927 0
M  V30 9740 H 887.002 -1.81014 4.23758 0
M  V30 9741 H 885.317 -1.78002 3.76436 0
M  V30 9742 H 887.914 -4.44573 2.97083 0
M  V30 9743 H 888.257 -3.94361 1.3336 0
M  V30 9744 H 888.79 -2.92662 2.69432 0
M  V30 9745 H 885.529 -3.28944 5.66989 0
M  V30 9746 H 885.049 -4.23828 4.24418 0
M  V30 9747 H 886.728 -4.29873 4.83548 0
M  V30 9748 N 886.86 -1.21182 -1.00761 0
M  V30 9749 C 888.271 -1.02652 -1.55947 0
M  V30 9750 C 888.622 0.414466 -1.91772 0
M  V30 9751 O 887.747 1.29727 -1.73204 0
M  V30 9752 C 888.342 -1.85713 -2.83366 0
M  V30 9753 C 886.901 -1.71523 -3.35048 0
M  V30 9754 C 886.048 -1.83087 -2.08265 0
M  V30 9755 H 888.999 -1.35242 -0.830379 0
M  V30 9756 H 889.02 -1.36583 -3.55141 0
M  V30 9757 H 888.532 -2.90584 -2.5726 0
M  V30 9758 H 886.633 -0.693257 -3.66094 0
M  V30 9759 H 886.746 -2.53333 -4.06644 0
M  V30 9760 H 885.11 -1.26367 -2.21141 0
M  V30 9761 H 885.893 -2.8946 -1.84575 0
M  V30 9762 N 888.338 1.20213 -1.01915 0
M  V30 9763 C 889.301 2.21307 -0.596327 0
M  V30 9764 C 890.301 1.57274 0.334879 0
M  V30 9765 O 891.491 1.73764 0.12322 0
M  V30 9766 C 888.623 3.40657 0.128808 0
M  V30 9767 H 889.816 2.60228 -1.49068 0
M  V30 9768 H 887.369 1.33721 -0.809226 0
M  V30 9769 H 888.104 3.07241 1.03796 0
M  V30 9770 H 887.889 3.88361 -0.540183 0
M  V30 9771 H 889.379 4.15564 0.411892 0
M  V30 9772 N 889.816 0.795718 1.36037 0
M  V30 9773 C 890.726 0.199784 2.33748 0
M  V30 9774 C 891.742 -0.651436 1.61345 0
M  V30 9775 O 892.918 -0.565743 1.93291 0
M  V30 9776 C 889.983 -0.650475 3.40543 0
M  V30 9777 C 889.044 0.219974 4.28736 0
M  V30 9778 C 888.277 -0.589798 5.30431 0
M  V30 9779 O 888.5 -1.82532 5.40406 0
M  V30 9780 O 887.434 0.0136187 6.01898 0
M  V30 9781 H 891.26 1.00782 2.8649 0
M  V30 9782 H 888.845 0.557293 1.38617 0
M  V30 9783 H 890.727 -1.13512 4.05824 0
M  V30 9784 H 889.402 -1.4363 2.9009 0
M  V30 9785 H 888.309 0.751516 3.66474 0
M  V30 9786 H 889.642 0.969468 4.82558 0
M  V30 9787 N 891.294 -1.47756 0.548274 0
M  V30 9788 C 892.542 -2.02089 0.0208542 0
M  V30 9789 C 892.863 -1.42589 -1.33017 0
M  V30 9790 O 892.133 -0.597825 -1.86555 0
M  V30 9791 H 890.713 -0.746985 0.00472023 0
M  V30 9792 H 893.375 -1.81262 0.716257 0
M  V30 9793 H 892.471 -3.12012 -0.0739016 0
M  V30 9794 N 892.772 -0.284283 -1.55015 0
M  V30 9795 C 893.719 0.599194 -2.22886 0
M  V30 9796 C 894.689 1.14264 -1.20553 0
M  V30 9797 O 895.874 1.19025 -1.49123 0
M  V30 9798 C 893.014 1.77317 -2.96062 0
M  V30 9799 C 892.127 1.26271 -4.13134 0
M  V30 9800 C 891.262 2.39922 -4.73931 0
M  V30 9801 C 890.301 1.85925 -5.8318 0
M  V30 9802 N 889.438 2.93084 -6.38002 0
M  V30 9803 H 894.278 0.0137816 -2.97997 0
M  V30 9804 H 891.815 -0.00496503 -1.47099 0
M  V30 9805 H 893.773 2.46339 -3.36709 0
M  V30 9806 H 892.403 2.33047 -2.23358 0
M  V30 9807 H 891.455 0.465296 -3.77544 0
M  V30 9808 H 892.767 0.827284 -4.91892 0
M  V30 9809 H 891.921 3.1692 -5.17346 0
M  V30 9810 H 890.66 2.86784 -3.9447 0
M  V30 9811 H 889.665 1.07409 -5.39206 0
M  V30 9812 H 890.89 1.39987 -6.64515 0
M  V30 9813 H 888.836 3.3931 -5.61431 0
M  V30 9814 H 888.753 2.53986 -7.12058 0
M  V30 9815 H 890.021 3.7003 -6.86075 0
M  V30 9816 N 894.251 1.57596 -0.0117121 0
M  V30 9817 C 895.499 1.90694 0.669342 0
M  V30 9818 C 895.82 0.886999 1.73659 0
M  V30 9819 O 895.09 -0.0739779 1.9576 0
M  V30 9820 H 893.67 0.703846 0.250219 0
M  V30 9821 H 896.332 1.94821 -0.0554057 0
M  V30 9822 H 895.428 2.90802 1.13316 0
M  V30 9823 N 895.729 -0.261212 1.5542 0
M  V30 9824 C 896.662 -1.34906 1.84054 0
M  V30 9825 C 897.64 -1.47024 0.694466 0
M  V30 9826 O 898.824 -1.63463 0.938719 0
M  V30 9827 C 895.951 -2.7242 2.01259 0
M  V30 9828 C 894.997 -2.77526 3.23855 0
M  V30 9829 S 895.83 -2.35578 4.80898 0
M  V30 9830 C 896.986 -3.75045 5.01091 0
M  V30 9831 H 897.219 -1.10416 2.76035 0
M  V30 9832 H 894.752 -0.461461 1.47343 0
M  V30 9833 H 896.71 -3.51606 2.11857 0
M  V30 9834 H 895.371 -2.94155 1.10145 0
M  V30 9835 H 894.564 -3.78483 3.32816 0
M  V30 9836 H 894.166 -2.0637 3.11909 0
M  V30 9837 H 896.458 -4.7042 4.87556 0
M  V30 9838 H 897.401 -3.71027 6.03112 0
M  V30 9839 H 897.809 -3.66894 4.29009 0
M  V30 9840 N 897.207 -1.48554 -0.526253 0
M  V30 9841 C 898.456 -1.56014 -1.27837 0
M  V30 9842 C 898.769 -0.240643 -1.94114 0
M  V30 9843 O 899.975 -0.193525 -2.70809 0
M  V30 9844 C 898.431 -2.75161 -2.31979 0
M  V30 9845 C 898.039 -4.13768 -1.71755 0
M  V30 9846 C 899.783 -2.91936 -3.08178 0
M  V30 9847 C 897.69 -5.24171 -2.7386 0
M  V30 9848 H 896.62 -0.58082 -0.480795 0
M  V30 9849 H 899.271 -1.74895 -0.555335 0
M  V30 9850 H 897.653 -2.49722 -3.07335 0
M  V30 9851 H 898.827 -4.49241 -1.02563 0
M  V30 9852 H 897.142 -4.02141 -1.08036 0
M  V30 9853 H 899.739 -3.71586 -3.84484 0
M  V30 9854 H 900.082 -2.01533 -3.64267 0
M  V30 9855 H 900.615 -3.17294 -2.39937 0
M  V30 9856 H 897.354 -6.16552 -2.22586 0
M  V30 9857 H 896.874 -4.93181 -3.41368 0
M  V30 9858 H 898.553 -5.52442 -3.36774 0
M  V30 9859 N 898.685 0.775411 -1.37205 0
M  V30 9860 C 899.962 1.5229 -1.22748 0
M  V30 9861 C 900.342 2.10327 0.180487 0
M  V30 9862 O 899.69 1.95206 1.18772 0
M  V30 9863 C 899.9 2.60671 -2.3206 0
M  V30 9864 C 901.248 3.28173 -2.6942 0
M  V30 9865 O 902.272 2.70963 -2.31208 0
M  V30 9866 O 901.131 4.31598 -3.3524 0
M  V30 9867 H 898.225 0.674326 -0.478762 0
M  V30 9868 H 900.771 0.812691 -1.48975 0
M  V30 9869 H 899.543 2.1588 -3.26361 0
M  V30 9870 H 899.166 3.39296 -2.07277 0
M  V30 9871 N 900.163 1.21714 1.00117 0
M  V30 9872 C 901.093 1.00397 2.10815 0
M  V30 9873 C 902.074 -0.0723502 1.69946 0
M  V30 9874 O 903.259 0.0882398 1.93999 0
M  V30 9875 C 900.389 0.572001 3.42557 0
M  V30 9876 C 899.343 1.59331 3.97237 0
M  V30 9877 C 898.669 1.01746 5.2493 0
M  V30 9878 C 899.969 2.98117 4.28863 0
M  V30 9879 H 901.663 1.92983 2.28906 0
M  V30 9880 H 899.209 0.929273 1.10002 0
M  V30 9881 H 901.162 0.410018 4.19401 0
M  V30 9882 H 899.886 -0.38951 3.24269 0
M  V30 9883 H 898.545 1.74293 3.22518 0
M  V30 9884 H 898.193 0.0475491 5.02978 0
M  V30 9885 H 897.893 1.69969 5.62481 0
M  V30 9886 H 899.417 0.866881 6.04415 0
M  V30 9887 H 900.831 2.86578 4.96534 0
M  V30 9888 H 899.228 3.63389 4.77565 0
M  V30 9889 H 900.298 3.48674 3.36979 0
M  V30 9890 N 901.641 -1.19671 1.02551 0
M  V30 9891 C 902.89 -1.88591 0.715272 0
M  V30 9892 C 903.203 -1.80274 -0.758982 0
M  V30 9893 O 904.409 -2.44413 -1.18213 0
M  V30 9894 C 902.865 -3.38264 1.22905 0
M  V30 9895 C 902.473 -3.55146 2.73084 0
M  V30 9896 C 904.217 -4.12683 0.994649 0
M  V30 9897 C 902.124 -4.98693 3.17897 0
M  V30 9898 H 901.054 -0.706326 0.263857 0
M  V30 9899 H 903.705 -1.35322 1.23936 0
M  V30 9900 H 902.087 -3.9091 0.632892 0
M  V30 9901 H 903.261 -3.12845 3.38326 0
M  V30 9902 H 901.576 -2.94112 2.94766 0
M  V30 9903 H 904.173 -5.18536 1.30478 0
M  V30 9904 H 904.516 -4.16243 -0.0686466 0
M  V30 9905 H 905.049 -3.66164 1.55464 0
M  V30 9906 H 901.788 -5.00293 4.23542 0
M  V30 9907 H 901.308 -5.4177 2.57381 0
M  V30 9908 H 902.987 -5.67327 3.11045 0
M  V30 9909 N 903.119 -0.802921 -1.35613 0
M  V30 9910 C 904.082 -0.216422 -2.28176 0
M  V30 9911 C 905.082 0.594101 -1.49422 0
M  V30 9912 O 906.272 0.41312 -1.6923 0
M  V30 9913 C 903.404 0.698746 -3.33662 0
M  V30 9914 H 904.597 -1.03276 -2.81557 0
M  V30 9915 H 902.15 -0.573307 -1.45406 0
M  V30 9916 H 902.885 1.53891 -2.85461 0
M  V30 9917 H 902.67 0.119314 -3.91918 0
M  V30 9918 H 904.16 1.10354 -4.02755 0
M  V30 9919 N 904.597 1.47463 -0.556102 0
M  V30 9920 C 905.56 2.28478 0.181743 0
M  V30 9921 C 906.56 1.36886 0.843738 0
M  V30 9922 O 907.75 1.59527 0.69977 0
M  V30 9923 C 904.882 3.16534 1.26566 0
M  V30 9924 H 906.075 2.95182 -0.529892 0
M  V30 9925 H 903.628 1.53134 -0.313005 0
M  V30 9926 H 904.363 2.5452 2.00973 0
M  V30 9927 H 904.148 3.83939 0.795798 0
M  V30 9928 H 905.638 3.77579 1.78393 0
M  V30 9929 N 906.075 0.2925 1.54862 0
M  V30 9930 C 907.321 -0.319736 2.00264 0
M  V30 9931 C 907.654 -1.5419 1.18064 0
M  V30 9932 O 906.929 -1.92821 0.254983 0
M  V30 9933 C 907.212 -0.684753 3.5353 0
M  V30 9934 C 907.065 0.545961 4.46474 0
M  V30 9935 C 908.384 -1.51456 4.13218 0
M  V30 9936 H 905.503 -0.11474 0.728014 0
M  V30 9937 H 908.145 0.402907 1.85679 0
M  V30 9938 H 906.295 -1.30044 3.66089 0
M  V30 9939 H 907.967 1.18448 4.45834 0
M  V30 9940 H 906.21 1.1808 4.1742 0
M  V30 9941 H 906.881 0.246544 5.51449 0
M  V30 9942 H 909.357 -0.994421 4.04043 0
M  V30 9943 H 908.233 -1.73875 5.20633 0
M  V30 9944 H 908.494 -2.5011 3.64551 0
M  V30 9945 N 907.553 -1.57587 0.0200696 0
M  V30 9946 C 908.485 -2.06555 -0.993359 0
M  V30 9947 C 909.498 -0.987227 -1.29451 0
M  V30 9948 O 910.687 -1.26361 -1.26075 0
M  V30 9949 C 907.787 -2.4675 -2.3231 0
M  V30 9950 C 906.96 -3.77554 -2.20843 0
M  V30 9951 C 906.019 -4.04397 -3.36674 0
M  V30 9952 O 905.045 -4.7478 -3.13963 0
M  V30 9953 N 906.247 -3.53861 -4.60176 0
M  V30 9954 H 909.012 -2.9412 -0.575617 0
M  V30 9955 H 906.573 -1.61038 -0.166889 0
M  V30 9956 H 908.565 -2.61806 -3.08609 0
M  V30 9957 H 907.135 -1.64598 -2.65756 0
M  V30 9958 H 906.355 -3.72382 -1.29327 0
M  V30 9959 H 907.643 -4.63271 -2.10375 0
M  V30 9960 H 907.041 -2.96904 -4.81523 0
M  V30 9961 H 905.598 -3.74213 -5.33674 0
M  V30 9962 N 909.032 0.252966 -1.55557 0
M  V30 9963 C 909.979 1.3131 -1.89806 0
M  V30 9964 C 910.949 1.48121 -0.751633 0
M  V30 9965 O 912.134 1.62202 -1.00474 0
M  V30 9966 C 909.274 2.66467 -2.19293 0
M  V30 9967 C 908.387 2.57714 -3.46709 0
M  V30 9968 C 907.522 3.85184 -3.65796 0
M  V30 9969 C 906.561 3.71023 -4.86835 0
M  V30 9970 N 905.698 4.90371 -5.02474 0
M  V30 9971 H 910.538 1.01402 -2.80217 0
M  V30 9972 H 908.075 0.489462 -1.38718 0
M  V30 9973 H 910.033 3.45132 -2.34392 0
M  V30 9974 H 908.663 2.94536 -1.32093 0
M  V30 9975 H 907.715 1.70651 -3.39974 0
M  V30 9976 H 909.027 2.43158 -4.35517 0
M  V30 9977 H 908.181 4.72292 -3.80822 0
M  V30 9978 H 906.92 4.0263 -2.7521 0
M  V30 9979 H 905.925 2.82299 -4.71792 0
M  V30 9980 H 907.15 3.55078 -5.78875 0
M  V30 9981 H 905.096 5.0819 -4.14824 0
M  V30 9982 H 905.013 4.78423 -5.85361 0
M  V30 9983 H 906.281 5.78995 -5.21905 0
M  V30 9984 N 910.51 1.48831 0.518367 0
M  V30 9985 C 911.442 1.60317 1.63802 0
M  V30 9986 C 912.455 0.486771 1.55352 0
M  V30 9987 O 913.644 0.758111 1.61601 0
M  V30 9988 C 910.744 1.52771 3.02513 0
M  V30 9989 C 909.917 2.79649 3.36326 0
M  V30 9990 C 908.976 2.65396 4.54369 0
M  V30 9991 O 908.002 3.39304 4.57013 0
M  V30 9992 N 909.204 1.75784 5.53245 0
M  V30 9993 H 911.969 2.56878 1.54383 0
M  V30 9994 H 909.53 1.45701 0.705889 0
M  V30 9995 H 911.522 1.40914 3.79375 0
M  V30 9996 H 910.092 0.641381 3.05949 0
M  V30 9997 H 909.312 3.05985 2.48529 0
M  V30 9998 H 910.6 3.63799 3.55707 0
M  V30 9999 H 909.998 1.14961 5.53896 0
M  V30 10000 H 908.555 1.69859 6.29278 0
M  V30 10001 N 911.988 -0.768124 1.37614 0
M  V30 10002 C 912.92 -1.89076 1.29548 0
M  V30 10003 C 913.933 -1.61433 0.21056 0
M  V30 10004 O 915.122 -1.72283 0.466992 0
M  V30 10005 C 912.222 -3.24388 0.981102 0
M  V30 10006 C 911.395 -3.79649 2.17222 0
M  V30 10007 C 910.454 -4.93444 1.82754 0
M  V30 10008 O 909.48 -5.0884 2.5509 0
M  V30 10009 N 910.682 -5.75319 0.773819 0
M  V30 10010 H 913.447 -1.9651 2.26283 0
M  V30 10011 H 911.008 -0.947399 1.31286 0
M  V30 10012 H 913 -3.98038 0.731301 0
M  V30 10013 H 911.57 -3.12433 0.102203 0
M  V30 10014 H 910.79 -2.97735 2.58355 0
M  V30 10015 H 912.078 -4.13302 2.96748 0
M  V30 10016 H 911.476 -5.65433 0.173644 0
M  V30 10017 H 910.033 -6.4918 0.583882 0
M  V30 10018 N 913.466 -1.22244 -0.994698 0
M  V30 10019 C 914.398 -0.948706 -2.08644 0
M  V30 10020 C 915.411 0.0720049 -1.62641 0
M  V30 10021 O 916.6 -0.161778 -1.77765 0
M  V30 10022 C 913.7 -0.404885 -3.36473 0
M  V30 10023 C 912.873 -1.48239 -4.11514 0
M  V30 10024 C 911.932 -0.94597 -5.17627 0
M  V30 10025 O 910.958 -1.63177 -5.45309 0
M  V30 10026 N 912.16 0.23355 -5.8003 0
M  V30 10027 H 914.925 -1.88858 -2.32707 0
M  V30 10028 H 912.486 -1.12908 -1.16032 0
M  V30 10029 H 914.478 -0.0313903 -4.04688 0
M  V30 10030 H 913.048 0.440061 -3.09487 0
M  V30 10031 H 912.268 -2.02928 -3.37955 0
M  V30 10032 H 913.556 -2.20741 -4.58422 0
M  V30 10033 H 912.954 0.80756 -5.59906 0
M  V30 10034 H 911.511 0.54845 -6.49488 0
M  V30 10035 N 914.944 1.19125 -1.03184 0
M  V30 10036 C 915.876 2.21914 -0.573294 0
M  V30 10037 C 916.889 1.5894 0.352397 0
M  V30 10038 O 918.078 1.77883 0.148318 0
M  V30 10039 C 915.178 3.38403 0.18355 0
M  V30 10040 C 914.351 4.3096 -0.747817 0
M  V30 10041 C 913.41 5.26188 -0.0358489 0
M  V30 10042 O 912.436 5.65321 -0.663388 0
M  V30 10043 N 913.638 5.67235 1.23387 0
M  V30 10044 H 916.403 2.61881 -1.45734 0
M  V30 10045 H 913.964 1.33821 -0.911231 0
M  V30 10046 H 915.956 3.99124 0.669468 0
M  V30 10047 H 914.526 2.97201 0.969043 0
M  V30 10048 H 913.746 3.67976 -1.41377 0
M  V30 10049 H 915.034 4.89708 -1.38071 0
M  V30 10050 H 914.432 5.37481 1.76439 0
M  V30 10051 H 912.989 6.30196 1.66423 0
M  V30 10052 N 916.422 0.810101 1.35185 0
M  V30 10053 C 917.65 0.404696 2.02903 0
M  V30 10054 C 918.065 -0.985434 1.61042 0
M  V30 10055 O 917.422 -1.63557 0.809658 0
M  V30 10056 C 917.473 0.482493 3.58266 0
M  V30 10057 O 917.194 1.81782 3.98606 0
M  V30 10058 C 918.695 0.070345 4.43244 0
M  V30 10059 H 915.915 0.163972 0.650657 0
M  V30 10060 H 918.459 1.0947 1.72733 0
M  V30 10061 H 916.614 -0.159296 3.87072 0
M  V30 10062 H 917.028 1.78306 4.93262 0
M  V30 10063 H 918.502 0.175888 5.5172 0
M  V30 10064 H 918.979 -0.984724 4.28018 0
M  V30 10065 H 919.585 0.685427 4.1974 0
M  V30 10066 N 917.9 -1.47166 0.563914 0
M  V30 10067 C 919.148 -2.02056 0.0422873 0
M  V30 10068 C 919.469 -1.43992 -1.31497 0
M  V30 10069 O 918.739 -0.617578 -1.85911 0
M  V30 10070 H 917.319 -0.746893 0.0126427 0
M  V30 10071 H 919.981 -1.80492 0.735441 0
M  V30 10072 H 919.077 -3.12073 -0.0408044 0
M  V30 10073 N 919.378 -0.300708 -1.54705 0
M  V30 10074 C 920.326 0.591264 -2.2496 0
M  V30 10075 C 921.32 1.13725 -1.2555 0
M  V30 10076 O 922.526 1.08793 -1.43402 0
M  V30 10077 H 918.901 0.209278 -0.722293 0
M  V30 10078 H 920.872 -0.0238175 -2.9839 0
M  V30 10079 C 919.621 1.75179 -3.00346 0
M  V30 10080 H 918.944 1.34089 -3.76643 0
M  V30 10081 H 920.384 2.35198 -3.52786 0
M  V30 10082 C 918.843 2.65574 -2.07298 0
M  V30 10083 O 919.373 3.6666 -1.64083 0
M  V30 10084 N 917.579 2.33301 -1.7326 0
M  V30 10085 H 917.126 1.51142 -2.08599 0
M  V30 10086 H 917.084 2.94049 -1.11278 0
M  V30 10087 N 920.856 1.57574 -0.0284266 0
M  V30 10088 C 921.806 2.06674 0.962804 0
M  V30 10089 C 922.79 0.967115 1.28591 0
M  V30 10090 O 923.982 1.23068 1.27214 0
M  V30 10091 C 921.111 2.59682 2.24545 0
M  V30 10092 C 920.197 3.76573 1.95073 0
M  V30 10093 N 920.588 4.8721 1.35869 0
M  V30 10094 C 918.886 3.85046 2.25068 0
M  V30 10095 C 919.587 5.68436 1.23514 0
M  V30 10096 N 918.563 5.15323 1.73041 0
M  V30 10097 H 922.365 2.89615 0.500013 0
M  V30 10098 H 919.879 1.61437 0.176604 0
M  V30 10099 H 921.876 2.93148 2.96428 0
M  V30 10100 H 920.536 1.7817 2.71451 0
M  V30 10101 H 921.547 5.07477 1.03379 0
M  V30 10102 H 918.224 3.14439 2.74653 0
M  V30 10103 H 919.614 6.67387 0.777403 0
M  V30 10104 N 922.334 -0.244713 1.55689 0
M  V30 10105 C 923.745 -0.813603 1.6804 0
M  V30 10106 C 924.096 -1.85936 0.626281 0
M  V30 10107 O 923.221 -2.15206 -0.227038 0
M  V30 10108 C 923.816 -1.48252 3.04642 0
M  V30 10109 C 922.375 -1.99908 3.18926 0
M  V30 10110 C 921.522 -0.850958 2.6392 0
M  V30 10111 H 924.473 -0.0204805 1.58687 0
M  V30 10112 H 924.494 -2.35062 2.99209 0
M  V30 10113 H 924.006 -0.721164 3.81341 0
M  V30 10114 H 922.107 -2.78918 2.47054 0
M  V30 10115 H 922.22 -2.19497 4.25862 0
M  V30 10116 H 920.584 -1.25206 2.21801 0
M  V30 10117 H 921.367 -0.10265 3.43146 0
M  V30 10118 N 923.813 -1.49104 -0.510467 0
M  V30 10119 C 925.062 -1.57362 -1.26175 0
M  V30 10120 C 925.375 -0.261218 -1.93848 0
M  V30 10121 O 926.581 -0.222238 -2.70589 0
M  V30 10122 C 925.037 -2.77606 -2.29048 0
M  V30 10123 C 924.645 -4.15567 -1.67357 0
M  V30 10124 C 926.389 -2.95188 -3.05064 0
M  V30 10125 C 924.296 -5.27046 -2.68285 0
M  V30 10126 H 923.226 -0.585887 -0.474608 0
M  V30 10127 H 925.877 -1.75474 -0.536753 0
M  V30 10128 H 924.259 -2.52968 -3.04669 0
M  V30 10129 H 925.433 -4.50304 -0.977924 0
M  V30 10130 H 923.748 -4.03264 -1.03765 0
M  V30 10131 H 926.345 -3.75643 -3.80521 0
M  V30 10132 H 926.688 -2.05385 -3.62108 0
M  V30 10133 H 927.221 -3.19821 -2.36558 0
M  V30 10134 H 923.96 -6.18878 -2.16034 0
M  V30 10135 H 923.48 -4.96774 -3.36118 0
M  V30 10136 H 925.159 -5.55983 -3.30896 0
M  V30 10137 N 925.291 0.760815 -1.38019 0
M  V30 10138 C 926.519 1.55001 -1.37048 0
M  V30 10139 C 926.934 1.88754 0.0415261 0
M  V30 10140 O 926.291 1.52254 1.00624 0
M  V30 10141 C 926.342 2.8536 -2.21928 0
M  V30 10142 O 926.063 2.53049 -3.57628 0
M  V30 10143 C 927.564 3.79536 -2.29057 0
M  V30 10144 H 924.784 0.479844 -0.469032 0
M  V30 10145 H 927.328 0.942148 -1.81504 0
M  V30 10146 H 925.483 3.42542 -1.80953 0
M  V30 10147 H 925.897 3.36604 -4.02241 0
M  V30 10148 H 927.371 4.67977 -2.92749 0
M  V30 10149 H 927.848 4.19453 -1.30213 0
M  V30 10150 H 928.454 3.28281 -2.70392 0
M  V30 10151 N 926.769 1.22769 0.988202 0
M  V30 10152 C 928.015 1.05665 1.73097 0
M  V30 10153 C 928.348 -0.406615 1.89895 0
M  V30 10154 O 927.623 -1.30132 1.44554 0
M  V30 10155 C 927.906 1.77381 3.13382 0
M  V30 10156 C 927.759 3.31332 3.04203 0
M  V30 10157 C 929.078 1.52999 4.12649 0
M  V30 10158 H 926.197 0.385258 0.628288 0
M  V30 10159 H 928.839 1.51171 1.15097 0
M  V30 10160 H 926.989 1.38696 3.62899 0
M  V30 10161 H 928.661 3.79489 2.6227 0
M  V30 10162 H 926.904 3.60767 2.40894 0
M  V30 10163 H 927.575 3.76692 4.03493 0
M  V30 10164 H 930.051 1.86611 3.71908 0
M  V30 10165 H 928.927 2.05666 5.08913 0
M  V30 10166 H 929.188 0.463615 4.39662 0
M  V30 10167 N 928.247 -1.18576 1.03814 0
M  V30 10168 C 929.197 -2.20034 0.597409 0
M  V30 10169 C 930.181 -1.56849 -0.358796 0
M  V30 10170 O 931.373 -1.761 -0.178262 0
M  V30 10171 C 928.502 -3.43276 -0.0407965 0
M  V30 10172 C 927.588 -4.13588 0.938404 0
M  V30 10173 N 927.979 -4.59941 2.10447 0
M  V30 10174 C 926.277 -4.3941 0.763853 0
M  V30 10175 C 926.978 -5.1404 2.72282 0
M  V30 10176 N 925.954 -5.05401 2.00176 0
M  V30 10177 H 929.756 -2.53562 1.48606 0
M  V30 10178 H 927.27 -1.34753 0.906384 0
M  V30 10179 H 929.267 -4.15217 -0.374222 0
M  V30 10180 H 927.927 -3.11245 -0.925014 0
M  V30 10181 H 928.938 -4.54471 2.48347 0
M  V30 10182 H 925.615 -4.1744 -0.0704869 0
M  V30 10183 H 927.005 -5.60128 3.71088 0
M  V30 10184 N 929.725 -0.817259 -1.34754 0
M  V30 10185 C 930.965 -0.408429 -2.00278 0
M  V30 10186 C 931.329 1.00818 -1.634 0
M  V30 10187 O 932.53 1.51959 -2.21725 0
M  V30 10188 C 930.801 -0.598219 -3.52358 0
M  V30 10189 S 932.36 -0.281395 -4.37897 0
M  V30 10190 H 929.178 -0.154587 -0.693991 0
M  V30 10191 H 931.78 -1.06184 -1.6415 0
M  V30 10192 H 930.484 -1.62901 -3.76685 0
M  V30 10193 H 930.015 0.0701299 -3.93337 0
M  V30 10194 H 932.03 0.907024 -4.8784 0
M  V30 10195 N 931.203 1.46865 -0.571711 0
M  V30 10196 C 932.428 2.07323 -0.0564655 0
M  V30 10197 C 932.853 1.41938 1.23431 0
M  V30 10198 O 932.211 0.499334 1.74288 0
M  V30 10199 C 932.259 3.6044 0.107339 0
M  V30 10200 O 931.363 3.95558 1.1665 0
M  V30 10201 H 930.704 0.661475 -0.0578465 0
M  V30 10202 H 933.234 1.88669 -0.791524 0
M  V30 10203 H 933.244 4.06767 0.316987 0
M  V30 10204 H 931.919 4.07425 -0.835348 0
M  V30 10205 H 930.496 3.60957 0.936189 0
M  V30 10206 N 932.681 0.308908 1.54543 0
M  V30 10207 C 933.644 -0.550857 2.22482 0
M  V30 10208 C 934.644 -1.0551 1.21344 0
M  V30 10209 O 935.834 -0.949866 1.46025 0
M  V30 10210 C 932.966 -1.76354 2.9174 0
M  V30 10211 H 934.159 0.0428395 2.99869 0
M  V30 10212 H 931.712 0.059825 1.56185 0
M  V30 10213 H 932.447 -2.39686 2.18451 0
M  V30 10214 H 932.232 -1.40954 3.65889 0
M  V30 10215 H 933.722 -2.37417 3.43545 0
M  V30 10216 N 934.159 -1.57557 0.0367827 0
M  V30 10217 C 935.407 -1.91735 -0.63892 0
M  V30 10218 C 935.728 -0.914515 -1.72226 0
M  V30 10219 O 934.998 0.0428248 -1.95853 0
M  V30 10220 H 933.578 -0.707738 -0.23899 0
M  V30 10221 H 936.24 -1.94708 0.0863931 0
M  V30 10222 H 935.336 -2.92568 -1.08676 0
M  V30 10223 N 935.637 0.236453 -1.55816 0
M  V30 10224 C 936.6 1.27633 -1.90375 0
M  V30 10225 C 937.6 1.40557 -0.781048 0
M  V30 10226 O 938.79 1.39078 -1.04895 0
M  V30 10227 C 935.922 2.65247 -2.14142 0
M  V30 10228 H 937.115 0.982019 -2.83366 0
M  V30 10229 H 934.668 0.476215 -1.48869 0
M  V30 10230 H 935.403 2.99801 -1.23653 0
M  V30 10231 H 935.188 2.57246 -2.95917 0
M  V30 10232 H 936.678 3.40313 -2.42026 0
M  V30 10233 N 937.115 1.49373 0.502552 0
M  V30 10234 C 938.363 1.58467 1.25429 0
M  V30 10235 C 938.684 0.272593 1.93085 0
M  V30 10236 O 937.954 -0.707947 1.82661 0
M  V30 10237 H 936.534 0.583866 0.46595 0
M  V30 10238 H 939.196 1.8599 0.582568 0
M  V30 10239 H 938.292 2.37993 2.01906 0
M  V30 10240 N 938.594 -0.753485 1.38421 0
M  V30 10241 C 940.01 -1.05656 1.1962 0
M  V30 10242 C 940.21 -2.0145 0.0449443 0
M  V30 10243 O 939.266 -2.45039 -0.609253 0
M  V30 10244 C 940.579 -1.63655 2.52265 0
M  V30 10245 C 942.127 -1.75825 2.58949 0
M  V30 10246 C 942.602 -2.37236 3.91769 0
M  V30 10247 N 944.093 -2.44666 3.9331 0
M  V30 10248 C 944.828 -2.93077 4.92842 0
M  V30 10249 N 944.324 -3.41523 6.02772 0
M  V30 10250 N 946.117 -2.92118 4.80232 0
M  V30 10251 H 938.268 -0.117799 2.12073 0
M  V30 10252 H 940.531 -0.114889 0.941012 0
M  V30 10253 H 940.237 -1.00734 3.36965 0
M  V30 10254 H 940.111 -2.62715 2.70667 0
M  V30 10255 H 942.498 -2.37873 1.74644 0
M  V30 10256 H 942.579 -0.754693 2.44414 0
M  V30 10257 H 942.223 -1.75822 4.76497 0
M  V30 10258 H 942.153 -3.38233 4.03616 0
M  V30 10259 H 944.644 -2.10403 3.1391 0
M  V30 10260 H 944.957 -3.76919 6.74649 0
M  V30 10261 H 943.302 -3.3958 6.06391 0
M  V30 10262 H 946.493 -2.53582 3.93464 0
M  V30 10263 H 946.666 -3.29535 5.57952 0
M  V30 10264 N 940.072 -1.23292 -0.981677 0
M  V30 10265 C 941.3 -1.09088 -1.75805 0
M  V30 10266 C 941.715 0.357746 -1.8538 0
M  V30 10267 O 941.072 1.24751 -1.33205 0
M  V30 10268 C 941.123 -1.70885 -3.1856 0
M  V30 10269 O 940.844 -3.10082 -3.09484 0
M  V30 10270 C 942.345 -1.62106 -4.12597 0
M  V30 10271 H 939.565 -0.38184 -0.55176 0
M  V30 10272 H 942.109 -1.63116 -1.23342 0
M  V30 10273 H 940.264 -1.20893 -3.68054 0
M  V30 10274 H 940.678 -3.40039 -3.99342 0
M  V30 10275 H 942.152 -2.10049 -5.10474 0
M  V30 10276 H 942.629 -0.579642 -4.35358 0
M  V30 10277 H 943.235 -2.11457 -3.69007 0
M  V30 10278 N 941.55 1.18024 -1.04442 0
M  V30 10279 C 942.798 1.87727 -0.74854 0
M  V30 10280 C 943.119 1.80975 0.726156 0
M  V30 10281 O 942.389 1.23061 1.52423 0
M  V30 10282 H 940.969 0.694974 -0.273897 0
M  V30 10283 H 943.631 1.43213 -1.32197 0
M  V30 10284 H 942.727 2.93665 -1.05674 0
M  V30 10285 N 943.028 0.824394 1.34319 0
M  V30 10286 C 944.256 0.426194 2.02463 0
M  V30 10287 C 944.671 -0.968298 1.62078 0
M  V30 10288 O 944.028 -1.62689 0.82696 0
M  V30 10289 C 944.079 0.520465 3.57734 0
M  V30 10290 O 943.8 1.86 3.96656 0
M  V30 10291 C 945.301 0.117353 4.43145 0
M  V30 10292 H 942.521 0.170864 0.648881 0
M  V30 10293 H 945.065 1.11296 1.71562 0
M  V30 10294 H 943.22 -0.118233 3.8722 0
M  V30 10295 H 943.634 1.83528 4.91343 0
M  V30 10296 H 945.108 0.234395 5.51502 0
M  V30 10297 H 945.585 -0.939271 4.29039 0
M  V30 10298 H 946.191 0.729908 4.1899 0
M  V30 10299 N 944.506 -1.46559 0.579492 0
M  V30 10300 C 945.753 -2.02399 0.0638418 0
M  V30 10301 C 946.081 -1.45135 -1.29484 0
M  V30 10302 O 945.336 -0.605061 -1.86112 0
M  V30 10303 C 945.635 -3.57357 -0.0552803 0
M  V30 10304 C 945.301 -4.33646 1.23539 0
M  V30 10305 C 943.963 -4.54207 1.589 0
M  V30 10306 C 946.315 -4.77476 2.08965 0
M  V30 10307 C 943.643 -5.1585 2.79492 0
M  V30 10308 C 945.995 -5.4045 3.2878 0
M  V30 10309 C 944.659 -5.5924 3.64427 0
M  V30 10310 H 943.929 -0.740632 0.0233614 0
M  V30 10311 H 946.576 -1.75968 0.755482 0
M  V30 10312 H 944.881 -3.82907 -0.83003 0
M  V30 10313 H 946.578 -3.98237 -0.469964 0
M  V30 10314 H 943.168 -4.17937 0.9501 0
M  V30 10315 H 947.352 -4.61349 1.8295 0
M  V30 10316 H 942.608 -5.28589 3.07252 0
M  V30 10317 H 946.782 -5.73371 3.95245 0
M  V30 10318 H 944.409 -6.06775 4.57961 0
M  V30 10319 N 945.984 -0.3171 -1.54377 0
M  V30 10320 C 947.233 0.288271 -1.99629 0
M  V30 10321 C 947.546 1.53754 -1.2091 0
M  V30 10322 O 948.752 2.2185 -1.56508 0
M  V30 10323 C 947.208 0.564188 -3.5545 0
M  V30 10324 C 946.816 -0.667659 -4.42997 0
M  V30 10325 C 948.56 1.12987 -4.09187 0
M  V30 10326 C 946.467 -0.364003 -5.90279 0
M  V30 10327 H 945.397 0.111492 -0.745711 0
M  V30 10328 H 948.048 -0.428317 -1.78431 0
M  V30 10329 H 946.43 1.34079 -3.72611 0
M  V30 10330 H 947.604 -1.44335 -4.37612 0
M  V30 10331 H 945.919 -1.1531 -4.00116 0
M  V30 10332 H 948.516 1.37157 -5.1681 0
M  V30 10333 H 948.859 2.07722 -3.60773 0
M  V30 10334 H 949.392 0.414595 -3.95634 0
M  V30 10335 H 946.131 -1.28035 -6.42874 0
M  V30 10336 H 945.651 0.374102 -5.98632 0
M  V30 10337 H 947.33 0.0285433 -6.46994 0
M  V30 10338 N 947.462 1.57535 -0.0451378 0
M  V30 10339 C 948.425 2.1008 0.916461 0
M  V30 10340 C 949.425 1.01913 1.2438 0
M  V30 10341 O 950.615 1.2801 1.18148 0
M  V30 10342 C 947.747 2.58001 2.22818 0
M  V30 10343 H 948.94 2.96334 0.461076 0
M  V30 10344 H 946.493 1.54974 0.203169 0
M  V30 10345 H 947.228 1.75123 2.72951 0
M  V30 10346 H 947.013 3.3704 2.00366 0
M  V30 10347 H 948.503 2.98822 2.9171 0
M  V30 10348 N 948.94 -0.228186 1.55939 0
M  V30 10349 C 949.87 -1.28607 1.94891 0
M  V30 10350 C 950.851 -1.49236 0.816245 0
M  V30 10351 O 952.036 -1.61531 1.07803 0
M  V30 10352 C 949.166 -2.63719 2.25986 0
M  V30 10353 C 948.12 -2.57757 3.4168 0
M  V30 10354 C 947.446 -3.96837 3.58364 0
M  V30 10355 C 948.746 -2.13116 4.76843 0
M  V30 10356 H 950.44 -0.962531 2.83506 0
M  V30 10357 H 947.986 -0.461577 1.36402 0
M  V30 10358 H 949.939 -3.37878 2.51826 0
M  V30 10359 H 948.663 -2.97747 1.34217 0
M  V30 10360 H 947.322 -1.86055 3.15878 0
M  V30 10361 H 946.97 -4.28162 2.63982 0
M  V30 10362 H 946.67 -3.93731 4.36176 0
M  V30 10363 H 948.194 -4.72668 3.86545 0
M  V30 10364 H 949.608 -2.77015 5.01932 0
M  V30 10365 H 948.005 -2.21083 5.57891 0
M  V30 10366 H 949.075 -1.08326 4.72645 0
M  V30 10367 N 950.418 -1.49637 -0.494624 0
M  V30 10368 C 951.643 -1.63431 -1.27691 0
M  V30 10369 C 952.068 -0.30813 -1.85559 0
M  V30 10370 O 951.426 0.725083 -1.66169 0
M  V30 10371 C 951.474 -2.71043 -2.3784 0
M  V30 10372 O 950.578 -2.3066 -3.41862 0
M  V30 10373 H 949.919 -0.546804 -0.376698 0
M  V30 10374 H 952.449 -1.95866 -0.591413 0
M  V30 10375 H 952.459 -2.93406 -2.83508 0
M  V30 10376 H 951.134 -3.67306 -1.95088 0
M  V30 10377 H 949.711 -2.18652 -3.02069 0
M  V30 10378 N 951.896 0.746133 -1.38819 0
M  V30 10379 C 952.844 1.88137 -1.36774 0
M  V30 10380 C 953.838 1.67508 -0.252495 0
M  V30 10381 O 955.044 1.74985 -0.421935 0
M  V30 10382 H 951.419 0.619116 -0.426849 0
M  V30 10383 H 953.39 1.86978 -2.32555 0
M  V30 10384 C 952.139 3.25703 -1.21708 0
M  V30 10385 H 951.462 3.42168 -2.06788 0
M  V30 10386 H 952.902 4.05361 -1.24332 0
M  V30 10387 C 951.361 3.36816 0.0754257 0
M  V30 10388 O 951.891 3.87742 1.04972 0
M  V30 10389 N 950.097 2.90287 0.134761 0
M  V30 10390 H 949.644 2.49034 -0.658779 0
M  V30 10391 H 949.602 2.98103 0.999109 0
M  V30 10392 N 953.375 1.23811 0.975125 0
M  V30 10393 C 954.624 1.06741 1.71141 0
M  V30 10394 C 954.937 -0.394986 1.9157 0
M  V30 10395 O 956.143 -0.685723 2.62698 0
M  V30 10396 C 954.599 1.86168 3.08009 0
M  V30 10397 C 954.207 3.36771 2.95448 0
M  V30 10398 C 955.951 1.77604 3.85561 0
M  V30 10399 C 953.858 4.0857 4.2758 0
M  V30 10400 H 952.788 0.395819 0.64175 0
M  V30 10401 H 955.439 1.47825 1.0872 0
M  V30 10402 H 953.821 1.37893 3.71216 0
M  V30 10403 H 954.995 3.92571 2.41298 0
M  V30 10404 H 953.31 3.46205 2.31368 0
M  V30 10405 H 955.907 2.28556 4.83391 0
M  V30 10406 H 956.25 0.739837 4.09673 0
M  V30 10407 H 956.783 2.23519 3.29065 0
M  V30 10408 H 953.522 5.12518 4.08663 0
M  V30 10409 H 953.042 3.57556 4.81574 0
M  V30 10410 H 954.721 4.15157 4.9624 0
M  V30 10411 N 954.853 -1.17469 1.05066 0
M  V30 10412 C 955.783 -2.23635 0.671552 0
M  V30 10413 C 956.764 -1.66867 -0.33006 0
M  V30 10414 O 957.949 -1.93084 -0.207933 0
M  V30 10415 C 955.079 -3.47272 0.0441845 0
M  V30 10416 C 954.033 -4.16854 0.97042 0
M  V30 10417 C 953.359 -5.34299 0.206998 0
M  V30 10418 C 954.659 -4.69225 2.29401 0
M  V30 10419 H 956.353 -2.55602 1.55911 0
M  V30 10420 H 953.899 -1.2286 0.751101 0
M  V30 10421 H 955.852 -4.20756 -0.23282 0
M  V30 10422 H 954.576 -3.14568 -0.878311 0
M  V30 10423 H 953.235 -3.4528 1.23197 0
M  V30 10424 H 952.883 -4.97846 -0.718222 0
M  V30 10425 H 952.583 -5.81792 0.82416 0
M  V30 10426 H 954.107 -6.10568 -0.0627525 0
M  V30 10427 H 955.521 -5.34353 2.077 0
M  V30 10428 H 953.918 -5.27291 2.86503 0
M  V30 10429 H 954.988 -3.86102 2.93348 0
M  V30 10430 N 956.331 -0.831506 -1.3388 0
M  V30 10431 C 957.241 -0.261688 -2.33136 0
M  V30 10432 C 958.257 0.608429 -1.63016 0
M  V30 10433 O 959.433 0.514297 -1.94723 0
M  V30 10434 C 956.498 0.559957 -3.42148 0
M  V30 10435 C 955.559 -0.333569 -4.28002 0
M  V30 10436 C 954.792 0.448956 -5.31808 0
M  V30 10437 O 955.015 1.6814 -5.45055 0
M  V30 10438 O 953.949 -0.173197 -6.01651 0
M  V30 10439 H 957.775 -1.08343 -2.83717 0
M  V30 10440 H 955.36 -0.593849 -1.3709 0
M  V30 10441 H 957.242 1.02712 -4.08691 0
M  V30 10442 H 955.917 1.35888 -2.93796 0
M  V30 10443 H 954.824 -0.848416 -3.64352 0
M  V30 10444 H 956.157 -1.09707 -4.79818 0
M  V30 10445 N 957.809 1.4625 -0.587256 0
M  V30 10446 C 959.225 1.57641 -0.249284 0
M  V30 10447 C 959.425 1.58169 1.24839 0
M  V30 10448 O 958.481 1.50109 2.03036 0
M  V30 10449 C 959.794 2.86837 -0.902509 0
M  V30 10450 C 961.342 3.00476 -0.876524 0
M  V30 10451 C 961.817 4.32414 -1.50938 0
M  V30 10452 N 963.308 4.39124 -1.47392 0
M  V30 10453 C 964.043 5.39838 -1.93293 0
M  V30 10454 N 963.539 6.47202 -2.47188 0
M  V30 10455 N 965.332 5.31068 -1.84183 0
M  V30 10456 H 957.483 1.44151 -1.55994 0
M  V30 10457 H 959.746 0.687905 -0.652297 0
M  V30 10458 H 959.452 2.92274 -1.95624 0
M  V30 10459 H 959.326 3.74927 -0.413466 0
M  V30 10460 H 961.713 2.94618 0.168601 0
M  V30 10461 H 961.794 2.1385 -1.40363 0
M  V30 10462 H 961.438 4.3903 -2.55372 0
M  V30 10463 H 961.368 5.17823 -0.957455 0
M  V30 10464 H 963.859 3.62138 -1.08002 0
M  V30 10465 H 964.172 7.20269 -2.80058 0
M  V30 10466 H 962.517 6.48009 -2.51216 0
M  V30 10467 H 965.708 4.46095 -1.41833 0
M  V30 10468 H 965.881 6.09414 -2.2027 0
M  V30 10469 N 959.287 0.325282 1.54207 0
M  V30 10470 C 960.533 -0.277185 2.00897 0
M  V30 10471 C 960.866 -1.51651 1.21308 0
M  V30 10472 O 960.141 -1.92237 0.295825 0
M  V30 10473 C 960.424 -0.60961 3.54902 0
M  V30 10474 C 960.277 0.640542 4.45216 0
M  V30 10475 C 961.596 -1.42656 4.16338 0
M  V30 10476 H 958.715 -0.0992722 0.730284 0
M  V30 10477 H 961.357 0.442201 1.84783 0
M  V30 10478 H 959.507 -1.22249 3.68765 0
M  V30 10479 H 961.179 1.27878 4.43221 0
M  V30 10480 H 959.422 1.26908 4.14821 0
M  V30 10481 H 960.093 0.363459 5.50802 0
M  V30 10482 H 962.569 -0.908494 4.06061 0
M  V30 10483 H 961.445 -1.62792 5.24204 0
M  V30 10484 H 961.706 -2.42321 3.69774 0
M  V30 10485 N 960.765 -1.57509 0.0534917 0
M  V30 10486 C 961.712 -2.11667 -0.920101 0
M  V30 10487 C 962.682 -1.0246 -1.30733 0
M  V30 10488 O 963.867 -1.30021 -1.39639 0
M  V30 10489 C 961.007 -2.66803 -2.18883 0
M  V30 10490 C 960.12 -3.90104 -1.85588 0
M  V30 10491 C 959.255 -4.33547 -3.06937 0
M  V30 10492 C 958.294 -5.49542 -2.69573 0
M  V30 10493 N 957.431 -5.88029 -3.83623 0
M  V30 10494 H 962.271 -2.94562 -0.451371 0
M  V30 10495 H 959.808 -1.45576 -0.211168 0
M  V30 10496 H 961.766 -2.96871 -2.93127 0
M  V30 10497 H 960.396 -1.86702 -2.63329 0
M  V30 10498 H 959.448 -3.66613 -1.01484 0
M  V30 10499 H 960.76 -4.74404 -1.54087 0
M  V30 10500 H 959.914 -4.6518 -3.89477 0
M  V30 10501 H 958.653 -3.48064 -3.41618 0
M  V30 10502 H 957.658 -5.17579 -1.8545 0
M  V30 10503 H 958.883 -6.36743 -2.36082 0
M  V30 10504 H 956.829 -5.05498 -4.181 0
M  V30 10505 H 956.746 -6.67025 -3.55828 0
M  V30 10506 H 958.014 -6.24277 -4.66796 0
M  V30 10507 N 962.243 0.219913 -1.56058 0
M  V30 10508 C 963.206 1.25606 -1.91718 0
M  V30 10509 C 964.206 1.39721 -0.795912 0
M  V30 10510 O 965.396 1.37958 -1.06364 0
M  V30 10511 C 962.528 2.62961 -2.16943 0
M  V30 10512 H 963.721 0.951909 -2.84392 0
M  V30 10513 H 961.274 0.460398 -1.49365 0
M  V30 10514 H 962.009 2.98472 -1.26826 0
M  V30 10515 H 961.794 2.54093 -2.98629 0
M  V30 10516 H 963.284 3.37727 -2.45622 0
M  V30 10517 N 963.721 1.49897 0.486681 0
M  V30 10518 C 964.631 1.70379 1.6127 0
M  V30 10519 C 965.647 0.58659 1.63814 0
M  V30 10520 O 966.823 0.863044 1.81971 0
M  V30 10521 C 963.888 1.77911 2.97571 0
M  V30 10522 C 962.949 3.01569 3.0554 0
M  V30 10523 C 962.182 3.08732 4.35339 0
M  V30 10524 O 962.405 2.23099 5.2496 0
M  V30 10525 O 961.339 4.01325 4.48578 0
M  V30 10526 H 965.165 2.65799 1.46916 0
M  V30 10527 H 962.75 1.33808 0.664516 0
M  V30 10528 H 964.632 1.85135 3.78554 0
M  V30 10529 H 963.307 0.856722 3.12157 0
M  V30 10530 H 962.214 2.99854 2.23693 0
M  V30 10531 H 963.547 3.93335 2.95886 0
M  V30 10532 N 965.199 -0.738761 1.39212 0
M  V30 10533 C 966.447 -1.49529 1.35962 0
M  V30 10534 C 966.768 -1.94948 -0.0450152 0
M  V30 10535 O 966.038 -1.68717 -0.995552 0
M  V30 10536 H 964.618 -0.554692 0.500326 0
M  V30 10537 H 967.28 -0.877255 1.74041 0
M  V30 10538 H 966.376 -2.37919 2.01993 0
M  V30 10539 N 966.677 -1.24326 -0.968545 0
M  V30 10540 C 967.607 -1.05951 -2.08079 0
M  V30 10541 C 968.588 0.0272666 -1.70078 0
M  V30 10542 O 969.773 -0.139644 -1.93697 0
M  V30 10543 C 966.903 -0.662623 -3.4092 0
M  V30 10544 C 965.857 -1.69807 -3.92873 0
M  V30 10545 C 965.183 -1.15628 -5.22048 0
M  V30 10546 C 966.483 -3.09383 -4.20808 0
M  V30 10547 H 968.177 -1.98984 -2.23709 0
M  V30 10548 H 965.723 -0.958112 -1.075 0
M  V30 10549 H 967.676 -0.521071 -4.18166 0
M  V30 10550 H 966.4 0.303399 -3.25188 0
M  V30 10551 H 965.059 -1.82783 -3.17783 0
M  V30 10552 H 964.707 -0.180888 -5.02675 0
M  V30 10553 H 964.407 -1.84822 -5.57776 0
M  V30 10554 H 965.931 -1.02683 -6.01904 0
M  V30 10555 H 967.345 -2.99642 -4.88761 0
M  V30 10556 H 965.742 -3.75923 -4.67763 0
M  V30 10557 H 966.812 -3.57486 -3.27616 0
M  V30 10558 N 968.156 1.1691 -1.05688 0
M  V30 10559 C 969.086 2.23275 -0.683402 0
M  V30 10560 C 970.067 1.6704 0.321206 0
M  V30 10561 O 971.252 1.93191 0.197691 0
M  V30 10562 C 968.382 3.47244 -0.0626006 0
M  V30 10563 C 967.336 4.16333 -0.992513 0
M  V30 10564 C 966.662 5.34182 -0.23533 0
M  V30 10565 C 967.962 4.68002 -2.31886 0
M  V30 10566 H 969.656 2.54771 -1.57264 0
M  V30 10567 H 967.202 1.2246 -0.757606 0
M  V30 10568 H 969.155 4.20874 0.210503 0
M  V30 10569 H 967.879 3.1503 0.861616 0
M  V30 10570 H 966.538 3.44622 -1.25026 0
M  V30 10571 H 966.186 4.9822 0.69181 0
M  V30 10572 H 965.886 5.81346 -0.855002 0
M  V30 10573 H 967.41 6.10592 0.0303717 0
M  V30 10574 H 968.824 5.33244 -2.10531 0
M  V30 10575 H 967.221 5.25764 -2.89296 0
M  V30 10576 H 968.291 3.84541 -2.95391 0
M  V30 10577 N 969.634 0.838594 1.33437 0
M  V30 10578 C 970.911 0.356112 1.92331 0
M  V30 10579 C 971.291 -1.1585 1.76471 0
M  V30 10580 O 970.639 -1.97281 1.15293 0
M  V30 10581 C 970.849 0.802715 3.39643 0
M  V30 10582 C 972.197 0.810575 4.16791 0
M  V30 10583 O 973.221 0.746304 3.48294 0
M  V30 10584 O 972.08 0.898082 5.3907 0
M  V30 10585 H 969.174 0.100711 0.820845 0
M  V30 10586 H 971.72 0.924428 1.42311 0
M  V30 10587 H 970.492 1.84529 3.45057 0
M  V30 10588 H 970.115 0.210956 3.9704 0
M  V30 10589 N 971.112 -1.45937 0.595003 0
M  V30 10590 C 972.358 -2.0262 0.0854317 0
M  V30 10591 C 972.691 -1.46402 -1.27594 0
M  V30 10592 O 971.966 -0.633823 -1.83883 0
M  V30 10593 C 972.249 -3.60085 0.0329075 0
M  V30 10594 C 972.102 -4.26663 1.42405 0
M  V30 10595 C 973.421 -4.35101 -0.661426 0
M  V30 10596 H 970.54 -0.736282 0.0325196 0
M  V30 10597 H 973.182 -1.73938 0.764563 0
M  V30 10598 H 971.332 -3.84652 -0.545439 0
M  V30 10599 H 973.004 -4.13321 2.04851 0
M  V30 10600 H 971.247 -3.85549 1.98833 0
M  V30 10601 H 971.918 -5.35497 1.33965 0
M  V30 10602 H 974.394 -4.15753 -0.169977 0
M  V30 10603 H 973.27 -5.44829 -0.667243 0
M  V30 10604 H 973.531 -4.07053 -1.72513 0
M  V30 10605 N 972.59 -0.333456 -1.54032 0
M  V30 10606 C 973.837 0.266133 -2.00744 0
M  V30 10607 C 974.165 1.51361 -1.22148 0
M  V30 10608 O 973.42 1.93473 -0.294368 0
M  V30 10609 C 973.719 0.63565 -3.51702 0
M  V30 10610 C 973.385 -0.513786 -4.47963 0
M  V30 10611 C 972.047 -0.829253 -4.74001 0
M  V30 10612 C 974.399 -1.2854 -5.05101 0
M  V30 10613 C 971.727 -1.91888 -5.54433 0
M  V30 10614 C 974.079 -2.3652 -5.86721 0
M  V30 10615 C 972.743 -2.68637 -6.11057 0
M  V30 10616 H 972.013 0.097385 -0.734573 0
M  V30 10617 H 974.66 -0.459282 -1.85911 0
M  V30 10618 H 972.965 1.44163 -3.64313 0
M  V30 10619 H 974.662 1.11129 -3.85294 0
M  V30 10620 H 971.252 -0.25784 -4.27824 0
M  V30 10621 H 975.436 -1.05494 -4.84958 0
M  V30 10622 H 970.692 -2.17208 -5.71516 0
M  V30 10623 H 974.866 -2.96747 -6.30011 0
M  V30 10624 H 972.493 -3.53197 -6.73169 0
M  V30 10625 N 974.068 1.57479 -0.061844 0
M  V30 10626 C 975 2.09116 0.938245 0
M  V30 10627 C 976.013 1.0212 1.26788 0
M  V30 10628 O 977.202 1.2966 1.22681 0
M  V30 10629 C 974.302 2.52822 2.25686 0
M  V30 10630 C 973.475 3.83277 2.10755 0
M  V30 10631 C 972.534 4.13182 3.25833 0
M  V30 10632 O 971.56 4.82937 3.01265 0
M  V30 10633 N 972.762 3.65938 4.50633 0
M  V30 10634 H 975.527 2.95543 0.497433 0
M  V30 10635 H 973.088 1.61423 0.124134 0
M  V30 10636 H 975.08 2.69896 3.01559 0
M  V30 10637 H 973.65 1.71586 2.61299 0
M  V30 10638 H 972.87 3.7568 1.19409 0
M  V30 10639 H 974.158 4.68686 1.98018 0
M  V30 10640 H 973.556 3.09566 4.73482 0
M  V30 10641 H 972.113 3.8823 5.23565 0
M  V30 10642 N 975.546 -0.211634 1.56173 0
M  V30 10643 C 976.509 -1.24588 1.92381 0
M  V30 10644 C 977.509 -1.39297 0.803311 0
M  V30 10645 O 978.699 -1.37392 1.07094 0
M  V30 10646 C 975.831 -2.61807 2.18335 0
M  V30 10647 H 977.024 -0.936814 2.84893 0
M  V30 10648 H 974.577 -0.452471 1.49607 0
M  V30 10649 H 975.312 -2.97795 1.28407 0
M  V30 10650 H 975.097 -2.52506 2.99972 0
M  V30 10651 H 976.587 -3.3642 2.4741 0
M  V30 10652 N 977.024 -1.50153 -0.478725 0
M  V30 10653 C 978.27 -1.60998 -1.23318 0
M  V30 10654 C 978.603 -0.305868 -1.91776 0
M  V30 10655 O 977.878 0.692158 -1.81767 0
M  V30 10656 C 978.161 -2.78495 -2.28282 0
M  V30 10657 C 978.014 -4.18767 -1.64178 0
M  V30 10658 C 979.333 -2.91569 -3.2966 0
M  V30 10659 H 976.452 -0.585983 -0.446982 0
M  V30 10660 H 979.094 -1.82514 -0.528063 0
M  V30 10661 H 977.244 -2.60281 -2.8842 0
M  V30 10662 H 978.916 -4.48552 -1.07696 0
M  V30 10663 H 977.159 -4.23379 -0.94514 0
M  V30 10664 H 977.83 -4.96894 -2.40417 0
M  V30 10665 H 980.306 -3.08219 -2.79536 0
M  V30 10666 H 979.182 -3.75419 -4.0044 0
M  V30 10667 H 979.443 -2.01859 -3.93326 0
M  V30 10668 N 978.502 0.731368 -1.39602 0
M  V30 10669 C 979.449 1.84541 -1.38612 0
M  V30 10670 C 980.419 1.64279 -0.245287 0
M  V30 10671 O 981.604 1.85635 -0.440954 0
M  V30 10672 C 978.744 3.22092 -1.23897 0
M  V30 10673 C 977.857 3.54034 -2.47555 0
M  V30 10674 C 976.992 4.81007 -2.25402 0
M  V30 10675 C 976.031 5.05804 -3.44716 0
M  V30 10676 N 975.168 6.23981 -3.21857 0
M  V30 10677 H 980.008 1.84722 -2.33841 0
M  V30 10678 H 977.545 0.902569 -1.16156 0
M  V30 10679 H 979.503 4.01499 -1.13376 0
M  V30 10680 H 978.133 3.2118 -0.322958 0
M  V30 10681 H 977.185 2.69301 -2.68665 0
M  V30 10682 H 978.497 3.68275 -3.36415 0
M  V30 10683 H 977.651 5.68401 -2.12143 0
M  V30 10684 H 976.39 4.68946 -1.33943 0
M  V30 10685 H 975.395 4.1687 -3.58468 0
M  V30 10686 H 976.62 5.19747 -4.37081 0
M  V30 10687 H 974.566 6.13202 -2.33065 0
M  V30 10688 H 974.483 6.38826 -4.04274 0
M  V30 10689 H 975.751 7.14205 -3.123 0
M  V30 10690 N 979.98 1.24838 0.961938 0
M  V30 10691 C 981.205 1.11967 1.7458 0
M  V30 10692 C 981.63 -0.323287 1.85301 0
M  V30 10693 O 980.988 -1.23412 1.32812 0
M  V30 10694 C 981.036 1.77066 3.14134 0
M  V30 10695 O 980.14 1.04534 3.98932 0
M  V30 10696 H 979.481 0.391338 0.536424 0
M  V30 10697 H 982.011 1.65259 1.20626 0
M  V30 10698 H 982.021 1.83056 3.64629 0
M  V30 10699 H 980.696 2.82052 3.05646 0
M  V30 10700 H 979.273 1.06372 3.57407 0
M  V30 10701 N 981.458 -1.16348 1.06306 0
M  V30 10702 C 982.388 -2.2291 0.695234 0
M  V30 10703 C 983.369 -1.67208 -0.312343 0
M  V30 10704 O 984.554 -1.93293 -0.187442 0
M  V30 10705 C 981.684 -3.47205 0.0810149 0
M  V30 10706 C 980.638 -4.15801 1.01458 0
M  V30 10707 C 979.964 -5.3405 0.263656 0
M  V30 10708 C 981.264 -4.66766 2.34365 0
M  V30 10709 H 982.958 -2.53934 1.58613 0
M  V30 10710 H 980.504 -1.22056 0.76409 0
M  V30 10711 H 982.457 -4.2098 -0.18818 0
M  V30 10712 H 981.181 -3.15482 -0.844897 0
M  V30 10713 H 979.84 -3.43954 1.26852 0
M  V30 10714 H 979.488 -4.9858 -0.665378 0
M  V30 10715 H 979.188 -5.80885 0.88582 0
M  V30 10716 H 980.712 -6.106 0.00200994 0
M  V30 10717 H 982.126 -5.3212 2.13356 0
M  V30 10718 H 980.523 -5.24223 2.9208 0
M  V30 10719 H 981.593 -3.82969 2.97426 0
M  V30 10720 N 982.937 -0.845659 -1.3299 0
M  V30 10721 C 984.353 -0.53433 -1.5039 0
M  V30 10722 C 984.553 0.936939 -1.78392 0
M  V30 10723 O 983.609 1.72043 -1.84818 0
M  V30 10724 C 984.922 -1.41354 -2.65404 0
M  V30 10725 C 986.47 -1.41303 -2.79289 0
M  V30 10726 C 986.945 -2.27724 -3.97373 0
M  V30 10727 N 988.436 -2.25471 -4.0462 0
M  V30 10728 C 989.171 -2.89074 -4.95201 0
M  V30 10729 N 988.667 -3.61755 -5.90851 0
M  V30 10730 N 990.46 -2.78508 -4.88251 0
M  V30 10731 H 982.611 -1.79798 -1.13078 0
M  V30 10732 H 984.874 -0.767454 -0.556524 0
M  V30 10733 H 984.58 -2.45936 -2.51413 0
M  V30 10734 H 984.454 -1.09445 -3.60973 0
M  V30 10735 H 986.841 -0.374899 -2.92709 0
M  V30 10736 H 986.922 -1.77222 -1.84461 0
M  V30 10737 H 986.566 -3.316 -3.84713 0
M  V30 10738 H 986.496 -1.89142 -4.9146 0
M  V30 10739 H 988.987 -1.72622 -3.3617 0
M  V30 10740 H 989.3 -4.07475 -6.56646 0
M  V30 10741 H 987.645 -3.65863 -5.90906 0
M  V30 10742 H 990.836 -2.21285 -4.12493 0
M  V30 10743 H 991.009 -3.2836 -5.58645 0
M  V30 10744 N 984.415 1.45619 -0.602734 0
M  V30 10745 C 985.345 2.33258 0.106342 0
M  V30 10746 C 986.326 1.46543 0.863664 0
M  V30 10747 O 987.511 1.75324 0.835175 0
M  V30 10748 C 984.641 3.29168 1.10751 0
M  V30 10749 C 983.595 4.25481 0.463717 0
M  V30 10750 C 982.921 5.11046 1.57278 0
M  V30 10751 C 984.221 5.18702 -0.61199 0
M  V30 10752 H 985.915 2.92795 -0.625423 0
M  V30 10753 H 983.461 1.40793 -0.302213 0
M  V30 10754 H 985.414 3.89346 1.61208 0
M  V30 10755 H 984.138 2.6778 1.8698 0
M  V30 10756 H 982.797 3.66595 -0.0199496 0
M  V30 10757 H 982.445 4.46029 2.32524 0
M  V30 10758 H 982.145 5.76286 1.14755 0
M  V30 10759 H 983.669 5.74091 2.07972 0
M  V30 10760 H 985.083 5.72979 -0.191686 0
M  V30 10761 H 983.48 5.92393 -0.958686 0
M  V30 10762 H 984.55 4.61424 -1.4905 0
M  V30 10763 N 985.893 0.34162 1.53853 0
M  V30 10764 C 986.825 -0.550383 2.22494 0
M  V30 10765 C 987.838 -1.0655 1.23089 0
M  V30 10766 O 989.027 -0.975985 1.49455 0
M  V30 10767 C 986.127 -1.76995 2.89009 0
M  V30 10768 C 985.3 -1.39045 4.14711 0
M  V30 10769 C 984.359 -2.46947 4.64654 0
M  V30 10770 O 983.385 -2.10336 5.28912 0
M  V30 10771 N 984.587 -3.7817 4.40418 0
M  V30 10772 H 987.352 0.037456 2.99677 0
M  V30 10773 H 984.913 0.165654 1.6105 0
M  V30 10774 H 986.905 -2.48608 3.19337 0
M  V30 10775 H 985.475 -2.2652 2.15424 0
M  V30 10776 H 984.695 -0.505161 3.9095 0
M  V30 10777 H 985.983 -1.11284 4.96481 0
M  V30 10778 H 985.381 -4.10704 3.89023 0
M  V30 10779 H 983.938 -4.45959 4.75356 0
M  V30 10780 N 987.371 -1.57444 0.0701946 0
M  V30 10781 C 988.787 -1.57009 -0.286431 0
M  V30 10782 C 988.987 -1.07946 -1.70147 0
M  V30 10783 O 988.043 -0.744622 -2.41271 0
M  V30 10784 C 989.356 -3.00542 -0.0975466 0
M  V30 10785 C 990.904 -3.12553 -0.167205 0
M  V30 10786 C 991.379 -4.58 -0.00662047 0
M  V30 10787 N 992.87 -4.63158 -0.0622778 0
M  V30 10788 C 993.605 -5.73388 0.0375831 0
M  V30 10789 N 993.101 -6.92537 0.190873 0
M  V30 10790 N 994.894 -5.62097 -0.0193672 0
M  V30 10791 H 987.045 -1.87651 0.995023 0
M  V30 10792 H 989.308 -0.865006 0.387902 0
M  V30 10793 H 989.014 -3.40543 0.878822 0
M  V30 10794 H 988.888 -3.67485 -0.850547 0
M  V30 10795 H 991.275 -2.72439 -1.13406 0
M  V30 10796 H 991.356 -2.48251 0.616871 0
M  V30 10797 H 991 -4.98803 0.956992 0
M  V30 10798 H 990.93 -5.20332 -0.810081 0
M  V30 10799 H 993.421 -3.77475 -0.179229 0
M  V30 10800 H 993.734 -7.72365 0.25926 0
M  V30 10801 H 992.079 -6.94632 0.226214 0
M  V30 10802 H 995.27 -4.67897 -0.137815 0
M  V30 10803 H 995.443 -6.4797 0.0619121 0
M  V30 10804 N 988.849 0.203349 -1.56283 0
M  V30 10805 C 990.26 0.768764 -1.70138 0
M  V30 10806 C 990.611 1.8421 -0.675358 0
M  V30 10807 O 989.736 2.15732 0.1699 0
M  V30 10808 C 990.331 1.40123 -3.08466 0
M  V30 10809 C 988.89 1.91382 -3.24114 0
M  V30 10810 C 988.037 0.780685 -2.66084 0
M  V30 10811 H 990.988 -0.0215997 -1.58685 0
M  V30 10812 H 991.009 2.27046 -3.05336 0
M  V30 10813 H 990.521 0.619805 -3.83119 0
M  V30 10814 H 988.622 2.7227 -2.54362 0
M  V30 10815 H 988.735 2.08128 -4.31531 0
M  V30 10816 H 987.099 1.19281 -2.25042 0
M  V30 10817 H 987.882 0.0116351 -3.43298 0
M  V30 10818 N 990.327 1.50405 0.470755 0
M  V30 10819 C 991.277 1.65681 1.56633 0
M  V30 10820 C 992.261 0.511424 1.52556 0
M  V30 10821 O 993.453 0.765844 1.59574 0
M  V30 10822 C 990.582 1.7546 2.95074 0
M  V30 10823 C 989.668 2.95676 3.04034 0
M  V30 10824 N 990.059 4.1935 2.82807 0
M  V30 10825 C 988.357 2.94241 3.35169 0
M  V30 10826 C 989.058 5.0032 2.96741 0
M  V30 10827 N 988.034 4.34282 3.26956 0
M  V30 10828 H 991.836 2.58994 1.38922 0
M  V30 10829 H 989.35 1.47593 0.67749 0
M  V30 10830 H 991.347 1.84508 3.73848 0
M  V30 10831 H 990.007 0.833057 3.13832 0
M  V30 10832 H 991.018 4.48842 2.58382 0
M  V30 10833 H 987.695 2.11587 3.59913 0
M  V30 10834 H 989.085 6.08664 2.84566 0
M  V30 10835 N 991.805 -0.723954 1.39988 0
M  V30 10836 C 992.738 -1.84725 1.33985 0
M  V30 10837 C 993.716 -1.61217 0.211623 0
M  V30 10838 O 994.9 -1.84338 0.393905 0
M  V30 10839 C 992.027 -3.20913 1.08317 0
M  V30 10840 C 991.073 -3.63262 2.23478 0
M  V30 10841 S 991.906 -3.71346 3.85827 0
M  V30 10842 C 993.062 -5.10307 3.62405 0
M  V30 10843 H 993.295 -1.89535 2.2905 0
M  V30 10844 H 990.828 -0.889911 1.26174 0
M  V30 10845 H 992.786 -3.99547 0.941921 0
M  V30 10846 H 991.447 -3.13745 0.149203 0
M  V30 10847 H 990.64 -4.62124 2.01139 0
M  V30 10848 H 990.242 -2.91863 2.33863 0
M  V30 10849 H 992.534 -5.96975 3.20354 0
M  V30 10850 H 993.477 -5.37679 4.60768 0
M  V30 10851 H 993.885 -4.80505 2.96269 0
M  V30 10852 N 993.283 -1.25346 -0.955304 0
M  V30 10853 C 994.529 -1.10218 -1.70235 0
M  V30 10854 C 994.862 0.356124 -1.90907 0
M  V30 10855 O 994.137 1.26253 -1.47954 0
M  V30 10856 C 994.42 -1.85627 -3.08569 0
M  V30 10857 C 994.273 -3.39281 -2.95311 0
M  V30 10858 C 995.592 -1.63886 -4.08448 0
M  V30 10859 H 992.711 -0.401781 -0.617852 0
M  V30 10860 H 995.353 -1.5417 -1.11048 0
M  V30 10861 H 993.503 -1.48269 -3.59094 0
M  V30 10862 H 995.175 -3.8631 -2.52116 0
M  V30 10863 H 993.418 -3.67027 -2.31244 0
M  V30 10864 H 994.089 -3.87258 -3.93364 0
M  V30 10865 H 996.565 -1.96406 -3.6683 0
M  V30 10866 H 995.441 -2.19087 -5.03281 0
M  V30 10867 H 995.702 -0.580021 -4.38279 0
M  V30 10868 N 994.761 1.15782 -1.06922 0
M  V30 10869 C 995.693 2.19978 -0.643604 0
M  V30 10870 C 996.706 1.59981 0.301653 0
M  V30 10871 O 997.895 1.78265 0.0916508 0
M  V30 10872 C 994.995 3.38815 0.0757973 0
M  V30 10873 C 994.168 4.28363 -0.884545 0
M  V30 10874 C 993.227 5.25807 -0.203233 0
M  V30 10875 O 992.253 5.62924 -0.842904 0
M  V30 10876 N 993.455 5.70874 1.05279 0
M  V30 10877 H 996.22 2.57112 -1.53992 0
M  V30 10878 H 993.781 1.30855 -0.953344 0
M  V30 10879 H 995.773 4.01052 0.542151 0
M  V30 10880 H 994.343 3.00133 0.874 0
M  V30 10881 H 993.563 3.63292 -1.53012 0
M  V30 10882 H 994.851 4.85067 -1.53581 0
M  V30 10883 H 994.249 5.42822 1.5925 0
M  V30 10884 H 992.806 6.35171 1.46289 0
M  V30 10885 N 996.239 0.8527 1.3254 0
M  V30 10886 C 997.467 0.469044 2.01513 0
M  V30 10887 C 997.882 -0.933701 1.64096 0
M  V30 10888 O 997.239 -1.60898 0.861283 0
M  V30 10889 C 997.29 0.596228 3.56549 0
M  V30 10890 O 997.011 1.94371 3.92621 0
M  V30 10891 C 998.512 0.211324 4.42796 0
M  V30 10892 H 995.732 0.184589 0.645111 0
M  V30 10893 H 998.276 1.1491 1.69163 0
M  V30 10894 H 996.431 -0.0360712 3.87383 0
M  V30 10895 H 996.845 1.93909 4.87339 0
M  V30 10896 H 998.319 0.351324 5.50881 0
M  V30 10897 H 998.796 -0.848055 4.30935 0
M  V30 10898 H 999.402 0.818617 4.17347 0
M  V30 10899 N 997.718 -1.45297 0.610449 0
M  V30 10900 C 998.648 -2.33311 -0.0939698 0
M  V30 10901 C 999.629 -1.46999 -0.85588 0
M  V30 10902 O 1000.81 -1.75764 -0.825865 0
M  V30 10903 C 997.944 -3.29751 -1.09003 0
M  V30 10904 C 996.898 -4.2572 -0.441146 0
M  V30 10905 C 996.224 -5.11873 -1.54566 0
M  V30 10906 C 997.524 -5.1837 0.639489 0
M  V30 10907 H 999.218 -2.92459 0.640941 0
M  V30 10908 H 996.764 -1.40631 0.309675 0
M  V30 10909 H 998.717 -3.90195 -1.59141 0
M  V30 10910 H 997.441 -2.68768 -1.85557 0
M  V30 10911 H 996.1 -3.66579 0.0393908 0
M  V30 10912 H 995.748 -4.47256 -2.30155 0
M  V30 10913 H 995.448 -5.76886 -1.11698 0
M  V30 10914 H 996.972 -5.75185 -2.04925 0
M  V30 10915 H 998.386 -5.7287 0.22207 0
M  V30 10916 H 996.783 -5.91876 0.990089 0
M  V30 10917 H 997.853 -4.60627 1.51495 0
M  V30 10918 N 999.196 -0.349774 -1.5367 0
M  V30 10919 C 1000.11 0.512421 -2.28935 0
M  V30 10920 C 1001.12 1.1065 -1.34286 0
M  V30 10921 O 1002.3 1.12084 -1.67329 0
M  V30 10922 C 999.363 1.64449 -3.05217 0
M  V30 10923 C 998.424 1.07956 -4.15505 0
M  V30 10924 C 997.657 2.15768 -4.88139 0
M  V30 10925 O 997.88 3.366 -4.60496 0
M  V30 10926 O 996.814 1.79712 -5.74445 0
M  V30 10927 H 1000.64 -0.0996001 -3.03537 0
M  V30 10928 H 998.225 -0.114629 -1.4896 0
M  V30 10929 H 1000.11 2.30302 -3.52901 0
M  V30 10930 H 998.782 2.24221 -2.33467 0
M  V30 10931 H 997.689 0.385381 -3.7211 0
M  V30 10932 H 999.022 0.526621 -4.89375 0
M  V30 10933 N 1000.67 1.57404 -0.0785433 0
M  V30 10934 C 1001.61 2.101 0.916013 0
M  V30 10935 C 1002.62 1.03459 1.25698 0
M  V30 10936 O 1003.81 1.30954 1.21299 0
M  V30 10937 C 1000.91 2.55202 2.22992 0
M  V30 10938 C 1000.08 3.85491 2.06678 0
M  V30 10939 C 999.14 4.16614 3.21433 0
M  V30 10940 O 998.166 4.86105 2.96126 0
M  V30 10941 N 999.368 3.70697 4.46726 0
M  V30 10942 H 1002.13 2.96054 0.466059 0
M  V30 10943 H 999.694 1.61546 0.107006 0
M  V30 10944 H 1001.69 2.7308 2.9868 0
M  V30 10945 H 1000.26 1.74348 2.59464 0
M  V30 10946 H 999.476 3.76925 1.15417 0
M  V30 10947 H 1000.76 4.70759 1.93036 0
M  V30 10948 H 1000.16 3.14571 4.70172 0
M  V30 10949 H 998.719 3.93762 5.19418 0
M  V30 10950 N 1002.15 -0.195058 1.56388 0
M  V30 10951 C 1003.38 -0.930291 1.8447 0
M  V30 10952 C 1003.79 -1.77356 0.658901 0
M  V30 10953 O 1003.13 -1.79691 -0.381664 0
M  V30 10954 C 1003.19 -1.87626 3.06654 0
M  V30 10955 C 1002.86 -1.21494 4.40555 0
M  V30 10956 C 1003.86 -0.591847 5.1652 0
M  V30 10957 C 1001.54 -1.21878 4.8729 0
M  V30 10958 C 1003.53 0.0185743 6.37397 0
M  V30 10959 C 1001.22 -0.604524 6.08103 0
M  V30 10960 C 1002.22 0.0130731 6.82999 0
M  V30 10961 O 1001.91 0.617703 8.01523 0
M  V30 10962 H 1001.64 -0.276933 0.616672 0
M  V30 10963 H 1004.19 -0.207277 2.04351 0
M  V30 10964 H 1002.42 -2.63897 2.82658 0
M  V30 10965 H 1004.11 -2.47929 3.21382 0
M  V30 10966 H 1004.88 -0.581018 4.81507 0
M  V30 10967 H 1000.76 -1.68888 4.2895 0
M  V30 10968 H 1004.3 0.50124 6.95797 0
M  V30 10969 H 1000.2 -0.612855 6.42584 0
M  V30 10970 H 1000.97 0.514612 8.16881 0
M  V30 10971 N 1003.63 -1.50653 -0.462772 0
M  V30 10972 C 1004.54 -1.72923 -1.58539 0
M  V30 10973 C 1005.56 -0.612577 -1.6286 0
M  V30 10974 O 1006.73 -0.891885 -1.80575 0
M  V30 10975 C 1003.8 -1.82623 -2.94703 0
M  V30 10976 C 1002.86 -3.06392 -3.00704 0
M  V30 10977 C 1002.09 -3.15618 -4.30373 0
M  V30 10978 O 1002.31 -2.31423 -5.21344 0
M  V30 10979 O 1001.25 -4.0841 -4.42136 0
M  V30 10980 H 1005.07 -2.68103 -1.42669 0
M  V30 10981 H 1002.66 -1.34848 -0.643144 0
M  V30 10982 H 1004.54 -1.91134 -3.7556 0
M  V30 10983 H 1003.22 -0.906275 -3.10754 0
M  V30 10984 H 1002.12 -3.03375 -2.18894 0
M  V30 10985 H 1003.46 -3.97992 -2.89591 0
M  V30 10986 N 1005.11 0.71652 -1.4037 0
M  V30 10987 C 1006.36 1.47638 -1.38597 0
M  V30 10988 C 1006.68 1.94496 0.0120141 0
M  V30 10989 O 1005.94 1.68437 0.996373 0
M  V30 10990 C 1006.24 2.71777 -2.32103 0
M  V30 10991 C 1005.9 2.43689 -3.79376 0
M  V30 10992 C 1004.57 2.35739 -4.195 0
M  V30 10993 C 1006.92 2.20099 -4.72447 0
M  V30 10994 C 1004.25 2.02265 -5.50732 0
M  V30 10995 C 1006.6 1.88138 -6.03976 0
M  V30 10996 C 1005.26 1.78669 -6.43143 0
M  V30 10997 H 1004.53 0.540246 -0.507163 0
M  V30 10998 H 1007.18 0.820822 -1.73017 0
M  V30 10999 H 1005.48 3.42166 -1.90865 0
M  V30 11000 H 1007.18 3.29864 -2.28015 0
M  V30 11001 H 1003.77 2.50763 -3.47585 0
M  V30 11002 H 1007.95 2.25198 -4.42266 0
M  V30 11003 H 1003.21 1.93471 -5.79982 0
M  V30 11004 H 1007.38 1.68898 -6.75608 0
M  V30 11005 H 1005.01 1.52498 -7.44747 0
M  V30 11006 N 1006.59 1.25851 0.948643 0
M  V30 11007 C 1007.83 1.12166 1.70874 0
M  V30 11008 C 1008.19 -0.330734 1.8913 0
M  V30 11009 O 1009.39 -0.58954 2.62255 0
M  V30 11010 C 1007.66 1.86162 3.05088 0
M  V30 11011 S 1009.22 1.88441 3.96277 0
M  V30 11012 H 1006.04 0.400803 0.587263 0
M  V30 11013 H 1008.64 1.59463 1.13101 0
M  V30 11014 H 1007.35 2.90916 2.89476 0
M  V30 11015 H 1006.88 1.39276 3.67921 0
M  V30 11016 H 1008.89 0.96575 4.86711 0
M  V30 11017 N 1008.06 -1.15214 1.07534 0
M  V30 11018 C 1009.29 -1.89647 0.819614 0
M  V30 11019 C 1009.7 -1.78365 -0.631072 0
M  V30 11020 O 1009.05 -1.1346 -1.44474 0
M  V30 11021 C 1009.11 -3.40573 1.1511 0
M  V30 11022 C 1008.77 -3.7564 2.60276 0
M  V30 11023 C 1009.77 -3.76507 3.58523 0
M  V30 11024 C 1007.45 -4.05891 2.95901 0
M  V30 11025 C 1009.45 -4.07133 4.9043 0
M  V30 11026 C 1007.13 -4.36182 4.28005 0
M  V30 11027 C 1008.13 -4.36785 5.25079 0
M  V30 11028 O 1007.82 -4.66348 6.54809 0
M  V30 11029 H 1007.55 -0.607836 0.295822 0
M  V30 11030 H 1010.11 -1.46895 1.43565 0
M  V30 11031 H 1008.34 -3.83734 0.478033 0
M  V30 11032 H 1010.03 -3.96299 0.877615 0
M  V30 11033 H 1010.79 -3.53233 3.32342 0
M  V30 11034 H 1006.67 -4.0458 2.20989 0
M  V30 11035 H 1010.21 -4.07519 5.66193 0
M  V30 11036 H 1006.11 -4.58924 4.53937 0
M  V30 11037 H 1006.88 -4.84105 6.59988 0
M  V30 11038 N 1009.54 -0.859717 -1.32086 0
M  V30 11039 C 1010.49 -0.306042 -2.28762 0
M  V30 11040 C 1011.46 0.589801 -1.55276 0
M  V30 11041 O 1012.64 0.523633 -1.83474 0
M  V30 11042 C 1009.78 0.495256 -3.41528 0
M  V30 11043 C 1008.9 -0.426947 -4.29885 0
M  V30 11044 C 1008.03 0.387474 -5.29785 0
M  V30 11045 C 1007.07 -0.531807 -6.09785 0
M  V30 11046 N 1006.21 0.245741 -7.0167 0
M  V30 11047 H 1011.05 -1.1357 -2.7551 0
M  V30 11048 H 1008.59 -0.571468 -1.35546 0
M  V30 11049 H 1010.54 0.97551 -4.05635 0
M  V30 11050 H 1009.17 1.28969 -2.95917 0
M  V30 11051 H 1008.23 -1.02561 -3.66313 0
M  V30 11052 H 1009.54 -1.13226 -4.85779 0
M  V30 11053 H 1008.69 0.930677 -5.99519 0
M  V30 11054 H 1007.43 1.12612 -4.74521 0
M  V30 11055 H 1006.44 -1.08685 -5.3895 0
M  V30 11056 H 1007.66 -1.26915 -6.67135 0
M  V30 11057 H 1005.61 0.967391 -6.48828 0
M  V30 11058 H 1005.52 -0.400432 -7.54939 0
M  V30 11059 H 1006.79 0.770507 -7.75683 0
M  V30 11060 N 1011.02 1.44971 -0.618145 0
M  V30 11061 C 1012.27 2.02458 -0.117656 0
M  V30 11062 C 1012.6 1.48413 1.25248 0
M  V30 11063 O 1011.87 0.662997 1.82851 0
M  V30 11064 C 1012.16 3.59987 -0.0901897 0
M  V30 11065 C 1012.01 4.24343 -1.49175 0
M  V30 11066 C 1013.33 4.36099 0.592121 0
M  V30 11067 H 1010.45 0.735672 -0.0442291 0
M  V30 11068 H 1013.09 1.727 -0.792138 0
M  V30 11069 H 1011.24 3.85471 0.484175 0
M  V30 11070 H 1012.91 4.10009 -2.114 0
M  V30 11071 H 1011.16 3.82337 -2.04941 0
M  V30 11072 H 1011.83 5.33298 -1.42468 0
M  V30 11073 H 1014.3 4.1597 0.103813 0
M  V30 11074 H 1013.18 5.45822 0.580481 0
M  V30 11075 H 1013.44 4.09746 1.66015 0
M  V30 11076 N 1012.5 0.357919 1.53482 0
M  V30 11077 C 1013.74 -0.23451 2.0144 0
M  V30 11078 C 1014.08 -1.49044 1.24497 0
M  V30 11079 O 1013.35 -1.91566 0.336535 0
M  V30 11080 C 1013.64 -0.534193 3.56116 0
M  V30 11081 C 1013.49 0.734834 4.43757 0
M  V30 11082 C 1014.81 -1.33793 4.1927 0
M  V30 11083 H 1011.93 -0.0837595 0.732225 0
M  V30 11084 H 1014.57 0.481297 1.83803 0
M  V30 11085 H 1012.72 -1.144 3.71275 0
M  V30 11086 H 1014.39 1.37251 4.40409 0
M  V30 11087 H 1012.63 1.35678 4.12036 0
M  V30 11088 H 1013.3 0.48021 5.49907 0
M  V30 11089 H 1015.78 -0.822158 4.07897 0
M  V30 11090 H 1014.66 -1.51636 5.27539 0
M  V30 11091 H 1014.92 -2.34423 3.74831 0
M  V30 11092 N 1013.98 -1.5736 0.0868897 0
M  V30 11093 C 1014.91 -2.10582 -0.904858 0
M  V30 11094 C 1015.92 -1.04124 -1.25148 0
M  V30 11095 O 1017.11 -1.31595 -1.20603 0
M  V30 11096 C 1014.21 -2.56381 -2.21635 0
M  V30 11097 C 1013.38 -3.86581 -2.04631 0
M  V30 11098 C 1012.44 -4.18313 -3.19219 0
M  V30 11099 O 1011.47 -4.87669 -2.93544 0
M  V30 11100 N 1012.67 -3.73061 -4.44754 0
M  V30 11101 H 1015.44 -2.96297 -0.450352 0
M  V30 11102 H 1013 -1.616 -0.0984376 0
M  V30 11103 H 1014.99 -2.7466 -2.97227 0
M  V30 11104 H 1013.56 -1.75721 -2.58536 0
M  V30 11105 H 1012.78 -3.77532 -1.13417 0
M  V30 11106 H 1014.07 -4.71777 -1.90537 0
M  V30 11107 H 1013.46 -3.1706 -4.68497 0
M  V30 11108 H 1012.02 -3.96511 -5.17322 0
M  V30 11109 N 1015.45 0.186762 -1.56489 0
M  V30 11110 C 1016.73 0.932229 -1.71956 0
M  V30 11111 C 1017.11 2.01037 -0.644006 0
M  V30 11112 O 1016.46 2.259 0.343694 0
M  V30 11113 C 1016.67 1.51106 -3.14592 0
M  V30 11114 C 1018.02 1.98997 -3.75081 0
M  V30 11115 O 1019.04 1.60931 -3.17773 0
M  V30 11116 O 1017.9 2.69067 -4.75673 0
M  V30 11117 H 1014.99 0.437736 -0.701652 0
M  V30 11118 H 1017.54 0.175803 -1.68787 0
M  V30 11119 H 1016.31 0.734327 -3.84348 0
M  V30 11120 H 1015.94 2.33209 -3.22024 0
M  V30 11121 N 1016.93 1.50896 0.454776 0
M  V30 11122 C 1018.18 1.62699 1.20562 0
M  V30 11123 C 1018.51 0.334943 1.91594 0
M  V30 11124 O 1017.76 -0.680106 1.83502 0
M  V30 11125 C 1018.06 2.76839 2.26042 0
M  V30 11126 C 1017.73 4.16745 1.72147 0
M  V30 11127 C 1016.39 4.54809 1.5717 0
M  V30 11128 C 1018.74 5.04118 1.32341 0
M  V30 11129 C 1016.07 5.7797 1.00835 0
M  V30 11130 C 1018.42 6.27842 0.774419 0
M  V30 11131 C 1017.09 6.64694 0.611415 0
M  V30 11132 H 1016.36 0.595358 0.441169 0
M  V30 11133 H 1019 1.84879 0.499202 0
M  V30 11134 H 1017.31 2.48812 3.02655 0
M  V30 11135 H 1019 2.83173 2.83926 0
M  V30 11136 H 1015.59 3.86725 1.84775 0
M  V30 11137 H 1019.78 4.75331 1.42739 0
M  V30 11138 H 1015.03 6.05183 0.869669 0
M  V30 11139 H 1019.21 6.94896 0.457389 0
M  V30 11140 H 1016.84 7.60004 0.172751 0
M  V30 11141 N 1018.41 -0.709066 1.40748 0
M  V30 11142 C 1019.66 -1.4646 1.38681 0
M  V30 11143 C 1019.97 -1.95599 -0.0056209 0
M  V30 11144 O 1021.18 -2.71091 -0.148907 0
M  V30 11145 C 1019.63 -2.64771 2.43771 0
M  V30 11146 C 1019.24 -2.22474 3.88856 0
M  V30 11147 C 1020.99 -3.42475 2.50821 0
M  V30 11148 C 1018.89 -3.37663 4.85528 0
M  V30 11149 H 1017.82 -0.550084 0.515678 0
M  V30 11150 H 1020.47 -0.771074 1.66513 0
M  V30 11151 H 1018.86 -3.36325 2.09048 0
M  V30 11152 H 1020.03 -1.58297 4.32757 0
M  V30 11153 H 1018.35 -1.57798 3.85342 0
M  V30 11154 H 1020.94 -4.28201 3.20232 0
M  V30 11155 H 1021.29 -3.86738 1.54076 0
M  V30 11156 H 1021.82 -2.77969 2.84567 0
M  V30 11157 H 1018.56 -2.98426 5.83628 0
M  V30 11158 H 1018.08 -4.00734 4.46287 0
M  V30 11159 H 1019.76 -4.03636 5.05655 0
M  V30 11160 N 1019.89 -1.26353 -0.941956 0
M  V30 11161 C 1021.17 -1.02601 -1.6653 0
M  V30 11162 C 1021.55 0.44381 -2.06382 0
M  V30 11163 O 1020.89 1.42399 -1.78703 0
M  V30 11164 C 1021.1 -1.97401 -2.87809 0
M  V30 11165 C 1022.45 -2.25967 -3.59478 0
M  V30 11166 O 1023.48 -1.95261 -2.97912 0
M  V30 11167 O 1022.34 -2.78244 -4.70364 0
M  V30 11168 H 1019.43 -0.39007 -0.729228 0
M  V30 11169 H 1021.98 -1.37559 -0.993754 0
M  V30 11170 H 1020.75 -2.9659 -2.55245 0
M  V30 11171 H 1020.37 -1.62918 -3.62689 0
M  V30 11172 N 1021.37 1.14642 -1.08144 0
M  V30 11173 C 1022.62 1.84964 -0.804437 0
M  V30 11174 C 1022.93 1.8369 0.672106 0
M  V30 11175 O 1024.14 2.49775 1.06417 0
M  V30 11176 C 1022.59 3.32015 -1.38904 0
M  V30 11177 C 1022.2 3.41713 -2.89718 0
M  V30 11178 C 1023.94 4.07467 -1.19041 0
M  V30 11179 C 1021.85 4.82958 -3.41329 0
M  V30 11180 H 1020.78 0.692932 -0.297256 0
M  V30 11181 H 1023.43 1.29255 -1.30251 0
M  V30 11182 H 1021.81 3.87445 -0.818679 0
M  V30 11183 H 1022.99 2.96347 -3.52867 0
M  V30 11184 H 1021.3 2.79713 -3.08463 0
M  V30 11185 H 1023.9 5.1172 -1.55069 0
M  V30 11186 H 1024.24 4.16097 -0.130027 0
M  V30 11187 H 1024.78 3.58329 -1.72757 0
M  V30 11188 H 1021.51 4.79515 -4.46929 0
M  V30 11189 H 1021.03 5.28873 -2.82937 0
M  V30 11190 H 1022.71 5.51841 -3.37759 0
M  V30 11191 N 1022.85 0.866709 1.31628 0
M  V30 11192 C 1024.09 0.476026 1.96825 0
M  V30 11193 C 1024.42 -0.970994 1.68529 0
M  V30 11194 O 1023.68 -1.69823 0.97255 0
M  V30 11195 C 1023.97 0.676018 3.50948 0
M  V30 11196 C 1023.64 2.09533 3.99258 0
M  V30 11197 C 1022.3 2.48349 4.1216 0
M  V30 11198 C 1024.65 3.02112 4.24709 0
M  V30 11199 C 1021.98 3.78991 4.47864 0
M  V30 11200 C 1024.33 4.32266 4.61875 0
M  V30 11201 C 1023 4.71 4.72985 0
M  V30 11202 H 1022.27 0.17419 0.720235 0
M  V30 11203 H 1024.92 1.09907 1.5682 0
M  V30 11204 H 1023.22 -0.0301867 3.91788 0
M  V30 11205 H 1024.92 0.353604 3.99438 0
M  V30 11206 H 1021.51 1.78396 3.89709 0
M  V30 11207 H 1025.69 2.73351 4.14238 0
M  V30 11208 H 1020.95 4.08769 4.54663 0
M  V30 11209 H 1025.12 5.04055 4.80522 0
M  V30 11210 H 1022.75 5.72273 5.00407 0
M  V30 11211 N 1024.32 -1.44642 0.625825 0
M  V30 11212 C 1025.55 -2.06971 0.133373 0
M  V30 11213 C 1025.97 -1.46421 -1.18078 0
M  V30 11214 O 1025.33 -0.563676 -1.72315 0
M  V30 11215 C 1025.38 -3.6059 0.0265097 0
M  V30 11216 O 1024.48 -3.99615 -1.01889 0
M  V30 11217 H 1023.82 -0.658873 0.0823568 0
M  V30 11218 H 1026.35 -1.85601 0.861002 0
M  V30 11219 H 1026.36 -4.07663 -0.1658 0
M  V30 11220 H 1025.04 -4.04043 0.985986 0
M  V30 11221 H 1023.62 -3.64183 -0.801577 0
M  V30 11222 N 1025.8 -0.366053 -1.5329 0
M  V30 11223 C 1027.08 0.279902 -1.93587 0
M  V30 11224 C 1027.46 1.66352 -1.29963 0
M  V30 11225 O 1026.81 2.23845 -0.458895 0
M  V30 11226 C 1027.02 0.329634 -3.4744 0
M  V30 11227 C 1028.36 0.569754 -4.2076 0
M  V30 11228 O 1029.39 0.410823 -3.53823 0
M  V30 11229 O 1028.25 0.879262 -5.3938 0
M  V30 11230 H 1025.34 0.16802 -0.809752 0
M  V30 11231 H 1027.89 -0.418871 -1.64449 0
M  V30 11232 H 1026.66 -0.640434 -3.86023 0
M  V30 11233 H 1026.28 1.07428 -3.82812 0
M  V30 11234 N 1027.28 1.57312 -0.0952337 0
M  V30 11235 C 1028.51 1.98409 0.575984 0
M  V30 11236 C 1028.92 0.973168 1.62253 0
M  V30 11237 O 1028.26 -0.0454416 1.83644 0
M  V30 11238 C 1028.32 3.35877 1.28167 0
M  V30 11239 C 1027.99 4.55368 0.385868 0
M  V30 11240 C 1028.98 5.1861 -0.366041 0
M  V30 11241 C 1026.67 5.0138 0.303885 0
M  V30 11242 C 1028.66 6.26233 -1.18791 0
M  V30 11243 C 1026.35 6.0887 -0.521637 0
M  V30 11244 C 1027.35 6.71161 -1.26618 0
M  V30 11245 O 1027.04 7.76577 -2.07804 0
M  V30 11246 H 1026.77 0.657018 0.159068 0
M  V30 11247 H 1029.32 2.04685 -0.171237 0
M  V30 11248 H 1027.55 3.26284 2.07547 0
M  V30 11249 H 1029.24 3.6142 1.84744 0
M  V30 11250 H 1030.01 4.83993 -0.312435 0
M  V30 11251 H 1025.89 4.52657 0.873065 0
M  V30 11252 H 1029.43 6.74784 -1.76955 0
M  V30 11253 H 1025.33 6.42918 -0.576722 0
M  V30 11254 H 1026.09 7.93566 -2.00489 0
M  V30 11255 N 1028.76 -0.17846 1.56586 0
M  V30 11256 C 1029.72 -1.20479 1.94981 0
M  V30 11257 C 1030.72 -1.37561 0.832677 0
M  V30 11258 O 1031.91 -1.35089 1.09984 0
M  V30 11259 C 1029.04 -2.57117 2.23839 0
M  V30 11260 H 1030.24 -0.876173 2.86816 0
M  V30 11261 H 1027.79 -0.420635 1.50534 0
M  V30 11262 H 1028.52 -2.95005 1.34695 0
M  V30 11263 H 1028.31 -2.46086 3.05261 0
M  V30 11264 H 1029.8 -3.31096 2.5449 0
M  V30 11265 N 1030.24 -1.51135 -0.446768 0
M  V30 11266 C 1031.18 -1.72328 -1.56224 0
M  V30 11267 C 1032.18 -0.589411 -1.58815 0
M  V30 11268 O 1033.38 -0.770554 -1.62673 0
M  V30 11269 H 1029.76 -0.544339 -0.518844 0
M  V30 11270 H 1031.73 -2.65851 -1.3552 0
M  V30 11271 C 1030.48 -1.85686 -2.93966 0
M  V30 11272 H 1029.8 -2.72336 -2.927 0
M  V30 11273 H 1031.24 -2.0453 -3.71407 0
M  V30 11274 C 1029.7 -0.614328 -3.31252 0
M  V30 11275 O 1030.23 0.235369 -4.0101 0
M  V30 11276 N 1028.44 -0.461181 -2.86917 0
M  V30 11277 H 1027.98 -1.15369 -2.30321 0
M  V30 11278 H 1027.94 0.368966 -3.12227 0
M  V30 11279 N 1031.71 0.701592 -1.41122 0
M  V30 11280 C 1032.96 1.4616 -1.40155 0
M  V30 11281 C 1033.29 1.94498 -0.00861553 0
M  V30 11282 O 1032.54 1.69484 0.978452 0
M  V30 11283 C 1032.84 2.693 -2.34973 0
M  V30 11284 C 1032.51 2.39652 -3.81939 0
M  V30 11285 C 1031.17 2.31277 -4.21977 0
M  V30 11286 C 1033.52 2.15076 -4.74755 0
M  V30 11287 C 1030.85 1.96413 -5.52846 0
M  V30 11288 C 1033.2 1.81722 -6.05937 0
M  V30 11289 C 1031.87 1.71838 -6.45002 0
M  V30 11290 H 1031.14 0.534837 -0.512865 0
M  V30 11291 H 1033.78 0.802425 -1.73878 0
M  V30 11292 H 1032.09 3.40123 -1.94484 0
M  V30 11293 H 1033.79 3.27427 -2.31501 0
M  V30 11294 H 1030.38 2.47063 -3.50226 0
M  V30 11295 H 1034.56 2.20495 -4.4463 0
M  V30 11296 H 1029.82 1.87308 -5.82001 0
M  V30 11297 H 1033.99 1.61723 -6.77362 0
M  V30 11298 H 1031.62 1.44591 -7.46323 0
M  V30 11299 N 1033.19 1.2685 0.935242 0
M  V30 11300 C 1034.14 1.08923 2.03481 0
M  V30 11301 C 1035.11 -0.00749786 1.66098 0
M  V30 11302 O 1036.29 0.153401 1.90182 0
M  V30 11303 C 1033.43 0.734529 3.37192 0
M  V30 11304 C 1032.55 1.90812 3.87576 0
M  V30 11305 C 1031.68 1.49599 5.097 0
M  V30 11306 C 1030.72 2.63752 5.5236 0
M  V30 11307 N 1029.86 2.23179 6.65684 0
M  V30 11308 H 1034.7 2.03016 2.18148 0
M  V30 11309 H 1032.23 1.01072 1.06878 0
M  V30 11310 H 1034.19 0.509734 4.14074 0
M  V30 11311 H 1032.82 -0.169438 3.22355 0
M  V30 11312 H 1031.87 2.24567 3.0704 0
M  V30 11313 H 1033.19 2.7647 4.1517 0
M  V30 11314 H 1032.34 1.23199 5.9406 0
M  V30 11315 H 1031.08 0.61039 4.83865 0
M  V30 11316 H 1030.08 2.90874 4.66554 0
M  V30 11317 H 1031.31 3.5292 5.80193 0
M  V30 11318 H 1029.26 1.37061 6.41522 0
M  V30 11319 H 1029.17 3.02379 6.92895 0
M  V30 11320 H 1030.44 2.00007 7.53404 0
M  V30 11321 O 1034.71 -1.06917 1.21042 0
M  V30 11322 H 1035.4 -1.6778 0.967969 0
M  V30 END ATOM
M  V30 BEGIN BOND
M  V30 END BOND
M  V30 END CTAB
M  END
$$$$
