drugbank_target|P23416 Glycine receptor subunit alpha-2 (DB00145; DB00431; DB00466; DB00898; DB01956)
 OpenBabel12092119393D

  0  0  0     0  0            999 V3000
M  V30 BEGIN CTAB
M  V30 COUNTS 7331 7421 0 0 0
M  V30 BEGIN ATOM
M  V30 1 H -0.908 1.98254 -0.117106 0
M  V30 2 N 0 1.576 0 0
M  V30 3 C 0.933 2.03868 1.02534 0
M  V30 4 C 1.911 0.928543 1.3348 0
M  V30 5 O 3.095 1.19667 1.45644 0
M  V30 6 C 0.222 2.43627 2.35294 0
M  V30 7 C -0.732 3.65373 2.2001 0
M  V30 8 S 0.101 5.13292 1.52614 0
M  V30 9 C 1.257 5.56322 2.86805 0
M  V30 10 H 1.49 2.90518 0.631377 0
M  V30 11 H -0.977 1.52953 0.210867 0
M  V30 12 H 0.981 2.67203 3.11629 0
M  V30 13 H -0.358 1.57376 2.7183 0
M  V30 14 H -1.165 3.90944 3.18086 0
M  V30 15 H -1.563 3.418 1.51819 0
M  V30 16 H 0.729 5.58782 3.83104 0
M  V30 17 H 1.672 6.56266 2.65933 0
M  V30 18 H 2.08 4.83886 2.90714 0
M  V30 19 N 1.4781 -0.272755 1.55222 0
M  V30 20 C 2.4261 -1.35705 1.88909 0
M  V30 21 C 3.4201 -1.5112 0.765456 0
M  V30 22 O 4.6261 -1.52901 0.949802 0
M  V30 23 H 1.0011 -0.453868 0.59959 0
M  V30 24 H 2.9721 -1.04544 2.79487 0
M  V30 25 C 1.7211 -2.71049 2.17779 0
M  V30 26 H 1.0441 -2.59979 3.03728 0
M  V30 27 H 2.4841 -3.45858 2.45272 0
M  V30 28 C 0.9431 -3.22165 0.985473 0
M  V30 29 O 1.4731 -4.01096 0.220233 0
M  V30 30 N -0.3209 -2.7985 0.783108 0
M  V30 31 H -0.7739 -2.15775 1.40708 0
M  V30 32 H -0.8159 -3.14397 -0.0130392 0
M  V30 33 N 2.9562 -1.48159 -0.537278 0
M  V30 34 C 4.3722 -1.34118 -0.865129 0
M  V30 35 C 4.5722 -0.346678 -1.98495 0
M  V30 36 O 3.6282 0.234715 -2.51407 0
M  V30 37 C 4.9412 -2.73963 -1.23954 0
M  V30 38 C 6.4892 -2.82397 -1.34984 0
M  V30 39 C 6.9642 -4.22928 -1.75772 0
M  V30 40 N 8.4552 -4.25566 -1.82887 0
M  V30 41 C 9.1902 -5.31235 -2.15817 0
M  V30 42 N 8.6862 -6.47189 -2.47222 0
M  V30 43 N 10.4792 -5.18624 -2.16761 0
M  V30 44 H 2.6302 -2.1144 0.201715 0
M  V30 45 H 4.8932 -0.947598 0.0275949 0
M  V30 46 H 4.5992 -3.48264 -0.490381 0
M  V30 47 H 4.4732 -3.0702 -2.19132 0
M  V30 48 H 6.8602 -2.08356 -2.08978 0
M  V30 49 H 6.9412 -2.5297 -0.379448 0
M  V30 50 H 6.5852 -4.97482 -1.02341 0
M  V30 51 H 6.5152 -4.49794 -2.73848 0
M  V30 52 H 9.0062 -3.41924 -1.60924 0
M  V30 53 H 9.3192 -7.23564 -2.71433 0
M  V30 54 H 7.6642 -6.50476 -2.44757 0
M  V30 55 H 10.8552 -4.27056 -1.91679 0
M  V30 56 H 11.0282 -6.01078 -2.42093 0
M  V30 57 N 4.4343 0.785586 -1.36625 0
M  V30 58 C 5.3663 1.90711 -1.2713 0
M  V30 59 C 6.3793 1.61688 -0.189986 0
M  V30 60 O 7.5683 1.72864 -0.445014 0
M  V30 61 C 4.6683 3.25611 -0.939713 0
M  V30 62 C 3.8413 3.82385 -2.12369 0
M  V30 63 C 2.9003 4.95732 -1.76456 0
M  V30 64 O 1.9263 5.12047 -2.48589 0
M  V30 65 N 3.1283 5.76258 -0.700492 0
M  V30 66 H 5.8933 1.99376 -2.23762 0
M  V30 67 H 3.4543 0.964041 -1.30069 0
M  V30 68 H 5.4463 3.98937 -0.680554 0
M  V30 69 H 4.0163 3.12538 -0.0624074 0
M  V30 70 H 3.2363 3.01001 -2.54543 0
M  V30 71 H 4.5243 4.17047 -2.9146 0
M  V30 72 H 3.9223 5.65609 -0.101624 0
M  V30 73 H 2.4793 6.4987 -0.501165 0
M  V30 74 N 5.9124 1.20967 1.01018 0
M  V30 75 C 6.8424 0.988272 2.11555 0
M  V30 76 C 7.8234 -0.0849778 1.69888 0
M  V30 77 O 9.0084 0.0738202 1.9406 0
M  V30 78 C 6.1384 0.546528 3.42973 0
M  V30 79 C 5.0924 1.56375 3.9841 0
M  V30 80 C 4.4184 0.97842 5.25672 0
M  V30 81 C 5.7184 2.94922 4.31066 0
M  V30 82 H 7.4124 1.91276 2.30334 0
M  V30 83 H 4.9584 0.921073 1.1069 0
M  V30 84 H 6.9114 0.378839 4.19694 0
M  V30 85 H 5.6354 -0.413598 3.23971 0
M  V30 86 H 4.2944 1.71891 3.23804 0
M  V30 87 H 3.9424 0.0101688 5.02999 0
M  V30 88 H 3.6424 1.65784 5.63728 0
M  V30 89 H 5.1664 0.821939 6.05043 0
M  V30 90 H 6.5804 2.8288 4.9865 0
M  V30 91 H 4.9774 3.5983 4.80253 0
M  V30 92 H 6.0474 3.4616 3.39561 0
M  V30 93 N 7.3905 -1.2043 1.01659 0
M  V30 94 C 8.6365 -1.90079 0.706963 0
M  V30 95 C 8.9695 -1.78648 -0.761474 0
M  V30 96 O 8.2445 -1.17069 -1.55323 0
M  V30 97 C 8.5275 -3.41469 1.14327 0
M  V30 98 C 8.3805 -3.61833 2.67201 0
M  V30 99 C 9.6995 -4.34261 0.714529 0
M  V30 100 H 6.8185 -0.690254 0.2583 0
M  V30 101 H 9.4605 -1.41826 1.26433 0
M  V30 102 H 7.6105 -3.82696 0.669056 0
M  V30 103 H 9.2825 -3.2986 3.22475 0
M  V30 104 H 7.5255 -3.05304 3.08175 0
M  V30 105 H 8.1965 -4.67955 2.92783 0
M  V30 106 H 10.6725 -4.00682 1.12221 0
M  V30 107 H 9.5485 -5.38806 1.04784 0
M  V30 108 H 9.8095 -4.40431 -0.383799 0
M  V30 109 N 8.8686 -0.792821 -1.36206 0
M  V30 110 C 9.8166 -0.181555 -2.3189 0
M  V30 111 C 10.8106 0.661025 -1.55971 0
M  V30 112 O 12.0166 0.555728 -1.71206 0
M  V30 113 H 8.3916 -0.0399382 -0.750939 0
M  V30 114 H 10.3626 -1.00394 -2.81005 0
M  V30 115 C 9.1116 0.666444 -3.41253 0
M  V30 116 H 8.4346 0.0274489 -3.99791 0
M  V30 117 H 9.8746 1.06076 -4.10517 0
M  V30 118 C 8.3336 1.82614 -2.83114 0
M  V30 119 O 8.8636 2.9229 -2.75553 0
M  V30 120 N 7.0696 1.63333 -2.40356 0
M  V30 121 H 6.6166 0.741217 -2.46706 0
M  V30 122 H 6.5746 2.41087 -2.01803 0
M  V30 123 N 10.3467 1.47872 -0.545128 0
M  V30 124 C 11.5957 2.01695 -0.0145033 0
M  V30 125 C 11.9087 1.42609 1.33873 0
M  V30 126 O 13.1147 1.88021 1.95858 0
M  V30 127 C 11.5707 3.59892 0.0245068 0
M  V30 128 C 11.1787 4.27966 -1.32475 0
M  V30 129 C 12.9227 4.21507 0.50316 0
M  V30 130 C 10.8297 5.78136 -1.2455 0
M  V30 131 H 9.7597 0.753998 -0.00165172 0
M  V30 132 H 12.4107 1.69985 -0.691175 0
M  V30 133 H 10.7927 3.88509 0.766575 0
M  V30 134 H 11.9667 4.11003 -2.08357 0
M  V30 135 H 10.2817 3.78286 -1.74036 0
M  V30 136 H 12.8787 5.31538 0.580656 0
M  V30 137 H 13.2217 3.87855 1.51243 0
M  V30 138 H 13.7547 3.97376 -0.183681 0
M  V30 139 H 10.4937 6.16388 -2.23039 0
M  V30 140 H 10.0137 5.97469 -0.528282 0
M  V30 141 H 11.6927 6.40099 -0.942488 0
M  V30 142 N 11.8248 0.280983 1.55075 0
M  V30 143 C 12.7548 -0.597469 2.25727 0
M  V30 144 C 13.7358 -1.15417 1.24952 0
M  V30 145 O 14.9208 -1.18722 1.53684 0
M  V30 146 C 12.0508 -1.7789 2.98283 0
M  V30 147 C 11.0048 -1.35347 4.06036 0
M  V30 148 C 10.3308 -2.61846 4.66198 0
M  V30 149 C 11.6308 -0.499354 5.19907 0
M  V30 150 H 13.3248 -0.00824265 2.99399 0
M  V30 151 H 10.8708 -0.0025244 1.44 0
M  V30 152 H 12.8238 -2.39937 3.46422 0
M  V30 153 H 11.5478 -2.39405 2.22155 0
M  V30 154 H 10.2068 -0.756156 3.58717 0
M  V30 155 H 9.8548 -3.21632 3.86732 0
M  V30 156 H 9.5548 -2.3409 5.38958 0
M  V30 157 H 11.0788 -3.24732 5.1709 0
M  V30 158 H 12.4928 -1.02498 5.64063 0
M  V30 159 H 10.8898 -0.316424 5.99265 0
M  V30 160 H 11.9598 0.480459 4.82514 0
M  V30 161 N 13.3029 -1.57598 0.00835791 0
M  V30 162 C 14.5309 -1.95214 -0.68549 0
M  V30 163 C 14.9459 -0.883706 -1.66841 0
M  V30 164 O 14.3029 0.136565 -1.81988 0
M  V30 165 C 14.3539 -3.32865 -1.41007 0
M  V30 166 O 14.0749 -4.35609 -0.466552 0
M  V30 167 C 15.5759 -3.84991 -2.19765 0
M  V30 168 H 12.7959 -0.643422 -0.190392 0
M  V30 169 H 15.3399 -2.04406 0.0619607 0
M  V30 170 H 13.4949 -3.24956 -2.10908 0
M  V30 171 H 13.9089 -5.15288 -0.978699 0
M  V30 172 H 15.3829 -4.8371 -2.65948 0
M  V30 173 H 15.8599 -3.18137 -3.02796 0
M  V30 174 H 16.4659 -3.96103 -1.54864 0
M  V30 175 N 14.781 0.264519 -1.55364 0
M  V30 176 C 15.744 1.31046 -1.88042 0
M  V30 177 C 16.744 1.41943 -0.755569 0
M  V30 178 O 17.934 1.40947 -1.02369 0
M  V30 179 C 15.066 2.69067 -2.09323 0
M  V30 180 H 16.259 1.03297 -2.81549 0
M  V30 181 H 13.812 0.502989 -1.47986 0
M  V30 182 H 14.547 3.01982 -1.18226 0
M  V30 183 H 14.332 2.62542 -2.91229 0
M  V30 184 H 15.822 3.44623 -2.35848 0
M  V30 185 N 16.2591 1.48442 0.529413 0
M  V30 186 C 17.1891 1.65902 1.64313 0
M  V30 187 C 18.1701 0.507897 1.6234 0
M  V30 188 O 19.3551 0.740503 1.79528 0
M  V30 189 C 16.4851 1.69911 3.02898 0
M  V30 190 C 15.4391 2.8453 3.19729 0
M  V30 191 C 14.7651 2.73629 4.59381 0
M  V30 192 C 16.0651 4.25821 3.02447 0
M  V30 193 H 17.7591 2.5914 1.49955 0
M  V30 194 H 15.3051 1.24709 0.719982 0
M  V30 195 H 17.2581 1.80715 3.80684 0
M  V30 196 H 15.9821 0.732524 3.18279 0
M  V30 197 H 14.6411 2.73283 2.44361 0
M  V30 198 H 14.2891 1.74938 4.71599 0
M  V30 199 H 13.9891 3.50541 4.71588 0
M  V30 200 H 15.5131 2.86401 5.39265 0
M  V30 201 H 16.9271 4.37898 3.70024 0
M  V30 202 H 15.3241 5.03735 3.26146 0
M  V30 203 H 16.3941 4.42244 1.98867 0
M  V30 204 N 17.7372 -0.778329 1.37039 0
M  V30 205 C 18.9842 -1.53665 1.31884 0
M  V30 206 C 19.3122 -1.9425 -0.0986303 0
M  V30 207 O 18.5672 -1.63832 -1.07041 0
M  V30 208 C 18.8662 -2.81845 2.19768 0
M  V30 209 C 18.5322 -2.60345 3.68146 0
M  V30 210 C 17.1942 -2.5419 4.08584 0
M  V30 211 C 19.5462 -2.40923 4.62175 0
M  V30 212 C 16.8742 -2.26594 5.41177 0
M  V30 213 C 19.2262 -2.14852 5.94997 0
M  V30 214 C 17.8902 -2.07137 6.34547 0
M  V30 215 H 17.1602 -0.562299 0.482598 0
M  V30 216 H 19.8072 -0.897069 1.69189 0
M  V30 217 H 18.1122 -3.50328 1.75436 0
M  V30 218 H 19.8092 -3.39692 2.13097 0
M  V30 219 H 16.3992 -2.65996 3.36072 0
M  V30 220 H 20.5832 -2.44673 4.31797 0
M  V30 221 H 15.8392 -2.19111 5.70789 0
M  V30 222 H 20.0132 -1.98822 6.67415 0
M  V30 223 H 17.6402 -1.85518 7.37216 0
M  V30 224 N 19.2153 -1.21501 -1.00376 0
M  V30 225 C 20.1783 -0.976927 -2.07337 0
M  V30 226 C 21.1783 0.0525322 -1.60714 0
M  V30 227 O 22.3683 -0.184869 -1.73216 0
M  V30 228 C 19.5003 -0.473423 -3.37597 0
M  V30 229 H 20.6933 -1.92587 -2.29892 0
M  V30 230 H 18.2463 -1.03217 -1.17371 0
M  V30 231 H 18.9813 0.480379 -3.20722 0
M  V30 232 H 18.7663 -1.216 -3.72768 0
M  V30 233 H 20.2563 -0.32675 -4.1632 0
M  V30 234 N 20.6934 1.19889 -1.02296 0
M  V30 235 C 21.9404 1.8942 -0.715972 0
M  V30 236 C 22.2684 1.79251 0.754944 0
M  V30 237 O 21.5234 1.17526 1.56481 0
M  V30 238 C 21.8224 3.39883 -1.10518 0
M  V30 239 C 21.4884 3.70254 -2.57337 0
M  V30 240 C 20.1504 3.78254 -2.97452 0
M  V30 241 C 22.5024 3.84052 -3.52354 0
M  V30 242 C 19.8304 3.97514 -4.31509 0
M  V30 243 C 22.1824 4.04824 -4.86108 0
M  V30 244 C 20.8464 4.11054 -5.25919 0
M  V30 245 H 20.1164 0.693138 -0.261993 0
M  V30 246 H 22.7634 1.42012 -1.28472 0
M  V30 247 H 21.0684 3.8915 -0.454953 0
M  V30 248 H 22.7654 3.9199 -0.845261 0
M  V30 249 H 19.3554 3.64632 -2.25258 0
M  V30 250 H 23.5394 3.77221 -3.22518 0
M  V30 251 H 18.7954 4.00574 -4.61898 0
M  V30 252 H 22.9694 4.14442 -5.59653 0
M  V30 253 H 20.5964 4.2573 -6.29808 0
M  V30 254 N 22.1715 0.800033 1.35784 0
M  V30 255 C 23.4185 0.377342 1.98953 0
M  V30 256 C 23.7465 -1.05378 1.6348 0
M  V30 257 O 23.0015 -1.74459 0.886707 0
M  V30 258 C 23.3005 0.500276 3.53881 0
M  V30 259 C 22.9665 1.89375 4.09204 0
M  V30 260 C 21.6285 2.27499 4.24025 0
M  V30 261 C 23.9805 2.8057 4.39238 0
M  V30 262 C 21.3085 3.562 4.66195 0
M  V30 263 C 23.6605 4.0871 4.82844 0
M  V30 264 C 22.3245 4.46843 4.95871 0
M  V30 265 H 21.5945 0.138079 0.728021 0
M  V30 266 H 24.2415 1.01955 1.62103 0
M  V30 267 H 22.5465 -0.225405 3.91151 0
M  V30 268 H 24.2435 0.154097 4.00704 0
M  V30 269 H 20.8335 1.58753 3.98115 0
M  V30 270 H 25.0175 2.52367 4.27346 0
M  V30 271 H 20.2735 3.85602 4.74469 0
M  V30 272 H 24.4475 4.79481 5.05046 0
M  V30 273 H 22.0745 5.46623 5.28306 0
M  V30 274 N 23.6496 -1.47581 0.552962 0
M  V30 275 C 24.5796 -2.32762 -0.185451 0
M  V30 276 C 25.5606 -1.43527 -0.912905 0
M  V30 277 O 26.7456 -1.72388 -0.894201 0
M  V30 278 C 23.8756 -3.25219 -1.21859 0
M  V30 279 C 22.8296 -4.23661 -0.607864 0
M  V30 280 C 22.1556 -5.05413 -1.74533 0
M  V30 281 C 23.4556 -5.20481 0.435582 0
M  V30 282 H 25.1496 -2.94749 0.525684 0
M  V30 283 H 22.6956 -1.41738 0.254251 0
M  V30 284 H 24.6486 -3.8365 -1.7433 0
M  V30 285 H 23.3726 -2.61279 -1.95961 0
M  V30 286 H 22.0316 -3.66451 -0.104489 0
M  V30 287 H 21.6796 -4.3788 -2.47529 0
M  V30 288 H 21.3796 -5.72059 -1.34249 0
M  V30 289 H 22.9036 -5.66701 -2.27338 0
M  V30 290 H 24.3176 -5.733 -0.00290157 0
M  V30 291 H 22.7146 -5.95305 0.757067 0
M  V30 292 H 23.7846 -4.66217 1.33303 0
M  V30 293 N 25.1277 -0.289203 -1.54924 0
M  V30 294 C 26.0377 0.601863 -2.26748 0
M  V30 295 C 27.0537 1.15834 -1.2984 0
M  V30 296 O 28.2297 1.18564 -1.62802 0
M  V30 297 C 25.2947 1.76299 -2.98529 0
M  V30 298 C 24.3557 1.24178 -4.10948 0
M  V30 299 C 23.5887 2.34757 -4.79296 0
M  V30 300 O 23.8117 3.54411 -4.46933 0
M  V30 301 O 22.7457 2.02115 -5.66951 0
M  V30 302 H 26.5717 0.0195879 -3.03694 0
M  V30 303 H 24.1567 -0.0560868 -1.49295 0
M  V30 304 H 26.0387 2.43973 -3.43592 0
M  V30 305 H 24.7137 2.33209 -2.24488 0
M  V30 306 H 23.6207 0.531104 -3.70311 0
M  V30 307 H 24.9537 0.718252 -4.86931 0
M  V30 308 N 26.6058 1.57591 -0.0167156 0
M  V30 309 C 27.8338 1.95575 0.675128 0
M  V30 310 C 28.2488 0.892542 1.6637 0
M  V30 311 O 27.6058 -0.126912 1.82058 0
M  V30 312 C 27.6568 3.33608 1.39239 0
M  V30 313 O 27.3778 4.3585 0.443444 0
M  V30 314 C 28.8788 3.86151 2.17721 0
M  V30 315 H 26.0988 0.644423 0.186978 0
M  V30 316 H 28.6428 2.0437 -0.0728 0
M  V30 317 H 26.7978 3.2607 2.09182 0
M  V30 318 H 27.2118 5.158 0.951358 0
M  V30 319 H 28.6858 4.85114 2.63379 0
M  V30 320 H 29.1628 3.19738 3.01105 0
M  V30 321 H 29.7688 3.96918 1.52761 0
M  V30 322 N 28.0839 -0.256276 1.55502 0
M  V30 323 C 29.0319 -1.33694 1.90338 0
M  V30 324 C 30.0259 -1.50299 0.781441 0
M  V30 325 O 31.2319 -1.51885 0.965966 0
M  V30 326 H 27.6069 -0.447483 0.60437 0
M  V30 327 H 29.5779 -1.01574 2.8058 0
M  V30 328 C 28.3269 -2.68724 2.20642 0
M  V30 329 H 27.6499 -2.56743 3.06469 0
M  V30 330 H 29.0899 -3.43237 2.48926 0
M  V30 331 C 27.5489 -3.21101 1.01959 0
M  V30 332 O 28.0789 -4.0084 0.262762 0
M  V30 333 N 26.2849 -2.79003 0.812746 0
M  V30 334 H 25.8319 -2.14271 1.42989 0
M  V30 335 H 25.7899 -3.14393 0.0203076 0
M  V30 336 N 29.562 -1.4872 -0.521534 0
M  V30 337 C 30.512 -1.60269 -1.62166 0
M  V30 338 C 31.496 -0.45935 -1.54204 0
M  V30 339 O 32.688 -0.711241 -1.62081 0
M  V30 340 C 29.817 -1.65344 -3.00859 0
M  V30 341 C 28.903 -2.85187 -3.13894 0
M  V30 342 N 29.294 -4.09509 -2.96877 0
M  V30 343 C 27.592 -2.82695 -3.44963 0
M  V30 344 C 28.293 -4.89959 -3.13552 0
M  V30 345 N 27.269 -4.22934 -3.41508 0
M  V30 346 H 31.071 -2.5413 -1.47632 0
M  V30 347 H 28.585 -1.45209 -0.727194 0
M  V30 348 H 30.582 -1.71713 -3.79895 0
M  V30 349 H 29.242 -0.726058 -3.16478 0
M  V30 350 H 30.253 -4.39814 -2.73467 0
M  V30 351 H 26.93 -1.99249 -3.66887 0
M  V30 352 H 28.32 -5.98654 -3.05061 0
M  V30 353 N 31.0401 0.771051 -1.3745 0
M  V30 354 C 32.2871 1.52963 -1.32697 0
M  V30 355 C 32.6151 1.94299 0.0883274 0
M  V30 356 O 31.8701 1.64397 1.0617 0
M  V30 357 C 32.1691 2.80676 -2.2126 0
M  V30 358 C 31.8351 2.58389 -3.69521 0
M  V30 359 C 30.4971 2.52019 -4.09927 0
M  V30 360 C 32.8491 2.38469 -4.63446 0
M  V30 361 C 30.1771 2.23721 -5.42371 0
M  V30 362 C 32.5291 2.11694 -5.96128 0
M  V30 363 C 31.1931 2.03769 -6.35637 0
M  V30 364 H 30.4631 0.559732 -0.485573 0
M  V30 365 H 33.1101 0.888083 -1.69662 0
M  V30 366 H 31.4151 3.49392 -1.77291 0
M  V30 367 H 33.1121 3.38557 -2.14895 0
M  V30 368 H 29.7021 2.6421 -3.37478 0
M  V30 369 H 33.8861 2.4238 -4.33089 0
M  V30 370 H 29.1421 2.16081 -5.71943 0
M  V30 371 H 33.3161 1.9528 -6.6846 0
M  V30 372 H 30.9431 1.81606 -7.38189 0
M  V30 373 N 32.5182 1.22032 0.997298 0
M  V30 374 C 33.9342 0.979326 1.26021 0
M  V30 375 C 34.1342 -0.32972 1.98784 0
M  V30 376 O 33.1902 -1.05345 2.29475 0
M  V30 377 C 34.5032 2.17509 2.07631 0
M  V30 378 C 36.0512 2.21817 2.2083 0
M  V30 379 C 36.5262 3.40933 3.05825 0
M  V30 380 N 38.0172 3.41067 3.13412 0
M  V30 381 C 38.7522 4.29885 3.79455 0
M  V30 382 N 38.2482 5.28914 4.47462 0
M  V30 383 N 40.0412 4.17673 3.76173 0
M  V30 384 H 32.1922 2.06202 0.509352 0
M  V30 385 H 34.4552 0.90334 0.287541 0
M  V30 386 H 34.1612 3.12415 1.61524 0
M  V30 387 H 34.0352 2.17206 3.08385 0
M  V30 388 H 36.4222 1.27462 2.66153 0
M  V30 389 H 36.5032 2.2616 1.1952 0
M  V30 390 H 36.1472 4.35586 2.61203 0
M  V30 391 H 36.0772 3.33829 4.07266 0
M  V30 392 H 38.5682 2.69406 2.65007 0
M  V30 393 H 38.8812 5.92973 4.95583 0
M  V30 394 H 37.2262 5.32831 4.46224 0
M  V30 395 H 40.4172 3.39564 3.22202 0
M  V30 396 H 40.5902 4.87098 4.27363 0
M  V30 397 N 33.9963 -1.19345 1.0293 0
M  V30 398 C 35.2243 -1.92997 0.745644 0
M  V30 399 C 35.6393 -1.75519 -0.695589 0
M  V30 400 O 34.9963 -1.07737 -1.47306 0
M  V30 401 C 35.0473 -3.44741 1.08792 0
M  V30 402 O 34.7683 -3.61658 2.47256 0
M  V30 403 C 36.2693 -4.35515 0.827129 0
M  V30 404 H 33.4893 -0.613042 0.272801 0
M  V30 405 H 36.0333 -1.51473 1.3739 0
M  V30 406 H 34.1883 -3.84097 0.504832 0
M  V30 407 H 34.6023 -4.55514 2.60015 0
M  V30 408 H 36.0763 -5.40589 1.11658 0
M  V30 409 H 36.5533 -4.38552 -0.238436 0
M  V30 410 H 37.1593 -4.01841 1.39297 0
M  V30 411 N 35.4744 -0.807222 -1.35358 0
M  V30 412 C 36.4374 -0.223665 -2.28106 0
M  V30 413 C 37.4374 0.589354 -1.4961 0
M  V30 414 O 38.6274 0.407745 -1.69361 0
M  V30 415 C 35.7594 0.688149 -3.33882 0
M  V30 416 H 36.9524 -1.04169 -2.81227 0
M  V30 417 H 34.5054 -0.577921 -1.45223 0
M  V30 418 H 35.2404 1.52984 -2.85948 0
M  V30 419 H 35.0254 0.10687 -3.91954 0
M  V30 420 H 36.5154 1.09075 -4.03104 0
M  V30 421 N 36.9525 1.47285 -0.560781 0
M  V30 422 C 38.1995 2.02464 -0.038062 0
M  V30 423 C 38.5275 1.43474 1.31322 0
M  V30 424 O 37.7825 0.581311 1.86867 0
M  V30 425 C 38.0815 3.57258 0.100784 0
M  V30 426 C 37.7475 4.35184 -1.18007 0
M  V30 427 C 36.4095 4.56194 -1.53103 0
M  V30 428 C 38.7615 4.80098 -2.02867 0
M  V30 429 C 36.0895 5.19367 -2.729 0
M  V30 430 C 38.4415 5.44593 -3.21871 0
M  V30 431 C 37.1055 5.63835 -3.57276 0
M  V30 432 H 36.3755 0.740869 -0.0139279 0
M  V30 433 H 39.0225 1.76916 -0.733012 0
M  V30 434 H 37.3275 3.81819 0.878724 0
M  V30 435 H 39.0245 3.97606 0.520639 0
M  V30 436 H 35.6145 4.19113 -0.8968 0
M  V30 437 H 39.7985 4.63642 -1.7706 0
M  V30 438 H 35.0545 5.32459 -3.00496 0
M  V30 439 H 39.2285 5.78358 -3.87911 0
M  V30 440 H 36.8555 6.12557 -4.50197 0
M  V30 441 N 38.4306 0.297415 1.54768 0
M  V30 442 C 39.6706 -0.313829 2.01976 0
M  V30 443 C 40.0346 -1.51366 1.1812 0
M  V30 444 O 41.2356 -2.19603 1.5501 0
M  V30 445 C 39.5066 -0.664964 3.51159 0
M  V30 446 S 41.0656 -1.25958 4.20333 0
M  V30 447 H 37.8836 -0.0965014 0.704421 0
M  V30 448 H 40.4856 0.424451 1.90837 0
M  V30 449 H 39.1896 0.21681 4.09827 0
M  V30 450 H 38.7206 -1.43413 3.66328 0
M  V30 451 H 40.7356 -2.54751 4.25813 0
M  V30 452 N 39.9087 -1.5758 0.0250728 0
M  V30 453 C 40.8557 -2.09973 -0.958129 0
M  V30 454 C 41.8257 -1.00085 -1.3256 0
M  V30 455 O 43.0107 -1.27481 -1.41962 0
M  V30 456 C 40.1507 -2.62812 -2.2366 0
M  V30 457 C 39.2637 -3.86693 -1.92594 0
M  V30 458 C 38.3987 -4.27941 -3.14707 0
M  V30 459 C 37.4377 -5.44591 -2.79442 0
M  V30 460 N 36.5747 -5.81014 -3.94167 0
M  V30 461 H 41.4147 -2.937 -0.504428 0
M  V30 462 H 38.9517 -1.45172 -0.237392 0
M  V30 463 H 40.9097 -2.91536 -2.98434 0
M  V30 464 H 39.5397 -1.81922 -2.66654 0
M  V30 465 H 38.5917 -3.64723 -1.0808 0
M  V30 466 H 39.9037 -4.71547 -1.62619 0
M  V30 467 H 39.0577 -4.58079 -3.97804 0
M  V30 468 H 37.7967 -3.41845 -3.4784 0
M  V30 469 H 36.8017 -5.1415 -1.94755 0
M  V30 470 H 38.0267 -6.32382 -2.47528 0
M  V30 471 H 35.9727 -4.97874 -4.2715 0
M  V30 472 H 35.8897 -6.60498 -3.67801 0
M  V30 473 H 37.1577 -6.15756 -4.7798 0
M  V30 474 N 41.3868 0.248026 -1.55636 0
M  V30 475 C 42.6638 0.998988 -1.68165 0
M  V30 476 C 43.0438 2.03409 -0.564621 0
M  V30 477 O 42.3918 2.24378 0.432076 0
M  V30 478 C 42.6018 1.63334 -3.0842 0
M  V30 479 C 43.9498 2.13562 -3.66983 0
M  V30 480 O 44.9738 1.73277 -3.11213 0
M  V30 481 O 43.8328 2.87526 -4.64749 0
M  V30 482 H 40.9268 0.464933 -0.683935 0
M  V30 483 H 43.4728 0.241902 -1.67967 0
M  V30 484 H 42.2448 0.884583 -3.8117 0
M  V30 485 H 41.8678 2.45666 -3.12624 0
M  V30 486 N 42.8649 1.48995 0.513639 0
M  V30 487 C 43.8149 1.61127 1.61314 0
M  V30 488 C 44.7989 0.467521 1.53958 0
M  V30 489 O 45.9909 0.719826 1.61702 0
M  V30 490 C 43.1199 1.66937 2.99978 0
M  V30 491 C 42.2059 2.86847 3.12377 0
M  V30 492 N 42.5969 4.11078 2.94701 0
M  V30 493 C 40.8949 2.84521 3.43459 0
M  V30 494 C 41.5959 4.91615 3.10949 0
M  V30 495 N 40.5719 4.24739 3.3926 0
M  V30 496 H 44.3739 2.54909 1.46282 0
M  V30 497 H 41.8879 1.45593 0.719483 0
M  V30 498 H 43.8849 1.73725 3.78979 0
M  V30 499 H 42.5449 0.742831 3.16089 0
M  V30 500 H 43.5559 4.41258 2.71131 0
M  V30 501 H 40.2329 2.01192 3.65825 0
M  V30 502 H 41.6229 6.00264 3.01882 0
M  V30 503 N 44.343 -0.763751 1.37857 0
M  V30 504 C 45.62 -1.51244 1.24035 0
M  V30 505 C 46 -2.10472 -0.162649 0
M  V30 506 O 45.348 -1.96206 -1.17112 0
M  V30 507 C 45.558 -2.58694 2.34261 0
M  V30 508 C 46.906 -3.25878 2.72193 0
M  V30 509 O 47.93 -2.68993 2.33497 0
M  V30 510 O 46.789 -4.2874 3.38887 0
M  V30 511 H 43.883 -0.670243 0.484462 0
M  V30 512 H 46.429 -0.800031 1.49658 0
M  V30 513 H 45.201 -2.13105 3.2818 0
M  V30 514 H 44.824 -3.37527 2.10146 0
M  V30 515 N 45.8211 -1.22559 -0.990812 0
M  V30 516 C 47.0461 -1.07862 -1.77145 0
M  V30 517 C 47.4711 0.366447 -1.84496 0
M  V30 518 O 46.8291 1.26478 -1.29896 0
M  V30 519 C 46.8771 -1.69686 -3.18181 0
M  V30 520 O 45.9811 -0.951946 -4.01263 0
M  V30 521 H 45.3221 -0.378712 -0.545411 0
M  V30 522 H 47.8521 -1.62399 -1.2445 0
M  V30 523 H 47.8621 -1.74496 -3.68802 0
M  V30 524 H 46.5371 -2.74841 -3.12146 0
M  V30 525 H 45.1141 -0.980011 -3.59792 0
M  V30 526 N 47.2992 1.18797 -1.03562 0
M  V30 527 C 48.7152 1.40671 -0.753917 0
M  V30 528 C 48.9152 1.9043 0.658686 0
M  V30 529 O 47.9712 2.08538 1.42366 0
M  V30 530 C 49.2842 2.41192 -1.79574 0
M  V30 531 C 50.8322 2.54928 -1.81606 0
M  V30 532 C 51.3072 3.58709 -2.84766 0
M  V30 533 N 52.7982 3.66212 -2.83625 0
M  V30 534 C 53.5332 4.46225 -3.60098 0
M  V30 535 N 53.0292 5.29888 -4.46308 0
M  V30 536 N 54.8222 4.40939 -3.4861 0
M  V30 537 H 46.9732 0.848221 -1.94728 0
M  V30 538 H 49.2362 0.435081 -0.842264 0
M  V30 539 H 48.9422 2.11669 -2.80872 0
M  V30 540 H 48.8162 3.40467 -1.62365 0
M  V30 541 H 51.2032 2.83771 -0.809817 0
M  V30 542 H 51.2842 1.55784 -2.02891 0
M  V30 543 H 50.9282 3.30607 -3.85566 0
M  V30 544 H 50.8582 4.57519 -2.60737 0
M  V30 545 H 53.3492 3.06466 -2.21105 0
M  V30 546 H 53.6622 5.88078 -5.01382 0
M  V30 547 H 52.0072 5.29326 -4.50377 0
M  V30 548 H 55.1982 3.74624 -2.80668 0
M  V30 549 H 55.3712 5.03056 -4.08459 0
M  V30 550 N 48.7773 0.814389 1.34928 0
M  V30 551 C 50.0023 0.410097 2.03305 0
M  V30 552 C 50.4273 -0.973464 1.60951 0
M  V30 553 O 49.7853 -1.63185 0.789964 0
M  V30 554 C 49.8333 0.51049 3.56968 0
M  V30 555 O 48.9373 -0.473035 4.09678 0
M  V30 556 H 48.2783 0.170088 0.641846 0
M  V30 557 H 50.8083 1.10244 1.72358 0
M  V30 558 H 50.8183 0.383135 4.06197 0
M  V30 559 H 49.4933 1.51963 3.87144 0
M  V30 560 H 48.0703 -0.305272 3.71648 0
M  V30 561 N 50.2554 -1.46986 0.568584 0
M  V30 562 C 51.5034 -2.02041 0.0487022 0
M  V30 563 C 51.8244 -1.44408 -1.31039 0
M  V30 564 O 51.0944 -0.623477 -1.85714 0
M  V30 565 H 49.6744 -0.746849 0.015014 0
M  V30 566 H 52.3364 -1.80257 0.741168 0
M  V30 567 H 51.4324 -3.12085 -0.0308961 0
M  V30 568 N 51.7335 -0.305618 -1.54608 0
M  V30 569 C 52.6805 0.568421 -2.23691 0
M  V30 570 C 53.6505 1.12592 -1.22116 0
M  V30 571 O 54.8355 1.16959 -1.50749 0
M  V30 572 C 51.9755 1.7322 -2.98477 0
M  V30 573 C 51.0885 1.20566 -4.14835 0
M  V30 574 C 50.2235 2.33368 -4.77193 0
M  V30 575 C 49.2625 1.7787 -5.85686 0
M  V30 576 N 48.3995 2.84263 -6.4198 0
M  V30 577 H 53.2395 -0.0272867 -2.97988 0
M  V30 578 H 50.7765 -0.0252363 -1.47078 0
M  V30 579 H 52.7345 2.41675 -3.40072 0
M  V30 580 H 51.3645 2.29947 -2.26548 0
M  V30 581 H 50.4165 0.413223 -3.78149 0
M  V30 582 H 51.7285 0.759417 -4.92985 0
M  V30 583 H 50.8825 3.09761 -5.21664 0
M  V30 584 H 49.6215 2.8132 -3.98385 0
M  V30 585 H 48.6265 0.99968 -5.40635 0
M  V30 586 H 49.8515 1.30816 -6.66381 0
M  V30 587 H 47.7975 3.31541 -5.66053 0
M  V30 588 H 47.7145 2.44149 -7.15491 0
M  V30 589 H 48.9825 3.6054 -6.91109 0
M  V30 590 N 53.2116 1.57565 -0.0334293 0
M  V30 591 C 54.1436 2.0739 0.975811 0
M  V30 592 C 55.1566 0.998166 1.2861 0
M  V30 593 O 56.3456 1.27426 1.25 0
M  V30 594 C 53.4456 2.4871 2.30209 0
M  V30 595 C 52.6186 3.79413 2.17634 0
M  V30 596 C 51.6776 4.07237 3.33233 0
M  V30 597 O 50.7036 4.77425 3.09927 0
M  V30 598 N 51.9056 3.5775 4.5716 0
M  V30 599 H 54.6706 2.94598 0.55066 0
M  V30 600 H 52.2316 1.61173 0.15323 0
M  V30 601 H 54.2236 2.64413 3.06378 0
M  V30 602 H 52.7936 1.66845 2.64351 0
M  V30 603 H 52.0136 3.73465 1.26165 0
M  V30 604 H 53.3016 4.65038 2.0644 0
M  V30 605 H 52.6996 3.00976 4.78989 0
M  V30 606 H 51.2566 3.78724 5.30482 0
M  V30 607 N 54.6897 -0.239769 1.55765 0
M  V30 608 C 56.1007 -0.808263 1.68297 0
M  V30 609 C 56.4517 -1.85736 0.632181 0
M  V30 610 O 55.5767 -2.15277 -0.220204 0
M  V30 611 C 56.1717 -1.47284 3.05111 0
M  V30 612 C 54.7307 -1.98895 3.19559 0
M  V30 613 C 53.8777 -0.842575 2.64189 0
M  V30 614 H 56.8287 -0.0154422 1.58692 0
M  V30 615 H 56.8497 -2.34111 2.99954 0
M  V30 616 H 56.3617 -0.709053 3.81568 0
M  V30 617 H 54.4627 -2.78132 2.47938 0
M  V30 618 H 54.5757 -2.18143 4.26556 0
M  V30 619 H 52.9397 -1.24501 2.22197 0
M  V30 620 H 53.7227 -0.0917552 3.43177 0
M  V30 621 N 56.1678 -1.49265 -0.50573 0
M  V30 622 C 57.3928 -1.62478 -1.28902 0
M  V30 623 C 57.8178 -0.294332 -1.85783 0
M  V30 624 O 57.1758 0.737412 -1.65626 0
M  V30 625 C 57.2238 -2.69268 -2.39848 0
M  V30 626 O 56.3278 -2.28113 -3.43567 0
M  V30 627 H 55.6688 -0.54399 -0.380751 0
M  V30 628 H 58.1988 -1.95421 -0.605952 0
M  V30 629 H 58.2088 -2.91291 -2.85681 0
M  V30 630 H 56.8838 -3.65846 -1.97812 0
M  V30 631 H 55.4608 -2.16401 -3.03685 0
M  V30 632 N 57.6459 0.756429 -1.3826 0
M  V30 633 C 58.5779 1.87971 -1.31147 0
M  V30 634 C 59.5909 1.61248 -0.224239 0
M  V30 635 O 60.7799 1.71881 -0.481581 0
M  V30 636 C 57.8799 3.23545 -1.00857 0
M  V30 637 C 57.0529 3.77794 -2.20432 0
M  V30 638 C 56.1119 4.91877 -1.86931 0
M  V30 639 O 55.1379 5.06659 -2.59395 0
M  V30 640 N 56.3399 5.74643 -0.822568 0
M  V30 641 H 59.1049 1.94585 -2.2794 0
M  V30 642 H 56.6659 0.936234 -1.32084 0
M  V30 643 H 58.6579 3.97403 -0.765021 0
M  V30 644 H 57.2279 3.12335 -0.128687 0
M  V30 645 H 56.4479 2.95534 -2.6087 0
M  V30 646 H 57.7359 4.10771 -3.00241 0
M  V30 647 H 57.1339 5.65266 -0.221575 0
M  V30 648 H 55.6909 6.48661 -0.638899 0
M  V30 649 N 59.124 1.23083 0.984299 0
M  V30 650 C 60.352 1.08714 1.76037 0
M  V30 651 C 60.767 -0.361691 1.85303 0
M  V30 652 O 60.124 -1.25034 1.32939 0
M  V30 653 C 60.175 1.70206 3.18923 0
M  V30 654 O 59.896 3.09423 3.10144 0
M  V30 655 C 61.397 1.61227 4.12941 0
M  V30 656 H 58.617 0.380664 0.552572 0
M  V30 657 H 61.161 1.62853 1.23689 0
M  V30 658 H 59.316 1.20109 3.6831 0
M  V30 659 H 59.73 3.39188 4.00065 0
M  V30 660 H 61.204 2.08962 5.10919 0
M  V30 661 H 61.681 0.570375 4.35481 0
M  V30 662 H 62.287 2.10671 3.69456 0
M  V30 663 N 60.6021 -1.18246 1.0419 0
M  V30 664 C 61.5321 -2.24127 0.654914 0
M  V30 665 C 62.5131 -1.66617 -0.342451 0
M  V30 666 O 63.6981 -1.92924 -0.222277 0
M  V30 667 C 60.8281 -3.47295 0.0183757 0
M  V30 668 C 59.7821 -4.17563 0.939414 0
M  V30 669 C 59.1081 -5.34438 0.167286 0
M  V30 670 C 60.4081 -4.70917 2.25908 0
M  V30 671 H 62.1021 -2.56753 1.54007 0
M  V30 672 H 59.6481 -1.23414 0.74195 0
M  V30 673 H 61.6011 -4.20572 -0.264082 0
M  V30 674 H 60.3251 -3.13907 -0.901664 0
M  V30 675 H 58.9841 -3.46186 1.20628 0
M  V30 676 H 58.6321 -4.97298 -0.7552 0
M  V30 677 H 58.3321 -5.82388 0.780901 0
M  V30 678 H 59.8561 -6.10504 -0.108125 0
M  V30 679 H 61.2701 -5.35882 2.03724 0
M  V30 680 H 59.6671 -5.29406 2.82577 0
M  V30 681 H 60.7371 -3.88272 2.9047 0
M  V30 682 N 62.0802 -0.821533 -1.34494 0
M  V30 683 C 63.3052 -0.420873 -2.03085 0
M  V30 684 C 63.7302 0.964915 -1.61465 0
M  V30 685 O 63.0882 1.62763 -0.798607 0
M  V30 686 C 63.1362 -0.529414 -3.56693 0
M  V30 687 O 62.2402 0.451302 -4.09923 0
M  V30 688 H 61.5812 -0.173489 -0.640935 0
M  V30 689 H 64.1112 -1.11157 -1.71771 0
M  V30 690 H 64.1212 -0.404671 -4.05988 0
M  V30 691 H 62.7962 -1.54014 -3.86332 0
M  V30 692 H 61.3732 0.285558 -3.71805 0
M  V30 693 N 63.5583 1.46682 -0.576371 0
M  V30 694 C 64.9693 1.86112 -0.148091 0
M  V30 695 C 65.3203 1.48073 1.2872 0
M  V30 696 O 64.4453 0.892656 1.97131 0
M  V30 697 C 65.0403 3.37786 -0.261982 0
M  V30 698 C 63.5993 3.76235 0.111384 0
M  V30 699 C 62.7463 2.70713 -0.60083 0
M  V30 700 H 65.6973 1.37927 -0.78497 0
M  V30 701 H 65.7183 3.77007 0.514364 0
M  V30 702 H 65.2303 3.6544 -1.30671 0
M  V30 703 H 63.3313 3.54198 1.15649 0
M  V30 704 H 63.4443 4.78391 -0.26052 0
M  V30 705 H 61.8083 2.54666 -0.0417783 0
M  V30 706 H 62.5913 3.01208 -1.64708 0
M  V30 707 N 65.0364 0.313813 1.54444 0
M  V30 708 C 66.2614 -0.296681 2.05267 0
M  V30 709 C 66.6864 -1.45757 1.18897 0
M  V30 710 O 66.0444 -1.80239 0.195886 0
M  V30 711 C 66.0924 -0.71831 3.53373 0
M  V30 712 O 65.1964 -1.82175 3.69981 0
M  V30 713 H 64.5374 -0.0554061 0.661684 0
M  V30 714 H 67.0674 0.459387 1.99376 0
M  V30 715 H 67.0774 -1.00364 3.95463 0
M  V30 716 H 65.7524 0.130821 4.15694 0
M  V30 717 H 64.3294 -1.53598 3.39797 0
M  V30 718 N 66.5145 -1.57545 0.0417849 0
M  V30 719 C 67.7915 -1.83642 -0.673433 0
M  V30 720 C 68.1715 -0.928298 -1.89594 0
M  V30 721 O 67.5195 0.0129955 -2.28496 0
M  V30 722 C 67.7295 -3.33155 -1.03964 0
M  V30 723 C 69.0775 -3.99941 -1.42592 0
M  V30 724 O 70.1015 -3.37725 -1.13226 0
M  V30 725 O 68.9605 -5.09619 -1.9736 0
M  V30 726 H 66.0545 -0.757638 -0.331533 0
M  V30 727 H 68.6005 -1.69554 0.070433 0
M  V30 728 H 67.3725 -3.9093 -0.170098 0
M  V30 729 H 66.9955 -3.52396 -1.84126 0
M  V30 730 N 67.9926 0.231505 -1.5589 0
M  V30 731 C 69.2396 0.957352 -1.78441 0
M  V30 732 C 69.5676 1.84726 -0.60882 0
M  V30 733 O 68.8226 1.91416 0.40725 0
M  V30 734 C 69.1216 1.83577 -3.0665 0
M  V30 735 C 68.7876 1.09993 -4.37278 0
M  V30 736 C 67.4496 0.896629 -4.72773 0
M  V30 737 C 69.8016 0.579558 -5.17968 0
M  V30 738 C 67.1296 0.160896 -5.86479 0
M  V30 739 C 69.4816 -0.142783 -6.32439 0
M  V30 740 C 68.1456 -0.357427 -6.66542 0
M  V30 741 H 67.4156 0.35032 -0.65296 0
M  V30 742 H 70.0626 0.226259 -1.90159 0
M  V30 743 H 68.3676 2.63441 -2.90011 0
M  V30 744 H 70.0646 2.39934 -3.21298 0
M  V30 745 H 66.6546 1.26835 -4.09403 0
M  V30 746 H 70.8386 0.724125 -4.90989 0
M  V30 747 H 66.0946 -0.0157293 -6.11398 0
M  V30 748 H 70.2686 -0.553559 -6.94196 0
M  V30 749 H 67.8956 -0.929466 -7.54497 0
M  V30 750 N 69.4707 1.49531 0.497807 0
M  V30 751 C 70.4007 1.6935 1.60757 0
M  V30 752 C 71.3817 0.542218 1.61227 0
M  V30 753 O 72.5667 0.778417 1.77917 0
M  V30 754 C 69.6967 1.76298 2.99226 0
M  V30 755 C 68.6507 2.91248 3.13622 0
M  V30 756 C 67.9767 2.83312 4.53474 0
M  V30 757 C 69.2767 4.3214 2.93346 0
M  V30 758 H 70.9707 2.62263 1.44425 0
M  V30 759 H 68.5167 1.26208 0.693367 0
M  V30 760 H 70.4697 1.88749 3.76765 0
M  V30 761 H 69.1937 0.799871 3.16654 0
M  V30 762 H 67.8527 2.78404 2.38509 0
M  V30 763 H 67.5007 1.84902 4.67782 0
M  V30 764 H 67.2007 3.60465 4.64046 0
M  V30 765 H 68.7247 2.97775 5.33069 0
M  V30 766 H 70.1387 4.45649 3.60652 0
M  V30 767 H 68.5357 5.1054 3.15387 0
M  V30 768 H 69.6057 4.46363 1.89441 0
M  V30 769 N 70.9488 -0.749086 1.3866 0
M  V30 770 C 72.2258 -1.4992 1.25632 0
M  V30 771 C 72.6058 -2.10633 -0.140317 0
M  V30 772 O 71.9538 -1.97437 -1.15025 0
M  V30 773 C 72.1638 -2.56195 2.36992 0
M  V30 774 C 73.5118 -3.22972 2.75634 0
M  V30 775 O 74.5358 -2.66502 2.36337 0
M  V30 776 O 73.3948 -4.25122 3.43415 0
M  V30 777 H 70.4888 -0.665067 0.491544 0
M  V30 778 H 73.0348 -0.784113 1.50498 0
M  V30 779 H 71.8068 -2.09612 3.30422 0
M  V30 780 H 71.4298 -3.35279 2.13714 0
M  V30 781 N 72.4269 -1.23603 -0.977757 0
M  V30 782 C 73.3739 -1.01954 -2.07061 0
M  V30 783 C 74.3439 0.0638697 -1.65977 0
M  V30 784 O 75.5289 -0.0887624 -1.90593 0
M  V30 785 C 72.6689 -0.619658 -3.39491 0
M  V30 786 C 71.7819 -1.77547 -3.93829 0
M  V30 787 C 70.9169 -1.32212 -5.14484 0
M  V30 788 C 69.9559 -2.44852 -5.60994 0
M  V30 789 N 69.0929 -2.00456 -6.72876 0
M  V30 790 H 73.9329 -1.95495 -2.24913 0
M  V30 791 H 71.4699 -0.973861 -1.10247 0
M  V30 792 H 73.4279 -0.368898 -4.15566 0
M  V30 793 H 72.0579 0.278752 -3.21594 0
M  V30 794 H 71.1099 -2.14016 -3.14486 0
M  V30 795 H 72.4219 -2.62219 -4.24314 0
M  V30 796 H 71.5759 -1.02965 -5.97899 0
M  V30 797 H 70.3149 -0.445808 -4.85658 0
M  V30 798 H 69.3199 -2.74871 -4.76157 0
M  V30 799 H 70.5449 -3.33024 -5.91837 0
M  V30 800 H 68.4909 -1.15208 -6.45804 0
M  V30 801 H 68.4079 -2.78687 -7.02759 0
M  V30 802 H 69.6759 -1.7432 -7.59758 0
M  V30 803 N 73.905 1.17692 -1.04816 0
M  V30 804 C 74.835 2.23777 -0.666791 0
M  V30 805 C 75.816 1.66796 0.33361 0
M  V30 806 O 77.001 1.93039 0.212042 0
M  V30 807 C 74.131 3.47281 -0.0367933 0
M  V30 808 C 73.085 4.17059 -0.961546 0
M  V30 809 C 72.411 5.34342 -0.195626 0
M  V30 810 C 73.711 4.69713 -2.28402 0
M  V30 811 H 75.405 2.55933 -1.55367 0
M  V30 812 H 72.951 1.23019 -0.748484 0
M  V30 813 H 74.904 4.20706 0.241775 0
M  V30 814 H 73.628 3.14381 0.885004 0
M  V30 815 H 72.287 3.45541 -1.22462 0
M  V30 816 H 71.935 4.97692 0.728816 0
M  V30 817 H 71.635 5.81966 -0.811775 0
M  V30 818 H 73.159 6.10553 0.0757473 0
M  V30 819 H 74.573 5.34794 -2.06563 0
M  V30 820 H 72.97 5.279 -2.8538 0
M  V30 821 H 74.04 3.86726 -2.92525 0
M  V30 822 N 75.3831 0.828654 1.34056 0
M  V30 823 C 76.3161 0.199763 2.27324 0
M  V30 824 C 77.2941 -0.647168 1.49166 0
M  V30 825 O 78.4781 -0.609661 1.78369 0
M  V30 826 C 75.6051 -0.720455 3.30949 0
M  V30 827 C 74.6511 0.0496888 4.26471 0
M  V30 828 S 75.4841 1.40072 5.16856 0
M  V30 829 C 76.6401 0.485527 6.24014 0
M  V30 830 H 76.8731 0.990478 2.80316 0
M  V30 831 H 74.4061 0.624857 1.41191 0
M  V30 832 H 76.3641 -1.24581 3.91139 0
M  V30 833 H 75.0251 -1.48474 2.76793 0
M  V30 834 H 74.2181 -0.650104 4.9979 0
M  V30 835 H 73.8201 0.505779 3.70564 0
M  V30 836 H 76.1121 -0.320672 6.76741 0
M  V30 837 H 77.0551 1.18856 6.98054 0
M  V30 838 H 77.4631 0.0714109 5.64455 0
M  V30 839 N 76.8612 -1.46375 0.584142 0
M  V30 840 C 78.1092 -2.01978 0.0701287 0
M  V30 841 C 78.4302 -1.4579 -1.295 0
M  V30 842 O 77.7002 -0.64314 -1.85042 0
M  V30 843 H 76.2802 -0.746648 0.0229345 0
M  V30 844 H 78.9422 -1.79461 0.760245 0
M  V30 845 H 78.0382 -3.121 0.0022064 0
M  V30 846 N 78.3393 -0.321999 -1.54275 0
M  V30 847 C 79.7553 0.0306999 -1.5957 0
M  V30 848 C 79.9553 1.50614 -1.33857 0
M  V30 849 O 79.0113 2.2619 -1.12223 0
M  V30 850 C 80.3243 -0.386122 -2.98211 0
M  V30 851 C 81.8723 -0.336647 -3.11184 0
M  V30 852 C 82.3473 -0.728607 -4.52167 0
M  V30 853 N 83.8383 -0.681952 -4.58152 0
M  V30 854 C 84.5733 -0.957449 -5.6535 0
M  V30 855 N 84.0693 -1.3 -6.80494 0
M  V30 856 N 85.8623 -0.883113 -5.55119 0
M  V30 857 H 78.0133 -1.28332 -1.69247 0
M  V30 858 H 80.2763 -0.521716 -0.791528 0
M  V30 859 H 79.9823 -1.41404 -3.22022 0
M  V30 860 H 79.8563 0.249662 -3.76373 0
M  V30 861 H 82.2433 0.682058 -2.8711 0
M  V30 862 H 82.3243 -1.00734 -2.3513 0
M  V30 863 H 81.9683 -1.74522 -4.76974 0
M  V30 864 H 81.8983 -0.0356152 -5.26588 0
M  V30 865 H 84.3893 -0.428985 -3.75457 0
M  V30 866 H 84.7023 -1.49563 -7.58189 0
M  V30 867 H 83.0473 -1.33824 -6.81994 0
M  V30 868 H 86.2383 -0.615001 -4.64042 0
M  V30 869 H 86.4113 -1.10118 -6.38575 0
M  V30 870 N 79.8174 1.5752 -0.0501392 0
M  V30 871 C 81.0454 1.96963 0.633492 0
M  V30 872 C 81.4604 0.927631 1.6444 0
M  V30 873 O 80.8174 -0.0882665 1.82286 0
M  V30 874 C 80.8684 3.36487 1.32132 0
M  V30 875 O 80.5894 4.36693 0.350894 0
M  V30 876 C 82.0904 3.90682 2.09481 0
M  V30 877 H 79.3104 0.648244 0.173266 0
M  V30 878 H 81.8544 2.0417 -0.116134 0
M  V30 879 H 80.0094 3.30434 2.02218 0
M  V30 880 H 80.4234 5.17702 0.841735 0
M  V30 881 H 81.8974 4.90591 2.5303 0
M  V30 882 H 82.3744 3.26053 2.94255 0
M  V30 883 H 82.9804 4.00069 1.44307 0
M  V30 884 N 81.2955 -0.223234 1.56011 0
M  V30 885 C 82.5205 -0.968978 1.83373 0
M  V30 886 C 82.9455 -1.77227 0.630254 0
M  V30 887 O 82.3035 -1.76345 -0.420959 0
M  V30 888 C 82.3515 -1.86363 3.08709 0
M  V30 889 O 81.4555 -2.95873 2.87285 0
M  V30 890 H 80.7965 -0.274461 0.604622 0
M  V30 891 H 83.3265 -0.237056 2.03222 0
M  V30 892 H 83.3365 -2.27376 3.38768 0
M  V30 893 H 82.0115 -1.27319 3.95933 0
M  V30 894 H 80.5885 -2.58818 2.68454 0
M  V30 895 N 82.7736 -1.49793 -0.48987 0
M  V30 896 C 84.0216 -1.59525 -1.24081 0
M  V30 897 C 84.3426 -0.288953 -1.92847 0
M  V30 898 O 83.6126 0.692436 -1.83254 0
M  V30 899 H 82.1926 -0.587796 -0.460983 0
M  V30 900 H 84.8546 -1.86477 -0.566778 0
M  V30 901 H 83.9506 -2.39696 -1.99881 0
M  V30 902 N 84.2517 0.741722 -1.39055 0
M  V30 903 C 85.4817 1.52876 -1.3897 0
M  V30 904 C 85.8897 1.8919 0.0193266 0
M  V30 905 O 85.2327 1.54138 0.999356 0
M  V30 906 C 85.2947 2.84929 -2.19216 0
M  V30 907 C 84.9587 2.71086 -3.67915 0
M  V30 908 C 85.9557 2.40084 -4.61146 0
M  V30 909 C 83.6407 2.88168 -4.11418 0
M  V30 910 C 85.6347 2.26335 -5.95862 0
M  V30 911 C 83.3217 2.74037 -5.46211 0
M  V30 912 C 84.3197 2.43166 -6.38247 0
M  V30 913 O 84.0077 2.29115 -7.70559 0
M  V30 914 H 83.7397 0.479252 -0.476753 0
M  V30 915 H 86.2937 0.924751 -1.83405 0
M  V30 916 H 84.5237 3.47564 -1.69518 0
M  V30 917 H 86.2127 3.46509 -2.11392 0
M  V30 918 H 86.9787 2.26545 -4.28838 0
M  V30 919 H 82.8577 3.11191 -3.40119 0
M  V30 920 H 86.4017 2.0216 -6.67665 0
M  V30 921 H 82.2987 2.87153 -5.78112 0
M  V30 922 H 83.0667 2.44237 -7.81211 0
M  V30 923 N 85.7298 1.2412 0.971189 0
M  V30 924 C 87.0068 0.986867 1.6888 0
M  V30 925 C 87.3868 -0.491857 2.0529 0
M  V30 926 O 86.7348 -1.46531 1.75331 0
M  V30 927 C 86.9448 1.9063 2.92338 0
M  V30 928 C 88.2928 2.17515 3.64654 0
M  V30 929 O 89.3168 1.88254 3.02388 0
M  V30 930 O 88.1758 2.6719 4.7673 0
M  V30 931 H 85.2698 0.372944 0.738134 0
M  V30 932 H 87.8158 1.35203 1.02559 0
M  V30 933 H 86.5878 2.90552 2.62097 0
M  V30 934 H 86.2108 1.54408 3.66393 0
M  V30 935 N 87.2079 -1.17134 1.05439 0
M  V30 936 C 88.1709 -2.19439 0.661764 0
M  V30 937 C 89.1709 -1.58199 -0.288042 0
M  V30 938 O 90.3609 -1.74053 -0.0715803 0
M  V30 939 C 87.4929 -3.40889 -0.0276209 0
M  V30 940 H 88.6859 -2.55688 1.56728 0
M  V30 941 H 86.2389 -1.31259 0.848567 0
M  V30 942 H 86.9739 -3.10187 -0.94629 0
M  V30 943 H 86.7589 -3.86586 0.655238 0
M  V30 944 H 88.2489 -4.16603 -0.288342 0
M  V30 945 N 88.686 -0.835752 -1.33615 0
M  V30 946 C 90.102 -0.523139 -1.50783 0
M  V30 947 C 90.302 0.950171 -1.77691 0
M  V30 948 O 89.358 1.73411 -1.83534 0
M  V30 949 C 90.671 -1.39378 -2.66448 0
M  V30 950 C 92.219 -1.39223 -2.80332 0
M  V30 951 C 92.694 -2.24765 -3.99055 0
M  V30 952 N 94.185 -2.22458 -4.06284 0
M  V30 953 C 94.92 -2.85386 -4.97336 0
M  V30 954 N 94.416 -3.57354 -5.93523 0
M  V30 955 N 96.209 -2.74872 -4.90308 0
M  V30 956 H 88.36 -1.78952 -1.14411 0
M  V30 957 H 90.623 -0.763297 -0.562212 0
M  V30 958 H 90.329 -2.44061 -2.53234 0
M  V30 959 H 90.203 -1.0676 -3.61776 0
M  V30 960 H 92.59 -0.353136 -2.92979 0
M  V30 961 H 92.671 -1.75846 -1.85773 0
M  V30 962 H 92.315 -3.28732 -3.87167 0
M  V30 963 H 92.245 -1.85485 -4.92852 0
M  V30 964 H 94.736 -1.70119 -3.37443 0
M  V30 965 H 95.049 -4.02584 -6.59656 0
M  V30 966 H 93.394 -3.61461 -5.93608 0
M  V30 967 H 96.585 -2.18213 -4.14126 0
M  V30 968 H 96.758 -3.24199 -5.61069 0
M  V30 969 N 90.1641 1.46063 -0.591896 0
M  V30 970 C 91.4131 2.01547 -0.0786637 0
M  V30 971 C 91.7261 1.46796 1.29268 0
M  V30 972 O 92.9321 1.94157 1.89777 0
M  V30 973 C 91.3881 3.59787 -0.0900024 0
M  V30 974 C 90.9961 4.23534 -1.46023 0
M  V30 975 C 92.7401 4.22895 0.368806 0
M  V30 976 C 90.6471 5.73881 -1.4288 0
M  V30 977 H 89.5771 0.753564 -0.0256388 0
M  V30 978 H 92.2281 1.677 -0.744905 0
M  V30 979 H 90.6101 3.90752 0.642586 0
M  V30 980 H 91.7841 4.04167 -2.21328 0
M  V30 981 H 90.0991 3.72558 -1.85982 0
M  V30 982 H 92.6961 5.33116 0.411258 0
M  V30 983 H 93.0391 3.9247 1.38827 0
M  V30 984 H 93.5721 3.9659 -0.31001 0
M  V30 985 H 90.3111 6.0898 -2.42536 0
M  V30 986 H 89.8311 5.95486 -0.718095 0
M  V30 987 H 91.5101 6.36776 -1.14565 0
M  V30 988 N 91.6422 0.330177 1.54103 0
M  V30 989 C 93.0582 -0.0222371 1.59585 0
M  V30 990 C 93.2582 -1.49902 1.34654 0
M  V30 991 O 92.3142 -2.25592 1.13421 0
M  V30 992 C 93.6272 0.401932 2.98002 0
M  V30 993 C 95.1752 0.353145 3.11001 0
M  V30 994 C 95.6502 0.752576 4.51775 0
M  V30 995 N 97.1412 0.706239 4.57784 0
M  V30 996 C 97.8762 0.987417 5.64834 0
M  V30 997 N 97.3722 1.33607 6.79795 0
M  V30 998 N 99.1652 0.91254 5.54643 0
M  V30 999 H 91.3162 1.29228 1.68564 0
M  V30 1000 H 93.5792 0.525906 0.78875 0
M  V30 1001 H 93.2852 1.4311 3.21267 0
M  V30 1002 H 93.1592 -0.229699 3.765 0
M  V30 1003 H 95.5462 -0.666822 2.87467 0
M  V30 1004 H 95.6272 1.0198 2.34593 0
M  V30 1005 H 95.2712 1.77049 4.76042 0
M  V30 1006 H 95.2012 0.0635409 5.26562 0
M  V30 1007 H 97.6922 0.44889 3.75224 0
M  V30 1008 H 98.0052 1.53582 7.57385 0
M  V30 1009 H 96.3502 1.37439 6.81275 0
M  V30 1010 H 99.5412 0.639601 4.6371 0
M  V30 1011 H 99.7142 1.13503 6.37982 0
M  V30 1012 N 93.1203 -1.57491 0.0584922 0
M  V30 1013 C 94.5313 -1.80526 -0.476138 0
M  V30 1014 C 94.8823 -0.971334 -1.70469 0
M  V30 1015 O 94.0073 -0.190012 -2.15564 0
M  V30 1016 C 94.6023 -3.27424 -0.870587 0
M  V30 1017 C 93.1613 -3.51351 -1.35015 0
M  V30 1018 C 92.3083 -2.75343 -0.32887 0
M  V30 1019 H 95.2593 -1.56133 0.284312 0
M  V30 1020 H 95.2803 -3.38745 -1.73299 0
M  V30 1021 H 94.7923 -3.88093 0.0237627 0
M  V30 1022 H 92.8933 -2.95971 -2.26345 0
M  V30 1023 H 93.0063 -4.60059 -1.33726 0
M  V30 1024 H 91.3703 -2.417 -0.803321 0
M  V30 1025 H 92.1533 -3.38743 0.557521 0
M  V30 1026 N 94.5984 0.214957 -1.56127 0
M  V30 1027 C 95.5464 1.28601 -1.93816 0
M  V30 1028 C 96.5404 1.48175 -0.821016 0
M  V30 1029 O 97.7464 1.49271 -1.0059 0
M  V30 1030 H 94.1214 0.431302 -0.616022 0
M  V30 1031 H 96.0924 0.940991 -2.83175 0
M  V30 1032 C 94.8414 2.62779 -2.27689 0
M  V30 1033 H 94.1644 2.48527 -3.13168 0
M  V30 1034 H 95.6044 3.36517 -2.57939 0
M  V30 1035 C 94.0634 3.18285 -1.10436 0
M  V30 1036 O 94.5934 4.00002 -0.368945 0
M  V30 1037 N 92.7994 2.7675 -0.886433 0
M  V30 1038 H 92.3464 2.10404 -1.48619 0
M  V30 1039 H 92.3044 3.14229 -0.103656 0
M  V30 1040 N 96.0765 1.50051 0.48192 0
M  V30 1041 C 97.3235 1.60498 1.23477 0
M  V30 1042 C 97.6515 0.300331 1.92167 0
M  V30 1043 O 96.9065 -0.713094 1.82246 0
M  V30 1044 C 97.2055 2.72717 2.30998 0
M  V30 1045 C 96.8715 4.13572 1.79636 0
M  V30 1046 C 95.5335 4.519 1.65348 0
M  V30 1047 C 97.8855 5.01649 1.41412 0
M  V30 1048 C 95.2135 5.76057 1.11244 0
M  V30 1049 C 97.5655 6.26343 0.887538 0
M  V30 1050 C 96.2295 6.63483 0.731207 0
M  V30 1051 H 95.4995 0.587303 0.451836 0
M  V30 1052 H 98.1465 1.83948 0.532468 0
M  V30 1053 H 96.4515 2.43312 3.07094 0
M  V30 1054 H 98.1485 2.78006 2.88988 0
M  V30 1055 H 94.7385 3.83329 1.91721 0
M  V30 1056 H 98.9225 4.72679 1.51289 0
M  V30 1057 H 94.1785 6.03516 0.978686 0
M  V30 1058 H 98.3525 6.93958 0.582654 0
M  V30 1059 H 95.9795 7.59568 0.309806 0
M  V30 1060 N 97.5546 -0.734337 1.39446 0
M  V30 1061 C 98.5016 -1.84835 1.38219 0
M  V30 1062 C 99.4716 -1.64331 0.24179 0
M  V30 1063 O 100.657 -1.85728 0.437002 0
M  V30 1064 C 97.7966 -3.22355 1.23212 0
M  V30 1065 C 96.9096 -3.5456 2.46801 0
M  V30 1066 C 96.0446 -4.81485 2.24377 0
M  V30 1067 C 95.0836 -5.06536 3.43639 0
M  V30 1068 N 94.2206 -6.24665 3.20528 0
M  V30 1069 H 99.0606 -1.85219 2.33448 0
M  V30 1070 H 96.5976 -0.905039 1.15963 0
M  V30 1071 H 98.5556 -4.0174 1.12522 0
M  V30 1072 H 97.1856 -3.21248 0.316121 0
M  V30 1073 H 96.2376 -2.69872 2.68092 0
M  V30 1074 H 97.5496 -3.6899 3.3563 0
M  V30 1075 H 96.7036 -5.68852 2.10933 0
M  V30 1076 H 95.4426 -4.6923 1.32944 0
M  V30 1077 H 94.4476 -4.17632 3.5758 0
M  V30 1078 H 95.6726 -5.20676 4.35974 0
M  V30 1079 H 93.6186 -6.13696 2.3176 0
M  V30 1080 H 93.5356 -6.39685 4.02913 0
M  V30 1081 H 94.8036 -7.14868 3.10779 0
M  V30 1082 N 99.0327 -1.24633 -0.964593 0
M  V30 1083 C 100.281 -1.08573 -1.70459 0
M  V30 1084 C 100.602 0.375655 -1.91347 0
M  V30 1085 O 99.8717 1.26779 -1.49345 0
M  V30 1086 H 98.4517 -0.398784 -0.631649 0
M  V30 1087 H 101.114 -1.56601 -1.16026 0
M  V30 1088 H 100.21 -1.58623 -2.68785 0
M  V30 1089 N 100.511 1.16574 -1.06058 0
M  V30 1090 C 101.922 1.68662 -0.800632 0
M  V30 1091 C 102.273 1.84184 0.67608 0
M  V30 1092 O 101.398 1.53568 1.52466 0
M  V30 1093 C 101.993 3.06356 -1.44676 0
M  V30 1094 C 100.552 3.55575 -1.23465 0
M  V30 1095 C 99.6988 2.31616 -1.52477 0
M  V30 1096 H 102.65 1.00969 -1.22438 0
M  V30 1097 H 102.671 3.70636 -0.860788 0
M  V30 1098 H 102.183 2.95027 -2.52152 0
M  V30 1099 H 100.284 3.72167 -0.179527 0
M  V30 1100 H 100.397 4.37812 -1.94571 0
M  V30 1101 H 98.7608 2.36512 -0.945209 0
M  V30 1102 H 99.5438 2.22887 -2.61106 0
M  V30 1103 N 101.989 0.842826 1.3317 0
M  V30 1104 C 103.4 0.496651 1.79973 0
M  V30 1105 C 103.751 -0.984641 1.69703 0
M  V30 1106 O 102.876 -1.76743 1.24863 0
M  V30 1107 C 103.471 0.894727 3.26772 0
M  V30 1108 C 102.03 0.600629 3.71577 0
M  V30 1109 C 101.177 1.10091 2.5451 0
M  V30 1110 H 104.128 1.03116 1.20635 0
M  V30 1111 H 104.149 0.206347 3.7994 0
M  V30 1112 H 103.661 1.97287 3.34215 0
M  V30 1113 H 101.762 -0.467284 3.69658 0
M  V30 1114 H 101.875 1.15863 4.64879 0
M  V30 1115 H 100.239 0.52162 2.49301 0
M  V30 1116 H 101.022 2.18591 2.64713 0
M  V30 1117 N 103.467 -1.45747 0.599634 0
M  V30 1118 C 104.713 -2.02592 0.0918643 0
M  V30 1119 C 105.046 -1.46806 -1.27128 0
M  V30 1120 O 104.321 -0.639658 -1.83681 0
M  V30 1121 C 104.604 -3.60073 0.0443398 0
M  V30 1122 C 104.457 -4.26208 1.43759 0
M  V30 1123 C 105.776 -4.35309 -0.647608 0
M  V30 1124 H 102.895 -0.736175 0.034857 0
M  V30 1125 H 105.537 -1.73694 0.770081 0
M  V30 1126 H 103.687 -3.84823 -0.533224 0
M  V30 1127 H 105.359 -4.12668 2.06162 0
M  V30 1128 H 103.602 -3.84916 2.00056 0
M  V30 1129 H 104.273 -5.35069 1.35665 0
M  V30 1130 H 106.749 -4.15805 -0.156776 0
M  V30 1131 H 105.625 -5.45038 -0.649942 0
M  V30 1132 H 105.886 -4.07598 -1.71219 0
M  V30 1133 N 104.945 -0.338344 -1.53925 0
M  V30 1134 C 105.893 0.536231 -2.26335 0
M  V30 1135 C 106.887 1.1063 -1.28286 0
M  V30 1136 O 108.093 1.05264 -1.46012 0
M  V30 1137 H 104.468 0.191602 -0.727181 0
M  V30 1138 H 106.439 -0.0965747 -2.98244 0
M  V30 1139 C 105.188 1.67803 -3.04528 0
M  V30 1140 H 104.511 1.24864 -3.79801 0
M  V30 1141 H 105.951 2.26526 -3.58416 0
M  V30 1142 C 104.41 2.60439 -2.13712 0
M  V30 1143 O 104.94 3.6255 -1.72975 0
M  V30 1144 N 103.146 2.29006 -1.78898 0
M  V30 1145 H 102.693 1.46011 -2.12223 0
M  V30 1146 H 102.651 2.91248 -1.18416 0
M  V30 1147 N 106.423 1.57458 -0.0668435 0
M  V30 1148 C 107.669 1.93587 0.6043 0
M  V30 1149 C 108.002 0.946722 1.69561 0
M  V30 1150 O 107.277 -0.0248516 1.94484 0
M  V30 1151 C 107.56 3.40014 1.18585 0
M  V30 1152 C 107.413 4.49685 0.101529 0
M  V30 1153 C 108.732 3.87154 2.09284 0
M  V30 1154 H 105.851 0.703958 0.218202 0
M  V30 1155 H 108.493 1.89542 -0.131804 0
M  V30 1156 H 106.643 3.43592 1.81319 0
M  V30 1157 H 108.315 4.5823 -0.531279 0
M  V30 1158 H 106.558 4.30059 -0.568487 0
M  V30 1159 H 107.229 5.49266 0.54874 0
M  V30 1160 H 109.705 3.85551 1.56491 0
M  V30 1161 H 108.581 4.90231 2.46911 0
M  V30 1162 H 108.842 3.2481 2.99918 0
M  V30 1163 N 107.901 -0.206675 1.56239 0
M  V30 1164 C 109.129 -0.945345 1.8404 0
M  V30 1165 C 109.544 -1.77336 0.647885 0
M  V30 1166 O 108.901 -1.78425 -0.383511 0
M  V30 1167 C 108.952 -1.8509 3.10522 0
M  V30 1168 O 108.673 -1.05634 4.25174 0
M  V30 1169 C 110.174 -2.70222 3.51418 0
M  V30 1170 H 107.394 -0.276372 0.61144 0
M  V30 1171 H 109.938 -0.217417 2.03341 0
M  V30 1172 H 108.093 -2.53259 2.93153 0
M  V30 1173 H 108.507 -1.67238 4.97124 0
M  V30 1174 H 109.981 -3.29438 4.42916 0
M  V30 1175 H 110.458 -3.43358 2.73864 0
M  V30 1176 H 111.064 -2.07443 3.71278 0
M  V30 1177 N 109.379 -1.50304 -0.473955 0
M  V30 1178 C 110.619 -1.62786 -1.23612 0
M  V30 1179 C 110.983 -0.319786 -1.89318 0
M  V30 1180 O 112.184 -0.320012 -2.66888 0
M  V30 1181 C 110.455 -2.77351 -2.25414 0
M  V30 1182 S 112.014 -3.09948 -3.10608 0
M  V30 1183 H 108.832 -0.573895 -0.419721 0
M  V30 1184 H 111.434 -1.88076 -0.533623 0
M  V30 1185 H 110.138 -3.70879 -1.75719 0
M  V30 1186 H 109.669 -2.54137 -3.00296 0
M  V30 1187 H 111.684 -2.53553 -4.26527 0
M  V30 1188 N 110.857 0.726932 -1.39834 0
M  V30 1189 C 111.805 1.86235 -1.39353 0
M  V30 1190 C 112.799 1.67144 -0.275555 0
M  V30 1191 O 114.005 1.74387 -0.44601 0
M  V30 1192 H 110.38 0.613174 -0.43534 0
M  V30 1193 H 112.351 1.83756 -2.35109 0
M  V30 1194 C 111.1 3.23995 -1.26185 0
M  V30 1195 H 110.423 3.39285 -2.11484 0
M  V30 1196 H 111.863 4.03609 -1.29907 0
M  V30 1197 C 110.322 3.36888 0.0290018 0
M  V30 1198 O 110.852 3.89152 0.99619 0
M  V30 1199 N 109.058 2.90446 0.0947437 0
M  V30 1200 H 108.605 2.48102 -0.693035 0
M  V30 1201 H 108.563 2.99451 0.957932 0
M  V30 1202 N 112.336 1.25143 0.95797 0
M  V30 1203 C 113.585 1.0909 1.69654 0
M  V30 1204 C 113.898 -0.368548 1.92097 0
M  V30 1205 O 115.104 -0.649455 2.63618 0
M  V30 1206 C 113.56 1.90395 3.05414 0
M  V30 1207 C 113.168 3.4081 2.90779 0
M  V30 1208 C 114.912 1.82901 3.83076 0
M  V30 1209 C 112.819 4.14423 4.21909 0
M  V30 1210 H 111.749 0.404625 0.636235 0
M  V30 1211 H 114.4 1.4931 1.06672 0
M  V30 1212 H 112.782 1.42996 3.69281 0
M  V30 1213 H 113.956 3.95859 2.35865 0
M  V30 1214 H 112.271 3.49361 2.26575 0
M  V30 1215 H 114.868 2.35196 4.80195 0
M  V30 1216 H 115.211 0.796224 4.08615 0
M  V30 1217 H 115.744 2.28033 3.25954 0
M  V30 1218 H 112.483 5.18102 4.01561 0
M  V30 1219 H 112.003 3.64159 4.76601 0
M  V30 1220 H 113.682 4.21956 4.90471 0
M  V30 1221 N 113.814 -1.1601 1.06675 0
M  V30 1222 C 115.061 -1.86633 0.785781 0
M  V30 1223 C 115.389 -1.81929 -0.687896 0
M  V30 1224 O 114.644 -1.23253 -1.52011 0
M  V30 1225 C 114.943 -3.35547 1.23057 0
M  V30 1226 C 114.609 -3.60448 2.70902 0
M  V30 1227 C 113.271 -3.66954 3.11285 0
M  V30 1228 C 115.623 -3.7071 3.66365 0
M  V30 1229 C 112.951 -3.81225 4.45965 0
M  V30 1230 C 115.303 -3.86503 5.00797 0
M  V30 1231 C 113.967 -3.91252 5.40813 0
M  V30 1232 H 113.237 -0.682937 0.287538 0
M  V30 1233 H 115.884 -1.37146 1.33654 0
M  V30 1234 H 114.189 -3.87193 0.59907 0
M  V30 1235 H 115.886 -3.88583 0.990163 0
M  V30 1236 H 112.476 -3.56021 2.38636 0
M  V30 1237 H 116.66 -3.64991 3.36296 0
M  V30 1238 H 111.916 -3.83155 4.76447 0
M  V30 1239 H 116.09 -3.93385 5.74649 0
M  V30 1240 H 113.717 -4.02062 6.45174 0
M  V30 1241 N 115.292 -0.849877 -1.32721 0
M  V30 1242 C 116.541 -0.447175 -1.96681 0
M  V30 1243 C 116.854 1.00135 -1.68025 0
M  V30 1244 O 118.06 1.50926 -2.25685 0
M  V30 1245 C 116.516 -0.7487 -3.52026 0
M  V30 1246 C 116.124 -2.21264 -3.89546 0
M  V30 1247 C 117.868 -0.413487 -4.22481 0
M  V30 1248 C 115.775 -2.45763 -5.37917 0
M  V30 1249 H 114.705 -0.163486 -0.736063 0
M  V30 1250 H 117.356 -1.03999 -1.51183 0
M  V30 1251 H 115.738 -0.0853727 -3.95908 0
M  V30 1252 H 116.912 -2.91736 -3.56689 0
M  V30 1253 H 115.227 -2.5119 -3.32103 0
M  V30 1254 H 117.824 -0.574017 -5.3161 0
M  V30 1255 H 118.167 0.644492 -4.11281 0
M  V30 1256 H 118.7 -1.03251 -3.84167 0
M  V30 1257 H 115.439 -3.50168 -5.54132 0
M  V30 1258 H 114.959 -1.79864 -5.72197 0
M  V30 1259 H 116.638 -2.29471 -6.0494 0
M  V30 1260 N 116.77 1.45427 -0.607355 0
M  V30 1261 C 117.718 2.32269 0.12411 0
M  V30 1262 C 118.712 1.45955 0.859854 0
M  V30 1263 O 119.918 1.6244 0.775447 0
M  V30 1264 H 116.293 0.749691 0.0588839 0
M  V30 1265 H 118.264 2.91743 -0.626762 0
M  V30 1266 C 117.013 3.29567 1.1082 0
M  V30 1267 H 116.336 3.95978 0.551492 0
M  V30 1268 H 117.776 3.93061 1.58995 0
M  V30 1269 C 116.235 2.56722 2.18164 0
M  V30 1270 O 116.765 2.34842 3.25902 0
M  V30 1271 N 114.971 2.16861 1.93442 0
M  V30 1272 H 114.518 2.34855 1.05834 0
M  V30 1273 H 114.476 1.68444 2.65469 0
M  V30 1274 N 118.248 0.346503 1.53744 0
M  V30 1275 C 119.473 -0.253074 2.0585 0
M  V30 1276 C 119.898 -1.43202 1.21962 0
M  V30 1277 O 119.256 -1.79783 0.234073 0
M  V30 1278 C 119.304 -0.643193 3.54817 0
M  V30 1279 O 118.408 -1.74286 3.73762 0
M  V30 1280 H 117.749 -0.0413583 0.662711 0
M  V30 1281 H 120.279 0.501574 1.98357 0
M  V30 1282 H 120.289 -0.919526 3.97503 0
M  V30 1283 H 118.964 0.218966 4.15323 0
M  V30 1284 H 117.541 -1.46356 3.42979 0
M  V30 1285 N 119.726 -1.57421 0.075193 0
M  V30 1286 C 120.973 -1.93618 -0.593146 0
M  V30 1287 C 121.301 -0.955484 -1.69413 0
M  V30 1288 O 120.556 0.0283251 -1.9568 0
M  V30 1289 C 120.855 -3.36428 -1.20626 0
M  V30 1290 C 120.521 -4.50307 -0.231078 0
M  V30 1291 C 119.183 -4.81186 0.0371936 0
M  V30 1292 C 121.535 -5.19374 0.435888 0
M  V30 1293 C 118.863 -5.78466 0.979461 0
M  V30 1294 C 121.215 -6.17665 1.3665 0
M  V30 1295 C 119.879 -6.46958 1.6432 0
M  V30 1296 H 119.149 -0.708499 -0.217047 0
M  V30 1297 H 121.796 -1.90937 0.146793 0
M  V30 1298 H 120.101 -3.35592 -2.02201 0
M  V30 1299 H 121.798 -3.61727 -1.73073 0
M  V30 1300 H 118.388 -4.26227 -0.450357 0
M  V30 1301 H 122.572 -4.95711 0.241748 0
M  V30 1302 H 117.828 -5.99487 1.20106 0
M  V30 1303 H 122.002 -6.70284 1.88924 0
M  V30 1304 H 119.629 -7.2215 2.37494 0
M  V30 1305 N 121.204 0.198386 -1.56346 0
M  V30 1306 C 122.452 0.91747 -1.80075 0
M  V30 1307 C 122.773 1.83929 -0.647692 0
M  V30 1308 O 122.043 1.93029 0.334166 0
M  V30 1309 H 120.623 0.341774 -0.664228 0
M  V30 1310 H 123.285 0.204684 -1.93822 0
M  V30 1311 H 122.381 1.51055 -2.7311 0
M  V30 1312 N 122.682 1.50554 0.465978 0
M  V30 1313 C 123.907 1.65838 1.24549 0
M  V30 1314 C 124.332 0.343486 1.84937 0
M  V30 1315 O 123.69 -0.69324 1.67523 0
M  V30 1316 C 123.738 2.75533 2.32624 0
M  V30 1317 O 122.842 2.37142 3.37398 0
M  V30 1318 H 122.183 0.553893 0.366194 0
M  V30 1319 H 124.713 1.96959 0.553927 0
M  V30 1320 H 124.723 2.98763 2.77857 0
M  V30 1321 H 123.398 3.70962 1.88043 0
M  V30 1322 H 121.975 2.24377 2.97841 0
M  V30 1323 N 124.16 -0.719506 1.40217 0
M  V30 1324 C 125.406 -1.48152 1.38488 0
M  V30 1325 C 125.739 -1.94195 -0.0141867 0
M  V30 1326 O 125.014 -1.67884 -0.982096 0
M  V30 1327 C 125.297 -2.71035 2.37091 0
M  V30 1328 C 125.15 -2.30912 3.86005 0
M  V30 1329 C 126.469 -3.73182 2.33288 0
M  V30 1330 H 123.588 -0.537395 0.504357 0
M  V30 1331 H 126.23 -0.821472 1.71324 0
M  V30 1332 H 124.38 -3.27352 2.0922 0
M  V30 1333 H 126.052 -1.80107 4.24687 0
M  V30 1334 H 124.295 -1.62958 4.02029 0
M  V30 1335 H 124.966 -3.18978 4.50508 0
M  V30 1336 H 127.442 -3.26485 2.57966 0
M  V30 1337 H 126.318 -4.56806 3.04334 0
M  V30 1338 H 126.579 -4.21202 1.34317 0
M  V30 1339 N 125.638 -1.25649 -0.95132 0
M  V30 1340 C 126.866 -1.13343 -1.73092 0
M  V30 1341 C 127.281 0.312434 -1.86197 0
M  V30 1342 O 126.638 1.21465 -1.36207 0
M  V30 1343 C 126.689 -1.78602 -3.14299 0
M  V30 1344 O 126.41 -3.17537 -3.01831 0
M  V30 1345 C 127.911 -1.72119 -4.08522 0
M  V30 1346 H 125.131 -0.395181 -0.542285 0
M  V30 1347 H 127.675 -1.66076 -1.19328 0
M  V30 1348 H 125.83 -1.29832 -3.64996 0
M  V30 1349 H 126.244 -3.49676 -3.90931 0
M  V30 1350 H 127.718 -2.22435 -5.052 0
M  V30 1351 H 128.195 -0.685635 -4.33815 0
M  V30 1352 H 128.801 -2.20393 -3.63741 0
M  V30 1353 N 127.117 1.15442 -1.07289 0
M  V30 1354 C 128.027 2.23786 -0.704057 0
M  V30 1355 C 129.043 1.7166 0.284413 0
M  V30 1356 O 130.219 2.00972 0.131205 0
M  V30 1357 C 127.284 3.46535 -0.106792 0
M  V30 1358 C 126.345 4.13654 -1.14842 0
M  V30 1359 C 125.578 5.30544 -0.57956 0
M  V30 1360 O 125.801 5.67187 0.604585 0
M  V30 1361 O 124.735 5.87154 -1.32414 0
M  V30 1362 H 128.561 2.57664 -1.60757 0
M  V30 1363 H 126.146 1.23152 -0.845803 0
M  V30 1364 H 128.028 4.20804 0.224048 0
M  V30 1365 H 126.703 3.14407 0.770049 0
M  V30 1366 H 125.61 3.4131 -1.5316 0
M  V30 1367 H 126.943 4.49861 -1.99714 0
M  V30 1368 N 128.595 0.856903 1.32268 0
M  V30 1369 C 129.823 0.475439 2.01363 0
M  V30 1370 C 130.238 -0.928486 1.64392 0
M  V30 1371 O 129.595 -1.60624 0.866387 0
M  V30 1372 C 129.646 0.607545 3.56358 0
M  V30 1373 O 129.367 1.95617 3.92002 0
M  V30 1374 C 130.868 0.225382 4.42727 0
M  V30 1375 H 128.088 0.186636 0.644521 0
M  V30 1376 H 130.632 1.15446 1.68797 0
M  V30 1377 H 128.787 -0.0237719 3.87393 0
M  V30 1378 H 129.201 1.95455 4.86721 0
M  V30 1379 H 130.675 0.368813 5.50767 0
M  V30 1380 H 131.152 -0.834369 4.31202 0
M  V30 1381 H 131.758 0.831864 4.17085 0
M  V30 1382 N 130.073 -1.45103 0.615059 0
M  V30 1383 C 131.301 -2.06553 0.11977 0
M  V30 1384 C 131.716 -1.45842 -1.19898 0
M  V30 1385 O 131.073 -0.575325 -1.73194 0
M  V30 1386 C 131.124 -3.61495 -0.018364 0
M  V30 1387 O 130.845 -4.19942 1.24822 0
M  V30 1388 C 132.346 -4.39947 -0.544237 0
M  V30 1389 H 129.566 -0.667096 0.0722739 0
M  V30 1390 H 132.11 -1.8623 0.84491 0
M  V30 1391 H 130.265 -3.81135 -0.693865 0
M  V30 1392 H 130.679 -5.13204 1.0827 0
M  V30 1393 H 132.153 -5.48838 -0.589953 0
M  V30 1394 H 132.63 -4.10255 -1.56805 0
M  V30 1395 H 133.236 -4.25188 0.0974703 0
M  V30 1396 N 131.551 -0.354651 -1.53558 0
M  V30 1397 C 132.484 0.540273 -2.21712 0
M  V30 1398 C 133.462 1.09161 -1.2051 0
M  V30 1399 O 134.646 1.14979 -1.49372 0
M  V30 1400 C 131.773 1.74435 -2.90328 0
M  V30 1401 C 130.819 1.32146 -4.05512 0
M  V30 1402 S 131.652 0.331924 -5.3447 0
M  V30 1403 C 132.808 1.54258 -6.06593 0
M  V30 1404 H 133.041 -0.0385776 -2.97275 0
M  V30 1405 H 130.574 -0.138736 -1.53775 0
M  V30 1406 H 132.532 2.43507 -3.30476 0
M  V30 1407 H 131.193 2.29444 -2.1451 0
M  V30 1408 H 130.386 2.21952 -4.52497 0
M  V30 1409 H 129.988 0.710091 -3.67197 0
M  V30 1410 H 132.28 2.47534 -6.30661 0
M  V30 1411 H 133.223 1.11431 -6.99277 0
M  V30 1412 H 133.631 1.74367 -5.36895 0
M  V30 1413 N 133.029 1.57378 -0.0835403 0
M  V30 1414 C 134.306 1.85363 0.624507 0
M  V30 1415 C 134.686 0.978239 1.87066 0
M  V30 1416 O 134.034 0.0475908 2.2845 0
M  V30 1417 C 134.244 3.35795 0.950947 0
M  V30 1418 C 135.592 4.03581 1.31939 0
M  V30 1419 O 136.616 3.40609 1.04232 0
M  V30 1420 O 135.475 5.14672 1.83779 0
M  V30 1421 H 132.569 0.766162 0.311329 0
M  V30 1422 H 135.115 1.69307 -0.115362 0
M  V30 1423 H 133.887 3.91244 0.0663899 0
M  V30 1424 H 133.51 3.57154 1.74719 0
M  V30 1425 N 134.507 -0.190092 1.56449 0
M  V30 1426 C 135.737 -0.92443 1.84764 0
M  V30 1427 C 136.145 -1.77146 0.664529 0
M  V30 1428 O 135.488 -1.79812 -0.375957 0
M  V30 1429 C 135.55 -1.86651 3.07248 0
M  V30 1430 C 135.214 -1.20094 4.40938 0
M  V30 1431 C 136.211 -0.575445 5.16706 0
M  V30 1432 C 133.896 -1.2033 4.87674 0
M  V30 1433 C 135.89 0.0388111 6.37388 0
M  V30 1434 C 133.577 -0.585214 6.08291 0
M  V30 1435 C 134.575 0.0347578 6.82991 0
M  V30 1436 O 134.263 0.643147 8.01323 0
M  V30 1437 H 133.995 -0.274974 0.617548 0
M  V30 1438 H 136.549 -0.200788 2.04416 0
M  V30 1439 H 134.779 -2.62998 2.83494 0
M  V30 1440 H 136.468 -2.46907 3.22167 0
M  V30 1441 H 137.234 -0.565728 4.81689 0
M  V30 1442 H 133.113 -1.67526 4.29484 0
M  V30 1443 H 136.657 0.523329 6.95634 0
M  V30 1444 H 132.554 -0.592451 6.42775 0
M  V30 1445 H 133.322 0.540545 8.16713 0
M  V30 1446 N 135.985 -1.50799 -0.457987 0
M  V30 1447 C 137.401 -1.38515 -0.792819 0
M  V30 1448 C 137.601 -0.451409 -1.96379 0
M  V30 1449 O 136.657 0.10112 -2.52297 0
M  V30 1450 C 137.97 -2.80149 -1.09258 0
M  V30 1451 C 139.518 -2.89156 -1.19825 0
M  V30 1452 C 139.993 -4.31651 -1.53106 0
M  V30 1453 N 141.484 -4.34662 -1.60072 0
M  V30 1454 C 142.219 -5.41928 -1.87354 0
M  V30 1455 N 141.715 -6.59384 -2.12568 0
M  V30 1456 N 143.508 -5.29385 -1.88965 0
M  V30 1457 H 135.659 -2.10073 0.313511 0
M  V30 1458 H 137.922 -0.944803 0.0777862 0
M  V30 1459 H 137.628 -3.50374 -0.305084 0
M  V30 1460 H 137.502 -3.18204 -2.02549 0
M  V30 1461 H 139.889 -2.19141 -1.97639 0
M  V30 1462 H 139.97 -2.54626 -0.244821 0
M  V30 1463 H 139.614 -5.02208 -0.758266 0
M  V30 1464 H 139.544 -4.63678 -2.49621 0
M  V30 1465 H 142.035 -3.49973 -1.42573 0
M  V30 1466 H 142.348 -7.36934 -2.32696 0
M  V30 1467 H 140.693 -6.62535 -2.09933 0
M  V30 1468 H 143.884 -4.36616 -1.68772 0
M  V30 1469 H 144.057 -6.13066 -2.09891 0
M  V30 1470 N 137.463 0.71206 -1.40597 0
M  V30 1471 C 138.709 1.47416 -1.39271 0
M  V30 1472 C 139.042 1.942 0.00388791 0
M  V30 1473 O 138.317 1.68403 0.973179 0
M  V30 1474 C 138.6 2.69774 -2.38525 0
M  V30 1475 C 138.453 2.28861 -3.87224 0
M  V30 1476 C 139.772 3.71939 -2.35264 0
M  V30 1477 H 136.891 0.534713 -0.5072 0
M  V30 1478 H 139.533 0.812375 -1.71757 0
M  V30 1479 H 137.683 3.26238 -2.10953 0
M  V30 1480 H 139.355 1.77852 -4.25636 0
M  V30 1481 H 137.598 1.60824 -4.02887 0
M  V30 1482 H 138.269 3.16584 -4.52193 0
M  V30 1483 H 140.745 3.25113 -2.59694 0
M  V30 1484 H 139.621 4.55186 -3.06753 0
M  V30 1485 H 139.882 4.20484 -1.36549 0
M  V30 1486 N 138.941 1.26152 0.944643 0
M  V30 1487 C 139.889 1.07215 2.06417 0
M  V30 1488 C 140.883 9.2007e-05 1.694 0
M  V30 1489 O 142.089 0.1565 1.79318 0
M  V30 1490 H 138.464 0.329837 0.675805 0
M  V30 1491 H 140.435 2.02099 2.19541 0
M  V30 1492 C 139.184 0.718197 3.40202 0
M  V30 1493 H 138.507 1.53497 3.69159 0
M  V30 1494 H 139.947 0.625459 4.19361 0
M  V30 1495 C 138.406 -0.576435 3.31932 0
M  V30 1496 O 138.936 -1.61574 3.67773 0
M  V30 1497 N 137.142 -0.565781 2.85039 0
M  V30 1498 H 136.689 0.280367 2.5607 0
M  V30 1499 H 136.647 -1.43213 2.79888 0
M  V30 1500 N 140.419 -1.14872 1.07899 0
M  V30 1501 C 141.668 -1.85135 0.800499 0
M  V30 1502 C 141.981 -1.83547 -0.676014 0
M  V30 1503 O 143.187 -2.49548 -1.06948 0
M  V30 1504 C 141.643 -3.3231 1.38197 0
M  V30 1505 C 141.251 -3.42329 2.8899 0
M  V30 1506 C 142.995 -4.0772 1.18174 0
M  V30 1507 C 140.902 -4.83684 3.403 0
M  V30 1508 H 139.832 -0.693563 0.29578 0
M  V30 1509 H 142.483 -1.29532 1.29976 0
M  V30 1510 H 140.865 -3.87618 0.810431 0
M  V30 1511 H 142.039 -2.97097 3.52236 0
M  V30 1512 H 140.354 -2.80369 3.07867 0
M  V30 1513 H 142.951 -5.12049 1.5398 0
M  V30 1514 H 143.294 -4.16124 0.12117 0
M  V30 1515 H 143.827 -3.58696 1.71994 0
M  V30 1516 H 140.566 -4.80465 4.45907 0
M  V30 1517 H 140.086 -5.29474 2.81811 0
M  V30 1518 H 141.765 -5.52558 3.36584 0
M  V30 1519 N 141.898 -0.863906 -1.31812 0
M  V30 1520 C 143.145 -0.471836 -1.96926 0
M  V30 1521 C 143.473 0.974578 -1.68322 0
M  V30 1522 O 142.728 1.7003 -0.968933 0
M  V30 1523 C 143.027 -0.668547 -3.51091 0
M  V30 1524 C 142.693 -2.08683 -3.99703 0
M  V30 1525 C 141.355 -2.47471 -4.12688 0
M  V30 1526 C 143.707 -3.01207 -4.25351 0
M  V30 1527 C 141.035 -3.78037 -4.4867 0
M  V30 1528 C 143.387 -4.31282 -4.62794 0
M  V30 1529 C 142.051 -4.69992 -4.73987 0
M  V30 1530 H 141.321 -0.172657 -0.720604 0
M  V30 1531 H 143.968 -1.09573 -1.57054 0
M  V30 1532 H 142.273 0.0385252 -3.91781 0
M  V30 1533 H 143.97 -0.345102 -3.99512 0
M  V30 1534 H 140.56 -1.77566 -3.90087 0
M  V30 1535 H 144.744 -2.72469 -4.14819 0
M  V30 1536 H 140 -4.078 -4.55532 0
M  V30 1537 H 144.174 -5.03031 -4.81594 0
M  V30 1538 H 141.801 -5.71207 -5.01624 0
M  V30 1539 N 143.376 1.44774 -0.622745 0
M  V30 1540 C 144.306 2.33382 0.0741861 0
M  V30 1541 C 145.287 1.47719 0.843387 0
M  V30 1542 O 146.472 1.76458 0.810934 0
M  V30 1543 C 143.602 3.30663 1.06204 0
M  V30 1544 C 142.556 4.26079 0.405037 0
M  V30 1545 C 141.882 5.13165 1.5022 0
M  V30 1546 C 143.182 5.1781 -0.683414 0
M  V30 1547 H 144.876 2.91905 -0.665713 0
M  V30 1548 H 142.422 1.40363 -0.321587 0
M  V30 1549 H 144.375 3.9153 1.55827 0
M  V30 1550 H 143.099 2.70331 1.83272 0
M  V30 1551 H 141.758 3.66532 -0.0704683 0
M  V30 1552 H 141.406 4.49191 2.26355 0
M  V30 1553 H 141.106 5.77812 1.06803 0
M  V30 1554 H 142.63 5.76902 2.00041 0
M  V30 1555 H 144.044 5.72661 -0.270631 0
M  V30 1556 H 142.441 5.91015 -1.04023 0
M  V30 1557 H 143.511 4.59326 -1.55395 0
M  V30 1558 N 144.854 0.36279 1.53368 0
M  V30 1559 C 146.27 0.0116182 1.59596 0
M  V30 1560 C 146.47 -1.47012 1.37803 0
M  V30 1561 O 145.526 -2.23136 1.18181 0
M  V30 1562 C 146.839 0.465052 2.97082 0
M  V30 1563 C 148.387 0.419033 3.10182 0
M  V30 1564 C 148.862 0.848235 4.50077 0
M  V30 1565 N 150.353 0.803183 4.56183 0
M  V30 1566 C 151.088 1.107 5.62613 0
M  V30 1567 N 150.584 1.47996 6.76808 0
M  V30 1568 N 152.377 1.02998 5.52583 0
M  V30 1569 H 144.528 1.32775 1.65785 0
M  V30 1570 H 146.791 0.542518 0.777417 0
M  V30 1571 H 146.497 1.49892 3.18159 0
M  V30 1572 H 146.371 -0.149786 3.76902 0
M  V30 1573 H 148.758 -0.605696 2.88817 0
M  V30 1574 H 148.839 1.06933 2.32377 0
M  V30 1575 H 148.483 1.87107 4.7218 0
M  V30 1576 H 148.413 0.175218 5.26308 0
M  V30 1577 H 150.904 0.52838 3.74188 0
M  V30 1578 H 151.217 1.69613 7.53957 0
M  V30 1579 H 149.562 1.51859 6.78206 0
M  V30 1580 H 152.753 0.737817 4.62249 0
M  V30 1581 H 152.926 1.2701 6.35431 0
M  V30 1582 N 146.332 -1.57332 0.0918853 0
M  V30 1583 C 147.264 -2.10869 -0.898168 0
M  V30 1584 C 148.277 -1.04521 -1.24817 0
M  V30 1585 O 149.466 -1.31977 -1.20184 0
M  V30 1586 C 146.566 -2.57083 -2.2082 0
M  V30 1587 C 145.739 -3.87229 -2.03402 0
M  V30 1588 C 144.798 -4.19324 -3.17889 0
M  V30 1589 O 143.824 -4.88598 -2.91994 0
M  V30 1590 N 145.026 -3.74471 -4.43567 0
M  V30 1591 H 147.791 -2.96439 -0.440943 0
M  V30 1592 H 145.352 -1.61631 -0.0933064 0
M  V30 1593 H 147.344 -2.75602 -2.96354 0
M  V30 1594 H 145.914 -1.76541 -2.57977 0
M  V30 1595 H 145.134 -3.7789 -1.12218 0
M  V30 1596 H 146.422 -4.72379 -1.89038 0
M  V30 1597 H 145.82 -3.18546 -4.67488 0
M  V30 1598 H 144.377 -3.98151 -5.16061 0
M  V30 1599 N 147.81 0.181792 -1.56548 0
M  V30 1600 C 148.742 1.24956 -1.92142 0
M  V30 1601 C 149.755 1.41022 -0.813422 0
M  V30 1602 O 150.944 1.41212 -1.09186 0
M  V30 1603 C 148.044 2.61981 -2.14987 0
M  V30 1604 C 147.217 2.6735 -3.46183 0
M  V30 1605 C 146.276 3.85664 -3.5798 0
M  V30 1606 O 145.302 3.72148 -4.30691 0
M  V30 1607 N 146.504 5.01683 -2.92053 0
M  V30 1608 H 149.269 0.947329 -2.84334 0
M  V30 1609 H 146.83 0.371629 -1.57577 0
M  V30 1610 H 148.822 3.3958 -2.20154 0
M  V30 1611 H 147.392 2.84637 -1.2923 0
M  V30 1612 H 146.612 1.75925 -3.52766 0
M  V30 1613 H 147.9 2.67939 -4.32534 0
M  V30 1614 H 147.298 5.15564 -2.32832 0
M  V30 1615 H 145.855 5.77181 -3.0283 0
M  V30 1616 N 149.288 1.51039 0.449983 0
M  V30 1617 C 150.534 1.64287 1.19923 0
M  V30 1618 C 150.889 0.348701 1.89214 0
M  V30 1619 O 150.182 -0.654751 1.80065 0
M  V30 1620 C 150.376 2.77556 2.25161 0
M  V30 1621 C 150.205 4.17862 1.66198 0
M  V30 1622 C 148.975 4.83976 1.45243 0
M  V30 1623 C 151.173 5.01388 1.14519 0
M  V30 1624 N 149.155 6.08433 0.817437 0
M  V30 1625 C 150.526 6.16743 0.634705 0
M  V30 1626 C 152.581 4.87008 1.03574 0
M  V30 1627 C 151.284 7.19295 0.0255452 0
M  V30 1628 C 153.31 5.89757 0.440489 0
M  V30 1629 C 152.672 7.04375 -0.0595112 0
M  V30 1630 H 148.771 0.655161 0.426952 0
M  V30 1631 H 151.355 1.88228 0.49781 0
M  V30 1632 H 149.526 2.553 2.92706 0
M  V30 1633 H 151.258 2.80049 2.92155 0
M  V30 1634 H 148.013 4.41627 1.71063 0
M  V30 1635 H 148.437 6.75017 0.517747 0
M  V30 1636 H 153.079 3.9866 1.4082 0
M  V30 1637 H 150.797 8.07302 -0.359071 0
M  V30 1638 H 154.383 5.80698 0.35788 0
M  V30 1639 H 153.263 7.82521 -0.512882 0
M  V30 1640 N 150.766 -0.704594 1.40972 0
M  V30 1641 C 151.714 -1.83994 1.42299 0
M  V30 1642 C 152.708 -1.66684 0.302111 0
M  V30 1643 O 153.914 -1.73655 0.473697 0
M  V30 1644 H 150.289 -0.606171 0.44504 0
M  V30 1645 H 152.26 -1.79992 2.38003 0
M  V30 1646 C 151.009 -3.21946 1.31323 0
M  V30 1647 H 150.332 -3.35878 2.16855 0
M  V30 1648 H 151.772 -4.01491 1.36311 0
M  V30 1649 C 150.231 -3.36891 0.0245977 0
M  V30 1650 O 150.761 -3.90687 -0.934153 0
M  V30 1651 N 148.967 -2.90559 -0.0485243 0
M  V30 1652 H 148.514 -2.46968 0.732419 0
M  V30 1653 H 148.472 -3.00937 -0.910171 0
M  V30 1654 N 152.244 -1.26651 -0.937939 0
M  V30 1655 C 153.521 -1.0313 -1.66204 0
M  V30 1656 C 153.901 0.437256 -2.06522 0
M  V30 1657 O 153.249 1.41831 -1.79154 0
M  V30 1658 C 153.459 -1.98314 -2.87181 0
M  V30 1659 C 154.807 -2.27107 -3.58758 0
M  V30 1660 O 155.831 -1.96205 -2.97291 0
M  V30 1661 O 154.69 -2.79736 -4.69479 0
M  V30 1662 H 151.784 -0.392384 -0.727986 0
M  V30 1663 H 154.33 -1.37874 -0.989382 0
M  V30 1664 H 153.102 -2.97399 -2.54302 0
M  V30 1665 H 152.725 -1.64068 -3.6217 0
M  V30 1666 N 153.722 1.14298 -1.08507 0
M  V30 1667 C 154.947 1.8976 -0.837001 0
M  V30 1668 C 155.372 1.78097 0.605228 0
M  V30 1669 O 154.73 1.12188 1.4242 0
M  V30 1670 C 154.778 3.37685 -1.26495 0
M  V30 1671 O 153.882 4.10281 -0.417514 0
M  V30 1672 H 153.223 0.590365 -0.303917 0
M  V30 1673 H 155.753 1.44672 -1.44676 0
M  V30 1674 H 155.763 3.88501 -1.24625 0
M  V30 1675 H 154.438 3.45492 -2.31534 0
M  V30 1676 H 153.015 3.69536 -0.499722 0
M  V30 1677 N 155.201 0.870884 1.31352 0
M  V30 1678 C 156.617 0.562932 1.49343 0
M  V30 1679 C 156.817 -0.902725 1.80148 0
M  V30 1680 O 155.873 -1.68484 1.88067 0
M  V30 1681 C 157.186 1.46393 2.62659 0
M  V30 1682 C 158.734 1.46607 2.76542 0
M  V30 1683 C 159.209 2.35266 3.92955 0
M  V30 1684 N 160.7 2.33151 4.00243 0
M  V30 1685 C 161.435 2.98471 4.89594 0
M  V30 1686 N 160.931 3.72964 5.8384 0
M  V30 1687 N 162.724 2.87775 4.82848 0
M  V30 1688 H 154.875 1.81923 1.09626 0
M  V30 1689 H 157.138 0.777934 0.541777 0
M  V30 1690 H 156.844 2.50689 2.46674 0
M  V30 1691 H 156.718 1.16314 3.58819 0
M  V30 1692 H 159.105 0.43069 2.9194 0
M  V30 1693 H 159.186 1.8071 1.81046 0
M  V30 1694 H 158.83 3.38881 3.78315 0
M  V30 1695 H 158.76 1.98487 4.87761 0
M  V30 1696 H 161.251 1.79006 3.32814 0
M  V30 1697 H 161.564 4.19932 6.4875 0
M  V30 1698 H 159.909 3.77073 5.83816 0
M  V30 1699 H 163.1 2.29116 4.08195 0
M  V30 1700 H 163.273 3.38961 5.52277 0
M  V30 1701 N 156.679 -1.44442 0.630414 0
M  V30 1702 C 157.609 -2.33418 -0.0618083 0
M  V30 1703 C 158.59 -1.48165 -0.835541 0
M  V30 1704 O 159.775 -1.76886 -0.801564 0
M  V30 1705 C 156.905 -3.31222 -1.04449 0
M  V30 1706 C 155.859 -4.26288 -0.382436 0
M  V30 1707 C 155.185 -5.13954 -1.47497 0
M  V30 1708 C 156.485 -5.1744 0.710865 0
M  V30 1709 H 158.179 -2.91548 0.681184 0
M  V30 1710 H 155.725 -1.40191 0.329026 0
M  V30 1711 H 157.678 -3.92351 -1.53748 0
M  V30 1712 H 156.402 -2.71299 -1.81836 0
M  V30 1713 H 155.061 -3.6649 0.0899054 0
M  V30 1714 H 154.709 -4.50385 -2.2397 0
M  V30 1715 H 154.409 -5.7837 -1.03737 0
M  V30 1716 H 155.933 -5.77955 -1.96979 0
M  V30 1717 H 157.347 -5.72509 0.300996 0
M  V30 1718 H 155.744 -5.90455 1.07156 0
M  V30 1719 H 156.814 -4.58496 1.57829 0
M  V30 1720 N 158.157 -0.370918 -1.53173 0
M  V30 1721 C 159.12 0.460778 -2.24521 0
M  V30 1722 C 160.12 1.00536 -1.25496 0
M  V30 1723 O 161.31 0.890266 -1.49733 0
M  V30 1724 C 158.442 1.64457 -2.98608 0
M  V30 1725 H 159.635 -0.163613 -2.99453 0
M  V30 1726 H 157.188 -0.122699 -1.55818 0
M  V30 1727 H 157.923 2.30691 -2.2793 0
M  V30 1728 H 157.708 1.26099 -3.7127 0
M  V30 1729 H 159.198 2.23384 -3.5283 0
M  V30 1730 N 159.635 1.57281 -0.100228 0
M  V30 1731 C 160.865 1.98591 0.569681 0
M  V30 1732 C 161.273 0.978315 1.61943 0
M  V30 1733 O 160.616 -0.0396108 1.83657 0
M  V30 1734 C 160.678 3.36282 1.271 0
M  V30 1735 C 160.342 4.55488 0.371409 0
M  V30 1736 C 161.339 5.18491 -0.382504 0
M  V30 1737 C 159.024 5.01474 0.287965 0
M  V30 1738 C 161.018 6.25852 -1.20779 0
M  V30 1739 C 158.705 6.08701 -0.540965 0
M  V30 1740 C 159.703 6.70755 -1.28749 0
M  V30 1741 O 159.391 7.75914 -2.10269 0
M  V30 1742 H 159.123 0.65752 0.156982 0
M  V30 1743 H 161.677 2.0463 -0.177734 0
M  V30 1744 H 159.907 3.26941 2.0651 0
M  V30 1745 H 161.596 3.62005 1.83595 0
M  V30 1746 H 162.362 4.83891 -0.3278 0
M  V30 1747 H 158.241 4.52932 0.858689 0
M  V30 1748 H 161.785 6.74218 -1.79096 0
M  V30 1749 H 157.682 6.42732 -0.597131 0
M  V30 1750 H 158.45 7.92925 -2.03007 0
M  V30 1751 N 161.113 -0.173488 1.56642 0
M  V30 1752 C 162.338 -0.910149 1.86363 0
M  V30 1753 C 162.763 -1.75132 0.686318 0
M  V30 1754 O 162.121 -1.77595 -0.364643 0
M  V30 1755 C 162.169 -1.76447 3.14482 0
M  V30 1756 O 161.273 -2.86584 2.96553 0
M  V30 1757 H 160.614 -0.255086 0.613047 0
M  V30 1758 H 163.144 -0.172283 2.03873 0
M  V30 1759 H 163.154 -2.16483 3.45831 0
M  V30 1760 H 161.829 -1.14658 3.99783 0
M  V30 1761 H 160.406 -2.50146 2.76553 0
M  V30 1762 N 162.591 -1.51276 -0.441967 0
M  V30 1763 C 163.501 -1.75092 -1.56141 0
M  V30 1764 C 164.517 -0.634963 -1.62001 0
M  V30 1765 O 165.693 -0.916686 -1.79329 0
M  V30 1766 C 162.758 -1.86666 -2.92158 0
M  V30 1767 C 161.819 -3.10506 -2.96453 0
M  V30 1768 C 161.052 -3.21519 -4.25982 0
M  V30 1769 O 161.275 -2.38586 -5.18105 0
M  V30 1770 O 160.209 -4.14465 -4.36466 0
M  V30 1771 H 164.035 -2.70044 -1.38961 0
M  V30 1772 H 161.62 -1.35722 -0.624499 0
M  V30 1773 H 163.502 -1.96292 -3.72891 0
M  V30 1774 H 162.177 -0.949014 -3.09476 0
M  V30 1775 H 161.084 -3.06363 -2.14692 0
M  V30 1776 H 162.417 -4.01945 -2.84079 0
M  V30 1777 N 164.069 0.697108 -1.41344 0
M  V30 1778 C 165.299 1.48377 -1.43763 0
M  V30 1779 C 165.707 1.89156 -0.0408726 0
M  V30 1780 O 165.05 1.57239 0.949812 0
M  V30 1781 C 165.112 2.7781 -2.2817 0
M  V30 1782 C 164.776 2.59244 -3.76353 0
M  V30 1783 C 165.773 2.25292 -4.68551 0
M  V30 1784 C 163.458 2.74933 -4.20378 0
M  V30 1785 C 165.452 2.07264 -6.02761 0
M  V30 1786 C 163.139 2.56521 -5.54653 0
M  V30 1787 C 164.137 2.22737 -6.4566 0
M  V30 1788 O 163.825 2.04485 -7.77458 0
M  V30 1789 H 163.557 0.463842 -0.491759 0
M  V30 1790 H 166.111 0.865934 -1.86255 0
M  V30 1791 H 164.341 3.41995 -1.8049 0
M  V30 1792 H 166.03 3.39608 -2.22309 0
M  V30 1793 H 166.796 2.12787 -4.35829 0
M  V30 1794 H 162.675 3.00213 -3.49848 0
M  V30 1795 H 166.219 1.80817 -6.73759 0
M  V30 1796 H 162.116 2.68616 -5.86955 0
M  V30 1797 H 162.884 2.1926 -7.88586 0
M  V30 1798 N 165.547 1.27147 0.931209 0
M  V30 1799 C 166.958 1.12044 1.49342 0
M  V30 1800 C 167.309 -0.295795 1.93957 0
M  V30 1801 O 166.434 -1.18835 1.80852 0
M  V30 1802 C 167.029 2.02781 2.71414 0
M  V30 1803 C 165.588 1.91794 3.2387 0
M  V30 1804 C 164.735 1.95543 1.96617 0
M  V30 1805 H 167.686 1.40091 0.745672 0
M  V30 1806 H 167.707 1.58156 3.46074 0
M  V30 1807 H 167.219 3.05848 2.38911 0
M  V30 1808 H 165.32 0.916992 3.6114 0
M  V30 1809 H 165.433 2.77852 3.90302 0
M  V30 1810 H 163.797 1.39722 2.12955 0
M  V30 1811 H 164.58 3.00259 1.66432 0
M  V30 1812 N 167.025 -1.13721 1.09112 0
M  V30 1813 C 168.302 -1.81155 0.737706 0
M  V30 1814 C 168.682 -1.96253 -0.777683 0
M  V30 1815 O 168.03 -1.52807 -1.69889 0
M  V30 1816 C 168.24 -3.16392 1.47299 0
M  V30 1817 C 169.588 -3.91787 1.63671 0
M  V30 1818 O 170.612 -3.26005 1.43524 0
M  V30 1819 O 169.471 -5.0977 1.96969 0
M  V30 1820 H 166.565 -0.783518 0.26463 0
M  V30 1821 H 169.111 -1.20676 1.19312 0
M  V30 1822 H 167.883 -3.0061 2.50498 0
M  V30 1823 H 167.506 -3.8457 1.00953 0
M  V30 1824 N 168.503 -0.877838 -1.30888 0
M  V30 1825 C 169.78 -0.413052 -1.91189 0
M  V30 1826 C 170.16 1.1056 -1.79832 0
M  V30 1827 O 169.508 1.93771 -1.21099 0
M  V30 1828 C 169.718 -0.903191 -3.3711 0
M  V30 1829 C 171.066 -0.93395 -4.14201 0
M  V30 1830 O 172.09 -0.849373 -3.45925 0
M  V30 1831 O 170.949 -1.05772 -5.36167 0
M  V30 1832 H 168.043 -0.125035 -0.817493 0
M  V30 1833 H 170.589 -0.966269 -1.39504 0
M  V30 1834 H 169.361 -1.94692 -3.39427 0
M  V30 1835 H 168.984 -0.328732 -3.96239 0
M  V30 1836 N 169.982 1.44106 -0.638065 0
M  V30 1837 C 171.207 2.0685 -0.150916 0
M  V30 1838 C 171.632 1.47417 1.16833 0
M  V30 1839 O 170.99 0.578264 1.71831 0
M  V30 1840 C 171.038 3.60555 -0.05708 0
M  V30 1841 O 170.142 4.00465 0.984972 0
M  V30 1842 H 169.483 0.658151 -0.0879399 0
M  V30 1843 H 172.013 1.84865 -0.876707 0
M  V30 1844 H 172.023 4.07789 0.131232 0
M  V30 1845 H 170.698 4.03193 -1.02021 0
M  V30 1846 H 169.275 3.64849 0.770672 0
M  V30 1847 N 171.46 0.379036 1.52974 0
M  V30 1848 C 172.39 -0.452706 2.29069 0
M  V30 1849 C 173.371 -1.07237 1.32039 0
M  V30 1850 O 174.556 -1.08708 1.60923 0
M  V30 1851 C 171.686 -1.5856 3.08992 0
M  V30 1852 C 170.64 -1.0925 4.13822 0
M  V30 1853 C 169.966 -2.31668 4.81907 0
M  V30 1854 C 171.266 -0.167702 5.22031 0
M  V30 1855 H 172.96 0.182181 2.98845 0
M  V30 1856 H 170.506 0.0890592 1.43724 0
M  V30 1857 H 172.459 -2.1742 3.6098 0
M  V30 1858 H 171.183 -2.24792 2.36931 0
M  V30 1859 H 169.842 -0.526494 3.628 0
M  V30 1860 H 169.49 -2.96386 4.06404 0
M  V30 1861 H 169.19 -1.9934 5.52754 0
M  V30 1862 H 170.714 -2.91189 5.36695 0
M  V30 1863 H 172.128 -0.664186 5.6944 0
M  V30 1864 H 170.525 0.0653265 6.00064 0
M  V30 1865 H 171.595 0.786347 4.78482 0
M  V30 1866 N 172.938 -1.57226 0.108567 0
M  V30 1867 C 174.215 -1.86333 -0.594939 0
M  V30 1868 C 174.595 -1.00788 -1.85486 0
M  V30 1869 O 173.943 -0.0839293 -2.28346 0
M  V30 1870 C 174.153 -3.37265 -0.897405 0
M  V30 1871 C 175.501 -4.05629 -1.25501 0
M  V30 1872 O 176.525 -3.42224 -0.987998 0
M  V30 1873 O 175.384 -5.17531 -1.75567 0
M  V30 1874 H 172.478 -0.771018 -0.2991 0
M  V30 1875 H 175.024 -1.69102 0.142283 0
M  V30 1876 H 173.796 -3.913 -0.00413806 0
M  V30 1877 H 173.419 -3.59889 -1.69014 0
M  V30 1878 N 174.416 0.165178 -1.56732 0
M  V30 1879 C 175.346 1.20651 -1.99914 0
M  V30 1880 C 176.327 1.45827 -0.875705 0
M  V30 1881 O 177.512 1.57057 -1.14223 0
M  V30 1882 C 174.642 2.54401 -2.36427 0
M  V30 1883 C 173.596 2.43782 -3.51787 0
M  V30 1884 C 172.922 3.82078 -3.7406 0
M  V30 1885 C 174.222 1.93732 -4.85041 0
M  V30 1886 H 175.916 0.847534 -2.87154 0
M  V30 1887 H 173.462 0.40625 -1.38151 0
M  V30 1888 H 175.415 3.27458 -2.65234 0
M  V30 1889 H 174.139 2.92098 -1.46103 0
M  V30 1890 H 172.798 1.73178 -3.23117 0
M  V30 1891 H 172.446 4.17179 -2.81017 0
M  V30 1892 H 172.146 3.7584 -4.51684 0
M  V30 1893 H 173.67 4.56712 -4.05274 0
M  V30 1894 H 175.084 2.56569 -5.12684 0
M  V30 1895 H 173.481 1.98428 -5.66345 0
M  V30 1896 H 174.551 0.891962 -4.76626 0
M  V30 1897 N 175.894 1.51508 0.433938 0
M  V30 1898 C 177.171 1.54888 1.19453 0
M  V30 1899 C 177.551 0.315154 2.08734 0
M  V30 1900 O 176.899 -0.699558 2.17528 0
M  V30 1901 C 177.109 2.86467 1.99342 0
M  V30 1902 C 178.457 3.38545 2.56267 0
M  V30 1903 O 179.481 2.88041 2.0955 0
M  V30 1904 O 178.34 4.26675 3.41483 0
M  V30 1905 H 175.434 0.622863 0.544032 0
M  V30 1906 H 177.98 1.63823 0.442732 0
M  V30 1907 H 176.752 3.67718 1.33788 0
M  V30 1908 H 176.375 2.8071 2.8158 0
M  V30 1909 N 177.372 -0.689602 1.41712 0
M  V30 1910 C 178.783 -1.26973 1.36875 0
M  V30 1911 C 179.134 -1.96124 0.054748 0
M  V30 1912 O 178.259 -1.99141 -0.84687 0
M  V30 1913 C 178.854 -2.30912 2.47922 0
M  V30 1914 C 177.413 -2.84486 2.46464 0
M  V30 1915 C 176.56 -1.58603 2.27465 0
M  V30 1916 H 179.511 -0.48396 1.51141 0
M  V30 1917 H 179.532 -3.12331 2.17323 0
M  V30 1918 H 179.044 -1.80554 3.43543 0
M  V30 1919 H 177.145 -3.39005 1.54617 0
M  V30 1920 H 177.258 -3.34511 3.42986 0
M  V30 1921 H 175.622 -1.84632 1.75451 0
M  V30 1922 H 176.405 -1.10233 3.25121 0
M  V30 1923 N 178.85 -1.27639 -0.924453 0
M  V30 1924 C 180.075 -1.17101 -1.71179 0
M  V30 1925 C 180.5 0.268134 -1.86179 0
M  V30 1926 O 179.858 1.19415 -1.36418 0
M  V30 1927 C 179.906 -1.86313 -3.08739 0
M  V30 1928 O 179.01 -1.16331 -3.95652 0
M  V30 1929 H 178.351 -0.407091 -0.524569 0
M  V30 1930 H 180.881 -1.68767 -1.15666 0
M  V30 1931 H 180.891 -1.938 -3.59034 0
M  V30 1932 H 179.566 -2.91001 -2.97138 0
M  V30 1933 H 178.143 -1.16935 -3.54091 0
M  V30 1934 N 180.328 1.1314 -1.09713 0
M  V30 1935 C 181.261 2.17735 -0.683137 0
M  V30 1936 C 182.239 1.59582 0.311841 0
M  V30 1937 O 183.423 1.87298 0.212514 0
M  V30 1938 C 180.55 3.38699 -0.00684324 0
M  V30 1939 C 179.596 4.1546 -0.964102 0
M  V30 1940 S 180.429 4.74733 -2.47767 0
M  V30 1941 C 181.585 5.9904 -1.81387 0
M  V30 1942 H 181.818 2.52515 -1.56918 0
M  V30 1943 H 179.351 1.24484 -0.913404 0
M  V30 1944 H 181.309 4.08765 0.377044 0
M  V30 1945 H 179.97 3.02214 0.85589 0
M  V30 1946 H 179.163 5.02093 -0.43803 0
M  V30 1947 H 178.765 3.51066 -1.28953 0
M  V30 1948 H 181.057 6.67846 -1.13967 0
M  V30 1949 H 182 6.56261 -2.65947 0
M  V30 1950 H 182.408 5.4976 -1.28155 0
M  V30 1951 N 181.806 0.884767 1.30421 0
M  V30 1952 C 182.736 0.367574 2.30589 0
M  V30 1953 C 183.717 -0.549464 1.60981 0
M  V30 1954 O 184.902 -0.46336 1.88591 0
M  V30 1955 C 182.032 -0.418944 3.44764 0
M  V30 1956 C 180.986 0.406316 4.26067 0
M  V30 1957 C 180.312 -0.506793 5.32293 0
M  V30 1958 C 181.612 1.64832 4.95608 0
M  V30 1959 H 183.306 1.20462 2.74097 0
M  V30 1960 H 180.852 0.580695 1.31772 0
M  V30 1961 H 182.805 -0.791395 4.13902 0
M  V30 1962 H 181.529 -1.28964 3.0006 0
M  V30 1963 H 180.188 0.760903 3.58617 0
M  V30 1964 H 179.836 -1.37519 4.83836 0
M  V30 1965 H 179.536 0.0415828 5.87585 0
M  V30 1966 H 181.06 -0.875764 6.04287 0
M  V30 1967 H 182.474 1.34646 5.57264 0
M  V30 1968 H 180.871 2.13688 5.60765 0
M  V30 1969 H 181.941 2.39284 4.21748 0
M  V30 1970 N 183.284 -1.43765 0.645699 0
M  V30 1971 C 184.561 -1.9541 0.0862963 0
M  V30 1972 C 184.941 -1.58725 -1.39175 0
M  V30 1973 O 184.289 -0.868581 -2.11348 0
M  V30 1974 C 184.499 -3.47488 0.324565 0
M  V30 1975 C 185.847 -4.24001 0.225497 0
M  V30 1976 O 186.871 -3.55274 0.256715 0
M  V30 1977 O 185.73 -5.46313 0.142801 0
M  V30 1978 H 182.824 -0.826882 -0.0139483 0
M  V30 1979 H 185.37 -1.53743 0.718415 0
M  V30 1980 H 184.142 -3.67289 1.3496 0
M  V30 1981 H 183.765 -3.96135 -0.340987 0
M  V30 1982 N 184.763 -0.387143 -1.52771 0
M  V30 1983 C 185.988 0.198407 -2.06449 0
M  V30 1984 C 186.413 1.39918 -1.25716 0
M  V30 1985 O 185.771 1.79099 -0.281657 0
M  V30 1986 C 185.819 0.548893 -3.56398 0
M  V30 1987 O 184.923 1.64315 -3.78252 0
M  V30 1988 H 184.264 0.0237731 -0.663574 0
M  V30 1989 H 186.794 -0.553989 -1.96957 0
M  V30 1990 H 186.804 0.813812 -3.99801 0
M  V30 1991 H 185.479 -0.329005 -4.14597 0
M  V30 1992 H 184.056 1.37211 -3.46738 0
M  V30 1993 N 186.241 1.57166 -0.116904 0
M  V30 1994 C 187.49 1.94298 0.541407 0
M  V30 1995 C 187.803 1.00236 1.67964 0
M  V30 1996 O 189.009 1.26826 2.40057 0
M  V30 1997 C 187.465 3.45306 1.01449 0
M  V30 1998 C 187.073 4.47899 -0.0951738 0
M  V30 1999 C 188.817 3.91361 1.6443 0
M  V30 2000 C 186.724 5.90083 0.394491 0
M  V30 2001 H 185.654 0.725308 0.206019 0
M  V30 2002 H 188.305 1.82446 -0.196419 0
M  V30 2003 H 186.687 3.52385 1.80667 0
M  V30 2004 H 187.861 4.52486 -0.871374 0
M  V30 2005 H 186.176 4.11583 -0.631505 0
M  V30 2006 H 188.773 4.95004 2.02176 0
M  V30 2007 H 189.116 3.3122 2.52189 0
M  V30 2008 H 189.649 3.87073 0.917559 0
M  V30 2009 H 186.388 6.53974 -0.447004 0
M  V30 2010 H 185.908 5.88921 1.13722 0
M  V30 2011 H 187.587 6.41307 0.856399 0
M  V30 2012 N 187.719 -0.156864 1.56817 0
M  V30 2013 C 188.965 -0.867645 1.83966 0
M  V30 2014 C 189.32 -1.79233 0.699511 0
M  V30 2015 O 188.613 -1.89186 -0.303176 0
M  V30 2016 C 188.807 -1.68737 3.1506 0
M  V30 2017 C 188.636 -0.843548 4.41718 0
M  V30 2018 C 187.406 -0.512994 5.02689 0
M  V30 2019 C 189.604 -0.178416 5.1399 0
M  V30 2020 N 187.586 0.345456 6.12927 0
M  V30 2021 C 188.957 0.540586 6.17639 0
M  V30 2022 C 191.012 -0.0980696 4.97803 0
M  V30 2023 C 189.715 1.33233 7.06853 0
M  V30 2024 C 191.741 0.680387 5.87473 0
M  V30 2025 C 191.103 1.3877 6.90596 0
M  V30 2026 H 187.202 -0.295642 0.723961 0
M  V30 2027 H 189.786 -0.13365 1.94241 0
M  V30 2028 H 187.957 -2.39268 3.0595 0
M  V30 2029 H 189.689 -2.34056 3.30151 0
M  V30 2030 H 186.444 -0.846476 4.65974 0
M  V30 2031 H 186.868 0.765415 6.72659 0
M  V30 2032 H 191.51 -0.630562 4.18071 0
M  V30 2033 H 189.228 1.87612 7.8602 0
M  V30 2034 H 192.814 0.744415 5.77018 0
M  V30 2035 H 191.694 1.9804 7.58782 0
M  V30 2036 N 189.197 -1.51736 -0.425897 0
M  V30 2037 C 190.144 -1.73875 -1.51776 0
M  V30 2038 C 191.114 -0.580702 -1.55618 0
M  V30 2039 O 192.299 -0.81641 -1.72451 0
M  V30 2040 C 189.439 -1.88012 -2.89388 0
M  V30 2041 C 188.552 -3.15606 -2.94986 0
M  V30 2042 C 187.687 -3.20271 -4.23793 0
M  V30 2043 C 186.726 -4.42134 -4.23302 0
M  V30 2044 N 185.863 -4.44284 -5.43651 0
M  V30 2045 H 190.703 -2.67071 -1.32201 0
M  V30 2046 H 188.24 -1.32351 -0.642008 0
M  V30 2047 H 190.198 -1.9419 -3.69251 0
M  V30 2048 H 188.828 -0.98213 -3.07496 0
M  V30 2049 H 187.88 -3.18681 -2.07717 0
M  V30 2050 H 189.192 -4.05486 -2.90486 0
M  V30 2051 H 188.346 -3.25428 -5.12036 0
M  V30 2052 H 187.085 -2.28299 -4.30965 0
M  V30 2053 H 186.09 -4.3714 -3.3345 0
M  V30 2054 H 187.315 -5.35382 -4.17783 0
M  V30 2055 H 185.261 -3.55188 -5.51523 0
M  V30 2056 H 185.178 -5.27988 -5.41078 0
M  V30 2057 H 186.446 -4.53649 -6.33895 0
M  V30 2058 N 190.675 0.682077 -1.42076 0
M  V30 2059 C 192.086 1.26246 -1.37546 0
M  V30 2060 C 192.437 1.96092 -0.0651481 0
M  V30 2061 O 191.562 1.99587 0.836297 0
M  V30 2062 C 192.157 2.29594 -2.49143 0
M  V30 2063 C 190.716 2.83175 -2.47969 0
M  V30 2064 C 189.863 1.57395 -2.28303 0
M  V30 2065 H 192.814 0.475937 -1.51395 0
M  V30 2066 H 192.835 3.11175 -2.18976 0
M  V30 2067 H 192.347 1.78729 -3.44496 0
M  V30 2068 H 190.448 3.3818 -1.56413 0
M  V30 2069 H 190.561 3.32687 -3.44755 0
M  V30 2070 H 188.925 1.83699 -1.76428 0
M  V30 2071 H 189.708 1.08507 -3.25701 0
M  V30 2072 N 192.153 1.28127 0.917671 0
M  V30 2073 C 193.43 1.05761 1.64542 0
M  V30 2074 C 193.81 -0.404344 2.07191 0
M  V30 2075 O 193.158 -1.38963 1.81388 0
M  V30 2076 C 193.368 2.02857 2.83989 0
M  V30 2077 C 194.716 2.32786 3.551 0
M  V30 2078 O 195.74 2.0091 2.94132 0
M  V30 2079 O 194.599 2.87169 4.64969 0
M  V30 2080 H 191.693 0.403916 0.721652 0
M  V30 2081 H 194.239 1.39431 0.967322 0
M  V30 2082 H 193.011 3.01407 2.49538 0
M  V30 2083 H 192.634 1.69809 3.59514 0
M  V30 2084 N 193.631 -1.12557 1.10312 0
M  V30 2085 C 194.561 -2.20341 0.772798 0
M  V30 2086 C 195.542 -1.68198 -0.25365 0
M  V30 2087 O 196.727 -1.93831 -0.119699 0
M  V30 2088 C 193.857 -3.46709 0.202443 0
M  V30 2089 C 192.811 -4.11996 1.15943 0
M  V30 2090 C 192.137 -5.328 0.450345 0
M  V30 2091 C 193.437 -4.5828 2.50552 0
M  V30 2092 H 195.131 -2.48229 1.674 0
M  V30 2093 H 192.677 -1.19308 0.806326 0
M  V30 2094 H 194.63 -4.2138 -0.0407752 0
M  V30 2095 H 193.354 -3.18245 -0.734001 0
M  V30 2096 H 192.013 -3.39305 1.38808 0
M  V30 2097 H 191.661 -5.00602 -0.490531 0
M  V30 2098 H 191.361 -5.7743 1.08851 0
M  V30 2099 H 192.885 -6.10219 0.215642 0
M  V30 2100 H 194.299 -5.2433 2.31843 0
M  V30 2101 H 192.696 -5.13683 3.10242 0
M  V30 2102 H 193.766 -3.72329 3.10643 0
M  V30 2103 N 195.109 -0.891671 -1.2995 0
M  V30 2104 C 196.356 -0.513501 -1.95881 0
M  V30 2105 C 196.684 0.938655 -1.70351 0
M  V30 2106 O 195.939 1.67936 -1.00478 0
M  V30 2107 C 196.238 -0.742868 -3.49594 0
M  V30 2108 C 195.904 -2.17114 -3.95186 0
M  V30 2109 C 194.566 -2.56169 -4.07346 0
M  V30 2110 C 196.918 -3.10162 -4.18866 0
M  V30 2111 C 194.246 -3.87469 -4.4055 0
M  V30 2112 C 196.598 -4.41001 -4.53542 0
M  V30 2113 C 195.262 -4.79941 -4.63911 0
M  V30 2114 H 194.532 -0.187903 -0.71678 0
M  V30 2115 H 197.179 -1.1288 -1.54694 0
M  V30 2116 H 195.484 -0.044586 -3.91775 0
M  V30 2117 H 197.181 -0.429767 -3.9869 0
M  V30 2118 H 193.771 -1.85801 -3.86233 0
M  V30 2119 H 197.955 -2.81206 -4.08946 0
M  V30 2120 H 193.211 -4.17371 -4.46779 0
M  V30 2121 H 197.385 -5.13133 -4.70815 0
M  V30 2122 H 195.012 -5.81719 -4.89395 0
M  V30 2123 N 196.587 1.43421 -0.653314 0
M  V30 2124 C 197.834 2.01812 -0.166745 0
M  V30 2125 C 198.162 1.51535 1.21931 0
M  V30 2126 O 197.417 0.698975 1.82792 0
M  V30 2127 C 197.716 3.57176 -0.126623 0
M  V30 2128 C 197.382 4.26798 -1.45444 0
M  V30 2129 C 196.044 4.45534 -1.81805 0
M  V30 2130 C 198.396 4.66225 -2.32989 0
M  V30 2131 C 195.724 5.00961 -3.05377 0
M  V30 2132 C 198.076 5.23021 -3.55853 0
M  V30 2133 C 196.74 5.39973 -3.9241 0
M  V30 2134 H 196.01 0.738484 -0.0610162 0
M  V30 2135 H 198.657 1.71896 -0.84404 0
M  V30 2136 H 196.962 3.86634 0.634123 0
M  V30 2137 H 198.659 4.00112 0.266723 0
M  V30 2138 H 195.249 4.12561 -1.16153 0
M  V30 2139 H 199.433 4.51443 -2.06187 0
M  V30 2140 H 194.689 5.12271 -3.3375 0
M  V30 2141 H 198.863 5.52518 -4.23907 0
M  V30 2142 H 196.49 5.82687 -4.88242 0
M  V30 2143 N 198.065 0.39524 1.52563 0
M  V30 2144 C 199.028 -0.425001 2.25225 0
M  V30 2145 C 200.028 -0.985266 1.27079 0
M  V30 2146 O 201.218 -0.866332 1.5113 0
M  V30 2147 C 198.35 -1.59686 3.01186 0
M  V30 2148 H 199.543 0.211233 2.99155 0
M  V30 2149 H 197.096 0.147472 1.55603 0
M  V30 2150 H 197.831 -2.27035 2.31572 0
M  V30 2151 H 197.616 -1.20176 3.73229 0
M  V30 2152 H 199.106 -2.17743 3.5634 0
M  V30 2153 N 199.544 -1.57102 0.125237 0
M  V30 2154 C 200.492 -2.16905 -0.839927 0
M  V30 2155 C 201.486 -1.11998 -1.27094 0
M  V30 2156 O 202.692 -1.3029 -1.24195 0
M  V30 2157 H 199.067 -0.694252 -0.288995 0
M  V30 2158 H 201.038 -2.96774 -0.311115 0
M  V30 2159 C 199.787 -2.78795 -2.07771 0
M  V30 2160 H 199.11 -3.59221 -1.755 0
M  V30 2161 H 200.55 -3.2417 -2.73295 0
M  V30 2162 C 199.009 -1.76193 -2.87155 0
M  V30 2163 O 199.539 -1.21909 -3.82755 0
M  V30 2164 N 197.745 -1.45991 -2.51267 0
M  V30 2165 H 197.292 -1.90325 -1.73592 0
M  V30 2166 H 197.25 -0.775844 -3.04677 0
M  V30 2167 N 201.022 0.148545 -1.56898 0
M  V30 2168 C 201.932 1.20293 -2.01412 0
M  V30 2169 C 202.948 1.47107 -0.929273 0
M  V30 2170 O 204.124 1.58807 -1.23863 0
M  V30 2171 C 201.189 2.51682 -2.38447 0
M  V30 2172 C 200.25 2.32529 -3.60872 0
M  V30 2173 C 199.483 3.57653 -3.96132 0
M  V30 2174 O 199.706 4.63771 -3.32073 0
M  V30 2175 O 198.64 3.50408 -4.89385 0
M  V30 2176 H 202.466 0.855025 -2.91416 0
M  V30 2177 H 200.051 0.357151 -1.45068 0
M  V30 2178 H 201.933 3.29147 -2.63135 0
M  V30 2179 H 200.608 2.86006 -1.51599 0
M  V30 2180 H 199.515 1.53019 -3.41373 0
M  V30 2181 H 200.848 2.03121 -4.48333 0
M  V30 2182 N 202.5 1.5196 0.417844 0
M  V30 2183 C 203.447 1.74678 1.50852 0
M  V30 2184 C 204.417 0.588947 1.55308 0
M  V30 2185 O 205.602 0.825544 1.72016 0
M  V30 2186 C 202.742 1.89544 2.88387 0
M  V30 2187 C 201.855 3.17166 2.93309 0
M  V30 2188 C 200.99 3.22513 4.22088 0
M  V30 2189 C 200.029 4.44372 4.20951 0
M  V30 2190 N 199.166 4.47161 5.41287 0
M  V30 2191 H 204.006 2.67768 1.30783 0
M  V30 2192 H 201.543 1.32689 0.63498 0
M  V30 2193 H 203.501 1.96146 3.68216 0
M  V30 2194 H 202.131 0.998424 3.06971 0
M  V30 2195 H 201.183 3.19778 2.06024 0
M  V30 2196 H 202.495 4.07021 2.88332 0
M  V30 2197 H 201.649 3.28139 5.10303 0
M  V30 2198 H 200.388 2.30581 4.29748 0
M  V30 2199 H 199.393 4.38902 3.31127 0
M  V30 2200 H 200.618 5.3759 4.14938 0
M  V30 2201 H 198.564 3.58108 5.49632 0
M  V30 2202 H 198.481 5.3085 5.3827 0
M  V30 2203 H 199.749 4.57005 6.3148 0
M  V30 2204 N 203.978 -0.674533 1.42435 0
M  V30 2205 C 205.226 -1.43175 1.42637 0
M  V30 2206 C 205.547 -1.94951 0.0438992 0
M  V30 2207 O 204.817 -1.7308 -0.917607 0
M  V30 2208 H 203.397 -0.531307 0.525092 0
M  V30 2209 H 206.059 -0.797006 1.77859 0
M  V30 2210 H 205.155 -2.28463 2.12629 0
M  V30 2211 N 205.456 -1.28612 -0.910864 0
M  V30 2212 C 206.419 -1.12803 -1.9952 0
M  V30 2213 C 207.419 -0.0668264 -1.60661 0
M  V30 2214 O 208.609 -0.312847 -1.71368 0
M  V30 2215 C 205.741 -0.72254 -3.33155 0
M  V30 2216 H 206.934 -2.09109 -2.14973 0
M  V30 2217 H 204.487 -1.11639 -1.09391 0
M  V30 2218 H 205.222 0.241152 -3.23402 0
M  V30 2219 H 205.007 -1.48916 -3.62721 0
M  V30 2220 H 206.497 -0.634666 -4.12749 0
M  V30 2221 N 206.934 1.1197 -1.10907 0
M  V30 2222 C 207.882 2.19927 -0.757303 0
M  V30 2223 C 208.876 1.67564 0.248747 0
M  V30 2224 O 210.082 1.79672 0.108605 0
M  V30 2225 H 206.457 0.716925 -0.226987 0
M  V30 2226 H 208.428 2.46847 -1.67658 0
M  V30 2227 C 207.177 3.47061 -0.210671 0
M  V30 2228 H 206.5 3.87703 -0.976049 0
M  V30 2229 H 207.94 4.24 -0.0026584 0
M  V30 2230 C 206.399 3.19864 1.05777 0
M  V30 2231 O 206.929 3.40049 2.13845 0
M  V30 2232 N 205.135 2.73636 0.978349 0
M  V30 2233 H 204.682 2.5741 0.0988246 0
M  V30 2234 H 204.64 2.55815 1.82773 0
M  V30 2235 N 208.412 0.89855 1.29475 0
M  V30 2236 C 209.659 0.523882 1.95606 0
M  V30 2237 C 209.987 -0.929608 1.70847 0
M  V30 2238 O 209.242 -1.67401 1.01367 0
M  V30 2239 C 209.541 0.761398 3.49195 0
M  V30 2240 C 209.207 2.19207 3.94029 0
M  V30 2241 C 207.869 2.58326 4.05982 0
M  V30 2242 C 210.221 3.12379 4.17216 0
M  V30 2243 C 207.549 3.898 4.38489 0
M  V30 2244 C 209.901 4.43401 4.51197 0
M  V30 2245 C 208.565 4.82394 4.61359 0
M  V30 2246 H 207.835 0.191702 0.715773 0
M  V30 2247 H 210.482 1.13699 1.54094 0
M  V30 2248 H 208.787 0.0653622 3.91745 0
M  V30 2249 H 210.484 0.450904 3.98457 0
M  V30 2250 H 207.074 1.87846 3.85242 0
M  V30 2251 H 211.258 2.83371 4.07449 0
M  V30 2252 H 206.514 4.19734 4.44559 0
M  V30 2253 H 210.688 5.15623 4.68087 0
M  V30 2254 H 208.315 5.84306 4.86303 0
M  V30 2255 N 209.89 -1.43072 0.660911 0
M  V30 2256 C 210.84 -2.27948 -0.04847 0
M  V30 2257 C 211.824 -1.40325 -0.787246 0
M  V30 2258 O 213.016 -1.63893 -0.668446 0
M  V30 2259 C 210.145 -3.28143 -1.00881 0
M  V30 2260 C 209.231 -4.23252 -0.268108 0
M  V30 2261 N 209.622 -5.00656 0.719528 0
M  V30 2262 C 207.92 -4.43092 -0.508493 0
M  V30 2263 C 208.621 -5.70019 1.15988 0
M  V30 2264 N 207.597 -5.41364 0.492584 0
M  V30 2265 H 211.399 -2.85213 0.709279 0
M  V30 2266 H 208.913 -1.54869 0.488822 0
M  V30 2267 H 210.91 -3.87736 -1.53188 0
M  V30 2268 H 209.57 -2.7244 -1.76654 0
M  V30 2269 H 210.581 -5.06115 1.09855 0
M  V30 2270 H 207.258 -3.98449 -1.24679 0
M  V30 2271 H 208.648 -6.4214 1.97751 0
M  V30 2272 N 211.368 -0.403325 -1.52352 0
M  V30 2273 C 212.645 0.232611 -1.94212 0
M  V30 2274 C 213.025 1.63133 -1.33981 0
M  V30 2275 O 212.373 2.22659 -0.513344 0
M  V30 2276 C 212.583 0.244811 -3.4814 0
M  V30 2277 C 213.931 0.46698 -4.22024 0
M  V30 2278 O 214.955 0.324419 -3.5472 0
M  V30 2279 O 213.814 0.74747 -5.41364 0
M  V30 2280 H 210.908 0.148223 -0.813609 0
M  V30 2281 H 213.454 -0.458848 -1.63379 0
M  V30 2282 H 212.226 -0.734378 -3.84347 0
M  V30 2283 H 211.849 0.980611 -3.85318 0
M  V30 2284 N 212.846 1.57033 -0.133567 0
M  V30 2285 C 214.092 1.95976 0.521649 0
M  V30 2286 C 214.425 1.01779 1.65393 0
M  V30 2287 O 213.7 0.0576581 1.94415 0
M  V30 2288 C 213.983 3.44738 1.04057 0
M  V30 2289 C 213.836 4.49711 -0.0892897 0
M  V30 2290 C 215.155 3.95682 1.92675 0
M  V30 2291 H 212.274 0.712579 0.188149 0
M  V30 2292 H 214.916 1.88813 -0.212076 0
M  V30 2293 H 213.066 3.50973 1.66583 0
M  V30 2294 H 214.738 4.55565 -0.725152 0
M  V30 2295 H 212.981 4.27261 -0.750378 0
M  V30 2296 H 213.652 5.51099 0.315284 0
M  V30 2297 H 216.128 3.91841 1.39998 0
M  V30 2298 H 215.004 5.00262 2.25897 0
M  V30 2299 H 215.265 3.37239 2.85872 0
M  V30 2300 N 214.325 -0.140222 1.56975 0
M  V30 2301 C 215.553 -0.866437 1.87884 0
M  V30 2302 C 215.968 -1.74428 0.722517 0
M  V30 2303 O 215.325 -1.79891 -0.30749 0
M  V30 2304 C 215.376 -1.71753 3.18093 0
M  V30 2305 O 215.097 -0.875056 4.29272 0
M  V30 2306 C 216.598 -2.55074 3.62563 0
M  V30 2307 H 213.818 -0.25019 0.622612 0
M  V30 2308 H 216.362 -0.130977 2.0408 0
M  V30 2309 H 214.517 -2.40598 3.03631 0
M  V30 2310 H 214.931 -1.46002 5.03769 0
M  V30 2311 H 216.405 -3.10356 4.5649 0
M  V30 2312 H 216.882 -3.31434 2.88181 0
M  V30 2313 H 217.488 -1.91509 3.79743 0
M  V30 2314 N 215.803 -1.52179 -0.40978 0
M  V30 2315 C 217.031 -1.70054 -1.17853 0
M  V30 2316 C 217.446 -0.409735 -1.843 0
M  V30 2317 O 216.803 0.614183 -1.71855 0
M  V30 2318 C 216.854 -2.83568 -2.24213 0
M  V30 2319 O 216.575 -4.0765 -1.60478 0
M  V30 2320 C 218.076 -3.12947 -3.13973 0
M  V30 2321 H 215.296 -0.569917 -0.354169 0
M  V30 2322 H 217.84 -1.98734 -0.482198 0
M  V30 2323 H 215.995 -2.57409 -2.89516 0
M  V30 2324 H 216.409 -4.70899 -2.30986 0
M  V30 2325 H 217.883 -3.95889 -3.84677 0
M  V30 2326 H 218.36 -2.26472 -3.76307 0
M  V30 2327 H 218.966 -3.40868 -2.5434 0
M  V30 2328 N 217.281 0.66697 -1.42791 0
M  V30 2329 C 218.558 1.4234 -1.34159 0
M  V30 2330 C 218.938 2.11093 0.0172729 0
M  V30 2331 O 218.286 2.03808 1.03318 0
M  V30 2332 C 218.496 2.41942 -2.51526 0
M  V30 2333 C 219.844 3.06353 -2.93995 0
M  V30 2334 O 220.868 2.52269 -2.51473 0
M  V30 2335 O 219.727 4.04376 -3.67617 0
M  V30 2336 H 216.821 0.635277 -0.529483 0
M  V30 2337 H 219.367 0.695034 -1.54814 0
M  V30 2338 H 218.139 1.89991 -3.42081 0
M  V30 2339 H 217.762 3.22249 -2.32898 0
M  V30 2340 N 218.759 1.29093 0.90403 0
M  V30 2341 C 219.707 1.13727 2.02901 0
M  V30 2342 C 220.701 0.0539853 1.69314 0
M  V30 2343 O 221.907 0.213469 1.7873 0
M  V30 2344 H 218.282 0.35117 0.664969 0
M  V30 2345 H 220.253 2.08982 2.13001 0
M  V30 2346 C 219.002 0.826066 3.37745 0
M  V30 2347 H 218.325 1.65164 3.64089 0
M  V30 2348 H 219.765 0.758559 4.17159 0
M  V30 2349 C 218.224 -0.470541 3.33598 0
M  V30 2350 O 218.754 -1.49792 3.72727 0
M  V30 2351 N 216.96 -0.474812 2.86695 0
M  V30 2352 H 216.507 0.361692 2.55048 0
M  V30 2353 H 216.465 -1.34236 2.84303 0
M  V30 2354 N 220.237 -1.11381 1.11499 0
M  V30 2355 C 221.184 -2.17439 0.773887 0
M  V30 2356 C 222.154 -1.64132 -0.254899 0
M  V30 2357 O 223.339 -1.90345 -0.13168 0
M  V30 2358 C 220.479 -3.44373 0.223917 0
M  V30 2359 C 219.592 -4.1168 1.30934 0
M  V30 2360 C 218.727 -5.263 0.71984 0
M  V30 2361 C 217.766 -5.85493 1.78507 0
M  V30 2362 N 216.903 -6.91507 1.21502 0
M  V30 2363 H 221.743 -2.45962 1.68246 0
M  V30 2364 H 219.28 -1.20744 0.840191 0
M  V30 2365 H 221.238 -4.17047 -0.112921 0
M  V30 2366 H 219.868 -3.16232 -0.647851 0
M  V30 2367 H 218.92 -3.37073 1.76312 0
M  V30 2368 H 220.232 -4.51729 2.11524 0
M  V30 2369 H 219.386 -6.05785 0.333094 0
M  V30 2370 H 218.125 -4.87559 -0.117377 0
M  V30 2371 H 217.13 -5.04686 2.18111 0
M  V30 2372 H 218.355 -6.26301 2.62533 0
M  V30 2373 H 216.301 -6.54783 0.399455 0
M  V30 2374 H 216.218 -7.30214 1.95763 0
M  V30 2375 H 217.486 -7.74795 0.855181 0
M  V30 2376 N 221.715 -0.905404 -1.28997 0
M  V30 2377 C 222.645 -0.404212 -2.29975 0
M  V30 2378 C 223.626 0.523784 -1.61835 0
M  V30 2379 O 224.811 0.433298 -1.89304 0
M  V30 2380 C 221.941 0.364042 -3.45387 0
M  V30 2381 C 220.895 -0.474048 -4.25367 0
M  V30 2382 C 220.221 0.422045 -5.33032 0
M  V30 2383 C 221.521 -1.72696 -4.92923 0
M  V30 2384 H 223.215 -1.24807 -2.72146 0
M  V30 2385 H 220.761 -0.601585 -1.30832 0
M  V30 2386 H 222.714 0.725447 -4.15109 0
M  V30 2387 H 221.438 1.24174 -3.02074 0
M  V30 2388 H 220.097 -0.81786 -3.57361 0
M  V30 2389 H 219.745 1.29804 -4.85963 0
M  V30 2390 H 219.445 -0.135057 -5.87445 0
M  V30 2391 H 220.969 0.779517 -6.05604 0
M  V30 2392 H 222.383 -1.43495 -5.55051 0
M  V30 2393 H 220.78 -2.22582 -5.57295 0
M  V30 2394 H 221.85 -2.45964 -4.17887 0
M  V30 2395 N 223.193 1.4272 -0.668489 0
M  V30 2396 C 224.123 2.335 -0.000100175 0
M  V30 2397 C 225.104 1.50328 0.795964 0
M  V30 2398 O 226.289 1.78949 0.754385 0
M  V30 2399 C 223.419 3.33874 0.956302 0
M  V30 2400 C 222.373 4.27152 0.269278 0
M  V30 2401 C 221.699 5.17684 1.33818 0
M  V30 2402 C 222.999 5.15373 -0.847805 0
M  V30 2403 H 224.693 2.89639 -0.758244 0
M  V30 2404 H 222.239 1.39269 -0.366079 0
M  V30 2405 H 224.192 3.9629 1.43292 0
M  V30 2406 H 222.916 2.76025 1.74579 0
M  V30 2407 H 221.575 3.66123 -0.187042 0
M  V30 2408 H 221.223 4.56165 2.1195 0
M  V30 2409 H 220.923 5.80918 0.883659 0
M  V30 2410 H 222.447 5.82974 1.81586 0
M  V30 2411 H 223.861 5.7151 -0.452681 0
M  V30 2412 H 222.258 5.87407 -1.22773 0
M  V30 2413 H 223.328 4.5415 -1.69929 0
M  V30 2414 N 224.671 0.411399 1.52136 0
M  V30 2415 C 226.087 0.0623865 1.59478 0
M  V30 2416 C 226.287 -1.42554 1.4241 0
M  V30 2417 O 225.343 -2.19263 1.2522 0
M  V30 2418 C 226.656 0.559331 2.95452 0
M  V30 2419 C 228.204 0.517503 3.08692 0
M  V30 2420 C 228.679 0.990994 4.4715 0
M  V30 2421 N 230.17 0.947908 4.53397 0
M  V30 2422 C 230.905 1.28544 5.58806 0
M  V30 2423 N 230.401 1.69454 6.71757 0
M  V30 2424 N 232.194 1.20526 5.49026 0
M  V30 2425 H 224.345 1.37982 1.61477 0
M  V30 2426 H 226.608 0.566977 0.759764 0
M  V30 2427 H 226.314 1.59938 3.1323 0
M  V30 2428 H 226.188 -0.0298014 3.77188 0
M  V30 2429 H 228.575 -0.513505 2.90598 0
M  V30 2430 H 228.656 1.14272 2.28857 0
M  V30 2431 H 228.3 2.02034 4.65988 0
M  V30 2432 H 228.23 0.34257 5.25485 0
M  V30 2433 H 230.721 0.647157 3.72317 0
M  V30 2434 H 231.034 1.93513 7.48179 0
M  V30 2435 H 229.379 1.73359 6.73032 0
M  V30 2436 H 232.57 0.884505 4.59667 0
M  V30 2437 H 232.743 1.47161 6.31069 0
M  V30 2438 N 226.149 -1.5696 0.141893 0
M  V30 2439 C 227.398 -1.95135 -0.510427 0
M  V30 2440 C 227.711 -1.02896 -1.66348 0
M  V30 2441 O 228.917 -1.30629 -2.38009 0
M  V30 2442 C 227.373 -3.46876 -0.959427 0
M  V30 2443 C 226.981 -4.47691 0.166419 0
M  V30 2444 C 228.725 -3.93927 -1.58183 0
M  V30 2445 C 226.632 -5.90636 -0.300565 0
M  V30 2446 H 225.562 -0.728494 -0.194454 0
M  V30 2447 H 228.213 -1.8211 0.22542 0
M  V30 2448 H 226.595 -3.55215 -1.75038 0
M  V30 2449 H 227.769 -4.51043 0.94325 0
M  V30 2450 H 226.084 -4.10527 0.696905 0
M  V30 2451 H 228.681 -4.98158 -1.94275 0
M  V30 2452 H 229.024 -3.3519 -2.46888 0
M  V30 2453 H 229.557 -3.88484 -0.855863 0
M  V30 2454 H 226.296 -6.5318 0.550989 0
M  V30 2455 H 225.816 -5.90655 -1.04338 0
M  V30 2456 H 227.495 -6.42588 -0.754265 0
M  V30 2457 N 227.627 0.131896 -1.57047 0
M  V30 2458 C 228.852 0.860418 -1.8871 0
M  V30 2459 C 229.277 1.73251 -0.73251 0
M  V30 2460 O 228.635 1.785 0.317429 0
M  V30 2461 C 228.683 1.68047 -3.19049 0
M  V30 2462 O 227.787 2.7862 -3.04047 0
M  V30 2463 H 227.128 0.238743 -0.619595 0
M  V30 2464 H 229.658 0.118169 -2.04258 0
M  V30 2465 H 229.668 2.07238 -3.51449 0
M  V30 2466 H 228.343 1.04018 -4.02682 0
M  V30 2467 H 226.92 2.42726 -2.83088 0
M  V30 2468 N 229.106 1.52395 0.401703 0
M  V30 2469 C 230.053 1.76268 1.48991 0
M  V30 2470 C 231.023 0.605386 1.54675 0
M  V30 2471 O 232.208 0.843742 1.7113 0
M  V30 2472 C 229.348 1.92592 2.86361 0
M  V30 2473 C 228.461 3.20259 2.89928 0
M  V30 2474 C 227.596 3.26972 4.18644 0
M  V30 2475 C 226.635 4.48812 4.16214 0
M  V30 2476 N 225.772 4.52877 5.36514 0
M  V30 2477 H 230.612 2.6914 1.27935 0
M  V30 2478 H 228.149 1.33355 0.620871 0
M  V30 2479 H 230.107 2.0004 3.66115 0
M  V30 2480 H 228.737 1.03093 3.05895 0
M  V30 2481 H 227.789 3.21945 2.02621 0
M  V30 2482 H 229.101 4.10056 2.83999 0
M  V30 2483 H 228.255 3.33533 5.06794 0
M  V30 2484 H 226.994 2.35126 4.27278 0
M  V30 2485 H 225.999 4.4239 3.26453 0
M  V30 2486 H 227.224 5.41961 4.09213 0
M  V30 2487 H 225.17 3.63917 5.45802 0
M  V30 2488 H 225.087 5.36529 5.32609 0
M  V30 2489 H 226.355 4.63676 6.26597 0
M  V30 2490 N 230.584 -0.659388 1.43143 0
M  V30 2491 C 231.532 -1.79374 1.4808 0
M  V30 2492 C 232.526 -1.65639 0.354988 0
M  V30 2493 O 233.732 -1.7206 0.528704 0
M  V30 2494 H 230.107 -0.591705 0.4641 0
M  V30 2495 H 232.078 -1.72329 2.43609 0
M  V30 2496 C 230.827 -3.17606 1.41499 0
M  V30 2497 H 230.15 -3.28809 2.27431 0
M  V30 2498 H 231.59 -3.96951 1.49015 0
M  V30 2499 C 230.049 -3.36642 0.131765 0
M  V30 2500 O 230.579 -3.93461 -0.809386 0
M  V30 2501 N 228.785 -2.90567 0.0439396 0
M  V30 2502 H 228.332 -2.44513 0.810619 0
M  V30 2503 H 228.29 -3.03681 -0.813969 0
M  V30 2504 N 232.062 -1.29571 -0.897171 0
M  V30 2505 C 233.31 -1.17456 -1.64464 0
M  V30 2506 C 233.631 0.273698 -1.9307 0
M  V30 2507 O 232.901 1.18684 -1.55855 0
M  V30 2508 H 231.481 -0.431706 -0.609622 0
M  V30 2509 H 234.143 -1.62531 -1.07562 0
M  V30 2510 H 233.239 -1.72648 -2.59998 0
M  V30 2511 N 233.54 1.10788 -1.12088 0
M  V30 2512 C 234.487 2.17025 -0.785407 0
M  V30 2513 C 235.457 1.64265 0.246191 0
M  V30 2514 O 236.642 1.90412 0.121584 0
M  V30 2515 C 233.782 3.44249 -0.242177 0
M  V30 2516 C 232.895 4.1098 -1.33115 0
M  V30 2517 C 232.03 5.25911 -0.747741 0
M  V30 2518 C 231.069 5.84538 -1.81609 0
M  V30 2519 N 230.206 6.90853 -1.25167 0
M  V30 2520 H 235.046 2.45066 -1.69548 0
M  V30 2521 H 232.583 1.20297 -0.846582 0
M  V30 2522 H 234.541 4.17101 0.0908026 0
M  V30 2523 H 233.171 3.16571 0.631072 0
M  V30 2524 H 232.223 3.36133 -1.78097 0
M  V30 2525 H 233.535 4.50601 -2.13917 0
M  V30 2526 H 232.689 6.056 -0.365216 0
M  V30 2527 H 231.428 4.87614 0.0915188 0
M  V30 2528 H 230.433 5.03522 -2.20785 0
M  V30 2529 H 231.658 6.249 -2.6585 0
M  V30 2530 H 229.604 6.54562 -0.434174 0
M  V30 2531 H 229.521 7.29166 -1.99633 0
M  V30 2532 H 230.789 7.7433 -0.896259 0
M  V30 2533 N 235.018 0.912232 1.28515 0
M  V30 2534 C 236.264 0.545405 1.95328 0
M  V30 2535 C 236.597 -0.908313 1.71649 0
M  V30 2536 O 235.872 -1.64575 1.03659 0
M  V30 2537 C 236.155 0.853483 3.4984 0
M  V30 2538 C 236.008 2.35982 3.82926 0
M  V30 2539 C 237.327 0.348589 4.38717 0
M  V30 2540 H 234.446 0.199626 0.709449 0
M  V30 2541 H 237.088 1.1412 1.5191 0
M  V30 2542 H 235.238 0.34643 3.86952 0
M  V30 2543 H 236.91 2.93738 3.55691 0
M  V30 2544 H 235.153 2.81543 3.30024 0
M  V30 2545 H 235.824 2.52593 4.90816 0
M  V30 2546 H 238.3 0.78294 4.08668 0
M  V30 2547 H 237.176 0.593242 5.45685 0
M  V30 2548 H 237.437 -0.751049 4.35674 0
M  V30 2549 N 236.496 -1.42363 0.676048 0
M  V30 2550 C 237.426 -2.33497 0.0124832 0
M  V30 2551 C 238.407 -1.50748 -0.787981 0
M  V30 2552 O 239.592 -1.79346 -0.744884 0
M  V30 2553 C 236.722 -3.34377 -0.938582 0
M  V30 2554 C 235.676 -4.27289 -0.246622 0
M  V30 2555 C 235.002 -5.18386 -1.31071 0
M  V30 2556 C 236.302 -5.14916 0.875125 0
M  V30 2557 H 237.996 -2.89233 0.773593 0
M  V30 2558 H 235.542 -1.39073 0.37346 0
M  V30 2559 H 237.495 -3.97044 -1.41188 0
M  V30 2560 H 236.219 -2.76947 -1.73113 0
M  V30 2561 H 234.878 -3.66018 0.206456 0
M  V30 2562 H 234.526 -4.57282 -2.09528 0
M  V30 2563 H 234.226 -5.81378 -0.852839 0
M  V30 2564 H 235.75 -5.83929 -1.78492 0
M  V30 2565 H 237.164 -5.71262 0.482983 0
M  V30 2566 H 235.561 -5.86747 1.25887 0
M  V30 2567 H 236.631 -4.53242 1.72335 0
M  V30 2568 N 237.974 -0.419461 -1.51915 0
M  V30 2569 C 239.204 0.151915 -2.06041 0
M  V30 2570 C 239.612 1.38539 -1.28855 0
M  V30 2571 O 238.955 1.80592 -0.336463 0
M  V30 2572 C 239.017 0.557119 -3.55157 0
M  V30 2573 C 238.681 -0.567054 -4.53468 0
M  V30 2574 C 239.678 -1.43379 -4.99738 0
M  V30 2575 C 237.363 -0.742693 -4.96779 0
M  V30 2576 C 239.357 -2.46102 -5.87973 0
M  V30 2577 C 237.044 -1.77322 -5.84808 0
M  V30 2578 C 238.042 -2.63078 -6.30301 0
M  V30 2579 O 237.73 -3.64364 -7.16585 0
M  V30 2580 H 237.462 0.0193293 -0.675724 0
M  V30 2581 H 240.016 -0.592073 -1.96682 0
M  V30 2582 H 238.246 1.35355 -3.62238 0
M  V30 2583 H 239.935 1.05759 -3.9188 0
M  V30 2584 H 240.701 -1.30954 -4.66986 0
M  V30 2585 H 236.58 -0.0848307 -4.60922 0
M  V30 2586 H 240.124 -3.13071 -6.23404 0
M  V30 2587 H 236.021 -1.89773 -6.16974 0
M  V30 2588 H 236.789 -3.60731 -7.34721 0
M  V30 2589 N 239.452 1.56882 -0.150215 0
M  V30 2590 C 240.677 2.01027 0.510184 0
M  V30 2591 C 241.102 1.02966 1.57415 0
M  V30 2592 O 240.46 0.00590158 1.81299 0
M  V30 2593 C 240.508 3.43899 1.08472 0
M  V30 2594 O 239.612 3.4885 2.19948 0
M  V30 2595 H 238.953 0.652233 0.124451 0
M  V30 2596 H 241.483 2.03093 -0.247894 0
M  V30 2597 H 241.493 3.82766 1.41259 0
M  V30 2598 H 240.168 4.14776 0.305582 0
M  V30 2599 H 238.745 3.21827 1.88366 0
M  V30 2600 N 240.93 -0.123565 1.57115 0
M  V30 2601 C 242.179 -0.830704 1.83799 0
M  V30 2602 C 242.492 -1.81259 0.735158 0
M  V30 2603 O 243.698 -2.56558 0.888278 0
M  V30 2604 C 242.154 -1.52802 3.25852 0
M  V30 2605 C 241.762 -0.587356 4.44133 0
M  V30 2606 C 243.506 -2.22056 3.61789 0
M  V30 2607 C 241.413 -1.28764 5.77212 0
M  V30 2608 H 240.343 -0.313967 0.685522 0
M  V30 2609 H 242.994 -0.0834359 1.8331 0
M  V30 2610 H 241.376 -2.32175 3.20797 0
M  V30 2611 H 242.55 0.172829 4.60476 0
M  V30 2612 H 240.865 -0.00201892 4.164 0
M  V30 2613 H 243.462 -2.75131 4.58483 0
M  V30 2614 H 243.805 -2.99644 2.88997 0
M  V30 2615 H 244.338 -1.49576 3.68608 0
M  V30 2616 H 241.077 -0.55314 6.53162 0
M  V30 2617 H 240.597 -2.01995 5.64764 0
M  V30 2618 H 242.276 -1.8221 6.20813 0
M  V30 2619 N 242.408 -1.52605 -0.393616 0
M  V30 2620 C 243.824 -1.41753 -0.733357 0
M  V30 2621 C 244.024 -0.534293 -1.94287 0
M  V30 2622 O 243.08 -0.0059787 -2.52499 0
M  V30 2623 C 244.393 -2.84531 -0.972772 0
M  V30 2624 C 245.941 -2.93978 -1.07453 0
M  V30 2625 C 246.416 -4.37756 -1.3466 0
M  V30 2626 N 247.907 -4.4106 -1.41492 0
M  V30 2627 C 248.642 -5.49387 -1.642 0
M  V30 2628 N 248.138 -6.67806 -1.8441 0
M  V30 2629 N 249.931 -5.36923 -1.66342 0
M  V30 2630 H 242.082 -2.08555 0.402328 0
M  V30 2631 H 244.345 -0.940654 0.117789 0
M  V30 2632 H 244.051 -3.51353 -0.156204 0
M  V30 2633 H 243.925 -3.26508 -1.88871 0
M  V30 2634 H 246.312 -2.27326 -1.88167 0
M  V30 2635 H 246.393 -2.55435 -0.136605 0
M  V30 2636 H 246.037 -5.04972 -0.544581 0
M  V30 2637 H 245.967 -4.73848 -2.2973 0
M  V30 2638 H 248.458 -3.55705 -1.27601 0
M  V30 2639 H 248.771 -7.46141 -2.01231 0
M  V30 2640 H 247.116 -6.70843 -1.81644 0
M  V30 2641 H 250.307 -4.43381 -1.50102 0
M  V30 2642 H 250.48 -6.21416 -1.837 0
M  V30 2643 N 243.887 0.651787 -1.4349 0
M  V30 2644 C 244.817 1.77621 -1.51569 0
M  V30 2645 C 245.798 1.66022 -0.370253 0
M  V30 2646 O 246.983 1.85095 -0.587658 0
M  V30 2647 C 244.113 3.16056 -1.43966 0
M  V30 2648 C 243.067 3.4242 -2.56774 0
M  V30 2649 C 242.393 4.8067 -2.34223 0
M  V30 2650 C 243.693 3.37023 -3.99015 0
M  V30 2651 H 245.387 1.71117 -2.45681 0
M  V30 2652 H 242.933 0.821825 -1.18246 0
M  V30 2653 H 244.886 3.94472 -1.48221 0
M  V30 2654 H 243.61 3.23293 -0.463586 0
M  V30 2655 H 242.269 2.66375 -2.51873 0
M  V30 2656 H 241.917 4.84585 -1.34856 0
M  V30 2657 H 241.617 4.9927 -3.09844 0
M  V30 2658 H 243.141 5.61342 -2.40265 0
M  V30 2659 H 244.555 4.05374 -4.05395 0
M  V30 2660 H 242.952 3.67159 -4.74673 0
M  V30 2661 H 244.022 2.3518 -4.2405 0
M  V30 2662 N 245.365 1.30045 0.890287 0
M  V30 2663 C 246.593 1.21472 1.67487 0
M  V30 2664 C 247.008 -0.223241 1.87476 0
M  V30 2665 O 246.365 -1.14828 1.41847 0
M  V30 2666 C 246.416 1.93394 3.05419 0
M  V30 2667 O 246.137 3.31576 2.86337 0
M  V30 2668 C 247.638 1.91414 3.99844 0
M  V30 2669 H 244.858 0.420604 0.522813 0
M  V30 2670 H 247.402 1.7158 1.11268 0
M  V30 2671 H 245.557 1.47099 3.58386 0
M  V30 2672 H 245.971 3.67929 3.73802 0
M  V30 2673 H 247.445 2.46285 4.94012 0
M  V30 2674 H 247.922 0.891833 4.3005 0
M  V30 2675 H 248.528 2.37496 3.52811 0
M  V30 2676 N 246.843 -1.10192 1.12674 0
M  V30 2677 C 247.773 -2.18652 0.819362 0
M  V30 2678 C 248.754 -1.68698 -0.217915 0
M  V30 2679 O 249.939 -1.94041 -0.0785581 0
M  V30 2680 C 247.069 -3.46202 0.27594 0
M  V30 2681 C 246.023 -4.09444 1.24656 0
M  V30 2682 C 245.349 -5.31725 0.563258 0
M  V30 2683 C 246.649 -4.52863 2.60217 0
M  V30 2684 H 248.343 -2.44622 1.72628 0
M  V30 2685 H 245.889 -1.17571 0.831451 0
M  V30 2686 H 247.842 -4.21372 0.0486149 0
M  V30 2687 H 246.566 -3.1973 -0.666331 0
M  V30 2688 H 245.225 -3.36284 1.45974 0
M  V30 2689 H 244.873 -5.0153 -0.384235 0
M  V30 2690 H 244.573 -5.74991 1.21075 0
M  V30 2691 H 246.097 -6.09624 0.34503 0
M  V30 2692 H 247.511 -5.19294 2.42913 0
M  V30 2693 H 245.908 -5.06986 3.21068 0
M  V30 2694 H 246.978 -3.65656 3.18471 0
M  V30 2695 N 248.321 -0.919034 -1.28029 0
M  V30 2696 C 249.549 -0.570971 -1.98866 0
M  V30 2697 C 249.964 0.848996 -1.68634 0
M  V30 2698 O 249.321 1.56307 -0.942036 0
M  V30 2699 C 249.372 -0.776876 -3.53054 0
M  V30 2700 O 249.093 -2.14097 -3.82222 0
M  V30 2701 C 250.594 -0.436356 -4.41147 0
M  V30 2702 H 247.814 -0.217175 -0.634883 0
M  V30 2703 H 250.358 -1.23368 -1.63097 0
M  V30 2704 H 248.513 -0.161085 -3.87065 0
M  V30 2705 H 248.927 -2.18455 -4.76841 0
M  V30 2706 H 250.401 -0.63117 -5.4838 0
M  V30 2707 H 250.878 0.627686 -4.34692 0
M  V30 2708 H 251.484 -1.02991 -4.12641 0
M  V30 2709 N 249.799 1.42003 -0.683588 0
M  V30 2710 C 250.729 2.33487 -0.024866 0
M  V30 2711 C 251.71 1.51163 0.779975 0
M  V30 2712 O 252.895 1.79739 0.735362 0
M  V30 2713 C 250.025 3.3487 0.920836 0
M  V30 2714 C 248.979 4.27414 0.223958 0
M  V30 2715 C 248.305 5.19074 1.2832 0
M  V30 2716 C 249.605 5.14445 -0.90242 0
M  V30 2717 H 251.299 2.88819 -0.788921 0
M  V30 2718 H 248.845 1.38873 -0.38083 0
M  V30 2719 H 250.798 3.97787 1.39081 0
M  V30 2720 H 249.522 2.77861 1.71642 0
M  V30 2721 H 248.181 3.65904 -0.225864 0
M  V30 2722 H 247.829 4.58387 2.071 0
M  V30 2723 H 247.529 5.81822 0.821995 0
M  V30 2724 H 249.053 5.84867 1.75392 0
M  V30 2725 H 250.467 5.70998 -0.513272 0
M  V30 2726 H 248.864 5.86072 -1.28997 0
M  V30 2727 H 249.934 4.52322 -1.74737 0
M  V30 2728 N 251.277 0.427512 1.51691 0
M  V30 2729 C 252.502 -0.143601 2.06902 0
M  V30 2730 C 252.927 -1.36536 1.29382 0
M  V30 2731 O 252.285 -1.78289 0.329043 0
M  V30 2732 C 252.333 -0.454207 3.57728 0
M  V30 2733 O 251.437 -1.54228 3.82475 0
M  V30 2734 H 250.778 -0.00617128 0.663971 0
M  V30 2735 H 253.308 0.606014 1.95419 0
M  V30 2736 H 253.318 -0.707525 4.01818 0
M  V30 2737 H 251.993 0.438812 4.13579 0
M  V30 2738 H 250.57 -1.2797 3.50254 0
M  V30 2739 N 252.755 -1.56801 0.158532 0
M  V30 2740 C 253.995 -1.98383 -0.49229 0
M  V30 2741 C 254.359 -1.04184 -1.61275 0
M  V30 2742 O 255.56 -1.34856 -2.32524 0
M  V30 2743 C 253.831 -3.4385 -0.974766 0
M  V30 2744 S 255.39 -4.07459 -1.62857 0
M  V30 2745 H 252.208 -0.693041 -0.158794 0
M  V30 2746 H 254.81 -1.93856 0.252974 0
M  V30 2747 H 253.514 -4.10131 -0.148688 0
M  V30 2748 H 253.045 -3.52115 -1.75438 0
M  V30 2749 H 255.06 -4.01458 -2.91627 0
M  V30 2750 N 254.233 0.115231 -1.57178 0
M  V30 2751 C 255.644 0.67197 -1.74188 0
M  V30 2752 C 255.995 1.80125 -0.777777 0
M  V30 2753 O 255.12 2.16346 0.0484376 0
M  V30 2754 C 255.715 1.22573 -3.1585 0
M  V30 2755 C 254.274 1.72872 -3.34353 0
M  V30 2756 C 253.421 0.629972 -2.70049 0
M  V30 2757 H 256.372 -0.110712 -1.58313 0
M  V30 2758 H 256.393 2.09535 -3.17609 0
M  V30 2759 H 255.905 0.403598 -3.85996 0
M  V30 2760 H 254.006 2.5755 -2.69256 0
M  V30 2761 H 254.119 1.83557 -4.42542 0
M  V30 2762 H 252.483 1.0645 -2.31388 0
M  V30 2763 H 253.266 -0.181241 -3.42821 0
M  V30 2764 N 255.711 1.52812 0.385517 0
M  V30 2765 C 256.644 1.72592 1.49289 0
M  V30 2766 C 257.622 0.573819 1.52138 0
M  V30 2767 O 258.806 0.80404 1.70492 0
M  V30 2768 C 255.933 1.78669 2.87741 0
M  V30 2769 C 254.979 3.00455 3.02703 0
M  V30 2770 S 255.812 4.60366 2.73538 0
M  V30 2771 C 256.968 4.69263 4.14177 0
M  V30 2772 H 257.201 2.66248 1.32285 0
M  V30 2773 H 254.734 1.43148 0.578611 0
M  V30 2774 H 256.692 1.82855 3.67524 0
M  V30 2775 H 255.353 0.861 3.02069 0
M  V30 2776 H 254.546 3.01258 4.04054 0
M  V30 2777 H 254.148 2.94278 2.30817 0
M  V30 2778 H 256.44 4.48092 5.08153 0
M  V30 2779 H 257.383 5.71276 4.18388 0
M  V30 2780 H 257.791 3.98072 4.00249 0
M  V30 2781 N 257.189 -0.644168 1.43834 0
M  V30 2782 C 258.466 -1.40188 1.36406 0
M  V30 2783 C 258.846 -2.11094 0.0163124 0
M  V30 2784 O 258.194 -2.05426 -1.00062 0
M  V30 2785 C 258.404 -2.3791 2.55343 0
M  V30 2786 C 259.752 -3.01637 2.98832 0
M  V30 2787 O 260.776 -2.48237 2.55455 0
M  V30 2788 O 259.635 -3.98477 3.74003 0
M  V30 2789 H 256.729 -0.626773 0.539523 0
M  V30 2790 H 259.275 -0.670317 1.559 0
M  V30 2791 H 258.047 -1.84525 3.4506 0
M  V30 2792 H 257.67 -3.18503 2.37995 0
M  V30 2793 N 258.668 -1.30515 -0.883378 0
M  V30 2794 C 259.598 -1.19607 -2.00541 0
M  V30 2795 C 260.579 -0.086346 -1.69881 0
M  V30 2796 O 261.764 -0.268654 -1.92333 0
M  V30 2797 C 258.894 -0.888758 -3.35736 0
M  V30 2798 C 257.848 -1.95659 -3.8066 0
M  V30 2799 C 257.174 -1.50224 -5.13164 0
M  V30 2800 C 258.474 -3.36788 -3.99213 0
M  V30 2801 H 260.168 -2.13476 -2.09925 0
M  V30 2802 H 257.714 -1.02775 -1.00863 0
M  V30 2803 H 259.667 -0.799094 -4.13754 0
M  V30 2804 H 258.391 0.0856125 -3.26488 0
M  V30 2805 H 257.05 -2.03591 -3.04871 0
M  V30 2806 H 256.698 -0.516092 -5.00345 0
M  V30 2807 H 256.398 -2.2165 -5.44192 0
M  V30 2808 H 257.922 -1.42639 -5.93706 0
M  V30 2809 H 259.336 -3.31605 -4.67665 0
M  V30 2810 H 257.733 -4.06314 -4.41621 0
M  V30 2811 H 258.803 -3.78561 -3.03017 0
M  V30 2812 N 260.146 1.09593 -1.13257 0
M  V30 2813 C 261.093 2.1618 -0.808381 0
M  V30 2814 C 262.063 1.64517 0.228754 0
M  V30 2815 O 263.248 1.9053 0.101381 0
M  V30 2816 C 260.388 3.43973 -0.278675 0
M  V30 2817 C 259.501 4.09545 -1.37466 0
M  V30 2818 C 258.636 5.25088 -0.803479 0
M  V30 2819 C 257.675 5.82579 -1.87799 0
M  V30 2820 N 256.812 6.89486 -1.32488 0
M  V30 2821 H 261.652 2.43254 -1.72138 0
M  V30 2822 H 259.189 1.19392 -0.859294 0
M  V30 2823 H 261.147 4.17174 0.0465583 0
M  V30 2824 H 259.777 3.17223 0.597459 0
M  V30 2825 H 258.829 3.34226 -1.81652 0
M  V30 2826 H 260.141 4.48307 -2.18684 0
M  V30 2827 H 259.295 6.05178 -0.429427 0
M  V30 2828 H 258.034 4.87684 0.0397956 0
M  V30 2829 H 257.039 5.01152 -2.26113 0
M  V30 2830 H 258.264 6.22045 -2.72463 0
M  V30 2831 H 256.21 6.54064 -0.503575 0
M  V30 2832 H 256.127 7.27007 -2.07355 0
M  V30 2833 H 257.395 7.73336 -0.978336 0
M  V30 2834 N 261.624 0.925811 1.2754 0
M  V30 2835 C 262.572 0.413897 2.28888 0
M  V30 2836 C 263.566 -0.500779 1.61829 0
M  V30 2837 O 264.772 -0.38069 1.75928 0
M  V30 2838 H 261.147 0.115274 0.743112 0
M  V30 2839 H 263.118 1.28151 2.69481 0
M  V30 2840 C 261.867 -0.319792 3.46226 0
M  V30 2841 H 261.19 0.374846 3.98039 0
M  V30 2842 H 262.63 -0.642435 4.19105 0
M  V30 2843 C 261.089 -1.53209 3.00048 0
M  V30 2844 O 261.619 -2.6309 3.03557 0
M  V30 2845 N 259.825 -1.38326 2.55566 0
M  V30 2846 H 259.372 -0.489292 2.5291 0
M  V30 2847 H 259.33 -2.19564 2.25031 0
M  V30 2848 N 263.102 -1.41638 0.69111 0
M  V30 2849 C 264.349 -2.01299 0.220193 0
M  V30 2850 C 264.677 -1.54715 -1.17871 0
M  V30 2851 O 263.932 -0.747193 -1.80874 0
M  V30 2852 C 264.231 -3.56714 0.221277 0
M  V30 2853 C 263.897 -4.22792 1.56709 0
M  V30 2854 C 262.559 -4.40557 1.93554 0
M  V30 2855 C 264.911 -4.59883 2.45268 0
M  V30 2856 C 262.239 -4.92688 3.18552 0
M  V30 2857 C 264.591 -5.13403 3.69595 0
M  V30 2858 C 263.255 -5.29379 4.06589 0
M  V30 2859 H 262.525 -0.736606 0.0805743 0
M  V30 2860 H 265.172 -1.69598 0.889319 0
M  V30 2861 H 263.477 -3.8818 -0.531391 0
M  V30 2862 H 265.174 -4.00678 -0.160547 0
M  V30 2863 H 261.764 -4.09336 1.2705 0
M  V30 2864 H 265.948 -4.45817 2.18084 0
M  V30 2865 H 261.204 -5.03242 3.47214 0
M  V30 2866 H 265.378 -5.41084 4.38407 0
M  V30 2867 H 263.005 -5.69537 5.03519 0
M  V30 2868 N 264.58 -0.43555 -1.51462 0
M  V30 2869 C 265.991 0.0279871 -1.86679 0
M  V30 2870 C 266.342 1.42104 -1.35281 0
M  V30 2871 O 265.467 2.04667 -0.702878 0
M  V30 2872 C 266.062 0.0575626 -3.38751 0
M  V30 2873 C 264.621 0.465507 -3.7351 0
M  V30 2874 C 263.768 -0.342996 -2.75171 0
M  V30 2875 H 266.719 -0.651473 -1.44712 0
M  V30 2876 H 266.74 0.867421 -3.70481 0
M  V30 2877 H 266.252 -0.956448 -3.7613 0
M  V30 2878 H 264.353 1.48519 -3.41721 0
M  V30 2879 H 264.466 0.191546 -4.78717 0
M  V30 2880 H 262.83 0.198442 -2.53926 0
M  V30 2881 H 263.613 -1.35585 -3.15391 0
M  V30 2882 N 266.058 1.56714 -0.166846 0
M  V30 2883 C 266.991 2.13577 0.80375 0
M  V30 2884 C 267.969 1.06464 1.22899 0
M  V30 2885 O 269.153 1.34413 1.32157 0
M  V30 2886 C 266.28 2.67168 2.0818 0
M  V30 2887 C 265.326 3.86612 1.80093 0
M  V30 2888 S 266.159 5.26565 0.97416 0
M  V30 2889 C 267.315 5.83558 2.26297 0
M  V30 2890 H 267.548 2.9557 0.320267 0
M  V30 2891 H 265.081 1.54326 0.0477555 0
M  V30 2892 H 267.039 2.98692 2.8159 0
M  V30 2893 H 265.7 1.85269 2.53642 0
M  V30 2894 H 264.893 4.22422 2.7491 0
M  V30 2895 H 264.495 3.55951 1.14781 0
M  V30 2896 H 266.787 5.962 3.21795 0
M  V30 2897 H 267.73 6.80731 1.94962 0
M  V30 2898 H 268.138 5.11944 2.37853 0
M  V30 2899 N 267.536 -0.106894 1.57237 0
M  V30 2900 C 268.813 -0.843526 1.76477 0
M  V30 2901 C 269.193 -1.97499 0.745464 0
M  V30 2902 O 268.541 -2.27357 -0.228306 0
M  V30 2903 C 268.751 -1.34903 3.21873 0
M  V30 2904 C 270.099 -1.79654 3.8472 0
M  V30 2905 O 271.123 -1.44554 3.2555 0
M  V30 2906 O 269.982 -2.44515 4.88748 0
M  V30 2907 H 267.076 -0.401468 0.723016 0
M  V30 2908 H 269.622 -0.0896927 1.69463 0
M  V30 2909 H 268.394 -0.53781 3.87586 0
M  V30 2910 H 268.017 -2.16522 3.33473 0
M  V30 2911 N 269.014 -1.53014 -0.377408 0
M  V30 2912 C 270.26 -1.68872 -1.12294 0
M  V30 2913 C 270.593 -0.433224 -1.89306 0
M  V30 2914 O 269.868 0.569258 -1.85983 0
M  V30 2915 C 270.151 -2.93115 -2.09179 0
M  V30 2916 C 270.004 -4.28794 -1.35853 0
M  V30 2917 C 271.323 -3.12928 -3.09458 0
M  V30 2918 H 268.442 -0.614518 -0.406862 0
M  V30 2919 H 271.084 -1.85633 -0.40503 0
M  V30 2920 H 269.234 -2.78956 -2.70399 0
M  V30 2921 H 270.906 -4.54742 -0.775082 0
M  V30 2922 H 269.149 -4.28744 -0.660364 0
M  V30 2923 H 269.82 -5.11837 -2.06706 0
M  V30 2924 H 272.296 -3.26194 -2.58334 0
M  V30 2925 H 271.172 -4.01316 -3.74482 0
M  V30 2926 H 271.433 -2.27669 -3.78971 0
M  V30 2927 N 270.492 0.636531 -1.44174 0
M  V30 2928 C 271.424 1.7618 -1.46606 0
M  V30 2929 C 272.437 1.58768 -0.360091 0
M  V30 2930 O 273.626 1.67181 -0.625518 0
M  V30 2931 C 270.726 3.13833 -1.27915 0
M  V30 2932 C 269.899 3.57753 -2.51658 0
M  V30 2933 C 268.958 4.74265 -2.27945 0
M  V30 2934 O 267.984 4.82852 -3.01401 0
M  V30 2935 N 269.186 5.65604 -1.30662 0
M  V30 2936 H 271.951 1.74567 -2.43612 0
M  V30 2937 H 269.512 0.820924 -1.39544 0
M  V30 2938 H 271.504 3.8949 -1.09907 0
M  V30 2939 H 270.074 3.10121 -0.39293 0
M  V30 2940 H 269.294 2.72362 -2.84978 0
M  V30 2941 H 270.582 3.83847 -3.33974 0
M  V30 2942 H 269.98 5.61354 -0.699844 0
M  V30 2943 H 268.537 6.40913 -1.18634 0
M  V30 2944 N 271.97 1.30982 0.876444 0
M  V30 2945 C 273.198 1.23242 1.6619 0
M  V30 2946 C 273.613 -0.203345 1.87702 0
M  V30 2947 O 272.97 -1.13317 1.43057 0
M  V30 2948 C 273.021 1.96623 3.03351 0
M  V30 2949 O 272.742 3.34594 2.82804 0
M  V30 2950 C 274.243 1.95644 3.97792 0
M  V30 2951 H 271.463 0.426126 0.518322 0
M  V30 2952 H 274.007 1.7275 1.09442 0
M  V30 2953 H 272.162 1.50892 3.56806 0
M  V30 2954 H 272.576 3.71873 3.69879 0
M  V30 2955 H 274.05 2.51511 4.91372 0
M  V30 2956 H 274.527 0.937395 4.2908 0
M  V30 2957 H 275.133 2.41225 3.50272 0
M  V30 2958 N 273.449 -1.08991 1.13837 0
M  V30 2959 C 274.689 -1.82867 0.913183 0
M  V30 2960 C 275.053 -1.83936 -0.550604 0
M  V30 2961 O 276.254 -2.53515 -0.893515 0
M  V30 2962 C 274.525 -3.24843 1.49036 0
M  V30 2963 S 276.084 -4.15669 1.40588 0
M  V30 2964 H 272.902 -0.630278 0.329046 0
M  V30 2965 H 275.504 -1.31049 1.45073 0
M  V30 2966 H 274.208 -3.21644 2.54899 0
M  V30 2967 H 273.739 -3.81734 0.950947 0
M  V30 2968 H 275.754 -4.94686 0.387353 0
M  V30 2969 N 274.927 -0.932562 -1.27047 0
M  V30 2970 C 276.155 -0.592031 -1.98249 0
M  V30 2971 C 276.57 0.831062 -1.69525 0
M  V30 2972 O 275.927 1.55299 -0.958561 0
M  V30 2973 C 275.978 -0.814279 -3.5221 0
M  V30 2974 O 275.699 -2.18139 -3.7993 0
M  V30 2975 C 277.2 -0.483121 -4.4066 0
M  V30 2976 H 274.42 -0.223896 -0.632544 0
M  V30 2977 H 276.964 -1.25091 -1.61779 0
M  V30 2978 H 275.119 -0.20213 -3.86872 0
M  V30 2979 H 275.533 -2.235 -4.74498 0
M  V30 2980 H 277.007 -0.689298 -5.47679 0
M  V30 2981 H 277.484 0.581546 -4.35333 0
M  V30 2982 H 278.09 -1.07362 -4.11526 0
M  V30 2983 N 276.405 1.4127 -0.698611 0
M  V30 2984 C 277.338 2.28195 0.0153898 0
M  V30 2985 C 278.316 1.42402 0.784883 0
M  V30 2986 O 279.5 1.71828 0.775067 0
M  V30 2987 C 276.627 3.22685 1.02918 0
M  V30 2988 C 275.673 4.25041 0.352501 0
M  V30 2989 S 276.506 5.27757 -0.907322 0
M  V30 2990 C 277.662 6.25812 0.104796 0
M  V30 2991 H 277.895 2.88403 -0.721858 0
M  V30 2992 H 275.428 1.46452 -0.488996 0
M  V30 2993 H 277.386 3.77655 1.60893 0
M  V30 2994 H 276.047 2.61566 1.73902 0
M  V30 2995 H 275.24 4.91437 1.11828 0
M  V30 2996 H 274.842 3.73682 -0.154254 0
M  V30 2997 H 277.134 6.70705 0.957103 0
M  V30 2998 H 278.077 7.06149 -0.525323 0
M  V30 2999 H 278.485 5.62615 0.460931 0
M  V30 3000 N 277.883 0.443576 1.51229 0
M  V30 3001 C 278.815 -0.400608 2.25672 0
M  V30 3002 C 279.828 -0.980945 1.29928 0
M  V30 3003 O 281.017 -0.874024 1.55638 0
M  V30 3004 C 278.117 -1.57304 3.00181 0
M  V30 3005 C 277.29 -1.11046 4.23069 0
M  V30 3006 C 276.349 -2.15374 4.80105 0
M  V30 3007 O 275.375 -1.74554 5.41774 0
M  V30 3008 N 276.577 -3.47922 4.64683 0
M  V30 3009 H 279.342 0.23745 2.98758 0
M  V30 3010 H 276.903 0.272809 1.59585 0
M  V30 3011 H 278.895 -2.26733 3.35223 0
M  V30 3012 H 277.465 -2.11632 2.30066 0
M  V30 3013 H 276.685 -0.243019 3.9345 0
M  V30 3014 H 277.973 -0.778888 5.02803 0
M  V30 3015 H 277.371 -3.83815 4.15575 0
M  V30 3016 H 275.928 -4.13228 5.0407 0
M  V30 3017 N 279.361 -1.56624 0.175154 0
M  V30 3018 C 280.291 -2.21155 -0.749195 0
M  V30 3019 C 281.272 -1.16836 -1.23626 0
M  V30 3020 O 282.457 -1.45277 -1.28873 0
M  V30 3021 C 279.587 -2.8553 -1.97711 0
M  V30 3022 C 278.541 -3.95921 -1.62575 0
M  V30 3023 C 277.867 -4.47365 -2.92864 0
M  V30 3024 C 279.167 -5.15323 -0.850838 0
M  V30 3025 H 280.861 -2.98653 -0.211295 0
M  V30 3026 H 278.407 -1.43651 -0.100188 0
M  V30 3027 H 280.36 -3.2935 -2.62881 0
M  V30 3028 H 279.084 -2.05406 -2.53921 0
M  V30 3029 H 277.743 -3.52762 -0.997719 0
M  V30 3030 H 277.391 -3.64027 -3.47122 0
M  V30 3031 H 277.091 -5.21839 -2.70106 0
M  V30 3032 H 278.615 -4.93873 -3.59056 0
M  V30 3033 H 280.029 -5.55812 -1.40521 0
M  V30 3034 H 278.426 -5.95739 -0.722154 0
M  V30 3035 H 279.496 -4.84661 0.152082 0
M  V30 3036 N 280.839 0.0985539 -1.57292 0
M  V30 3037 C 281.749 1.13824 -2.05137 0
M  V30 3038 C 282.765 1.44076 -0.975604 0
M  V30 3039 O 283.941 1.54786 -1.28853 0
M  V30 3040 C 281.006 2.43969 -2.46333 0
M  V30 3041 C 280.067 2.2093 -3.68087 0
M  V30 3042 C 279.3 3.44869 -4.0731 0
M  V30 3043 O 279.523 4.52972 -3.46659 0
M  V30 3044 O 278.457 3.34661 -5.00285 0
M  V30 3045 H 282.283 0.761881 -2.93988 0
M  V30 3046 H 279.868 0.310818 -1.46131 0
M  V30 3047 H 281.75 3.20609 -2.73473 0
M  V30 3048 H 280.425 2.81038 -1.60621 0
M  V30 3049 H 279.332 1.42081 -3.46069 0
M  V30 3050 H 280.665 1.88755 -4.54568 0
M  V30 3051 N 282.317 1.53212 0.369288 0
M  V30 3052 C 283.542 1.73423 1.1375 0
M  V30 3053 C 283.967 0.460404 1.82378 0
M  V30 3054 O 283.325 -0.585298 1.71592 0
M  V30 3055 C 283.373 2.89769 2.1463 0
M  V30 3056 O 282.477 2.58119 3.21634 0
M  V30 3057 H 281.818 0.576061 0.330227 0
M  V30 3058 H 284.348 2.00083 0.427547 0
M  V30 3059 H 284.358 3.15829 2.58294 0
M  V30 3060 H 283.033 3.8217 1.64071 0
M  V30 3061 H 281.61 2.42864 2.82969 0
M  V30 3062 N 283.795 -0.628877 1.44509 0
M  V30 3063 C 285.042 -1.38839 1.47411 0
M  V30 3064 C 285.37 -1.94202 0.10757 0
M  V30 3065 O 284.625 -1.74243 -0.890947 0
M  V30 3066 C 284.924 -2.56995 2.48371 0
M  V30 3067 C 284.59 -2.19908 3.93639 0
M  V30 3068 C 283.252 -2.09506 4.33198 0
M  V30 3069 C 285.604 -1.9064 4.85083 0
M  V30 3070 C 282.932 -1.68028 5.62124 0
M  V30 3071 C 285.284 -1.50655 6.14399 0
M  V30 3072 C 283.948 -1.38796 6.5291 0
M  V30 3073 H 283.218 -0.508048 0.539414 0
M  V30 3074 H 285.865 -0.712913 1.77735 0
M  V30 3075 H 284.17 -3.29786 2.11538 0
M  V30 3076 H 285.867 -3.15223 2.47861 0
M  V30 3077 H 282.457 -2.28922 3.62343 0
M  V30 3078 H 286.641 -1.97585 4.55273 0
M  V30 3079 H 281.897 -1.57452 5.90778 0
M  V30 3080 H 286.071 -1.27048 6.84713 0
M  V30 3081 H 283.698 -1.06429 7.52713 0
M  V30 3082 N 285.273 -1.31445 -0.869486 0
M  V30 3083 C 286.521 -1.20918 -1.61936 0
M  V30 3084 C 286.842 0.232683 -1.93607 0
M  V30 3085 O 286.112 1.15352 -1.58338 0
M  V30 3086 H 284.692 -0.44454 -0.600328 0
M  V30 3087 H 287.354 -1.64776 -1.0409 0
M  V30 3088 H 286.45 -1.78124 -2.56278 0
M  V30 3089 N 286.751 1.08385 -1.14413 0
M  V30 3090 C 287.981 1.8425 -0.934644 0
M  V30 3091 C 288.389 1.81907 0.520234 0
M  V30 3092 O 287.732 1.22126 1.37226 0
M  V30 3093 C 287.794 3.32853 -1.35828 0
M  V30 3094 C 287.458 3.5893 -2.82875 0
M  V30 3095 C 288.455 3.53756 -3.80989 0
M  V30 3096 C 286.14 3.86934 -3.20293 0
M  V30 3097 C 288.134 3.76216 -5.14529 0
M  V30 3098 C 285.821 4.09047 -4.54008 0
M  V30 3099 C 286.819 4.03682 -5.50936 0
M  V30 3100 O 286.507 4.25214 -6.82238 0
M  V30 3101 H 286.239 0.588502 -0.332628 0
M  V30 3102 H 288.793 1.37792 -1.52324 0
M  V30 3103 H 287.023 3.8007 -0.713019 0
M  V30 3104 H 288.712 3.90154 -1.11957 0
M  V30 3105 H 289.478 3.32135 -3.53428 0
M  V30 3106 H 285.357 3.9023 -2.45442 0
M  V30 3107 H 288.901 3.71943 -5.90173 0
M  V30 3108 H 284.798 4.30151 -4.8129 0
M  V30 3109 H 285.566 4.42619 -6.88499 0
M  V30 3110 N 288.23 0.939286 1.26551 0
M  V30 3111 C 289.458 0.602536 1.97932 0
M  V30 3112 C 289.873 -0.82206 1.69964 0
M  V30 3113 O 289.23 -1.54789 0.966784 0
M  V30 3114 C 289.281 0.832946 3.51773 0
M  V30 3115 O 289.002 2.20151 3.78768 0
M  V30 3116 C 290.503 0.506483 4.40397 0
M  V30 3117 H 287.723 0.227248 0.631347 0
M  V30 3118 H 290.267 1.25948 1.61113 0
M  V30 3119 H 288.422 0.222644 3.8676 0
M  V30 3120 H 288.836 2.26013 4.73306 0
M  V30 3121 H 290.31 0.718333 5.47306 0
M  V30 3122 H 290.787 -0.558451 4.35635 0
M  V30 3123 H 291.393 1.09543 4.10951 0
M  V30 3124 N 289.708 -1.40897 0.706093 0
M  V30 3125 C 290.641 -2.282 -0.00328781 0
M  V30 3126 C 291.619 -1.42816 -0.77732 0
M  V30 3127 O 292.803 -1.72237 -0.765944 0
M  V30 3128 C 289.93 -3.23226 -1.01205 0
M  V30 3129 C 288.976 -4.25222 -0.329955 0
M  V30 3130 S 289.809 -5.27269 0.935298 0
M  V30 3131 C 290.965 -6.25859 -0.0716061 0
M  V30 3132 H 291.198 -2.88016 0.737143 0
M  V30 3133 H 288.731 -1.46191 0.496756 0
M  V30 3134 H 290.689 -3.78503 -1.58888 0
M  V30 3135 H 289.35 -2.62485 -1.72513 0
M  V30 3136 H 288.543 -4.92023 -1.09221 0
M  V30 3137 H 288.145 -3.73595 0.174069 0
M  V30 3138 H 290.437 -6.71204 -0.921521 0
M  V30 3139 H 291.38 -7.0586 0.562765 0
M  V30 3140 H 291.788 -5.62852 -0.431088 0
M  V30 3141 N 291.186 -0.45159 -1.50991 0
M  V30 3142 C 292.134 0.366864 -2.29689 0
M  V30 3143 C 293.128 1.00809 -1.36139 0
M  V30 3144 O 294.334 0.941427 -1.53418 0
M  V30 3145 H 290.709 0.137133 -0.739391 0
M  V30 3146 H 292.68 -0.317538 -2.96706 0
M  V30 3147 C 291.429 1.44751 -3.16137 0
M  V30 3148 H 290.752 0.963473 -3.88017 0
M  V30 3149 H 292.192 1.99315 -3.74232 0
M  V30 3150 C 290.651 2.43869 -2.32442 0
M  V30 3151 O 291.181 3.4872 -1.99392 0
M  V30 3152 N 289.387 2.15105 -1.95392 0
M  V30 3153 H 288.934 1.29866 -2.22469 0
M  V30 3154 H 288.892 2.81661 -1.39693 0
M  V30 3155 N 292.664 1.56529 -0.183458 0
M  V30 3156 C 293.941 1.88959 0.50536 0
M  V30 3157 C 294.321 1.09523 1.80466 0
M  V30 3158 O 293.669 0.19278 2.27685 0
M  V30 3159 C 293.879 3.41162 0.73547 0
M  V30 3160 C 295.227 4.11155 1.06005 0
M  V30 3161 O 296.251 3.46548 0.823594 0
M  V30 3162 O 295.11 5.25318 1.50675 0
M  V30 3163 H 292.204 0.78441 0.261973 0
M  V30 3164 H 294.75 1.68231 -0.222802 0
M  V30 3165 H 293.522 3.90874 -0.182561 0
M  V30 3166 H 293.145 3.67543 1.51651 0
M  V30 3167 N 294.142 -0.090211 1.57342 0
M  V30 3168 C 295.072 -1.10976 2.05443 0
M  V30 3169 C 296.053 -1.41482 0.944284 0
M  V30 3170 O 297.238 -1.51428 1.21586 0
M  V30 3171 C 294.368 -2.42831 2.48295 0
M  V30 3172 C 293.322 -2.26721 3.63018 0
M  V30 3173 C 292.648 -3.63796 3.91863 0
M  V30 3174 C 293.948 -1.7037 4.93732 0
M  V30 3175 H 295.642 -0.709564 2.9087 0
M  V30 3176 H 293.188 -0.339874 1.39932 0
M  V30 3177 H 295.141 -3.14431 2.80555 0
M  V30 3178 H 293.865 -2.84795 1.59873 0
M  V30 3179 H 292.524 -1.57565 3.31012 0
M  V30 3180 H 292.172 -4.03297 3.00601 0
M  V30 3181 H 291.872 -3.53861 4.69101 0
M  V30 3182 H 293.396 -4.36855 4.26603 0
M  V30 3183 H 294.81 -2.31816 5.24342 0
M  V30 3184 H 293.207 -1.71181 5.75167 0
M  V30 3185 H 294.277 -0.663542 4.80339 0
M  V30 3186 N 295.62 -1.53406 -0.361157 0
M  V30 3187 C 296.869 -1.69022 -1.10066 0
M  V30 3188 C 297.182 -0.450838 -1.90333 0
M  V30 3189 O 298.388 -0.487617 -2.67085 0
M  V30 3190 C 296.844 -2.98812 -2.00598 0
M  V30 3191 C 296.452 -4.30027 -1.25621 0
M  V30 3192 C 298.196 -3.23795 -2.74513 0
M  V30 3193 C 296.103 -5.50903 -2.1508 0
M  V30 3194 H 295.033 -0.629776 -0.414606 0
M  V30 3195 H 297.684 -1.79907 -0.361348 0
M  V30 3196 H 296.066 -2.8174 -2.78278 0
M  V30 3197 H 297.24 -4.57745 -0.529739 0
M  V30 3198 H 295.555 -4.11522 -0.635496 0
M  V30 3199 H 298.152 -4.11289 -3.41681 0
M  V30 3200 H 298.495 -2.40045 -3.40123 0
M  V30 3201 H 299.028 -3.41561 -2.03914 0
M  V30 3202 H 295.767 -6.37143 -1.54041 0
M  V30 3203 H 295.287 -5.27459 -2.85565 0
M  V30 3204 H 296.966 -5.85865 -2.74538 0
M  V30 3205 N 297.098 0.621204 -1.44841 0
M  V30 3206 C 298.345 1.38055 -1.48145 0
M  V30 3207 C 298.673 1.94143 -0.117867 0
M  V30 3208 O 297.928 1.74713 0.881694 0
M  V30 3209 C 298.227 2.55675 -2.4973 0
M  V30 3210 C 297.893 2.17817 -3.94799 0
M  V30 3211 C 296.555 2.07205 -4.34303 0
M  V30 3212 C 298.907 1.88065 -4.86087 0
M  V30 3213 C 296.235 1.65045 -5.63007 0
M  V30 3214 C 298.587 1.47394 -6.15189 0
M  V30 3215 C 297.251 1.35331 -6.53637 0
M  V30 3216 H 296.521 0.505181 -0.542101 0
M  V30 3217 H 299.168 0.703477 -1.78111 0
M  V30 3218 H 297.473 3.2866 -2.13284 0
M  V30 3219 H 299.17 3.13904 -2.4953 0
M  V30 3220 H 295.76 2.26998 -3.63552 0
M  V30 3221 H 299.944 1.95168 -4.56315 0
M  V30 3222 H 295.2 1.54317 -5.91605 0
M  V30 3223 H 299.374 1.23415 -6.85377 0
M  V30 3224 H 297.001 1.02435 -7.53267 0
M  V30 3225 N 298.576 1.31904 0.862503 0
M  V30 3226 C 299.486 1.22161 2.00285 0
M  V30 3227 C 300.502 0.136785 1.73462 0
M  V30 3228 O 301.678 0.355994 1.98229 0
M  V30 3229 C 298.743 0.937093 3.33796 0
M  V30 3230 C 297.804 2.10957 3.73893 0
M  V30 3231 C 297.037 1.83853 5.01033 0
M  V30 3232 O 297.26 0.777274 5.65079 0
M  V30 3233 O 296.194 2.69741 5.38074 0
M  V30 3234 H 300.02 2.18008 2.11439 0
M  V30 3235 H 297.605 1.11716 0.991957 0
M  V30 3236 H 299.487 0.794583 4.13841 0
M  V30 3237 H 298.162 0.00871894 3.23699 0
M  V30 3238 H 297.069 2.30752 2.94456 0
M  V30 3239 H 298.402 3.02046 3.88625 0
M  V30 3240 N 300.054 -1.07777 1.14986 0
M  V30 3241 C 301.3 -1.80719 0.93339 0
M  V30 3242 C 301.655 -1.8484 -0.534019 0
M  V30 3243 O 300.948 -1.31795 -1.3907 0
M  V30 3244 C 301.142 -3.25495 1.47608 0
M  V30 3245 C 300.971 -3.3548 2.99472 0
M  V30 3246 C 299.741 -3.46293 3.6798 0
M  V30 3247 C 301.939 -3.26596 3.97291 0
M  V30 3248 N 299.921 -3.45136 5.07695 0
M  V30 3249 C 301.292 -3.32506 5.23297 0
M  V30 3250 C 303.347 -3.10376 3.89321 0
M  V30 3251 C 302.05 -3.23866 6.42264 0
M  V30 3252 C 304.076 -3.03069 5.07842 0
M  V30 3253 C 303.438 -3.09587 6.32721 0
M  V30 3254 H 299.537 -0.674814 0.395158 0
M  V30 3255 H 302.121 -1.28681 1.46114 0
M  V30 3256 H 300.292 -3.75963 0.975022 0
M  V30 3257 H 302.024 -3.86535 1.19887 0
M  V30 3258 H 298.779 -3.50456 3.18555 0
M  V30 3259 H 299.203 -3.48097 5.80653 0
M  V30 3260 H 303.845 -3.04194 2.93642 0
M  V30 3261 H 301.563 -3.28807 7.38181 0
M  V30 3262 H 305.149 -2.91629 5.03432 0
M  V30 3263 H 304.029 -3.0397 7.22891 0
M  V30 3264 N 301.532 -0.945985 -1.26051 0
M  V30 3265 C 302.462 -0.477172 -2.28572 0
M  V30 3266 C 303.443 0.472032 -1.63419 0
M  V30 3267 O 304.628 0.372853 -1.90587 0
M  V30 3268 C 301.758 0.253975 -3.4637 0
M  V30 3269 C 300.712 -0.609135 -4.23643 0
M  V30 3270 C 300.038 0.252252 -5.34105 0
M  V30 3271 C 301.338 -1.8829 -4.8718 0
M  V30 3272 H 303.032 -1.33402 -2.68038 0
M  V30 3273 H 300.578 -0.642904 -1.28852 0
M  V30 3274 H 302.531 0.593016 -4.17207 0
M  V30 3275 H 301.255 1.145 -3.05871 0
M  V30 3276 H 299.914 -0.931138 -3.54578 0
M  V30 3277 H 299.562 1.14278 -4.89846 0
M  V30 3278 H 299.262 -0.32188 -5.86718 0
M  V30 3279 H 300.786 0.586454 -6.07777 0
M  V30 3280 H 302.2 -1.61081 -5.50205 0
M  V30 3281 H 300.597 -2.40199 -5.49931 0
M  V30 3282 H 301.667 -2.59134 -4.09851 0
M  V30 3283 N 303.011 1.40521 -0.713556 0
M  V30 3284 C 304.236 2.05759 -0.26035 0
M  V30 3285 C 304.661 1.53403 1.08854 0
M  V30 3286 O 304.019 0.668535 1.68524 0
M  V30 3287 C 304.067 3.59745 -0.248122 0
M  V30 3288 O 303.171 4.05123 0.77131 0
M  V30 3289 H 302.512 0.652564 -0.122703 0
M  V30 3290 H 305.042 1.79958 -0.973467 0
M  V30 3291 H 305.052 4.07911 -0.0851129 0
M  V30 3292 H 303.727 3.97218 -1.2325 0
M  V30 3293 H 302.304 3.68422 0.57619 0
M  V30 3294 N 304.489 0.459591 1.5075 0
M  V30 3295 C 305.766 -0.160371 1.94941 0
M  V30 3296 C 306.146 -1.58048 1.39943 0
M  V30 3297 O 305.494 -2.206 0.595629 0
M  V30 3298 C 305.704 -0.115432 3.48809 0
M  V30 3299 C 307.052 -0.310026 4.23467 0
M  V30 3300 O 308.076 -0.192543 3.55679 0
M  V30 3301 O 306.935 -0.546031 5.43765 0
M  V30 3302 H 304.029 -0.117925 0.818549 0
M  V30 3303 H 306.575 0.519169 1.61563 0
M  V30 3304 H 305.347 0.87652 3.81357 0
M  V30 3305 H 304.97 -0.836928 3.88692 0
M  V30 3306 N 305.967 -1.56429 0.191757 0
M  V30 3307 C 307.215 -1.97095 -0.447006 0
M  V30 3308 C 307.536 -1.07967 -1.62383 0
M  V30 3309 O 306.806 -0.150248 -1.95323 0
M  V30 3310 H 305.386 -0.727832 -0.168135 0
M  V30 3311 H 308.048 -1.92911 0.27771 0
M  V30 3312 H 307.144 -3.01848 -0.793371 0
M  V30 3313 N 307.445 0.0818655 -1.57387 0
M  V30 3314 C 308.856 0.634871 -1.75574 0
M  V30 3315 C 309.207 1.78435 -0.815809 0
M  V30 3316 O 308.332 2.164 0.0025366 0
M  V30 3317 C 308.927 1.15845 -3.18379 0
M  V30 3318 C 307.486 1.65741 -3.37945 0
M  V30 3319 C 306.633 0.572549 -2.71325 0
M  V30 3320 H 309.584 -0.144268 -1.58043 0
M  V30 3321 H 309.605 2.02751 -3.21982 0
M  V30 3322 H 309.117 0.321631 -3.86765 0
M  V30 3323 H 307.218 2.51781 -2.74658 0
M  V30 3324 H 307.331 1.74129 -4.46336 0
M  V30 3325 H 305.695 1.01518 -2.33594 0
M  V30 3326 H 306.478 -0.253918 -3.4236 0
M  V30 3327 N 308.923 1.53595 0.353017 0
M  V30 3328 C 310.169 1.70638 1.09593 0
M  V30 3329 C 310.502 0.463286 1.88593 0
M  V30 3330 O 309.777 -0.539597 1.86865 0
M  V30 3331 C 310.06 2.96406 2.04489 0
M  V30 3332 C 309.913 4.30901 1.29014 0
M  V30 3333 C 311.232 3.17812 3.0444 0
M  V30 3334 H 308.351 0.620913 0.397034 0
M  V30 3335 H 310.993 1.86254 0.375446 0
M  V30 3336 H 309.143 2.83223 2.65927 0
M  V30 3337 H 310.815 4.55917 0.702638 0
M  V30 3338 H 309.058 4.29741 0.592071 0
M  V30 3339 H 309.729 5.1506 1.98537 0
M  V30 3340 H 312.205 3.30263 2.53112 0
M  V30 3341 H 311.081 4.07223 3.6805 0
M  V30 3342 H 311.342 2.33669 3.75301 0
M  V30 3343 N 310.401 -0.613514 1.45168 0
M  V30 3344 C 311.333 -1.73825 1.4939 0
M  V30 3345 C 312.346 -1.58175 0.385304 0
M  V30 3346 O 313.535 -1.66165 0.652036 0
M  V30 3347 C 310.635 -3.11758 1.32891 0
M  V30 3348 C 309.808 -3.53704 2.57317 0
M  V30 3349 C 308.867 -4.70579 2.35462 0
M  V30 3350 O 307.893 -4.77996 3.09044 0
M  V30 3351 N 309.095 -5.63454 1.39644 0
M  V30 3352 H 311.86 -1.70669 2.46358 0
M  V30 3353 H 309.421 -0.79862 1.40832 0
M  V30 3354 H 311.413 -3.87692 1.1609 0
M  V30 3355 H 309.983 -3.09456 0.442218 0
M  V30 3356 H 309.203 -2.67794 2.89275 0
M  V30 3357 H 310.491 -3.78486 3.40038 0
M  V30 3358 H 309.889 -5.6017 0.789062 0
M  V30 3359 H 308.446 -6.38944 1.28816 0
M  V30 3360 N 311.879 -1.3236 -0.855495 0
M  V30 3361 C 313.125 -1.23054 -1.612 0
M  V30 3362 C 313.458 0.207404 -1.93089 0
M  V30 3363 O 312.733 1.14432 -1.57275 0
M  V30 3364 C 313.016 -2.08937 -2.93287 0
M  V30 3365 C 312.869 -3.61105 -2.68185 0
M  V30 3366 C 314.188 -1.94986 -3.94549 0
M  V30 3367 H 311.307 -0.448364 -0.584926 0
M  V30 3368 H 313.949 -1.62297 -0.987917 0
M  V30 3369 H 312.099 -1.75599 -3.46551 0
M  V30 3370 H 313.771 -4.04652 -2.21483 0
M  V30 3371 H 312.014 -3.83813 -2.02164 0
M  V30 3372 H 312.685 -4.16522 -3.62234 0
M  V30 3373 H 315.161 -2.24189 -3.5054 0
M  V30 3374 H 314.037 -2.57356 -4.84829 0
M  V30 3375 H 314.298 -0.917263 -4.3248 0
M  V30 3376 N 313.357 1.07166 -1.15556 0
M  V30 3377 C 314.32 2.12589 -0.856644 0
M  V30 3378 C 315.32 1.6015 0.14444 0
M  V30 3379 O 316.51 1.7399 -0.0854163 0
M  V30 3380 C 313.642 3.39753 -0.279405 0
M  V30 3381 H 314.835 2.40539 -1.79112 0
M  V30 3382 H 312.388 1.23086 -0.963298 0
M  V30 3383 H 313.123 3.17447 0.663174 0
M  V30 3384 H 312.908 3.79117 -1.00063 0
M  V30 3385 H 314.398 4.17507 -0.0879113 0
M  V30 3386 N 314.835 0.952656 1.25548 0
M  V30 3387 C 315.745 0.47782 2.29682 0
M  V30 3388 C 316.761 -0.453859 1.67977 0
M  V30 3389 O 317.937 -0.330587 1.98668 0
M  V30 3390 C 315.002 -0.238655 3.45878 0
M  V30 3391 C 314.063 0.730994 4.23031 0
M  V30 3392 C 313.296 0.0486165 5.33678 0
M  V30 3393 O 313.519 -1.16612 5.58353 0
M  V30 3394 O 312.453 0.733152 5.97418 0
M  V30 3395 H 316.279 1.34312 2.72386 0
M  V30 3396 H 313.864 0.719026 1.30959 0
M  V30 3397 H 315.746 -0.641774 4.16484 0
M  V30 3398 H 314.421 -1.07916 3.05181 0
M  V30 3399 H 313.328 1.18428 3.5486 0
M  V30 3400 H 314.661 1.53946 4.67506 0
M  V30 3401 N 316.313 -1.40141 0.720998 0
M  V30 3402 C 317.561 -2.0039 0.262323 0
M  V30 3403 C 317.882 -1.57469 -1.15015 0
M  V30 3404 O 317.152 -0.816582 -1.78069 0
M  V30 3405 H 315.732 -0.741063 0.093996 0
M  V30 3406 H 318.394 -1.71398 0.927835 0
M  V30 3407 H 317.49 -3.10658 0.299671 0
M  V30 3408 N 317.792 -0.46758 -1.50504 0
M  V30 3409 C 318.722 0.318381 -2.31319 0
M  V30 3410 C 319.703 0.993564 -1.38066 0
M  V30 3411 O 320.888 0.991411 -1.66987 0
M  V30 3412 C 318.018 1.40275 -3.17711 0
M  V30 3413 C 316.972 0.849373 -4.19487 0
M  V30 3414 C 316.298 2.03177 -4.94594 0
M  V30 3415 C 317.598 -0.136942 -5.2212 0
M  V30 3416 H 319.292 -0.356106 -2.97275 0
M  V30 3417 H 316.838 -0.172703 -1.42961 0
M  V30 3418 H 318.791 1.96004 -3.73042 0
M  V30 3419 H 317.515 2.10596 -2.49634 0
M  V30 3420 H 316.174 0.314076 -3.65252 0
M  V30 3421 H 315.822 2.72187 -4.22993 0
M  V30 3422 H 315.522 1.66774 -5.63436 0
M  V30 3423 H 317.046 2.59403 -5.52759 0
M  V30 3424 H 318.46 0.331056 -5.72343 0
M  V30 3425 H 316.857 -0.41507 -5.98663 0
M  V30 3426 H 317.927 -1.06398 -4.73083 0
M  V30 3427 N 319.27 1.56325 -0.20005 0
M  V30 3428 C 320.498 2.02105 0.442874 0
M  V30 3429 C 320.913 1.08014 1.5485 0
M  V30 3430 O 320.27 0.0858797 1.82298 0
M  V30 3431 C 320.321 3.47549 0.994583 0
M  V30 3432 O 320.042 4.38049 -0.0669322 0
M  V30 3433 C 321.543 4.0887 1.7129 0
M  V30 3434 H 318.763 0.661807 0.110691 0
M  V30 3435 H 321.307 2.02134 -0.310207 0
M  V30 3436 H 319.462 3.48204 1.69803 0
M  V30 3437 H 319.876 5.23368 0.344462 0
M  V30 3438 H 321.35 5.12475 2.05118 0
M  V30 3439 H 321.827 3.52615 2.61838 0
M  V30 3440 H 322.433 4.12002 1.05518 0
M  V30 3441 N 320.748 -0.0735177 1.57428 0
M  V30 3442 C 321.678 -1.0879 2.06608 0
M  V30 3443 C 322.659 -1.40473 0.959237 0
M  V30 3444 O 323.844 -1.5013 1.23185 0
M  V30 3445 C 320.974 -2.40183 2.50857 0
M  V30 3446 C 319.928 -2.22858 3.65402 0
M  V30 3447 C 319.254 -3.59619 3.957 0
M  V30 3448 C 320.554 -1.65123 4.95511 0
M  V30 3449 H 322.248 -0.678673 2.91607 0
M  V30 3450 H 319.794 -0.325013 1.40284 0
M  V30 3451 H 321.747 -3.11437 2.83874 0
M  V30 3452 H 320.471 -2.83083 1.62885 0
M  V30 3453 H 319.13 -1.54045 3.32664 0
M  V30 3454 H 318.778 -4.00086 3.04861 0
M  V30 3455 H 318.478 -3.48866 4.72828 0
M  V30 3456 H 320.002 -4.32306 4.31212 0
M  V30 3457 H 321.416 -2.26241 5.26771 0
M  V30 3458 H 319.813 -1.65071 5.7695 0
M  V30 3459 H 320.883 -0.612559 4.81015 0
M  V30 3460 N 322.226 -1.5378 -0.344866 0
M  V30 3461 C 323.637 -1.62428 -0.920552 0
M  V30 3462 C 323.988 -0.504747 -1.89596 0
M  V30 3463 O 323.113 0.365711 -2.13287 0
M  V30 3464 C 323.708 -2.94419 -1.67639 0
M  V30 3465 C 322.267 -3.05333 -2.20111 0
M  V30 3466 C 321.414 -2.57866 -1.01982 0
M  V30 3467 H 324.365 -1.58222 -0.123042 0
M  V30 3468 H 324.386 -2.83384 -2.53917 0
M  V30 3469 H 323.898 -3.7588 -0.966224 0
M  V30 3470 H 321.999 -2.28502 -2.94308 0
M  V30 3471 H 322.112 -4.10778 -2.46573 0
M  V30 3472 H 320.476 -2.13241 -1.39285 0
M  V30 3473 H 321.259 -3.41765 -0.324308 0
M  V30 3474 N 323.704 0.605807 -1.45491 0
M  V30 3475 C 324.636 1.73031 -1.5031 0
M  V30 3476 C 325.649 1.57968 -0.393687 0
M  V30 3477 O 326.838 1.65817 -0.660839 0
M  V30 3478 C 323.938 3.11049 -1.34543 0
M  V30 3479 C 323.111 3.52334 -2.59189 0
M  V30 3480 C 322.17 4.69323 -2.37954 0
M  V30 3481 O 321.196 4.7635 -3.11575 0
M  V30 3482 N 322.398 5.62705 -1.4263 0
M  V30 3483 H 325.163 1.6936 -2.4726 0
M  V30 3484 H 322.724 0.79114 -1.41254 0
M  V30 3485 H 324.716 3.87071 -1.18144 0
M  V30 3486 H 323.286 3.09217 -0.458623 0
M  V30 3487 H 322.506 2.66256 -2.90691 0
M  V30 3488 H 323.794 3.76677 -3.42041 0
M  V30 3489 H 323.192 5.59744 -0.818758 0
M  V30 3490 H 321.749 6.38252 -1.32202 0
M  V30 3491 N 325.182 1.32811 0.848464 0
M  V30 3492 C 326.429 1.23724 1.60308 0
M  V30 3493 C 326.757 -0.1994 1.93475 0
M  V30 3494 O 326.012 -1.15406 1.5805 0
M  V30 3495 C 326.311 2.04831 2.92881 0
M  V30 3496 C 325.977 3.54125 2.79117 0
M  V30 3497 C 324.639 3.94829 2.7507 0
M  V30 3498 C 326.991 4.49036 2.64606 0
M  V30 3499 C 324.319 5.28675 2.544 0
M  V30 3500 C 326.671 5.83033 2.4547 0
M  V30 3501 C 325.335 6.22931 2.39819 0
M  V30 3502 H 324.605 0.452737 0.586609 0
M  V30 3503 H 327.252 1.64301 0.983743 0
M  V30 3504 H 325.557 1.57001 3.58968 0
M  V30 3505 H 327.254 1.95164 3.50303 0
M  V30 3506 H 323.844 3.21801 2.83094 0
M  V30 3507 H 328.028 4.18505 2.66772 0
M  V30 3508 H 323.284 5.58637 2.48465 0
M  V30 3509 H 327.458 6.56186 2.33222 0
M  V30 3510 H 325.085 7.26584 2.23562 0
M  V30 3511 N 326.66 -1.06551 1.16123 0
M  V30 3512 C 327.909 -1.78687 0.935622 0
M  V30 3513 C 328.222 -1.88056 -0.538001 0
M  V30 3514 O 329.428 -2.56794 -0.88143 0
M  V30 3515 C 327.884 -3.21143 1.62466 0
M  V30 3516 C 327.492 -3.19949 3.13587 0
M  V30 3517 C 329.236 -3.9783 1.48092 0
M  V30 3518 C 327.143 -4.57108 3.75241 0
M  V30 3519 H 326.073 -0.669712 0.346412 0
M  V30 3520 H 328.724 -1.19534 1.39226 0
M  V30 3521 H 327.106 -3.80539 1.09572 0
M  V30 3522 H 328.28 -2.70151 3.73303 0
M  V30 3523 H 326.595 -2.5676 3.27816 0
M  V30 3524 H 329.192 -4.99217 1.91538 0
M  V30 3525 H 329.535 -4.14078 0.429507 0
M  V30 3526 H 330.068 -3.4495 1.98127 0
M  V30 3527 H 326.807 -4.46065 4.80319 0
M  V30 3528 H 326.327 -5.07111 3.20309 0
M  V30 3529 H 328.006 -5.26069 3.76644 0
M  V30 3530 N 328.138 -0.959301 -1.25041 0
M  V30 3531 C 329.068 -0.501388 -2.28053 0
M  V30 3532 C 330.049 0.454673 -1.63911 0
M  V30 3533 O 331.234 0.352618 -1.90972 0
M  V30 3534 C 328.364 0.217224 -3.4662 0
M  V30 3535 C 327.318 -0.654034 -4.22973 0
M  V30 3536 C 326.644 0.195589 -5.34342 0
M  V30 3537 C 327.944 -1.93447 -4.85155 0
M  V30 3538 H 329.638 -1.36238 -2.66608 0
M  V30 3539 H 327.184 -0.656534 -1.28163 0
M  V30 3540 H 329.137 0.548732 -4.17812 0
M  V30 3541 H 327.861 1.1125 -3.07068 0
M  V30 3542 H 326.52 -0.968693 -3.5357 0
M  V30 3543 H 326.168 1.09076 -4.91031 0
M  V30 3544 H 325.868 -0.384091 -5.86343 0
M  V30 3545 H 327.392 0.521958 -6.08365 0
M  V30 3546 H 328.806 -1.66908 -5.48466 0
M  V30 3547 H 327.203 -2.46018 -5.47353 0
M  V30 3548 H 328.273 -2.63466 -4.07079 0
M  V30 3549 N 329.616 1.39756 -0.72842 0
M  V30 3550 C 330.563 2.30647 -0.0841519 0
M  V30 3551 C 331.533 1.48869 0.7367 0
M  V30 3552 O 332.718 1.77574 0.698015 0
M  V30 3553 C 329.858 3.35165 0.822091 0
M  V30 3554 C 328.971 4.31999 -0.0106663 0
M  V30 3555 C 328.106 5.23585 0.896241 0
M  V30 3556 C 327.145 6.12072 0.0583381 0
M  V30 3557 N 326.282 6.96035 0.920818 0
M  V30 3558 H 331.122 2.85173 -0.864891 0
M  V30 3559 H 328.659 1.40422 -0.438179 0
M  V30 3560 H 330.617 3.94345 1.36189 0
M  V30 3561 H 329.247 2.8211 1.56888 0
M  V30 3562 H 328.299 3.74492 -0.66781 0
M  V30 3563 H 329.611 4.9443 -0.658825 0
M  V30 3564 H 328.765 5.87759 1.50412 0
M  V30 3565 H 327.504 4.61459 1.57819 0
M  V30 3566 H 326.509 5.46916 -0.562389 0
M  V30 3567 H 327.734 6.76261 -0.6203 0
M  V30 3568 H 325.68 6.36485 1.58818 0
M  V30 3569 H 325.597 7.55284 0.32899 0
M  V30 3570 H 326.865 7.64646 1.51447 0
M  V30 3571 N 331.094 0.475555 1.50254 0
M  V30 3572 C 332.004 -0.321501 2.32387 0
M  V30 3573 C 333.02 -0.991755 1.42969 0
M  V30 3574 O 334.196 -0.978747 1.76018 0
M  V30 3575 C 331.261 -1.38667 3.17762 0
M  V30 3576 C 330.322 -0.732538 4.23004 0
M  V30 3577 C 329.555 -1.74695 5.04299 0
M  V30 3578 O 329.778 -2.97399 4.86734 0
M  V30 3579 O 328.712 -1.31631 5.8733 0
M  V30 3580 H 332.538 0.350071 3.01676 0
M  V30 3581 H 330.123 0.237321 1.47503 0
M  V30 3582 H 332.005 -2.00354 3.70724 0
M  V30 3583 H 330.68 -2.04163 2.51196 0
M  V30 3584 H 329.587 -0.0765902 3.74022 0
M  V30 3585 H 330.92 -0.120452 4.92053 0
M  V30 3586 N 332.573 -1.56217 0.208337 0
M  V30 3587 C 333.483 -2.23316 -0.718836 0
M  V30 3588 C 334.499 -1.23648 -1.22422 0
M  V30 3589 O 335.675 -1.56423 -1.26861 0
M  V30 3590 C 332.74 -2.88968 -1.91568 0
M  V30 3591 C 331.801 -4.03943 -1.45357 0
M  V30 3592 C 331.034 -4.66455 -2.59337 0
M  V30 3593 O 331.257 -4.27919 -3.77149 0
M  V30 3594 O 330.191 -5.55686 -2.31293 0
M  V30 3595 H 334.017 -3.03182 -0.177315 0
M  V30 3596 H 331.602 -1.49384 -0.0215402 0
M  V30 3597 H 333.484 -3.30455 -2.61491 0
M  V30 3598 H 332.159 -2.12071 -2.44556 0
M  V30 3599 H 331.066 -3.67052 -0.722746 0
M  V30 3600 H 332.399 -4.82543 -0.970219 0
M  V30 3601 N 334.051 0.0651679 -1.57465 0
M  V30 3602 C 334.998 1.07675 -2.04144 0
M  V30 3603 C 335.968 1.38071 -0.923335 0
M  V30 3604 O 337.153 1.49026 -1.19146 0
M  V30 3605 C 334.293 2.38337 -2.49579 0
M  V30 3606 C 333.406 2.14413 -3.75035 0
M  V30 3607 C 332.541 3.38686 -4.09225 0
M  V30 3608 C 331.58 3.10156 -5.27702 0
M  V30 3609 N 330.717 4.26778 -5.57499 0
M  V30 3610 H 335.557 0.671716 -2.90331 0
M  V30 3611 H 333.094 0.3201 -1.43575 0
M  V30 3612 H 335.052 3.14632 -2.73975 0
M  V30 3613 H 333.682 2.7663 -1.6636 0
M  V30 3614 H 332.734 1.2878 -3.57939 0
M  V30 3615 H 334.046 1.89344 -4.61466 0
M  V30 3616 H 333.2 4.23373 -4.34558 0
M  V30 3617 H 331.939 3.66837 -3.21374 0
M  V30 3618 H 330.944 2.23866 -5.02159 0
M  V30 3619 H 332.169 2.8332 -6.17176 0
M  V30 3620 H 330.115 4.54948 -4.72608 0
M  V30 3621 H 330.032 4.05005 -6.38362 0
M  V30 3622 H 331.3 5.12443 -5.87386 0
M  V30 3623 N 335.529 1.53961 0.336706 0
M  V30 3624 C 336.439 1.85432 1.43708 0
M  V30 3625 C 337.455 0.745053 1.57242 0
M  V30 3626 O 338.631 1.03804 1.72588 0
M  V30 3627 C 335.696 2.06349 2.78605 0
M  V30 3628 C 334.757 3.30191 2.74358 0
M  V30 3629 C 333.99 3.50101 4.02822 0
M  V30 3630 O 334.213 2.7371 5.00439 0
M  V30 3631 O 333.147 4.43547 4.06878 0
M  V30 3632 H 336.973 2.78975 1.20028 0
M  V30 3633 H 334.558 1.39701 0.52952 0
M  V30 3634 H 336.44 2.21513 3.58483 0
M  V30 3635 H 335.115 1.15995 3.02203 0
M  V30 3636 H 334.022 3.20425 1.93078 0
M  V30 3637 H 335.355 4.2056 2.55715 0
M  V30 3638 N 337.007 -0.598083 1.45811 0
M  V30 3639 C 337.937 -1.71873 1.58057 0
M  V30 3640 C 338.918 -1.64533 0.431615 0
M  V30 3641 O 340.103 -1.82787 0.65595 0
M  V30 3642 C 337.233 -3.10495 1.55597 0
M  V30 3643 C 336.187 -3.32654 2.69305 0
M  V30 3644 C 335.513 -4.71646 2.51902 0
M  V30 3645 C 336.813 -3.21981 4.11248 0
M  V30 3646 H 338.507 -1.61881 2.51863 0
M  V30 3647 H 336.053 -0.777372 1.21214 0
M  V30 3648 H 338.006 -3.88699 1.6276 0
M  V30 3649 H 336.73 -3.2135 0.583255 0
M  V30 3650 H 335.389 -2.56843 2.61586 0
M  V30 3651 H 335.037 -4.79246 1.52748 0
M  V30 3652 H 334.737 -4.87426 3.2816 0
M  V30 3653 H 336.261 -5.52038 2.60933 0
M  V30 3654 H 337.675 -3.90049 4.20161 0
M  V30 3655 H 336.072 -3.49289 4.87972 0
M  V30 3656 H 337.142 -2.1928 4.32486 0
M  V30 3657 N 338.485 -1.33259 -0.841409 0
M  V30 3658 C 339.733 -1.24326 -1.59334 0
M  V30 3659 C 340.054 0.191564 -1.94057 0
M  V30 3660 O 339.324 1.11967 -1.60749 0
M  V30 3661 H 337.904 -0.457174 -0.590763 0
M  V30 3662 H 340.566 -1.66947 -1.00571 0
M  V30 3663 H 339.662 -1.8352 -2.52442 0
M  V30 3664 N 339.963 1.05934 -1.16686 0
M  V30 3665 C 341.193 1.82226 -0.973515 0
M  V30 3666 C 341.601 1.8297 0.481532 0
M  V30 3667 O 340.944 1.25009 1.34604 0
M  V30 3668 C 341.006 3.29897 -1.42858 0
M  V30 3669 C 340.67 3.52849 -2.90425 0
M  V30 3670 C 341.667 3.45595 -3.88407 0
M  V30 3671 C 339.352 3.80053 -3.28428 0
M  V30 3672 C 341.346 3.65217 -5.22394 0
M  V30 3673 C 339.033 3.99325 -4.62583 0
M  V30 3674 C 340.031 3.91905 -5.59374 0
M  V30 3675 O 339.719 4.10647 -6.91104 0
M  V30 3676 H 339.451 0.581314 -0.345036 0
M  V30 3677 H 342.005 1.3453 -1.55212 0
M  V30 3678 H 340.235 3.78472 -0.793477 0
M  V30 3679 H 341.924 3.87692 -1.20207 0
M  V30 3680 H 342.69 3.24564 -3.60393 0
M  V30 3681 H 338.569 3.84936 -2.53664 0
M  V30 3682 H 342.113 3.59341 -5.9793 0
M  V30 3683 H 338.01 4.19846 -4.90306 0
M  V30 3684 H 338.778 4.27915 -6.97733 0
M  V30 3685 N 341.441 0.965919 1.2453 0
M  V30 3686 C 342.681 0.634656 1.94297 0
M  V30 3687 C 343.045 -0.814822 1.73852 0
M  V30 3688 O 344.246 -1.25622 2.3764 0
M  V30 3689 C 342.517 0.99702 3.43212 0
M  V30 3690 S 344.076 0.780038 4.31811 0
M  V30 3691 H 340.894 0.232893 0.671775 0
M  V30 3692 H 343.496 1.24249 1.50938 0
M  V30 3693 H 342.2 2.04886 3.55598 0
M  V30 3694 H 341.731 0.379888 3.91562 0
M  V30 3695 H 343.746 -0.343512 4.9501 0
M  V30 3696 N 342.919 -1.39368 0.735821 0
M  V30 3697 C 344.147 -2.04795 0.294393 0
M  V30 3698 C 344.562 -1.55478 -1.07107 0
M  V30 3699 O 343.919 -0.720038 -1.67695 0
M  V30 3700 C 343.97 -3.6035 0.288071 0
M  V30 3701 O 343.691 -4.07852 1.59963 0
M  V30 3702 C 345.192 -4.42976 -0.169422 0
M  V30 3703 H 342.412 -0.658571 0.128551 0
M  V30 3704 H 344.956 -1.78399 0.999701 0
M  V30 3705 H 343.111 -3.85645 -0.368355 0
M  V30 3706 H 343.525 -5.02181 1.51375 0
M  V30 3707 H 344.999 -5.51864 -0.122687 0
M  V30 3708 H 345.476 -4.22068 -1.21472 0
M  V30 3709 H 346.082 -4.22832 0.457469 0
M  V30 3710 N 344.397 -0.483516 -1.5 0
M  V30 3711 C 345.344 0.304164 -2.28787 0
M  V30 3712 C 346.314 0.976114 -1.34392 0
M  V30 3713 O 347.499 0.986156 -1.63339 0
M  V30 3714 C 344.639 1.37298 -3.16612 0
M  V30 3715 C 343.752 0.714561 -4.26049 0
M  V30 3716 C 342.887 1.76232 -5.01114 0
M  V30 3717 C 341.926 1.08483 -6.0241 0
M  V30 3718 N 341.063 2.076 -6.70706 0
M  V30 3719 H 345.903 -0.373981 -2.95644 0
M  V30 3720 H 343.44 -0.196275 -1.45785 0
M  V30 3721 H 345.398 2.00445 -3.65893 0
M  V30 3722 H 344.028 2.02012 -2.51776 0
M  V30 3723 H 343.08 -0.0297798 -3.80388 0
M  V30 3724 H 344.392 0.180383 -4.98474 0
M  V30 3725 H 343.546 2.46929 -5.54176 0
M  V30 3726 H 342.285 2.33033 -4.28424 0
M  V30 3727 H 341.29 0.363545 -5.48597 0
M  V30 3728 H 342.515 0.523551 -6.77079 0
M  V30 3729 H 340.461 2.63394 -6.00799 0
M  V30 3730 H 340.378 1.59201 -7.39047 0
M  V30 3731 H 341.646 2.77639 -7.2838 0
M  V30 3732 N 345.875 1.56104 -0.216619 0
M  V30 3733 C 346.825 2.16703 0.708798 0
M  V30 3734 C 347.809 1.11392 1.16106 0
M  V30 3735 O 349.001 1.37395 1.11587 0
M  V30 3736 C 346.13 2.84666 1.91886 0
M  V30 3737 C 345.216 3.97195 1.48651 0
M  V30 3738 N 345.607 4.99959 0.766434 0
M  V30 3739 C 343.905 4.09193 1.77418 0
M  V30 3740 C 344.606 5.79126 0.546659 0
M  V30 3741 N 343.582 5.32315 1.10188 0
M  V30 3742 H 347.384 2.93516 0.150162 0
M  V30 3743 H 344.898 1.6239 -0.0176768 0
M  V30 3744 H 346.895 3.26486 2.59253 0
M  V30 3745 H 345.555 2.09347 2.48202 0
M  V30 3746 H 346.566 5.16197 0.419634 0
M  V30 3747 H 343.243 3.45021 2.35088 0
M  V30 3748 H 344.633 6.71895 -0.026103 0
M  V30 3749 N 347.353 -0.0568162 1.57498 0
M  V30 3750 C 348.583 -0.764515 1.91934 0
M  V30 3751 C 348.991 -1.70877 0.81227 0
M  V30 3752 O 348.334 -1.82351 -0.222213 0
M  V30 3753 C 348.396 -1.5994 3.21962 0
M  V30 3754 C 348.06 -0.822925 4.4953 0
M  V30 3755 C 349.057 -0.135464 5.19723 0
M  V30 3756 C 346.742 -0.785666 4.96117 0
M  V30 3757 C 348.736 0.578861 6.34766 0
M  V30 3758 C 346.423 -0.0675784 6.11063 0
M  V30 3759 C 347.421 0.613471 6.80239 0
M  V30 3760 O 347.109 1.31996 7.92989 0
M  V30 3761 H 346.841 -0.221647 0.63863 0
M  V30 3762 H 349.395 -0.0268218 2.05382 0
M  V30 3763 H 347.625 -2.38026 3.04763 0
M  V30 3764 H 349.314 -2.18715 3.41934 0
M  V30 3765 H 350.08 -0.155458 4.84751 0
M  V30 3766 H 345.959 -1.30524 4.42136 0
M  V30 3767 H 349.503 1.111 6.88696 0
M  V30 3768 H 345.4 -0.0455636 6.45484 0
M  V30 3769 H 346.168 1.23077 8.09194 0
M  V30 3770 N 348.832 -1.54138 -0.328536 0
M  V30 3771 C 349.78 -1.83894 -1.42428 0
M  V30 3772 C 350.774 -0.710478 -1.53781 0
M  V30 3773 O 351.98 -0.894062 -1.56226 0
M  V30 3774 H 348.355 -0.582837 -0.475189 0
M  V30 3775 H 350.326 -2.75537 -1.14552 0
M  V30 3776 C 349.075 -2.07866 -2.78724 0
M  V30 3777 H 348.398 -2.94158 -2.7076 0
M  V30 3778 H 349.838 -2.32644 -3.54476 0
M  V30 3779 C 348.297 -0.868689 -3.25508 0
M  V30 3780 O 348.827 -0.0754908 -4.01629 0
M  V30 3781 N 347.033 -0.681711 -2.82491 0
M  V30 3782 H 346.58 -1.32838 -2.20708 0
M  V30 3783 H 346.538 0.126374 -3.14146 0
M  V30 3784 N 350.31 0.590341 -1.46126 0
M  V30 3785 C 351.538 1.37504 -1.54597 0
M  V30 3786 C 351.953 1.87897 -0.184447 0
M  V30 3787 O 351.31 1.63192 0.816984 0
M  V30 3788 C 351.361 2.56779 -2.54454 0
M  V30 3789 O 351.082 2.08476 -3.85317 0
M  V30 3790 C 352.583 3.49427 -2.72792 0
M  V30 3791 H 349.803 0.420325 -0.523037 0
M  V30 3792 H 352.347 0.718383 -1.91467 0
M  V30 3793 H 350.502 3.1845 -2.20609 0
M  V30 3794 H 350.916 2.86097 -4.396 0
M  V30 3795 H 352.39 4.29619 -3.466 0
M  V30 3796 H 352.867 4.00876 -1.79429 0
M  V30 3797 H 353.473 2.93598 -3.07702 0
M  V30 3798 N 351.788 1.33704 0.83433 0
M  V30 3799 C 353.036 1.25169 1.58673 0
M  V30 3800 C 353.357 -0.18127 1.94156 0
M  V30 3801 O 352.627 -1.11113 1.6134 0
M  V30 3802 H 351.207 0.4603 0.58833 0
M  V30 3803 H 353.869 1.67478 0.996847 0
M  V30 3804 H 352.965 1.84856 2.51465 0
M  V30 3805 N 353.266 -1.05314 1.17247 0
M  V30 3806 C 354.213 -2.13031 0.888058 0
M  V30 3807 C 355.183 -1.65253 -0.167537 0
M  V30 3808 O 356.368 -1.90775 -0.0305974 0
M  V30 3809 C 353.508 -3.42702 0.406147 0
M  V30 3810 C 352.621 -4.04161 1.52572 0
M  V30 3811 C 351.756 -5.21744 0.997808 0
M  V30 3812 C 350.795 -5.75207 2.09291 0
M  V30 3813 N 349.932 -6.84094 1.57986 0
M  V30 3814 H 354.772 -2.36698 1.81048 0
M  V30 3815 H 352.309 -1.16121 0.903013 0
M  V30 3816 H 354.267 -4.17059 0.108305 0
M  V30 3817 H 352.897 -3.19222 -0.479313 0
M  V30 3818 H 351.949 -3.27253 1.93931 0
M  V30 3819 H 353.261 -4.39881 2.35172 0
M  V30 3820 H 352.415 -6.03168 0.653739 0
M  V30 3821 H 351.154 -4.87495 0.141232 0
M  V30 3822 H 350.159 -4.92414 2.44557 0
M  V30 3823 H 351.384 -6.11505 2.95362 0
M  V30 3824 H 349.33 -6.51745 0.74598 0
M  V30 3825 H 349.247 -7.18811 2.34195 0
M  V30 3826 H 350.515 -7.69172 1.26468 0
M  V30 3827 N 354.744 -0.972509 -1.24016 0
M  V30 3828 C 355.991 -0.637034 -1.92219 0
M  V30 3829 C 356.319 0.828418 -1.75976 0
M  V30 3830 O 355.574 1.61206 -1.10955 0
M  V30 3831 C 355.873 -0.963694 -3.44162 0
M  V30 3832 C 355.539 -2.41807 -3.80579 0
M  V30 3833 C 354.201 -2.81556 -3.9023 0
M  V30 3834 C 356.553 -3.36172 -3.98293 0
M  V30 3835 C 353.881 -4.14702 -4.15017 0
M  V30 3836 C 356.233 -4.68952 -4.24578 0
M  V30 3837 C 354.897 -5.08472 -4.32449 0
M  V30 3838 H 354.167 -0.233107 -0.703379 0
M  V30 3839 H 356.814 -1.2249 -1.47202 0
M  V30 3840 H 355.119 -0.29365 -3.90698 0
M  V30 3841 H 356.816 -0.682449 -3.9515 0
M  V30 3842 H 353.406 -2.09988 -3.73635 0
M  V30 3843 H 357.59 -3.06644 -3.90234 0
M  V30 3844 H 352.846 -4.4494 -4.19331 0
M  V30 3845 H 357.02 -5.42037 -4.37229 0
M  V30 3846 H 354.647 -6.11665 -4.51409 0
M  V30 3847 N 356.222 1.38976 -0.743202 0
M  V30 3848 C 357.45 2.04636 -0.30525 0
M  V30 3849 C 357.865 1.56044 1.06281 0
M  V30 3850 O 357.222 0.728921 1.67311 0
M  V30 3851 C 357.273 3.60193 -0.307177 0
M  V30 3852 O 356.994 4.06998 -1.62124 0
M  V30 3853 C 358.495 4.4306 0.145928 0
M  V30 3854 H 355.715 0.65788 -0.132041 0
M  V30 3855 H 358.259 1.77866 -1.00915 0
M  V30 3856 H 356.414 3.85835 0.347898 0
M  V30 3857 H 356.828 5.01371 -1.54036 0
M  V30 3858 H 358.302 5.51921 0.0934183 0
M  V30 3859 H 358.779 4.22706 1.19231 0
M  V30 3860 H 359.385 4.22584 -0.479886 0
M  V30 3861 N 357.7 0.491464 1.49741 0
M  V30 3862 C 358.94 -0.0549118 2.04326 0
M  V30 3863 C 359.304 -1.35148 1.36378 0
M  V30 3864 O 360.505 -1.9815 1.81631 0
M  V30 3865 C 358.776 -0.213841 3.5676 0
M  V30 3866 S 360.335 -0.715839 4.32922 0
M  V30 3867 H 357.153 -0.00630513 0.710972 0
M  V30 3868 H 359.755 0.663257 1.83905 0
M  V30 3869 H 358.459 0.73527 4.0376 0
M  V30 3870 H 357.99 -0.957529 3.81569 0
M  V30 3871 H 360.005 -1.9864 4.54705 0
M  V30 3872 N 359.178 -1.55987 0.224894 0
M  V30 3873 C 360.427 -1.97566 -0.406273 0
M  V30 3874 C 360.74 -1.11569 -1.6066 0
M  V30 3875 O 361.946 -1.43062 -2.3075 0
M  V30 3876 C 360.402 -3.51474 -0.774207 0
M  V30 3877 C 360.01 -4.46179 0.403496 0
M  V30 3878 C 361.754 -4.01758 -1.37079 0
M  V30 3879 C 359.661 -5.91399 0.0129412 0
M  V30 3880 H 358.591 -0.737777 -0.155565 0
M  V30 3881 H 361.242 -1.80659 0.321635 0
M  V30 3882 H 359.624 -3.63994 -1.55963 0
M  V30 3883 H 360.798 -4.45409 1.18101 0
M  V30 3884 H 359.113 -4.06255 0.913536 0
M  V30 3885 H 361.71 -5.07756 -1.67596 0
M  V30 3886 H 362.053 -3.47805 -2.28773 0
M  V30 3887 H 362.586 -3.92475 -0.648733 0
M  V30 3888 H 359.325 -6.49341 0.896451 0
M  V30 3889 H 358.845 -5.95356 -0.728821 0
M  V30 3890 H 360.524 -6.45683 -0.412582 0
M  V30 3891 N 360.656 0.0484629 -1.57525 0
M  V30 3892 C 361.566 1.07241 -2.08654 0
M  V30 3893 C 362.582 1.409 -1.02095 0
M  V30 3894 O 363.758 1.50609 -1.33712 0
M  V30 3895 C 360.823 2.36008 -2.5397 0
M  V30 3896 C 359.884 2.09108 -3.7493 0
M  V30 3897 C 359.117 3.31736 -4.18075 0
M  V30 3898 O 359.34 4.41714 -3.60895 0
M  V30 3899 O 358.274 3.18576 -5.10679 0
M  V30 3900 H 362.1 0.667965 -2.96263 0
M  V30 3901 H 359.685 0.26417 -1.47046 0
M  V30 3902 H 361.567 3.11747 -2.83535 0
M  V30 3903 H 360.242 2.75786 -1.69481 0
M  V30 3904 H 359.149 1.31 -3.50414 0
M  V30 3905 H 360.482 1.74198 -4.60343 0
M  V30 3906 N 362.134 1.5431 0.320358 0
M  V30 3907 C 363.38 1.72924 1.05949 0
M  V30 3908 C 363.713 0.503185 1.87568 0
M  V30 3909 O 362.988 -0.499839 1.87968 0
M  V30 3910 C 363.271 3.00676 1.98156 0
M  V30 3911 C 363.124 4.3354 1.19845 0
M  V30 3912 C 364.443 3.24198 2.9763 0
M  V30 3913 H 361.562 0.629195 0.383774 0
M  V30 3914 H 364.204 1.87008 0.335854 0
M  V30 3915 H 362.354 2.888 2.59859 0
M  V30 3916 H 364.026 4.57305 0.605773 0
M  V30 3917 H 362.269 4.309 0.500784 0
M  V30 3918 H 362.94 5.19156 1.87567 0
M  V30 3919 H 365.416 3.35557 2.4605 0
M  V30 3920 H 364.292 4.14938 3.59329 0
M  V30 3921 H 364.553 2.41577 3.7026 0
M  V30 3922 N 363.613 -0.582584 1.46437 0
M  V30 3923 C 364.56 -1.69164 1.5701 0
M  V30 3924 C 365.53 -1.60847 0.414403 0
M  V30 3925 O 366.715 -1.80058 0.631171 0
M  V30 3926 C 363.855 -3.075 1.56646 0
M  V30 3927 C 362.968 -3.2644 2.82951 0
M  V30 3928 C 362.103 -4.55026 2.7409 0
M  V30 3929 C 361.142 -4.6731 3.95333 0
M  V30 3930 N 360.279 -5.87221 3.84858 0
M  V30 3931 H 365.119 -1.59464 2.51744 0
M  V30 3932 H 362.656 -0.777186 1.24893 0
M  V30 3933 H 364.614 -3.8757 1.5442 0
M  V30 3934 H 363.244 -3.16096 0.654439 0
M  V30 3935 H 362.296 -2.39974 2.95155 0
M  V30 3936 H 363.608 -3.31385 3.72808 0
M  V30 3937 H 362.762 -5.43324 2.6997 0
M  V30 3938 H 361.501 -4.52519 1.81873 0
M  V30 3939 H 360.506 -3.77429 3.99784 0
M  V30 3940 H 361.731 -4.71595 4.88646 0
M  V30 3941 H 359.677 -5.85712 2.95427 0
M  V30 3942 H 359.594 -5.93435 4.6837 0
M  V30 3943 H 360.862 -6.7795 3.84713 0
M  V30 3944 N 365.091 -1.34144 -0.827227 0
M  V30 3945 C 366.338 -1.26258 -1.58319 0
M  V30 3946 C 366.666 0.168595 -1.93768 0
M  V30 3947 O 365.921 1.12877 -1.59866 0
M  V30 3948 C 366.22 -2.09464 -2.89585 0
M  V30 3949 C 365.886 -3.58521 -2.73448 0
M  V30 3950 C 364.548 -3.99155 -2.68754 0
M  V30 3951 C 366.9 -4.53189 -2.57428 0
M  V30 3952 C 364.228 -5.32656 -2.45957 0
M  V30 3953 C 366.58 -5.86864 -2.36163 0
M  V30 3954 C 365.244 -6.26667 -2.29879 0
M  V30 3955 H 364.514 -0.462013 -0.579332 0
M  V30 3956 H 367.161 -1.65845 -0.95748 0
M  V30 3957 H 365.466 -1.62692 -3.56425 0
M  V30 3958 H 367.163 -2.00712 -3.47154 0
M  V30 3959 H 363.753 -3.26264 -2.77939 0
M  V30 3960 H 367.937 -4.22696 -2.60081 0
M  V30 3961 H 363.193 -5.62519 -2.39546 0
M  V30 3962 H 367.367 -6.59813 -2.22754 0
M  V30 3963 H 364.994 -7.30049 -2.11975 0
M  V30 3964 N 366.569 1.04691 -1.17803 0
M  V30 3965 C 367.519 2.10856 -0.867391 0
M  V30 3966 C 368.503 1.601 0.160206 0
M  V30 3967 O 369.695 1.76948 -0.042947 0
M  V30 3968 C 366.824 3.411 -0.388012 0
M  V30 3969 C 365.91 3.9864 -1.44732 0
M  V30 3970 N 366.301 4.30075 -2.66212 0
M  V30 3971 C 364.599 4.26439 -1.30637 0
M  V30 3972 C 365.3 4.76033 -3.34317 0
M  V30 3973 N 364.276 4.76462 -2.61696 0
M  V30 3974 H 368.078 2.33029 -1.79094 0
M  V30 3975 H 365.592 1.22386 -1.0675 0
M  V30 3976 H 367.589 4.16641 -0.146994 0
M  V30 3977 H 366.249 3.20357 0.529271 0
M  V30 3978 H 367.26 4.19917 -3.03134 0
M  V30 3979 H 363.937 4.15056 -0.451129 0
M  V30 3980 H 365.327 5.09427 -4.38103 0
M  V30 3981 N 368.047 0.979072 1.23499 0
M  V30 3982 C 368.977 0.537606 2.27227 0
M  V30 3983 C 369.958 -0.428539 1.64613 0
M  V30 3984 O 371.143 -0.322191 1.91509 0
M  V30 3985 C 368.273 -0.162052 3.46922 0
M  V30 3986 C 367.227 0.721242 4.21879 0
M  V30 3987 C 366.553 -0.110555 5.34586 0
M  V30 3988 C 367.853 2.01141 4.82016 0
M  V30 3989 H 369.547 1.40462 2.64406 0
M  V30 3990 H 367.093 0.67684 1.27102 0
M  V30 3991 H 369.046 -0.482192 4.18632 0
M  V30 3992 H 367.77 -1.06351 3.08799 0
M  V30 3993 H 366.429 1.02482 3.51984 0
M  V30 3994 H 366.077 -1.0125 4.92704 0
M  V30 3995 H 365.777 0.477325 5.85658 0
M  V30 3996 H 367.301 -0.425107 6.09118 0
M  V30 3997 H 368.715 1.75612 5.45741 0
M  V30 3998 H 367.112 2.54695 5.43369 0
M  V30 3999 H 368.182 2.69909 4.02836 0
M  V30 4000 N 369.525 -1.3858 0.750561 0
M  V30 4001 C 370.435 -2.34278 0.122825 0
M  V30 4002 C 371.451 -1.59116 -0.704131 0
M  V30 4003 O 372.627 -1.91326 -0.628987 0
M  V30 4004 C 369.692 -3.38221 -0.762086 0
M  V30 4005 C 368.753 -4.29227 0.078896 0
M  V30 4006 C 367.986 -5.28205 -0.763874 0
M  V30 4007 O 368.209 -5.34112 -2.00201 0
M  V30 4008 O 367.143 -6.01618 -0.18428 0
M  V30 4009 H 370.969 -2.89649 0.913088 0
M  V30 4010 H 368.554 -1.40374 0.511417 0
M  V30 4011 H 370.436 -4.01872 -1.26793 0
M  V30 4012 H 369.111 -2.85211 -1.5309 0
M  V30 4013 H 368.018 -3.68747 0.630621 0
M  V30 4014 H 369.351 -4.85484 0.810289 0
M  V30 4015 N 371.003 -0.499398 -1.49478 0
M  V30 4016 C 372.419 -0.155261 -1.58843 0
M  V30 4017 C 372.619 1.34008 -1.50479 0
M  V30 4018 O 371.675 2.11589 -1.37791 0
M  V30 4019 C 372.988 -0.730636 -2.91689 0
M  V30 4020 C 374.536 -0.696599 -3.0515 0
M  V30 4021 C 375.011 -1.25001 -4.40612 0
M  V30 4022 N 376.502 -1.21064 -4.47099 0
M  V30 4023 C 377.237 -1.60905 -5.50361 0
M  V30 4024 N 376.733 -2.08331 -6.60735 0
M  V30 4025 N 378.526 -1.52331 -5.41065 0
M  V30 4026 H 370.677 -1.47162 -1.53158 0
M  V30 4027 H 372.94 -0.610309 -0.725415 0
M  V30 4028 H 372.646 -1.77928 -3.03372 0
M  V30 4029 H 372.52 -0.190161 -3.7672 0
M  V30 4030 H 374.907 0.343204 -2.93097 0
M  V30 4031 H 374.988 -1.2742 -2.21806 0
M  V30 4032 H 374.632 -2.28859 -4.53416 0
M  V30 4033 H 374.562 -0.64836 -5.22593 0
M  V30 4034 H 377.053 -0.863128 -3.67911 0
M  V30 4035 H 377.366 -2.36805 -7.35624 0
M  V30 4036 H 375.711 -2.12304 -6.6178 0
M  V30 4037 H 378.902 -1.151 -4.53729 0
M  V30 4038 H 379.075 -1.83704 -6.21415 0
M  V30 4039 N 372.481 1.55866 -0.233164 0
M  V30 4040 C 373.413 2.18099 0.704668 0
M  V30 4041 C 374.426 1.15334 1.14899 0
M  V30 4042 O 375.615 1.42262 1.07814 0
M  V30 4043 C 372.715 2.7592 1.96777 0
M  V30 4044 C 371.888 4.03969 1.67713 0
M  V30 4045 C 370.947 4.46242 2.78845 0
M  V30 4046 O 369.973 5.12903 2.46818 0
M  V30 4047 N 371.175 4.12886 4.08051 0
M  V30 4048 H 373.94 2.99205 0.172258 0
M  V30 4049 H 371.501 1.61815 -0.0525945 0
M  V30 4050 H 373.493 3.01165 2.70337 0
M  V30 4051 H 372.063 1.99051 2.41034 0
M  V30 4052 H 371.283 3.86459 0.777391 0
M  V30 4053 H 372.571 4.8748 1.4574 0
M  V30 4054 H 371.969 3.59342 4.3691 0
M  V30 4055 H 370.526 4.42997 4.78118 0
M  V30 4056 N 373.959 -0.0401083 1.57549 0
M  V30 4057 C 374.892 -1.07689 2.01192 0
M  V30 4058 C 375.87 -1.358 0.894273 0
M  V30 4059 O 377.054 -1.48642 1.15921 0
M  V30 4060 C 374.181 -2.41418 2.3756 0
M  V30 4061 C 373.227 -2.29237 3.59656 0
M  V30 4062 S 374.06 -1.65628 5.09242 0
M  V30 4063 C 375.216 -3.0087 5.48843 0
M  V30 4064 H 375.449 -0.705108 2.88817 0
M  V30 4065 H 372.982 -0.249724 1.52367 0
M  V30 4066 H 374.94 -3.18329 2.59186 0
M  V30 4067 H 373.601 -2.75747 1.50407 0
M  V30 4068 H 372.794 -3.27932 3.82722 0
M  V30 4069 H 372.396 -1.60469 3.37825 0
M  V30 4070 H 374.688 -3.97201 5.48851 0
M  V30 4071 H 375.631 -2.82549 6.49286 0
M  V30 4072 H 376.039 -3.02934 4.76331 0
M  V30 4073 N 375.437 -1.54477 -0.31217 0
M  V30 4074 C 376.685 -1.72884 -1.04668 0
M  V30 4075 C 377.006 -0.511477 -1.88173 0
M  V30 4076 O 376.276 0.474407 -1.90069 0
M  V30 4077 H 374.856 -0.637461 -0.389425 0
M  V30 4078 H 377.518 -1.91807 -0.345852 0
M  V30 4079 H 376.614 -2.61334 -1.70619 0
M  V30 4080 N 376.915 0.57481 -1.46744 0
M  V30 4081 C 378.145 1.35659 -1.55821 0
M  V30 4082 C 378.553 1.88129 -0.201036 0
M  V30 4083 O 377.896 1.64723 0.813134 0
M  V30 4084 C 377.958 2.57473 -2.50894 0
M  V30 4085 C 377.622 2.26415 -3.9697 0
M  V30 4086 C 378.619 1.84771 -4.85958 0
M  V30 4087 C 376.304 2.38316 -4.42166 0
M  V30 4088 C 378.298 1.55434 -6.18158 0
M  V30 4089 C 375.985 2.08591 -5.74398 0
M  V30 4090 C 376.983 1.67216 -6.62214 0
M  V30 4091 O 376.671 1.37859 -7.91991 0
M  V30 4092 H 376.403 0.420496 -0.529301 0
M  V30 4093 H 378.957 0.704967 -1.92923 0
M  V30 4094 H 377.187 3.25468 -2.08824 0
M  V30 4095 H 378.876 3.19546 -2.50291 0
M  V30 4096 H 379.642 1.75085 -4.52295 0
M  V30 4097 H 375.521 2.69483 -3.74032 0
M  V30 4098 H 379.065 1.23065 -6.86659 0
M  V30 4099 H 374.962 2.17905 -6.07608 0
M  V30 4100 H 375.73 1.51638 -8.04331 0
M  V30 4101 N 378.394 1.34581 0.820102 0
M  V30 4102 C 379.624 1.29991 1.6058 0
M  V30 4103 C 380.032 -0.127588 1.88769 0
M  V30 4104 O 379.375 -1.08595 1.48165 0
M  V30 4105 C 379.437 2.02548 2.9701 0
M  V30 4106 C 379.101 3.51794 2.91701 0
M  V30 4107 C 380.098 4.46647 2.66087 0
M  V30 4108 C 377.783 3.94249 3.11245 0
M  V30 4109 C 379.777 5.81929 2.60071 0
M  V30 4110 C 377.464 5.2963 3.04853 0
M  V30 4111 C 378.462 6.23282 2.793 0
M  V30 4112 O 378.15 7.56181 2.72847 0
M  V30 4113 H 377.882 0.448539 0.505756 0
M  V30 4114 H 380.436 1.77811 1.02822 0
M  V30 4115 H 378.666 1.49345 3.56697 0
M  V30 4116 H 380.355 1.91211 3.58041 0
M  V30 4117 H 381.121 4.15168 2.5072 0
M  V30 4118 H 377 3.21749 3.30149 0
M  V30 4119 H 380.544 6.54999 2.40046 0
M  V30 4120 H 376.441 5.60727 3.19774 0
M  V30 4121 H 377.209 7.6595 2.88553 0
M  V30 4122 N 379.872 -1.04064 1.18357 0
M  V30 4123 C 380.802 -2.14001 0.934113 0
M  V30 4124 C 381.783 -1.69616 -0.128186 0
M  V30 4125 O 382.968 -1.94185 0.0244093 0
M  V30 4126 C 380.098 -3.44253 0.459066 0
M  V30 4127 C 379.052 -4.02261 1.46185 0
M  V30 4128 C 378.378 -5.27992 0.844322 0
M  V30 4129 C 379.678 -4.38432 2.83856 0
M  V30 4130 H 381.372 -2.35127 1.85352 0
M  V30 4131 H 378.918 -1.12998 0.892604 0
M  V30 4132 H 380.871 -4.20522 0.271907 0
M  V30 4133 H 379.595 -3.22813 -0.495912 0
M  V30 4134 H 378.254 -3.28074 1.63595 0
M  V30 4135 H 377.902 -5.02862 -0.117845 0
M  V30 4136 H 377.602 -5.67765 1.51384 0
M  V30 4137 H 379.126 -6.06938 0.667693 0
M  V30 4138 H 380.54 -5.05688 2.70098 0
M  V30 4139 H 378.937 -4.89254 3.47491 0
M  V30 4140 H 380.007 -3.4826 3.37406 0
M  V30 4141 N 381.35 -0.985608 -1.22978 0
M  V30 4142 C 382.599 -0.652881 -1.90841 0
M  V30 4143 C 382.912 0.817842 -1.77681 0
M  V30 4144 O 384.118 1.26185 -2.40395 0
M  V30 4145 C 382.574 -1.11717 -3.42122 0
M  V30 4146 C 382.182 -2.6126 -3.63933 0
M  V30 4147 C 383.926 -0.85843 -4.1573 0
M  V30 4148 C 381.833 -3.0133 -5.08876 0
M  V30 4149 H 380.763 -0.240491 -0.714619 0
M  V30 4150 H 383.414 -1.1942 -1.39324 0
M  V30 4151 H 381.796 -0.504027 -3.92779 0
M  V30 4152 H 382.97 -3.27858 -3.23799 0
M  V30 4153 H 381.285 -2.84937 -3.03644 0
M  V30 4154 H 383.882 -1.13359 -5.22546 0
M  V30 4155 H 384.225 0.205461 -4.15793 0
M  V30 4156 H 384.758 -1.43341 -3.71077 0
M  V30 4157 H 381.497 -4.06864 -5.13947 0
M  V30 4158 H 381.017 -2.3943 -5.49939 0
M  V30 4159 H 382.696 -2.92224 -5.77247 0
M  V30 4160 N 382.828 1.3818 -0.7579 0
M  V30 4161 C 383.76 2.2901 -0.0932177 0
M  V30 4162 C 384.773 1.47958 0.679136 0
M  V30 4163 O 385.962 1.70773 0.519514 0
M  V30 4164 C 383.062 3.26953 0.89192 0
M  V30 4165 C 382.235 4.37045 0.176303 0
M  V30 4166 C 381.294 5.15148 1.07281 0
M  V30 4167 O 380.32 5.66616 0.541728 0
M  V30 4168 N 381.522 5.28542 2.40049 0
M  V30 4169 H 384.287 2.86694 -0.873303 0
M  V30 4170 H 381.848 1.50007 -0.609054 0
M  V30 4171 H 383.84 3.76083 1.49479 0
M  V30 4172 H 382.41 2.70136 1.57306 0
M  V30 4173 H 381.63 3.89493 -0.607328 0
M  V30 4174 H 382.918 5.07801 -0.318718 0
M  V30 4175 H 382.316 4.88285 2.85647 0
M  V30 4176 H 380.873 5.8103 2.95376 0
M  V30 4177 N 384.306 0.507319 1.49211 0
M  V30 4178 C 385.239 -0.314509 2.26022 0
M  V30 4179 C 386.217 -0.964849 1.30879 0
M  V30 4180 O 387.401 -0.993707 1.6018 0
M  V30 4181 C 384.528 -1.44346 3.06402 0
M  V30 4182 C 383.574 -0.90685 4.16748 0
M  V30 4183 S 384.407 0.207392 5.35098 0
M  V30 4184 C 385.563 -0.924573 6.19033 0
M  V30 4185 H 385.796 0.337416 2.95379 0
M  V30 4186 H 383.329 0.292718 1.516 0
M  V30 4187 H 385.287 -2.09029 3.53295 0
M  V30 4188 H 383.948 -2.06702 2.36502 0
M  V30 4189 H 383.141 -1.75309 4.72528 0
M  V30 4190 H 382.743 -0.33712 3.72478 0
M  V30 4191 H 385.035 -1.82839 6.52362 0
M  V30 4192 H 385.978 -0.405248 7.06939 0
M  V30 4193 H 386.386 -1.19476 5.51712 0
M  V30 4194 N 385.784 -1.5574 0.241426 0
M  V30 4195 C 387.014 -2.02913 -0.38857 0
M  V30 4196 C 387.422 -1.12014 -1.52478 0
M  V30 4197 O 386.765 -0.125903 -1.83268 0
M  V30 4198 C 386.827 -3.4636 -0.963075 0
M  V30 4199 C 386.491 -4.56982 0.0401916 0
M  V30 4200 C 387.488 -5.12941 0.847766 0
M  V30 4201 C 385.173 -5.0203 0.164699 0
M  V30 4202 C 387.167 -6.12437 1.76636 0
M  V30 4203 C 384.854 -6.01358 1.0868 0
M  V30 4204 C 385.852 -6.5644 1.88616 0
M  V30 4205 O 385.54 -7.53831 2.79273 0
M  V30 4206 H 385.272 -0.668983 -0.0971452 0
M  V30 4207 H 387.826 -2.02198 0.361248 0
M  V30 4208 H 386.056 -3.44206 -1.76235 0
M  V30 4209 H 387.745 -3.77065 -1.50257 0
M  V30 4210 H 388.511 -4.78974 0.762133 0
M  V30 4211 H 384.39 -4.58824 -0.447411 0
M  V30 4212 H 387.934 -6.55355 2.39071 0
M  V30 4213 H 383.831 -6.34746 1.17338 0
M  V30 4214 H 384.599 -7.71428 2.73572 0
M  V30 4215 N 387.262 0.0317525 -1.57568 0
M  V30 4216 C 388.511 0.722131 -1.8833 0
M  V30 4217 C 388.824 1.76664 -0.839587 0
M  V30 4218 O 390.03 2.50942 -1.03635 0
M  V30 4219 C 388.486 1.33544 -3.34207 0
M  V30 4220 C 388.094 0.327415 -4.46802 0
M  V30 4221 C 389.838 2.00585 -3.7412 0
M  V30 4222 C 387.745 0.948915 -5.83738 0
M  V30 4223 H 386.675 0.273466 -0.702661 0
M  V30 4224 H 389.326 -0.0235811 -1.83485 0
M  V30 4225 H 387.708 2.13077 -3.33788 0
M  V30 4226 H 388.882 -0.441006 -4.58685 0
M  V30 4227 H 387.197 -0.240758 -4.15703 0
M  V30 4228 H 389.794 2.47932 -4.73744 0
M  V30 4229 H 390.137 2.82285 -3.05975 0
M  V30 4230 H 390.67 1.27831 -3.76702 0
M  V30 4231 H 387.409 0.171387 -6.55276 0
M  V30 4232 H 386.929 1.68724 -5.7558 0
M  V30 4233 H 388.608 1.45705 -6.3038 0
M  V30 4234 N 388.74 1.54641 0.303973 0
M  V30 4235 C 390.151 1.64811 0.877163 0
M  V30 4236 C 390.502 0.554838 1.88191 0
M  V30 4237 O 389.627 -0.309033 2.14182 0
M  V30 4238 C 390.222 2.9876 1.59775 0
M  V30 4239 C 388.781 3.11061 2.11938 0
M  V30 4240 C 387.928 2.60479 0.951097 0
M  V30 4241 H 390.879 1.58493 0.0810486 0
M  V30 4242 H 390.9 2.90017 2.46314 0
M  V30 4243 H 390.412 3.7831 0.866226 0
M  V30 4244 H 388.513 2.36225 2.88146 0
M  V30 4245 H 388.626 4.17171 2.35595 0
M  V30 4246 H 386.99 2.16859 1.33583 0
M  V30 4247 H 387.773 3.42504 0.233581 0
M  V30 4248 N 390.218 -0.567019 1.47046 0
M  V30 4249 C 391.443 -1.3551 1.57009 0
M  V30 4250 C 391.868 -1.86841 0.217259 0
M  V30 4251 O 391.226 -1.62435 -0.805268 0
M  V30 4252 C 391.274 -2.50777 2.5912 0
M  V30 4253 O 390.378 -3.52706 2.13711 0
M  V30 4254 H 389.719 -0.402919 0.52778 0
M  V30 4255 H 392.249 -0.686241 1.92748 0
M  V30 4256 H 392.259 -2.97481 2.79229 0
M  V30 4257 H 390.934 -2.12771 3.57353 0
M  V30 4258 H 389.511 -3.12374 2.03659 0
M  V30 4259 N 391.696 -1.35014 -0.812953 0
M  V30 4260 C 392.626 -1.30069 -1.93919 0
M  V30 4261 C 393.607 -0.176275 -1.69184 0
M  V30 4262 O 394.792 -0.370227 -1.90638 0
M  V30 4263 C 391.922 -1.06547 -3.30552 0
M  V30 4264 C 390.876 -2.15561 -3.69753 0
M  V30 4265 C 390.202 -1.77214 -5.04479 0
M  V30 4266 C 391.502 -3.57476 -3.808 0
M  V30 4267 H 393.196 -2.24303 -1.98314 0
M  V30 4268 H 390.742 -1.07977 -0.952736 0
M  V30 4269 H 392.695 -1.01729 -4.08937 0
M  V30 4270 H 391.419 -0.0875719 -3.26483 0
M  V30 4271 H 390.078 -2.19466 -2.9365 0
M  V30 4272 H 389.726 -0.780589 -4.96906 0
M  V30 4273 H 389.426 -2.50184 -5.31678 0
M  V30 4274 H 390.95 -1.7391 -5.8531 0
M  V30 4275 H 392.364 -3.55929 -4.4943 0
M  V30 4276 H 390.761 -4.29152 -4.19462 0
M  V30 4277 H 391.831 -3.94091 -2.82525 0
M  V30 4278 N 393.175 1.03435 -1.18907 0
M  V30 4279 C 394.105 2.13503 -0.945448 0
M  V30 4280 C 395.086 1.69682 0.119189 0
M  V30 4281 O 396.271 1.94169 -0.034707 0
M  V30 4282 C 393.401 3.44004 -0.477316 0
M  V30 4283 C 392.355 4.0148 -1.48316 0
M  V30 4284 C 391.681 5.27537 -0.872311 0
M  V30 4285 C 392.981 4.36921 -2.86177 0
M  V30 4286 H 394.675 2.34141 -1.86597 0
M  V30 4287 H 392.221 1.12523 -0.898584 0
M  V30 4288 H 394.174 4.20372 -0.294204 0
M  V30 4289 H 392.898 3.23072 0.478786 0
M  V30 4290 H 391.557 3.27201 -1.65332 0
M  V30 4291 H 391.205 5.02917 0.0911752 0
M  V30 4292 H 390.905 5.66954 -1.54393 0
M  V30 4293 H 392.429 6.06576 -0.699871 0
M  V30 4294 H 393.843 5.04248 -2.72776 0
M  V30 4295 H 392.24 4.87405 -3.50081 0
M  V30 4296 H 393.31 3.46466 -3.39248 0
M  V30 4297 N 394.653 0.992116 1.22453 0
M  V30 4298 C 395.902 0.662992 1.90492 0
M  V30 4299 C 396.215 -0.808407 1.78113 0
M  V30 4300 O 397.421 -1.24908 2.41061 0
M  V30 4301 C 395.877 1.1353 3.41524 0
M  V30 4302 C 395.485 2.63187 3.62542 0
M  V30 4303 C 397.229 0.880465 4.15269 0
M  V30 4304 C 395.136 3.04024 5.0727 0
M  V30 4305 H 394.066 0.244278 0.713333 0
M  V30 4306 H 396.717 1.20157 1.38688 0
M  V30 4307 H 395.099 0.52485 3.92506 0
M  V30 4308 H 396.273 3.2957 3.22056 0
M  V30 4309 H 394.588 2.86543 3.02129 0
M  V30 4310 H 397.185 1.16128 5.21937 0
M  V30 4311 H 397.528 -0.183408 4.15896 0
M  V30 4312 H 398.061 1.45307 3.70312 0
M  V30 4313 H 394.8 4.09584 5.11782 0
M  V30 4314 H 394.32 2.42343 5.48662 0
M  V30 4315 H 395.999 2.95282 5.75689 0
M  V30 4316 N 396.131 -1.37776 0.765217 0
M  V30 4317 C 397.377 -2.00145 0.327072 0
M  V30 4318 C 397.71 -1.60607 -1.09175 0
M  V30 4319 O 396.985 -0.849127 -1.74986 0
M  V30 4320 C 397.268 -3.57109 0.46319 0
M  V30 4321 C 397.121 -4.06576 1.92395 0
M  V30 4322 C 398.44 -4.39888 -0.136473 0
M  V30 4323 H 395.559 -0.727113 0.120316 0
M  V30 4324 H 398.201 -1.63549 0.967039 0
M  V30 4325 H 396.351 -3.88414 -0.0816358 0
M  V30 4326 H 398.023 -3.85864 2.52798 0
M  V30 4327 H 396.266 -3.59011 2.43503 0
M  V30 4328 H 396.937 -5.15639 1.97028 0
M  V30 4329 H 399.413 -4.14803 0.328317 0
M  V30 4330 H 398.289 -5.48899 -0.0110582 0
M  V30 4331 H 398.55 -4.24758 -1.22608 0
M  V30 4332 N 397.609 -0.515225 -1.4894 0
M  V30 4333 C 398.858 0.0261361 -2.01683 0
M  V30 4334 C 399.171 1.36719 -1.39883 0
M  V30 4335 O 400.377 1.99606 -1.84037 0
M  V30 4336 C 398.833 0.0970111 -3.59769 0
M  V30 4337 C 398.441 -1.23825 -4.30548 0
M  V30 4338 C 400.185 0.587981 -4.20408 0
M  V30 4339 C 398.092 -1.12877 -5.80528 0
M  V30 4340 H 397.022 0.0135398 -0.753878 0
M  V30 4341 H 399.673 -0.656787 -1.71343 0
M  V30 4342 H 398.055 0.844694 -3.86886 0
M  V30 4343 H 399.229 -2.00034 -4.15118 0
M  V30 4344 H 397.544 -1.66379 -3.81716 0
M  V30 4345 H 400.141 0.68763 -5.3026 0
M  V30 4346 H 400.484 1.59026 -3.84729 0
M  V30 4347 H 401.017 -0.103582 -3.97665 0
M  V30 4348 H 397.756 -2.10575 -6.20756 0
M  V30 4349 H 397.276 -0.407799 -5.98412 0
M  V30 4350 H 398.955 -0.813332 -6.41868 0
M  V30 4351 N 399.087 1.5561 -0.249682 0
M  V30 4352 C 400.017 2.24477 0.642826 0
M  V30 4353 C 400.998 1.22601 1.17911 0
M  V30 4354 O 402.183 1.5126 1.21795 0
M  V30 4355 C 399.313 2.94638 1.83863 0
M  V30 4356 C 398.267 4.03227 1.435 0
M  V30 4357 C 397.593 4.60828 2.71186 0
M  V30 4358 C 398.893 5.18796 0.604002 0
M  V30 4359 H 400.587 2.99321 0.0685625 0
M  V30 4360 H 398.133 1.43965 0.0315363 0
M  V30 4361 H 400.086 3.41517 2.46868 0
M  V30 4362 H 398.81 2.17287 2.43832 0
M  V30 4363 H 397.469 3.57121 0.828275 0
M  V30 4364 H 397.117 3.80174 3.29358 0
M  V30 4365 H 396.817 5.34132 2.44901 0
M  V30 4366 H 398.341 5.10442 3.35084 0
M  V30 4367 H 399.755 5.61883 1.13842 0
M  V30 4368 H 398.152 5.98506 0.437097 0
M  V30 4369 H 399.222 4.83384 -0.383147 0
M  V30 4370 N 400.565 -0.0233959 1.57583 0
M  V30 4371 C 401.79 -0.728376 1.94189 0
M  V30 4372 C 402.215 -1.67793 0.850119 0
M  V30 4373 O 401.573 -1.80262 -0.19371 0
M  V30 4374 C 401.621 -1.45669 3.29868 0
M  V30 4375 O 400.725 -2.57013 3.22518 0
M  V30 4376 H 400.066 -0.195493 0.63457 0
M  V30 4377 H 402.596 0.0228214 2.04587 0
M  V30 4378 H 402.606 -1.82535 3.6489 0
M  V30 4379 H 401.281 -0.760314 4.08891 0
M  V30 4380 H 399.858 -2.22648 2.99136 0
M  V30 4381 N 402.043 -1.548 -0.295768 0
M  V30 4382 C 403.289 -1.75517 -1.02789 0
M  V30 4383 C 403.644 -0.537266 -1.84746 0
M  V30 4384 O 402.937 0.470299 -1.85738 0
M  V30 4385 C 403.131 -2.98797 -1.961 0
M  V30 4386 C 402.96 -4.3246 -1.23321 0
M  V30 4387 C 401.73 -4.96131 -0.95822 0
M  V30 4388 C 403.928 -5.10365 -0.635024 0
M  V30 4389 N 401.91 -6.1357 -0.201257 0
M  V30 4390 C 403.281 -6.19999 -0.0110937 0
M  V30 4391 C 405.336 -4.94957 -0.540594 0
M  V30 4392 C 404.039 -7.15904 0.698136 0
M  V30 4393 C 406.065 -5.91197 0.154992 0
M  V30 4394 C 405.427 -7.00203 0.767752 0
M  V30 4395 H 401.526 -0.694786 -0.358882 0
M  V30 4396 H 404.11 -1.92281 -0.305943 0
M  V30 4397 H 402.281 -2.83448 -2.6554 0
M  V30 4398 H 404.013 -3.08017 -2.62502 0
M  V30 4399 H 400.768 -4.56595 -1.25771 0
M  V30 4400 H 401.192 -6.76802 0.16389 0
M  V30 4401 H 405.834 -4.10803 -1.00003 0
M  V30 4402 H 403.552 -7.99595 1.16933 0
M  V30 4403 H 407.138 -5.81353 0.228069 0
M  V30 4404 H 406.018 -7.73393 1.29743 0
M  V30 4405 N 403.521 0.559213 -1.47345 0
M  V30 4406 C 404.767 1.31843 -1.54095 0
M  V30 4407 C 405.1 1.93149 -0.201726 0
M  V30 4408 O 404.375 1.77759 0.789428 0
M  V30 4409 C 404.658 2.43006 -2.65744 0
M  V30 4410 C 404.511 1.86581 -4.09277 0
M  V30 4411 C 405.83 3.44943 -2.73318 0
M  V30 4412 H 402.949 0.478012 -0.560957 0
M  V30 4413 H 405.591 0.625977 -1.79392 0
M  V30 4414 H 403.741 3.02072 -2.44305 0
M  V30 4415 H 405.413 1.31792 -4.42073 0
M  V30 4416 H 403.656 1.17268 -4.17649 0
M  V30 4417 H 404.327 2.66933 -4.83168 0
M  V30 4418 H 406.803 2.95793 -2.92653 0
M  V30 4419 H 405.679 4.20153 -3.53218 0
M  V30 4420 H 405.94 4.03665 -1.80296 0
M  V30 4421 N 404.999 1.35443 0.805782 0
M  V30 4422 C 406.224 1.32037 1.59941 0
M  V30 4423 C 406.649 -0.0994215 1.87837 0
M  V30 4424 O 406.007 -1.06648 1.46615 0
M  V30 4425 C 406.055 2.13354 2.90711 0
M  V30 4426 O 405.159 1.5148 3.83572 0
M  V30 4427 H 404.5 0.452666 0.485787 0
M  V30 4428 H 407.03 1.78496 1.00002 0
M  V30 4429 H 407.04 2.25338 3.40128 0
M  V30 4430 H 405.715 3.16572 2.69732 0
M  V30 4431 H 404.292 1.4834 3.42125 0
M  V30 4432 N 406.477 -1.02803 1.19454 0
M  V30 4433 C 407.724 -1.76217 0.997693 0
M  V30 4434 C 408.052 -1.887 -0.47144 0
M  V30 4435 O 407.307 -1.4011 -1.3663 0
M  V30 4436 C 407.606 -3.18941 1.6128 0
M  V30 4437 C 407.272 -3.26463 3.11019 0
M  V30 4438 C 405.934 -3.28223 3.51885 0
M  V30 4439 C 408.286 -3.25542 4.07028 0
M  V30 4440 C 405.614 -3.26719 4.8731 0
M  V30 4441 C 407.966 -3.25579 5.42385 0
M  V30 4442 C 406.63 -3.25637 5.82681 0
M  V30 4443 H 405.9 -0.644823 0.365082 0
M  V30 4444 H 408.547 -1.20655 1.4871 0
M  V30 4445 H 406.852 -3.77587 1.04572 0
M  V30 4446 H 408.549 -3.74415 1.43577 0
M  V30 4447 H 405.139 -3.25822 2.78457 0
M  V30 4448 H 409.323 -3.23362 3.76498 0
M  V30 4449 H 404.579 -3.25089 5.1781 0
M  V30 4450 H 408.753 -3.23817 6.16535 0
M  V30 4451 H 406.38 -3.24226 6.87591 0
M  V30 4452 N 407.956 -0.998596 -1.21925 0
M  V30 4453 C 409.202 -0.688337 -1.91399 0
M  V30 4454 C 409.557 0.771805 -1.76241 0
M  V30 4455 O 408.85 1.55153 -1.1242 0
M  V30 4456 C 409.044 -1.03648 -3.42041 0
M  V30 4457 C 408.873 -2.52892 -3.71855 0
M  V30 4458 C 407.643 -3.19389 -3.91559 0
M  V30 4459 C 409.841 -3.5103 -3.75875 0
M  V30 4460 N 407.823 -4.5805 -4.08734 0
M  V30 4461 C 409.194 -4.75174 -3.98259 0
M  V30 4462 C 411.249 -3.45257 -3.58751 0
M  V30 4463 C 409.952 -5.94247 -4.05294 0
M  V30 4464 C 411.978 -4.63712 -3.67049 0
M  V30 4465 C 411.34 -5.86658 -3.89887 0
M  V30 4466 H 407.439 -0.303251 -0.720807 0
M  V30 4467 H 410.023 -1.27977 -1.46731 0
M  V30 4468 H 408.194 -0.473569 -3.85502 0
M  V30 4469 H 409.926 -0.681619 -3.98919 0
M  V30 4470 H 406.681 -2.69846 -3.89205 0
M  V30 4471 H 407.105 -5.29989 -4.21237 0
M  V30 4472 H 411.747 -2.51215 -3.40075 0
M  V30 4473 H 409.465 -6.88687 -4.22772 0
M  V30 4474 H 413.051 -4.6084 -3.5513 0
M  V30 4475 H 411.931 -6.76786 -3.96144 0
M  V30 4476 N 409.434 1.37368 -0.772513 0
M  V30 4477 C 410.683 1.98918 -0.333861 0
M  V30 4478 C 410.996 1.62017 1.09589 0
M  V30 4479 O 412.202 2.16676 1.63596 0
M  V30 4480 C 410.658 3.55735 -0.545971 0
M  V30 4481 C 410.266 4.01573 -1.98603 0
M  V30 4482 C 412.01 4.24156 -0.170979 0
M  V30 4483 C 409.917 5.51102 -2.1457 0
M  V30 4484 H 408.847 0.744214 -0.121085 0
M  V30 4485 H 411.498 1.56888 -0.95175 0
M  V30 4486 H 409.88 3.95748 0.141387 0
M  V30 4487 H 411.054 3.72803 -2.7084 0
M  V30 4488 H 409.369 3.45937 -2.31769 0
M  V30 4489 H 411.966 5.34024 -0.26878 0
M  V30 4490 H 412.309 4.06917 0.878855 0
M  V30 4491 H 412.842 3.89447 -0.810914 0
M  V30 4492 H 409.581 5.73268 -3.17875 0
M  V30 4493 H 409.101 5.81554 -1.46817 0
M  V30 4494 H 410.78 6.17083 -1.94468 0
M  V30 4495 N 410.912 0.523116 1.48665 0
M  V30 4496 C 411.86 -0.256859 2.31177 0
M  V30 4497 C 412.854 -0.94199 1.40794 0
M  V30 4498 O 414.06 -0.867157 1.57735 0
M  V30 4499 H 410.435 -0.1017 0.745091 0
M  V30 4500 H 412.406 0.458739 2.94853 0
M  V30 4501 C 411.155 -1.29503 3.22683 0
M  V30 4502 H 410.478 -0.777248 3.92172 0
M  V30 4503 H 411.918 -1.81233 3.83315 0
M  V30 4504 C 410.377 -2.32501 2.43813 0
M  V30 4505 O 410.907 -3.3881 2.15803 0
M  V30 4506 N 409.113 -2.05538 2.05432 0
M  V30 4507 H 408.66 -1.19104 2.28412 0
M  V30 4508 H 408.618 -2.74676 1.52973 0
M  V30 4509 N 412.39 -1.55475 0.257931 0
M  V30 4510 C 413.323 -2.179 -0.677862 0
M  V30 4511 C 414.301 -1.13448 -1.16483 0
M  V30 4512 O 415.485 -1.41889 -1.24095 0
M  V30 4513 C 412.612 -2.78851 -1.92249 0
M  V30 4514 C 411.658 -3.96454 -1.57246 0
M  V30 4515 S 412.491 -5.31349 -0.665501 0
M  V30 4516 C 413.647 -5.9576 -1.91889 0
M  V30 4517 H 413.88 -2.96934 -0.147396 0
M  V30 4518 H 411.413 -1.54342 0.0423023 0
M  V30 4519 H 413.371 -3.14602 -2.63697 0
M  V30 4520 H 412.032 -1.99742 -2.42409 0
M  V30 4521 H 411.225 -4.37731 -2.49814 0
M  V30 4522 H 410.827 -3.62038 -0.938325 0
M  V30 4523 H 413.119 -6.13947 -2.86487 0
M  V30 4524 H 414.062 -6.9094 -1.54942 0
M  V30 4525 H 414.47 -5.2494 -2.076 0
M  V30 4526 N 413.868 0.0150385 -1.57593 0
M  V30 4527 C 415.145 0.7392 -1.81094 0
M  V30 4528 C 415.525 1.92817 -0.859344 0
M  V30 4529 O 414.873 2.28301 0.095362 0
M  V30 4530 C 415.083 1.15907 -3.29191 0
M  V30 4531 C 416.431 1.56918 -3.9454 0
M  V30 4532 O 417.455 1.25328 -3.33424 0
M  V30 4533 O 416.314 2.15604 -5.02173 0
M  V30 4534 H 413.408 0.358631 -0.745193 0
M  V30 4535 H 415.954 -0.00926156 -1.69697 0
M  V30 4536 H 414.726 0.310921 -3.90063 0
M  V30 4537 H 414.349 1.96711 -3.45529 0
M  V30 4538 N 415.346 1.54954 0.287554 0
M  V30 4539 C 416.309 1.86076 1.33823 0
M  V30 4540 C 417.309 0.734414 1.43049 0
M  V30 4541 O 418.499 1.00266 1.42452 0
M  V30 4542 C 415.631 2.05305 2.72144 0
M  V30 4543 H 416.824 2.79984 1.07465 0
M  V30 4544 H 414.377 1.47223 0.524902 0
M  V30 4545 H 415.112 1.1373 3.03704 0
M  V30 4546 H 414.897 2.873 2.66836 0
M  V30 4547 H 416.387 2.30706 3.48087 0
M  V30 4548 N 416.824 -0.551391 1.4764 0
M  V30 4549 C 417.787 -1.64007 1.60107 0
M  V30 4550 C 418.787 -1.53601 0.47576 0
M  V30 4551 O 419.977 -1.57655 0.740988 0
M  V30 4552 C 417.109 -3.03569 1.55108 0
M  V30 4553 H 418.302 -1.543 2.57161 0
M  V30 4554 H 415.855 -0.771776 1.35917 0
M  V30 4555 H 416.59 -3.18804 0.594519 0
M  V30 4556 H 416.375 -3.12532 2.36783 0
M  V30 4557 H 417.865 -3.82762 1.66982 0
M  V30 4558 N 418.302 -1.35869 -0.798587 0
M  V30 4559 C 419.713 -1.26498 -1.37314 0
M  V30 4560 C 420.064 0.0991899 -1.95949 0
M  V30 4561 O 419.189 1.0004 -1.91888 0
M  V30 4562 C 419.784 -2.29054 -2.49639 0
M  V30 4563 C 418.343 -2.234 -3.02935 0
M  V30 4564 C 417.49 -2.14329 -1.75949 0
M  V30 4565 H 420.441 -1.46881 -0.600971 0
M  V30 4566 H 420.462 -1.92166 -3.28409 0
M  V30 4567 H 419.974 -3.2833 -2.06933 0
M  V30 4568 H 418.075 -1.27562 -3.50084 0
M  V30 4569 H 418.188 -3.15703 -3.60372 0
M  V30 4570 H 416.552 -1.60435 -1.9782 0
M  V30 4571 H 417.335 -3.15477 -1.35384 0
M  V30 4572 N 419.78 1.02168 -1.19998 0
M  V30 4573 C 420.743 2.08765 -0.94604 0
M  V30 4574 C 421.743 1.60618 0.0763846 0
M  V30 4575 O 422.933 1.73472 -0.159135 0
M  V30 4576 C 420.065 3.38262 -0.423255 0
M  V30 4577 H 421.258 2.32726 -1.89153 0
M  V30 4578 H 418.811 1.1889 -1.01464 0
M  V30 4579 H 419.546 3.19974 0.527938 0
M  V30 4580 H 419.331 3.74532 -1.16053 0
M  V30 4581 H 420.821 4.16759 -0.264911 0
M  V30 4582 N 421.258 1.00505 1.21394 0
M  V30 4583 C 422.674 0.717873 1.42544 0
M  V30 4584 C 422.874 -0.706936 1.88692 0
M  V30 4585 O 421.93 -1.47627 2.04847 0
M  V30 4586 C 423.243 1.73377 2.45684 0
M  V30 4587 C 424.791 1.75059 2.59467 0
M  V30 4588 C 425.266 2.75545 3.6584 0
M  V30 4589 N 426.757 2.74213 3.73311 0
M  V30 4590 C 427.492 3.48626 4.55245 0
M  V30 4591 N 426.988 4.32678 5.41075 0
M  V30 4592 N 428.781 3.37276 4.49668 0
M  V30 4593 H 420.932 1.92506 0.897503 0
M  V30 4594 H 423.195 0.830919 0.456375 0
M  V30 4595 H 422.901 2.75395 2.18748 0
M  V30 4596 H 422.775 1.53647 3.44489 0
M  V30 4597 H 425.162 0.737337 2.8574 0
M  V30 4598 H 425.243 1.98861 1.60897 0
M  V30 4599 H 424.887 3.77028 3.40313 0
M  V30 4600 H 424.817 2.49009 4.64007 0
M  V30 4601 H 427.308 2.13234 3.11993 0
M  V30 4602 H 427.621 4.86253 6.00648 0
M  V30 4603 H 425.966 4.3676 5.40616 0
M  V30 4604 H 429.157 2.71043 3.81646 0
M  V30 4605 H 429.33 3.95524 5.13288 0
M  V30 4606 N 422.737 -1.36956 0.779787 0
M  V30 4607 C 423.983 -1.99787 0.348281 0
M  V30 4608 C 424.316 -1.61756 -1.07465 0
M  V30 4609 O 423.591 -0.867639 -1.74075 0
M  V30 4610 C 423.874 -3.56597 0.50104 0
M  V30 4611 C 423.727 -4.04513 1.96697 0
M  V30 4612 C 425.046 -4.40008 -0.0898097 0
M  V30 4613 H 422.165 -0.725796 0.128022 0
M  V30 4614 H 424.807 -1.62514 0.984331 0
M  V30 4615 H 422.957 -3.88479 -0.0404347 0
M  V30 4616 H 424.629 -3.83161 2.56876 0
M  V30 4617 H 422.872 -3.56408 2.47297 0
M  V30 4618 H 423.543 -5.1352 2.02486 0
M  V30 4619 H 426.019 -4.14431 0.372293 0
M  V30 4620 H 424.895 -5.4888 0.0471605 0
M  V30 4621 H 425.156 -4.26035 -1.18096 0
M  V30 4622 N 424.215 -0.530993 -1.48385 0
M  V30 4623 C 425.178 0.220497 -2.28137 0
M  V30 4624 C 426.178 0.866851 -1.35434 0
M  V30 4625 O 427.368 0.726746 -1.58316 0
M  V30 4626 C 424.5 1.31921 -3.1434 0
M  V30 4627 H 425.693 -0.479714 -2.96038 0
M  V30 4628 H 423.246 -0.286968 -1.53643 0
M  V30 4629 H 423.981 2.05264 -2.51072 0
M  V30 4630 H 423.766 0.86085 -3.82533 0
M  V30 4631 H 425.256 1.84776 -3.74497 0
M  V30 4632 N 425.693 1.55336 -0.266172 0
M  V30 4633 C 426.623 2.25146 0.618981 0
M  V30 4634 C 427.604 1.23845 1.16604 0
M  V30 4635 O 428.789 1.52544 1.20183 0
M  V30 4636 C 425.919 2.96572 1.80728 0
M  V30 4637 C 424.873 4.04726 1.39215 0
M  V30 4638 C 424.199 4.63678 2.66283 0
M  V30 4639 C 425.499 5.19407 0.548942 0
M  V30 4640 H 427.193 2.99377 0.0368116 0
M  V30 4641 H 424.739 1.43991 0.0162651 0
M  V30 4642 H 426.692 3.44116 2.43232 0
M  V30 4643 H 425.416 2.19861 2.41514 0
M  V30 4644 H 424.075 3.57979 0.790351 0
M  V30 4645 H 423.723 3.83646 3.25308 0
M  V30 4646 H 423.423 5.367 2.39222 0
M  V30 4647 H 424.947 5.13967 3.29651 0
M  V30 4648 H 426.361 5.63059 1.07876 0
M  V30 4649 H 424.758 5.98936 0.373593 0
M  V30 4650 H 425.828 4.8295 -0.434394 0
M  V30 4651 N 427.171 -0.0066808 1.57599 0
M  V30 4652 C 428.419 -0.691552 1.899 0
M  V30 4653 C 428.74 -1.74682 0.866672 0
M  V30 4654 O 428.01 -1.95661 -0.0968189 0
M  V30 4655 H 426.59 -0.258416 0.700878 0
M  V30 4656 H 429.252 0.0326655 1.94873 0
M  V30 4657 H 428.348 -1.16702 2.8946 0
M  V30 4658 N 428.649 -1.55105 -0.279332 0
M  V30 4659 C 429.898 -1.74618 -1.00952 0
M  V30 4660 C 430.211 -0.551096 -1.87676 0
M  V30 4661 O 431.417 -0.628507 -2.64125 0
M  V30 4662 C 429.873 -3.09025 -1.84476 0
M  V30 4663 C 429.481 -4.36081 -1.0265 0
M  V30 4664 C 431.225 -3.37891 -2.56963 0
M  V30 4665 C 429.132 -5.6153 -1.85576 0
M  V30 4666 H 428.062 -0.650868 -0.38064 0
M  V30 4667 H 430.713 -1.81569 -0.265475 0
M  V30 4668 H 429.095 -2.96095 -2.62952 0
M  V30 4669 H 430.269 -4.59909 -0.286354 0
M  V30 4670 H 428.584 -4.14312 -0.416464 0
M  V30 4671 H 431.181 -4.28822 -3.19399 0
M  V30 4672 H 431.524 -2.57737 -3.26921 0
M  V30 4673 H 432.057 -3.5189 -1.85522 0
M  V30 4674 H 428.796 -6.44413 -1.2005 0
M  V30 4675 H 428.316 -5.41854 -2.57204 0
M  V30 4676 H 429.995 -5.99594 -2.43096 0
M  V30 4677 N 430.127 0.543554 -1.4793 0
M  V30 4678 C 431.355 1.32516 -1.58894 0
M  V30 4679 C 431.77 1.87215 -0.244131 0
M  V30 4680 O 431.127 1.65709 0.764652 0
M  V30 4681 C 431.178 2.48554 -2.62494 0
M  V30 4682 O 430.899 1.96112 -3.91755 0
M  V30 4683 C 432.4 3.40572 -2.8377 0
M  V30 4684 H 429.62 0.403472 -0.536145 0
M  V30 4685 H 432.164 0.657106 -1.93655 0
M  V30 4686 H 430.319 3.1127 -2.30629 0
M  V30 4687 H 430.733 2.71967 -4.4848 0
M  V30 4688 H 432.207 4.18375 -3.60093 0
M  V30 4689 H 432.684 3.94965 -1.92092 0
M  V30 4690 H 433.29 2.8366 -3.16887 0
M  V30 4691 N 431.605 1.3629 0.791371 0
M  V30 4692 C 432.833 1.33562 1.58016 0
M  V30 4693 C 433.248 -0.0835616 1.88615 0
M  V30 4694 O 432.605 -1.0399 1.49974 0
M  V30 4695 C 432.656 2.15517 2.90232 0
M  V30 4696 O 432.377 3.51902 2.60953 0
M  V30 4697 C 433.878 2.20546 3.84544 0
M  V30 4698 H 431.098 0.458226 0.490173 0
M  V30 4699 H 433.642 1.79361 0.982345 0
M  V30 4700 H 431.797 1.73278 3.46487 0
M  V30 4701 H 432.211 3.94644 3.4548 0
M  V30 4702 H 433.685 2.82252 4.74382 0
M  V30 4703 H 434.162 1.20838 4.2225 0
M  V30 4704 H 434.768 2.63013 3.34222 0
M  V30 4705 N 433.083 -1.0153 1.20538 0
M  V30 4706 C 434.329 -1.75408 1.01783 0
M  V30 4707 C 434.662 -1.88943 -0.448814 0
M  V30 4708 O 433.937 -1.4162 -1.33319 0
M  V30 4709 C 434.22 -3.17255 1.70356 0
M  V30 4710 C 434.073 -3.11508 3.24473 0
M  V30 4711 C 435.392 -4.15955 1.43769 0
M  V30 4712 H 432.511 -0.636713 0.371167 0
M  V30 4713 H 435.153 -1.18436 1.4857 0
M  V30 4714 H 433.303 -3.65898 1.30578 0
M  V30 4715 H 434.975 -2.70658 3.73553 0
M  V30 4716 H 433.218 -2.4887 3.55311 0
M  V30 4717 H 433.889 -4.11784 3.67611 0
M  V30 4718 H 436.365 -3.75973 1.7828 0
M  V30 4719 H 435.241 -5.13368 1.94279 0
M  V30 4720 H 435.502 -4.40586 0.365564 0
M  V30 4721 N 434.561 -1.01147 -1.20859 0
M  V30 4722 C 435.491 -0.597663 -2.25722 0
M  V30 4723 C 436.472 0.384744 -1.65692 0
M  V30 4724 O 437.657 0.271303 -1.92296 0
M  V30 4725 C 434.787 0.0700149 -3.47229 0
M  V30 4726 C 433.741 -0.832843 -4.19819 0
M  V30 4727 C 433.067 -0.0312202 -5.34691 0
M  V30 4728 C 434.367 -2.1385 -4.76514 0
M  V30 4729 H 436.061 -1.47423 -2.60589 0
M  V30 4730 H 433.607 -0.710301 -1.25263 0
M  V30 4731 H 435.56 0.37103 -4.19763 0
M  V30 4732 H 434.284 0.981259 -3.11511 0
M  V30 4733 H 432.943 -1.11778 -3.49144 0
M  V30 4734 H 432.591 0.881515 -4.95215 0
M  V30 4735 H 432.291 -0.632434 -5.84187 0
M  V30 4736 H 433.815 0.26346 -6.10031 0
M  V30 4737 H 435.229 -1.9002 -5.40893 0
M  V30 4738 H 433.626 -2.69012 -5.36426 0
M  V30 4739 H 434.696 -2.80495 -3.95538 0
M  V30 4740 N 436.039 1.36541 -0.78704 0
M  V30 4741 C 437.267 2.03561 -0.370199 0
M  V30 4742 C 437.682 1.59347 1.01263 0
M  V30 4743 O 437.039 0.781781 1.64907 0
M  V30 4744 C 437.09 3.59033 -0.421614 0
M  V30 4745 O 436.811 4.01634 -1.7499 0
M  V30 4746 C 438.312 4.433 0.00489763 0
M  V30 4747 H 435.532 0.653346 -0.152904 0
M  V30 4748 H 438.076 1.74566 -1.06522 0
M  V30 4749 H 436.231 3.86746 0.224971 0
M  V30 4750 H 436.645 4.96217 -1.69909 0
M  V30 4751 H 438.119 5.51939 -0.0822184 0
M  V30 4752 H 438.596 4.26285 1.05723 0
M  V30 4753 H 439.202 4.20843 -0.614085 0
M  V30 4754 N 437.518 0.538854 1.48102 0
M  V30 4755 C 438.451 -0.266495 2.26639 0
M  V30 4756 C 439.429 -0.93687 1.32897 0
M  V30 4757 O 440.613 -0.959507 1.62252 0
M  V30 4758 C 437.74 -1.37814 3.09394 0
M  V30 4759 C 436.786 -0.818247 4.18577 0
M  V30 4760 S 437.619 0.320848 5.34538 0
M  V30 4761 C 438.775 -0.793059 6.20855 0
M  V30 4762 H 439.008 0.399994 2.94597 0
M  V30 4763 H 436.541 0.324808 1.50945 0
M  V30 4764 H 438.499 -2.01488 3.57649 0
M  V30 4765 H 437.16 -2.01639 2.40833 0
M  V30 4766 H 436.353 -1.65247 4.7614 0
M  V30 4767 H 435.955 -0.258036 3.73109 0
M  V30 4768 H 438.247 -1.68961 6.56093 0
M  V30 4769 H 439.19 -0.255204 7.0764 0
M  V30 4770 H 439.598 -1.07746 5.54122 0
M  V30 4771 N 438.996 -1.55193 0.274407 0
M  V30 4772 C 440.224 -2.03987 -0.345943 0
M  V30 4773 C 440.639 -1.15279 -1.4952 0
M  V30 4774 O 439.996 -0.172759 -1.8168 0
M  V30 4775 C 440.047 -3.51898 -0.827631 0
M  V30 4776 O 439.768 -4.37231 0.275855 0
M  V30 4777 C 441.269 -4.16577 -1.51587 0
M  V30 4778 H 438.489 -0.666335 -0.0789892 0
M  V30 4779 H 441.033 -2.00423 0.406294 0
M  V30 4780 H 439.188 -3.55909 -1.52996 0
M  V30 4781 H 439.602 -5.24415 -0.0943638 0
M  V30 4782 H 441.076 -5.21678 -1.80433 0
M  V30 4783 H 441.553 -3.64707 -2.44716 0
M  V30 4784 H 442.159 -4.16568 -0.857409 0
M  V30 4785 N 440.474 -0.00167713 -1.576 0
M  V30 4786 C 441.702 0.693759 -1.94922 0
M  V30 4787 C 442.117 1.67215 -0.876626 0
M  V30 4788 O 441.474 1.81929 0.144279 0
M  V30 4789 C 441.525 1.42416 -3.32265 0
M  V30 4790 O 441.246 0.485014 -4.35407 0
M  V30 4791 C 442.747 2.21395 -3.84056 0
M  V30 4792 H 439.967 0.193118 -0.642609 0
M  V30 4793 H 442.511 -0.0532952 -2.04431 0
M  V30 4794 H 440.666 2.12284 -3.24059 0
M  V30 4795 H 441.08 1.00053 -5.14868 0
M  V30 4796 H 442.554 2.67996 -4.82578 0
M  V30 4797 H 443.031 3.04142 -3.16851 0
M  V30 4798 H 443.637 1.56542 -3.95443 0
M  V30 4799 N 441.952 1.55251 0.271103 0
M  V30 4800 C 442.884 1.84675 1.35749 0
M  V30 4801 C 443.897 0.731366 1.45447 0
M  V30 4802 O 445.086 1.00924 1.4723 0
M  V30 4803 C 442.186 1.99638 2.73857 0
M  V30 4804 C 441.359 3.30312 2.86727 0
M  V30 4805 C 440.418 3.35318 4.05522 0
M  V30 4806 O 439.444 4.08682 3.96191 0
M  V30 4807 N 440.646 2.62857 5.17577 0
M  V30 4808 H 443.411 2.78445 1.10853 0
M  V30 4809 H 440.972 1.55191 0.461218 0
M  V30 4810 H 442.964 2.00355 3.51625 0
M  V30 4811 H 441.534 1.12725 2.91568 0
M  V30 4812 H 440.754 3.42118 1.95829 0
M  V30 4813 H 442.042 4.16488 2.92258 0
M  V30 4814 H 441.44 2.02939 5.28046 0
M  V30 4815 H 439.997 2.69295 5.93568 0
M  V30 4816 N 443.43 -0.535701 1.48216 0
M  V30 4817 C 444.655 -1.32149 1.59848 0
M  V30 4818 C 445.08 -1.86338 0.256842 0
M  V30 4819 O 444.438 -1.64107 -0.770632 0
M  V30 4820 C 444.486 -2.45224 2.64381 0
M  V30 4821 O 443.59 -3.48093 2.21144 0
M  V30 4822 H 442.931 -0.391634 0.536208 0
M  V30 4823 H 445.461 -0.645202 1.94161 0
M  V30 4824 H 445.471 -2.91491 2.85476 0
M  V30 4825 H 444.146 -2.05143 3.61786 0
M  V30 4826 H 442.723 -3.07984 2.10239 0
M  V30 4827 N 444.908 -1.36708 -0.784132 0
M  V30 4828 C 446.133 -1.34565 -1.5782 0
M  V30 4829 C 446.558 0.0695257 -1.87971 0
M  V30 4830 O 445.916 1.04302 -1.48293 0
M  V30 4831 C 445.964 -2.17952 -2.87279 0
M  V30 4832 O 445.068 -1.57563 -3.81114 0
M  V30 4833 H 444.409 -0.460337 -0.478524 0
M  V30 4834 H 446.939 -1.80064 -0.971495 0
M  V30 4835 H 446.949 -2.30721 -3.365 0
M  V30 4836 H 445.624 -3.20823 -2.64661 0
M  V30 4837 H 444.201 -1.53764 -3.39722 0
M  V30 4838 N 446.386 1.0089 -1.21074 0
M  V30 4839 C 447.634 1.74262 -1.02358 0
M  V30 4840 C 447.955 1.89869 0.444393 0
M  V30 4841 O 447.225 1.44677 1.32081 0
M  V30 4842 H 445.805 0.645615 -0.375754 0
M  V30 4843 H 448.467 1.21596 -1.52317 0
M  V30 4844 H 447.563 2.74328 -1.4883 0
M  V30 4845 N 447.864 1.01787 1.20321 0
M  V30 4846 C 449.089 0.727009 1.9424 0
M  V30 4847 C 449.514 -0.706179 1.74341 0
M  V30 4848 O 448.872 -1.48609 1.03852 0
M  V30 4849 C 448.92 1.06958 3.44372 0
M  V30 4850 O 448.024 0.181983 4.11998 0
M  V30 4851 H 447.365 0.269626 0.606793 0
M  V30 4852 H 449.895 1.36158 1.52716 0
M  V30 4853 H 449.905 1.02182 3.94997 0
M  V30 4854 H 448.58 2.11378 3.58179 0
M  V30 4855 H 447.157 0.287378 3.71791 0
M  V30 4856 N 449.342 -1.36122 0.79427 0
M  V30 4857 C 450.758 -1.5232 0.476525 0
M  V30 4858 C 450.958 -1.74685 -1.00436 0
M  V30 4859 O 450.014 -1.78115 -1.78973 0
M  V30 4860 C 451.327 -2.70607 1.31119 0
M  V30 4861 C 452.875 -2.8448 1.30537 0
M  V30 4862 C 453.35 -4.05778 2.12387 0
M  V30 4863 N 454.841 -4.12933 2.09859 0
M  V30 4864 C 455.576 -5.05876 2.69957 0
M  V30 4865 N 455.072 -6.04232 3.38934 0
M  V30 4866 N 456.865 -4.98528 2.59665 0
M  V30 4867 H 449.016 -1.1986 1.75349 0
M  V30 4868 H 451.279 -0.585418 0.745647 0
M  V30 4869 H 450.985 -2.60619 2.36158 0
M  V30 4870 H 450.859 -3.64888 0.955843 0
M  V30 4871 H 453.246 -2.93927 0.262876 0
M  V30 4872 H 453.327 -1.91093 1.70051 0
M  V30 4873 H 452.971 -3.97092 3.1667 0
M  V30 4874 H 452.901 -4.98323 1.70242 0
M  V30 4875 H 455.392 -3.42515 1.59662 0
M  V30 4876 H 455.705 -6.71724 3.82109 0
M  V30 4877 H 454.05 -6.04443 3.43036 0
M  V30 4878 H 457.241 -4.20641 2.05375 0
M  V30 4879 H 457.414 -5.70773 3.06793 0
M  V30 4880 N 450.82 -0.546701 -1.47814 0
M  V30 4881 C 451.783 0.196287 -2.28358 0
M  V30 4882 C 452.783 0.852437 -1.36346 0
M  V30 4883 O 453.973 0.709913 -1.59078 0
M  V30 4884 C 451.105 1.28579 -3.15722 0
M  V30 4885 H 452.298 -0.511086 -2.95513 0
M  V30 4886 H 449.851 -0.303248 -1.5333 0
M  V30 4887 H 450.586 2.0259 -2.53235 0
M  V30 4888 H 450.371 0.820229 -3.83425 0
M  V30 4889 H 451.861 1.80793 -3.76435 0
M  V30 4890 N 452.299 1.55045 -0.282633 0
M  V30 4891 C 453.524 2.04628 0.337977 0
M  V30 4892 C 453.949 1.15937 1.48123 0
M  V30 4893 O 453.307 0.159532 1.80597 0
M  V30 4894 C 453.355 3.51854 0.78936 0
M  V30 4895 O 452.459 3.66236 1.89592 0
M  V30 4896 H 451.8 0.660434 0.0687261 0
M  V30 4897 H 454.33 2.00261 -0.419124 0
M  V30 4898 H 454.34 3.93361 1.08311 0
M  V30 4899 H 453.015 4.15873 -0.0470419 0
M  V30 4900 H 451.592 3.36633 1.60413 0
M  V30 4901 N 453.777 0.010035 1.57597 0
M  V30 4902 C 454.707 -0.976857 2.12084 0
M  V30 4903 C 455.688 -1.35191 1.03235 0
M  V30 4904 O 456.873 -1.43389 1.3097 0
M  V30 4905 C 454.003 -2.26548 2.63236 0
M  V30 4906 C 452.957 -2.03175 3.76701 0
M  V30 4907 C 452.283 -3.38138 4.14206 0
M  V30 4908 C 453.583 -1.38625 5.03568 0
M  V30 4909 H 455.277 -0.523145 2.94794 0
M  V30 4910 H 452.823 -0.250195 1.4181 0
M  V30 4911 H 454.776 -2.95952 2.99984 0
M  V30 4912 H 453.5 -2.74051 1.77661 0
M  V30 4913 H 452.159 -1.36195 3.40362 0
M  V30 4914 H 451.807 -3.83363 3.25641 0
M  V30 4915 H 451.507 -3.23312 4.90656 0
M  V30 4916 H 453.031 -4.08841 4.53521 0
M  V30 4917 H 454.445 -1.98 5.38023 0
M  V30 4918 H 452.842 -1.34256 5.84889 0
M  V30 4919 H 453.912 -0.356722 4.83586 0
M  V30 4920 N 455.255 -1.55392 -0.262866 0
M  V30 4921 C 456.666 -1.67079 -0.833158 0
M  V30 4922 C 457.017 -0.604539 -1.86654 0
M  V30 4923 O 456.142 0.252138 -2.14926 0
M  V30 4924 C 456.737 -3.02891 -1.51797 0
M  V30 4925 C 455.296 -3.16571 -2.03617 0
M  V30 4926 C 454.443 -2.62909 -0.881701 0
M  V30 4927 H 457.394 -1.58652 -0.0389986 0
M  V30 4928 H 457.415 -2.96445 -2.38538 0
M  V30 4929 H 456.927 -3.80473 -0.765619 0
M  V30 4930 H 455.028 -2.43782 -2.81782 0
M  V30 4931 H 455.141 -4.23271 -2.24452 0
M  V30 4932 H 453.505 -2.20324 -1.27786 0
M  V30 4933 H 454.288 -3.43003 -0.14269 0
M  V30 4934 N 456.733 0.527833 -1.48498 0
M  V30 4935 C 457.68 1.6322 -1.6318 0
M  V30 4936 C 458.65 1.59199 -0.473815 0
M  V30 4937 O 459.835 1.77591 -0.697563 0
M  V30 4938 C 456.975 3.01474 -1.67951 0
M  V30 4939 C 456.088 3.15713 -2.94871 0
M  V30 4940 C 455.223 4.44539 -2.90789 0
M  V30 4941 C 454.262 4.52315 -4.12404 0
M  V30 4942 N 453.399 5.72533 -4.06387 0
M  V30 4943 H 458.239 1.50011 -2.57489 0
M  V30 4944 H 455.776 0.730298 -1.27691 0
M  V30 4945 H 457.734 3.81572 -1.68698 0
M  V30 4946 H 456.364 3.1345 -0.771306 0
M  V30 4947 H 455.416 2.28854 -3.03859 0
M  V30 4948 H 456.728 3.1732 -3.8485 0
M  V30 4949 H 455.882 5.3293 -2.89949 0
M  V30 4950 H 454.621 4.45457 -1.98542 0
M  V30 4951 H 453.626 3.62331 -4.13517 0
M  V30 4952 H 454.851 4.53134 -5.05812 0
M  V30 4953 H 452.797 5.74344 -3.16962 0
M  V30 4954 H 452.714 5.75643 -4.90073 0
M  V30 4955 H 453.982 6.63204 -4.0961 0
M  V30 4956 N 458.211 1.37122 0.776871 0
M  V30 4957 C 459.457 1.32243 1.53752 0
M  V30 4958 C 459.79 -0.0944745 1.9397 0
M  V30 4959 O 459.065 -1.05068 1.6368 0
M  V30 4960 C 459.348 2.25681 2.80607 0
M  V30 4961 C 459.201 3.76127 2.46676 0
M  V30 4962 C 460.52 2.17657 3.82509 0
M  V30 4963 H 457.639 0.481704 0.557791 0
M  V30 4964 H 460.281 1.6778 0.891612 0
M  V30 4965 H 458.431 1.95505 3.35723 0
M  V30 4966 H 460.103 4.16877 1.97513 0
M  V30 4967 H 458.346 3.94946 1.79443 0
M  V30 4968 H 459.017 4.36933 3.37333 0
M  V30 4969 H 461.493 2.44245 3.36873 0
M  V30 4970 H 460.369 2.85185 4.69 0
M  V30 4971 H 460.63 1.16785 4.26396 0
M  V30 4972 N 459.689 -1.00246 1.21608 0
M  V30 4973 C 460.914 -1.78167 1.06167 0
M  V30 4974 C 461.339 -1.84138 -0.384035 0
M  V30 4975 O 460.697 -1.28683 -1.27712 0
M  V30 4976 C 460.745 -3.19786 1.66642 0
M  V30 4977 O 459.849 -4.02153 0.913613 0
M  V30 4978 H 459.19 -0.549 0.37349 0
M  V30 4979 H 461.72 -1.25994 1.61204 0
M  V30 4980 H 461.73 -3.70451 1.70969 0
M  V30 4981 H 460.405 -3.14754 2.7185 0
M  V30 4982 H 458.982 -3.60711 0.945635 0
M  V30 4983 N 461.167 -1.02423 -1.1978 0
M  V30 4984 C 462.397 -0.736387 -1.93031 0
M  V30 4985 C 462.805 0.708023 -1.75453 0
M  V30 4986 O 462.148 1.4927 -1.07071 0
M  V30 4987 C 462.21 -1.00194 -3.45255 0
M  V30 4988 C 461.874 -2.43698 -3.86601 0
M  V30 4989 C 462.871 -3.41814 -3.91738 0
M  V30 4990 C 460.556 -2.77975 -4.18372 0
M  V30 4991 C 462.55 -4.72265 -4.28071 0
M  V30 4992 C 460.237 -4.08636 -4.54378 0
M  V30 4993 C 461.235 -5.05592 -4.59201 0
M  V30 4994 O 460.923 -6.33914 -4.94376 0
M  V30 4995 H 460.655 -0.269116 -0.620123 0
M  V30 4996 H 463.209 -1.37043 -1.52998 0
M  V30 4997 H 461.439 -0.310747 -3.85449 0
M  V30 4998 H 463.128 -0.704488 -3.9974 0
M  V30 4999 H 463.894 -3.16671 -3.67348 0
M  V30 5000 H 459.773 -2.0319 -4.13805 0
M  V30 5001 H 463.317 -5.4794 -4.3175 0
M  V30 5002 H 459.214 -4.33556 -4.78226 0
M  V30 5003 H 459.982 -6.38317 -5.12341 0
M  V30 5004 N 462.645 1.35699 -0.801477 0
M  V30 5005 C 463.891 1.99208 -0.380022 0
M  V30 5006 C 464.224 1.63445 1.04878 0
M  V30 5007 O 463.499 0.895223 1.72673 0
M  V30 5008 C 463.782 3.55755 -0.557708 0
M  V30 5009 C 463.635 4.01332 -2.03107 0
M  V30 5010 C 464.954 4.40096 0.0197968 0
M  V30 5011 H 462.073 0.723667 -0.139552 0
M  V30 5012 H 464.715 1.60928 -1.01006 0
M  V30 5013 H 462.865 3.88494 -0.0213741 0
M  V30 5014 H 464.537 3.79026 -2.62939 0
M  V30 5015 H 462.78 3.52429 -2.52936 0
M  V30 5016 H 463.451 5.10234 -2.1063 0
M  V30 5017 H 465.927 4.13786 -0.438179 0
M  V30 5018 H 464.803 5.48735 -0.134477 0
M  V30 5019 H 465.064 4.2786 1.11303 0
M  V30 5020 N 464.123 0.554532 1.47522 0
M  V30 5021 C 465.07 -0.19466 2.29978 0
M  V30 5022 C 466.04 -0.910882 1.38896 0
M  V30 5023 O 467.225 -0.907102 1.67858 0
M  V30 5024 C 464.365 -1.22035 3.22802 0
M  V30 5025 C 463.478 -0.510474 4.28973 0
M  V30 5026 C 462.613 -1.52123 5.08952 0
M  V30 5027 C 461.652 -0.796173 6.069 0
M  V30 5028 N 460.789 -1.75363 6.79847 0
M  V30 5029 H 465.629 0.51461 2.93523 0
M  V30 5030 H 463.166 0.265607 1.44682 0
M  V30 5031 H 465.124 -1.8276 3.7504 0
M  V30 5032 H 463.754 -1.89769 2.61127 0
M  V30 5033 H 462.806 0.211234 3.79813 0
M  V30 5034 H 464.118 0.0576503 4.98767 0
M  V30 5035 H 463.272 -2.20207 5.65326 0
M  V30 5036 H 462.011 -2.12327 4.39054 0
M  V30 5037 H 461.016 -0.101388 5.49707 0
M  V30 5038 H 462.241 -0.199911 6.78806 0
M  V30 5039 H 460.187 -2.3443 6.12682 0
M  V30 5040 H 460.104 -1.23759 7.45801 0
M  V30 5041 H 461.372 -2.4257 7.40797 0
M  V30 5042 N 465.601 -1.54893 0.290851 0
M  V30 5043 C 466.564 -2.21824 -0.576784 0
M  V30 5044 C 467.564 -1.20104 -1.06919 0
M  V30 5045 O 468.754 -1.44906 -0.966843 0
M  V30 5046 C 465.886 -2.89662 -1.79747 0
M  V30 5047 H 467.079 -2.99899 0.00784051 0
M  V30 5048 H 464.632 -1.56245 0.0415934 0
M  V30 5049 H 465.367 -2.15639 -2.42219 0
M  V30 5050 H 465.152 -3.64219 -1.45214 0
M  V30 5051 H 466.642 -3.4075 -2.4141 0
M  V30 5052 N 467.08 -0.0183926 -1.57589 0
M  V30 5053 C 468.329 0.66185 -1.90532 0
M  V30 5054 C 468.642 1.73904 -0.895366 0
M  V30 5055 O 469.848 2.47518 -1.11566 0
M  V30 5056 C 468.304 1.22844 -3.38286 0
M  V30 5057 C 467.912 0.185103 -4.47617 0
M  V30 5058 C 469.656 1.88581 -3.80312 0
M  V30 5059 C 467.563 0.762723 -5.86461 0
M  V30 5060 H 466.493 0.250972 -0.711006 0
M  V30 5061 H 469.144 -0.0819435 -1.83317 0
M  V30 5062 H 467.526 2.0235 -3.40398 0
M  V30 5063 H 468.7 -0.58671 -4.5705 0
M  V30 5064 H 467.015 -0.372889 -4.14727 0
M  V30 5065 H 469.612 2.32735 -4.81392 0
M  V30 5066 H 469.955 2.72408 -3.14801 0
M  V30 5067 H 470.488 1.15782 -3.80578 0
M  V30 5068 H 467.227 -0.0371713 -6.55489 0
M  V30 5069 H 466.747 1.50327 -5.80656 0
M  V30 5070 H 468.426 1.25576 -6.34697 0
M  V30 5071 N 468.558 1.5553 0.254621 0
M  V30 5072 C 469.835 1.6774 1.00611 0
M  V30 5073 C 470.215 0.555993 2.03647 0
M  V30 5074 O 469.563 -0.441583 2.24193 0
M  V30 5075 C 469.773 3.07725 1.6464 0
M  V30 5076 C 471.121 3.66074 2.15116 0
M  V30 5077 O 472.145 3.10476 1.74595 0
M  V30 5078 O 471.004 4.63526 2.89493 0
M  V30 5079 H 468.098 0.681958 0.467828 0
M  V30 5080 H 470.644 1.67863 0.24902 0
M  V30 5081 H 469.416 3.80792 0.900734 0
M  V30 5082 H 469.039 3.1158 2.46989 0
M  V30 5083 N 470.036 -0.519951 1.48776 0
M  V30 5084 C 471.285 -1.27175 1.56555 0
M  V30 5085 C 471.598 -1.9401 0.248869 0
M  V30 5086 O 472.804 -2.70725 0.205004 0
M  V30 5087 C 471.26 -2.30811 2.76142 0
M  V30 5088 C 470.868 -1.7 4.14493 0
M  V30 5089 C 472.612 -3.06937 2.9324 0
M  V30 5090 C 470.519 -2.71635 5.25327 0
M  V30 5091 H 469.449 -0.478329 0.582853 0
M  V30 5092 H 472.1 -0.547916 1.75129 0
M  V30 5093 H 470.482 -3.06274 2.51023 0
M  V30 5094 H 471.656 -1.00658 4.49672 0
M  V30 5095 H 469.971 -1.06331 4.02595 0
M  V30 5096 H 472.568 -3.82905 3.73213 0
M  V30 5097 H 472.911 -3.63409 2.03075 0
M  V30 5098 H 473.444 -2.38589 3.18308 0
M  V30 5099 H 470.183 -2.1997 6.1749 0
M  V30 5100 H 469.703 -3.39275 4.94624 0
M  V30 5101 H 471.382 -3.34429 5.53865 0
M  V30 5102 N 471.514 -1.37532 -0.769588 0
M  V30 5103 C 472.76 -1.34063 -1.52966 0
M  V30 5104 C 473.115 0.0737942 -1.92258 0
M  V30 5105 O 472.408 1.03291 -1.61374 0
M  V30 5106 C 472.602 -2.21558 -2.8044 0
M  V30 5107 C 472.431 -3.71367 -2.53608 0
M  V30 5108 C 471.201 -4.40464 -2.47628 0
M  V30 5109 C 473.399 -4.64177 -2.21459 0
M  V30 5110 N 471.381 -5.758 -2.12902 0
M  V30 5111 C 472.752 -5.87907 -1.9689 0
M  V30 5112 C 474.807 -4.52541 -2.07633 0
M  V30 5113 C 473.51 -7.01304 -1.59892 0
M  V30 5114 C 475.536 -5.65825 -1.72034 0
M  V30 5115 C 474.898 -6.88606 -1.48327 0
M  V30 5116 H 470.997 -0.545856 -0.559969 0
M  V30 5117 H 473.581 -1.72773 -0.897634 0
M  V30 5118 H 471.752 -1.85061 -3.41478 0
M  V30 5119 H 473.484 -2.09332 -3.46356 0
M  V30 5120 H 470.239 -3.93491 -2.63556 0
M  V30 5121 H 470.663 -6.47328 -1.9823 0
M  V30 5122 H 475.305 -3.58183 -2.24643 0
M  V30 5123 H 473.023 -7.95594 -1.4162 0
M  V30 5124 H 476.609 -5.58793 -1.61991 0
M  V30 5125 H 475.489 -7.74779 -1.21189 0
M  V30 5126 N 472.992 0.995999 -1.22138 0
M  V30 5127 C 473.925 2.08302 -0.931952 0
M  V30 5128 C 474.903 1.62127 0.123956 0
M  V30 5129 O 476.087 1.88499 -0.00696004 0
M  V30 5130 C 473.214 3.36317 -0.401068 0
M  V30 5131 C 472.26 4.01413 -1.44117 0
M  V30 5132 S 473.093 4.42664 -3.01345 0
M  V30 5133 C 474.249 5.73853 -2.49887 0
M  V30 5134 H 474.482 2.32532 -1.85246 0
M  V30 5135 H 472.015 1.13005 -1.0521 0
M  V30 5136 H 473.973 4.10375 -0.101352 0
M  V30 5137 H 472.634 3.10123 0.498272 0
M  V30 5138 H 471.827 4.9358 -1.01952 0
M  V30 5139 H 471.429 3.33668 -1.68943 0
M  V30 5140 H 473.721 6.50039 -1.90934 0
M  V30 5141 H 474.664 6.20841 -3.40532 0
M  V30 5142 H 475.072 5.31105 -1.9128 0
M  V30 5143 N 474.47 1.03057 1.19235 0
M  V30 5144 C 475.433 0.617418 2.20727 0
M  V30 5145 C 476.433 -0.319856 1.57587 0
M  V30 5146 O 477.623 -0.106633 1.73873 0
M  V30 5147 C 474.755 -0.096296 3.40764 0
M  V30 5148 H 475.948 1.51544 2.58794 0
M  V30 5149 H 473.501 0.821949 1.32942 0
M  V30 5150 H 474.236 -1.00859 3.08217 0
M  V30 5151 H 474.021 0.577217 3.87828 0
M  V30 5152 H 475.511 -0.372219 4.15938 0
M  V30 5153 N 475.948 -1.35272 0.808662 0
M  V30 5154 C 477.194 -1.99003 0.390581 0
M  V30 5155 C 477.527 -1.63999 -1.0401 0
M  V30 5156 O 476.802 -0.904368 -1.72196 0
M  V30 5157 C 477.085 -3.55454 0.576566 0
M  V30 5158 C 476.938 -4.00249 2.05233 0
M  V30 5159 C 478.257 -4.401 0.00354277 0
M  V30 5160 H 475.376 -0.722917 0.143388 0
M  V30 5161 H 478.018 -1.6039 1.01858 0
M  V30 5162 H 476.168 -3.88477 0.0419766 0
M  V30 5163 H 477.84 -3.77626 2.64946 0
M  V30 5164 H 476.083 -3.51082 2.54801 0
M  V30 5165 H 476.754 -5.0911 2.13333 0
M  V30 5166 H 479.23 -4.13548 0.460117 0
M  V30 5167 H 478.106 -5.48656 0.163575 0
M  V30 5168 H 478.367 -4.28444 -1.09032 0
M  V30 5169 N 477.426 -0.562348 -1.47226 0
M  V30 5170 C 478.666 -0.0426374 -2.04356 0
M  V30 5171 C 479.03 1.28487 -1.42671 0
M  V30 5172 O 480.231 1.89259 -1.90878 0
M  V30 5173 C 478.502 0.0433826 -3.57374 0
M  V30 5174 S 480.061 0.508472 -4.35844 0
M  V30 5175 H 476.879 -0.0276234 -0.710463 0
M  V30 5176 H 479.481 -0.750245 -1.80531 0
M  V30 5177 H 478.185 -0.927072 -3.99792 0
M  V30 5178 H 477.716 0.774387 -3.85703 0
M  V30 5179 H 479.731 1.76719 -4.63665 0
M  V30 5180 N 478.904 1.54736 -0.299062 0
M  V30 5181 C 479.834 2.26409 0.571085 0
M  V30 5182 C 480.815 1.2629 1.13951 0
M  V30 5183 O 482 1.55059 1.16921 0
M  V30 5184 C 479.13 3.00338 1.74396 0
M  V30 5185 C 478.084 4.07588 1.30599 0
M  V30 5186 C 477.41 4.69222 2.56387 0
M  V30 5187 C 478.71 5.20455 0.438645 0
M  V30 5188 H 480.404 2.99388 -0.0266991 0
M  V30 5189 H 477.95 1.43993 -0.0142812 0
M  V30 5190 H 479.903 3.49198 2.35878 0
M  V30 5191 H 478.627 2.24934 2.36796 0
M  V30 5192 H 477.286 3.59575 0.71424 0
M  V30 5193 H 476.934 3.9046 3.17097 0
M  V30 5194 H 476.634 5.41653 2.27784 0
M  V30 5195 H 478.158 5.20844 3.18675 0
M  V30 5196 H 479.572 5.65221 0.959085 0
M  V30 5197 H 477.969 5.99594 0.246466 0
M  V30 5198 H 479.039 4.8192 -0.536738 0
M  V30 5199 N 480.382 0.0267497 1.57577 0
M  V30 5200 C 481.312 -0.954308 2.13108 0
M  V30 5201 C 482.293 -1.34088 1.04663 0
M  V30 5202 O 483.478 -1.41992 1.32484 0
M  V30 5203 C 480.608 -2.23744 2.65624 0
M  V30 5204 C 479.562 -1.99168 3.78835 0
M  V30 5205 C 478.888 -3.33726 4.17769 0
M  V30 5206 C 480.188 -1.33277 5.0501 0
M  V30 5207 H 481.882 -0.491848 2.95332 0
M  V30 5208 H 479.428 -0.23514 1.42067 0
M  V30 5209 H 481.381 -2.92754 3.03106 0
M  V30 5210 H 480.105 -2.72151 1.80558 0
M  V30 5211 H 478.764 -1.32577 3.41788 0
M  V30 5212 H 478.412 -3.79888 3.29688 0
M  V30 5213 H 478.112 -3.18089 4.94058 0
M  V30 5214 H 479.636 -4.04008 4.57832 0
M  V30 5215 H 481.05 -1.92283 5.40093 0
M  V30 5216 H 479.447 -1.28045 5.8628 0
M  V30 5217 H 480.517 -0.305411 4.83937 0
M  V30 5218 N 481.861 -1.55662 -0.24637 0
M  V30 5219 C 483.108 -1.77519 -0.974335 0
M  V30 5220 C 483.436 -0.591165 -1.85298 0
M  V30 5221 O 482.691 0.425497 -1.91018 0
M  V30 5222 C 482.99 -3.04885 -1.86494 0
M  V30 5223 C 482.656 -4.36209 -1.14161 0
M  V30 5224 C 481.318 -4.71896 -0.941701 0
M  V30 5225 C 483.67 -5.17391 -0.628957 0
M  V30 5226 C 480.998 -5.86299 -0.216852 0
M  V30 5227 C 483.35 -6.32546 0.0824273 0
M  V30 5228 C 482.014 -6.66853 0.293807 0
M  V30 5229 H 481.284 -0.649588 -0.356535 0
M  V30 5230 H 483.931 -1.89934 -0.244394 0
M  V30 5231 H 482.236 -2.87484 -2.66196 0
M  V30 5232 H 483.933 -3.18994 -2.42989 0
M  V30 5233 H 480.523 -4.08174 -1.30736 0
M  V30 5234 H 484.707 -4.90276 -0.770943 0
M  V30 5235 H 479.963 -6.11385 -0.0426124 0
M  V30 5236 H 484.137 -6.94693 0.487292 0
M  V30 5237 H 481.764 -7.55349 0.857428 0
M  V30 5238 N 483.339 0.512053 -1.4905 0
M  V30 5239 C 484.585 1.26874 -1.58212 0
M  V30 5240 C 484.918 1.9241 -0.263073 0
M  V30 5241 O 484.193 1.80181 0.732476 0
M  V30 5242 C 484.476 2.34428 -2.73341 0
M  V30 5243 C 484.329 1.73466 -4.15006 0
M  V30 5244 C 485.648 3.36073 -2.84154 0
M  V30 5245 H 482.767 0.459924 -0.575881 0
M  V30 5246 H 485.409 0.568587 -1.81293 0
M  V30 5247 H 483.559 2.94146 -2.53792 0
M  V30 5248 H 485.231 1.17661 -4.46042 0
M  V30 5249 H 483.474 1.03921 -4.21168 0
M  V30 5250 H 484.145 2.51426 -4.91415 0
M  V30 5251 H 486.621 2.86332 -3.01916 0
M  V30 5252 H 485.497 4.08703 -3.66406 0
M  V30 5253 H 485.758 3.97725 -1.93048 0
M  V30 5254 N 484.817 1.37938 0.762283 0
M  V30 5255 C 486.064 1.33668 1.52115 0
M  V30 5256 C 486.392 -0.0759538 1.94352 0
M  V30 5257 O 485.647 -1.05121 1.6507 0
M  V30 5258 C 485.946 2.23042 2.79261 0
M  V30 5259 C 485.612 3.71159 2.56031 0
M  V30 5260 C 484.274 4.11523 2.49404 0
M  V30 5261 C 486.626 4.64955 2.35513 0
M  V30 5262 C 483.954 5.43784 2.20263 0
M  V30 5263 C 486.306 5.97464 2.07894 0
M  V30 5264 C 484.97 6.36922 1.99718 0
M  V30 5265 H 484.24 0.489127 0.556629 0
M  V30 5266 H 486.887 1.70224 0.877262 0
M  V30 5267 H 485.192 1.79512 3.48256 0
M  V30 5268 H 486.889 2.17047 3.37182 0
M  V30 5269 H 483.479 3.39153 2.62056 0
M  V30 5270 H 487.663 4.34623 2.39617 0
M  V30 5271 H 482.919 5.73307 2.12435 0
M  V30 5272 H 487.093 6.6969 1.91019 0
M  V30 5273 H 484.72 7.39331 1.76902 0
M  V30 5274 N 486.295 -0.989507 1.22664 0
M  V30 5275 C 487.258 -2.06183 1.00106 0
M  V30 5276 C 488.258 -1.60765 -0.0337726 0
M  V30 5277 O 489.448 -1.72989 0.205072 0
M  V30 5278 C 486.58 -3.37021 0.51279 0
M  V30 5279 H 487.773 -2.27629 1.95256 0
M  V30 5280 H 485.326 -1.16158 1.0458 0
M  V30 5281 H 486.061 -3.21261 -0.442917 0
M  V30 5282 H 485.846 -3.71323 1.25942 0
M  V30 5283 H 487.336 -4.1591 0.375315 0
M  V30 5284 N 487.773 -1.03688 -1.18687 0
M  V30 5285 C 488.736 -0.629115 -2.20397 0
M  V30 5286 C 489.736 0.311495 -1.57754 0
M  V30 5287 O 490.926 0.0974107 -1.73927 0
M  V30 5288 C 488.058 0.0782231 -3.4081 0
M  V30 5289 H 489.251 -1.52915 -2.57987 0
M  V30 5290 H 486.804 -0.828988 -1.32505 0
M  V30 5291 H 487.539 0.992233 -3.08748 0
M  V30 5292 H 487.324 -0.597776 -3.87517 0
M  V30 5293 H 488.814 0.350156 -4.16129 0
M  V30 5294 N 489.251 1.34841 -0.815825 0
M  V30 5295 C 490.181 2.32187 -0.247298 0
M  V30 5296 C 491.162 1.5791 0.632344 0
M  V30 5297 O 492.347 1.8593 0.560698 0
M  V30 5298 C 489.477 3.42122 0.597466 0
M  V30 5299 C 488.431 4.27602 -0.184446 0
M  V30 5300 C 487.757 5.28942 0.782609 0
M  V30 5301 C 489.057 5.03502 -1.38865 0
M  V30 5302 H 490.751 2.79985 -1.06061 0
M  V30 5303 H 488.297 1.34611 -0.511461 0
M  V30 5304 H 490.25 4.09232 1.00533 0
M  V30 5305 H 488.974 2.92956 1.44376 0
M  V30 5306 H 487.633 3.62085 -0.573592 0
M  V30 5307 H 487.281 4.7604 1.62466 0
M  V30 5308 H 486.981 5.87008 0.263695 0
M  V30 5309 H 488.505 5.98922 1.18848 0
M  V30 5310 H 489.919 5.63506 -1.05518 0
M  V30 5311 H 488.316 5.71108 -1.8427 0
M  V30 5312 H 489.386 4.33608 -2.17054 0
M  V30 5313 N 490.729 0.570148 1.46925 0
M  V30 5314 C 491.659 -0.158274 2.32963 0
M  V30 5315 C 492.64 -0.896093 1.44583 0
M  V30 5316 O 493.825 -0.874022 1.7342 0
M  V30 5317 C 490.955 -1.18055 3.26619 0
M  V30 5318 C 489.909 -0.558379 4.24342 0
M  V30 5319 C 489.235 -1.68623 5.07415 0
M  V30 5320 C 490.535 0.496295 5.19937 0
M  V30 5321 H 492.229 0.560046 2.94115 0
M  V30 5322 H 489.775 0.270775 1.41431 0
M  V30 5323 H 491.728 -1.69841 3.85658 0
M  V30 5324 H 490.452 -1.92899 2.63548 0
M  V30 5325 H 489.111 -0.0617157 3.66548 0
M  V30 5326 H 488.759 -2.42402 4.40738 0
M  V30 5327 H 488.459 -1.27564 5.73586 0
M  V30 5328 H 489.983 -2.20709 5.69315 0
M  V30 5329 H 491.397 0.0640052 5.73264 0
M  V30 5330 H 489.794 0.82649 5.94381 0
M  V30 5331 H 490.864 1.38735 4.6463 0
M  V30 5332 N 492.207 -1.54576 0.307264 0
M  V30 5333 C 493.117 -2.27435 -0.57536 0
M  V30 5334 C 494.133 -1.31183 -1.14311 0
M  V30 5335 O 495.309 -1.64175 -1.16656 0
M  V30 5336 C 492.374 -3.00566 -1.72803 0
M  V30 5337 C 491.435 -4.12369 -1.19373 0
M  V30 5338 C 490.668 -4.82003 -2.29147 0
M  V30 5339 O 490.891 -4.51038 -3.49171 0
M  V30 5340 O 489.825 -5.69271 -1.95485 0
M  V30 5341 H 493.651 -3.03696 0.0158558 0
M  V30 5342 H 491.236 -1.49219 0.0735064 0
M  V30 5343 H 493.118 -3.46416 -2.39946 0
M  V30 5344 H 491.793 -2.27195 -2.30574 0
M  V30 5345 H 490.7 -3.70905 -0.487851 0
M  V30 5346 H 492.033 -4.87736 -0.661376 0
M  V30 5347 N 493.685 -0.035106 -1.57561 0
M  V30 5348 C 494.915 0.651312 -1.96065 0
M  V30 5349 C 495.323 1.6585 -0.910514 0
M  V30 5350 O 494.666 1.83336 0.11552 0
M  V30 5351 C 494.728 1.40897 -3.30739 0
M  V30 5352 C 494.392 0.559436 -4.53563 0
M  V30 5353 C 495.389 -0.16778 -5.19629 0
M  V30 5354 C 493.074 0.495079 -4.99854 0
M  V30 5355 C 495.068 -0.947963 -6.30311 0
M  V30 5356 C 492.755 -0.288804 -6.10417 0
M  V30 5357 C 493.753 -1.00903 -6.75505 0
M  V30 5358 O 493.441 -1.78005 -7.83945 0
M  V30 5359 H 493.173 0.184036 -0.650467 0
M  V30 5360 H 495.727 -0.0929677 -2.05189 0
M  V30 5361 H 493.957 2.19852 -3.18123 0
M  V30 5362 H 495.646 1.98407 -3.54104 0
M  V30 5363 H 496.412 -0.12743 -4.84833 0
M  V30 5364 H 492.291 1.04524 -4.48994 0
M  V30 5365 H 495.835 -1.51064 -6.81047 0
M  V30 5366 H 491.732 -0.33085 -6.44652 0
M  V30 5367 H 492.5 -1.70046 -8.00641 0
M  V30 5368 N 495.163 1.55791 0.238111 0
M  V30 5369 C 496.126 1.90239 1.27835 0
M  V30 5370 C 497.126 0.779552 1.4064 0
M  V30 5371 O 498.316 1.04747 1.3919 0
M  V30 5372 C 495.448 2.13859 2.65475 0
M  V30 5373 H 496.641 2.83262 0.985034 0
M  V30 5374 H 494.194 1.48818 0.477799 0
M  V30 5375 H 494.929 1.23334 2.99932 0
M  V30 5376 H 494.714 2.95643 2.57561 0
M  V30 5377 H 496.204 2.41664 3.40571 0
M  V30 5378 N 496.642 -0.504142 1.49319 0
M  V30 5379 C 497.605 -1.5883 1.65244 0
M  V30 5380 C 498.605 -1.52009 0.524386 0
M  V30 5381 O 499.795 -1.55218 0.79077 0
M  V30 5382 C 496.927 -2.98481 1.64687 0
M  V30 5383 H 498.12 -1.4604 2.61939 0
M  V30 5384 H 495.673 -0.728144 1.38303 0
M  V30 5385 H 496.408 -3.16751 0.695644 0
M  V30 5386 H 496.193 -3.0484 2.46607 0
M  V30 5387 H 497.683 -3.77256 1.79075 0
M  V30 5388 N 498.12 -1.38341 -0.754957 0
M  V30 5389 C 499.366 -1.34672 -1.51628 0
M  V30 5390 C 499.699 0.0636036 -1.94096 0
M  V30 5391 O 498.974 1.0245 -1.6533 0
M  V30 5392 C 499.257 -2.30116 -2.76981 0
M  V30 5393 C 499.11 -3.80003 -2.4066 0
M  V30 5394 C 500.429 -2.23715 -3.78998 0
M  V30 5395 H 497.548 -0.490517 -0.550056 0
M  V30 5396 H 500.19 -1.69178 -0.864807 0
M  V30 5397 H 498.34 -2.00821 -3.3257 0
M  V30 5398 H 500.012 -4.19966 -1.90856 0
M  V30 5399 H 498.255 -3.97751 -1.73137 0
M  V30 5400 H 498.926 -4.42244 -3.30339 0
M  V30 5401 H 501.402 -2.49574 -3.32945 0
M  V30 5402 H 500.278 -2.9261 -4.64403 0
M  V30 5403 H 500.539 -1.23554 -4.24484 0
M  V30 5404 N 499.598 0.982988 -1.23187 0
M  V30 5405 C 500.546 2.09616 -1.00817 0
M  V30 5406 C 501.54 1.6932 0.0519995 0
M  V30 5407 O 502.746 1.79715 -0.101284 0
M  V30 5408 H 499.121 0.685628 -0.308899 0
M  V30 5409 H 501.092 2.25652 -1.95253 0
M  V30 5410 C 499.841 3.42249 -0.613243 0
M  V30 5411 H 499.164 3.73705 -1.42073 0
M  V30 5412 H 500.604 4.21086 -0.496208 0
M  V30 5413 C 499.063 3.30002 0.678233 0
M  V30 5414 O 499.593 3.6263 1.72807 0
M  V30 5415 N 497.799 2.83164 0.653165 0
M  V30 5416 H 497.346 2.56811 -0.201492 0
M  V30 5417 H 497.304 2.75352 1.51752 0
M  V30 5418 N 501.076 1.04316 1.18135 0
M  V30 5419 C 502.323 0.74802 1.88178 0
M  V30 5420 C 502.651 -0.72441 1.80506 0
M  V30 5421 O 501.906 -1.54463 1.20165 0
M  V30 5422 C 502.205 1.16271 3.37958 0
M  V30 5423 C 501.871 2.63585 3.65833 0
M  V30 5424 C 500.533 3.03829 3.73151 0
M  V30 5425 C 502.885 3.58822 3.78016 0
M  V30 5426 C 500.213 4.38194 3.90132 0
M  V30 5427 C 502.565 4.92909 3.96514 0
M  V30 5428 C 501.229 5.3282 4.02068 0
M  V30 5429 H 500.499 0.27372 0.688592 0
M  V30 5430 H 503.146 1.30863 1.39811 0
M  V30 5431 H 501.451 0.520938 3.88321 0
M  V30 5432 H 503.148 0.911672 3.90499 0
M  V30 5433 H 499.738 2.31414 3.60757 0
M  V30 5434 H 503.922 3.28875 3.71692 0
M  V30 5435 H 499.178 4.68631 3.92677 0
M  V30 5436 H 503.352 5.66606 4.04883 0
M  V30 5437 H 500.979 6.36943 4.14979 0
M  V30 5438 N 502.554 -1.34406 0.822964 0
M  V30 5439 C 503.8 -1.98578 0.411666 0
M  V30 5440 C 504.133 -1.65093 -1.02264 0
M  V30 5441 O 503.408 -0.92258 -1.71227 0
M  V30 5442 C 503.691 -3.54823 0.614235 0
M  V30 5443 C 503.544 -3.9805 2.09466 0
M  V30 5444 C 504.863 -4.40071 0.050221 0
M  V30 5445 H 501.982 -0.721355 0.151047 0
M  V30 5446 H 504.624 -1.59301 1.03554 0
M  V30 5447 H 502.774 -3.88411 0.0831774 0
M  V30 5448 H 504.446 -3.74795 2.68936 0
M  V30 5449 H 502.689 -3.4836 2.5851 0
M  V30 5450 H 503.36 -5.06819 2.18721 0
M  V30 5451 H 505.836 -4.13037 0.503953 0
M  V30 5452 H 504.712 -5.48452 0.221759 0
M  V30 5453 H 504.973 -4.29576 -1.04482 0
M  V30 5454 N 504.032 -0.577932 -1.46621 0
M  V30 5455 C 505.257 -0.0652536 -2.07297 0
M  V30 5456 C 505.682 1.22828 -1.4246 0
M  V30 5457 O 505.04 1.74075 -0.506718 0
M  V30 5458 C 505.088 0.0920589 -3.60482 0
M  V30 5459 O 504.192 1.14972 -3.96049 0
M  V30 5460 H 503.533 -0.06065 -0.661224 0
M  V30 5461 H 506.063 -0.799515 -1.88332 0
M  V30 5462 H 506.073 0.299741 -4.06897 0
M  V30 5463 H 504.748 -0.852612 -4.07067 0
M  V30 5464 H 503.325 0.920879 -3.61351 0
M  V30 5465 N 505.51 1.54411 -0.315457 0
M  V30 5466 C 506.926 1.59556 0.037464 0
M  V30 5467 C 507.126 1.33217 1.5118 0
M  V30 5468 O 506.182 1.11264 2.26664 0
M  V30 5469 C 507.495 2.98372 -0.373477 0
M  V30 5470 C 509.043 3.11324 -0.323452 0
M  V30 5471 C 509.518 4.52472 -0.709433 0
M  V30 5472 N 511.009 4.58437 -0.662524 0
M  V30 5473 C 511.744 5.65751 -0.933474 0
M  V30 5474 N 511.24 6.81039 -1.27114 0
M  V30 5475 N 513.033 5.55489 -0.859573 0
M  V30 5476 H 505.184 1.6979 -1.27614 0
M  V30 5477 H 507.447 0.793732 -0.518356 0
M  V30 5478 H 507.153 3.22618 -1.40037 0
M  V30 5479 H 507.027 3.76264 0.265615 0
M  V30 5480 H 509.414 2.86818 0.694223 0
M  V30 5481 H 509.495 2.35555 -0.997367 0
M  V30 5482 H 509.139 4.7771 -1.72498 0
M  V30 5483 H 509.069 5.26598 -0.0132923 0
M  V30 5484 H 511.56 3.75636 -0.413065 0
M  V30 5485 H 511.873 7.58816 -1.46348 0
M  V30 5486 H 510.218 6.82555 -1.30932 0
M  V30 5487 H 513.409 4.64299 -0.595324 0
M  V30 5488 H 513.582 6.39036 -1.0741 0
M  V30 5489 N 506.988 0.0434614 1.5754 0
M  V30 5490 C 507.92 -0.962586 2.08007 0
M  V30 5491 C 508.933 -1.27972 1.00634 0
M  V30 5492 O 510.122 -1.24186 1.28219 0
M  V30 5493 C 507.222 -2.28621 2.50171 0
M  V30 5494 C 506.395 -2.15214 3.80791 0
M  V30 5495 C 505.454 -3.30633 4.09351 0
M  V30 5496 O 504.48 -3.0688 4.79388 0
M  V30 5497 N 505.682 -4.54873 3.60654 0
M  V30 5498 H 508.447 -0.531891 2.94942 0
M  V30 5499 H 506.008 -0.142965 1.61268 0
M  V30 5500 H 508 -3.04689 2.66359 0
M  V30 5501 H 506.57 -2.63283 1.68525 0
M  V30 5502 H 505.79 -1.23785 3.74261 0
M  V30 5503 H 507.078 -2.03475 4.66343 0
M  V30 5504 H 506.476 -4.77063 3.04019 0
M  V30 5505 H 505.033 -5.2806 3.82094 0
M  V30 5506 N 508.466 -1.55915 -0.229846 0
M  V30 5507 C 509.416 -1.8813 -1.28807 0
M  V30 5508 C 510.4 -0.743621 -1.42685 0
M  V30 5509 O 511.592 -1.00588 -1.4564 0
M  V30 5510 C 508.721 -2.19431 -2.64017 0
M  V30 5511 C 507.807 -3.39569 -2.54074 0
M  V30 5512 N 508.198 -4.58404 -2.13774 0
M  V30 5513 C 506.496 -3.43019 -2.85051 0
M  V30 5514 C 507.197 -5.40557 -2.1488 0
M  V30 5515 N 506.173 -4.80054 -2.55047 0
M  V30 5516 H 509.975 -2.77527 -0.967261 0
M  V30 5517 H 507.489 -1.5637 -0.438433 0
M  V30 5518 H 509.486 -2.40681 -3.40409 0
M  V30 5519 H 508.146 -1.31341 -2.9695 0
M  V30 5520 H 509.157 -4.83716 -1.8504 0
M  V30 5521 H 505.834 -2.65249 -3.22411 0
M  V30 5522 H 507.224 -6.45666 -1.85918 0
M  V30 5523 N 509.944 0.496216 -1.49584 0
M  V30 5524 C 510.891 1.59722 -1.66606 0
M  V30 5525 C 511.861 1.58158 -0.507477 0
M  V30 5526 O 513.046 1.76072 -0.735076 0
M  V30 5527 C 510.186 2.97844 -1.74308 0
M  V30 5528 C 509.299 3.09388 -3.01502 0
M  V30 5529 C 508.434 4.38271 -3.00153 0
M  V30 5530 C 507.473 4.43466 -4.21906 0
M  V30 5531 N 506.61 5.63784 -4.1844 0
M  V30 5532 H 511.45 1.44515 -2.60613 0
M  V30 5533 H 508.987 0.703048 -1.29212 0
M  V30 5534 H 510.945 3.77907 -1.76754 0
M  V30 5535 H 509.575 3.11743 -0.837619 0
M  V30 5536 H 508.627 2.22357 -3.08645 0
M  V30 5537 H 509.939 3.09085 -3.91494 0
M  V30 5538 H 509.093 5.2666 -3.01188 0
M  V30 5539 H 507.832 4.41146 -2.07947 0
M  V30 5540 H 506.837 3.53478 -4.21109 0
M  V30 5541 H 508.062 4.42303 -5.1531 0
M  V30 5542 H 506.008 5.67491 -3.29074 0
M  V30 5543 H 505.925 5.65118 -5.02173 0
M  V30 5544 H 507.193 6.54367 -4.23585 0
M  V30 5545 N 511.423 1.38739 0.74761 0
M  V30 5546 C 512.333 1.38696 1.89211 0
M  V30 5547 C 513.349 0.283303 1.71678 0
M  V30 5548 O 514.525 0.522713 1.94498 0
M  V30 5549 C 511.59 1.21662 3.24653 0
M  V30 5550 C 510.651 2.41886 3.54669 0
M  V30 5551 C 509.884 2.25655 4.83648 0
M  V30 5552 O 510.107 1.25339 5.56459 0
M  V30 5553 O 509.041 3.14372 5.13277 0
M  V30 5554 H 512.867 2.35143 1.92202 0
M  V30 5555 H 510.452 1.19721 0.893708 0
M  V30 5556 H 512.334 1.14246 4.05618 0
M  V30 5557 H 511.009 0.283024 3.2246 0
M  V30 5558 H 509.916 2.54877 2.73841 0
M  V30 5559 H 511.249 3.33895 3.61628 0
M  V30 5560 N 512.901 -0.976442 1.23707 0
M  V30 5561 C 514.148 -1.71827 1.07153 0
M  V30 5562 C 514.476 -1.9053 -0.390982 0
M  V30 5563 O 513.731 -1.45779 -1.30564 0
M  V30 5564 C 514.03 -3.11814 1.74662 0
M  V30 5565 C 513.696 -3.12978 3.24585 0
M  V30 5566 C 512.358 -3.13003 3.6549 0
M  V30 5567 C 514.71 -3.07986 4.20469 0
M  V30 5568 C 512.038 -3.05757 5.00729 0
M  V30 5569 C 514.39 -3.02282 5.55705 0
M  V30 5570 C 513.054 -3.00631 5.95968 0
M  V30 5571 H 512.324 -0.628758 0.392102 0
M  V30 5572 H 514.971 -1.14239 1.53693 0
M  V30 5573 H 513.276 -3.72812 1.20492 0
M  V30 5574 H 514.973 -3.67989 1.59328 0
M  V30 5575 H 511.563 -3.13718 2.92026 0
M  V30 5576 H 515.747 -3.07103 3.89874 0
M  V30 5577 H 511.003 -3.02834 5.31132 0
M  V30 5578 H 515.177 -2.97376 6.29714 0
M  V30 5579 H 512.804 -2.94771 7.00724 0
M  V30 5580 N 514.379 -1.04941 -1.1758 0
M  V30 5581 C 515.309 -0.669172 -2.23706 0
M  V30 5582 C 516.29 0.331835 -1.66832 0
M  V30 5583 O 517.475 0.209988 -1.93061 0
M  V30 5584 C 514.605 -0.0404889 -3.47276 0
M  V30 5585 C 513.559 -0.965983 -4.16957 0
M  V30 5586 C 512.885 -0.201312 -5.34321 0
M  V30 5587 C 514.185 -2.28902 -4.69469 0
M  V30 5588 H 515.879 -1.55639 -2.55767 0
M  V30 5589 H 513.425 -0.749793 -1.22939 0
M  V30 5590 H 515.378 0.237298 -4.20731 0
M  V30 5591 H 514.102 0.881658 -3.14475 0
M  V30 5592 H 512.761 -1.22829 -3.45411 0
M  V30 5593 H 512.409 0.723519 -4.97769 0
M  V30 5594 H 512.109 -0.817968 -5.81879 0
M  V30 5595 H 513.633 0.0692499 -6.10561 0
M  V30 5596 H 515.047 -2.07132 -5.34574 0
M  V30 5597 H 513.444 -2.85942 -5.27596 0
M  V30 5598 H 514.514 -2.92937 -3.86414 0
M  V30 5599 N 515.857 1.33968 -0.830081 0
M  V30 5600 C 517.273 1.51003 -0.516742 0
M  V30 5601 C 517.473 1.77286 0.957694 0
M  V30 5602 O 516.529 1.82797 1.74188 0
M  V30 5603 C 517.842 2.67036 -1.38247 0
M  V30 5604 C 519.39 2.80919 -1.38034 0
M  V30 5605 C 519.865 4.00004 -2.23071 0
M  V30 5606 N 521.356 4.07224 -2.20733 0
M  V30 5607 C 522.091 4.98541 -2.83275 0
M  V30 5608 N 521.587 5.95033 -3.54835 0
M  V30 5609 N 523.38 4.91469 -2.72791 0
M  V30 5610 H 515.531 1.15168 -1.78466 0
M  V30 5611 H 517.794 0.565443 -0.760906 0
M  V30 5612 H 517.5 2.54266 -2.42985 0
M  V30 5613 H 517.374 3.62226 -1.05225 0
M  V30 5614 H 519.761 2.93127 -0.340713 0
M  V30 5615 H 519.842 1.86517 -1.75057 0
M  V30 5616 H 519.486 3.88557 -3.27087 0
M  V30 5617 H 519.416 4.93634 -1.83394 0
M  V30 5618 H 521.907 3.38162 -1.68687 0
M  V30 5619 H 522.22 6.61357 -3.99784 0
M  V30 5620 H 520.565 5.95135 -3.58942 0
M  V30 5621 H 523.756 4.15048 -2.16456 0
M  V30 5622 H 523.929 5.62439 -3.21818 0
M  V30 5623 N 517.335 0.585699 1.46312 0
M  V30 5624 C 518.265 -0.133556 2.33118 0
M  V30 5625 C 519.246 -0.880707 1.45525 0
M  V30 5626 O 520.431 -0.855579 1.74337 0
M  V30 5627 C 517.561 -1.14585 3.27853 0
M  V30 5628 C 516.515 -0.513341 4.2491 0
M  V30 5629 C 515.841 -1.63231 5.09175 0
M  V30 5630 C 517.141 0.551413 5.19381 0
M  V30 5631 H 518.835 0.59121 2.93505 0
M  V30 5632 H 516.381 0.285761 1.41136 0
M  V30 5633 H 518.334 -1.65741 3.87438 0
M  V30 5634 H 517.058 -1.90093 2.65579 0
M  V30 5635 H 515.717 -0.0228349 3.66593 0
M  V30 5636 H 515.365 -2.37713 4.43285 0
M  V30 5637 H 515.065 -1.21473 5.74907 0
M  V30 5638 H 516.589 -2.14658 5.71624 0
M  V30 5639 H 518.003 0.124804 5.73164 0
M  V30 5640 H 516.4 0.889486 5.93471 0
M  V30 5641 H 517.47 1.43655 4.63132 0
M  V30 5642 N 518.813 -1.54241 0.323641 0
M  V30 5643 C 520.229 -1.59574 -0.0290018 0
M  V30 5644 C 520.429 -1.34017 -1.50472 0
M  V30 5645 O 519.485 -1.12464 -2.26071 0
M  V30 5646 C 520.798 -2.98169 0.389295 0
M  V30 5647 C 522.346 -3.11148 0.339958 0
M  V30 5648 C 522.821 -4.5209 0.733418 0
M  V30 5649 N 524.312 -4.5808 0.686827 0
M  V30 5650 C 525.047 -5.65248 0.963464 0
M  V30 5651 N 524.543 -6.80355 1.30724 0
M  V30 5652 N 526.336 -5.55025 0.88902 0
M  V30 5653 H 518.487 -1.6911 1.28512 0
M  V30 5654 H 520.75 -0.790972 0.522558 0
M  V30 5655 H 520.456 -3.21871 1.41746 0
M  V30 5656 H 520.33 -3.76399 -0.245657 0
M  V30 5657 H 522.717 -2.87182 -0.679002 0
M  V30 5658 H 522.798 -2.35023 1.00985 0
M  V30 5659 H 522.442 -4.76788 1.75029 0
M  V30 5660 H 522.372 -5.26584 0.0412189 0
M  V30 5661 H 524.863 -3.75411 0.43298 0
M  V30 5662 H 525.176 -7.58029 1.5037 0
M  V30 5663 H 523.521 -6.81851 1.3455 0
M  V30 5664 H 526.712 -4.63977 0.619939 0
M  V30 5665 H 526.885 -6.38458 1.10797 0
M  V30 5666 N 520.291 -0.0518155 -1.57515 0
M  V30 5667 C 521.707 0.304735 -1.56664 0
M  V30 5668 C 521.907 1.71395 -1.05953 0
M  V30 5669 O 520.963 2.42123 -0.716414 0
M  V30 5670 C 522.276 0.132614 -3.00407 0
M  V30 5671 C 523.824 0.20367 -3.12337 0
M  V30 5672 C 524.299 0.0600706 -4.57961 0
M  V30 5673 N 525.79 0.116326 -4.63054 0
M  V30 5674 C 526.525 0.0293363 -5.73392 0
M  V30 5675 N 526.021 -0.110038 -6.92713 0
M  V30 5676 N 527.814 0.0849651 -5.62036 0
M  V30 5677 H 519.965 -0.973056 -1.888 0
M  V30 5678 H 522.228 -0.377781 -0.869474 0
M  V30 5679 H 521.934 -0.839019 -3.41546 0
M  V30 5680 H 521.808 0.893376 -3.66468 0
M  V30 5681 H 524.195 1.16578 -2.71097 0
M  V30 5682 H 524.276 -0.587857 -2.48954 0
M  V30 5683 H 523.92 -0.898715 -4.99886 0
M  V30 5684 H 523.85 0.87075 -5.19351 0
M  V30 5685 H 526.341 0.22327 -3.7724 0
M  V30 5686 H 526.654 -0.169104 -7.72615 0
M  V30 5687 H 524.999 -0.145132 -6.94848 0
M  V30 5688 H 528.19 0.192411 -4.67704 0
M  V30 5689 H 528.363 0.0137131 -6.47999 0
M  V30 5690 N 521.769 1.56035 0.221574 0
M  V30 5691 C 523.185 1.49026 0.571271 0
M  V30 5692 C 523.385 0.746912 1.87146 0
M  V30 5693 O 522.441 0.286566 2.50869 0
M  V30 5694 C 523.754 2.93579 0.650522 0
M  V30 5695 C 525.302 3.04099 0.741151 0
M  V30 5696 C 525.777 4.5001 0.851747 0
M  V30 5697 N 527.268 4.54053 0.915968 0
M  V30 5698 C 528.003 5.64232 1.02125 0
M  V30 5699 N 527.499 6.84164 1.09049 0
M  V30 5700 N 529.292 5.52084 1.05639 0
M  V30 5701 H 521.443 2.02791 -0.63162 0
M  V30 5702 H 523.706 0.921736 -0.221602 0
M  V30 5703 H 523.412 3.50912 -0.235253 0
M  V30 5704 H 523.286 3.45476 1.51413 0
M  V30 5705 H 525.673 2.4683 1.61737 0
M  V30 5706 H 525.754 2.55371 -0.148128 0
M  V30 5707 H 525.398 5.07896 -0.0200117 0
M  V30 5708 H 525.328 4.96444 1.75644 0
M  V30 5709 H 527.819 3.67683 0.872782 0
M  V30 5710 H 528.132 7.63883 1.1706 0
M  V30 5711 H 526.477 6.86875 1.05962 0
M  V30 5712 H 529.668 4.57317 0.998953 0
M  V30 5713 H 529.841 6.37983 1.13498 0
M  V30 5714 N 523.247 -0.488276 1.49845 0
M  V30 5715 C 524.179 -1.60539 1.63584 0
M  V30 5716 C 525.192 -1.5434 0.517972 0
M  V30 5717 O 526.381 -1.60041 0.790516 0
M  V30 5718 C 523.481 -2.99374 1.58835 0
M  V30 5719 C 522.654 -3.30624 2.86368 0
M  V30 5720 C 521.713 -4.4893 2.74496 0
M  V30 5721 O 520.739 -4.50085 3.48443 0
M  V30 5722 N 521.941 -5.49591 1.86894 0
M  V30 5723 H 524.706 -1.49176 2.59936 0
M  V30 5724 H 522.267 -0.67639 1.47094 0
M  V30 5725 H 524.259 -3.76459 1.48529 0
M  V30 5726 H 522.829 -3.04595 0.702892 0
M  V30 5727 H 522.049 -2.42314 3.1093 0
M  V30 5728 H 523.337 -3.48305 3.70892 0
M  V30 5729 H 522.735 -5.51467 1.26097 0
M  V30 5730 H 521.292 -6.25728 1.82503 0
M  V30 5731 N 524.725 -1.39134 -0.740242 0
M  V30 5732 C 525.672 -1.37434 -1.8542 0
M  V30 5733 C 526.642 -0.234822 -1.64432 0
M  V30 5734 O 527.827 -0.429125 -1.85912 0
M  V30 5735 C 524.967 -1.21844 -3.22875 0
M  V30 5736 C 524.08 -2.45296 -3.55603 0
M  V30 5737 C 523.215 -2.22334 -4.82432 0
M  V30 5738 C 522.254 -3.41488 -5.07988 0
M  V30 5739 N 521.391 -3.17877 -6.26018 0
M  V30 5740 H 526.231 -2.3266 -1.86207 0
M  V30 5741 H 523.768 -1.15578 -0.909946 0
M  V30 5742 H 525.726 -1.10818 -4.02213 0
M  V30 5743 H 524.356 -0.3025 -3.21379 0
M  V30 5744 H 523.408 -2.66945 -2.71006 0
M  V30 5745 H 524.72 -3.34063 -3.7041 0
M  V30 5746 H 523.874 -2.0852 -5.69741 0
M  V30 5747 H 522.613 -1.30954 -4.6979 0
M  V30 5748 H 521.618 -3.55807 -4.19144 0
M  V30 5749 H 522.843 -4.33763 -5.22519 0
M  V30 5750 H 520.789 -2.29156 -6.14673 0
M  V30 5751 H 520.706 -4.00198 -6.41387 0
M  V30 5752 H 521.974 -3.07746 -7.16179 0
M  V30 5753 N 526.204 0.969867 -1.24223 0
M  V30 5754 C 527.62 1.23809 -1.00716 0
M  V30 5755 C 527.82 1.99469 0.285358 0
M  V30 5756 O 526.876 2.31764 1.00207 0
M  V30 5757 C 528.189 2.02734 -2.2208 0
M  V30 5758 C 529.737 2.15834 -2.26681 0
M  V30 5759 C 530.212 2.98154 -3.47661 0
M  V30 5760 N 531.703 3.05737 -3.47964 0
M  V30 5761 C 532.438 3.69785 -4.38231 0
M  V30 5762 N 531.934 4.35569 -5.3875 0
M  V30 5763 N 533.727 3.66775 -4.25949 0
M  V30 5764 H 525.878 0.463294 -2.07286 0
M  V30 5765 H 528.141 0.267348 -0.909521 0
M  V30 5766 H 527.847 1.54524 -3.15935 0
M  V30 5767 H 527.721 3.0347 -2.24021 0
M  V30 5768 H 530.108 2.63248 -1.33359 0
M  V30 5769 H 530.189 1.14453 -2.28767 0
M  V30 5770 H 529.833 2.51435 -4.41297 0
M  V30 5771 H 529.763 3.99729 -3.42818 0
M  V30 5772 H 532.254 2.58941 -2.75242 0
M  V30 5773 H 532.567 4.82251 -6.03866 0
M  V30 5774 H 530.912 4.34244 -5.42639 0
M  V30 5775 H 534.103 3.14558 -3.46657 0
M  V30 5776 H 534.276 4.16407 -4.96497 0
M  V30 5777 N 527.682 1.05563 1.17022 0
M  V30 5778 C 528.614 0.617888 2.20714 0
M  V30 5779 C 529.627 -0.320303 1.59618 0
M  V30 5780 O 530.816 -0.112449 1.78145 0
M  V30 5781 C 527.916 -0.115333 3.38704 0
M  V30 5782 C 527.089 0.834493 4.29366 0
M  V30 5783 C 526.148 0.141855 5.26009 0
M  V30 5784 O 525.174 0.777151 5.6387 0
M  V30 5785 N 526.376 -1.11934 5.69606 0
M  V30 5786 H 529.141 1.50981 2.58892 0
M  V30 5787 H 526.702 0.938008 1.31958 0
M  V30 5788 H 528.694 -0.588918 4.00392 0
M  V30 5789 H 527.264 -0.908967 2.99093 0
M  V30 5790 H 526.484 1.48762 3.65053 0
M  V30 5791 H 527.772 1.4791 4.86827 0
M  V30 5792 H 527.17 -1.65574 5.40927 0
M  V30 5793 H 525.727 -1.53692 6.33421 0
M  V30 5794 N 529.16 -1.33526 0.837174 0
M  V30 5795 C 530.108 -2.31168 0.257698 0
M  V30 5796 C 531.102 -1.5806 -0.609388 0
M  V30 5797 O 532.308 -1.72941 -0.499139 0
M  V30 5798 H 528.683 -0.74922 0.0646058 0
M  V30 5799 H 530.654 -2.77552 1.09578 0
M  V30 5800 C 529.403 -3.4326 -0.553887 0
M  V30 5801 H 528.726 -3.99665 0.104008 0
M  V30 5802 H 530.166 -4.13782 -0.925219 0
M  V30 5803 C 528.625 -2.88965 -1.73207 0
M  V30 5804 O 529.155 -2.85013 -2.83073 0
M  V30 5805 N 527.361 -2.45596 -1.55342 0
M  V30 5806 H 526.908 -2.49009 -0.659705 0
M  V30 5807 H 526.866 -2.0962 -2.34322 0
M  V30 5808 N 530.638 -0.59345 -1.46 0
M  V30 5809 C 531.585 0.133618 -2.30413 0
M  V30 5810 C 532.555 0.873736 -1.41262 0
M  V30 5811 O 533.74 0.862279 -1.70204 0
M  V30 5812 C 530.88 1.13434 -3.25924 0
M  V30 5813 C 529.993 0.39656 -4.30176 0
M  V30 5814 C 529.128 1.38575 -5.12806 0
M  V30 5815 C 528.167 0.634984 -6.08797 0
M  V30 5816 N 527.304 1.57276 -6.84258 0
M  V30 5817 H 532.144 -0.592252 -2.92055 0
M  V30 5818 H 529.681 -0.303874 -1.43927 0
M  V30 5819 H 531.639 1.72752 -3.79753 0
M  V30 5820 H 530.269 1.82779 -2.66067 0
M  V30 5821 H 529.321 -0.311861 -3.79119 0
M  V30 5822 H 530.633 -0.189869 -4.98438 0
M  V30 5823 H 529.787 2.05141 -5.70966 0
M  V30 5824 H 528.526 2.00611 -4.44529 0
M  V30 5825 H 527.531 -0.0443925 -5.49782 0
M  V30 5826 H 528.756 0.0198678 -6.79097 0
M  V30 5827 H 526.702 2.18103 -6.18682 0
M  V30 5828 H 526.619 1.03941 -7.48821 0
M  V30 5829 H 527.887 2.22844 -7.46968 0
M  V30 5830 N 532.116 1.54067 -0.331816 0
M  V30 5831 C 533.026 2.28322 0.539104 0
M  V30 5832 C 534.042 1.32985 1.1221 0
M  V30 5833 O 535.218 1.6601 1.1403 0
M  V30 5834 C 532.283 3.03277 1.68 0
M  V30 5835 C 531.344 4.14216 1.12798 0
M  V30 5836 C 530.577 4.85588 2.2145 0
M  V30 5837 O 530.8 4.56536 3.41952 0
M  V30 5838 O 529.734 5.72309 1.86404 0
M  V30 5839 H 533.56 3.03632 -0.0641692 0
M  V30 5840 H 531.145 1.49083 -0.0972365 0
M  V30 5841 H 533.027 3.50189 2.34405 0
M  V30 5842 H 531.702 2.30834 2.2693 0
M  V30 5843 H 530.609 3.71635 0.428782 0
M  V30 5844 H 531.942 4.88727 0.583698 0
M  V30 5845 N 533.594 0.0601682 1.57485 0
M  V30 5846 C 534.504 -0.926121 2.15546 0
M  V30 5847 C 535.52 -1.33532 1.11558 0
M  V30 5848 O 536.696 -1.4104 1.4377 0
M  V30 5849 C 533.761 -2.17952 2.69625 0
M  V30 5850 C 532.822 -1.82783 3.88444 0
M  V30 5851 C 532.055 -3.02148 4.39935 0
M  V30 5852 O 532.278 -4.15803 3.90466 0
M  V30 5853 O 531.212 -2.82639 5.31412 0
M  V30 5854 H 535.038 -0.462289 3.00161 0
M  V30 5855 H 532.623 -0.162246 1.48516 0
M  V30 5856 H 534.505 -2.91474 3.04337 0
M  V30 5857 H 533.18 -2.63456 1.88077 0
M  V30 5858 H 532.087 -1.06549 3.58606 0
M  V30 5859 H 533.42 -1.42072 4.7125 0
M  V30 5860 N 535.072 -1.5615 -0.213296 0
M  V30 5861 C 536.349 -1.70349 -0.961281 0
M  V30 5862 C 536.729 -0.609791 -2.02101 0
M  V30 5863 O 536.077 0.381987 -2.25285 0
M  V30 5864 C 536.287 -3.11982 -1.56424 0
M  V30 5865 C 537.635 -3.71649 -2.05334 0
M  V30 5866 O 538.659 -3.14995 -1.66302 0
M  V30 5867 O 537.518 -4.71038 -2.77102 0
M  V30 5868 H 534.612 -0.694121 -0.449582 0
M  V30 5869 H 537.158 -1.68464 -0.204426 0
M  V30 5870 H 535.93 -3.83046 -0.799457 0
M  V30 5871 H 535.553 -3.18019 -2.38641 0
M  V30 5872 N 536.55 0.480323 -1.50102 0
M  V30 5873 C 537.796 1.23489 -1.60867 0
M  V30 5874 C 538.129 1.91809 -0.303827 0
M  V30 5875 O 537.404 1.81694 0.694092 0
M  V30 5876 C 537.687 2.28578 -2.78252 0
M  V30 5877 C 537.54 1.64624 -4.18592 0
M  V30 5878 C 538.859 3.2997 -2.91218 0
M  V30 5879 H 535.978 0.447605 -0.585507 0
M  V30 5880 H 538.62 0.530005 -1.82458 0
M  V30 5881 H 536.77 2.88697 -2.59974 0
M  V30 5882 H 538.442 1.08173 -4.48438 0
M  V30 5883 H 536.685 0.949645 -4.23278 0
M  V30 5884 H 537.356 2.40946 -4.96638 0
M  V30 5885 H 539.832 2.79864 -3.07921 0
M  V30 5886 H 538.708 4.00839 -3.74993 0
M  V30 5887 H 538.969 3.93541 -2.0144 0
M  V30 5888 N 538.028 1.39524 0.732853 0
M  V30 5889 C 539.256 1.40143 1.52209 0
M  V30 5890 C 539.671 -0.00348836 1.888 0
M  V30 5891 O 539.028 -0.975357 1.5425 0
M  V30 5892 C 539.079 2.27632 2.8083 0
M  V30 5893 O 538.8 3.62654 2.45792 0
M  V30 5894 C 540.301 2.36658 3.74844 0
M  V30 5895 H 537.521 0.478604 0.470297 0
M  V30 5896 H 540.065 1.83366 0.905388 0
M  V30 5897 H 538.22 1.87818 3.38826 0
M  V30 5898 H 538.634 4.08941 3.28431 0
M  V30 5899 H 540.108 3.02118 4.61984 0
M  V30 5900 H 540.585 1.38638 4.16745 0
M  V30 5901 H 541.191 2.76951 3.22766 0
M  V30 5902 N 539.506 -0.963266 1.24736 0
M  V30 5903 C 540.922 -1.23273 1.01371 0
M  V30 5904 C 541.122 -1.99618 -0.274776 0
M  V30 5905 O 540.178 -2.32293 -0.989769 0
M  V30 5906 C 541.491 -2.01554 2.23152 0
M  V30 5907 C 543.039 -2.14629 2.27823 0
M  V30 5908 C 543.514 -2.96307 3.49237 0
M  V30 5909 N 545.005 -3.03887 3.49581 0
M  V30 5910 C 545.74 -3.67456 4.40186 0
M  V30 5911 N 545.236 -4.32706 5.41052 0
M  V30 5912 N 547.029 -3.64511 4.27888 0
M  V30 5913 H 539.18 -0.452294 2.07528 0
M  V30 5914 H 541.443 -0.262521 0.910926 0
M  V30 5915 H 541.149 -1.52847 3.1675 0
M  V30 5916 H 541.023 -3.02278 2.25628 0
M  V30 5917 H 543.41 -2.62537 1.34753 0
M  V30 5918 H 543.491 -1.13238 2.2937 0
M  V30 5919 H 543.135 -2.49091 4.42624 0
M  V30 5920 H 543.065 -3.97905 3.44933 0
M  V30 5921 H 545.556 -2.57477 2.76611 0
M  V30 5922 H 545.869 -4.79042 6.06415 0
M  V30 5923 H 544.214 -4.31361 5.44934 0
M  V30 5924 H 547.405 -3.12715 3.4832 0
M  V30 5925 H 547.578 -4.13768 4.98698 0
M  V30 5926 N 540.985 -1.06182 -1.16461 0
M  V30 5927 C 541.895 -0.682671 -2.24448 0
M  V30 5928 C 542.911 0.30078 -1.71381 0
M  V30 5929 O 544.087 0.150376 -2.00838 0
M  V30 5930 C 541.152 -0.0737202 -3.46622 0
M  V30 5931 C 540.213 -1.10889 -4.14731 0
M  V30 5932 C 539.446 -0.528908 -5.31073 0
M  V30 5933 O 539.669 0.65868 -5.66584 0
M  V30 5934 O 538.603 -1.26805 -5.88391 0
M  V30 5935 H 542.429 -1.58291 -2.59187 0
M  V30 5936 H 540.014 -0.834013 -1.23954 0
M  V30 5937 H 541.896 0.264192 -4.20571 0
M  V30 5938 H 540.571 0.800015 -3.13658 0
M  V30 5939 H 539.478 -1.49896 -3.42756 0
M  V30 5940 H 540.811 -1.95412 -4.51747 0
M  V30 5941 N 542.463 1.3308 -0.844243 0
M  V30 5942 C 543.688 2.02341 -0.455282 0
M  V30 5943 C 544.113 1.6308 0.93737 0
M  V30 5944 O 543.471 0.826118 1.61385 0
M  V30 5945 C 543.519 3.55743 -0.58988 0
M  V30 5946 O 542.623 4.1063 0.38166 0
M  V30 5947 H 541.964 0.637898 -0.184343 0
M  V30 5948 H 544.494 1.6986 -1.14056 0
M  V30 5949 H 544.504 4.05243 -0.473522 0
M  V30 5950 H 543.179 3.83662 -1.60549 0
M  V30 5951 H 541.756 3.72236 0.22241 0
M  V30 5952 N 543.941 0.601185 1.45683 0
M  V30 5953 C 545.357 0.264315 1.57396 0
M  V30 5954 C 545.557 -1.23324 1.59353 0
M  V30 5955 O 544.613 -2.01594 1.52039 0
M  V30 5956 C 545.926 0.929839 2.85962 0
M  V30 5957 C 547.474 0.905156 2.99626 0
M  V30 5958 C 547.949 1.55057 4.30954 0
M  V30 5959 N 549.44 1.51576 4.37697 0
M  V30 5960 C 550.175 1.98436 5.37969 0
M  V30 5961 N 549.671 2.53352 6.44813 0
M  V30 5962 N 551.464 1.89242 5.29286 0
M  V30 5963 H 543.615 1.57363 1.42656 0
M  V30 5964 H 545.878 0.658831 0.681649 0
M  V30 5965 H 545.584 1.98404 2.90394 0
M  V30 5966 H 545.458 0.449224 3.74515 0
M  V30 5967 H 547.845 -0.14048 2.94765 0
M  V30 5968 H 547.926 1.42397 2.12501 0
M  V30 5969 H 547.57 2.5955 4.36573 0
M  V30 5970 H 547.5 1.00682 5.16886 0
M  V30 5971 H 549.991 1.11452 3.61091 0
M  V30 5972 H 550.304 2.86918 7.17564 0
M  V30 5973 H 548.649 2.57388 6.45582 0
M  V30 5974 H 551.84 1.46083 4.44722 0
M  V30 5975 H 552.013 2.26075 6.07284 0
M  V30 5976 N 545.419 -1.53889 0.339982 0
M  V30 5977 C 546.666 -2.00855 -0.257621 0
M  V30 5978 C 546.994 -1.22788 -1.50842 0
M  V30 5979 O 546.249 -0.302567 -1.93347 0
M  V30 5980 C 546.548 -3.51968 -0.620735 0
M  V30 5981 C 546.214 -4.47741 0.532771 0
M  V30 5982 C 544.876 -4.73645 0.849339 0
M  V30 5983 C 547.228 -5.04551 1.3068 0
M  V30 5984 C 544.556 -5.53614 1.94237 0
M  V30 5985 C 546.908 -5.85713 2.39005 0
M  V30 5986 C 545.572 -6.09912 2.71225 0
M  V30 5987 H 544.842 -0.734979 -0.0942703 0
M  V30 5988 H 547.489 -1.85714 0.467159 0
M  V30 5989 H 545.794 -3.64921 -1.42618 0
M  V30 5990 H 547.491 -3.85762 -1.09495 0
M  V30 5991 H 544.081 -4.27711 0.275973 0
M  V30 5992 H 548.265 -4.84507 1.07549 0
M  V30 5993 H 543.521 -5.7059 2.19628 0
M  V30 5994 H 547.695 -6.28748 2.99415 0
M  V30 5995 H 545.322 -6.71665 3.56047 0
M  V30 5996 N 546.897 -0.0685191 -1.57451 0
M  V30 5997 C 547.845 0.917577 -2.13736 0
M  V30 5998 C 548.839 1.31049 -1.07344 0
M  V30 5999 O 550.045 1.28811 -1.25728 0
M  V30 6000 H 546.42 0.313835 -0.683382 0
M  V30 6001 H 548.391 0.417903 -2.95459 0
M  V30 6002 C 547.14 2.17686 -2.71123 0
M  V30 6003 H 546.463 1.88336 -3.52661 0
M  V30 6004 H 547.903 2.84803 -3.14107 0
M  V30 6005 C 546.362 2.9332 -1.65726 0
M  V30 6006 O 546.892 3.86901 -1.08031 0
M  V30 6007 N 545.098 2.56367 -1.36837 0
M  V30 6008 H 544.645 1.80341 -1.83943 0
M  V30 6009 H 544.603 3.07276 -0.665501 0
M  V30 6010 N 548.375 1.56261 0.205012 0
M  V30 6011 C 549.622 1.8004 0.926927 0
M  V30 6012 C 549.95 0.640086 1.83666 0
M  V30 6013 O 549.205 -0.374702 1.92079 0
M  V30 6014 C 549.504 3.09722 1.78345 0
M  V30 6015 C 549.17 4.39082 1.02555 0
M  V30 6016 C 547.832 4.74226 0.816256 0
M  V30 6017 C 550.184 5.18877 0.491559 0
M  V30 6018 C 547.512 5.86668 0.0613287 0
M  V30 6019 C 549.864 6.32105 -0.250107 0
M  V30 6020 C 548.528 6.6584 -0.470508 0
M  V30 6021 H 547.798 0.658812 0.339187 0
M  V30 6022 H 550.445 1.90515 0.19395 0
M  V30 6023 H 548.75 2.9444 2.5848 0
M  V30 6024 H 550.447 3.25324 2.34446 0
M  V30 6025 H 547.037 4.11497 1.19868 0
M  V30 6026 H 551.221 4.92147 0.640684 0
M  V30 6027 H 546.477 6.11283 -0.119501 0
M  V30 6028 H 550.651 6.93157 -0.671307 0
M  V30 6029 H 548.278 7.5281 -1.05739 0
M  V30 6030 N 549.853 -0.472356 1.50355 0
M  V30 6031 C 551.078 -1.25251 1.65309 0
M  V30 6032 C 551.503 -1.85081 0.335643 0
M  V30 6033 O 550.861 -1.67227 -0.700335 0
M  V30 6034 C 550.909 -2.3379 2.74544 0
M  V30 6035 O 550.013 -3.38401 2.35709 0
M  V30 6036 H 549.354 -0.368539 0.552336 0
M  V30 6037 H 551.884 -0.562271 1.96722 0
M  V30 6038 H 551.894 -2.79121 2.97583 0
M  V30 6039 H 550.569 -1.89614 3.70161 0
M  V30 6040 H 549.146 -2.9879 2.23112 0
M  V30 6041 N 551.331 -1.39911 -0.725443 0
M  V30 6042 C 552.579 -1.37382 -1.48224 0
M  V30 6043 C 552.9 0.0264107 -1.94982 0
M  V30 6044 O 552.17 0.979408 -1.6966 0
M  V30 6045 H 550.75 -0.505596 -0.549892 0
M  V30 6046 H 553.412 -1.7487 -0.860608 0
M  V30 6047 H 552.508 -2.04254 -2.3598 0
M  V30 6048 N 552.809 0.956637 -1.25245 0
M  V30 6049 C 554.039 1.7332 -1.12445 0
M  V30 6050 C 554.447 1.86392 0.324732 0
M  V30 6051 O 553.79 1.35967 1.23526 0
M  V30 6052 C 553.852 3.16603 -1.70303 0
M  V30 6053 C 553.516 3.26966 -3.19284 0
M  V30 6054 C 554.513 3.11434 -4.16299 0
M  V30 6055 C 552.198 3.50851 -3.59456 0
M  V30 6056 C 554.192 3.1963 -5.51467 0
M  V30 6057 C 551.879 3.58684 -4.94761 0
M  V30 6058 C 552.877 3.43087 -5.90576 0
M  V30 6059 O 552.565 3.50598 -7.2342 0
M  V30 6060 H 552.297 0.549981 -0.393061 0
M  V30 6061 H 554.851 1.20892 -1.66055 0
M  V30 6062 H 553.081 3.70385 -1.11138 0
M  V30 6063 H 554.77 3.76109 -1.52632 0
M  V30 6064 H 555.536 2.92853 -3.86604 0
M  V30 6065 H 551.415 3.62053 -2.85375 0
M  V30 6066 H 554.959 3.07373 -6.26233 0
M  V30 6067 H 550.856 3.76782 -5.24124 0
M  V30 6068 H 551.624 3.67242 -7.31489 0
M  V30 6069 N 554.287 1.06798 1.15896 0
M  V30 6070 C 555.535 0.786211 1.8618 0
M  V30 6071 C 555.856 -0.689547 1.82401 0
M  V30 6072 O 555.126 -1.49913 1.26107 0
M  V30 6073 H 553.706 0.287843 0.689315 0
M  V30 6074 H 556.368 1.35055 1.40521 0
M  V30 6075 H 555.464 1.1157 2.91477 0
M  V30 6076 N 555.766 -1.3263 0.851289 0
M  V30 6077 C 556.699 -2.26952 0.238318 0
M  V30 6078 C 557.677 -1.50243 -0.621757 0
M  V30 6079 O 558.861 -1.79378 -0.579298 0
M  V30 6080 C 555.988 -3.32124 -0.664178 0
M  V30 6081 C 555.034 -4.26325 0.122067 0
M  V30 6082 S 555.867 -5.14404 1.48824 0
M  V30 6083 C 557.023 -6.231 0.591372 0
M  V30 6084 H 557.256 -2.78594 1.03791 0
M  V30 6085 H 554.789 -1.4011 0.648731 0
M  V30 6086 H 556.747 -3.93197 -1.17924 0
M  V30 6087 H 555.408 -2.79273 -1.43755 0
M  V30 6088 H 554.601 -5.00821 -0.565181 0
M  V30 6089 H 554.203 -3.69652 0.568602 0
M  V30 6090 H 556.495 -6.77187 -0.205762 0
M  V30 6091 H 557.438 -6.95936 1.30687 0
M  V30 6092 H 557.846 -5.64252 0.167206 0
M  V30 6093 N 557.244 -0.608902 -1.45362 0
M  V30 6094 C 558.492 -0.104401 -2.0183 0
M  V30 6095 C 558.813 1.27007 -1.47967 0
M  V30 6096 O 558.083 1.83924 -0.674455 0
M  V30 6097 H 556.663 -0.0356042 -0.746151 0
M  V30 6098 H 559.325 -0.790596 -1.78145 0
M  V30 6099 H 558.421 -0.0551793 -3.12051 0
M  V30 6100 N 558.722 1.53707 -0.348139 0
M  V30 6101 C 559.672 2.2193 0.522592 0
M  V30 6102 C 560.656 1.20831 1.06248 0
M  V30 6103 O 561.848 1.46357 0.995415 0
M  V30 6104 C 558.977 2.99904 1.6707 0
M  V30 6105 C 558.063 4.08364 1.14454 0
M  V30 6106 N 558.454 5.04656 0.339958 0
M  V30 6107 C 556.752 4.22757 1.421 0
M  V30 6108 C 557.453 5.81675 0.0538806 0
M  V30 6109 N 556.429 5.39739 0.646776 0
M  V30 6110 H 560.231 2.93733 -0.099135 0
M  V30 6111 H 557.745 1.61656 -0.15524 0
M  V30 6112 H 559.742 3.47284 2.30651 0
M  V30 6113 H 558.402 2.29629 2.29566 0
M  V30 6114 H 559.413 5.17896 -0.0193552 0
M  V30 6115 H 556.09 3.63704 2.05002 0
M  V30 6116 H 557.48 6.69256 -0.595443 0
M  V30 6117 N 560.2 0.0768682 1.57412 0
M  V30 6118 C 561.44 -0.594676 1.95558 0
M  V30 6119 C 561.804 -1.66469 0.956658 0
M  V30 6120 O 563.005 -2.39215 1.22595 0
M  V30 6121 C 561.276 -1.15206 3.38323 0
M  V30 6122 S 562.835 -1.83803 3.9845 0
M  V30 6123 H 559.653 -0.194579 0.683857 0
M  V30 6124 H 562.255 0.151933 1.94909 0
M  V30 6125 H 560.959 -0.36153 4.08805 0
M  V30 6126 H 560.49 -1.93491 3.42527 0
M  V30 6127 H 562.505 -3.12087 3.85767 0
M  V30 6128 N 561.678 -1.56367 -0.196722 0
M  V30 6129 C 562.608 -1.97442 -1.24655 0
M  V30 6130 C 563.589 -0.846147 -1.47561 0
M  V30 6131 O 564.774 -1.11035 -1.59326 0
M  V30 6132 C 561.904 -2.31253 -2.59112 0
M  V30 6133 C 560.858 -3.46804 -2.50821 0
M  V30 6134 C 560.184 -3.66286 -3.89536 0
M  V30 6135 C 561.484 -4.8104 -2.03465 0
M  V30 6136 H 563.178 -2.85388 -0.905216 0
M  V30 6137 H 560.724 -1.37304 -0.434002 0
M  V30 6138 H 562.677 -2.58583 -3.32736 0
M  V30 6139 H 561.401 -1.40188 -2.94983 0
M  V30 6140 H 560.06 -3.19563 -1.79653 0
M  V30 6141 H 559.708 -2.72555 -4.22756 0
M  V30 6142 H 559.408 -4.4402 -3.84864 0
M  V30 6143 H 560.932 -3.9599 -4.64784 0
M  V30 6144 H 562.346 -5.07411 -2.66846 0
M  V30 6145 H 560.743 -5.62232 -2.09798 0
M  V30 6146 H 561.813 -4.74732 -0.98781 0
M  V30 6147 N 563.156 0.464375 -1.50603 0
M  V30 6148 C 564.088 1.57916 -1.66118 0
M  V30 6149 C 565.101 1.53497 -0.54246 0
M  V30 6150 O 566.29 1.58763 -0.815877 0
M  V30 6151 C 563.39 2.96809 -1.63577 0
M  V30 6152 C 562.563 3.26026 -2.91592 0
M  V30 6153 C 561.622 4.44506 -2.81604 0
M  V30 6154 O 560.648 4.44484 -3.55559 0
M  V30 6155 N 561.85 5.46549 -1.95614 0
M  V30 6156 H 564.615 1.45022 -2.62276 0
M  V30 6157 H 562.176 0.652903 -1.48151 0
M  V30 6158 H 564.168 3.74048 -1.54499 0
M  V30 6159 H 562.738 3.03438 -0.751262 0
M  V30 6160 H 561.958 2.37337 -3.14746 0
M  V30 6161 H 563.246 3.42361 -3.76386 0
M  V30 6162 H 562.644 5.49391 -1.34854 0
M  V30 6163 H 561.201 6.22746 -1.92435 0
M  V30 6164 N 564.634 1.40294 0.718013 0
M  V30 6165 C 565.88 1.38645 1.48005 0
M  V30 6166 C 566.213 -0.0121202 1.94196 0
M  V30 6167 O 565.488 -0.980309 1.67989 0
M  V30 6168 C 565.771 2.37379 2.70782 0
M  V30 6169 C 565.624 3.8625 2.30501 0
M  V30 6170 C 566.943 2.33685 3.72933 0
M  V30 6171 H 564.062 0.504928 0.536858 0
M  V30 6172 H 566.704 1.71411 0.819649 0
M  V30 6173 H 564.854 2.09568 3.27129 0
M  V30 6174 H 566.526 4.24879 1.79655 0
M  V30 6175 H 564.769 4.02202 1.6253 0
M  V30 6176 H 565.44 4.50847 3.18498 0
M  V30 6177 H 567.916 2.58314 3.2621 0
M  V30 6178 H 566.792 3.0482 4.56482 0
M  V30 6179 H 567.053 1.34765 4.21059 0
M  V30 6180 N 566.112 -0.949982 1.2575 0
M  V30 6181 C 567.059 -2.04738 1.06541 0
M  V30 6182 C 568.029 -1.66078 -0.0268818 0
M  V30 6183 O 569.214 -1.90348 0.131196 0
M  V30 6184 C 566.354 -3.38027 0.695127 0
M  V30 6185 C 565.467 -3.89776 1.86276 0
M  V30 6186 C 564.602 -5.11411 1.4364 0
M  V30 6187 C 563.641 -5.554 2.57287 0
M  V30 6188 N 562.778 -6.68244 2.15395 0
M  V30 6189 H 567.618 -2.20502 2.00457 0
M  V30 6190 H 565.155 -1.0805 0.998178 0
M  V30 6191 H 567.113 -4.14641 0.461375 0
M  V30 6192 H 565.743 -3.22135 -0.207046 0
M  V30 6193 H 564.795 -3.0964 2.20969 0
M  V30 6194 H 566.107 -4.18368 2.71606 0
M  V30 6195 H 565.261 -5.95457 1.16257 0
M  V30 6196 H 564 -4.84545 0.553879 0
M  V30 6197 H 563.005 -4.69916 2.85409 0
M  V30 6198 H 564.23 -5.84272 3.46125 0
M  V30 6199 H 562.176 -6.43078 1.29565 0
M  V30 6200 H 562.093 -6.96377 2.94272 0
M  V30 6201 H 563.361 -7.55687 1.91201 0
M  V30 6202 N 567.59 -1.07411 -1.15328 0
M  V30 6203 C 568.867 -0.710732 -1.82231 0
M  V30 6204 C 569.247 0.806732 -1.95077 0
M  V30 6205 O 568.595 1.72139 -1.50268 0
M  V30 6206 C 568.805 -1.42586 -3.18544 0
M  V30 6207 C 570.153 -1.57836 -3.94174 0
M  V30 6208 O 571.177 -1.38669 -3.281 0
M  V30 6209 O 570.036 -1.8938 -5.12638 0
M  V30 6210 H 567.13 -0.25297 -0.78736 0
M  V30 6211 H 569.676 -1.17508 -1.22434 0
M  V30 6212 H 568.448 -2.46008 -3.04296 0
M  V30 6213 H 568.071 -0.952332 -3.86026 0
M  V30 6214 N 569.068 1.32177 -0.85831 0
M  V30 6215 C 570.316 1.96735 -0.462568 0
M  V30 6216 C 570.637 1.6824 0.985911 0
M  V30 6217 O 569.907 0.991564 1.68952 0
M  V30 6218 H 568.487 0.727849 -0.168064 0
M  V30 6219 H 571.149 1.61195 -1.09554 0
M  V30 6220 H 570.245 3.06068 -0.610647 0
M  V30 6221 N 570.547 0.616602 1.45037 0
M  V30 6222 C 571.775 0.121968 2.0654 0
M  V30 6223 C 572.19 -1.19743 1.45969 0
M  V30 6224 O 571.547 -1.73133 0.577168 0
M  V30 6225 C 571.598 -0.0145171 3.61497 0
M  V30 6226 O 571.319 1.25269 4.19809 0
M  V30 6227 C 572.82 -0.539555 4.40004 0
M  V30 6228 H 570.04 0.0729837 0.667019 0
M  V30 6229 H 572.584 0.846891 1.8614 0
M  V30 6230 H 570.739 -0.689809 3.81209 0
M  V30 6231 H 571.153 1.08816 5.13088 0
M  V30 6232 H 572.627 -0.584112 5.48901 0
M  V30 6233 H 573.104 -1.56368 4.10421 0
M  V30 6234 H 573.71 0.101995 4.25178 0
M  V30 6235 N 572.025 -1.5352 0.356285 0
M  V30 6236 C 572.988 -2.24071 -0.482182 0
M  V30 6237 C 573.988 -1.24531 -1.01729 0
M  V30 6238 O 575.178 -1.48876 -0.904513 0
M  V30 6239 C 572.31 -2.97025 -1.67299 0
M  V30 6240 H 573.503 -2.99596 0.135031 0
M  V30 6241 H 571.056 -1.55928 0.107825 0
M  V30 6242 H 571.791 -2.25719 -2.32855 0
M  V30 6243 H 571.576 -3.7005 -1.29636 0
M  V30 6244 H 573.066 -3.50683 -2.26741 0
M  V30 6245 N 573.503 -0.0852151 -1.57369 0
M  V30 6246 C 574.749 0.581666 -1.94279 0
M  V30 6247 C 575.082 1.68444 -0.966446 0
M  V30 6248 O 574.357 1.945 0.00215277 0
M  V30 6249 C 574.64 1.14609 -3.41375 0
M  V30 6250 C 574.493 0.0490414 -4.49773 0
M  V30 6251 C 575.812 2.04751 -3.8957 0
M  V30 6252 H 572.931 0.209972 -0.706456 0
M  V30 6253 H 575.573 -0.153915 -1.89376 0
M  V30 6254 H 573.723 1.77297 -3.45685 0
M  V30 6255 H 575.395 -0.584721 -4.57579 0
M  V30 6256 H 573.638 -0.618638 -4.29366 0
M  V30 6257 H 574.309 0.484601 -5.49869 0
M  V30 6258 H 576.785 1.51981 -3.87351 0
M  V30 6259 H 575.661 2.41173 -4.93079 0
M  V30 6260 H 575.922 2.96107 -3.28288 0
M  V30 6261 N 574.981 1.5647 0.188427 0
M  V30 6262 C 575.928 1.95073 1.23349 0
M  V30 6263 C 576.898 0.812238 1.44886 0
M  V30 6264 O 578.083 1.07095 1.57909 0
M  V30 6265 C 575.223 2.30124 2.57171 0
M  V30 6266 C 574.336 3.57069 2.43157 0
M  V30 6267 C 573.471 3.81411 3.69729 0
M  V30 6268 C 572.51 5.0176 3.50575 0
M  V30 6269 N 571.647 5.22321 4.69175 0
M  V30 6270 H 576.487 2.84171 0.89728 0
M  V30 6271 H 574.024 1.40623 0.431683 0
M  V30 6272 H 575.982 2.48463 3.35145 0
M  V30 6273 H 574.612 1.44159 2.88822 0
M  V30 6274 H 573.664 3.4674 1.56447 0
M  V30 6275 H 574.976 4.452 2.24942 0
M  V30 6276 H 574.13 4.00026 4.56141 0
M  V30 6277 H 572.869 2.91624 3.90905 0
M  V30 6278 H 571.874 4.83061 2.62549 0
M  V30 6279 H 573.099 5.93063 3.30837 0
M  V30 6280 H 571.045 4.35483 4.90602 0
M  V30 6281 H 570.962 6.04643 4.53809 0
M  V30 6282 H 572.23 5.45401 5.56919 0
M  V30 6283 N 576.459 -0.456382 1.50847 0
M  V30 6284 C 577.422 -1.53493 1.70213 0
M  V30 6285 C 578.422 -1.50264 0.572481 0
M  V30 6286 O 579.612 -1.52623 0.839751 0
M  V30 6287 C 576.744 -2.93091 1.741 0
M  V30 6288 H 577.937 -1.37633 2.66453 0
M  V30 6289 H 575.49 -0.683776 1.4055 0
M  V30 6290 H 576.225 -3.14378 0.796063 0
M  V30 6291 H 576.01 -2.9684 2.5618 0
M  V30 6292 H 577.5 -3.71368 1.90987 0
M  V30 6293 N 577.937 -1.40673 -0.710563 0
M  V30 6294 C 579.165 -1.42547 -1.4996 0
M  V30 6295 C 579.58 -0.0265485 -1.88781 0
M  V30 6296 O 578.937 0.950694 -1.55782 0
M  V30 6297 C 578.988 -2.32071 -2.77173 0
M  V30 6298 O 578.709 -3.66518 -2.39992 0
M  V30 6299 C 580.21 -2.42591 -3.71032 0
M  V30 6300 H 577.43 -0.486025 -0.462623 0
M  V30 6301 H 579.974 -1.84783 -0.876102 0
M  V30 6302 H 578.129 -1.93184 -3.35795 0
M  V30 6303 H 578.543 -4.14115 -3.21884 0
M  V30 6304 H 580.017 -3.09429 -4.57119 0
M  V30 6305 H 580.494 -1.4525 -4.14486 0
M  V30 6306 H 581.1 -2.82051 -3.18319 0
M  V30 6307 N 579.415 0.9433 -1.26252 0
M  V30 6308 C 580.826 1.50404 -1.10614 0
M  V30 6309 C 581.177 1.93666 0.31429 0
M  V30 6310 O 580.302 1.79709 1.20555 0
M  V30 6311 C 580.897 2.73336 -2.00182 0
M  V30 6312 C 579.456 3.25686 -1.88695 0
M  V30 6313 C 578.603 1.98474 -1.93658 0
M  V30 6314 H 581.554 0.759006 -1.39373 0
M  V30 6315 H 581.575 3.47567 -1.54847 0
M  V30 6316 H 581.087 2.41818 -3.03555 0
M  V30 6317 H 579.188 3.61998 -0.882489 0
M  V30 6318 H 579.301 3.92935 -2.74115 0
M  V30 6319 H 577.665 2.14278 -1.37684 0
M  V30 6320 H 578.448 1.6929 -2.98657 0
M  V30 6321 N 580.893 1.08022 1.14757 0
M  V30 6322 C 581.856 0.71048 2.1791 0
M  V30 6323 C 582.856 -0.252731 1.58801 0
M  V30 6324 O 584.046 -0.0327915 1.74169 0
M  V30 6325 C 581.178 0.0483203 3.40866 0
M  V30 6326 H 582.371 1.62384 2.52134 0
M  V30 6327 H 579.924 0.877595 1.29337 0
M  V30 6328 H 580.659 -0.876959 3.12218 0
M  V30 6329 H 580.444 0.741189 3.85031 0
M  V30 6330 H 581.934 -0.195471 4.17142 0
M  V30 6331 N 582.371 -1.3172 0.865308 0
M  V30 6332 C 583.319 -2.30569 0.306674 0
M  V30 6333 C 584.313 -1.59317 -0.575724 0
M  V30 6334 O 585.519 -1.73961 -0.462343 0
M  V30 6335 H 581.894 -0.747681 0.0804834 0
M  V30 6336 H 583.865 -2.75165 1.15441 0
M  V30 6337 C 582.614 -3.44358 -0.480952 0
M  V30 6338 H 581.937 -3.99354 0.18876 0
M  V30 6339 H 583.377 -4.15652 -0.837241 0
M  V30 6340 C 581.836 -2.92574 -1.67039 0
M  V30 6341 O 582.366 -2.90954 -2.76964 0
M  V30 6342 N 580.572 -2.48835 -1.50097 0
M  V30 6343 H 580.119 -2.50353 -0.606738 0
M  V30 6344 H 580.077 -2.14543 -2.29823 0
M  V30 6345 N 583.85 -0.624285 -1.44708 0
M  V30 6346 C 585.26 -0.2092 -1.85524 0
M  V30 6347 C 585.611 1.23783 -1.52225 0
M  V30 6348 O 584.736 1.94089 -0.956986 0
M  V30 6349 C 585.332 -0.372897 -3.36742 0
M  V30 6350 C 583.891 -0.012374 -3.76398 0
M  V30 6351 C 583.038 -0.68951 -2.68591 0
M  V30 6352 H 585.989 -0.829894 -1.35272 0
M  V30 6353 H 586.01 0.390134 -3.78495 0
M  V30 6354 H 585.522 -1.42615 -3.60947 0
M  V30 6355 H 583.623 1.03941 -3.57809 0
M  V30 6356 H 583.736 -0.417663 -4.77276 0
M  V30 6357 H 582.1 -0.125484 -2.54391 0
M  V30 6358 H 582.883 -1.74522 -2.9563 0
M  V30 6359 N 585.328 1.53329 -0.364422 0
M  V30 6360 C 586.258 2.28627 0.474543 0
M  V30 6361 C 587.239 1.31009 1.08492 0
M  V30 6362 O 588.424 1.59878 1.10239 0
M  V30 6363 C 585.554 3.07465 1.61501 0
M  V30 6364 C 584.508 4.1276 1.13194 0
M  V30 6365 C 583.834 4.79674 2.36255 0
M  V30 6366 C 585.134 5.21847 0.217507 0
M  V30 6367 H 586.828 2.99005 -0.153656 0
M  V30 6368 H 584.374 1.43803 -0.0753406 0
M  V30 6369 H 586.327 3.58889 2.20855 0
M  V30 6370 H 585.051 2.34775 2.27042 0
M  V30 6371 H 583.71 3.62281 0.56109 0
M  V30 6372 H 583.358 4.03557 3.00251 0
M  V30 6373 H 583.058 5.50827 2.04606 0
M  V30 6374 H 584.582 5.33892 2.96297 0
M  V30 6375 H 585.996 5.6878 0.718493 0
M  V30 6376 H 584.393 6.00099 -0.00806408 0
M  V30 6377 H 585.463 4.7921 -0.740653 0
M  V30 6378 N 586.806 0.0935595 1.57322 0
M  V30 6379 C 588.217 -0.435807 1.81542 0
M  V30 6380 C 588.568 -1.68263 1.00907 0
M  V30 6381 O 587.693 -2.15087 0.237983 0
M  V30 6382 C 588.288 -0.797436 3.29282 0
M  V30 6383 C 586.847 -1.27155 3.54272 0
M  V30 6384 C 585.994 -0.267455 2.76007 0
M  V30 6385 H 588.945 0.31902 1.5546 0
M  V30 6386 H 588.966 -1.6571 3.42521 0
M  V30 6387 H 588.478 0.110206 3.87943 0
M  V30 6388 H 586.579 -2.19696 3.00939 0
M  V30 6389 H 586.692 -1.23445 4.62923 0
M  V30 6390 H 585.056 -0.749282 2.43429 0
M  V30 6391 H 585.839 0.632839 3.37417 0
M  V30 6392 N 588.284 -1.56567 -0.180126 0
M  V30 6393 C 589.216 -1.92275 -1.24751 0
M  V30 6394 C 590.229 -0.814922 -1.40936 0
M  V30 6395 O 591.418 -1.09336 -1.41095 0
M  V30 6396 C 588.518 -2.15265 -2.61752 0
M  V30 6397 C 587.691 -3.46467 -2.66981 0
M  V30 6398 C 586.75 -3.58391 -3.85283 0
M  V30 6399 O 585.776 -4.31086 -3.7169 0
M  V30 6400 N 586.978 -2.92587 -5.01371 0
M  V30 6401 H 589.743 -2.84435 -0.944302 0
M  V30 6402 H 587.304 -1.57617 -0.369952 0
M  V30 6403 H 589.296 -2.20515 -3.39345 0
M  V30 6404 H 587.866 -1.29533 -2.845 0
M  V30 6405 H 587.086 -3.52953 -1.75549 0
M  V30 6406 H 588.374 -4.32819 -2.67479 0
M  V30 6407 H 587.772 -2.3338 -5.15316 0
M  V30 6408 H 586.329 -3.03444 -5.76858 0
M  V30 6409 N 589.762 0.448376 -1.51087 0
M  V30 6410 C 591.173 1.0286 -1.5581 0
M  V30 6411 C 591.524 1.92583 -0.374989 0
M  V30 6412 O 590.649 2.10316 0.509533 0
M  V30 6413 C 591.244 1.87223 -2.8237 0
M  V30 6414 C 589.803 2.40314 -2.897 0
M  V30 6415 C 588.95 1.19238 -2.50355 0
M  V30 6416 H 591.901 0.230075 -1.57023 0
M  V30 6417 H 591.922 2.72553 -2.6551 0
M  V30 6418 H 591.434 1.21894 -3.68461 0
M  V30 6419 H 589.535 3.09129 -2.08014 0
M  V30 6420 H 589.648 2.73866 -3.93108 0
M  V30 6421 H 588.012 1.53428 -2.03303 0
M  V30 6422 H 588.795 0.555367 -3.38778 0
M  V30 6423 N 591.24 1.41047 0.703093 0
M  V30 6424 C 592.651 1.35657 1.28274 0
M  V30 6425 C 593.002 0.0360309 1.96167 0
M  V30 6426 O 592.127 -0.865833 1.98324 0
M  V30 6427 C 592.722 2.45707 2.33267 0
M  V30 6428 C 591.281 2.43738 2.86825 0
M  V30 6429 C 590.428 2.25941 1.60767 0
M  V30 6430 H 593.379 1.50672 0.49836 0
M  V30 6431 H 593.4 2.14333 3.14391 0
M  V30 6432 H 592.912 3.41805 1.83824 0
M  V30 6433 H 591.013 1.51375 3.40465 0
M  V30 6434 H 591.126 3.39779 3.37768 0
M  V30 6435 H 589.49 1.73681 1.86298 0
M  V30 6436 H 590.273 3.24054 1.1333 0
M  V30 6437 N 592.718 -0.936591 1.26751 0
M  V30 6438 C 593.665 -2.03597 1.08706 0
M  V30 6439 C 594.635 -1.66097 -0.00926542 0
M  V30 6440 O 595.82 -1.90199 0.151377 0
M  V30 6441 C 592.96 -3.3727 0.73094 0
M  V30 6442 C 592.073 -3.87778 1.90399 0
M  V30 6443 C 591.208 -5.09859 1.49056 0
M  V30 6444 C 590.247 -5.5264 2.63164 0
M  V30 6445 N 589.384 -6.65921 2.22471 0
M  V30 6446 H 594.224 -2.18364 2.02784 0
M  V30 6447 H 591.761 -1.06985 1.00958 0
M  V30 6448 H 593.719 -4.14128 0.505328 0
M  V30 6449 H 592.349 -3.22337 -0.172868 0
M  V30 6450 H 591.401 -3.07279 2.2424 0
M  V30 6451 H 592.713 -4.15464 2.76028 0
M  V30 6452 H 591.867 -5.9419 1.22567 0
M  V30 6453 H 590.606 -4.8393 0.60524 0
M  V30 6454 H 589.611 -4.66863 2.90377 0
M  V30 6455 H 590.836 -5.80568 3.52303 0
M  V30 6456 H 588.782 -6.41667 1.36379 0
M  V30 6457 H 588.699 -6.93216 3.01641 0
M  V30 6458 H 589.967 -7.53616 1.99205 0
M  V30 6459 N 594.196 -1.08629 -1.14182 0
M  V30 6460 C 595.473 -0.73002 -1.81466 0
M  V30 6461 C 595.853 0.785996 -1.95922 0
M  V30 6462 O 595.201 1.70535 -1.52086 0
M  V30 6463 C 595.411 -1.45957 -3.17014 0
M  V30 6464 C 596.759 -1.62008 -3.92477 0
M  V30 6465 O 597.783 -1.42141 -3.26611 0
M  V30 6466 O 596.642 -1.94806 -5.106 0
M  V30 6467 H 593.736 -0.261307 -0.784632 0
M  V30 6468 H 596.282 -1.188 -1.2118 0
M  V30 6469 H 595.054 -2.49221 -3.01669 0
M  V30 6470 H 594.677 -0.993222 -3.84995 0
M  V30 6471 N 595.674 1.31259 -0.872281 0
M  V30 6472 C 596.922 1.96233 -0.483409 0
M  V30 6473 C 597.243 1.69276 0.968012 0
M  V30 6474 O 596.513 1.00943 1.67891 0
M  V30 6475 H 595.093 0.726025 -0.175774 0
M  V30 6476 H 597.755 1.60024 -1.11258 0
M  V30 6477 H 596.851 3.05403 -0.643075 0
M  V30 6478 N 597.152 0.631951 1.44375 0
M  V30 6479 C 598.429 0.067646 1.95483 0
M  V30 6480 C 598.809 -1.40683 1.57389 0
M  V30 6481 O 598.157 -2.12167 0.848375 0
M  V30 6482 C 598.367 0.291392 3.47781 0
M  V30 6483 C 599.715 0.185028 4.24197 0
M  V30 6484 O 600.739 0.222803 3.55503 0
M  V30 6485 O 599.598 0.0906642 5.46425 0
M  V30 6486 H 596.692 -0.0218379 0.826712 0
M  V30 6487 H 599.238 0.703711 1.54421 0
M  V30 6488 H 598.01 1.31449 3.68561 0
M  V30 6489 H 597.633 -0.378772 3.95792 0
M  V30 6490 N 598.631 -1.53133 0.372548 0
M  V30 6491 C 599.594 -2.24569 -0.458389 0
M  V30 6492 C 600.594 -1.25603 -1.00402 0
M  V30 6493 O 601.784 -1.49827 -0.888672 0
M  V30 6494 C 598.916 -2.98783 -1.6414 0
M  V30 6495 H 600.109 -2.99436 0.166799 0
M  V30 6496 H 597.662 -1.55805 0.124357 0
M  V30 6497 H 598.397 -2.28176 -2.30448 0
M  V30 6498 H 598.182 -3.71404 -1.25704 0
M  V30 6499 H 599.672 -3.53068 -2.23008 0
M  V30 6500 N 600.109 -0.101901 -1.5727 0
M  V30 6501 C 601.358 0.559922 -1.93772 0
M  V30 6502 C 601.671 1.68913 -0.98629 0
M  V30 6503 O 602.877 2.41256 -1.24529 0
M  V30 6504 C 601.333 1.04739 -3.44322 0
M  V30 6505 C 600.941 -0.05243 -4.47969 0
M  V30 6506 C 602.685 1.68157 -3.89774 0
M  V30 6507 C 600.592 0.450781 -5.8968 0
M  V30 6508 H 599.522 0.212931 -0.723309 0
M  V30 6509 H 602.173 -0.179001 -1.82625 0
M  V30 6510 H 600.555 1.84021 -3.50645 0
M  V30 6511 H 601.729 -0.828157 -4.53297 0
M  V30 6512 H 600.044 -0.592202 -4.12167 0
M  V30 6513 H 602.641 2.0689 -4.93052 0
M  V30 6514 H 602.984 2.55338 -3.28798 0
M  V30 6515 H 603.517 0.954453 -3.8618 0
M  V30 6516 H 600.256 -0.38458 -6.54371 0
M  V30 6517 H 599.776 1.19336 -5.87809 0
M  V30 6518 H 601.455 0.917555 -6.40461 0
M  V30 6519 N 601.587 1.56661 0.17182 0
M  V30 6520 C 602.534 1.96371 1.21273 0
M  V30 6521 C 603.504 0.82756 1.44016 0
M  V30 6522 O 604.689 1.08764 1.56764 0
M  V30 6523 C 601.829 2.32838 2.54716 0
M  V30 6524 C 600.942 3.59628 2.39356 0
M  V30 6525 C 600.077 3.85311 3.65662 0
M  V30 6526 C 599.116 5.0545 3.45234 0
M  V30 6527 N 598.253 5.27268 4.63608 0
M  V30 6528 H 603.093 2.85106 0.86709 0
M  V30 6529 H 600.63 1.41073 0.416744 0
M  V30 6530 H 602.588 2.52004 3.3249 0
M  V30 6531 H 601.218 1.47214 2.87277 0
M  V30 6532 H 600.27 3.4838 1.52761 0
M  V30 6533 H 601.582 4.4756 2.20207 0
M  V30 6534 H 600.736 4.04841 4.51872 0
M  V30 6535 H 599.475 2.95753 3.8779 0
M  V30 6536 H 598.48 4.85819 2.5741 0
M  V30 6537 H 599.705 5.96538 3.24529 0
M  V30 6538 H 597.651 4.40662 4.85956 0
M  V30 6539 H 597.568 6.09422 4.4737 0
M  V30 6540 H 598.836 5.51277 5.51103 0
M  V30 6541 N 603.065 -0.440357 1.51323 0
M  V30 6542 C 604.012 -1.53429 1.72419 0
M  V30 6543 C 604.982 -1.56165 0.565826 0
M  V30 6544 O 606.167 -1.73222 0.799917 0
M  V30 6545 C 603.307 -2.91169 1.85242 0
M  V30 6546 C 602.42 -2.97985 3.12777 0
M  V30 6547 C 601.555 -4.26829 3.16212 0
M  V30 6548 C 600.594 -4.27501 4.38074 0
M  V30 6549 N 599.731 -5.47866 4.39076 0
M  V30 6550 H 604.571 -1.34743 2.65797 0
M  V30 6551 H 602.108 -0.654608 1.31732 0
M  V30 6552 H 604.066 -3.71087 1.90658 0
M  V30 6553 H 602.696 -3.0842 0.952744 0
M  V30 6554 H 601.748 -2.10749 3.16685 0
M  V30 6555 H 603.06 -2.94342 4.02696 0
M  V30 6556 H 602.214 -5.15118 3.20527 0
M  V30 6557 H 600.953 -4.33124 2.24176 0
M  V30 6558 H 599.958 -3.37606 4.33938 0
M  V30 6559 H 601.183 -4.22873 5.31371 0
M  V30 6560 H 599.129 -5.54887 3.49909 0
M  V30 6561 H 599.046 -5.46091 5.22801 0
M  V30 6562 H 600.314 -6.38195 4.4758 0
M  V30 6563 N 604.543 -1.41418 -0.695603 0
M  V30 6564 C 605.49 -1.43264 -1.80954 0
M  V30 6565 C 606.46 -0.287016 -1.63601 0
M  V30 6566 O 607.645 -0.488054 -1.84452 0
M  V30 6567 C 604.785 -1.32054 -3.18835 0
M  V30 6568 C 603.898 -2.56485 -3.4762 0
M  V30 6569 C 603.033 -2.3757 -4.75115 0
M  V30 6570 C 602.072 -3.57477 -4.96867 0
M  V30 6571 N 601.209 -3.37632 -6.15588 0
M  V30 6572 H 606.049 -2.38467 -1.78711 0
M  V30 6573 H 603.586 -1.18415 -0.872715 0
M  V30 6574 H 605.544 -1.23558 -3.98484 0
M  V30 6575 H 604.174 -0.404592 -3.20254 0
M  V30 6576 H 603.226 -2.75432 -2.62376 0
M  V30 6577 H 604.538 -3.45678 -3.59594 0
M  V30 6578 H 603.692 -2.2654 -5.62818 0
M  V30 6579 H 602.431 -1.45834 -4.65386 0
M  V30 6580 H 601.436 -3.68961 -4.07612 0
M  V30 6581 H 602.661 -4.50167 -5.08455 0
M  V30 6582 H 600.607 -2.48596 -6.07072 0
M  V30 6583 H 600.524 -4.20401 -6.2833 0
M  V30 6584 H 601.792 -3.30375 -7.06026 0
M  V30 6585 N 606.021 0.929856 -1.27246 0
M  V30 6586 C 607.268 1.67731 -1.13457 0
M  V30 6587 C 607.596 1.9185 0.319998 0
M  V30 6588 O 606.851 1.50524 1.25064 0
M  V30 6589 C 607.15 3.05116 -1.86115 0
M  V30 6590 C 606.816 3.00715 -3.35978 0
M  V30 6591 C 605.478 2.99222 -3.76855 0
M  V30 6592 C 607.83 2.92168 -4.3161 0
M  V30 6593 C 605.158 2.86962 -5.11732 0
M  V30 6594 C 607.51 2.81449 -5.66542 0
M  V30 6595 C 606.174 2.78305 -6.06715 0
M  V30 6596 H 605.444 0.613772 -0.415168 0
M  V30 6597 H 608.091 1.08456 -1.57827 0
M  V30 6598 H 606.396 3.68083 -1.34246 0
M  V30 6599 H 608.093 3.61822 -1.72876 0
M  V30 6600 H 604.683 3.02664 -3.03468 0
M  V30 6601 H 608.867 2.92421 -4.01003 0
M  V30 6602 H 604.123 2.82913 -5.42006 0
M  V30 6603 H 608.297 2.738 -6.40317 0
M  V30 6604 H 605.924 2.68561 -7.11181 0
M  V30 6605 N 607.499 1.09233 1.13605 0
M  V30 6606 C 608.745 0.828385 1.8511 0
M  V30 6607 C 609.078 -0.64437 1.83198 0
M  V30 6608 O 608.353 -1.47428 1.26867 0
M  V30 6609 C 608.636 1.36167 3.33363 0
M  V30 6610 C 608.489 2.90038 3.438 0
M  V30 6611 C 609.808 0.993819 4.28732 0
M  V30 6612 H 606.927 0.30239 0.672108 0
M  V30 6613 H 609.569 1.35339 1.33355 0
M  V30 6614 H 607.719 0.9151 3.77569 0
M  V30 6615 H 609.391 3.43128 3.08319 0
M  V30 6616 H 607.634 3.27271 2.84739 0
M  V30 6617 H 608.305 3.22428 4.48045 0
M  V30 6618 H 610.781 1.37893 3.92587 0
M  V30 6619 H 609.657 1.39403 5.30903 0
M  V30 6620 H 609.918 -0.0982206 4.41991 0
M  V30 6621 N 608.977 -1.30795 0.87923 0
M  V30 6622 C 610.254 -1.91145 0.415086 0
M  V30 6623 C 610.634 -1.7995 -1.10368 0
M  V30 6624 O 609.982 -1.21305 -1.93642 0
M  V30 6625 C 610.192 -3.37014 0.906778 0
M  V30 6626 C 611.54 -4.14101 0.938358 0
M  V30 6627 O 612.564 -3.45834 0.853053 0
M  V30 6628 O 611.423 -5.36054 1.06342 0
M  V30 6629 H 608.517 -0.81736 0.125905 0
M  V30 6630 H 611.063 -1.39401 0.967753 0
M  V30 6631 H 609.835 -3.3922 1.95053 0
M  V30 6632 H 609.458 -3.96204 0.332948 0
M  V30 6633 N 610.455 -0.639598 -1.44038 0
M  V30 6634 C 611.871 -0.305953 -1.5664 0
M  V30 6635 C 612.071 1.19055 -1.62567 0
M  V30 6636 O 611.127 1.97492 -1.57331 0
M  V30 6637 C 612.44 -1.00533 -2.83397 0
M  V30 6638 C 613.988 -0.984278 -2.97121 0
M  V30 6639 C 614.463 -1.66428 -4.26691 0
M  V30 6640 N 615.954 -1.63127 -4.33525 0
M  V30 6641 C 616.689 -2.12629 -5.32519 0
M  V30 6642 N 616.185 -2.70359 -6.3787 0
M  V30 6643 N 617.978 -2.03208 -5.24083 0
M  V30 6644 H 610.129 -1.6109 -1.38434 0
M  V30 6645 H 612.392 -0.676672 -0.663942 0
M  V30 6646 H 612.098 -2.06034 -2.85032 0
M  V30 6647 H 611.972 -0.548362 -3.73193 0
M  V30 6648 H 614.359 0.0622792 -2.95034 0
M  V30 6649 H 614.44 -1.47981 -2.08651 0
M  V30 6650 H 614.084 -2.71034 -4.29538 0
M  V30 6651 H 614.014 -1.14351 -5.14034 0
M  V30 6652 H 616.505 -1.20987 -3.58009 0
M  V30 6653 H 616.818 -3.05842 -7.09704 0
M  V30 6654 H 615.163 -2.74414 -6.38531 0
M  V30 6655 H 618.354 -1.57823 -4.40692 0
M  V30 6656 H 618.527 -2.42097 -6.01077 0
M  V30 6657 N 611.933 1.52934 -0.380664 0
M  V30 6658 C 612.896 2.24809 0.446473 0
M  V30 6659 C 613.896 1.26133 0.997347 0
M  V30 6660 O 615.086 1.50297 0.880714 0
M  V30 6661 C 612.218 2.99649 1.62553 0
M  V30 6662 H 613.411 2.99343 -0.182677 0
M  V30 6663 H 610.964 1.55736 -0.132618 0
M  V30 6664 H 611.699 2.29395 2.29235 0
M  V30 6665 H 611.484 3.72066 1.23732 0
M  V30 6666 H 612.974 3.54246 2.21133 0
M  V30 6667 N 613.412 0.11024 1.57214 0
M  V30 6668 C 614.359 -0.843195 2.14846 0
M  V30 6669 C 615.329 -1.26954 1.07107 0
M  V30 6670 O 616.514 -1.34861 1.34971 0
M  V30 6671 C 613.654 -2.09123 2.74521 0
M  V30 6672 C 612.767 -1.71404 3.96541 0
M  V30 6673 C 611.902 -2.91107 4.44331 0
M  V30 6674 C 610.941 -2.49586 5.58903 0
M  V30 6675 N 610.078 -3.62175 6.01477 0
M  V30 6676 H 614.918 -0.344886 2.95998 0
M  V30 6677 H 612.455 -0.15855 1.46243 0
M  V30 6678 H 614.413 -2.82234 3.07246 0
M  V30 6679 H 613.043 -2.56427 1.96074 0
M  V30 6680 H 612.095 -0.88201 3.70033 0
M  V30 6681 H 613.407 -1.36884 4.7965 0
M  V30 6682 H 612.561 -3.72454 4.78919 0
M  V30 6683 H 611.3 -3.28848 3.60153 0
M  V30 6684 H 610.305 -1.6667 5.23929 0
M  V30 6685 H 611.53 -2.12973 6.4484 0
M  V30 6686 H 609.476 -3.99605 5.20242 0
M  V30 6687 H 609.393 -3.3155 6.79419 0
M  V30 6688 H 610.661 -4.43987 6.407 0
M  V30 6689 N 614.89 -1.56749 -0.16351 0
M  V30 6690 C 616.306 -1.51043 -0.515567 0
M  V30 6691 C 616.506 -0.815855 -1.84245 0
M  V30 6692 O 615.562 -0.379477 -2.49632 0
M  V30 6693 C 616.875 -2.95791 -0.541114 0
M  V30 6694 C 618.423 -3.0664 -0.627776 0
M  V30 6695 C 618.898 -4.52861 -0.684141 0
M  V30 6696 N 620.389 -4.5714 -0.746818 0
M  V30 6697 C 621.124 -5.67634 -0.811137 0
M  V30 6698 N 620.62 -6.8774 -0.835811 0
M  V30 6699 N 622.413 -5.55624 -0.850756 0
M  V30 6700 H 614.564 -2.00307 0.70645 0
M  V30 6701 H 616.827 -0.912876 0.255659 0
M  V30 6702 H 616.533 -3.49797 0.365329 0
M  V30 6703 H 616.407 -3.50858 -1.38487 0
M  V30 6704 H 618.794 -2.52663 -1.52464 0
M  V30 6705 H 618.875 -2.54645 0.242805 0
M  V30 6706 H 618.519 -5.07472 0.2085 0
M  V30 6707 H 618.449 -5.02621 -1.57098 0
M  V30 6708 H 620.94 -3.70669 -0.735717 0
M  V30 6709 H 621.253 -7.67701 -0.886279 0
M  V30 6710 H 619.598 -6.90334 -0.803958 0
M  V30 6711 H 622.789 -4.60709 -0.828535 0
M  V30 6712 H 622.962 -6.41756 -0.897418 0
M  V30 6713 N 616.368 0.432326 -1.51554 0
M  V30 6714 C 617.617 1.17831 -1.63703 0
M  V30 6715 C 617.93 1.92229 -0.36156 0
M  V30 6716 O 619.136 2.69069 -0.362495 0
M  V30 6717 C 617.592 2.14318 -2.89129 0
M  V30 6718 C 617.2 1.45544 -4.23699 0
M  V30 6719 C 618.944 2.89319 -3.10636 0
M  V30 6720 C 616.851 2.40545 -5.4027 0
M  V30 6721 H 615.781 0.443533 -0.60975 0
M  V30 6722 H 618.432 0.444878 -1.78026 0
M  V30 6723 H 616.814 2.91117 -2.68452 0
M  V30 6724 H 617.988 0.742693 -4.54775 0
M  V30 6725 H 616.303 0.826772 -4.0811 0
M  V30 6726 H 618.9 3.60495 -3.94902 0
M  V30 6727 H 619.243 3.50951 -2.23918 0
M  V30 6728 H 619.776 2.19625 -3.31677 0
M  V30 6729 H 616.515 1.83594 -6.29264 0
M  V30 6730 H 616.035 3.09859 -5.13563 0
M  V30 6731 H 617.714 3.01569 -5.72421 0
M  V30 6732 N 617.846 1.41785 0.688094 0
M  V30 6733 C 619.123 1.32031 1.44316 0
M  V30 6734 C 619.503 -0.0486079 2.11044 0
M  V30 6735 O 618.851 -1.06332 2.02252 0
M  V30 6736 C 619.061 2.47906 2.45649 0
M  V30 6737 C 620.409 2.89415 3.10683 0
M  V30 6738 O 621.433 2.477 2.55975 0
M  V30 6739 O 620.292 3.61573 4.09789 0
M  V30 6740 H 617.386 0.519994 0.643067 0
M  V30 6741 H 619.932 1.53765 0.71794 0
M  V30 6742 H 618.704 3.39222 1.95048 0
M  V30 6743 H 618.327 2.28089 3.25671 0
M  V30 6744 N 619.324 -0.923095 1.27737 0
M  V30 6745 C 620.552 -1.70525 1.17171 0
M  V30 6746 C 620.967 -1.86847 -0.270881 0
M  V30 6747 O 620.324 -1.38879 -1.18401 0
M  V30 6748 C 620.375 -3.10242 1.85559 0
M  V30 6749 O 620.096 -2.94683 3.24182 0
M  V30 6750 C 621.597 -4.04586 1.81176 0
M  V30 6751 H 618.817 -0.533347 0.407163 0
M  V30 6752 H 621.361 -1.15599 1.68692 0
M  V30 6753 H 619.516 -3.62014 1.3793 0
M  V30 6754 H 619.93 -3.83045 3.58297 0
M  V30 6755 H 621.404 -5.00119 2.33633 0
M  V30 6756 H 621.881 -4.3218 0.782099 0
M  V30 6757 H 622.487 -3.58741 2.2844 0
M  V30 6758 N 620.802 -1.09834 -1.13024 0
M  V30 6759 C 622.051 -0.831806 -1.83749 0
M  V30 6760 C 622.364 0.644763 -1.84668 0
M  V30 6761 O 623.57 1.02697 -2.51327 0
M  V30 6762 C 622.026 -1.43817 -3.29916 0
M  V30 6763 C 621.634 -2.94759 -3.37374 0
M  V30 6764 C 623.378 -1.25077 -4.05655 0
M  V30 6765 C 621.285 -3.48461 -4.77838 0
M  V30 6766 H 620.215 -0.30751 -0.688443 0
M  V30 6767 H 622.866 -1.32156 -1.27307 0
M  V30 6768 H 621.248 -0.876106 -3.86187 0
M  V30 6769 H 622.422 -3.57228 -2.91076 0
M  V30 6770 H 620.737 -3.12581 -2.75103 0
M  V30 6771 H 623.334 -1.62649 -5.09362 0
M  V30 6772 H 623.677 -0.191782 -4.15858 0
M  V30 6773 H 624.21 -1.78057 -3.55725 0
M  V30 6774 H 620.949 -4.53998 -4.72828 0
M  V30 6775 H 620.469 -2.90757 -5.24615 0
M  V30 6776 H 622.148 -3.45914 -5.46766 0
M  V30 6777 N 622.28 1.30327 -0.886154 0
M  V30 6778 C 623.505 2.0079 -0.519425 0
M  V30 6779 C 623.93 1.65979 0.885013 0
M  V30 6780 O 623.288 0.877043 1.58675 0
M  V30 6781 C 623.336 3.53686 -0.702758 0
M  V30 6782 O 622.44 4.11637 0.250828 0
M  V30 6783 H 621.781 0.63171 -0.204544 0
M  V30 6784 H 624.311 1.66145 -1.19402 0
M  V30 6785 H 624.321 4.03531 -0.602207 0
M  V30 6786 H 622.996 3.78361 -1.72673 0
M  V30 6787 H 621.573 3.72755 0.103873 0
M  V30 6788 N 623.758 0.647228 1.43697 0
M  V30 6789 C 625.174 0.314256 1.56476 0
M  V30 6790 C 625.374 -1.18191 1.63196 0
M  V30 6791 O 624.43 -1.96655 1.58376 0
M  V30 6792 C 625.743 1.02034 2.82859 0
M  V30 6793 C 627.291 1.00002 2.96595 0
M  V30 6794 C 627.766 1.68689 4.25803 0
M  V30 6795 N 629.257 1.65424 4.32654 0
M  V30 6796 C 629.992 2.1545 5.31384 0
M  V30 6797 N 629.488 2.73738 6.36427 0
M  V30 6798 N 631.281 2.05985 5.22998 0
M  V30 6799 H 623.432 1.61821 1.37578 0
M  V30 6800 H 625.695 0.680184 0.660344 0
M  V30 6801 H 625.401 2.07542 2.83935 0
M  V30 6802 H 625.275 0.568146 3.72897 0
M  V30 6803 H 627.662 -0.0466319 2.95063 0
M  V30 6804 H 627.743 1.49086 2.07863 0
M  V30 6805 H 627.387 2.73308 4.28095 0
M  V30 6806 H 627.317 1.17076 5.13421 0
M  V30 6807 H 629.808 1.22884 3.57363 0
M  V30 6808 H 630.121 3.09602 7.08072 0
M  V30 6809 H 628.466 2.77796 6.37067 0
M  V30 6810 H 631.657 1.60157 4.39849 0
M  V30 6811 H 631.83 2.45281 5.99784 0
M  V30 6812 N 625.236 -1.5273 0.388769 0
M  V30 6813 C 626.199 -2.25043 -0.434544 0
M  V30 6814 C 627.199 -1.26661 -0.990644 0
M  V30 6815 O 628.389 -1.50762 -0.872731 0
M  V30 6816 C 625.521 -3.00507 -1.60961 0
M  V30 6817 H 626.714 -2.99242 0.198549 0
M  V30 6818 H 624.267 -1.55664 0.140875 0
M  V30 6819 H 625.002 -2.30607 -2.28015 0
M  V30 6820 H 624.787 -3.72716 -1.21757 0
M  V30 6821 H 626.277 -3.55413 -2.19251 0
M  V30 6822 N 626.714 -0.118576 -1.57153 0
M  V30 6823 C 627.677 0.817464 -2.14127 0
M  V30 6824 C 628.677 1.1949 -1.07604 0
M  V30 6825 O 629.867 1.12048 -1.33382 0
M  V30 6826 C 626.999 2.10541 -2.68115 0
M  V30 6827 H 628.192 0.322339 -2.98163 0
M  V30 6828 H 625.745 0.130655 -1.55753 0
M  V30 6829 H 626.48 2.64485 -1.87665 0
M  V30 6830 H 626.265 1.84425 -3.4602 0
M  V30 6831 H 627.755 2.77453 -3.12105 0
M  V30 6832 N 628.193 1.56834 0.155195 0
M  V30 6833 C 629.44 1.82898 0.869179 0
M  V30 6834 C 629.768 0.698194 1.81537 0
M  V30 6835 O 629.023 -0.313404 1.93174 0
M  V30 6836 C 629.322 3.15239 1.68402 0
M  V30 6837 C 628.988 4.42123 0.885341 0
M  V30 6838 C 627.65 4.76583 0.664971 0
M  V30 6839 C 630.002 5.20178 0.326234 0
M  V30 6840 C 627.33 5.86566 -0.125346 0
M  V30 6841 C 629.682 6.3099 -0.45108 0
M  V30 6842 C 628.346 6.64006 -0.682102 0
M  V30 6843 H 627.616 0.66927 0.318055 0
M  V30 6844 H 630.263 1.91036 0.133241 0
M  V30 6845 H 628.568 3.02515 2.48982 0
M  V30 6846 H 630.265 3.32618 2.23978 0
M  V30 6847 H 626.855 4.15102 1.06716 0
M  V30 6848 H 631.039 4.93936 0.483787 0
M  V30 6849 H 626.295 6.10594 -0.313915 0
M  V30 6850 H 630.469 6.9067 -0.89149 0
M  V30 6851 H 628.096 7.49065 -1.29636 0
M  V30 6852 N 629.671 -0.424282 1.51781 0
M  V30 6853 C 631.082 -1.00368 1.57427 0
M  V30 6854 C 631.433 -1.91962 0.40558 0
M  V30 6855 O 630.558 -2.111 -0.47601 0
M  V30 6856 C 631.153 -1.82707 2.85313 0
M  V30 6857 C 629.712 -2.35675 2.93487 0
M  V30 6858 C 628.859 -1.1524 2.5222 0
M  V30 6859 H 631.81 -0.205064 1.5737 0
M  V30 6860 H 631.831 -2.68294 2.69812 0
M  V30 6861 H 631.343 -1.16017 3.70353 0
M  V30 6862 H 629.444 -3.05781 2.12906 0
M  V30 6863 H 629.557 -2.67578 3.97415 0
M  V30 6864 H 627.921 -1.50174 2.05718 0
M  V30 6865 H 628.704 -0.5014 3.39619 0
M  V30 6866 N 631.149 -1.42148 -0.680565 0
M  V30 6867 C 632.079 -1.4796 -1.80638 0
M  V30 6868 C 633.06 -0.336728 -1.66734 0
M  V30 6869 O 634.245 -0.550247 -1.86242 0
M  V30 6870 C 631.375 -1.37569 -3.18892 0
M  V30 6871 C 630.329 -2.49823 -3.47524 0
M  V30 6872 C 629.655 -2.24491 -4.85291 0
M  V30 6873 C 630.955 -3.92144 -3.44994 0
M  V30 6874 H 632.649 -2.42184 -1.76032 0
M  V30 6875 H 630.195 -1.16566 -0.845481 0
M  V30 6876 H 632.148 -1.40243 -3.97379 0
M  V30 6877 H 630.872 -0.398357 -3.24162 0
M  V30 6878 H 629.531 -2.46455 -2.71395 0
M  V30 6879 H 629.179 -1.25066 -4.87204 0
M  V30 6880 H 628.879 -2.99722 -5.05411 0
M  V30 6881 H 630.403 -2.28906 -5.66069 0
M  V30 6882 H 631.817 -3.97145 -4.13459 0
M  V30 6883 H 630.214 -4.67179 -3.76648 0
M  V30 6884 H 631.284 -4.19225 -2.43676 0
M  V30 6885 N 632.627 0.916307 -1.28225 0
M  V30 6886 C 633.59 1.99996 -1.11957 0
M  V30 6887 C 634.59 1.60688 -0.0600152 0
M  V30 6888 O 635.78 1.71499 -0.30558 0
M  V30 6889 C 632.912 3.33458 -0.708411 0
M  V30 6890 H 634.105 2.15858 -2.08196 0
M  V30 6891 H 631.658 1.09863 -1.11175 0
M  V30 6892 H 632.393 3.23297 0.254859 0
M  V30 6893 H 632.178 3.63349 -1.47377 0
M  V30 6894 H 633.668 4.13014 -0.617164 0
M  V30 6895 N 634.105 1.10431 1.1244 0
M  V30 6896 C 635.352 0.846717 1.83948 0
M  V30 6897 C 635.68 -0.627709 1.84093 0
M  V30 6898 O 634.935 -1.47876 1.28184 0
M  V30 6899 C 635.234 1.34022 3.3132 0
M  V30 6900 C 634.9 2.82606 3.51347 0
M  V30 6901 C 633.562 3.23182 3.56521 0
M  V30 6902 C 635.914 3.78356 3.58464 0
M  V30 6903 C 633.242 4.58258 3.66356 0
M  V30 6904 C 635.594 5.13234 3.69829 0
M  V30 6905 C 634.258 5.53384 3.73259 0
M  V30 6906 H 633.528 0.309836 0.673114 0
M  V30 6907 H 636.175 1.38091 1.32677 0
M  V30 6908 H 634.48 0.726047 3.85014 0
M  V30 6909 H 636.177 1.11739 3.85118 0
M  V30 6910 H 632.767 2.50212 3.47983 0
M  V30 6911 H 636.951 3.48115 3.53737 0
M  V30 6912 H 632.207 4.88787 3.67284 0
M  V30 6913 H 636.381 5.87272 3.74279 0
M  V30 6914 H 634.008 6.58045 3.80633 0
M  V30 6915 N 635.583 -1.29855 0.893053 0
M  V30 6916 C 636.513 -2.3035 0.382249 0
M  V30 6917 C 637.494 -1.61328 -0.539203 0
M  V30 6918 O 638.679 -1.88882 -0.451342 0
M  V30 6919 C 635.809 -3.45024 -0.396983 0
M  V30 6920 C 634.763 -4.258 0.433437 0
M  V30 6921 C 634.089 -5.32605 -0.472889 0
M  V30 6922 C 635.389 -4.94549 1.67984 0
M  V30 6923 H 637.083 -2.73325 1.22205 0
M  V30 6924 H 634.629 -1.314 0.589073 0
M  V30 6925 H 636.582 -4.14398 -0.765024 0
M  V30 6926 H 635.306 -3.00875 -1.2705 0
M  V30 6927 H 633.965 -3.58125 0.783723 0
M  V30 6928 H 633.613 -4.84702 -1.34435 0
M  V30 6929 H 633.313 -5.87547 0.0789958 0
M  V30 6930 H 634.837 -6.04832 -0.837269 0
M  V30 6931 H 636.251 -5.56395 1.38192 0
M  V30 6932 H 634.648 -5.59393 2.17254 0
M  V30 6933 H 635.718 -4.20215 2.41965 0
M  V30 6934 N 637.061 -0.65484 -1.43351 0
M  V30 6935 C 638.31 -0.166215 -2.01014 0
M  V30 6936 C 638.623 1.22764 -1.52278 0
M  V30 6937 O 639.829 1.81156 -2.02224 0
M  V30 6938 C 638.285 -0.246341 -3.59056 0
M  V30 6939 C 637.893 -1.64299 -4.16785 0
M  V30 6940 C 639.637 0.184597 -4.24098 0
M  V30 6941 C 637.544 -1.67695 -5.67126 0
M  V30 6942 H 636.474 -0.0583769 -0.751737 0
M  V30 6943 H 639.125 -0.817111 -1.64303 0
M  V30 6944 H 637.507 0.472092 -3.93176 0
M  V30 6945 H 638.681 -2.3869 -3.94162 0
M  V30 6946 H 636.996 -2.02004 -3.6412 0
M  V30 6947 H 639.593 0.179088 -5.344 0
M  V30 6948 H 639.936 1.21632 -3.98135 0
M  V30 6949 H 640.469 -0.482141 -3.94867 0
M  V30 6950 H 637.208 -2.68783 -5.9786 0
M  V30 6951 H 636.728 -0.976313 -5.91801 0
M  V30 6952 H 638.407 -1.42142 -6.31193 0
M  V30 6953 N 638.539 1.52521 -0.396863 0
M  V30 6954 C 639.786 2.01672 0.182898 0
M  V30 6955 C 640.114 1.28302 1.46181 0
M  V30 6956 O 639.369 0.374118 1.92091 0
M  V30 6957 C 639.668 3.5403 0.489677 0
M  V30 6958 C 639.334 4.45456 -0.698581 0
M  V30 6959 C 637.996 4.70166 -1.02454 0
M  V30 6960 C 640.348 4.99354 -1.49316 0
M  V30 6961 C 637.676 5.46024 -2.1465 0
M  V30 6962 C 640.028 5.76439 -2.60579 0
M  V30 6963 C 638.692 5.99426 -2.93675 0
M  V30 6964 H 637.962 0.737971 0.066927 0
M  V30 6965 H 640.609 1.83853 -0.535764 0
M  V30 6966 H 638.914 3.69963 1.28976 0
M  V30 6967 H 640.611 3.8956 0.951018 0
M  V30 6968 H 637.201 4.26392 -0.434525 0
M  V30 6969 H 641.385 4.80182 -1.25457 0
M  V30 6970 H 636.641 5.62046 -2.40654 0
M  V30 6971 H 640.815 6.17202 -3.22544 0
M  V30 6972 H 638.442 6.57988 -3.80731 0
M  V30 6973 N 640.017 0.126909 1.57088 0
M  V30 6974 C 640.965 -0.837618 2.16995 0
M  V30 6975 C 641.959 -1.26974 1.12133 0
M  V30 6976 O 643.165 -1.24056 1.30423 0
M  V30 6977 H 639.54 -0.288256 0.694559 0
M  V30 6978 H 641.511 -0.307957 2.96807 0
M  V30 6979 C 640.26 -2.07474 2.79016 0
M  V30 6980 H 639.583 -1.75117 3.59408 0
M  V30 6981 H 641.023 -2.72949 3.24461 0
M  V30 6982 C 639.482 -2.86967 1.76498 0
M  V30 6983 O 640.012 -3.82625 1.22316 0
M  V30 6984 N 638.218 -2.51111 1.46258 0
M  V30 6985 H 637.765 -1.73389 1.90509 0
M  V30 6986 H 637.723 -3.04594 0.779085 0
M  V30 6987 N 641.495 -1.56914 -0.146875 0
M  V30 6988 C 642.744 -1.82546 -0.857898 0
M  V30 6989 C 643.057 -0.708169 -1.8233 0
M  V30 6990 O 644.263 -0.850093 -2.57848 0
M  V30 6991 C 642.719 -3.23548 -1.57623 0
M  V30 6992 C 642.327 -4.43212 -0.653224 0
M  V30 6993 C 644.071 -3.58453 -2.27402 0
M  V30 6994 C 641.978 -5.75237 -1.37318 0
M  V30 6995 H 640.908 -0.680786 -0.32411 0
M  V30 6996 H 643.559 -1.83166 -0.110639 0
M  V30 6997 H 641.941 -3.17315 -2.36912 0
M  V30 6998 H 643.115 -4.60682 0.104452 0
M  V30 6999 H 641.43 -4.16351 -0.0638336 0
M  V30 7000 H 644.027 -4.54349 -2.81907 0
M  V30 7001 H 644.37 -2.84516 -3.03901 0
M  V30 7002 H 644.903 -3.66347 -1.55032 0
M  V30 7003 H 641.642 -6.52269 -0.650041 0
M  V30 7004 H 641.162 -5.61703 -2.10357 0
M  V30 7005 H 642.841 -6.18039 -1.91406 0
M  V30 7006 N 642.974 0.416227 -1.52004 0
M  V30 7007 C 644.221 1.16383 -1.65714 0
M  V30 7008 C 644.549 1.9068 -0.383594 0
M  V30 7009 O 643.804 1.85174 0.633185 0
M  V30 7010 C 644.103 2.18923 -2.82502 0
M  V30 7011 C 643.769 1.61485 -4.20991 0
M  V30 7012 C 642.431 1.45545 -4.58661 0
M  V30 7013 C 644.783 1.19468 -5.07323 0
M  V30 7014 C 642.111 0.860937 -5.80349 0
M  V30 7015 C 644.463 0.614386 -6.29609 0
M  V30 7016 C 643.127 0.442056 -6.66035 0
M  V30 7017 H 642.397 0.425875 -0.606392 0
M  V30 7018 H 645.044 0.45199 -1.8609 0
M  V30 7019 H 643.349 2.96225 -2.56433 0
M  V30 7020 H 645.046 2.76628 -2.90307 0
M  V30 7021 H 641.636 1.74873 -3.91302 0
M  V30 7022 H 645.82 1.30596 -4.78809 0
M  V30 7023 H 641.076 0.715372 -6.072 0
M  V30 7024 H 645.25 0.280393 -6.95835 0
M  V30 7025 H 642.877 -0.0207218 -7.60197 0
M  V30 7026 N 644.452 1.42507 0.673017 0
M  V30 7027 C 645.682 1.46261 1.45916 0
M  V30 7028 C 646.09 0.0729724 1.89059 0
M  V30 7029 O 645.433 -0.922987 1.58829 0
M  V30 7030 C 645.495 2.32853 2.73898 0
M  V30 7031 C 645.159 3.80699 2.52819 0
M  V30 7032 C 646.156 4.72307 2.17306 0
M  V30 7033 C 643.841 4.24983 2.67758 0
M  V30 7034 C 645.835 6.06192 1.97003 0
M  V30 7035 C 643.522 5.58927 2.4707 0
M  V30 7036 C 644.52 6.49348 2.11746 0
M  V30 7037 O 644.208 7.80817 1.91259 0
M  V30 7038 H 643.94 0.499561 0.455428 0
M  V30 7039 H 646.494 1.87697 0.834196 0
M  V30 7040 H 644.724 1.86268 3.38882 0
M  V30 7041 H 646.413 2.28041 3.35786 0
M  V30 7042 H 647.179 4.39378 2.05359 0
M  V30 7043 H 643.058 3.54893 2.94231 0
M  V30 7044 H 646.602 6.76731 1.69355 0
M  V30 7045 H 642.499 5.91429 2.58615 0
M  V30 7046 H 643.267 7.92194 2.05843 0
M  V30 7047 N 645.93 -0.909495 1.28709 0
M  V30 7048 C 647.176 -1.66175 1.17293 0
M  V30 7049 C 647.531 -1.90426 -0.274891 0
M  V30 7050 O 646.824 -1.49659 -1.19635 0
M  V30 7051 C 647.018 -3.02117 1.90945 0
M  V30 7052 C 646.847 -2.91134 3.42741 0
M  V30 7053 C 645.617 -2.92429 4.12085 0
M  V30 7054 C 647.815 -2.68889 4.3841 0
M  V30 7055 N 645.797 -2.72078 5.50315 0
M  V30 7056 C 647.168 -2.57423 5.64033 0
M  V30 7057 C 649.223 -2.53919 4.28287 0
M  V30 7058 C 647.926 -2.32513 6.80683 0
M  V30 7059 C 649.952 -2.3039 5.44678 0
M  V30 7060 C 649.314 -2.19682 6.69268 0
M  V30 7061 H 645.413 -0.614095 0.48416 0
M  V30 7062 H 647.997 -1.07377 1.62414 0
M  V30 7063 H 646.168 -3.58993 1.48252 0
M  V30 7064 H 647.9 -3.66388 1.71878 0
M  V30 7065 H 644.655 -3.03345 3.63701 0
M  V30 7066 H 645.079 -2.64983 6.22987 0
M  V30 7067 H 649.721 -2.60946 3.32666 0
M  V30 7068 H 647.439 -2.24225 7.76369 0
M  V30 7069 H 651.025 -2.19665 5.38738 0
M  V30 7070 H 649.905 -2.01725 7.5781 0
M  V30 7071 N 647.408 -1.11026 -1.11852 0
M  V30 7072 C 648.657 -0.851249 -1.82857 0
M  V30 7073 C 648.97 0.62514 -1.85341 0
M  V30 7074 O 650.176 1.00026 -2.52403 0
M  V30 7075 C 648.632 -1.47309 -3.28372 0
M  V30 7076 C 648.24 -2.9832 -3.34229 0
M  V30 7077 C 649.984 -1.29373 -4.04306 0
M  V30 7078 C 647.891 -3.53509 -4.74115 0
M  V30 7079 H 646.821 -0.314794 -0.685143 0
M  V30 7080 H 649.472 -1.33499 -1.25898 0
M  V30 7081 H 647.854 -0.917017 -3.85236 0
M  V30 7082 H 649.028 -3.60295 -2.87271 0
M  V30 7083 H 647.343 -3.15482 -2.71772 0
M  V30 7084 H 649.94 -1.68042 -5.07608 0
M  V30 7085 H 650.283 -0.235879 -4.15631 0
M  V30 7086 H 650.816 -1.8182 -3.53817 0
M  V30 7087 H 647.555 -4.58987 -4.67986 0
M  V30 7088 H 647.075 -2.96305 -5.21501 0
M  V30 7089 H 648.754 -3.51693 -5.43066 0
M  V30 7090 N 648.886 1.2938 -0.899927 0
M  V30 7091 C 650.114 1.99691 -0.541386 0
M  V30 7092 C 650.529 1.67355 0.873936 0
M  V30 7093 O 649.886 0.918728 1.57688 0
M  V30 7094 C 649.937 3.54168 -0.72438 0
M  V30 7095 O 649.658 3.85359 -2.08399 0
M  V30 7096 C 651.159 4.41746 -0.370819 0
M  V30 7097 H 648.379 0.638037 -0.207726 0
M  V30 7098 H 650.923 1.6491 -1.20934 0
M  V30 7099 H 649.078 3.87261 -0.103607 0
M  V30 7100 H 649.492 4.80032 -2.11352 0
M  V30 7101 H 650.966 5.49256 -0.549693 0
M  V30 7102 H 651.443 4.33712 0.692148 0
M  V30 7103 H 652.049 4.14125 -0.968543 0
M  V30 7104 N 650.364 0.662433 1.43002 0
M  V30 7105 C 651.594 0.187343 2.05749 0
M  V30 7106 C 652.002 -1.15582 1.49791 0
M  V30 7107 O 651.345 -1.72651 0.627487 0
M  V30 7108 C 651.407 0.0316493 3.59486 0
M  V30 7109 C 651.071 1.30156 4.38073 0
M  V30 7110 C 652.068 2.23234 4.69535 0
M  V30 7111 C 649.753 1.54572 4.77926 0
M  V30 7112 C 651.747 3.39012 5.39768 0
M  V30 7113 C 649.434 2.70641 5.47902 0
M  V30 7114 C 650.432 3.62687 5.78746 0
M  V30 7115 O 650.12 4.76728 6.47291 0
M  V30 7116 H 649.852 0.0915214 0.669776 0
M  V30 7117 H 652.406 0.905982 1.8434 0
M  V30 7118 H 650.636 -0.742451 3.79506 0
M  V30 7119 H 652.325 -0.401977 4.03905 0
M  V30 7120 H 653.091 2.05616 4.39257 0
M  V30 7121 H 648.97 0.83804 4.53319 0
M  V30 7122 H 652.514 4.10877 5.63761 0
M  V30 7123 H 648.411 2.88189 5.77596 0
M  V30 7124 H 649.179 4.76113 6.65777 0
M  V30 7125 N 651.842 -1.52309 0.404946 0
M  V30 7126 C 652.789 -2.26898 -0.422597 0
M  V30 7127 C 653.759 -1.2914 -1.04461 0
M  V30 7128 O 654.944 -1.57996 -1.06967 0
M  V30 7129 C 652.084 -3.09053 -1.53559 0
M  V30 7130 C 651.197 -4.21762 -0.934908 0
M  V30 7131 C 650.332 -4.91283 -2.02025 0
M  V30 7132 C 649.371 -5.95962 -1.39628 0
M  V30 7133 N 648.508 -6.59017 -2.42159 0
M  V30 7134 H 653.348 -2.97188 0.219903 0
M  V30 7135 H 650.885 -1.46607 0.120282 0
M  V30 7136 H 652.843 -3.54987 -2.19181 0
M  V30 7137 H 651.473 -2.40942 -2.14818 0
M  V30 7138 H 650.525 -3.80029 -0.167854 0
M  V30 7139 H 651.837 -4.96864 -0.439073 0
M  V30 7140 H 650.991 -5.40601 -2.75383 0
M  V30 7141 H 649.73 -4.15741 -2.54973 0
M  V30 7142 H 648.735 -5.45968 -0.648023 0
M  V30 7143 H 649.96 -6.73445 -0.874553 0
M  V30 7144 H 647.906 -5.86306 -2.94247 0
M  V30 7145 H 647.823 -7.2978 -1.97376 0
M  V30 7146 H 649.091 -7.12974 -3.15099 0
M  V30 7147 N 653.32 -0.135238 -1.57019 0
M  V30 7148 C 654.569 0.518694 -1.94917 0
M  V30 7149 C 654.882 1.66783 -1.0219 0
M  V30 7150 O 656.088 2.38561 -1.29619 0
M  V30 7151 C 654.544 0.974123 -3.46466 0
M  V30 7152 C 654.152 -0.147439 -4.47757 0
M  V30 7153 C 655.896 1.59851 -3.93253 0
M  V30 7154 C 653.803 0.325599 -5.90503 0
M  V30 7155 H 652.733 0.19754 -0.727663 0
M  V30 7156 H 655.384 -0.217698 -1.82204 0
M  V30 7157 H 653.766 1.76542 -3.5447 0
M  V30 7158 H 654.94 -0.924122 -4.51438 0
M  V30 7159 H 653.255 -0.679496 -4.10818 0
M  V30 7160 H 655.852 1.96385 -4.9733 0
M  V30 7161 H 656.195 2.48306 -3.3414 0
M  V30 7162 H 656.728 0.872323 -3.88118 0
M  V30 7163 H 653.467 -0.523295 -6.53408 0
M  V30 7164 H 652.987 1.06841 -5.90208 0
M  V30 7165 H 654.666 0.781498 -6.42263 0
M  V30 7166 N 654.798 1.5699 0.138552 0
M  V30 7167 C 656.047 1.82998 0.848205 0
M  V30 7168 C 656.36 0.717829 1.81952 0
M  V30 7169 O 657.566 0.863756 2.57394 0
M  V30 7170 C 656.022 3.24379 1.55904 0
M  V30 7171 C 655.63 4.43552 0.62971 0
M  V30 7172 C 657.374 3.59654 2.25498 0
M  V30 7173 C 655.281 5.75957 1.34266 0
M  V30 7174 H 654.211 0.682495 0.320495 0
M  V30 7175 H 656.862 1.83222 0.100924 0
M  V30 7176 H 655.244 3.18567 2.35226 0
M  V30 7177 H 656.418 4.6062 -0.128882 0
M  V30 7178 H 654.733 4.16379 0.0417526 0
M  V30 7179 H 657.33 4.55837 2.79493 0
M  V30 7180 H 657.673 2.86124 3.02388 0
M  V30 7181 H 658.206 3.67164 1.53087 0
M  V30 7182 H 654.945 6.52604 0.615441 0
M  V30 7183 H 654.465 5.62811 2.07375 0
M  V30 7184 H 656.144 6.19046 1.88126 0
M  V30 7185 N 656.276 -0.40816 1.52223 0
M  V30 7186 C 657.692 -0.74685 1.41047 0
M  V30 7187 C 657.892 -1.94788 0.51573 0
M  V30 7188 O 656.948 -2.52494 -0.0181156 0
M  V30 7189 C 658.261 -0.999878 2.83589 0
M  V30 7190 C 659.809 -1.10253 2.92939 0
M  V30 7191 C 660.284 -1.38832 4.36451 0
M  V30 7192 N 661.775 -1.45694 4.3969 0
M  V30 7193 C 662.51 -1.69435 5.47795 0
M  V30 7194 N 662.006 -1.90774 6.66016 0
M  V30 7195 N 663.799 -1.71458 5.35312 0
M  V30 7196 H 655.95 0.382409 2.08929 0
M  V30 7197 H 658.213 0.108807 0.941735 0
M  V30 7198 H 657.919 -0.189723 3.51188 0
M  V30 7199 H 657.793 -1.91978 3.24691 0
M  V30 7200 H 660.18 -1.90328 2.2552 0
M  V30 7201 H 660.261 -0.160973 2.55293 0
M  V30 7202 H 659.905 -0.592741 5.04429 0
M  V30 7203 H 659.835 -2.34241 4.71634 0
M  V30 7204 H 662.326 -1.3099 3.54472 0
M  V30 7205 H 662.639 -2.08342 7.44186 0
M  V30 7206 H 660.984 -1.88037 6.69079 0
M  V30 7207 H 664.175 -1.54326 4.41929 0
M  V30 7208 H 664.348 -1.89621 6.19635 0
M  V30 7209 N 657.755 -1.42862 -0.66545 0
M  V30 7210 C 658.705 -1.43521 -1.7716 0
M  V30 7211 C 659.689 -0.305267 -1.57978 0
M  V30 7212 O 660.881 -0.548176 -1.68297 0
M  V30 7213 C 658.01 -1.34914 -3.15679 0
M  V30 7214 C 657.096 -2.5289 -3.40452 0
M  V30 7215 N 657.487 -3.78284 -3.3576 0
M  V30 7216 C 655.785 -2.47351 -3.71124 0
M  V30 7217 C 656.486 -4.56701 -3.60276 0
M  V30 7218 N 655.462 -3.87249 -3.81496 0
M  V30 7219 H 659.264 -2.38357 -1.7194 0
M  V30 7220 H 656.778 -1.37342 -0.866653 0
M  V30 7221 H 658.775 -1.33468 -3.94958 0
M  V30 7222 H 657.435 -0.410881 -3.2209 0
M  V30 7223 H 658.446 -4.10746 -3.15448 0
M  V30 7224 H 655.123 -1.62152 -3.84725 0
M  V30 7225 H 656.513 -5.65704 -3.6253 0
M  V30 7226 N 659.233 0.902656 -1.29189 0
M  V30 7227 C 660.143 2.03946 -1.15944 0
M  V30 7228 C 661.159 1.738 -0.0833803 0
M  V30 7229 O 662.335 1.9923 -0.29487 0
M  V30 7230 C 659.4 3.36519 -0.834006 0
M  V30 7231 C 658.461 3.80203 -1.9936 0
M  V30 7232 C 657.694 5.06449 -1.68359 0
M  V30 7233 O 657.917 5.67202 -0.603141 0
M  V30 7234 O 656.851 5.46114 -2.53067 0
M  V30 7235 H 660.677 2.18043 -2.11403 0
M  V30 7236 H 658.262 1.02584 -1.08613 0
M  V30 7237 H 660.144 4.16089 -0.666949 0
M  V30 7238 H 658.819 3.23573 0.0908245 0
M  V30 7239 H 657.726 3.01413 -2.21588 0
M  V30 7240 H 659.059 3.97729 -2.89952 0
M  V30 7241 N 660.711 1.11618 1.11262 0
M  V30 7242 C 661.988 0.777876 1.79467 0
M  V30 7243 C 662.368 -0.733774 1.97937 0
M  V30 7244 O 661.716 -1.66443 1.56554 0
M  V30 7245 C 661.926 1.5431 3.13032 0
M  V30 7246 C 663.274 1.72357 3.88044 0
M  V30 7247 O 664.298 1.5075 3.22727 0
M  V30 7248 O 663.157 2.08276 5.05256 0
M  V30 7249 H 660.251 0.282018 0.777428 0
M  V30 7250 H 662.797 1.21971 1.17988 0
M  V30 7251 H 661.569 2.57132 2.94956 0
M  V30 7252 H 661.192 1.09495 3.82226 0
M  V30 7253 N 662.189 -1.289 0.906776 0
M  V30 7254 C 663.435 -1.95558 0.53712 0
M  V30 7255 C 663.768 -1.71262 -0.915582 0
M  V30 7256 O 663.043 -1.02961 -1.65013 0
M  V30 7257 C 663.326 -3.50198 0.838645 0
M  V30 7258 C 663.179 -3.83923 2.34357 0
M  V30 7259 C 664.498 -4.38861 0.329988 0
M  V30 7260 H 661.617 -0.710289 0.196617 0
M  V30 7261 H 664.259 -1.52392 1.13475 0
M  V30 7262 H 662.409 -3.87096 0.330024 0
M  V30 7263 H 664.081 -3.56933 2.92227 0
M  V30 7264 H 662.324 -3.31215 2.80141 0
M  V30 7265 H 662.995 -4.91883 2.5051 0
M  V30 7266 H 665.471 -4.08996 0.765609 0
M  V30 7267 H 664.347 -5.45931 0.570105 0
M  V30 7268 H 664.608 -4.35352 -0.769511 0
M  V30 7269 N 663.667 -0.670007 -1.42649 0
M  V30 7270 C 664.617 0.0339546 -2.27975 0
M  V30 7271 C 665.601 0.778295 -1.40824 0
M  V30 7272 O 666.793 0.657997 -1.64315 0
M  V30 7273 C 663.922 0.987899 -3.28779 0
M  V30 7274 C 663.008 0.241153 -4.23414 0
M  V30 7275 N 663.399 -0.751392 -5.00188 0
M  V30 7276 C 661.697 0.480269 -4.43407 0
M  V30 7277 C 662.398 -1.19615 -5.69269 0
M  V30 7278 N 661.374 -0.527045 -5.41039 0
M  V30 7279 H 665.176 -0.727425 -2.84756 0
M  V30 7280 H 662.69 -0.498673 -1.54554 0
M  V30 7281 H 664.687 1.50716 -3.88703 0
M  V30 7282 H 663.347 1.74916 -2.73559 0
M  V30 7283 H 664.358 -1.13075 -5.05405 0
M  V30 7284 H 661.035 1.2214 -3.99234 0
M  V30 7285 H 662.425 -2.01836 -6.40868 0
M  V30 7286 N 665.145 1.52092 -0.413018 0
M  V30 7287 C 666.092 2.27119 0.410558 0
M  V30 7288 C 667.062 1.29692 1.03774 0
M  V30 7289 O 668.247 1.58561 1.06128 0
M  V30 7290 C 665.387 3.09863 1.51918 0
M  V30 7291 C 664.5 4.22252 0.912528 0
M  V30 7292 C 663.635 4.92348 1.99417 0
M  V30 7293 C 662.674 5.96694 1.36466 0
M  V30 7294 N 661.811 6.60292 2.38661 0
M  V30 7295 H 666.651 2.97067 -0.235661 0
M  V30 7296 H 664.188 1.46542 -0.128055 0
M  V30 7297 H 666.146 3.56144 2.17295 0
M  V30 7298 H 664.776 2.42078 2.13537 0
M  V30 7299 H 663.828 3.80113 0.147697 0
M  V30 7300 H 665.14 4.9709 0.412717 0
M  V30 7301 H 664.294 5.42054 2.72512 0
M  V30 7302 H 663.033 4.17087 2.52764 0
M  V30 7303 H 662.038 5.46304 0.61906 0
M  V30 7304 H 663.263 6.73899 0.838827 0
M  V30 7305 H 661.209 5.87858 2.91134 0
M  V30 7306 H 661.126 7.30816 1.93503 0
M  V30 7307 H 662.394 7.14635 3.11314 0
M  V30 7308 N 666.623 0.143563 1.56945 0
M  V30 7309 C 667.57 -0.797433 2.16586 0
M  V30 7310 C 668.54 -1.24654 1.09775 0
M  V30 7311 O 669.725 -1.31968 1.37801 0
M  V30 7312 C 666.865 -2.03253 2.78895 0
M  V30 7313 C 665.978 -1.62954 4.00087 0
M  V30 7314 C 665.113 -2.81617 4.50406 0
M  V30 7315 C 664.152 -2.37675 5.64072 0
M  V30 7316 N 663.289 -3.49335 6.09023 0
M  V30 7317 H 668.129 -0.282023 2.96662 0
M  V30 7318 H 665.666 -0.127494 1.46546 0
M  V30 7319 H 667.624 -2.75653 3.13163 0
M  V30 7320 H 666.254 -2.52211 2.01469 0
M  V30 7321 H 665.306 -0.803322 3.71821 0
M  V30 7322 H 666.618 -1.26679 4.82446 0
M  V30 7323 H 665.772 -3.62212 4.86711 0
M  V30 7324 H 664.511 -3.21134 3.67048 0
M  V30 7325 H 663.516 -1.55519 5.27346 0
M  V30 7326 H 664.741 -1.99247 6.49213 0
M  V30 7327 H 662.687 -3.8848 5.28601 0
M  V30 7328 H 662.604 -3.17064 6.86299 0
M  V30 7329 H 663.872 -4.30297 6.49973 0
M  V30 7330 O 668.14 -1.61499 0.00487092 0
M  V30 7331 H 668.831 -1.83807 -0.611124 0
M  V30 END ATOM
M  V30 BEGIN BOND
M  V30 END BOND
M  V30 END CTAB
M  END
$$$$
