drugbank_target|P23528 Cofilin-1 (DB04147; DB09130; DB11638)
 OpenBabel12092120483D

  0  0  0     0  0            999 V3000
M  V30 BEGIN CTAB
M  V30 COUNTS 2641 2660 0 0 0
M  V30 BEGIN ATOM
M  V30 1 H -0.908 1.98254 -0.117106 0
M  V30 2 N 0 1.576 0 0
M  V30 3 C 0.933 2.03868 1.02534 0
M  V30 4 C 1.911 0.928543 1.3348 0
M  V30 5 O 3.095 1.19667 1.45644 0
M  V30 6 C 0.222 2.43627 2.35294 0
M  V30 7 C -0.732 3.65373 2.2001 0
M  V30 8 S 0.101 5.13292 1.52614 0
M  V30 9 C 1.257 5.56322 2.86805 0
M  V30 10 H 1.49 2.90518 0.631377 0
M  V30 11 H -0.977 1.52953 0.210867 0
M  V30 12 H 0.981 2.67203 3.11629 0
M  V30 13 H -0.358 1.57376 2.7183 0
M  V30 14 H -1.165 3.90944 3.18086 0
M  V30 15 H -1.563 3.418 1.51819 0
M  V30 16 H 0.729 5.58782 3.83104 0
M  V30 17 H 1.672 6.56266 2.65933 0
M  V30 18 H 2.08 4.83886 2.90714 0
M  V30 19 N 1.4781 -0.272755 1.55222 0
M  V30 20 C 2.4411 -1.32041 1.87344 0
M  V30 21 C 3.4411 -1.42342 0.74803 0
M  V30 22 O 4.6311 -1.41488 1.0162 0
M  V30 23 C 1.7631 -2.70173 2.07893 0
M  V30 24 H 2.9561 -1.04789 2.80997 0
M  V30 25 H 0.5091 -0.51083 1.47717 0
M  V30 26 H 1.2441 -3.02605 1.16622 0
M  V30 27 H 1.0291 -2.64082 2.89833 0
M  V30 28 H 2.5191 -3.45869 2.34017 0
M  V30 29 N 2.9562 -1.48159 -0.537278 0
M  V30 30 C 4.1812 -1.59707 -1.32319 0
M  V30 31 C 4.6062 -0.254859 -1.86365 0
M  V30 32 O 3.9642 0.772378 -1.64024 0
M  V30 33 C 4.0122 -2.6412 -2.45505 0
M  V30 34 O 3.1162 -2.20774 -3.48328 0
M  V30 35 H 2.4572 -0.535791 -0.392204 0
M  V30 36 H 4.9872 -1.94092 -0.647268 0
M  V30 37 H 4.9972 -2.85166 -2.91795 0
M  V30 38 H 3.6722 -3.61567 -2.05528 0
M  V30 39 H 2.2492 -2.09911 -3.08207 0
M  V30 40 N 4.4343 0.785586 -1.36625 0
M  V30 41 C 5.6823 1.54057 -1.30808 0
M  V30 42 C 6.0033 1.94683 0.111157 0
M  V30 43 O 5.2733 1.65241 1.05224 0
M  V30 44 H 3.8533 0.571354 -0.481211 0
M  V30 45 H 6.5153 0.935821 -1.70963 0
M  V30 46 H 5.6113 2.44637 -1.93801 0
M  V30 47 N 5.9124 1.20967 1.01018 0
M  V30 48 C 7.1584 1.02526 1.74975 0
M  V30 49 C 7.4914 -0.4408 1.89131 0
M  V30 50 O 6.7664 -1.32718 1.42184 0
M  V30 51 C 7.0494 1.71699 3.1653 0
M  V30 52 C 6.9024 3.25791 3.10129 0
M  V30 53 C 8.2214 1.45531 4.15342 0
M  V30 54 H 5.3404 0.373863 0.635134 0
M  V30 55 H 7.9824 1.49071 1.17805 0
M  V30 56 H 6.1324 1.32128 3.65341 0
M  V30 57 H 7.8044 3.74697 2.69072 0
M  V30 58 H 6.0474 3.56363 2.47362 0
M  V30 59 H 6.7184 3.69353 4.10222 0
M  V30 60 H 9.1944 1.79872 3.75213 0
M  V30 61 H 8.0704 1.96453 5.1254 0
M  V30 62 H 8.3314 0.384237 4.40427 0
M  V30 63 N 7.3905 -1.2043 1.01659 0
M  V30 64 C 8.3535 -2.21433 0.591616 0
M  V30 65 C 9.3535 -1.57203 -0.338226 0
M  V30 66 O 10.5435 -1.73737 -0.126918 0
M  V30 67 C 7.6755 -3.40628 -0.136058 0
M  V30 68 H 8.8685 -2.60545 1.48514 0
M  V30 69 H 6.4215 -1.33893 0.806379 0
M  V30 70 H 7.1565 -3.07019 -1.04449 0
M  V30 71 H 6.9415 -3.88475 0.531917 0
M  V30 72 H 8.4315 -4.15475 -0.420735 0
M  V30 73 N 8.8686 -0.792821 -1.36206 0
M  V30 74 C 10.1146 -0.36733 -1.99446 0
M  V30 75 C 10.4476 1.05917 -1.62774 0
M  V30 76 O 9.7226 1.7324 -0.88421 0
M  V30 77 C 10.0056 -0.535044 -3.56103 0
M  V30 78 C 9.8586 -2.00548 -4.02617 0
M  V30 79 C 11.1776 0.0478191 -4.40074 0
M  V30 80 H 8.2966 -0.134941 -0.724541 0
M  V30 81 H 10.9386 -0.999794 -1.61568 0
M  V30 82 H 9.0886 0.00336329 -3.885 0
M  V30 83 H 10.7606 -2.60521 -3.80692 0
M  V30 84 H 9.0036 -2.50686 -3.54032 0
M  V30 85 H 9.6746 -2.07377 -5.11565 0
M  V30 86 H 12.1506 -0.411822 -4.14057 0
M  V30 87 H 11.0266 -0.0995336 -5.4881 0
M  V30 88 H 11.2876 1.14025 -4.27142 0
M  V30 89 N 10.3467 1.47872 -0.545128 0
M  V30 90 C 11.5717 2.07391 -0.0190611 0
M  V30 91 C 11.9967 1.39688 1.25971 0
M  V30 92 O 11.3547 0.467816 1.7516 0
M  V30 93 C 11.4027 3.60188 0.172335 0
M  V30 94 O 10.5067 3.9339 1.23766 0
M  V30 95 H 9.8477 0.662411 -0.0459059 0
M  V30 96 H 12.3777 1.90066 -0.757365 0
M  V30 97 H 12.3877 4.06129 0.390305 0
M  V30 98 H 11.0627 4.08865 -0.761725 0
M  V30 99 H 9.6397 3.5921 1.00114 0
M  V30 100 N 11.8248 0.280983 1.55075 0
M  V30 101 C 13.1018 -0.386207 1.91749 0
M  V30 102 C 13.4818 -1.73264 1.20594 0
M  V30 103 O 12.8298 -2.26034 0.334784 0
M  V30 104 C 13.0398 -0.520687 3.45094 0
M  V30 105 C 14.3878 -0.800865 4.16979 0
M  V30 106 O 15.4118 -0.605271 3.5102 0
M  V30 107 O 14.2708 -1.1753 5.33712 0
M  V30 108 H 11.3648 -0.212408 0.799257 0
M  V30 109 H 13.9108 0.327568 1.66509 0
M  V30 110 H 12.6828 0.426633 3.88967 0
M  V30 111 H 12.3058 -1.2837 3.76307 0
M  V30 112 N 13.3029 -1.57598 0.00835791 0
M  V30 113 C 14.5509 -1.90551 -0.6734 0
M  V30 114 C 14.8719 -0.883301 -1.73847 0
M  V30 115 O 14.1419 0.0781442 -1.95744 0
M  V30 116 H 12.7219 -0.703312 -0.251717 0
M  V30 117 H 15.3839 -1.94833 0.0512592 0
M  V30 118 H 14.4799 -2.9056 -1.13935 0
M  V30 119 N 14.781 0.264519 -1.55364 0
M  V30 120 C 16.027 0.99646 -1.76631 0
M  V30 121 C 16.36 1.85632 -0.570478 0
M  V30 122 O 15.635 1.89647 0.43175 0
M  V30 123 C 15.918 1.87187 -3.07625 0
M  V30 124 C 15.771 1.04138 -4.37579 0
M  V30 125 C 17.09 2.85749 -3.34717 0
M  V30 126 H 14.209 0.360841 -0.642622 0
M  V30 127 H 16.851 0.268218 -1.88097 0
M  V30 128 H 15.001 2.49279 -2.9798 0
M  V30 129 H 16.673 0.440517 -4.59192 0
M  V30 130 H 14.916 0.345115 -4.32425 0
M  V30 131 H 15.587 1.68729 -5.2558 0
M  V30 132 H 18.063 2.33793 -3.4421 0
M  V30 133 H 16.939 3.44136 -4.27623 0
M  V30 134 H 17.2 3.61311 -2.54768 0
M  V30 135 N 16.2591 1.48442 0.529413 0
M  V30 136 C 17.5081 1.55742 1.28169 0
M  V30 137 C 17.8211 0.236511 1.94165 0
M  V30 138 O 19.0271 0.187761 2.7085 0
M  V30 139 C 17.4831 2.74667 2.32564 0
M  V30 140 C 17.0911 4.13402 1.72636 0
M  V30 141 C 18.8351 2.9128 3.08798 0
M  V30 142 C 16.7421 5.23587 2.74975 0
M  V30 143 H 15.6721 0.579796 0.48203 0
M  V30 144 H 18.3231 1.74776 0.559056 0
M  V30 145 H 16.7051 2.49067 3.07866 0
M  V30 146 H 17.8791 4.49022 1.03519 0
M  V30 147 H 16.1941 4.0191 1.08892 0
M  V30 148 H 18.7911 3.70767 3.85274 0
M  V30 149 H 19.1341 2.00757 3.64695 0
M  V30 150 H 19.6671 3.16782 2.40611 0
M  V30 151 H 16.4061 6.16076 2.23897 0
M  V30 152 H 15.9261 4.92454 3.42417 0
M  V30 153 H 17.6051 5.51724 3.37949 0
M  V30 154 N 17.7372 -0.778329 1.37039 0
M  V30 155 C 18.6842 -1.89139 1.32269 0
M  V30 156 C 19.6542 -1.65017 0.189387 0
M  V30 157 O 20.8392 -1.87024 0.377693 0
M  V30 158 C 17.9792 -3.26112 1.12894 0
M  V30 159 C 17.0922 -3.62233 2.35396 0
M  V30 160 C 16.2272 -4.8838 2.08946 0
M  V30 161 C 15.2662 -5.17212 3.2735 0
M  V30 162 N 14.4032 -6.34546 3.00492 0
M  V30 163 H 19.2432 -1.92552 2.27437 0
M  V30 164 H 16.7802 -0.941473 1.13025 0
M  V30 165 H 18.7382 -4.05116 0.996835 0
M  V30 166 H 17.3682 -3.22091 0.213758 0
M  V30 167 H 16.4202 -2.78265 2.5937 0
M  V30 168 H 17.7322 -3.79481 3.23721 0
M  V30 169 H 16.8862 -5.75274 1.92729 0
M  V30 170 H 15.6252 -4.73222 1.17949 0
M  V30 171 H 14.6302 -4.28796 3.44113 0
M  V30 172 H 15.8552 -5.34283 4.19188 0
M  V30 173 H 13.8012 -6.20759 2.12118 0
M  V30 174 H 13.7182 -6.52179 3.82358 0
M  V30 175 H 14.9862 -7.24394 2.87879 0
M  V30 176 N 19.2153 -1.21501 -1.00376 0
M  V30 177 C 20.4613 -1.03452 -1.74429 0
M  V30 178 C 20.7943 0.430764 -1.89362 0
M  V30 179 O 20.0693 1.31962 -1.42886 0
M  V30 180 C 20.3523 -1.73375 -3.15615 0
M  V30 181 C 20.2053 -3.27431 -3.08397 0
M  V30 182 C 21.5243 -1.47732 -4.14564 0
M  V30 183 H 18.6433 -0.377226 -0.633143 0
M  V30 184 H 21.2853 -1.49693 -1.17013 0
M  V30 185 H 19.4353 -1.34064 -3.64636 0
M  V30 186 H 21.1073 -3.76119 -2.67081 0
M  V30 187 H 19.3503 -3.5767 -2.45468 0
M  V30 188 H 20.0213 -3.71524 -4.08258 0
M  V30 189 H 22.4973 -1.8186 -3.74254 0
M  V30 190 H 21.3733 -1.99169 -5.11491 0
M  V30 191 H 21.6343 -0.407589 -4.40217 0
M  V30 192 N 20.6934 1.19889 -1.02296 0
M  V30 193 C 21.9404 1.8942 -0.715972 0
M  V30 194 C 22.2684 1.79251 0.754944 0
M  V30 195 O 21.5234 1.17526 1.56481 0
M  V30 196 C 21.8224 3.39883 -1.10518 0
M  V30 197 C 21.4884 3.70254 -2.57337 0
M  V30 198 C 20.1504 3.78254 -2.97452 0
M  V30 199 C 22.5024 3.84052 -3.52354 0
M  V30 200 C 19.8304 3.97514 -4.31509 0
M  V30 201 C 22.1824 4.04824 -4.86108 0
M  V30 202 C 20.8464 4.11054 -5.25919 0
M  V30 203 H 20.1164 0.693138 -0.261993 0
M  V30 204 H 22.7634 1.42012 -1.28472 0
M  V30 205 H 21.0684 3.8915 -0.454953 0
M  V30 206 H 22.7654 3.9199 -0.845261 0
M  V30 207 H 19.3554 3.64632 -2.25258 0
M  V30 208 H 23.5394 3.77221 -3.22518 0
M  V30 209 H 18.7954 4.00574 -4.61898 0
M  V30 210 H 22.9694 4.14442 -5.59653 0
M  V30 211 H 20.5964 4.2573 -6.29808 0
M  V30 212 N 22.1715 0.800033 1.35784 0
M  V30 213 C 23.1195 0.193851 2.31791 0
M  V30 214 C 24.1135 -0.652744 1.56319 0
M  V30 215 O 25.3195 -0.546641 1.71499 0
M  V30 216 H 21.6945 0.04392 0.750716 0
M  V30 217 H 23.6655 1.01883 2.80468 0
M  V30 218 C 22.4145 -0.648338 3.41602 0
M  V30 219 H 21.7375 -0.00624665 3.998 0
M  V30 220 H 23.1775 -1.03898 4.11073 0
M  V30 221 C 21.6365 -1.8111 2.84079 0
M  V30 222 O 22.1665 -2.90825 2.77099 0
M  V30 223 N 20.3725 -1.62056 2.41218 0
M  V30 224 H 19.9195 -0.728123 2.47095 0
M  V30 225 H 19.8775 -2.40013 2.03079 0
M  V30 226 N 23.6496 -1.47581 0.552962 0
M  V30 227 C 24.9266 -1.95563 -0.0381515 0
M  V30 228 C 25.3066 -1.49552 -1.48988 0
M  V30 229 O 24.6546 -0.732414 -2.16444 0
M  V30 230 C 24.8646 -3.48848 0.102919 0
M  V30 231 C 26.2126 -4.24577 -0.0446082 0
M  V30 232 O 27.2366 -3.56187 0.0302548 0
M  V30 233 O 26.0956 -5.46116 -0.204923 0
M  V30 234 H 23.1896 -0.824321 -0.0665067 0
M  V30 235 H 25.7356 -1.58001 0.619186 0
M  V30 236 H 24.5076 -3.75129 1.11328 0
M  V30 237 H 24.1306 -3.93165 -0.592224 0
M  V30 238 N 25.1277 -0.289203 -1.54924 0
M  V30 239 C 26.0607 0.633823 -2.19221 0
M  V30 240 C 27.0387 1.14174 -1.15772 0
M  V30 241 O 28.2227 1.21211 -1.44361 0
M  V30 242 C 25.3497 1.86592 -2.82668 0
M  V30 243 C 24.3957 1.49227 -3.99542 0
M  V30 244 S 25.2287 0.558312 -5.32582 0
M  V30 245 C 26.3847 1.79847 -5.99505 0
M  V30 246 H 26.6177 0.0875416 -2.97171 0
M  V30 247 H 24.1507 -0.0733899 -1.54225 0
M  V30 248 H 26.1087 2.57305 -3.19851 0
M  V30 249 H 24.7697 2.38335 -2.04585 0
M  V30 250 H 23.9627 2.40945 -4.42676 0
M  V30 251 H 23.5647 0.865193 -3.63855 0
M  V30 252 H 25.8567 2.7406 -6.19595 0
M  V30 253 H 26.7997 1.4099 -6.93922 0
M  V30 254 H 27.2077 1.96982 -5.29016 0
M  V30 255 N 26.6058 1.57591 -0.0167156 0
M  V30 256 C 27.5528 2.09462 0.969251 0
M  V30 257 C 28.5228 0.99381 1.33089 0
M  V30 258 O 29.7078 1.26726 1.42636 0
M  V30 259 C 26.8478 2.61622 2.25051 0
M  V30 260 C 25.9608 3.85666 1.94642 0
M  V30 261 C 25.0958 4.26266 3.16972 0
M  V30 262 C 24.1348 5.43101 2.82326 0
M  V30 263 N 23.2718 5.78915 3.97243 0
M  V30 264 H 28.1118 2.93428 0.519997 0
M  V30 265 H 25.6488 1.45044 0.245087 0
M  V30 266 H 27.6068 2.89949 2.99976 0
M  V30 267 H 26.2368 1.80505 2.67615 0
M  V30 268 H 25.2888 3.64145 1.10013 0
M  V30 269 H 26.6008 4.70678 1.65117 0
M  V30 270 H 25.7548 4.55963 4.00228 0
M  V30 271 H 24.4938 3.39996 3.49648 0
M  V30 272 H 23.4988 5.1311 1.97479 0
M  V30 273 H 24.7238 6.3106 2.50879 0
M  V30 274 H 22.6698 4.95602 4.29785 0
M  V30 275 H 22.5868 6.58539 3.71299 0
M  V30 276 H 23.8548 6.13212 4.81239 0
M  V30 277 N 28.0839 -0.256276 1.55502 0
M  V30 278 C 29.3299 -0.987079 1.77157 0
M  V30 279 C 29.6629 -1.85327 0.580315 0
M  V30 280 O 28.9379 -1.89874 -0.421686 0
M  V30 281 C 29.2209 -1.85553 3.08613 0
M  V30 282 C 29.0739 -1.01816 4.38125 0
M  V30 283 C 30.3929 -2.8397 3.36228 0
M  V30 284 H 27.5119 -0.357428 0.644526 0
M  V30 285 H 30.1539 -0.258239 1.88237 0
M  V30 286 H 28.3039 -2.47695 2.99298 0
M  V30 287 H 29.9759 -0.416159 4.59419 0
M  V30 288 H 28.2189 -0.322178 4.32602 0
M  V30 289 H 28.8899 -1.65939 5.26468 0
M  V30 290 H 31.3659 -2.31964 3.45445 0
M  V30 291 H 30.2419 -3.41864 4.29442 0
M  V30 292 H 30.5029 -3.59955 2.56681 0
M  V30 293 N 29.562 -1.4872 -0.521534 0
M  V30 294 C 30.978 -1.35028 -0.850855 0
M  V30 295 C 31.178 -0.367712 -1.98116 0
M  V30 296 O 30.234 0.208037 -2.51642 0
M  V30 297 C 31.547 -2.75263 -1.21041 0
M  V30 298 C 33.095 -2.83813 -1.31981 0
M  V30 299 C 33.57 -4.24769 -1.71276 0
M  V30 300 N 35.061 -4.27482 -1.78363 0
M  V30 301 C 35.796 -5.33494 -2.1017 0
M  V30 302 N 35.292 -6.49775 -2.40343 0
M  V30 303 N 37.085 -5.20894 -2.11248 0
M  V30 304 H 29.236 -2.11214 0.22413 0
M  V30 305 H 31.499 -0.947252 0.0376439 0
M  V30 306 H 31.205 -3.48765 -0.453415 0
M  V30 307 H 31.079 -3.09327 -2.15863 0
M  V30 308 H 33.466 -2.10561 -2.06756 0
M  V30 309 H 33.547 -2.53358 -0.352596 0
M  V30 310 H 33.191 -4.9854 -0.970588 0
M  V30 311 H 33.121 -4.52673 -2.69062 0
M  V30 312 H 35.612 -3.43611 -1.57288 0
M  V30 313 H 35.925 -7.26402 -2.63743 0
M  V30 314 H 34.27 -6.53035 -2.37844 0
M  V30 315 H 37.461 -4.29065 -1.87139 0
M  V30 316 H 37.634 -6.03612 -2.35704 0
M  V30 317 N 31.0401 0.771051 -1.3745 0
M  V30 318 C 31.9871 1.88435 -1.3327 0
M  V30 319 C 32.9571 1.64914 -0.198136 0
M  V30 320 O 34.1421 1.86821 -0.387606 0
M  V30 321 C 31.2821 3.25509 -1.14622 0
M  V30 322 C 30.3951 3.60979 -2.37314 0
M  V30 323 C 29.5301 4.87265 -2.11533 0
M  V30 324 C 28.5691 5.15469 -3.30088 0
M  V30 325 N 27.7061 6.32944 -3.03853 0
M  V30 326 H 32.5461 1.91344 -2.28455 0
M  V30 327 H 30.0831 0.935466 -1.13523 0
M  V30 328 H 32.0411 4.04582 -1.01831 0
M  V30 329 H 30.6711 3.21974 -0.230837 0
M  V30 330 H 29.7231 2.76885 -2.60842 0
M  V30 331 H 31.0351 3.77759 -3.25729 0
M  V30 332 H 30.1891 5.74244 -1.95777 0
M  V30 333 H 28.9281 4.7259 -1.20457 0
M  V30 334 H 27.9331 4.26966 -3.46382 0
M  V30 335 H 29.1581 5.32052 -4.22016 0
M  V30 336 H 27.1041 6.19625 -2.15407 0
M  V30 337 H 27.0211 6.50143 -3.85812 0
M  V30 338 H 28.2891 7.22857 -2.91716 0
M  V30 339 N 32.5182 1.22032 0.997298 0
M  V30 340 C 33.7432 1.06921 1.77715 0
M  V30 341 C 34.1682 -0.376226 1.84299 0
M  V30 342 O 33.5262 -1.27165 1.29223 0
M  V30 343 C 33.5742 1.67996 3.19076 0
M  V30 344 O 32.6782 0.930653 4.01762 0
M  V30 345 H 32.0192 0.375814 0.547412 0
M  V30 346 H 34.5492 1.61737 1.25309 0
M  V30 347 H 34.5592 1.72538 3.69723 0
M  V30 348 H 33.2342 2.73182 3.13599 0
M  V30 349 H 31.8112 0.960917 3.60307 0
M  V30 350 N 33.9963 -1.19345 1.0293 0
M  V30 351 C 35.2213 -1.93538 0.745511 0
M  V30 352 C 35.6463 -1.75007 -0.689511 0
M  V30 353 O 35.0043 -1.05265 -1.47611 0
M  V30 354 C 35.0523 -3.43336 1.10239 0
M  V30 355 O 34.1563 -4.11806 0.221289 0
M  V30 356 H 33.4973 -0.604193 0.275404 0
M  V30 357 H 36.0273 -1.5141 1.37609 0
M  V30 358 H 36.0373 -3.94004 1.05947 0
M  V30 359 H 34.7123 -3.56146 2.14786 0
M  V30 360 H 33.2893 -3.715 0.322842 0
M  V30 361 N 35.4744 -0.807222 -1.35358 0
M  V30 362 C 36.7024 -0.400377 -2.02989 0
M  V30 363 C 37.1174 0.988859 -1.60832 0
M  V30 364 O 36.4744 1.63729 -0.806175 0
M  V30 365 C 36.5254 -0.474867 -3.58368 0
M  V30 366 O 36.2464 -1.80933 -3.98992 0
M  V30 367 C 37.7474 -0.0609112 -4.43258 0
M  V30 368 H 34.9674 -0.162587 -0.651004 0
M  V30 369 H 37.5114 -1.09102 -1.72965 0
M  V30 370 H 35.6664 0.167534 -3.87038 0
M  V30 371 H 36.0804 -1.77256 -4.9364 0
M  V30 372 H 37.5544 -0.164145 -5.51756 0
M  V30 373 H 38.0314 0.993831 -4.27808 0
M  V30 374 H 38.6374 -0.676492 -4.19885 0
M  V30 375 N 36.9525 1.47285 -0.560781 0
M  V30 376 C 38.3635 1.86258 -0.128343 0
M  V30 377 C 38.7145 1.46699 1.30284 0
M  V30 378 O 37.8395 0.871698 1.98067 0
M  V30 379 C 38.4345 3.38044 -0.22614 0
M  V30 380 C 36.9935 3.76096 0.151283 0
M  V30 381 C 36.1405 2.71335 -0.572084 0
M  V30 382 H 39.0915 1.38752 -0.770297 0
M  V30 383 H 39.1125 3.76441 0.554322 0
M  V30 384 H 38.6245 3.66806 -1.26788 0
M  V30 385 H 36.7255 3.52951 1.19399 0
M  V30 386 H 36.8385 4.78641 -0.209765 0
M  V30 387 H 35.2025 2.54696 -0.0147653 0
M  V30 388 H 35.9855 3.02938 -1.61504 0
M  V30 389 N 38.4306 0.297415 1.54768 0
M  V30 390 C 39.3406 -0.58983 2.27064 0
M  V30 391 C 40.3566 -1.15144 1.30453 0
M  V30 392 O 41.5326 -1.17699 1.63428 0
M  V30 393 C 38.5976 -1.74714 2.9946 0
M  V30 394 C 37.6586 -1.21997 4.11601 0
M  V30 395 C 36.8916 -2.32212 4.80535 0
M  V30 396 O 37.1146 -3.52036 4.48806 0
M  V30 397 O 36.0486 -1.99106 5.68014 0
M  V30 398 H 39.8746 -0.00348199 3.037 0
M  V30 399 H 37.4596 0.0640035 1.49263 0
M  V30 400 H 39.3416 -2.42147 3.44881 0
M  V30 401 H 38.0166 -2.32016 2.25722 0
M  V30 402 H 36.9236 -0.511458 3.70587 0
M  V30 403 H 38.2566 -0.692419 4.87305 0
M  V30 404 N 39.9087 -1.5758 0.0250728 0
M  V30 405 C 40.8187 -2.1343 -0.973905 0
M  V30 406 C 41.8347 -1.08556 -1.35984 0
M  V30 407 O 43.0107 -1.40592 -1.44207 0
M  V30 408 C 40.0757 -2.64703 -2.23904 0
M  V30 409 C 39.1367 -3.84276 -1.91391 0
M  V30 410 C 38.3697 -4.33095 -3.11873 0
M  V30 411 O 38.5927 -3.81107 -4.24398 0
M  V30 412 O 37.5267 -5.24984 -2.94406 0
M  V30 413 H 41.3527 -2.99057 -0.529036 0
M  V30 414 H 38.9377 -1.48118 -0.195288 0
M  V30 415 H 40.8197 -2.97769 -2.98181 0
M  V30 416 H 39.4947 -1.82161 -2.6758 0
M  V30 417 H 38.4017 -3.56143 -1.14511 0
M  V30 418 H 39.7347 -4.67968 -1.52534 0
M  V30 419 N 41.3868 0.248026 -1.55636 0
M  V30 420 C 42.6328 0.97767 -1.77678 0
M  V30 421 C 42.9658 1.85016 -0.590135 0
M  V30 422 O 42.2408 1.90095 0.411611 0
M  V30 423 C 42.5238 1.83914 -3.09593 0
M  V30 424 C 42.3768 0.99491 -4.38659 0
M  V30 425 C 43.6958 2.82183 -3.37729 0
M  V30 426 H 40.8148 0.354005 -0.646413 0
M  V30 427 H 43.4568 0.248253 -1.88371 0
M  V30 428 H 41.6068 2.46104 -3.00608 0
M  V30 429 H 43.2788 0.391789 -4.59633 0
M  V30 430 H 41.5218 0.299231 -4.32767 0
M  V30 431 H 42.1928 1.63145 -5.2734 0
M  V30 432 H 44.6688 2.30129 -3.4667 0
M  V30 433 H 43.5448 3.39582 -4.31249 0
M  V30 434 H 43.8058 3.58588 -2.58586 0
M  V30 435 N 42.8649 1.48995 0.513639 0
M  V30 436 C 43.8119 1.6473 1.61656 0
M  V30 437 C 44.7819 0.488984 1.58739 0
M  V30 438 O 45.9669 0.714478 1.76918 0
M  V30 439 C 43.1069 1.7082 2.99858 0
M  V30 440 C 42.2199 2.9787 3.12885 0
M  V30 441 C 41.3549 2.95017 4.41744 0
M  V30 442 C 40.3939 4.16702 4.48359 0
M  V30 443 N 39.5309 4.11832 5.68629 0
M  V30 444 H 44.3709 2.58909 1.47547 0
M  V30 445 H 41.9079 1.28382 0.71808 0
M  V30 446 H 43.8659 1.72331 3.79944 0
M  V30 447 H 42.4959 0.801181 3.12699 0
M  V30 448 H 41.5479 3.06029 2.25944 0
M  V30 449 H 42.8599 3.8786 3.13633 0
M  V30 450 H 42.0139 2.95021 5.30139 0
M  V30 451 H 40.7529 2.02784 4.43542 0
M  V30 452 H 39.7579 4.16955 3.58369 0
M  V30 453 H 40.9829 5.10113 4.48287 0
M  V30 454 H 38.9289 3.22428 5.71293 0
M  V30 455 H 38.8459 4.95543 5.7094 0
M  V30 456 H 40.1139 4.1592 6.59266 0
M  V30 457 N 44.343 -0.763751 1.37857 0
M  V30 458 C 45.29 -1.87726 1.34267 0
M  V30 459 C 46.26 -1.64807 0.206879 0
M  V30 460 O 47.445 -1.86613 0.397508 0
M  V30 461 C 44.585 -3.24896 1.16346 0
M  V30 462 C 43.698 -3.59716 2.39225 0
M  V30 463 C 42.833 -4.86137 2.14114 0
M  V30 464 C 41.872 -5.13711 3.32817 0
M  V30 465 N 41.009 -6.31323 3.07206 0
M  V30 466 H 45.849 -1.90129 2.29466 0
M  V30 467 H 43.386 -0.929433 1.14017 0
M  V30 468 H 45.344 -4.04036 1.03975 0
M  V30 469 H 43.974 -3.21847 0.247909 0
M  V30 470 H 43.026 -2.75498 2.62307 0
M  V30 471 H 44.338 -3.76027 3.27728 0
M  V30 472 H 43.492 -5.73198 1.9882 0
M  V30 473 H 42.231 -4.71945 1.22961 0
M  V30 474 H 41.236 -4.25123 3.48641 0
M  V30 475 H 42.461 -5.29807 4.24832 0
M  V30 476 H 40.407 -6.18474 2.1869 0
M  V30 477 H 40.324 -6.48087 3.89254 0
M  V30 478 H 41.592 -7.213 2.95546 0
M  V30 479 N 45.8211 -1.22559 -0.990812 0
M  V30 480 C 47.2371 -0.985996 -1.255 0
M  V30 481 C 47.4371 0.319173 -1.98956 0
M  V30 482 O 46.4931 1.04127 -2.3003 0
M  V30 483 C 47.8061 -2.18607 -2.06474 0
M  V30 484 C 49.3541 -2.22985 -2.19651 0
M  V30 485 C 49.8291 -3.4255 -3.04012 0
M  V30 486 N 51.3201 -3.42725 -3.11599 0
M  V30 487 C 52.0551 -4.31892 -3.7717 0
M  V30 488 N 51.5511 -5.31279 -4.44651 0
M  V30 489 N 53.3441 -4.19662 -3.73952 0
M  V30 490 H 45.4951 -2.06469 -0.49841 0
M  V30 491 H 47.7581 -0.904853 -0.282747 0
M  V30 492 H 47.4641 -3.13267 -1.59865 0
M  V30 493 H 47.3381 -2.18838 -3.07229 0
M  V30 494 H 49.7251 -1.28871 -2.65474 0
M  V30 495 H 49.8061 -2.26791 -1.18319 0
M  V30 496 H 49.4501 -4.36965 -2.58889 0
M  V30 497 H 49.3801 -3.35984 -4.0549 0
M  V30 498 H 51.8711 -2.70807 -2.63575 0
M  V30 499 H 52.1841 -5.95593 -4.92431 0
M  V30 500 H 50.5291 -5.3519 -4.43392 0
M  V30 501 H 53.7201 -3.41268 -3.20396 0
M  V30 502 H 53.8931 -4.89358 -4.24774 0
M  V30 503 N 47.2992 1.18797 -1.03562 0
M  V30 504 C 48.2462 2.22253 -0.622259 0
M  V30 505 C 49.2162 1.61987 0.36736 0
M  V30 506 O 50.4012 1.88986 0.262492 0
M  V30 507 C 47.5412 3.45097 0.0138462 0
M  V30 508 C 46.6542 4.19722 -1.02263 0
M  V30 509 C 45.7892 5.30009 -0.355573 0
M  V30 510 C 44.8282 5.96399 -1.37749 0
M  V30 511 N 43.9652 6.98234 -0.735766 0
M  V30 512 H 48.8052 2.56968 -1.50903 0
M  V30 513 H 46.3422 1.26245 -0.755017 0
M  V30 514 H 48.3002 4.15279 0.399948 0
M  V30 515 H 46.9302 3.11018 0.864158 0
M  V30 516 H 45.9822 3.48418 -1.52673 0
M  V30 517 H 47.2942 4.65227 -1.79903 0
M  V30 518 H 46.4482 6.0664 0.0850095 0
M  V30 519 H 45.1872 4.85592 0.452967 0
M  V30 520 H 44.1922 5.18512 -1.82826 0
M  V30 521 H 45.4172 6.42899 -2.18764 0
M  V30 522 H 43.3632 6.55979 0.0525597 0
M  V30 523 H 43.2802 7.41965 -1.44995 0
M  V30 524 H 44.5482 7.78845 -0.31941 0
M  V30 525 N 48.7773 0.814389 1.34928 0
M  V30 526 C 49.7243 0.22822 2.29669 0
M  V30 527 C 50.6943 -0.642164 1.53184 0
M  V30 528 O 51.8793 -0.585605 1.81591 0
M  V30 529 C 49.0193 -0.61089 3.3965 0
M  V30 530 C 48.1323 0.280792 4.31086 0
M  V30 531 C 47.2673 -0.567067 5.28165 0
M  V30 532 C 46.3063 0.324531 6.11239 0
M  V30 533 N 45.4433 -0.483756 7.00431 0
M  V30 534 H 50.2833 1.04153 2.79206 0
M  V30 535 H 47.8203 0.525133 1.37407 0
M  V30 536 H 49.7783 -1.11263 4.0209 0
M  V30 537 H 48.4083 -1.38939 2.91369 0
M  V30 538 H 47.4603 0.900688 3.69583 0
M  V30 539 H 48.7723 0.966723 4.89342 0
M  V30 540 H 47.9263 -1.13363 5.96015 0
M  V30 541 H 46.6653 -1.28654 4.70425 0
M  V30 542 H 45.6703 0.903298 5.42329 0
M  V30 543 H 46.8953 1.04198 6.71059 0
M  V30 544 H 44.8413 -1.18706 6.45171 0
M  V30 545 H 44.7583 0.143965 7.55863 0
M  V30 546 H 46.0263 -1.03334 7.7262 0
M  V30 547 N 50.2554 -1.46986 0.568584 0
M  V30 548 C 51.2184 -2.28624 -0.162366 0
M  V30 549 C 52.2184 -1.37596 -0.832103 0
M  V30 550 O 53.4084 -1.60115 -0.68622 0
M  V30 551 C 50.5404 -3.17596 -1.23878 0
M  V30 552 H 51.7334 -2.94722 0.554899 0
M  V30 553 H 49.2864 -1.52863 0.325976 0
M  V30 554 H 50.0214 -2.56214 -1.98808 0
M  V30 555 H 49.8064 -3.846 -0.763219 0
M  V30 556 H 51.2964 -3.79078 -1.75185 0
M  V30 557 N 51.7335 -0.305618 -1.54608 0
M  V30 558 C 52.9795 0.302746 -2.00528 0
M  V30 559 C 53.3125 1.53184 -1.19367 0
M  V30 560 O 52.5875 1.92598 -0.271321 0
M  V30 561 C 52.8705 0.654756 -3.54097 0
M  V30 562 C 52.7235 -0.583793 -4.45995 0
M  V30 563 C 54.0425 1.47947 -4.14487 0
M  V30 564 H 51.1615 0.108564 -0.72896 0
M  V30 565 H 53.8035 -0.418634 -1.85331 0
M  V30 566 H 51.9535 1.26935 -3.67178 0
M  V30 567 H 53.6255 -1.22224 -4.44814 0
M  V30 568 H 51.8685 -1.21615 -4.16404 0
M  V30 569 H 52.5395 -0.293287 -5.5122 0
M  V30 570 H 55.0155 0.96013 -4.04871 0
M  V30 571 H 53.8915 1.69454 -5.22088 0
M  V30 572 H 54.1525 2.47011 -3.66658 0
M  V30 573 N 53.2116 1.57565 -0.0334293 0
M  V30 574 C 54.1416 2.13511 0.945265 0
M  V30 575 C 55.1226 1.05231 1.33643 0
M  V30 576 O 56.3076 1.33084 1.41429 0
M  V30 577 C 53.4376 2.6657 2.22616 0
M  V30 578 C 52.3916 3.79676 1.97561 0
M  V30 579 C 51.7176 4.1918 3.31952 0
M  V30 580 C 53.0176 5.0557 1.31135 0
M  V30 581 H 54.7116 2.95538 0.479325 0
M  V30 582 H 52.2576 1.42166 0.229115 0
M  V30 583 H 54.2106 3.04344 2.91466 0
M  V30 584 H 52.9346 1.8171 2.71384 0
M  V30 585 H 51.5936 3.42347 1.31127 0
M  V30 586 H 51.2416 3.31296 3.78487 0
M  V30 587 H 50.9416 4.95402 3.15992 0
M  V30 588 H 52.4656 4.59541 4.02063 0
M  V30 589 H 53.8796 5.40903 1.89992 0
M  V30 590 H 52.2766 5.86818 1.25559 0
M  V30 591 H 53.3466 4.84062 0.284894 0
M  V30 592 N 54.6897 -0.239769 1.55765 0
M  V30 593 C 55.9367 -0.966801 1.7793 0
M  V30 594 C 56.2647 -1.85046 0.599015 0
M  V30 595 O 55.5197 -1.91197 -0.417395 0
M  V30 596 C 55.8187 -1.852 3.05672 0
M  V30 597 C 55.4847 -1.1231 4.36689 0
M  V30 598 C 54.1467 -0.921689 4.72291 0
M  V30 599 C 56.4987 -0.607019 5.17653 0
M  V30 600 C 53.8267 -0.191996 5.86386 0
M  V30 601 C 56.1787 0.109241 6.32506 0
M  V30 602 C 54.8427 0.322073 6.66723 0
M  V30 603 H 54.1127 -0.353778 0.651093 0
M  V30 604 H 56.7597 -0.23634 1.90036 0
M  V30 605 H 55.0647 -2.64975 2.8861 0
M  V30 606 H 56.7617 -2.41635 3.20021 0
M  V30 607 H 53.3517 -1.29004 4.08725 0
M  V30 608 H 57.5357 -0.750153 4.90598 0
M  V30 609 H 52.7917 -0.0166949 6.11398 0
M  V30 610 H 56.9657 0.516737 6.9448 0
M  V30 611 H 54.5927 0.88944 7.54979 0
M  V30 612 N 56.1678 -1.49265 -0.50573 0
M  V30 613 C 57.4078 -1.60128 -1.27038 0
M  V30 614 C 57.7718 -0.279557 -1.89954 0
M  V30 615 O 58.9728 -0.263329 -2.67507 0
M  V30 616 C 57.2438 -2.72507 -2.31246 0
M  V30 617 S 58.8028 -3.0329 -3.17113 0
M  V30 618 H 55.6208 -0.564863 -0.4318 0
M  V30 619 H 58.2228 -1.86902 -0.573397 0
M  V30 620 H 56.9268 -3.67068 -1.83546 0
M  V30 621 H 56.4578 -2.4771 -3.05619 0
M  V30 622 H 58.4728 -2.44448 -4.31809 0
M  V30 623 N 57.6459 0.756429 -1.3826 0
M  V30 624 C 58.5759 1.88374 -1.37976 0
M  V30 625 C 59.5569 1.68311 -0.246082 0
M  V30 626 O 60.7419 1.88944 -0.44874 0
M  V30 627 C 57.8719 3.25864 -1.20125 0
M  V30 628 C 56.8259 3.60523 -2.30666 0
M  V30 629 C 56.1519 4.9672 -1.97923 0
M  V30 630 C 57.4519 3.65692 -3.72916 0
M  V30 631 H 59.1459 1.88869 -2.32312 0
M  V30 632 H 56.6919 0.907272 -1.11824 0
M  V30 633 H 58.6449 4.0438 -1.18552 0
M  V30 634 H 57.3689 3.25841 -0.222498 0
M  V30 635 H 56.0279 2.84324 -2.3142 0
M  V30 636 H 55.6759 4.93253 -0.985393 0
M  V30 637 H 55.3759 5.20878 -2.71955 0
M  V30 638 H 56.8999 5.77618 -1.97964 0
M  V30 639 H 58.3139 4.34328 -3.74208 0
M  V30 640 H 56.7109 4.01358 -4.4613 0
M  V30 641 H 57.7809 2.65987 -4.05436 0
M  V30 642 N 59.124 1.23083 0.984299 0
M  V30 643 C 60.349 1.088 1.76571 0
M  V30 644 C 60.774 -0.356657 1.84688 0
M  V30 645 O 60.132 -1.25788 1.30565 0
M  V30 646 C 60.18 1.71371 3.17277 0
M  V30 647 O 59.284 0.973213 4.00752 0
M  V30 648 H 58.625 0.381599 0.543395 0
M  V30 649 H 61.155 1.63057 1.23587 0
M  V30 650 H 61.165 1.76449 3.67872 0
M  V30 651 H 59.84 2.76493 3.10684 0
M  V30 652 H 58.417 0.999078 3.59267 0
M  V30 653 N 60.6021 -1.18246 1.0419 0
M  V30 654 C 61.5121 -2.25574 0.644476 0
M  V30 655 C 62.5281 -1.70845 -0.329826 0
M  V30 656 O 63.7041 -2.00554 -0.184443 0
M  V30 657 C 60.7691 -3.46697 0.014877 0
M  V30 658 C 59.8301 -4.16554 1.03834 0
M  V30 659 C 59.0631 -5.31894 0.438692 0
M  V30 660 O 59.2861 -5.65385 -0.754752 0
M  V30 661 O 58.2201 -5.90459 1.168 0
M  V30 662 H 62.0461 -2.61836 1.53869 0
M  V30 663 H 59.6311 -1.25352 0.812854 0
M  V30 664 H 61.5131 -4.20062 -0.335538 0
M  V30 665 H 60.1881 -3.12255 -0.853138 0
M  V30 666 H 59.0951 -3.45251 1.44057 0
M  V30 667 H 60.4281 -4.54998 1.87716 0
M  V30 668 N 62.0802 -0.821533 -1.34494 0
M  V30 669 C 63.3572 -0.33159 -1.92769 0
M  V30 670 C 63.7372 1.18088 -1.74981 0
M  V30 671 O 63.0852 1.98733 -1.12772 0
M  V30 672 C 63.2952 -0.759398 -3.40638 0
M  V30 673 C 64.6432 -0.757433 -4.1779 0
M  V30 674 O 65.6672 -0.70189 -3.49216 0
M  V30 675 O 64.5262 -0.829361 -5.4017 0
M  V30 676 H 61.6202 -0.0902502 -0.822061 0
M  V30 677 H 64.1662 -0.906231 -1.43477 0
M  V30 678 H 62.9382 -1.8012 -3.47379 0
M  V30 679 H 62.5612 -0.160378 -3.97276 0
M  V30 680 N 63.5583 1.46682 -0.576371 0
M  V30 681 C 64.5053 2.30241 0.160499 0
M  V30 682 C 65.4753 1.40233 0.890162 0
M  V30 683 O 66.6603 1.69186 0.882084 0
M  V30 684 C 63.8003 3.24578 1.1723 0
M  V30 685 C 62.9133 4.29684 0.446736 0
M  V30 686 C 62.0483 5.11154 1.44551 0
M  V30 687 C 61.0873 6.08015 0.70599 0
M  V30 688 N 60.2243 6.82376 1.65251 0
M  V30 689 H 65.0643 2.92727 -0.558127 0
M  V30 690 H 62.6013 1.44272 -0.287056 0
M  V30 691 H 64.5593 3.77711 1.77172 0
M  V30 692 H 63.1893 2.63916 1.85872 0
M  V30 693 H 62.2413 3.79458 -0.267594 0
M  V30 694 H 63.5533 4.98626 -0.131686 0
M  V30 695 H 62.7073 5.68533 2.11791 0
M  V30 696 H 61.4463 4.42158 2.05786 0
M  V30 697 H 60.4513 5.49796 0.0197725 0
M  V30 698 H 61.6763 6.79028 0.09912 0
M  V30 699 H 59.6223 6.16094 2.25308 0
M  V30 700 H 59.5393 7.47556 1.12673 0
M  V30 701 H 60.8073 7.44316 2.31546 0
M  V30 702 N 65.0364 0.313813 1.54444 0
M  V30 703 C 65.9834 -0.55655 2.23989 0
M  V30 704 C 66.9534 -1.11943 1.22711 0
M  V30 705 O 68.1384 -1.16158 1.51367 0
M  V30 706 C 65.2784 -1.71635 2.99392 0
M  V30 707 C 64.3914 -1.18364 4.15468 0
M  V30 708 C 63.5264 -2.30834 4.78424 0
M  V30 709 C 62.5654 -1.74762 5.86622 0
M  V30 710 N 61.7024 -2.80855 6.43479 0
M  V30 711 H 66.5424 0.0430893 2.97969 0
M  V30 712 H 64.0794 0.0330359 1.47063 0
M  V30 713 H 66.0374 -2.39868 3.41349 0
M  V30 714 H 64.6674 -2.28742 2.27765 0
M  V30 715 H 63.7194 -0.393163 3.78363 0
M  V30 716 H 65.0314 -0.733262 4.93381 0
M  V30 717 H 64.1854 -3.0699 5.23299 0
M  V30 718 H 62.9244 -2.79204 3.99871 0
M  V30 719 H 61.9294 -0.970995 5.41158 0
M  V30 720 H 63.1544 -1.2728 6.67066 0
M  V30 721 H 61.1004 -3.28535 5.67804 0
M  V30 722 H 61.0174 -2.40351 7.16776 0
M  V30 723 H 62.2854 -3.5687 6.93011 0
M  V30 724 N 66.5145 -1.57545 0.0417849 0
M  V30 725 C 67.4625 -2.12148 -0.953723 0
M  V30 726 C 68.4565 -1.05104 -1.32852 0
M  V30 727 O 69.6625 -1.23524 -1.30927 0
M  V30 728 H 66.0375 -0.677957 -0.325389 0
M  V30 729 H 68.0085 -2.94707 -0.467991 0
M  V30 730 C 66.7575 -2.6739 -2.22257 0
M  V30 731 H 66.0805 -3.49413 -1.94295 0
M  V30 732 H 67.5205 -3.09227 -2.90094 0
M  V30 733 C 65.9795 -1.60723 -2.96091 0
M  V30 734 O 66.5095 -1.01449 -3.88679 0
M  V30 735 N 64.7155 -1.32466 -2.58652 0
M  V30 736 H 64.2625 -1.80856 -1.83437 0
M  V30 737 H 64.2205 -0.61325 -3.08361 0
M  V30 738 N 67.9926 0.231505 -1.5589 0
M  V30 739 C 69.2416 0.955346 -1.7764 0
M  V30 740 C 69.5546 1.85893 -0.608546 0
M  V30 741 O 70.7606 2.62067 -0.70943 0
M  V30 742 C 69.2166 1.74886 -3.14552 0
M  V30 743 C 68.8246 0.891915 -4.39032 0
M  V30 744 C 70.5686 2.46452 -3.45633 0
M  V30 745 C 68.4756 1.68221 -5.66971 0
M  V30 746 H 67.4056 0.360446 -0.662265 0
M  V30 747 H 70.0566 0.209516 -1.823 0
M  V30 748 H 68.4386 2.53723 -3.04041 0
M  V30 749 H 69.6126 0.144793 -4.60572 0
M  V30 750 H 67.9276 0.288863 -4.15397 0
M  V30 751 H 70.5246 3.06061 -4.38441 0
M  V30 752 H 70.8676 3.18841 -2.67668 0
M  V30 753 H 71.4006 1.74613 -3.57428 0
M  V30 754 H 68.1396 1.00178 -6.478 0
M  V30 755 H 67.6596 2.4042 -5.49507 0
M  V30 756 H 69.3386 2.24544 -6.06786 0
M  V30 757 N 69.4707 1.49531 0.497807 0
M  V30 758 C 70.7197 1.58426 1.24837 0
M  V30 759 C 71.0327 0.277643 1.93619 0
M  V30 760 O 72.2387 0.24517 2.70391 0
M  V30 761 C 70.6947 2.79538 2.26686 0
M  V30 762 C 70.3027 4.16971 1.63828 0
M  V30 763 C 72.0467 2.97764 3.0255 0
M  V30 764 C 69.9537 5.29301 2.63807 0
M  V30 765 H 68.8837 0.58989 0.469623 0
M  V30 766 H 71.5347 1.75923 0.521857 0
M  V30 767 H 69.9167 2.55542 3.02514 0
M  V30 768 H 71.0907 4.51116 0.939711 0
M  V30 769 H 69.4057 4.04129 1.00342 0
M  V30 770 H 72.0027 3.78856 3.77323 0
M  V30 771 H 72.3457 2.08448 3.60354 0
M  V30 772 H 72.8787 3.21815 2.33838 0
M  V30 773 H 69.6177 6.20687 2.10779 0
M  V30 774 H 69.1377 4.99606 3.31894 0
M  V30 775 H 70.8167 5.58768 3.2617 0
M  V30 776 N 70.9488 -0.749086 1.3866 0
M  V30 777 C 71.8788 -1.8764 1.38973 0
M  V30 778 C 72.8598 -1.68178 0.255004 0
M  V30 779 O 74.0448 -1.88704 0.458754 0
M  V30 780 C 71.1748 -3.25222 1.21851 0
M  V30 781 C 70.1288 -3.59295 2.32575 0
M  V30 782 C 69.4548 -4.95663 2.00555 0
M  V30 783 C 70.7548 -3.63709 3.7485 0
M  V30 784 H 72.4488 -1.87635 2.3331 0
M  V30 785 H 69.9948 -0.901329 1.12303 0
M  V30 786 H 71.9478 -4.03746 1.20695 0
M  V30 787 H 70.6718 -3.25719 0.239775 0
M  V30 788 H 69.3308 -2.83093 2.32925 0
M  V30 789 H 68.9788 -4.92724 1.01154 0
M  V30 790 H 68.6788 -5.19429 2.74714 0
M  V30 791 H 70.2028 -5.7656 2.01024 0
M  V30 792 H 71.6168 -4.32338 3.76506 0
M  V30 793 H 70.0138 -3.98986 4.48252 0
M  V30 794 H 71.0838 -2.63834 4.06841 0
M  V30 795 N 72.4269 -1.23603 -0.977757 0
M  V30 796 C 73.3369 -1.03632 -2.1047 0
M  V30 797 C 74.3529 0.0199435 -1.73989 0
M  V30 798 O 75.5289 -0.176076 -2.00629 0
M  V30 799 C 72.5939 -0.63276 -3.40877 0
M  V30 800 C 71.6549 -1.76437 -3.91367 0
M  V30 801 C 70.8879 -1.37997 -5.15551 0
M  V30 802 O 71.1109 -0.265357 -5.69782 0
M  V30 803 O 70.0449 -2.20201 -5.60174 0
M  V30 804 H 73.8709 -1.98086 -2.30208 0
M  V30 805 H 71.4559 -1.02332 -1.08851 0
M  V30 806 H 73.3379 -0.418761 -4.19314 0
M  V30 807 H 72.0129 0.282754 -3.22463 0
M  V30 808 H 70.9199 -2.03304 -3.14036 0
M  V30 809 H 72.2529 -2.6583 -4.14241 0
M  V30 810 N 73.905 1.17692 -1.04816 0
M  V30 811 C 74.815 2.25229 -0.65643 0
M  V30 812 C 75.831 1.71018 0.320761 0
M  V30 813 O 77.007 2.00649 0.173805 0
M  V30 814 C 74.072 3.46684 -0.0332629 0
M  V30 815 C 73.133 4.15997 -1.06042 0
M  V30 816 C 72.366 5.31654 -0.466893 0
M  V30 817 O 72.589 5.65777 0.724758 0
M  V30 818 O 71.523 5.89831 -1.1993 0
M  V30 819 H 75.349 2.61016 -1.55255 0
M  V30 820 H 72.934 1.24919 -0.81949 0
M  V30 821 H 74.816 4.20234 0.313256 0
M  V30 822 H 73.491 3.12703 0.836566 0
M  V30 823 H 72.398 3.44482 -1.45886 0
M  V30 824 H 73.731 4.53996 -1.90127 0
M  V30 825 N 75.3831 0.828654 1.34056 0
M  V30 826 C 76.6311 0.41863 1.97717 0
M  V30 827 C 76.9521 -1.02314 1.66002 0
M  V30 828 O 76.2221 -1.71119 0.953683 0
M  V30 829 H 74.8021 0.151809 0.731412 0
M  V30 830 H 77.4641 1.05936 1.63596 0
M  V30 831 H 76.5601 0.542318 3.07352 0
M  V30 832 N 76.8612 -1.46375 0.584142 0
M  V30 833 C 77.8082 -2.30323 -0.148286 0
M  V30 834 C 78.7782 -1.40703 -0.882713 0
M  V30 835 O 79.9632 -1.69651 -0.873099 0
M  V30 836 C 77.1032 -3.25196 -1.15507 0
M  V30 837 C 76.2162 -4.29915 -0.423943 0
M  V30 838 C 75.3512 -5.11914 -1.41838 0
M  V30 839 C 74.3902 -6.08381 -0.673736 0
M  V30 840 N 73.5272 -6.83242 -1.6163 0
M  V30 841 H 78.3672 -2.92427 0.573644 0
M  V30 842 H 75.9042 -1.44118 0.294703 0
M  V30 843 H 77.8622 -3.78646 -1.75166 0
M  V30 844 H 76.4922 -2.64898 -1.8447 0
M  V30 845 H 75.5442 -3.7931 0.287714 0
M  V30 846 H 76.8562 -4.98549 0.158128 0
M  V30 847 H 76.0102 -5.69648 -2.08773 0
M  V30 848 H 74.7492 -4.43243 -2.03438 0
M  V30 849 H 73.7542 -5.49799 0.00938483 0
M  V30 850 H 74.9792 -6.79071 -0.0631082 0
M  V30 851 H 72.9252 -6.1728 -2.22038 0
M  V30 852 H 72.8422 -7.48144 -1.08707 0
M  V30 853 H 74.1102 -7.45534 -2.27596 0
M  V30 854 N 78.3393 -0.321999 -1.54275 0
M  V30 855 C 79.2493 0.553631 -2.27974 0
M  V30 856 C 80.2653 1.13054 -1.32268 0
M  V30 857 O 81.4413 1.15084 -1.6528 0
M  V30 858 C 78.5063 1.69927 -3.02201 0
M  V30 859 C 77.5673 1.15433 -4.1349 0
M  V30 860 C 76.8003 2.24537 -4.84168 0
M  V30 861 O 77.0233 3.44852 -4.5435 0
M  V30 862 O 75.9573 1.90044 -5.7111 0
M  V30 863 H 79.7833 -0.0448345 -3.03667 0
M  V30 864 H 77.3683 -0.0877418 -1.49142 0
M  V30 865 H 79.2503 2.3663 -3.48689 0
M  V30 866 H 77.9253 2.28395 -2.29385 0
M  V30 867 H 76.8323 0.452436 -3.71354 0
M  V30 868 H 78.1653 0.614805 -4.88345 0
M  V30 869 N 79.8174 1.5752 -0.0501392 0
M  V30 870 C 81.0664 1.91827 0.623328 0
M  V30 871 C 81.3794 0.930222 1.72065 0
M  V30 872 O 82.5854 1.1653 2.4522 0
M  V30 873 C 81.0414 3.40692 1.16003 0
M  V30 874 C 80.6494 4.479 0.0948811 0
M  V30 875 C 82.3934 3.84034 1.80881 0
M  V30 876 C 80.3004 5.87879 0.644411 0
M  V30 877 H 79.2304 0.715918 0.236596 0
M  V30 878 H 81.8814 1.83115 -0.118861 0
M  V30 879 H 80.2634 3.44405 1.9545 0
M  V30 880 H 81.4374 4.55775 -0.678675 0
M  V30 881 H 79.7524 4.13892 -0.45637 0
M  V30 882 H 82.3494 4.85984 2.22988 0
M  V30 883 H 82.6924 3.20225 2.6601 0
M  V30 884 H 83.2254 3.82833 1.0809 0
M  V30 885 H 79.9644 6.55282 -0.169229 0
M  V30 886 H 79.4844 5.83567 1.38598 0
M  V30 887 H 81.1634 6.37098 1.12763 0
M  V30 888 N 81.2955 -0.223234 1.56011 0
M  V30 889 C 82.2255 -1.27988 1.95298 0
M  V30 890 C 83.2065 -1.48976 0.820979 0
M  V30 891 O 84.3915 -1.61188 1.08315 0
M  V30 892 C 81.5215 -2.63 2.26822 0
M  V30 893 C 80.4755 -2.56671 3.42497 0
M  V30 894 C 79.8015 -3.95697 3.59622 0
M  V30 895 C 81.1015 -2.11601 4.77517 0
M  V30 896 H 82.7955 -0.953525 2.8381 0
M  V30 897 H 80.3415 -0.457244 1.36548 0
M  V30 898 H 82.2945 -3.37077 2.52898 0
M  V30 899 H 81.0185 -2.9732 1.35161 0
M  V30 900 H 79.6775 -1.85051 3.16467 0
M  V30 901 H 79.3255 -4.27322 2.6534 0
M  V30 902 H 79.0255 -3.92345 4.37424 0
M  V30 903 H 80.5495 -4.71438 3.88044 0
M  V30 904 H 81.9635 -2.7542 5.02809 0
M  V30 905 H 80.3605 -2.19311 5.5859 0
M  V30 906 H 81.4305 -1.06824 4.72987 0
M  V30 907 N 82.7736 -1.49793 -0.48987 0
M  V30 908 C 84.0196 -1.60078 -1.24511 0
M  V30 909 C 84.3526 -0.291608 -1.91998 0
M  V30 910 O 83.6276 0.705647 -1.81248 0
M  V30 911 C 83.9106 -2.76791 -2.30345 0
M  V30 912 C 83.7636 -4.17535 -1.67286 0
M  V30 913 C 85.0826 -2.89111 -3.31817 0
M  V30 914 H 82.2016 -0.582645 -0.451324 0
M  V30 915 H 84.8436 -1.82117 -0.541612 0
M  V30 916 H 82.9936 -2.5813 -2.90346 0
M  V30 917 H 84.6656 -4.4774 -1.11026 0
M  V30 918 H 82.9086 -4.22665 -0.976577 0
M  V30 919 H 83.5796 -4.95094 -2.44103 0
M  V30 920 H 86.0556 -3.06133 -2.81819 0
M  V30 921 H 84.9316 -3.72433 -4.03219 0
M  V30 922 H 85.1926 -1.9893 -3.94815 0
M  V30 923 N 84.2517 0.741722 -1.39055 0
M  V30 924 C 85.4997 1.49818 -1.35643 0
M  V30 925 C 85.8207 1.94938 0.0491642 0
M  V30 926 O 85.0907 1.68505 0.999141 0
M  V30 927 H 83.6707 0.555755 -0.499144 0
M  V30 928 H 86.3327 0.880957 -1.73854 0
M  V30 929 H 85.4287 2.38348 -2.01486 0
M  V30 930 N 85.7298 1.2412 0.971189 0
M  V30 931 C 87.0068 0.986867 1.6888 0
M  V30 932 C 87.3868 -0.491857 2.0529 0
M  V30 933 O 86.7348 -1.46531 1.75331 0
M  V30 934 C 86.9448 1.9063 2.92338 0
M  V30 935 C 88.2928 2.17515 3.64654 0
M  V30 936 O 89.3168 1.88254 3.02388 0
M  V30 937 O 88.1758 2.6719 4.7673 0
M  V30 938 H 85.2698 0.372944 0.738134 0
M  V30 939 H 87.8158 1.35203 1.02559 0
M  V30 940 H 86.5878 2.90552 2.62097 0
M  V30 941 H 86.2108 1.54408 3.66393 0
M  V30 942 N 87.2079 -1.17134 1.05439 0
M  V30 943 C 88.4539 -1.87733 0.767077 0
M  V30 944 C 88.7869 -1.8098 -0.704253 0
M  V30 945 O 88.0619 -1.21951 -1.5152 0
M  V30 946 C 88.3449 -3.37659 1.25133 0
M  V30 947 C 88.1979 -3.53149 2.78578 0
M  V30 948 C 89.5169 -4.31768 0.852324 0
M  V30 949 H 86.6359 -0.681687 0.280129 0
M  V30 950 H 89.2779 -1.37732 1.30881 0
M  V30 951 H 87.4279 -3.80373 0.790469 0
M  V30 952 H 89.0999 -3.19434 3.32806 0
M  V30 953 H 87.3429 -2.95345 3.17732 0
M  V30 954 H 88.0139 -4.58403 3.07523 0
M  V30 955 H 90.4899 -3.96909 1.24911 0
M  V30 956 H 89.3659 -5.35199 1.21873 0
M  V30 957 H 89.6269 -4.41429 -0.243485 0
M  V30 958 N 88.686 -0.835752 -1.33615 0
M  V30 959 C 89.934 -0.429109 -1.97492 0
M  V30 960 C 90.255 1.01433 -1.66543 0
M  V30 961 O 89.525 1.70611 -0.962744 0
M  V30 962 H 88.105 -0.155686 -0.730596 0
M  V30 963 H 90.767 -1.06802 -1.63031 0
M  V30 964 H 89.863 -0.55861 -3.0706 0
M  V30 965 N 90.1641 1.46063 -0.591896 0
M  V30 966 C 91.0961 2.28539 0.174001 0
M  V30 967 C 92.1091 1.39047 0.846753 0
M  V30 968 O 93.2981 1.63564 0.714774 0
M  V30 969 C 90.3981 3.14347 1.26645 0
M  V30 970 C 89.5711 4.32021 0.683856 0
M  V30 971 C 88.6301 4.99157 1.66518 0
M  V30 972 O 87.6561 5.56458 1.19763 0
M  V30 973 N 88.8581 4.97005 2.99943 0
M  V30 974 H 91.6231 2.94911 -0.533633 0
M  V30 975 H 89.1841 1.56077 -0.430294 0
M  V30 976 H 91.1761 3.56125 1.92242 0
M  V30 977 H 89.7461 2.49988 1.87682 0
M  V30 978 H 88.9661 3.93915 -0.1498 0
M  V30 979 H 90.2541 5.08059 0.274567 0
M  V30 980 H 89.6521 4.51714 3.40545 0
M  V30 981 H 88.2091 5.42696 3.61004 0
M  V30 982 N 91.6422 0.330177 1.54103 0
M  V30 983 C 92.8702 -0.272179 2.05102 0
M  V30 984 C 93.2852 -1.45267 1.20595 0
M  V30 985 O 92.6422 -1.8094 0.238144 0
M  V30 986 C 92.6932 -0.70023 3.54653 0
M  V30 987 O 92.4142 0.433301 4.35952 0
M  V30 988 C 93.9152 -1.3647 4.21771 0
M  V30 989 H 91.1352 -0.0549159 0.668749 0
M  V30 990 H 93.6792 0.478285 1.98828 0
M  V30 991 H 91.8342 -1.40066 3.61193 0
M  V30 992 H 92.2482 0.0947539 5.24414 0
M  V30 993 H 93.7222 -1.61509 5.27843 0
M  V30 994 H 94.1992 -2.31409 3.73292 0
M  V30 995 H 94.8052 -0.706675 4.19388 0
M  V30 996 N 93.1203 -1.57491 0.0584922 0
M  V30 997 C 94.3663 -1.93264 -0.614558 0
M  V30 998 C 94.6993 -0.937717 -1.7006 0
M  V30 999 O 93.9743 0.0351652 -1.94468 0
M  V30 1000 C 94.2573 -3.3938 -1.20386 0
M  V30 1001 C 94.1103 -4.49625 -0.125375 0
M  V30 1002 C 95.4293 -3.86039 -2.11334 0
M  V30 1003 H 92.5483 -0.702791 -0.221933 0
M  V30 1004 H 95.1903 -1.8961 0.12175 0
M  V30 1005 H 93.3403 -3.42626 -1.83139 0
M  V30 1006 H 95.0123 -4.58506 0.506971 0
M  V30 1007 H 93.2553 -4.30354 0.545672 0
M  V30 1008 H 93.9263 -5.48967 -0.577861 0
M  V30 1009 H 96.4023 -3.84716 -1.58534 0
M  V30 1010 H 95.2783 -4.88914 -2.49507 0
M  V30 1011 H 95.5393 -3.23215 -3.01636 0
M  V30 1012 N 94.5984 0.214957 -1.56127 0
M  V30 1013 C 95.8754 0.963093 -1.70247 0
M  V30 1014 C 96.2554 2.02166 -0.60764 0
M  V30 1015 O 95.6034 2.25244 0.384385 0
M  V30 1016 C 95.8134 1.56756 -3.11815 0
M  V30 1017 C 97.1614 2.0573 -3.7143 0
M  V30 1018 O 98.1854 1.66637 -3.14818 0
M  V30 1019 O 97.0444 2.77603 -4.70743 0
M  V30 1020 H 94.1384 0.450321 -0.693643 0
M  V30 1021 H 96.6844 0.206219 -1.68442 0
M  V30 1022 H 95.4564 0.803533 -3.82961 0
M  V30 1023 H 95.0794 2.3898 -3.17765 0
M  V30 1024 N 96.0765 1.50051 0.48192 0
M  V30 1025 C 97.3535 1.51009 1.2432 0
M  V30 1026 C 97.7335 0.248587 2.09631 0
M  V30 1027 O 97.0815 -0.768409 2.15192 0
M  V30 1028 C 97.2915 2.79981 2.08355 0
M  V30 1029 C 98.6395 3.3022 2.66908 0
M  V30 1030 O 99.6635 2.81228 2.18607 0
M  V30 1031 O 98.5225 4.15595 3.54884 0
M  V30 1032 H 95.6165 0.605239 0.563573 0
M  V30 1033 H 98.1625 1.62332 0.494627 0
M  V30 1034 H 96.9345 3.63275 1.45419 0
M  V30 1035 H 96.5575 2.7161 2.90368 0
M  V30 1036 N 97.5546 -0.734337 1.39446 0
M  V30 1037 C 98.9656 -1.31264 1.32766 0
M  V30 1038 C 99.3166 -1.96198 -0.00767497 0
M  V30 1039 O 98.4416 -1.96346 -0.909796 0
M  V30 1040 C 99.0366 -2.38682 2.4045 0
M  V30 1041 C 97.5956 -2.92184 2.37288 0
M  V30 1042 C 96.7426 -1.6576 2.22304 0
M  V30 1043 H 99.6936 -0.531799 1.49525 0
M  V30 1044 H 99.7146 -3.19087 2.07276 0
M  V30 1045 H 99.2266 -1.91392 3.37625 0
M  V30 1046 H 97.3276 -3.43752 1.43754 0
M  V30 1047 H 97.4406 -3.45253 3.3217 0
M  V30 1048 H 95.8046 -1.9012 1.69489 0
M  V30 1049 H 96.5876 -1.20521 3.21449 0
M  V30 1050 N 99.0327 -1.24633 -0.964593 0
M  V30 1051 C 100.263 -1.11339 -1.74032 0
M  V30 1052 C 100.671 0.336593 -1.86182 0
M  V30 1053 O 100.014 1.24389 -1.35178 0
M  V30 1054 C 100.076 -1.68284 -3.1768 0
M  V30 1055 C 99.7397 -3.17196 -3.28992 0
M  V30 1056 C 100.737 -4.14308 -3.14078 0
M  V30 1057 C 98.4217 -3.57215 -3.53133 0
M  V30 1058 C 100.416 -5.4942 -3.23135 0
M  V30 1059 C 98.1027 -4.92468 -3.61827 0
M  V30 1060 C 99.1007 -5.8838 -3.46841 0
M  V30 1061 O 98.7887 -7.21173 -3.55197 0
M  V30 1062 H 98.5207 -0.389551 -0.552472 0
M  V30 1063 H 101.075 -1.65282 -1.21946 0
M  V30 1064 H 99.3047 -1.08777 -3.71085 0
M  V30 1065 H 100.994 -1.50234 -3.77074 0
M  V30 1066 H 101.76 -3.84731 -2.95308 0
M  V30 1067 H 97.6387 -2.83063 -3.63863 0
M  V30 1068 H 101.183 -6.24263 -3.11355 0
M  V30 1069 H 97.0797 -5.21714 -3.80111 0
M  V30 1070 H 97.8477 -7.29135 -3.71892 0
M  V30 1071 N 100.511 1.16574 -1.06058 0
M  V30 1072 C 101.474 2.19085 -0.673392 0
M  V30 1073 C 102.474 1.5835 0.279648 0
M  V30 1074 O 103.664 1.74088 0.0623488 0
M  V30 1075 C 100.796 3.40899 0.00954234 0
M  V30 1076 H 101.989 2.54853 -1.58081 0
M  V30 1077 H 99.5418 1.30808 -0.855516 0
M  V30 1078 H 100.277 3.10684 0.929826 0
M  V30 1079 H 100.062 3.86233 -0.67573 0
M  V30 1080 H 101.552 4.1675 0.266245 0
M  V30 1081 N 101.989 0.842826 1.3317 0
M  V30 1082 C 103.217 0.454055 2.01856 0
M  V30 1083 C 103.632 -0.94587 1.63397 0
M  V30 1084 O 102.989 -1.61534 0.849302 0
M  V30 1085 C 103.04 0.569715 3.56982 0
M  V30 1086 O 102.761 1.91448 3.94055 0
M  V30 1087 C 104.262 0.178412 4.42941 0
M  V30 1088 H 101.482 0.17979 0.646465 0
M  V30 1089 H 104.026 1.1365 1.70012 0
M  V30 1090 H 102.181 -0.0648587 3.87346 0
M  V30 1091 H 102.595 1.90282 4.88767 0
M  V30 1092 H 104.069 0.310376 5.51127 0
M  V30 1093 H 104.546 -0.880056 4.30293 0
M  V30 1094 H 105.152 0.787579 4.17944 0
M  V30 1095 N 103.467 -1.45747 0.599634 0
M  V30 1096 C 104.714 -2.02292 0.0917284 0
M  V30 1097 C 105.042 -1.46906 -1.27472 0
M  V30 1098 O 104.297 -0.630652 -1.8526 0
M  V30 1099 C 104.596 -3.57399 -0.00602758 0
M  V30 1100 C 104.262 -4.31902 1.29503 0
M  V30 1101 C 102.924 -4.51974 1.65144 0
M  V30 1102 C 105.276 -4.74551 2.15525 0
M  V30 1103 C 102.604 -5.11949 2.86574 0
M  V30 1104 C 104.956 -5.35868 3.36196 0
M  V30 1105 C 103.62 -5.54165 3.72099 0
M  V30 1106 H 102.89 -0.740239 0.0335658 0
M  V30 1107 H 105.537 -1.7491 0.779661 0
M  V30 1108 H 103.842 -3.84014 -0.777183 0
M  V30 1109 H 105.539 -3.98846 -0.415038 0
M  V30 1110 H 102.129 -4.16588 1.00761 0
M  V30 1111 H 106.313 -4.58784 1.8929 0
M  V30 1112 H 101.569 -5.24305 3.14507 0
M  V30 1113 H 105.743 -5.6787 4.03109 0
M  V30 1114 H 103.37 -6.00406 4.6628 0
M  V30 1115 N 104.945 -0.338344 -1.53925 0
M  V30 1116 C 106.191 0.260143 -2.01125 0
M  V30 1117 C 106.524 1.50617 -1.22589 0
M  V30 1118 O 105.799 1.91979 -0.312113 0
M  V30 1119 C 106.082 0.579499 -3.55407 0
M  V30 1120 C 105.935 -0.678264 -4.44657 0
M  V30 1121 C 107.254 1.39122 -4.17532 0
M  V30 1122 H 104.373 0.0930772 -0.731099 0
M  V30 1123 H 107.015 -0.457852 -1.84401 0
M  V30 1124 H 105.165 1.19118 -3.69788 0
M  V30 1125 H 106.837 -1.31631 -4.42121 0
M  V30 1126 H 105.08 -1.3042 -4.13731 0
M  V30 1127 H 105.751 -0.410143 -5.50474 0
M  V30 1128 H 108.227 0.874035 -4.06817 0
M  V30 1129 H 107.103 1.58342 -5.25565 0
M  V30 1130 H 107.364 2.39178 -3.71815 0
M  V30 1131 N 106.423 1.57458 -0.0668435 0
M  V30 1132 C 107.37 2.12439 0.902122 0
M  V30 1133 C 108.34 1.03565 1.2986 0
M  V30 1134 O 109.525 1.312 1.38532 0
M  V30 1135 C 106.665 2.6865 2.16614 0
M  V30 1136 C 105.778 3.91663 1.82274 0
M  V30 1137 C 104.913 4.36134 3.0325 0
M  V30 1138 C 103.952 5.51808 2.64904 0
M  V30 1139 N 103.089 5.9126 3.78624 0
M  V30 1140 H 107.929 2.94934 0.426382 0
M  V30 1141 H 105.466 1.4575 0.198819 0
M  V30 1142 H 107.424 2.99346 2.90599 0
M  V30 1143 H 106.054 1.88928 2.61737 0
M  V30 1144 H 105.106 3.6746 0.983719 0
M  V30 1145 H 106.418 4.75693 1.50059 0
M  V30 1146 H 105.572 4.68465 3.85519 0
M  V30 1147 H 104.311 3.50948 3.38655 0
M  V30 1148 H 103.316 5.19133 1.81055 0
M  V30 1149 H 104.541 6.38722 2.30675 0
M  V30 1150 H 102.487 5.09024 4.138 0
M  V30 1151 H 102.404 6.70018 3.5016 0
M  V30 1152 H 103.672 6.28212 4.61486 0
M  V30 1153 N 107.901 -0.206675 1.56239 0
M  V30 1154 C 108.834 -1.28383 1.88661 0
M  V30 1155 C 109.812 -1.44504 0.745481 0
M  V30 1156 O 110.996 -1.60079 0.995336 0
M  V30 1157 C 108.123 -2.65211 2.10667 0
M  V30 1158 C 107.169 -2.66025 3.33366 0
M  V30 1159 S 108.002 -2.18609 4.88846 0
M  V30 1160 C 109.158 -3.57283 5.13906 0
M  V30 1161 H 109.391 -1.00691 2.7973 0
M  V30 1162 H 106.924 -0.409627 1.48867 0
M  V30 1163 H 108.882 -3.43979 2.24029 0
M  V30 1164 H 107.543 -2.90121 1.20369 0
M  V30 1165 H 106.736 -3.66607 3.45855 0
M  V30 1166 H 106.338 -1.95331 3.18938 0
M  V30 1167 H 108.63 -4.53074 5.03717 0
M  V30 1168 H 109.573 -3.49699 6.15724 0
M  V30 1169 H 109.981 -3.51659 4.41583 0
M  V30 1170 N 109.379 -1.50304 -0.473955 0
M  V30 1171 C 110.309 -1.71886 -1.58042 0
M  V30 1172 C 111.29 -0.567799 -1.60344 0
M  V30 1173 O 112.475 -0.806623 -1.76656 0
M  V30 1174 C 109.605 -1.81036 -2.96384 0
M  V30 1175 C 108.559 -2.962 -3.08949 0
M  V30 1176 C 107.885 -2.9049 -4.48909 0
M  V30 1177 C 109.185 -4.36752 -2.86434 0
M  V30 1178 H 110.879 -2.64527 -1.40234 0
M  V30 1179 H 108.425 -1.27295 -0.673201 0
M  V30 1180 H 110.378 -1.94719 -3.73714 0
M  V30 1181 H 109.102 -0.850147 -3.15341 0
M  V30 1182 H 107.761 -2.82164 -2.3405 0
M  V30 1183 H 107.409 -1.92321 -4.64781 0
M  V30 1184 H 107.109 -3.67802 -4.58253 0
M  V30 1185 H 108.633 -3.06218 -5.28264 0
M  V30 1186 H 110.047 -4.5133 -3.53517 0
M  V30 1187 H 108.444 -5.15493 -3.07225 0
M  V30 1188 H 109.514 -4.49321 -1.82316 0
M  V30 1189 N 110.857 0.726932 -1.39834 0
M  V30 1190 C 112.268 1.30558 -1.3346 0
M  V30 1191 C 112.619 1.962 -0.00273003 0
M  V30 1192 O 111.744 1.96826 0.899371 0
M  V30 1193 C 112.339 2.37404 -2.41713 0
M  V30 1194 C 110.898 2.90921 -2.38835 0
M  V30 1195 C 110.045 1.64578 -2.2318 0
M  V30 1196 H 112.996 0.523862 -1.49804 0
M  V30 1197 H 113.017 3.17984 -2.08966 0
M  V30 1198 H 112.529 1.89599 -3.38635 0
M  V30 1199 H 110.63 3.42985 -1.45575 0
M  V30 1200 H 110.743 3.43487 -3.33997 0
M  V30 1201 H 109.107 1.89219 -1.70494 0
M  V30 1202 H 109.89 1.18814 -3.22084 0
M  V30 1203 N 112.336 1.25143 0.95797 0
M  V30 1204 C 113.613 1.00472 1.67823 0
M  V30 1205 C 113.993 -0.470056 2.058 0
M  V30 1206 O 113.341 -1.44663 1.76875 0
M  V30 1207 C 113.551 1.9372 2.90299 0
M  V30 1208 C 114.899 2.21371 3.62326 0
M  V30 1209 O 115.923 1.91451 3.00375 0
M  V30 1210 O 114.782 2.72231 4.7387 0
M  V30 1211 H 111.876 0.380752 0.734137 0
M  V30 1212 H 114.422 1.36283 1.01119 0
M  V30 1213 H 113.194 2.93316 2.59001 0
M  V30 1214 H 112.817 1.58286 3.64735 0
M  V30 1215 N 113.814 -1.1601 1.06675 0
M  V30 1216 C 114.761 -2.20525 0.680967 0
M  V30 1217 C 115.731 -1.62904 -0.324283 0
M  V30 1218 O 116.916 -1.89615 -0.212294 0
M  V30 1219 C 114.056 -3.45013 0.0776551 0
M  V30 1220 C 113.169 -4.16863 1.13355 0
M  V30 1221 C 112.304 -5.2888 0.49597 0
M  V30 1222 C 111.343 -5.92537 1.53513 0
M  V30 1223 N 110.48 -6.96038 0.920631 0
M  V30 1224 H 115.32 -2.52876 1.57663 0
M  V30 1225 H 112.857 -1.24199 0.788223 0
M  V30 1226 H 114.815 -4.16193 -0.289704 0
M  V30 1227 H 113.445 -3.132 -0.781393 0
M  V30 1228 H 112.497 -3.44248 1.61857 0
M  V30 1229 H 113.809 -4.60294 1.92174 0
M  V30 1230 H 112.963 -6.06653 0.0758604 0
M  V30 1231 H 111.702 -4.86622 -0.324062 0
M  V30 1232 H 110.707 -5.13482 1.9651 0
M  V30 1233 H 111.932 -6.36873 2.35733 0
M  V30 1234 H 109.878 -6.55888 0.12138 0
M  V30 1235 H 109.795 -7.3786 1.64616 0
M  V30 1236 H 111.063 -7.77725 0.525795 0
M  V30 1237 N 115.292 -0.849877 -1.32721 0
M  V30 1238 C 116.569 -0.372405 -1.92022 0
M  V30 1239 C 116.949 1.1435 -1.77447 0
M  V30 1240 O 116.297 1.96296 -1.16962 0
M  V30 1241 C 116.507 -0.831482 -3.3895 0
M  V30 1242 C 117.855 -0.845882 -4.16089 0
M  V30 1243 O 118.879 -0.775806 -3.47649 0
M  V30 1244 O 117.738 -0.943753 -5.38289 0
M  V30 1245 H 114.832 -0.107667 -0.819961 0
M  V30 1246 H 117.378 -0.93646 -1.41522 0
M  V30 1247 H 116.15 -1.87448 -3.4348 0
M  V30 1248 H 115.773 -0.24461 -3.96847 0
M  V30 1249 N 116.77 1.45427 -0.607355 0
M  V30 1250 C 118.01 2.04128 -0.105458 0
M  V30 1251 C 118.374 1.46555 1.24039 0
M  V30 1252 O 119.575 1.96608 1.833 0
M  V30 1253 C 117.846 3.57338 -0.0665324 0
M  V30 1254 S 119.405 4.37201 0.374207 0
M  V30 1255 H 116.223 0.709278 -0.0494575 0
M  V30 1256 H 118.825 1.78139 -0.805404 0
M  V30 1257 H 117.529 3.96752 -1.04957 0
M  V30 1258 H 117.06 3.87902 0.655415 0
M  V30 1259 H 119.075 4.6888 1.62377 0
M  V30 1260 N 118.248 0.346503 1.53744 0
M  V30 1261 C 119.664 -0.00530975 1.59599 0
M  V30 1262 C 119.864 -1.48465 1.36236 0
M  V30 1263 O 118.92 -2.24376 1.15808 0
M  V30 1264 C 120.233 0.433516 2.97559 0
M  V30 1265 C 121.781 0.386111 3.10609 0
M  V30 1266 C 122.256 0.800451 4.50951 0
M  V30 1267 N 123.747 0.754753 4.5701 0
M  V30 1268 C 124.482 1.04727 5.63755 0
M  V30 1269 N 123.978 1.4081 6.7834 0
M  V30 1270 N 125.771 0.971316 5.53644 0
M  V30 1271 H 117.922 1.31009 1.67184 0
M  V30 1272 H 120.185 0.534242 0.783128 0
M  V30 1273 H 119.891 1.46509 3.19731 0
M  V30 1274 H 119.765 -0.189753 3.76722 0
M  V30 1275 H 122.152 -0.636295 2.88158 0
M  V30 1276 H 122.233 1.04462 2.33498 0
M  V30 1277 H 121.877 1.82088 4.74137 0
M  V30 1278 H 121.807 0.119386 5.26465 0
M  V30 1279 H 124.298 0.488662 3.74727 0
M  V30 1280 H 124.611 1.61607 7.55714 0
M  V30 1281 H 122.956 1.44657 6.79779 0
M  V30 1282 H 126.147 0.688748 4.63005 0
M  V30 1283 H 126.32 1.20263 6.36742 0
M  V30 1284 N 119.726 -1.57421 0.075193 0
M  V30 1285 C 120.956 -1.97659 -0.601203 0
M  V30 1286 C 121.364 -0.952427 -1.63479 0
M  V30 1287 O 120.707 0.0688241 -1.83571 0
M  V30 1288 C 120.769 -3.34218 -1.32434 0
M  V30 1289 C 120.433 -4.5484 -0.443826 0
M  V30 1290 C 121.43 -5.19034 0.299969 0
M  V30 1291 C 119.115 -5.00952 -0.367709 0
M  V30 1292 C 121.109 -6.27695 1.10807 0
M  V30 1293 C 118.796 -6.09484 0.444058 0
M  V30 1294 C 119.794 -6.72719 1.18061 0
M  V30 1295 O 119.482 -7.79161 1.97898 0
M  V30 1296 H 119.214 -0.65494 -0.167422 0
M  V30 1297 H 121.768 -2.04886 0.145157 0
M  V30 1298 H 119.998 -3.23615 -2.11685 0
M  V30 1299 H 121.687 -3.59038 -1.89331 0
M  V30 1300 H 122.453 -4.84351 0.250776 0
M  V30 1301 H 118.332 -4.51509 -0.930638 0
M  V30 1302 H 121.876 -6.76982 1.68347 0
M  V30 1303 H 117.773 -6.43601 0.494803 0
M  V30 1304 H 118.541 -7.96055 1.90367 0
M  V30 1305 N 121.204 0.198386 -1.56346 0
M  V30 1306 C 122.167 1.22952 -1.93431 0
M  V30 1307 C 123.167 1.38611 -0.815092 0
M  V30 1308 O 124.357 1.36479 -1.08255 0
M  V30 1309 C 121.489 2.59946 -2.20546 0
M  V30 1310 H 122.682 0.912626 -2.85677 0
M  V30 1311 H 120.235 0.43977 -1.49986 0
M  V30 1312 H 120.97 2.96696 -1.30927 0
M  V30 1313 H 120.755 2.49953 -3.02102 0
M  V30 1314 H 122.245 3.3431 -2.50253 0
M  V30 1315 N 122.682 1.50554 0.465978 0
M  V30 1316 C 123.612 1.72722 1.57128 0
M  V30 1317 C 124.593 0.576294 1.6004 0
M  V30 1318 O 125.778 0.81598 1.76225 0
M  V30 1319 C 122.908 1.82605 2.95419 0
M  V30 1320 C 121.862 2.97835 3.07373 0
M  V30 1321 C 121.188 2.92867 4.47363 0
M  V30 1322 C 122.488 4.38265 2.84114 0
M  V30 1323 H 124.182 2.65267 1.38829 0
M  V30 1324 H 121.728 1.2765 0.666441 0
M  V30 1325 H 123.681 1.96698 3.72677 0
M  V30 1326 H 122.405 0.866858 3.14886 0
M  V30 1327 H 121.064 2.83401 2.3255 0
M  V30 1328 H 120.712 1.94783 4.63755 0
M  V30 1329 H 120.412 3.70227 4.56296 0
M  V30 1330 H 121.936 3.09015 5.26633 0
M  V30 1331 H 123.35 4.53198 3.51118 0
M  V30 1332 H 121.747 5.17115 3.04487 0
M  V30 1333 H 122.817 4.50281 1.7993 0
M  V30 1334 N 124.16 -0.719506 1.40217 0
M  V30 1335 C 125.39 -1.50646 1.41384 0
M  V30 1336 C 125.798 -1.89197 0.0107743 0
M  V30 1337 O 125.141 -1.55709 -0.974708 0
M  V30 1338 C 125.203 -2.81405 2.23722 0
M  V30 1339 C 124.867 -2.65199 3.72181 0
M  V30 1340 C 125.864 -2.32717 4.64907 0
M  V30 1341 C 123.549 -2.81586 4.1595 0
M  V30 1342 C 125.543 -2.16827 5.99387 0
M  V30 1343 C 123.23 -2.65313 5.50502 0
M  V30 1344 C 124.228 -2.32981 6.42035 0
M  V30 1345 O 123.916 -2.16827 7.74107 0
M  V30 1346 H 123.648 -0.471606 0.484318 0
M  V30 1347 H 126.202 -0.895456 1.84853 0
M  V30 1348 H 124.432 -3.44823 1.75026 0
M  V30 1349 H 126.121 -3.43102 2.16878 0
M  V30 1350 H 126.887 -2.19694 4.32388 0
M  V30 1351 H 122.766 -3.0574 3.45027 0
M  V30 1352 H 126.31 -1.91513 6.70797 0
M  V30 1353 H 122.207 -2.7792 5.82607 0
M  V30 1354 H 122.975 -2.31778 7.84998 0
M  V30 1355 N 125.638 -1.25649 -0.95132 0
M  V30 1356 C 126.915 -1.01361 -1.67288 0
M  V30 1357 C 127.295 0.459135 -2.06046 0
M  V30 1358 O 126.643 1.43723 -1.7764 0
M  V30 1359 C 126.853 -1.95256 -2.89268 0
M  V30 1360 C 128.201 -2.23289 -3.61147 0
M  V30 1361 O 129.225 -1.93041 -2.99355 0
M  V30 1362 O 128.084 -2.74741 -4.72419 0
M  V30 1363 H 125.178 -0.38464 -0.732107 0
M  V30 1364 H 127.724 -1.36817 -1.00395 0
M  V30 1365 H 126.496 -2.94685 -2.57442 0
M  V30 1366 H 126.119 -1.60218 -3.6389 0
M  V30 1367 N 127.117 1.15442 -1.07289 0
M  V30 1368 C 128.08 2.18358 -0.696591 0
M  V30 1369 C 129.08 1.58637 0.262837 0
M  V30 1370 O 130.27 1.74145 0.0438809 0
M  V30 1371 C 127.402 3.4089 -0.0266151 0
M  V30 1372 H 128.595 2.53162 -1.60776 0
M  V30 1373 H 126.148 1.29893 -0.869342 0
M  V30 1374 H 126.883 3.11653 0.896822 0
M  V30 1375 H 126.668 3.85495 -0.716657 0
M  V30 1376 H 128.158 4.17009 0.222028 0
M  V30 1377 N 128.595 0.856903 1.32268 0
M  V30 1378 C 129.823 0.475439 2.01363 0
M  V30 1379 C 130.238 -0.928486 1.64392 0
M  V30 1380 O 129.595 -1.60624 0.866387 0
M  V30 1381 C 129.646 0.607545 3.56358 0
M  V30 1382 O 129.367 1.95617 3.92002 0
M  V30 1383 C 130.868 0.225382 4.42727 0
M  V30 1384 H 128.088 0.186636 0.644521 0
M  V30 1385 H 130.632 1.15446 1.68797 0
M  V30 1386 H 128.787 -0.0237719 3.87393 0
M  V30 1387 H 129.201 1.95455 4.86721 0
M  V30 1388 H 130.675 0.368813 5.50767 0
M  V30 1389 H 131.152 -0.834369 4.31202 0
M  V30 1390 H 131.758 0.831864 4.17085 0
M  V30 1391 N 130.073 -1.45103 0.615059 0
M  V30 1392 C 131.303 -2.06254 0.119596 0
M  V30 1393 C 131.711 -1.4591 -1.20445 0
M  V30 1394 O 131.054 -0.570384 -1.7462 0
M  V30 1395 C 131.116 -3.59396 -0.0865591 0
M  V30 1396 C 130.78 -4.42116 1.15683 0
M  V30 1397 C 131.777 -4.7662 2.07676 0
M  V30 1398 C 129.462 -4.82749 1.38775 0
M  V30 1399 C 131.456 -5.50622 3.21082 0
M  V30 1400 C 129.143 -5.56504 2.52481 0
M  V30 1401 C 130.141 -5.90358 3.43463 0
M  V30 1402 O 129.829 -6.62615 4.55189 0
M  V30 1403 H 129.561 -0.672423 0.0694512 0
M  V30 1404 H 132.115 -1.87219 0.844885 0
M  V30 1405 H 130.345 -3.76859 -0.866823 0
M  V30 1406 H 132.034 -4.02365 -0.534555 0
M  V30 1407 H 132.8 -4.4578 1.91063 0
M  V30 1408 H 128.679 -4.55829 0.688545 0
M  V30 1409 H 132.223 -5.76965 3.92119 0
M  V30 1410 H 128.12 -5.86759 2.69043 0
M  V30 1411 H 128.888 -6.81071 4.53966 0
M  V30 1412 N 131.551 -0.354651 -1.53558 0
M  V30 1413 C 132.461 0.50515 -2.29097 0
M  V30 1414 C 133.477 1.10223 -1.34636 0
M  V30 1415 O 134.653 1.11553 -1.67684 0
M  V30 1416 C 131.718 1.63479 -3.05738 0
M  V30 1417 C 130.779 1.06636 -4.15845 0
M  V30 1418 C 130.012 2.14217 -4.88822 0
M  V30 1419 O 130.235 3.35137 -4.61562 0
M  V30 1420 O 129.169 1.77887 -5.75013 0
M  V30 1421 H 132.995 -0.109237 -3.03503 0
M  V30 1422 H 130.58 -0.119357 -1.48922 0
M  V30 1423 H 132.462 2.2918 -3.5363 0
M  V30 1424 H 131.137 2.23478 -2.34178 0
M  V30 1425 H 130.044 0.373565 -3.7223 0
M  V30 1426 H 131.377 0.511081 -4.89539 0
M  V30 1427 N 133.029 1.57378 -0.0835403 0
M  V30 1428 C 134.257 1.98263 0.59157 0
M  V30 1429 C 134.672 0.962302 1.62435 0
M  V30 1430 O 134.029 -0.049581 1.82433 0
M  V30 1431 C 134.08 3.39214 1.24965 0
M  V30 1432 O 133.801 4.37339 0.258186 0
M  V30 1433 C 135.302 3.95038 2.01147 0
M  V30 1434 H 132.522 0.651773 0.159477 0
M  V30 1435 H 135.066 2.03878 -0.159415 0
M  V30 1436 H 133.221 3.34649 1.95164 0
M  V30 1437 H 133.635 5.19371 0.731734 0
M  V30 1438 H 135.109 4.95848 2.42567 0
M  V30 1439 H 135.586 3.32222 2.87272 0
M  V30 1440 H 136.192 4.0304 1.35789 0
M  V30 1441 N 134.507 -0.190092 1.56449 0
M  V30 1442 C 135.454 -1.23557 1.94942 0
M  V30 1443 C 136.424 -1.44972 0.810696 0
M  V30 1444 O 137.609 -1.58023 1.06927 0
M  V30 1445 C 134.749 -2.57416 2.2985 0
M  V30 1446 C 133.862 -2.43537 3.5681 0
M  V30 1447 C 132.997 -3.70134 3.81017 0
M  V30 1448 C 132.036 -3.51109 5.01387 0
M  V30 1449 N 131.173 -4.6973 5.21822 0
M  V30 1450 H 136.013 -0.900304 2.84075 0
M  V30 1451 H 133.55 -0.43318 1.40577 0
M  V30 1452 H 135.508 -3.35409 2.48106 0
M  V30 1453 H 134.138 -2.88975 1.43852 0
M  V30 1454 H 133.19 -1.56816 3.46573 0
M  V30 1455 H 134.502 -2.25415 4.4496 0
M  V30 1456 H 133.656 -4.56566 3.9954 0
M  V30 1457 H 132.395 -3.91215 2.91207 0
M  V30 1458 H 131.4 -2.63063 4.82782 0
M  V30 1459 H 132.625 -3.31468 5.9271 0
M  V30 1460 H 130.571 -4.91065 4.34961 0
M  V30 1461 H 130.488 -4.54452 6.0416 0
M  V30 1462 H 131.756 -5.57499 5.44808 0
M  V30 1463 N 135.985 -1.50799 -0.457987 0
M  V30 1464 C 136.895 -1.73426 -1.57989 0
M  V30 1465 C 137.911 -0.617745 -1.62665 0
M  V30 1466 O 139.087 -0.897614 -1.80291 0
M  V30 1467 C 136.152 -1.83557 -2.94122 0
M  V30 1468 C 135.213 -3.07345 -2.99729 0
M  V30 1469 C 134.446 -3.16983 -4.29368 0
M  V30 1470 O 134.669 -2.33077 -5.20607 0
M  V30 1471 O 133.603 -4.09812 -4.40837 0
M  V30 1472 H 137.429 -2.68555 -1.41817 0
M  V30 1473 H 135.014 -1.35052 -0.638859 0
M  V30 1474 H 136.896 -1.92326 -3.74952 0
M  V30 1475 H 135.571 -0.916137 -3.10465 0
M  V30 1476 H 134.478 -3.04068 -2.1793 0
M  V30 1477 H 135.811 -3.9891 -2.88326 0
M  V30 1478 N 137.463 0.71206 -1.40597 0
M  V30 1479 C 138.688 1.50617 -1.42581 0
M  V30 1480 C 139.113 1.88079 -0.0282102 0
M  V30 1481 O 138.471 1.53511 0.964579 0
M  V30 1482 C 138.519 2.7557 -2.3258 0
M  V30 1483 O 137.623 3.72414 -1.77148 0
M  V30 1484 H 136.964 0.453966 -0.484573 0
M  V30 1485 H 139.494 0.876649 -1.84868 0
M  V30 1486 H 139.504 3.2406 -2.47889 0
M  V30 1487 H 138.179 2.47639 -3.34138 0
M  V30 1488 H 136.756 3.31276 -1.71204 0
M  V30 1489 N 138.941 1.26152 0.944643 0
M  V30 1490 C 139.888 1.07408 2.04285 0
M  V30 1491 C 140.858 -0.0198413 1.66088 0
M  V30 1492 O 142.043 0.139264 1.90291 0
M  V30 1493 C 139.183 0.70945 3.37729 0
M  V30 1494 C 138.296 1.87926 3.88983 0
M  V30 1495 C 137.431 1.45807 5.10797 0
M  V30 1496 C 136.47 2.5964 5.54305 0
M  V30 1497 N 135.607 2.18226 6.67324 0
M  V30 1498 H 140.447 2.01389 2.1965 0
M  V30 1499 H 137.984 1.00275 1.07626 0
M  V30 1500 H 139.942 0.478948 4.14442 0
M  V30 1501 H 138.572 -0.193389 3.2222 0
M  V30 1502 H 137.624 2.22279 3.08701 0
M  V30 1503 H 138.936 2.73377 4.17213 0
M  V30 1504 H 138.09 1.18781 5.94959 0
M  V30 1505 H 136.829 0.574414 4.84305 0
M  V30 1506 H 135.834 2.87399 4.68702 0
M  V30 1507 H 137.059 3.48599 5.828 0
M  V30 1508 H 135.005 1.3229 6.42523 0
M  V30 1509 H 134.922 2.97221 6.95123 0
M  V30 1510 H 136.19 1.94403 7.54869 0
M  V30 1511 N 140.419 -1.14872 1.07899 0
M  V30 1512 C 141.366 -2.19791 0.704319 0
M  V30 1513 C 142.336 -1.63238 -0.306987 0
M  V30 1514 O 143.521 -1.8983 -0.192171 0
M  V30 1515 C 140.661 -3.44911 0.114244 0
M  V30 1516 C 139.774 -4.15637 1.1777 0
M  V30 1517 C 138.909 -5.28324 0.552037 0
M  V30 1518 C 137.948 -5.90875 1.59789 0
M  V30 1519 N 137.085 -6.95022 0.994404 0
M  V30 1520 H 141.925 -2.5119 1.60336 0
M  V30 1521 H 139.462 -1.23356 0.801352 0
M  V30 1522 H 141.42 -4.16477 -0.245544 0
M  V30 1523 H 140.05 -3.14011 -0.74813 0
M  V30 1524 H 139.102 -3.42512 1.65499 0
M  V30 1525 H 140.414 -4.5823 1.97046 0
M  V30 1526 H 139.568 -6.06538 0.1402 0
M  V30 1527 H 138.307 -4.86939 -0.272431 0
M  V30 1528 H 137.312 -5.11369 2.01945 0
M  V30 1529 H 138.537 -6.34337 2.42474 0
M  V30 1530 H 136.483 -6.55722 0.190939 0
M  V30 1531 H 136.4 -7.36073 1.72432 0
M  V30 1532 H 137.668 -7.77123 0.608253 0
M  V30 1533 N 141.898 -0.863906 -1.31812 0
M  V30 1534 C 142.808 -0.318461 -2.32428 0
M  V30 1535 C 143.824 0.568496 -1.64451 0
M  V30 1536 O 145 0.46666 -1.95919 0
M  V30 1537 C 142.065 0.476355 -3.43412 0
M  V30 1538 C 141.126 -0.43784 -4.27061 0
M  V30 1539 C 140.359 0.319138 -5.32745 0
M  V30 1540 O 140.582 1.54799 -5.48993 0
M  V30 1541 O 139.516 -0.319861 -6.01049 0
M  V30 1542 H 143.342 -1.15229 -2.80991 0
M  V30 1543 H 140.927 -0.627103 -1.35602 0
M  V30 1544 H 142.809 0.927156 -4.11074 0
M  V30 1545 H 141.484 1.28683 -2.97022 0
M  V30 1546 H 140.391 -0.937013 -3.62175 0
M  V30 1547 H 141.724 -1.21375 -4.77 0
M  V30 1548 N 143.376 1.44774 -0.622745 0
M  V30 1549 C 144.653 1.95522 -0.0551974 0
M  V30 1550 C 145.033 1.5649 1.41683 0
M  V30 1551 O 144.381 0.834848 2.12703 0
M  V30 1552 C 144.591 3.4796 -0.269242 0
M  V30 1553 C 145.939 4.24306 -0.158014 0
M  V30 1554 O 146.963 3.55637 -0.200162 0
M  V30 1555 O 145.822 5.46471 -0.0558693 0
M  V30 1556 H 142.916 0.826556 0.0271015 0
M  V30 1557 H 145.462 1.54866 -0.693864 0
M  V30 1558 H 144.234 3.6939 -1.29099 0
M  V30 1559 H 143.857 3.95543 0.403966 0
M  V30 1560 N 144.854 0.36279 1.53368 0
M  V30 1561 C 145.784 -0.476976 2.28576 0
M  V30 1562 C 146.765 -1.08631 1.30894 0
M  V30 1563 O 147.95 -1.10409 1.59761 0
M  V30 1564 C 145.08 -1.61828 3.07293 0
M  V30 1565 C 144.034 -1.13633 4.1264 0
M  V30 1566 C 143.36 -2.36766 4.79423 0
M  V30 1567 C 144.66 -0.223061 5.21823 0
M  V30 1568 H 146.354 0.150474 2.99022 0
M  V30 1569 H 143.9 0.0738103 1.43811 0
M  V30 1570 H 145.853 -2.21237 3.58653 0
M  V30 1571 H 144.577 -2.27292 2.34533 0
M  V30 1572 H 143.236 -0.564945 3.62221 0
M  V30 1573 H 142.884 -3.0068 4.03238 0
M  V30 1574 H 142.584 -2.05192 5.50609 0
M  V30 1575 H 144.108 -2.96865 5.33576 0
M  V30 1576 H 145.522 -0.724545 5.68703 0
M  V30 1577 H 143.919 0.001678 6.001 0
M  V30 1578 H 144.989 0.735553 4.79289 0
M  V30 1579 N 146.332 -1.57332 0.0918853 0
M  V30 1580 C 147.578 -1.94524 -0.573425 0
M  V30 1581 C 147.911 -0.973578 -1.68033 0
M  V30 1582 O 147.186 -0.00609226 -1.94499 0
M  V30 1583 C 147.469 -3.41858 -1.13161 0
M  V30 1584 C 147.322 -4.4979 -0.0299747 0
M  V30 1585 C 148.641 -3.90435 -2.03098 0
M  V30 1586 H 145.76 -0.70734 -0.206975 0
M  V30 1587 H 148.402 -1.89309 0.161942 0
M  V30 1588 H 146.552 -3.46433 -1.7583 0
M  V30 1589 H 148.224 -4.57327 0.604112 0
M  V30 1590 H 146.467 -4.291 0.636833 0
M  V30 1591 H 147.138 -5.50069 -0.461287 0
M  V30 1592 H 149.614 -3.87992 -1.50338 0
M  V30 1593 H 148.49 -4.94097 -2.39081 0
M  V30 1594 H 148.751 -3.29541 -2.94712 0
M  V30 1595 N 147.81 0.181792 -1.56548 0
M  V30 1596 C 149.057 0.900097 -1.81396 0
M  V30 1597 C 149.385 1.82695 -0.667281 0
M  V30 1598 O 148.64 1.92614 0.346146 0
M  V30 1599 C 148.939 1.73728 -3.12335 0
M  V30 1600 C 148.605 0.960255 -4.40556 0
M  V30 1601 C 147.267 0.745766 -4.75386 0
M  V30 1602 C 149.619 0.414477 -5.19549 0
M  V30 1603 C 146.947 -0.0257694 -5.86694 0
M  V30 1604 C 149.299 -0.343916 -6.31664 0
M  V30 1605 C 147.963 -0.569301 -6.65068 0
M  V30 1606 H 147.233 0.329369 -0.663775 0
M  V30 1607 H 149.88 0.165647 -1.90782 0
M  V30 1608 H 148.185 2.54081 -2.98245 0
M  V30 1609 H 149.882 2.29591 -3.28769 0
M  V30 1610 H 146.472 1.13746 -4.13231 0
M  V30 1611 H 150.656 0.567554 -4.93044 0
M  V30 1612 H 145.912 -0.210233 -6.11038 0
M  V30 1613 H 150.086 -0.774133 -6.92084 0
M  V30 1614 H 147.713 -1.16903 -7.51158 0
M  V30 1615 N 149.288 1.51039 0.449983 0
M  V30 1616 C 150.537 1.62317 1.19733 0
M  V30 1617 C 150.85 0.339101 1.92638 0
M  V30 1618 O 152.056 0.331069 2.69474 0
M  V30 1619 C 150.512 2.86608 2.17678 0
M  V30 1620 C 150.12 4.21972 1.50479 0
M  V30 1621 C 151.864 3.07239 2.92924 0
M  V30 1622 C 149.771 5.37426 2.46834 0
M  V30 1623 H 148.701 0.604532 0.450619 0
M  V30 1624 H 151.352 1.77494 0.465625 0
M  V30 1625 H 149.734 2.65037 2.94231 0
M  V30 1626 H 150.908 4.53878 0.795716 0
M  V30 1627 H 149.223 4.07117 0.874344 0
M  V30 1628 H 151.82 3.90668 3.65079 0
M  V30 1629 H 152.163 2.19807 3.5354 0
M  V30 1630 H 152.696 3.29091 2.23481 0
M  V30 1631 H 149.435 6.27079 1.90926 0
M  V30 1632 H 148.955 5.09912 3.15832 0
M  V30 1633 H 150.634 5.68862 3.08228 0
M  V30 1634 N 150.766 -0.704594 1.40972 0
M  V30 1635 C 152.013 -1.46458 1.39844 0
M  V30 1636 C 152.341 -1.94499 0.00447594 0
M  V30 1637 O 151.596 -1.69275 -0.982057 0
M  V30 1638 C 151.895 -2.698 2.34399 0
M  V30 1639 C 151.561 -2.40464 3.81429 0
M  V30 1640 C 150.223 -2.32174 4.21484 0
M  V30 1641 C 152.575 -2.16086 4.74296 0
M  V30 1642 C 149.903 -1.97589 5.52427 0
M  V30 1643 C 152.255 -1.83011 6.05549 0
M  V30 1644 C 150.919 -1.7321 6.44635 0
M  V30 1645 H 150.189 -0.535927 0.511725 0
M  V30 1646 H 152.836 -0.806124 1.73706 0
M  V30 1647 H 151.141 -3.40536 1.93759 0
M  V30 1648 H 152.838 -3.27919 2.30804 0
M  V30 1649 H 149.428 -2.47808 3.49699 0
M  V30 1650 H 153.612 -2.2144 4.4416 0
M  V30 1651 H 148.868 -1.88547 5.81601 0
M  V30 1652 H 153.042 -1.63164 6.77016 0
M  V30 1653 H 150.669 -1.46179 7.46013 0
M  V30 1654 N 152.244 -1.26651 -0.937939 0
M  V30 1655 C 153.49 -1.13562 -1.68746 0
M  V30 1656 C 153.845 0.317241 -1.89767 0
M  V30 1657 O 153.138 1.22939 -1.46957 0
M  V30 1658 C 153.332 -1.84168 -3.06295 0
M  V30 1659 C 153.161 -3.36171 -2.98696 0
M  V30 1660 C 151.931 -4.05468 -3.01535 0
M  V30 1661 C 154.129 -4.32312 -2.78588 0
M  V30 1662 N 152.111 -5.44118 -2.84269 0
M  V30 1663 C 153.482 -5.58159 -2.69924 0
M  V30 1664 C 155.537 -4.22524 -2.63396 0
M  V30 1665 C 154.24 -6.75335 -2.47618 0
M  V30 1666 C 156.266 -5.39411 -2.42466 0
M  V30 1667 C 155.628 -6.64208 -2.34536 0
M  V30 1668 H 151.727 -0.470361 -0.624728 0
M  V30 1669 H 154.311 -1.59982 -1.10968 0
M  V30 1670 H 152.482 -1.40219 -3.62206 0
M  V30 1671 H 154.214 -1.63674 -3.70126 0
M  V30 1672 H 150.969 -3.56854 -3.11372 0
M  V30 1673 H 151.393 -6.1693 -2.78795 0
M  V30 1674 H 156.035 -3.26771 -2.68292 0
M  V30 1675 H 153.753 -7.71182 -2.41463 0
M  V30 1676 H 157.339 -5.33711 -2.31611 0
M  V30 1677 H 156.219 -7.53129 -2.18555 0
M  V30 1678 N 153.722 1.14298 -1.08507 0
M  V30 1679 C 154.685 2.17607 -0.719711 0
M  V30 1680 C 155.685 1.58907 0.245997 0
M  V30 1681 O 156.875 1.74181 0.0254081 0
M  V30 1682 C 154.007 3.40842 -0.0627695 0
M  V30 1683 H 155.2 2.51443 -1.63452 0
M  V30 1684 H 152.753 1.28963 -0.88307 0
M  V30 1685 H 153.488 3.12587 0.863716 0
M  V30 1686 H 153.273 3.84713 -0.757504 0
M  V30 1687 H 154.763 4.17221 0.177786 0
M  V30 1688 N 155.201 0.870884 1.31352 0
M  V30 1689 C 156.612 0.534714 1.78879 0
M  V30 1690 C 156.963 -0.948423 1.71754 0
M  V30 1691 O 156.088 -1.74055 1.28584 0
M  V30 1692 C 156.683 0.963839 3.24801 0
M  V30 1693 C 155.242 0.679311 3.70219 0
M  V30 1694 C 154.389 1.15465 2.52117 0
M  V30 1695 H 157.34 1.05651 1.18421 0
M  V30 1696 H 157.361 0.286892 3.79417 0
M  V30 1697 H 156.873 2.04332 3.29955 0
M  V30 1698 H 154.974 -0.388769 3.70566 0
M  V30 1699 H 155.087 1.25698 4.62317 0
M  V30 1700 H 153.451 0.574383 2.48139 0
M  V30 1701 H 154.234 2.24157 2.60016 0
M  V30 1702 N 156.679 -1.44442 0.630414 0
M  V30 1703 C 157.589 -2.34476 -0.0761693 0
M  V30 1704 C 158.605 -1.52576 -0.836449 0
M  V30 1705 O 159.781 -1.85307 -0.788874 0
M  V30 1706 C 156.846 -3.30545 -1.04599 0
M  V30 1707 C 155.907 -4.28352 -0.28516 0
M  V30 1708 C 155.14 -5.19831 -1.20878 0
M  V30 1709 O 155.363 -5.15223 -2.44747 0
M  V30 1710 O 154.297 -5.97892 -0.693491 0
M  V30 1711 H 158.123 -2.96345 0.664324 0
M  V30 1712 H 155.708 -1.44203 0.39061 0
M  V30 1713 H 157.59 -3.89681 -1.60396 0
M  V30 1714 H 156.265 -2.7121 -1.76711 0
M  V30 1715 H 155.172 -3.72764 0.315837 0
M  V30 1716 H 156.505 -4.90605 0.395924 0
M  V30 1717 N 158.157 -0.370918 -1.53173 0
M  V30 1718 C 159.382 0.220293 -2.06227 0
M  V30 1719 C 159.807 1.41243 -1.24225 0
M  V30 1720 O 159.165 1.79387 -0.262645 0
M  V30 1721 C 159.213 0.586663 -3.55796 0
M  V30 1722 O 158.317 1.68317 -3.76488 0
M  V30 1723 H 157.658 0.0308099 -0.663285 0
M  V30 1724 H 160.188 -0.533068 -1.97534 0
M  V30 1725 H 160.198 0.85617 -3.98916 0
M  V30 1726 H 158.873 -0.285013 -4.14922 0
M  V30 1727 H 157.45 1.40881 -3.45264 0
M  V30 1728 N 159.635 1.57281 -0.100228 0
M  V30 1729 C 160.598 2.13158 0.842398 0
M  V30 1730 C 161.598 1.06202 1.20738 0
M  V30 1731 O 162.788 1.32066 1.13597 0
M  V30 1732 C 159.92 2.65639 2.13655 0
M  V30 1733 H 161.113 2.97766 0.357114 0
M  V30 1734 H 158.666 1.5559 0.148823 0
M  V30 1735 H 159.401 1.84566 2.66657 0
M  V30 1736 H 159.186 3.43844 1.88451 0
M  V30 1737 H 160.676 3.08846 2.81077 0
M  V30 1738 N 161.113 -0.173488 1.56642 0
M  V30 1739 C 162.524 -0.736155 1.71574 0
M  V30 1740 C 162.875 -1.82888 0.710389 0
M  V30 1741 O 162 -2.16017 -0.1287 0
M  V30 1742 C 162.595 -1.34211 3.11083 0
M  V30 1743 C 161.154 -1.85162 3.27707 0
M  V30 1744 C 160.301 -0.729765 2.67525 0
M  V30 1745 H 163.252 0.0518786 1.58615 0
M  V30 1746 H 163.273 -2.21178 3.09613 0
M  V30 1747 H 162.785 -0.546579 3.84232 0
M  V30 1748 H 160.886 -2.67366 2.59512 0
M  V30 1749 H 160.999 -1.99855 4.35425 0
M  V30 1750 H 159.363 -1.14965 2.27278 0
M  V30 1751 H 160.146 0.0538806 3.43258 0
M  V30 1752 N 162.591 -1.51276 -0.441967 0
M  V30 1753 C 163.521 -1.752 -1.54361 0
M  V30 1754 C 164.502 -0.601682 -1.59103 0
M  V30 1755 O 165.687 -0.843913 -1.74905 0
M  V30 1756 C 162.817 -1.87282 -2.92477 0
M  V30 1757 C 161.771 -3.02687 -3.02596 0
M  V30 1758 C 161.097 -2.99947 -4.42647 0
M  V30 1759 C 162.397 -4.4273 -2.77106 0
M  V30 1760 H 164.091 -2.67442 -1.34592 0
M  V30 1761 H 161.637 -1.28694 -0.646048 0
M  V30 1762 H 163.59 -2.02602 -3.695 0
M  V30 1763 H 162.314 -0.916844 -3.13467 0
M  V30 1764 H 160.973 -2.87065 -2.28012 0
M  V30 1765 H 160.621 -2.02136 -4.60597 0
M  V30 1766 H 160.321 -3.77439 -4.50348 0
M  V30 1767 H 161.845 -3.17354 -5.2165 0
M  V30 1768 H 163.259 -4.58727 -3.43864 0
M  V30 1769 H 161.656 -5.21893 -2.96222 0
M  V30 1770 H 162.726 -4.53087 -1.72744 0
M  V30 1771 N 164.069 0.697108 -1.41344 0
M  V30 1772 C 165.016 1.81106 -1.43071 0
M  V30 1773 C 165.986 1.63632 -0.285275 0
M  V30 1774 O 167.171 1.84504 -0.486091 0
M  V30 1775 C 164.311 3.18975 -1.31715 0
M  V30 1776 C 163.424 3.47892 -2.56115 0
M  V30 1777 C 162.559 4.75367 -2.37064 0
M  V30 1778 C 161.598 4.97247 -3.56948 0
M  V30 1779 N 160.735 6.15947 -3.36977 0
M  V30 1780 H 165.575 1.78965 -2.38276 0
M  V30 1781 H 163.112 0.873975 -1.18322 0
M  V30 1782 H 165.07 3.98615 -1.23133 0
M  V30 1783 H 163.7 3.20297 -0.401183 0
M  V30 1784 H 162.752 2.62669 -2.75153 0
M  V30 1785 H 164.064 3.59962 -3.45295 0
M  V30 1786 H 163.218 5.63059 -2.25941 0
M  V30 1787 H 161.957 4.65541 -1.45338 0
M  V30 1788 H 160.962 4.08004 -3.68527 0
M  V30 1789 H 162.187 5.08934 -4.49626 0
M  V30 1790 H 160.133 6.07336 -2.47949 0
M  V30 1791 H 160.05 6.28777 -4.19732 0
M  V30 1792 H 161.318 7.06377 -3.29623 0
M  V30 1793 N 165.547 1.27147 0.931209 0
M  V30 1794 C 166.772 1.16191 1.71797 0
M  V30 1795 C 167.197 -0.278004 1.86034 0
M  V30 1796 O 166.555 -1.20137 1.35782 0
M  V30 1797 C 166.603 1.84673 3.09723 0
M  V30 1798 O 165.707 1.14231 3.96264 0
M  V30 1799 H 165.048 0.404303 0.526721 0
M  V30 1800 H 167.578 1.68152 1.1656 0
M  V30 1801 H 167.588 1.91893 3.60057 0
M  V30 1802 H 166.263 2.89421 2.98677 0
M  V30 1803 H 164.84 1.15056 3.54706 0
M  V30 1804 N 167.025 -1.13721 1.09112 0
M  V30 1805 C 167.972 -2.19031 0.727591 0
M  V30 1806 C 168.942 -1.63555 -0.289656 0
M  V30 1807 O 170.127 -1.90023 -0.172026 0
M  V30 1808 C 167.267 -3.4477 0.15082 0
M  V30 1809 C 166.38 -4.14365 1.22172 0
M  V30 1810 C 165.515 -5.27709 0.608042 0
M  V30 1811 C 164.554 -5.89147 1.66047 0
M  V30 1812 N 163.691 -6.93929 1.06806 0
M  V30 1813 H 168.531 -2.49475 1.62991 0
M  V30 1814 H 166.068 -1.22499 0.81439 0
M  V30 1815 H 168.026 -4.16714 -0.201358 0
M  V30 1816 H 166.656 -3.14787 -0.714783 0
M  V30 1817 H 165.708 -3.40737 1.69122 0
M  V30 1818 H 167.02 -4.56114 2.01895 0
M  V30 1819 H 166.174 -6.06355 0.204523 0
M  V30 1820 H 164.913 -4.872 -0.220769 0
M  V30 1821 H 163.918 -5.09198 2.07357 0
M  V30 1822 H 165.143 -6.31729 2.49189 0
M  V30 1823 H 163.089 -6.55483 0.260476 0
M  V30 1824 H 163.006 -7.34202 1.8023 0
M  V30 1825 H 164.274 -7.76434 0.690644 0
M  V30 1826 N 168.503 -0.877838 -1.30888 0
M  V30 1827 C 169.436 -0.283995 -2.26426 0
M  V30 1828 C 170.414 0.591361 -1.51465 0
M  V30 1829 O 171.598 0.54304 -1.80509 0
M  V30 1830 C 168.725 0.597129 -3.33395 0
M  V30 1831 C 167.771 -0.207937 -4.25993 0
M  V30 1832 S 168.604 -1.59158 -5.11301 0
M  V30 1833 C 169.76 -0.716791 -6.21782 0
M  V30 1834 H 169.993 -1.09383 -2.76446 0
M  V30 1835 H 167.526 -0.676828 -1.38775 0
M  V30 1836 H 169.484 1.09978 -3.95493 0
M  V30 1837 H 168.145 1.38099 -2.82113 0
M  V30 1838 H 167.338 0.464163 -5.01858 0
M  V30 1839 H 166.94 -0.642963 -3.68432 0
M  V30 1840 H 169.232 0.0692833 -6.77465 0
M  V30 1841 H 170.175 -1.44682 -6.93161 0
M  V30 1842 H 170.583 -0.280855 -5.63801 0
M  V30 1843 N 169.982 1.44106 -0.638065 0
M  V30 1844 C 171.231 2.01194 -0.142744 0
M  V30 1845 C 171.544 1.50835 1.24532 0
M  V30 1846 O 172.75 2.00096 1.83504 0
M  V30 1847 C 171.206 3.59319 -0.20442 0
M  V30 1848 C 170.814 4.18674 -1.59423 0
M  V30 1849 C 172.558 4.23854 0.234079 0
M  V30 1850 C 170.465 5.69045 -1.61065 0
M  V30 1851 H 169.395 0.752367 -0.0495998 0
M  V30 1852 H 172.046 1.65246 -0.797881 0
M  V30 1853 H 170.428 3.92598 0.517946 0
M  V30 1854 H 171.602 3.96921 -2.34074 0
M  V30 1855 H 169.917 3.66453 -1.97741 0
M  V30 1856 H 172.514 5.34155 0.241443 0
M  V30 1857 H 172.857 3.96688 1.2627 0
M  V30 1858 H 173.39 3.95403 -0.436025 0
M  V30 1859 H 170.129 6.00956 -2.61787 0
M  V30 1860 H 169.649 5.929 -0.90718 0
M  V30 1861 H 171.328 6.32809 -1.34766 0
M  V30 1862 N 171.46 0.379036 1.52974 0
M  V30 1863 C 172.69 -0.20649 2.05566 0
M  V30 1864 C 173.098 -1.41906 1.25137 0
M  V30 1865 O 172.441 -1.81421 0.288464 0
M  V30 1866 C 172.503 -0.651086 3.53555 0
M  V30 1867 C 172.167 0.446626 4.54812 0
M  V30 1868 C 173.164 1.30079 5.03364 0
M  V30 1869 C 170.849 0.610719 4.98573 0
M  V30 1870 C 172.843 2.30426 5.94292 0
M  V30 1871 C 170.53 1.61754 5.89304 0
M  V30 1872 C 171.528 2.46274 6.37054 0
M  V30 1873 O 171.216 3.45237 7.25994 0
M  V30 1874 H 170.948 -0.0372381 0.674974 0
M  V30 1875 H 173.502 0.539718 1.98182 0
M  V30 1876 H 171.732 -1.44911 3.58522 0
M  V30 1877 H 173.421 -1.16112 3.88938 0
M  V30 1878 H 174.187 1.18527 4.70294 0
M  V30 1879 H 170.066 -0.0374044 4.60985 0
M  V30 1880 H 173.61 2.96432 6.31485 0
M  V30 1881 H 169.507 1.73348 6.21788 0
M  V30 1882 H 170.275 3.41124 7.44027 0
M  V30 1883 N 172.938 -1.57226 0.108567 0
M  V30 1884 C 173.901 -2.13602 -0.831082 0
M  V30 1885 C 174.901 -1.06841 -1.20173 0
M  V30 1886 O 176.091 -1.32666 -1.12895 0
M  V30 1887 C 173.223 -2.66769 -2.12243 0
M  V30 1888 H 174.416 -2.97951 -0.341317 0
M  V30 1889 H 171.969 -1.55667 -0.14057 0
M  V30 1890 H 172.704 -1.85977 -2.65675 0
M  V30 1891 H 172.489 -3.44839 -1.86625 0
M  V30 1892 H 173.979 -3.10332 -2.79435 0
M  V30 1893 N 174.416 0.165178 -1.56732 0
M  V30 1894 C 175.641 0.900253 -1.86843 0
M  V30 1895 C 176.066 1.74766 -0.695596 0
M  V30 1896 O 175.424 1.77786 0.35522 0
M  V30 1897 C 175.472 1.74777 -3.15413 0
M  V30 1898 O 174.576 2.85007 -2.98068 0
M  V30 1899 H 173.917 0.251832 -0.614391 0
M  V30 1900 H 176.447 0.161468 -2.03962 0
M  V30 1901 H 176.457 2.14646 -3.46974 0
M  V30 1902 H 175.132 1.12537 -4.00385 0
M  V30 1903 H 173.709 2.48676 -2.77875 0
M  V30 1904 N 175.894 1.51508 0.433938 0
M  V30 1905 C 177.119 1.68443 1.21003 0
M  V30 1906 C 177.544 0.382636 1.84167 0
M  V30 1907 O 176.902 -0.65755 1.68956 0
M  V30 1908 C 176.95 2.80405 2.26727 0
M  V30 1909 O 176.054 2.44245 3.32292 0
M  V30 1910 H 175.395 0.561536 0.354363 0
M  V30 1911 H 177.925 1.9809 0.512024 0
M  V30 1912 H 177.935 3.0459 2.71457 0
M  V30 1913 H 176.61 3.74867 1.80132 0
M  V30 1914 H 175.187 2.30644 2.93015 0
M  V30 1915 N 177.372 -0.689602 1.41712 0
M  V30 1916 C 178.319 -1.80345 1.44029 0
M  V30 1917 C 179.289 -1.63478 0.293948 0
M  V30 1918 O 180.474 -1.84244 0.495869 0
M  V30 1919 C 177.614 -3.18272 1.33405 0
M  V30 1920 C 176.727 -3.46529 2.57956 0
M  V30 1921 C 175.862 -4.74103 2.39582 0
M  V30 1922 C 174.901 -4.95347 3.5958 0
M  V30 1923 N 174.038 -6.14151 3.40239 0
M  V30 1924 H 178.878 -1.77698 2.39222 0
M  V30 1925 H 176.415 -0.867688 1.18784 0
M  V30 1926 H 178.373 -3.97956 1.25246 0
M  V30 1927 H 177.003 -3.2008 0.418164 0
M  V30 1928 H 176.055 -2.61207 2.76542 0
M  V30 1929 H 177.367 -3.58126 3.47199 0
M  V30 1930 H 176.521 -5.61853 2.28924 0
M  V30 1931 H 175.26 -4.64763 1.47805 0
M  V30 1932 H 174.265 -4.06044 3.70686 0
M  V30 1933 H 175.49 -5.06542 4.52318 0
M  V30 1934 H 173.436 -6.06013 2.51167 0
M  V30 1935 H 173.353 -6.26543 4.23061 0
M  V30 1936 H 174.621 -7.04619 3.33365 0
M  V30 1937 N 178.85 -1.27639 -0.924453 0
M  V30 1938 C 180.127 -1.04887 -1.651 0
M  V30 1939 C 180.507 0.415327 -2.06974 0
M  V30 1940 O 179.855 1.39923 -1.80648 0
M  V30 1941 C 180.065 -2.01348 -2.85061 0
M  V30 1942 C 181.413 -2.30899 -3.56329 0
M  V30 1943 O 182.437 -1.99348 -2.95193 0
M  V30 1944 O 181.296 -2.84699 -4.66485 0
M  V30 1945 H 178.39 -0.400083 -0.723784 0
M  V30 1946 H 180.936 -1.38916 -0.974703 0
M  V30 1947 H 179.708 -3.0008 -2.51133 0
M  V30 1948 H 179.331 -1.679 -3.6041 0
M  V30 1949 N 180.328 1.1314 -1.09713 0
M  V30 1950 C 181.291 2.16831 -0.742751 0
M  V30 1951 C 182.291 1.59159 0.229129 0
M  V30 1952 O 183.481 1.74199 0.00693237 0
M  V30 1953 C 180.613 3.40756 -0.0989168 0
M  V30 1954 H 181.806 2.49695 -1.66109 0
M  V30 1955 H 179.359 1.2802 -0.896699 0
M  V30 1956 H 180.094 3.13485 0.830514 0
M  V30 1957 H 179.879 3.83888 -0.798265 0
M  V30 1958 H 181.369 4.17386 0.133524 0
M  V30 1959 N 181.806 0.884767 1.30421 0
M  V30 1960 C 183.055 0.499164 1.95426 0
M  V30 1961 C 183.368 -0.95645 1.70621 0
M  V30 1962 O 184.574 -1.44889 2.29607 0
M  V30 1963 C 183.03 0.84177 3.49917 0
M  V30 1964 C 182.638 2.31514 3.83543 0
M  V30 1965 C 184.382 0.525355 4.21237 0
M  V30 1966 C 182.289 2.59939 5.31212 0
M  V30 1967 H 181.219 0.182944 0.73147 0
M  V30 1968 H 183.87 1.07971 1.48373 0
M  V30 1969 H 182.252 0.190311 3.95542 0
M  V30 1970 H 183.426 3.0109 3.48829 0
M  V30 1971 H 181.741 2.59907 3.25326 0
M  V30 1972 H 184.338 0.714762 5.29901 0
M  V30 1973 H 184.681 -0.535222 4.12845 0
M  V30 1974 H 185.214 1.134 3.81294 0
M  V30 1975 H 181.953 3.64736 5.44654 0
M  V30 1976 H 181.473 1.94972 5.67227 0
M  V30 1977 H 183.152 2.45429 5.98643 0
M  V30 1978 N 183.284 -1.43765 0.645699 0
M  V30 1979 C 184.231 -2.30745 -0.0504648 0
M  V30 1980 C 185.201 -1.4432 -0.822241 0
M  V30 1981 O 186.386 -1.73202 -0.800358 0
M  V30 1982 C 183.526 -3.29802 -1.0161 0
M  V30 1983 C 182.639 -4.31326 -0.241219 0
M  V30 1984 C 181.774 -5.17469 -1.19998 0
M  V30 1985 C 180.813 -6.10691 -0.415094 0
M  V30 1986 N 179.95 -6.89483 -1.32506 0
M  V30 1987 H 184.79 -2.8973 0.697155 0
M  V30 1988 H 182.327 -1.42738 0.355563 0
M  V30 1989 H 184.285 -3.85734 -1.58949 0
M  V30 1990 H 182.915 -2.72483 -1.73069 0
M  V30 1991 H 181.967 -3.77749 0.448334 0
M  V30 1992 H 183.279 -4.9743 0.369437 0
M  V30 1993 H 182.433 -5.7799 -1.84424 0
M  V30 1994 H 181.172 -4.51473 -1.84455 0
M  V30 1995 H 180.177 -5.49265 0.242565 0
M  V30 1996 H 181.402 -6.78727 0.224966 0
M  V30 1997 H 179.348 -6.26142 -1.95657 0
M  V30 1998 H 179.265 -7.52081 -0.768783 0
M  V30 1999 H 180.533 -7.54516 -1.9577 0
M  V30 2000 N 184.763 -0.387143 -1.52771 0
M  V30 2001 C 185.71 0.449048 -2.26389 0
M  V30 2002 C 186.68 1.05961 -1.27912 0
M  V30 2003 O 187.865 1.08804 -1.56737 0
M  V30 2004 C 185.005 1.57155 -3.0724 0
M  V30 2005 C 184.118 0.984066 -4.20643 0
M  V30 2006 C 183.253 2.07745 -4.88892 0
M  V30 2007 C 182.292 1.46574 -5.94292 0
M  V30 2008 N 181.429 2.49834 -6.56146 0
M  V30 2009 H 186.269 -0.185205 -2.97424 0
M  V30 2010 H 183.806 -0.103164 -1.46738 0
M  V30 2011 H 185.764 2.23309 -3.52405 0
M  V30 2012 H 184.394 2.17615 -2.38419 0
M  V30 2013 H 183.446 0.212193 -3.79808 0
M  V30 2014 H 184.758 0.497029 -4.96318 0
M  V30 2015 H 183.912 2.81673 -5.3735 0
M  V30 2016 H 182.651 2.59807 -4.12737 0
M  V30 2017 H 181.656 0.711696 -5.45174 0
M  V30 2018 H 182.881 0.953088 -6.72379 0
M  V30 2019 H 180.827 3.0107 -5.82832 0
M  V30 2020 H 180.744 2.05879 -7.27427 0
M  V30 2021 H 182.012 3.23399 -7.09249 0
M  V30 2022 N 186.241 1.57166 -0.116904 0
M  V30 2023 C 187.188 2.15202 0.83408 0
M  V30 2024 C 188.158 1.07644 1.26499 0
M  V30 2025 O 189.343 1.35541 1.34288 0
M  V30 2026 C 186.483 2.75405 2.07957 0
M  V30 2027 C 185.596 3.97264 1.69721 0
M  V30 2028 C 184.731 4.45561 2.89221 0
M  V30 2029 C 183.77 5.59956 2.47215 0
M  V30 2030 N 182.907 6.03006 3.59622 0
M  V30 2031 H 187.747 2.96141 0.332335 0
M  V30 2032 H 185.284 1.46309 0.152349 0
M  V30 2033 H 187.242 3.08439 2.80929 0
M  V30 2034 H 185.872 1.97159 2.55594 0
M  V30 2035 H 184.924 3.70404 0.866316 0
M  V30 2036 H 186.236 4.80226 1.34849 0
M  V30 2037 H 185.39 4.80493 3.7042 0
M  V30 2038 H 184.129 3.61544 3.27318 0
M  V30 2039 H 183.134 5.2463 1.64448 0
M  V30 2040 H 184.359 6.45738 2.10238 0
M  V30 2041 H 182.305 5.21931 3.97396 0
M  V30 2042 H 182.222 6.80819 3.28667 0
M  V30 2043 H 183.49 6.42576 4.41267 0
M  V30 2044 N 187.719 -0.156864 1.56817 0
M  V30 2045 C 188.649 -1.19589 2.00551 0
M  V30 2046 C 189.63 -1.4536 0.883426 0
M  V30 2047 O 190.815 -1.56449 1.15054 0
M  V30 2048 C 187.945 -2.53143 2.37773 0
M  V30 2049 C 186.899 -2.41913 3.53075 0
M  V30 2050 C 186.225 -3.80088 3.76081 0
M  V30 2051 C 187.525 -1.91157 4.86062 0
M  V30 2052 H 189.219 -0.832293 2.87599 0
M  V30 2053 H 186.765 -0.398918 1.38364 0
M  V30 2054 H 188.718 -3.26047 2.66967 0
M  V30 2055 H 187.442 -2.91319 1.4765 0
M  V30 2056 H 186.101 -1.71462 3.24031 0
M  V30 2057 H 185.749 -4.15683 2.83225 0
M  V30 2058 H 185.449 -3.73439 4.53671 0
M  V30 2059 H 186.973 -4.54556 4.0769 0
M  V30 2060 H 188.387 -2.53846 5.14038 0
M  V30 2061 H 186.784 -1.95422 5.67389 0
M  V30 2062 H 187.854 -0.866673 4.77092 0
M  V30 2063 N 189.197 -1.51736 -0.425897 0
M  V30 2064 C 190.425 -1.68794 -1.1965 0
M  V30 2065 C 190.84 -0.390164 -1.84725 0
M  V30 2066 O 190.197 0.632376 -1.71194 0
M  V30 2067 C 190.248 -2.81174 -2.27208 0
M  V30 2068 O 189.969 -4.05925 -1.64793 0
M  V30 2069 C 191.47 -3.09599 -3.17275 0
M  V30 2070 H 188.69 -0.566128 -0.360194 0
M  V30 2071 H 191.234 -1.98211 -0.503249 0
M  V30 2072 H 189.389 -2.54324 -2.9223 0
M  V30 2073 H 189.803 -4.68423 -2.35967 0
M  V30 2074 H 191.277 -3.91786 -3.88854 0
M  V30 2075 H 191.754 -2.22468 -3.78688 0
M  V30 2076 H 192.36 -3.38151 -2.57941 0
M  V30 2077 N 190.675 0.682077 -1.42076 0
M  V30 2078 C 191.923 1.4393 -1.41876 0
M  V30 2079 C 192.244 1.94971 -0.0335599 0
M  V30 2080 O 191.514 1.72591 0.926773 0
M  V30 2081 H 190.094 0.534085 -0.522267 0
M  V30 2082 H 192.756 0.806427 -1.77434 0
M  V30 2083 H 191.852 2.29588 -2.11414 0
M  V30 2084 N 192.153 1.28127 0.917671 0
M  V30 2085 C 193.402 1.14432 1.66097 0
M  V30 2086 C 193.715 -0.307247 1.93172 0
M  V30 2087 O 194.921 -0.565259 2.65551 0
M  V30 2088 C 193.377 2.00015 2.99202 0
M  V30 2089 C 192.985 3.49889 2.79789 0
M  V30 2090 C 194.729 1.94996 3.77064 0
M  V30 2091 C 192.636 4.27636 4.08511 0
M  V30 2092 H 191.566 0.424662 0.62304 0
M  V30 2093 H 194.217 1.52628 1.01868 0
M  V30 2094 H 192.599 1.54672 3.64544 0
M  V30 2095 H 193.773 4.03162 2.23152 0
M  V30 2096 H 192.088 3.56392 2.15345 0
M  V30 2097 H 194.685 2.50354 4.72469 0
M  V30 2098 H 195.028 0.925819 4.05875 0
M  V30 2099 H 195.561 2.38287 3.18534 0
M  V30 2100 H 192.3 5.30615 3.84874 0
M  V30 2101 H 191.82 3.79137 4.64774 0
M  V30 2102 H 193.499 4.37346 4.76799 0
M  V30 2103 N 193.631 -1.12557 1.10312 0
M  V30 2104 C 194.578 -2.18247 0.750781 0
M  V30 2105 C 195.548 -1.63853 -0.272293 0
M  V30 2106 O 196.733 -1.90195 -0.151862 0
M  V30 2107 C 193.873 -3.44591 0.187379 0
M  V30 2108 C 192.986 -4.13046 1.2656 0
M  V30 2109 C 192.121 -5.27034 0.663978 0
M  V30 2110 C 191.16 -5.87353 1.72287 0
M  V30 2111 N 190.297 -6.92757 1.1416 0
M  V30 2112 H 195.137 -2.47732 1.65628 0
M  V30 2113 H 192.674 -1.21629 0.827337 0
M  V30 2114 H 194.632 -4.16904 -0.157148 0
M  V30 2115 H 193.262 -3.15527 -0.681355 0
M  V30 2116 H 192.314 -3.38924 1.72727 0
M  V30 2117 H 193.626 -4.53947 2.06721 0
M  V30 2118 H 192.78 -6.06104 0.268824 0
M  V30 2119 H 191.519 -4.87407 -0.169082 0
M  V30 2120 H 190.524 -5.06971 2.12746 0
M  V30 2121 H 191.749 -6.29051 2.55875 0
M  V30 2122 H 189.695 -6.5517 0.329984 0
M  V30 2123 H 189.612 -7.3225 1.88007 0
M  V30 2124 H 190.88 -7.75658 0.772956 0
M  V30 2125 N 195.109 -0.891671 -1.2995 0
M  V30 2126 C 196.059 -0.334811 -2.25528 0
M  V30 2127 C 197.043 0.540553 -1.51548 0
M  V30 2128 O 198.235 0.383882 -1.72787 0
M  V30 2129 C 195.364 0.44374 -3.4042 0
M  V30 2130 C 194.45 -0.44609 -4.21747 0
M  V30 2131 N 194.841 -1.54963 -4.81477 0
M  V30 2132 C 193.139 -0.242415 -4.45341 0
M  V30 2133 C 193.84 -2.10015 -5.42465 0
M  V30 2134 N 192.816 -1.39423 -5.25416 0
M  V30 2135 H 196.618 -1.17792 -2.69262 0
M  V30 2136 H 194.132 -0.741822 -1.44467 0
M  V30 2137 H 196.129 0.859362 -4.07947 0
M  V30 2138 H 194.789 1.28421 -2.98225 0
M  V30 2139 H 195.8 -1.93244 -4.80497 0
M  V30 2140 H 192.477 0.560342 -4.13723 0
M  V30 2141 H 193.867 -3.02724 -5.9984 0
M  V30 2142 N 196.587 1.43421 -0.653314 0
M  V30 2143 C 197.497 2.34568 0.0388565 0
M  V30 2144 C 198.513 1.53888 0.81207 0
M  V30 2145 O 199.689 1.86539 0.759294 0
M  V30 2146 C 196.754 3.32167 0.993269 0
M  V30 2147 C 195.815 4.28751 0.216977 0
M  V30 2148 C 195.048 5.21688 1.12593 0
M  V30 2149 O 195.271 5.19052 2.36519 0
M  V30 2150 O 194.205 5.98919 0.598284 0
M  V30 2151 H 198.031 2.95251 -0.711386 0
M  V30 2152 H 195.616 1.43564 -0.413502 0
M  V30 2153 H 197.498 3.92183 1.54176 0
M  V30 2154 H 196.173 2.73987 1.72374 0
M  V30 2155 H 195.08 3.72215 -0.375101 0
M  V30 2156 H 196.413 4.89913 -0.473924 0
M  V30 2157 N 198.065 0.39524 1.52563 0
M  V30 2158 C 198.995 -0.428384 2.29537 0
M  V30 2159 C 199.976 -1.05831 1.33169 0
M  V30 2160 O 201.161 -1.06995 1.62067 0
M  V30 2161 C 198.291 -1.55274 3.10656 0
M  V30 2162 C 197.245 -1.04855 4.14957 0
M  V30 2163 C 196.571 -2.26543 4.84337 0
M  V30 2164 C 197.871 -0.112324 5.22179 0
M  V30 2165 H 199.565 0.213867 2.98635 0
M  V30 2166 H 197.111 0.104298 1.43622 0
M  V30 2167 H 199.064 -2.1358 3.63265 0
M  V30 2168 H 197.788 -2.22266 2.39302 0
M  V30 2169 H 196.447 -0.487985 3.63338 0
M  V30 2170 H 196.095 -2.92059 4.09525 0
M  V30 2171 H 195.795 -1.93466 5.54837 0
M  V30 2172 H 197.319 -2.85481 5.39753 0
M  V30 2173 H 198.733 -0.603752 5.70112 0
M  V30 2174 H 197.13 0.128968 5.99961 0
M  V30 2175 H 198.2 0.837052 4.77621 0
M  V30 2176 N 199.544 -1.57102 0.125237 0
M  V30 2177 C 200.476 -2.12726 -0.853237 0
M  V30 2178 C 201.489 -1.07145 -1.22571 0
M  V30 2179 O 202.678 -1.34497 -1.17358 0
M  V30 2180 C 199.778 -2.61709 -2.15317 0
M  V30 2181 C 198.951 -3.91456 -1.95143 0
M  V30 2182 C 198.01 -4.25973 -3.08923 0
M  V30 2183 O 197.036 -4.94682 -2.81564 0
M  V30 2184 N 198.238 -3.83795 -4.35524 0
M  V30 2185 H 201.003 -2.97307 -0.377964 0
M  V30 2186 H 198.564 -1.61792 -0.0590011 0
M  V30 2187 H 200.556 -2.81826 -2.90441 0
M  V30 2188 H 199.126 -1.81974 -2.54174 0
M  V30 2189 H 198.346 -3.80185 -1.04177 0
M  V30 2190 H 199.634 -4.76283 -1.78976 0
M  V30 2191 H 199.032 -3.2839 -4.60626 0
M  V30 2192 H 197.589 -4.09008 -5.07499 0
M  V30 2193 N 201.022 0.148545 -1.56898 0
M  V30 2194 C 201.985 1.16736 -1.97244 0
M  V30 2195 C 202.985 1.35947 -0.858777 0
M  V30 2196 O 204.175 1.32966 -1.12542 0
M  V30 2197 C 201.307 2.52798 -2.28705 0
M  V30 2198 H 202.5 0.821279 -2.88435 0
M  V30 2199 H 200.053 0.391831 -1.51309 0
M  V30 2200 H 200.788 2.92381 -1.403 0
M  V30 2201 H 200.573 2.40216 -3.09901 0
M  V30 2202 H 202.063 3.26179 -2.60762 0
M  V30 2203 N 202.5 1.5196 0.417844 0
M  V30 2204 C 203.448 1.75278 1.52907 0
M  V30 2205 C 204.442 0.619611 1.57662 0
M  V30 2206 O 205.648 0.801457 1.61173 0
M  V30 2207 H 202.023 0.554141 0.508362 0
M  V30 2208 H 203.994 2.68389 1.30422 0
M  V30 2209 C 202.743 1.91262 2.90369 0
M  V30 2210 H 202.066 2.77872 2.8745 0
M  V30 2211 H 203.506 2.11581 3.67436 0
M  V30 2212 C 201.965 0.677431 3.30019 0
M  V30 2213 O 202.495 -0.158799 4.01386 0
M  V30 2214 N 200.701 0.515851 2.85985 0
M  V30 2215 H 200.248 1.19744 2.28077 0
M  V30 2216 H 200.206 -0.309315 3.12875 0
M  V30 2217 N 203.978 -0.674533 1.42435 0
M  V30 2218 C 205.218 -1.4466 1.44405 0
M  V30 2219 C 205.582 -1.91911 0.0585784 0
M  V30 2220 O 206.783 -2.68759 -0.0469991 0
M  V30 2221 C 205.054 -2.61136 2.44013 0
M  V30 2222 S 206.613 -3.49981 2.64687 0
M  V30 2223 H 203.431 -0.494074 0.511284 0
M  V30 2224 H 206.033 -0.785162 1.7904 0
M  V30 2225 H 204.737 -2.24662 3.43446 0
M  V30 2226 H 204.268 -3.32153 2.10803 0
M  V30 2227 H 206.283 -4.57124 1.93007 0
M  V30 2228 N 205.456 -1.28612 -0.910864 0
M  V30 2229 C 206.686 -1.1862 -1.69153 0
M  V30 2230 C 207.094 0.257324 -1.87442 0
M  V30 2231 O 206.437 1.18543 -1.40332 0
M  V30 2232 C 206.499 -1.81606 -3.10257 0
M  V30 2233 C 206.163 -3.30864 -3.15243 0
M  V30 2234 C 207.16 -4.27256 -2.96223 0
M  V30 2235 C 204.845 -3.71871 -3.37664 0
M  V30 2236 C 206.839 -5.62631 -2.99541 0
M  V30 2237 C 204.526 -5.07371 -3.40614 0
M  V30 2238 C 205.524 -6.02561 -3.21573 0
M  V30 2239 O 205.212 -7.35589 -3.2429 0
M  V30 2240 H 204.944 -0.412633 -0.535453 0
M  V30 2241 H 207.498 -1.70306 -1.14827 0
M  V30 2242 H 205.728 -1.24418 -3.66138 0
M  V30 2243 H 207.417 -1.66092 -3.70362 0
M  V30 2244 H 208.183 -3.9691 -2.78725 0
M  V30 2245 H 204.062 -2.98241 -3.5153 0
M  V30 2246 H 207.606 -6.36907 -2.84597 0
M  V30 2247 H 203.503 -5.37366 -3.57642 0
M  V30 2248 H 204.271 -7.44252 -3.40633 0
M  V30 2249 N 206.934 1.1197 -1.10907 0
M  V30 2250 C 207.844 2.21433 -0.774896 0
M  V30 2251 C 208.86 1.72478 0.229657 0
M  V30 2252 O 210.036 2.01288 0.0672008 0
M  V30 2253 C 207.101 3.4602 -0.216986 0
M  V30 2254 C 206.162 4.09791 -1.27944 0
M  V30 2255 C 205.395 5.28431 -0.748055 0
M  V30 2256 O 205.618 5.68823 0.423833 0
M  V30 2257 O 204.552 5.82644 -1.51027 0
M  V30 2258 H 208.378 2.5242 -1.68873 0
M  V30 2259 H 205.963 1.20399 -0.884555 0
M  V30 2260 H 207.845 4.21304 0.090059 0
M  V30 2261 H 206.52 3.16698 0.669633 0
M  V30 2262 H 205.427 3.36265 -1.63941 0
M  V30 2263 H 206.76 4.4328 -2.13925 0
M  V30 2264 N 208.412 0.89855 1.29475 0
M  V30 2265 C 209.322 0.379974 2.31502 0
M  V30 2266 C 210.338 -0.524695 1.659 0
M  V30 2267 O 211.514 -0.414551 1.97087 0
M  V30 2268 C 208.579 -0.385138 3.44554 0
M  V30 2269 C 207.64 0.550914 4.2575 0
M  V30 2270 C 206.873 -0.177778 5.33404 0
M  V30 2271 O 207.096 -1.40189 5.52904 0
M  V30 2272 O 206.03 0.479106 5.9999 0
M  V30 2273 H 209.856 1.22639 2.77837 0
M  V30 2274 H 207.441 0.662834 1.33891 0
M  V30 2275 H 209.323 -0.817841 4.13388 0
M  V30 2276 H 207.998 -1.20763 3.0033 0
M  V30 2277 H 206.905 1.03271 3.59564 0
M  V30 2278 H 208.238 1.33979 4.73614 0
M  V30 2279 N 209.89 -1.43072 0.660911 0
M  V30 2280 C 211.136 -2.0202 0.177708 0
M  V30 2281 C 211.469 -1.52066 -1.20787 0
M  V30 2282 O 210.744 -0.716987 -1.80802 0
M  V30 2283 C 211.027 -3.59561 0.197019 0
M  V30 2284 C 210.88 -4.19727 1.61706 0
M  V30 2285 C 212.199 -4.37664 -0.462396 0
M  V30 2286 H 209.318 -0.734034 0.0660494 0
M  V30 2287 H 211.96 -1.70272 0.843058 0
M  V30 2288 H 210.11 -3.86739 -0.369527 0
M  V30 2289 H 211.782 -4.03553 2.23479 0
M  V30 2290 H 210.025 -3.76084 2.16201 0
M  V30 2291 H 210.696 -5.28834 1.58237 0
M  V30 2292 H 213.172 -4.16095 0.0197215 0
M  V30 2293 H 212.048 -5.47305 -0.418188 0
M  V30 2294 H 212.309 -4.14493 -1.53778 0
M  V30 2295 N 211.368 -0.403325 -1.52352 0
M  V30 2296 C 212.315 0.425011 -2.26853 0
M  V30 2297 C 213.285 1.04598 -1.29029 0
M  V30 2298 O 214.47 1.07135 -1.57882 0
M  V30 2299 C 211.61 1.53888 -3.08889 0
M  V30 2300 C 210.723 0.939396 -4.21663 0
M  V30 2301 C 209.858 2.02547 -4.91068 0
M  V30 2302 C 208.897 1.40263 -5.95813 0
M  V30 2303 N 208.034 2.4286 -6.58759 0
M  V30 2304 H 212.874 -0.21674 -2.97211 0
M  V30 2305 H 210.411 -0.118722 -1.4662 0
M  V30 2306 H 212.369 2.19558 -3.54753 0
M  V30 2307 H 210.999 2.15074 -2.40714 0
M  V30 2308 H 210.051 0.171898 -3.80011 0
M  V30 2309 H 211.363 0.44436 -4.96817 0
M  V30 2310 H 210.517 2.75958 -5.40308 0
M  V30 2311 H 209.256 2.55415 -4.15469 0
M  V30 2312 H 208.261 0.653833 -5.45898 0
M  V30 2313 H 209.486 0.881719 -6.73352 0
M  V30 2314 H 207.432 2.94871 -5.85992 0
M  V30 2315 H 207.349 1.98152 -7.2957 0
M  V30 2316 H 208.617 3.15858 -7.12639 0
M  V30 2317 N 212.846 1.57033 -0.133567 0
M  V30 2318 C 214.123 1.87256 0.56522 0
M  V30 2319 C 214.503 1.03726 1.83859 0
M  V30 2320 O 213.851 0.120247 2.28183 0
M  V30 2321 C 214.061 3.3865 0.843636 0
M  V30 2322 C 215.409 4.07574 1.19032 0
M  V30 2323 O 216.433 3.43752 0.933429 0
M  V30 2324 O 215.292 5.20259 1.67312 0
M  V30 2325 H 212.386 0.775678 0.286796 0
M  V30 2326 H 214.932 1.68855 -0.169168 0
M  V30 2327 H 213.704 3.91257 -0.0581149 0
M  V30 2328 H 213.327 3.62532 1.63268 0
M  V30 2329 N 214.325 -0.140222 1.56975 0
M  V30 2330 C 215.741 -0.493088 1.51792 0
M  V30 2331 C 215.941 -1.83013 0.843116 0
M  V30 2332 O 214.997 -2.49041 0.416493 0
M  V30 2333 C 216.31 -0.497144 2.96562 0
M  V30 2334 C 217.858 -0.582186 3.07538 0
M  V30 2335 C 218.333 -0.616838 4.53827 0
M  V30 2336 N 219.824 -0.678873 4.58198 0
M  V30 2337 C 220.559 -0.726782 5.68775 0
M  V30 2338 N 220.055 -0.733623 6.88905 0
M  V30 2339 N 221.848 -0.768179 5.56826 0
M  V30 2340 H 213.999 0.736108 1.99237 0
M  V30 2341 H 216.262 0.269182 0.90898 0
M  V30 2342 H 215.968 0.417217 3.49217 0
M  V30 2343 H 215.842 -1.33263 3.52875 0
M  V30 2344 H 218.229 -1.48697 2.54899 0
M  V30 2345 H 218.31 0.280581 2.54257 0
M  V30 2346 H 217.954 0.283812 5.07106 0
M  V30 2347 H 217.884 -1.49619 5.04898 0
M  V30 2348 H 220.375 -0.68061 3.7172 0
M  V30 2349 H 220.688 -0.772215 7.68932 0
M  V30 2350 H 219.033 -0.701389 6.91452 0
M  V30 2351 H 222.224 -0.760051 4.61888 0
M  V30 2352 H 222.397 -0.80205 6.43017 0
M  V30 2353 N 215.803 -1.52179 -0.40978 0
M  V30 2354 C 217.043 -1.67882 -1.16597 0
M  V30 2355 C 217.407 -0.399795 -1.87791 0
M  V30 2356 O 218.608 -0.43292 -2.65291 0
M  V30 2357 C 216.879 -2.86662 -2.13448 0
M  V30 2358 S 218.438 -3.22843 -2.97183 0
M  V30 2359 H 215.256 -0.59118 -0.395002 0
M  V30 2360 H 217.858 -1.9017 -0.453373 0
M  V30 2361 H 216.562 -3.77998 -1.59831 0
M  V30 2362 H 216.093 -2.66645 -2.89247 0
M  V30 2363 H 218.108 -2.71415 -4.15389 0
M  V30 2364 N 217.281 0.66697 -1.42791 0
M  V30 2365 C 218.509 1.45505 -1.47091 0
M  V30 2366 C 218.924 1.8861 -0.0845873 0
M  V30 2367 O 218.281 1.58632 0.90234 0
M  V30 2368 C 218.332 2.69906 -2.40485 0
M  V30 2369 O 218.053 2.28608 -3.73725 0
M  V30 2370 C 219.554 3.63396 -2.53886 0
M  V30 2371 H 216.774 0.447459 -0.500022 0
M  V30 2372 H 219.318 0.818866 -1.8739 0
M  V30 2373 H 217.473 3.29696 -2.03419 0
M  V30 2374 H 217.887 3.08997 -4.23817 0
M  V30 2375 H 219.361 4.47387 -3.2334 0
M  V30 2376 H 219.838 4.09824 -1.57927 0
M  V30 2377 H 220.444 3.09495 -2.91706 0
M  V30 2378 N 218.759 1.29093 0.90403 0
M  V30 2379 C 219.689 1.16401 2.02418 0
M  V30 2380 C 220.67 0.0593085 1.69997 0
M  V30 2381 O 221.855 0.238021 1.92736 0
M  V30 2382 C 218.985 0.835233 3.37107 0
M  V30 2383 C 217.939 1.89578 3.83724 0
M  V30 2384 C 217.265 1.42041 5.15489 0
M  V30 2385 C 218.565 3.30394 4.04521 0
M  V30 2386 H 220.259 2.10109 2.13295 0
M  V30 2387 H 217.805 1.01157 1.02486 0
M  V30 2388 H 219.758 0.733169 4.14973 0
M  V30 2389 H 218.482 -0.137543 3.2631 0
M  V30 2390 H 217.141 1.98715 3.08071 0
M  V30 2391 H 216.789 0.436426 5.01103 0
M  V30 2392 H 216.489 2.12964 5.4765 0
M  V30 2393 H 218.013 1.33176 5.959 0
M  V30 2394 H 219.427 3.24123 4.72882 0
M  V30 2395 H 217.824 3.99237 4.48029 0
M  V30 2396 H 218.894 3.73692 3.09002 0
M  V30 2397 N 220.237 -1.11381 1.11499 0
M  V30 2398 C 221.2 -2.15622 0.777153 0
M  V30 2399 C 222.2 -1.59504 -0.203779 0
M  V30 2400 O 223.39 -1.74188 0.020782 0
M  V30 2401 C 220.522 -3.40556 0.153116 0
M  V30 2402 H 221.715 -2.47021 1.70061 0
M  V30 2403 H 219.268 -1.26577 0.916952 0
M  V30 2404 H 220.003 -3.14767 -0.780536 0
M  V30 2405 H 219.788 -3.8257 0.859238 0
M  V30 2406 H 221.278 -4.17546 -0.0671044 0
M  V30 2407 N 221.715 -0.905404 -1.28997 0
M  V30 2408 C 222.625 -0.392246 -2.31298 0
M  V30 2409 C 223.641 0.515889 -1.66176 0
M  V30 2410 O 224.817 0.404093 -1.97304 0
M  V30 2411 C 221.882 0.36686 -3.44754 0
M  V30 2412 C 220.943 -0.573485 -4.25452 0
M  V30 2413 C 220.176 0.149488 -5.33491 0
M  V30 2414 O 220.399 1.37255 -5.5364 0
M  V30 2415 O 219.333 -0.510919 -5.99728 0
M  V30 2416 H 223.159 -1.2411 -2.77183 0
M  V30 2417 H 220.744 -0.669926 -1.33538 0
M  V30 2418 H 222.626 0.795907 -4.13816 0
M  V30 2419 H 221.301 1.19169 -3.00966 0
M  V30 2420 H 220.208 -1.05176 -3.59011 0
M  V30 2421 H 221.541 -1.36489 -4.72897 0
M  V30 2422 N 223.193 1.4272 -0.668489 0
M  V30 2423 C 224.14 2.30796 0.0137489 0
M  V30 2424 C 225.11 1.4561 0.799177 0
M  V30 2425 O 226.295 1.74453 0.772702 0
M  V30 2426 C 223.435 3.31377 0.963507 0
M  V30 2427 C 222.548 4.31655 0.172569 0
M  V30 2428 C 221.683 5.19312 1.1175 0
M  V30 2429 C 220.722 6.11274 0.317886 0
M  V30 2430 N 219.859 6.91504 1.2152 0
M  V30 2431 H 224.699 2.88585 -0.743161 0
M  V30 2432 H 222.236 1.42154 -0.378226 0
M  V30 2433 H 224.194 3.88214 1.52792 0
M  V30 2434 H 222.824 2.75202 1.68712 0
M  V30 2435 H 221.876 3.76988 -0.508374 0
M  V30 2436 H 223.188 4.96779 -0.448527 0
M  V30 2437 H 222.342 5.80851 1.75206 0
M  V30 2438 H 221.081 4.5435 1.77249 0
M  V30 2439 H 220.086 5.48809 -0.329918 0
M  V30 2440 H 221.311 6.78283 -0.332917 0
M  V30 2441 H 219.257 6.29176 1.85671 0
M  V30 2442 H 219.174 7.53209 0.649036 0
M  V30 2443 H 220.442 7.57535 1.83742 0
M  V30 2444 N 224.671 0.411399 1.52136 0
M  V30 2445 C 225.601 -0.404015 2.29978 0
M  V30 2446 C 226.582 -1.04412 1.34284 0
M  V30 2447 O 227.767 -1.0527 1.63192 0
M  V30 2448 C 224.897 -1.5197 3.12286 0
M  V30 2449 C 223.851 -1.00448 4.16046 0
M  V30 2450 C 223.177 -2.21393 4.86712 0
M  V30 2451 C 224.477 -0.0569336 5.22269 0
M  V30 2452 H 226.171 0.245529 2.98392 0
M  V30 2453 H 223.717 0.119525 1.43503 0
M  V30 2454 H 225.67 -2.09715 3.6551 0
M  V30 2455 H 224.394 -2.19716 2.41646 0
M  V30 2456 H 223.053 -0.449421 3.63835 0
M  V30 2457 H 222.701 -2.87699 4.12599 0
M  V30 2458 H 222.401 -1.87571 5.56858 0
M  V30 2459 H 223.925 -2.7974 5.4275 0
M  V30 2460 H 225.339 -0.54325 5.7072 0
M  V30 2461 H 223.736 0.192594 5.99791 0
M  V30 2462 H 224.806 0.887663 4.76706 0
M  V30 2463 N 226.149 -1.5696 0.141893 0
M  V30 2464 C 227.397 -1.95573 -0.509484 0
M  V30 2465 C 227.718 -1.02746 -1.65736 0
M  V30 2466 O 226.988 -0.0880311 -1.95702 0
M  V30 2467 H 225.568 -0.722115 -0.191205 0
M  V30 2468 H 228.23 -1.93697 0.216196 0
M  V30 2469 H 227.326 -2.99171 -0.889 0
M  V30 2470 N 227.627 0.131896 -1.57047 0
M  V30 2471 C 228.875 0.840269 -1.83804 0
M  V30 2472 C 229.196 1.81017 -0.72512 0
M  V30 2473 O 228.466 1.94272 0.251995 0
M  V30 2474 H 227.046 0.313294 -0.678127 0
M  V30 2475 H 229.708 0.122294 -1.94516 0
M  V30 2476 H 228.804 1.39335 -2.79271 0
M  V30 2477 N 229.106 1.52395 0.401703 0
M  V30 2478 C 230.331 1.70972 1.17403 0
M  V30 2479 C 230.756 0.421615 1.83314 0
M  V30 2480 O 230.114 -0.621564 1.70312 0
M  V30 2481 C 230.162 2.85151 2.20728 0
M  V30 2482 O 229.266 2.51238 3.27037 0
M  V30 2483 H 228.607 0.568927 0.342372 0
M  V30 2484 H 231.137 1.99131 0.469891 0
M  V30 2485 H 231.147 3.10279 2.64936 0
M  V30 2486 H 229.822 3.78603 1.7214 0
M  V30 2487 H 228.399 2.36808 2.88057 0
M  V30 2488 N 230.584 -0.659388 1.43143 0
M  V30 2489 C 231.547 -1.75432 1.47501 0
M  V30 2490 C 232.547 -1.56707 0.360512 0
M  V30 2491 O 233.737 -1.62717 0.622002 0
M  V30 2492 C 230.869 -3.14239 1.32162 0
M  V30 2493 H 232.062 -1.7295 2.45006 0
M  V30 2494 H 229.615 -0.870469 1.29817 0
M  V30 2495 H 230.35 -3.22336 0.356401 0
M  V30 2496 H 230.135 -3.29235 2.12948 0
M  V30 2497 H 231.625 -3.94094 1.3813 0
M  V30 2498 N 232.062 -1.29571 -0.897171 0
M  V30 2499 C 233.308 -1.17863 -1.65034 0
M  V30 2500 C 233.641 0.268729 -1.92332 0
M  V30 2501 O 232.916 1.19378 -1.53555 0
M  V30 2502 C 233.199 -1.995 -2.99786 0
M  V30 2503 C 233.052 -3.5239 -2.79538 0
M  V30 2504 C 234.371 -1.82335 -4.00552 0
M  V30 2505 H 231.49 -0.429528 -0.598895 0
M  V30 2506 H 234.132 -1.59072 -1.03905 0
M  V30 2507 H 232.282 -1.64485 -3.51962 0
M  V30 2508 H 233.954 -3.97401 -2.34244 0
M  V30 2509 H 232.197 -3.77187 -2.14273 0
M  V30 2510 H 232.868 -4.04787 -3.75302 0
M  V30 2511 H 235.344 -2.12924 -3.57495 0
M  V30 2512 H 234.22 -2.41801 -4.92771 0
M  V30 2513 H 234.481 -0.779209 -4.35179 0
M  V30 2514 N 233.54 1.10788 -1.12088 0
M  V30 2515 C 234.789 1.82036 -0.868659 0
M  V30 2516 C 235.102 1.85929 0.607426 0
M  V30 2517 O 236.308 2.53346 0.97613 0
M  V30 2518 C 234.764 3.26951 -1.50435 0
M  V30 2519 C 234.372 3.31367 -3.01496 0
M  V30 2520 C 236.116 4.03053 -1.33225 0
M  V30 2521 C 234.023 4.7072 -3.58017 0
M  V30 2522 H 232.953 0.682108 -0.321318 0
M  V30 2523 H 235.604 1.24618 -1.34694 0
M  V30 2524 H 233.986 3.84343 -0.953735 0
M  V30 2525 H 235.16 2.83819 -3.6302 0
M  V30 2526 H 233.475 2.6875 -3.18061 0
M  V30 2527 H 236.072 5.05981 -1.72878 0
M  V30 2528 H 236.415 4.15387 -0.275529 0
M  V30 2529 H 236.948 3.52066 -1.85188 0
M  V30 2530 H 233.687 4.63585 -4.63432 0
M  V30 2531 H 233.207 5.1865 -3.01268 0
M  V30 2532 H 234.886 5.39685 -3.56859 0
M  V30 2533 N 235.018 0.912232 1.28515 0
M  V30 2534 C 236.243 0.559774 1.99703 0
M  V30 2535 C 236.668 -0.851393 1.67729 0
M  V30 2536 O 236.026 -1.56875 0.908834 0
M  V30 2537 C 236.074 0.773874 3.52198 0
M  V30 2538 O 235.178 -0.167842 4.12058 0
M  V30 2539 H 234.519 0.21723 0.627461 0
M  V30 2540 H 237.049 1.22725 1.63706 0
M  V30 2541 H 237.059 0.683386 4.02236 0
M  V30 2542 H 235.734 1.80261 3.74805 0
M  V30 2543 H 234.311 -0.0287509 3.72889 0
M  V30 2544 N 236.496 -1.42363 0.676048 0
M  V30 2545 C 237.426 -2.33497 0.0124832 0
M  V30 2546 C 238.407 -1.50748 -0.787981 0
M  V30 2547 O 239.592 -1.79346 -0.744884 0
M  V30 2548 C 236.722 -3.34377 -0.938582 0
M  V30 2549 C 235.676 -4.27289 -0.246622 0
M  V30 2550 C 235.002 -5.18386 -1.31071 0
M  V30 2551 C 236.302 -5.14916 0.875125 0
M  V30 2552 H 237.996 -2.89233 0.773593 0
M  V30 2553 H 235.542 -1.39073 0.37346 0
M  V30 2554 H 237.495 -3.97044 -1.41188 0
M  V30 2555 H 236.219 -2.76947 -1.73113 0
M  V30 2556 H 234.878 -3.66018 0.206456 0
M  V30 2557 H 234.526 -4.57282 -2.09528 0
M  V30 2558 H 234.226 -5.81378 -0.852839 0
M  V30 2559 H 235.75 -5.83929 -1.78492 0
M  V30 2560 H 237.164 -5.71262 0.482983 0
M  V30 2561 H 235.561 -5.86747 1.25887 0
M  V30 2562 H 236.631 -4.53242 1.72335 0
M  V30 2563 N 237.974 -0.419461 -1.51915 0
M  V30 2564 C 238.884 0.407528 -2.31033 0
M  V30 2565 C 239.9 1.04413 -1.3919 0
M  V30 2566 O 241.076 1.0434 -1.72265 0
M  V30 2567 C 238.141 1.50365 -3.12396 0
M  V30 2568 C 237.202 0.889029 -4.19994 0
M  V30 2569 C 236.435 1.93291 -4.97468 0
M  V30 2570 O 236.658 3.15259 -4.75361 0
M  V30 2571 O 235.592 1.53339 -5.8204 0
M  V30 2572 H 239.418 -0.237865 -3.02767 0
M  V30 2573 H 237.003 -0.182413 -1.48282 0
M  V30 2574 H 238.885 2.13975 -3.63032 0
M  V30 2575 H 237.56 2.13345 -2.43445 0
M  V30 2576 H 236.467 0.215353 -3.7348 0
M  V30 2577 H 237.8 0.302991 -4.91267 0
M  V30 2578 N 239.452 1.56882 -0.150215 0
M  V30 2579 C 240.7 1.9584 0.499105 0
M  V30 2580 C 241.021 1.03623 1.65188 0
M  V30 2581 O 240.291 0.0984084 1.95653 0
M  V30 2582 H 238.871 0.723119 0.187373 0
M  V30 2583 H 241.533 1.9358 -0.226466 0
M  V30 2584 H 240.629 2.99638 0.873122 0
M  V30 2585 N 240.93 -0.123565 1.57115 0
M  V30 2586 C 241.877 -1.15177 2.00007 0
M  V30 2587 C 242.847 -1.41403 0.871454 0
M  V30 2588 O 244.032 -1.53346 1.13533 0
M  V30 2589 C 241.172 -2.47436 2.40561 0
M  V30 2590 C 240.285 -2.28184 3.66819 0
M  V30 2591 C 239.42 -3.53641 3.96373 0
M  V30 2592 C 238.459 -3.29528 5.15827 0
M  V30 2593 N 237.596 -4.47175 5.41275 0
M  V30 2594 H 242.436 -0.779008 2.87638 0
M  V30 2595 H 239.973 -0.373166 1.42288 0
M  V30 2596 H 241.931 -3.24584 2.62109 0
M  V30 2597 H 240.561 -2.82614 1.55978 0
M  V30 2598 H 239.613 -1.41976 3.52912 0
M  V30 2599 H 240.925 -2.0634 4.5412 0
M  V30 2600 H 240.079 -4.39209 4.18545 0
M  V30 2601 H 238.818 -3.78512 3.07538 0
M  V30 2602 H 237.823 -2.42349 4.93505 0
M  V30 2603 H 239.048 -3.06031 6.06236 0
M  V30 2604 H 236.994 -4.72175 4.55397 0
M  V30 2605 H 236.911 -4.28419 6.22891 0
M  V30 2606 H 238.179 -5.3389 5.67963 0
M  V30 2607 N 242.408 -1.52605 -0.393616 0
M  V30 2608 C 243.819 -1.59417 -0.971761 0
M  V30 2609 C 244.17 -0.444173 -1.91106 0
M  V30 2610 O 243.295 0.433382 -2.12016 0
M  V30 2611 C 243.89 -2.88936 -1.76921 0
M  V30 2612 C 242.449 -2.98175 -2.29714 0
M  V30 2613 C 241.596 -2.54491 -1.10135 0
M  V30 2614 H 244.547 -1.57751 -0.173317 0
M  V30 2615 H 244.568 -2.75163 -2.62804 0
M  V30 2616 H 244.08 -3.72616 -1.08532 0
M  V30 2617 H 242.181 -2.19024 -3.01429 0
M  V30 2618 H 242.294 -4.02726 -2.59517 0
M  V30 2619 H 240.658 -2.08702 -1.45999 0
M  V30 2620 H 241.441 -3.4056 -0.432874 0
M  V30 2621 N 243.887 0.651787 -1.4349 0
M  V30 2622 C 244.817 1.77621 -1.51569 0
M  V30 2623 C 245.798 1.66022 -0.370253 0
M  V30 2624 O 246.983 1.85095 -0.587658 0
M  V30 2625 C 244.113 3.16056 -1.43966 0
M  V30 2626 C 243.067 3.4242 -2.56774 0
M  V30 2627 C 242.393 4.8067 -2.34223 0
M  V30 2628 C 243.693 3.37023 -3.99015 0
M  V30 2629 H 245.387 1.71117 -2.45681 0
M  V30 2630 H 242.933 0.821825 -1.18246 0
M  V30 2631 H 244.886 3.94472 -1.48221 0
M  V30 2632 H 243.61 3.23293 -0.463586 0
M  V30 2633 H 242.269 2.66375 -2.51873 0
M  V30 2634 H 241.917 4.84585 -1.34856 0
M  V30 2635 H 241.617 4.9927 -3.09844 0
M  V30 2636 H 243.141 5.61342 -2.40265 0
M  V30 2637 H 244.555 4.05374 -4.05395 0
M  V30 2638 H 242.952 3.67159 -4.74673 0
M  V30 2639 H 244.022 2.3518 -4.2405 0
M  V30 2640 O 245.404 1.40586 0.794848 0
M  V30 2641 H 246.095 1.29493 1.44053 0
M  V30 END ATOM
M  V30 BEGIN BOND
M  V30 END BOND
M  V30 END CTAB
M  END
$$$$
