drugbank_target|P23526 Adenosylhomocysteinase (DB03216; DB03273; DB03769; DB09130)
 OpenBabel12092119583D

  0  0  0     0  0            999 V3000
M  V30 BEGIN CTAB
M  V30 COUNTS 6704 6768 0 0 0
M  V30 BEGIN ATOM
M  V30 1 H -0.908 1.98254 -0.117106 0
M  V30 2 N 0 1.576 0 0
M  V30 3 C 0.933 2.03868 1.02534 0
M  V30 4 C 1.911 0.928543 1.3348 0
M  V30 5 O 3.095 1.19667 1.45644 0
M  V30 6 C 0.222 2.43627 2.35294 0
M  V30 7 C -0.732 3.65373 2.2001 0
M  V30 8 S 0.101 5.13292 1.52614 0
M  V30 9 C 1.257 5.56322 2.86805 0
M  V30 10 H 1.49 2.90518 0.631377 0
M  V30 11 H -0.977 1.52953 0.210867 0
M  V30 12 H 0.981 2.67203 3.11629 0
M  V30 13 H -0.358 1.57376 2.7183 0
M  V30 14 H -1.165 3.90944 3.18086 0
M  V30 15 H -1.563 3.418 1.51819 0
M  V30 16 H 0.729 5.58782 3.83104 0
M  V30 17 H 1.672 6.56266 2.65933 0
M  V30 18 H 2.08 4.83886 2.90714 0
M  V30 19 N 1.4781 -0.272755 1.55222 0
M  V30 20 C 2.7031 -1.02683 1.80197 0
M  V30 21 C 3.1281 -1.79142 0.573551 0
M  V30 22 O 2.4861 -1.74917 -0.476849 0
M  V30 23 C 2.5341 -1.9609 3.02624 0
M  V30 24 O 1.6381 -3.04863 2.77727 0
M  V30 25 H 0.9791 -0.293557 0.595584 0
M  V30 26 H 3.5091 -0.30159 2.02365 0
M  V30 27 H 3.5191 -2.38039 3.31363 0
M  V30 28 H 2.1941 -1.39851 3.91682 0
M  V30 29 H 0.7711 -2.67228 2.60084 0
M  V30 30 N 2.9562 -1.48159 -0.537278 0
M  V30 31 C 4.2332 -1.46291 -1.29839 0
M  V30 32 C 4.6132 -0.170613 -2.10409 0
M  V30 33 O 3.9612 0.847746 -2.12192 0
M  V30 34 C 4.1712 -2.72055 -2.18603 0
M  V30 35 C 5.5192 -3.20087 -2.7898 0
M  V30 36 O 6.5432 -2.72921 -2.28894 0
M  V30 37 O 5.4022 -4.02138 -3.70064 0
M  V30 38 H 2.4962 -0.583906 -0.585647 0
M  V30 39 H 5.0422 -1.60384 -0.554534 0
M  V30 40 H 3.8142 -3.57628 -1.58801 0
M  V30 41 H 3.4372 -2.60646 -3.00249 0
M  V30 42 N 4.4343 0.785586 -1.36625 0
M  V30 43 C 5.3813 1.89838 -1.31264 0
M  V30 44 C 6.3513 1.65115 -0.180633 0
M  V30 45 O 7.5363 1.87222 -0.36777 0
M  V30 46 C 4.6763 3.26706 -1.11163 0
M  V30 47 C 3.7893 3.63476 -2.33472 0
M  V30 48 C 2.9243 4.89481 -2.06353 0
M  V30 49 C 1.9633 5.18941 -3.24602 0
M  V30 50 N 1.1003 6.36131 -2.97123 0
M  V30 51 H 5.9403 1.93756 -2.26413 0
M  V30 52 H 3.4773 0.947454 -1.12524 0
M  V30 53 H 5.4353 4.05639 -0.975337 0
M  V30 54 H 4.0653 3.222 -0.196674 0
M  V30 55 H 3.1173 2.79636 -2.57891 0
M  V30 56 H 4.4293 3.81193 -3.21704 0
M  V30 57 H 3.5833 5.76288 -1.89675 0
M  V30 58 H 2.3223 4.73841 -1.15437 0
M  V30 59 H 1.3273 4.30615 -3.41834 0
M  V30 60 H 2.5523 5.36498 -4.16349 0
M  V30 61 H 0.4983 6.21875 -2.08823 0
M  V30 62 H 0.4153 6.54198 -3.78894 0
M  V30 63 H 1.6833 7.2591 -2.84033 0
M  V30 64 N 5.9124 1.20967 1.01018 0
M  V30 65 C 6.8424 0.988272 2.11555 0
M  V30 66 C 7.8234 -0.0849778 1.69888 0
M  V30 67 O 9.0084 0.0738202 1.9406 0
M  V30 68 C 6.1384 0.546528 3.42973 0
M  V30 69 C 5.0924 1.56375 3.9841 0
M  V30 70 C 4.4184 0.97842 5.25672 0
M  V30 71 C 5.7184 2.94922 4.31066 0
M  V30 72 H 7.4124 1.91276 2.30334 0
M  V30 73 H 4.9584 0.921073 1.1069 0
M  V30 74 H 6.9114 0.378839 4.19694 0
M  V30 75 H 5.6354 -0.413598 3.23971 0
M  V30 76 H 4.2944 1.71891 3.23804 0
M  V30 77 H 3.9424 0.0101688 5.02999 0
M  V30 78 H 3.6424 1.65784 5.63728 0
M  V30 79 H 5.1664 0.821939 6.05043 0
M  V30 80 H 6.5804 2.8288 4.9865 0
M  V30 81 H 4.9774 3.5983 4.80253 0
M  V30 82 H 6.0474 3.4616 3.39561 0
M  V30 83 N 7.3905 -1.2043 1.01659 0
M  V30 84 C 8.8015 -1.71517 0.737482 0
M  V30 85 C 9.1525 -1.81547 -0.743973 0
M  V30 86 O 8.2775 -1.47803 -1.58061 0
M  V30 87 C 8.8725 -3.11515 1.33206 0
M  V30 88 C 7.4315 -3.59912 1.10183 0
M  V30 89 C 6.5785 -2.37116 1.43776 0
M  V30 90 H 9.5295 -1.05444 1.18606 0
M  V30 91 H 9.5505 -3.73575 0.722636 0
M  V30 92 H 9.0625 -3.04182 2.41028 0
M  V30 93 H 7.1635 -3.72577 0.0412756 0
M  V30 94 H 7.2765 -4.44731 1.78188 0
M  V30 95 H 5.6405 -2.39857 0.856778 0
M  V30 96 H 6.4235 -2.32424 2.52654 0
M  V30 97 N 8.8686 -0.792821 -1.36206 0
M  V30 98 C 10.0986 -0.378275 -2.03107 0
M  V30 99 C 10.5066 1.01119 -1.59911 0
M  V30 100 O 9.8496 1.66052 -0.785658 0
M  V30 101 C 9.9116 -0.366535 -3.57627 0
M  V30 102 C 9.5756 -1.70416 -4.24037 0
M  V30 103 C 10.5726 -2.6602 -4.46687 0
M  V30 104 C 8.2576 -1.98439 -4.6144 0
M  V30 105 C 10.2516 -3.8784 -5.05825 0
M  V30 106 C 7.9386 -3.20525 -5.20295 0
M  V30 107 C 8.9366 -4.15044 -5.42427 0
M  V30 108 O 8.6246 -5.34978 -6.00045 0
M  V30 109 H 8.3566 -0.153543 -0.658332 0
M  V30 110 H 10.9106 -1.07383 -1.75094 0
M  V30 111 H 9.1406 0.385539 -3.84773 0
M  V30 112 H 10.8296 0.0238088 -4.05893 0
M  V30 113 H 11.5956 -2.45658 -4.18183 0
M  V30 114 H 7.4746 -1.25686 -4.43536 0
M  V30 115 H 11.0186 -4.61628 -5.23015 0
M  V30 116 H 6.9156 -3.40764 -5.48225 0
M  V30 117 H 7.6836 -5.36088 -6.18508 0
M  V30 118 N 10.3467 1.47872 -0.545128 0
M  V30 119 C 11.2937 2.29849 0.2093 0
M  V30 120 C 12.2637 1.38313 0.919707 0
M  V30 121 O 13.4487 1.67277 0.917772 0
M  V30 122 C 10.5887 3.22019 1.24088 0
M  V30 123 C 9.7017 4.2864 0.537778 0
M  V30 124 C 8.8367 5.07973 1.5536 0
M  V30 125 C 7.8757 6.06381 0.8348 0
M  V30 126 N 7.0127 6.78717 1.79688 0
M  V30 127 H 11.8527 2.93845 -0.49591 0
M  V30 128 H 9.3897 1.44848 -0.256389 0
M  V30 129 H 11.3477 3.73868 1.85144 0
M  V30 130 H 9.9777 2.59914 1.91428 0
M  V30 131 H 9.0297 3.7994 -0.187046 0
M  V30 132 H 10.3417 4.98793 -0.0258907 0
M  V30 133 H 9.4957 5.63912 2.23803 0
M  V30 134 H 8.2347 4.37693 2.15118 0
M  V30 135 H 7.2397 5.49631 0.136388 0
M  V30 136 H 8.4647 6.78665 0.24313 0
M  V30 137 H 6.4107 6.11177 2.38326 0
M  V30 138 H 6.3277 7.44998 1.28505 0
M  V30 139 H 7.5957 7.39237 2.47282 0
M  V30 140 N 11.8248 0.280983 1.55075 0
M  V30 141 C 13.0708 -0.33461 2.00021 0
M  V30 142 C 13.4038 -1.55063 1.16915 0
M  V30 143 O 12.6788 -1.93006 0.240646 0
M  V30 144 C 12.9618 -0.711007 3.53011 0
M  V30 145 C 12.8148 0.512766 4.46868 0
M  V30 146 C 14.1338 -1.54522 4.12081 0
M  V30 147 H 11.2528 -0.120147 0.727141 0
M  V30 148 H 13.8948 0.389097 1.85973 0
M  V30 149 H 12.0448 -1.32761 3.65112 0
M  V30 150 H 13.7168 1.15131 4.46702 0
M  V30 151 H 11.9598 1.14975 4.18286 0
M  V30 152 H 12.6308 0.205556 5.51617 0
M  V30 153 H 15.1068 -1.02442 4.03293 0
M  V30 154 H 13.9828 -1.77739 5.19327 0
M  V30 155 H 14.2438 -2.52813 3.62682 0
M  V30 156 N 13.3029 -1.57598 0.00835791 0
M  V30 157 C 14.2659 -2.07884 -0.965242 0
M  V30 158 C 15.2659 -0.989825 -1.26725 0
M  V30 159 O 16.4559 -1.25218 -1.21104 0
M  V30 160 C 13.5879 -2.52731 -2.28779 0
M  V30 161 H 14.7809 -2.95178 -0.530112 0
M  V30 162 H 12.3339 -1.54458 -0.239283 0
M  V30 163 H 13.0689 -1.68705 -2.76964 0
M  V30 164 H 12.8539 -3.32272 -2.08177 0
M  V30 165 H 14.3439 -2.91933 -2.98605 0
M  V30 166 N 14.781 0.264519 -1.55364 0
M  V30 167 C 16.058 1.01677 -1.67096 0
M  V30 168 C 16.438 2.03996 -0.543015 0
M  V30 169 O 15.786 2.23907 0.45585 0
M  V30 170 C 15.996 1.66596 -3.0667 0
M  V30 171 C 17.344 2.17442 -3.64697 0
M  V30 172 O 18.368 1.76568 -3.09358 0
M  V30 173 O 17.227 2.92439 -4.61673 0
M  V30 174 H 14.321 0.472161 -0.678965 0
M  V30 175 H 16.867 0.259703 -1.67701 0
M  V30 176 H 15.639 0.924962 -3.80211 0
M  V30 177 H 15.262 2.48968 -3.10001 0
M  V30 178 N 16.2591 1.48442 0.529413 0
M  V30 179 C 17.5081 1.55742 1.28169 0
M  V30 180 C 17.8211 0.236511 1.94165 0
M  V30 181 O 19.0271 0.187761 2.7085 0
M  V30 182 C 17.4831 2.74667 2.32564 0
M  V30 183 C 17.0911 4.13402 1.72636 0
M  V30 184 C 18.8351 2.9128 3.08798 0
M  V30 185 C 16.7421 5.23587 2.74975 0
M  V30 186 H 15.6721 0.579796 0.48203 0
M  V30 187 H 18.3231 1.74776 0.559056 0
M  V30 188 H 16.7051 2.49067 3.07866 0
M  V30 189 H 17.8791 4.49022 1.03519 0
M  V30 190 H 16.1941 4.0191 1.08892 0
M  V30 191 H 18.7911 3.70767 3.85274 0
M  V30 192 H 19.1341 2.00757 3.64695 0
M  V30 193 H 19.6671 3.16782 2.40611 0
M  V30 194 H 16.4061 6.16076 2.23897 0
M  V30 195 H 15.9261 4.92454 3.42417 0
M  V30 196 H 17.6051 5.51724 3.37949 0
M  V30 197 N 17.7372 -0.778329 1.37039 0
M  V30 198 C 18.9852 -1.53361 1.31623 0
M  V30 199 C 19.3062 -1.94739 -0.100831 0
M  V30 200 O 18.5762 -1.65797 -1.04347 0
M  V30 201 H 17.1562 -0.568794 0.484234 0
M  V30 202 H 19.8182 -0.926742 1.71457 0
M  V30 203 H 18.9142 -2.43606 1.95096 0
M  V30 204 N 19.2153 -1.21501 -1.00376 0
M  V30 205 C 20.1453 -0.999478 -2.11028 0
M  V30 206 C 21.1263 0.0759671 -1.6993 0
M  V30 207 O 22.3113 -0.0841106 -1.94018 0
M  V30 208 C 19.4413 -0.564709 -3.42678 0
M  V30 209 C 18.3953 -1.58486 -3.97576 0
M  V30 210 C 17.7213 -1.00628 -5.25146 0
M  V30 211 C 19.0213 -2.97204 -4.29496 0
M  V30 212 H 20.7153 -1.92495 -2.29317 0
M  V30 213 H 18.2613 -0.92693 -1.102 0
M  V30 214 H 20.2143 -0.401091 -4.19487 0
M  V30 215 H 18.9383 0.396411 -3.24185 0
M  V30 216 H 17.5973 -1.73606 -3.22888 0
M  V30 217 H 17.2453 -0.0368439 -5.02987 0
M  V30 218 H 16.9453 -1.68771 -5.62841 0
M  V30 219 H 18.4693 -0.854015 -6.04598 0
M  V30 220 H 19.8833 -2.8552 -4.97143 0
M  V30 221 H 18.2803 -3.62372 -4.78338 0
M  V30 222 H 19.3503 -3.47956 -3.3772 0
M  V30 223 N 20.6934 1.19889 -1.02296 0
M  V30 224 C 21.6564 2.21116 -0.603351 0
M  V30 225 C 22.6564 1.5738 0.329884 0
M  V30 226 O 23.8464 1.73802 0.117702 0
M  V30 227 C 20.9784 3.40696 0.117992 0
M  V30 228 H 22.1714 2.59754 -1.49893 0
M  V30 229 H 19.7244 1.33463 -0.813468 0
M  V30 230 H 20.4594 3.07569 1.0282 0
M  V30 231 H 20.2444 3.88188 -0.552511 0
M  V30 232 H 21.7344 4.15692 0.398696 0
M  V30 233 N 22.1715 0.800033 1.35784 0
M  V30 234 C 23.1345 0.211565 2.28221 0
M  V30 235 C 24.1345 -0.59728 1.49296 0
M  V30 236 O 25.3245 -0.416721 1.69142 0
M  V30 237 C 22.4565 -0.705846 3.33513 0
M  V30 238 H 23.6495 1.02677 2.81776 0
M  V30 239 H 21.2025 0.570211 1.45528 0
M  V30 240 H 21.9375 -1.54498 2.85133 0
M  V30 241 H 21.7225 -0.127655 3.91892 0
M  V30 242 H 23.2125 -1.11211 4.02519 0
M  V30 243 N 23.6496 -1.47581 0.552962 0
M  V30 244 C 24.8956 -2.03369 0.0355807 0
M  V30 245 C 25.2506 -1.42016 -1.29805 0
M  V30 246 O 24.5436 -0.564917 -1.83083 0
M  V30 247 C 24.7376 -3.57199 -0.119728 0
M  V30 248 C 24.5666 -4.33468 1.1973 0
M  V30 249 C 23.3366 -4.7353 1.76345 0
M  V30 250 C 25.5346 -4.68866 2.11351 0
M  V30 251 N 23.5166 -5.34426 3.02097 0
M  V30 252 C 24.8876 -5.3002 3.21681 0
M  V30 253 C 26.9426 -4.50795 2.11397 0
M  V30 254 C 25.6456 -5.75011 4.32151 0
M  V30 255 C 27.6716 -4.96782 3.20876 0
M  V30 256 C 27.0336 -5.57981 4.29926 0
M  V30 257 H 23.1326 -0.780058 0.0550806 0
M  V30 258 H 25.7166 -1.80117 0.739315 0
M  V30 259 H 23.8876 -3.80227 -0.792579 0
M  V30 260 H 25.6196 -3.99627 -0.638792 0
M  V30 261 H 22.3746 -4.55352 1.30196 0
M  V30 262 H 22.7986 -5.69421 3.66182 0
M  V30 263 H 27.4406 -4.0284 1.28372 0
M  V30 264 H 25.1586 -6.21959 5.15938 0
M  V30 265 H 28.7446 -4.84573 3.21994 0
M  V30 266 H 27.6246 -5.92918 5.13243 0
M  V30 267 N 25.1277 -0.289203 -1.54924 0
M  V30 268 C 26.3757 0.322879 -1.99504 0
M  V30 269 C 26.6967 1.55313 -1.1791 0
M  V30 270 O 25.9667 1.94001 -0.272097 0
M  V30 271 H 24.5467 0.122291 -0.736922 0
M  V30 272 H 27.2087 -0.397802 -1.90797 0
M  V30 273 H 26.3047 0.603061 -3.06218 0
M  V30 274 N 26.6058 1.57591 -0.0167156 0
M  V30 275 C 28.0218 1.55946 0.339557 0
M  V30 276 C 28.2218 1.02109 1.73713 0
M  V30 277 O 27.2778 0.662303 2.43659 0
M  V30 278 C 28.5908 3.00037 0.199499 0
M  V30 279 C 30.1388 3.11805 0.273193 0
M  V30 280 C 30.6138 4.57713 0.162068 0
M  V30 281 N 32.1048 4.6268 0.219444 0
M  V30 282 C 32.8398 5.73185 0.157054 0
M  V30 283 N 32.3358 6.92786 0.0442936 0
M  V30 284 N 34.1288 5.61707 0.21014 0
M  V30 285 H 26.2798 1.90921 -0.930758 0
M  V30 286 H 28.5428 0.877674 -0.358319 0
M  V30 287 H 28.2488 3.4333 -0.76273 0
M  V30 288 H 28.1228 3.64387 0.974786 0
M  V30 289 H 30.5098 2.68433 1.22587 0
M  V30 290 H 30.5908 2.50201 -0.532256 0
M  V30 291 H 30.2348 5.01763 -0.78714 0
M  V30 292 H 30.1648 5.17283 0.986222 0
M  V30 293 H 32.6558 3.76649 0.307246 0
M  V30 294 H 32.9688 7.728 0.00304069 0
M  V30 295 H 31.3138 6.94999 0.00968457 0
M  V30 296 H 34.5048 4.6716 0.296546 0
M  V30 297 H 34.6778 6.47807 0.158054 0
M  V30 298 N 28.0839 -0.256276 1.55502 0
M  V30 299 C 29.0309 -1.31714 1.89526 0
M  V30 300 C 30.0009 -1.4828 0.748479 0
M  V30 301 O 31.1859 -1.62416 1.00128 0
M  V30 302 C 28.3259 -2.66933 2.18725 0
M  V30 303 C 27.4389 -2.58452 3.4616 0
M  V30 304 C 26.5739 -3.85961 3.64976 0
M  V30 305 C 25.6129 -3.72059 4.86044 0
M  V30 306 N 24.7499 -4.9144 5.01429 0
M  V30 307 H 29.5899 -1.01998 2.80001 0
M  V30 308 H 27.1269 -0.492413 1.38613 0
M  V30 309 H 29.0849 -3.4563 2.33657 0
M  V30 310 H 27.7149 -2.94816 1.31466 0
M  V30 311 H 26.7669 -1.71374 3.3961 0
M  V30 312 H 28.0789 -2.44085 4.34999 0
M  V30 313 H 27.2329 -4.73101 3.79816 0
M  V30 314 H 25.9719 -4.03215 2.74353 0
M  V30 315 H 24.9769 -2.83302 4.7119 0
M  V30 316 H 26.2019 -3.56309 5.78118 0
M  V30 317 H 24.1479 -5.09072 4.13741 0
M  V30 318 H 24.0649 -4.79668 5.84341 0
M  V30 319 H 25.3329 -5.80104 5.20672 0
M  V30 320 N 29.562 -1.4872 -0.521534 0
M  V30 321 C 30.525 -1.63379 -1.60748 0
M  V30 322 C 31.525 -0.50661 -1.52611 0
M  V30 323 O 32.715 -0.772601 -1.5613 0
M  V30 324 C 29.847 -1.61192 -3.00383 0
M  V30 325 H 31.04 -2.60217 -1.49087 0
M  V30 326 H 28.593 -1.37444 -0.744235 0
M  V30 327 H 29.328 -0.65863 -3.17541 0
M  V30 328 H 29.113 -2.43032 -3.07698 0
M  V30 329 H 30.603 -1.7466 -3.7932 0
M  V30 330 N 31.0401 0.771051 -1.3745 0
M  V30 331 C 31.9701 1.89827 -1.3597 0
M  V30 332 C 32.9511 1.68562 -0.228216 0
M  V30 333 O 34.1361 1.8941 -0.428675 0
M  V30 334 C 31.2661 3.2712 -1.16662 0
M  V30 335 C 30.2201 3.6295 -2.2683 0
M  V30 336 C 29.5461 4.98791 -1.92644 0
M  V30 337 C 30.8461 3.69627 -3.69017 0
M  V30 338 H 32.5401 1.91323 -2.30295 0
M  V30 339 H 30.0861 0.919082 -1.10855 0
M  V30 340 H 32.0391 4.05615 -1.14256 0
M  V30 341 H 30.7631 3.26059 -0.187926 0
M  V30 342 H 29.4221 2.86763 -2.28392 0
M  V30 343 H 29.0701 4.94271 -0.933021 0
M  V30 344 H 28.7701 5.23733 -2.66416 0
M  V30 345 H 30.2941 5.79685 -1.91826 0
M  V30 346 H 31.7081 4.38273 -3.69581 0
M  V30 347 H 30.1051 4.06067 -4.41848 0
M  V30 348 H 31.1751 2.70273 -4.02592 0
M  V30 349 N 32.5182 1.22032 0.997298 0
M  V30 350 C 33.7952 0.950823 1.70935 0
M  V30 351 C 34.1752 -0.535292 2.042 0
M  V30 352 O 33.5232 -1.50217 1.72183 0
M  V30 353 C 33.7332 1.84386 2.96315 0
M  V30 354 C 35.0812 2.09732 3.69185 0
M  V30 355 O 36.1052 1.81798 3.06314 0
M  V30 356 O 34.9642 2.57018 4.82291 0
M  V30 357 H 32.0582 0.357204 0.745878 0
M  V30 358 H 34.6042 1.32997 1.05404 0
M  V30 359 H 33.3762 2.84928 2.68201 0
M  V30 360 H 32.9992 1.46602 3.69586 0
M  V30 361 N 33.9963 -1.19345 1.0293 0
M  V30 362 C 35.2453 -1.88363 0.721256 0
M  V30 363 C 35.5583 -1.80514 -0.753254 0
M  V30 364 O 36.7643 -2.44788 -1.17436 0
M  V30 365 C 35.2203 -3.37872 1.23978 0
M  V30 366 C 34.8283 -3.54278 2.74211 0
M  V30 367 C 36.5723 -4.12365 1.00775 0
M  V30 368 C 34.4793 -4.97682 3.19479 0
M  V30 369 H 33.4093 -0.705484 0.266098 0
M  V30 370 H 36.0603 -1.34928 1.24365 0
M  V30 371 H 34.4423 -3.90707 0.6453 0
M  V30 372 H 35.6163 -3.11769 3.39318 0
M  V30 373 H 33.9313 -2.93174 2.95699 0
M  V30 374 H 36.5283 -5.18119 1.32123 0
M  V30 375 H 36.8713 -4.16263 -0.0554308 0
M  V30 376 H 37.4043 -3.65668 1.56625 0
M  V30 377 H 34.1433 -4.98945 4.25128 0
M  V30 378 H 33.6633 -5.4095 2.591 0
M  V30 379 H 35.3423 -5.66337 3.12845 0
M  V30 380 N 35.4744 -0.807222 -1.35358 0
M  V30 381 C 36.4374 -0.223665 -2.28106 0
M  V30 382 C 37.4374 0.589354 -1.4961 0
M  V30 383 O 38.6274 0.407745 -1.69361 0
M  V30 384 C 35.7594 0.688149 -3.33882 0
M  V30 385 H 36.9524 -1.04169 -2.81227 0
M  V30 386 H 34.5054 -0.577921 -1.45223 0
M  V30 387 H 35.2404 1.52984 -2.85948 0
M  V30 388 H 35.0254 0.10687 -3.91954 0
M  V30 389 H 36.5154 1.09075 -4.03104 0
M  V30 390 N 36.9525 1.47285 -0.560781 0
M  V30 391 C 37.8625 2.33846 0.187954 0
M  V30 392 C 38.8785 1.48412 0.908293 0
M  V30 393 O 40.0545 1.81332 0.876388 0
M  V30 394 C 37.1195 3.25178 1.2025 0
M  V30 395 C 36.1805 4.26504 0.489208 0
M  V30 396 C 35.4135 5.13472 1.45542 0
M  V30 397 O 35.6365 5.02959 2.6905 0
M  V30 398 O 34.5705 5.93902 0.977963 0
M  V30 399 H 38.3965 2.99177 -0.522177 0
M  V30 400 H 35.9815 1.45903 -0.321364 0
M  V30 401 H 37.8635 3.81584 1.78805 0
M  V30 402 H 36.5385 2.6247 1.89449 0
M  V30 403 H 35.4455 3.73847 -0.137627 0
M  V30 404 H 36.7785 4.91935 -0.161399 0
M  V30 405 N 38.4306 0.297415 1.54768 0
M  V30 406 C 39.3786 -0.596051 2.24833 0
M  V30 407 C 40.3726 -1.13992 1.25308 0
M  V30 408 O 41.5786 -1.09098 1.4317 0
M  V30 409 H 37.9536 -0.210814 0.721846 0
M  V30 410 H 39.9246 0.0174667 2.98395 0
M  V30 411 C 38.6736 -1.75818 2.99972 0
M  V30 412 H 37.9966 -1.3489 3.76357 0
M  V30 413 H 39.4366 -2.35949 3.52284 0
M  V30 414 C 37.8956 -2.66014 2.06732 0
M  V30 415 O 38.4256 -3.67009 1.63302 0
M  V30 416 N 36.6316 -2.33669 1.72763 0
M  V30 417 H 36.1786 -1.51586 2.08277 0
M  V30 418 H 36.1366 -2.94285 1.10652 0
M  V30 419 N 39.9087 -1.5758 0.0250728 0
M  V30 420 C 40.8187 -2.1343 -0.973905 0
M  V30 421 C 41.8347 -1.08556 -1.35984 0
M  V30 422 O 43.0107 -1.40592 -1.44207 0
M  V30 423 C 40.0757 -2.64703 -2.23904 0
M  V30 424 C 39.1367 -3.84276 -1.91391 0
M  V30 425 C 38.3697 -4.33095 -3.11873 0
M  V30 426 O 38.5927 -3.81107 -4.24398 0
M  V30 427 O 37.5267 -5.24984 -2.94406 0
M  V30 428 H 41.3527 -2.99057 -0.529036 0
M  V30 429 H 38.9377 -1.48118 -0.195288 0
M  V30 430 H 40.8197 -2.97769 -2.98181 0
M  V30 431 H 39.4947 -1.82161 -2.6758 0
M  V30 432 H 38.4017 -3.56143 -1.14511 0
M  V30 433 H 39.7347 -4.67968 -1.52534 0
M  V30 434 N 41.3868 0.248026 -1.55636 0
M  V30 435 C 42.3198 1.3334 -1.85191 0
M  V30 436 C 43.2978 1.46429 -0.706906 0
M  V30 437 O 44.4818 1.62662 -0.952544 0
M  V30 438 C 41.6088 2.70703 -2.03562 0
M  V30 439 C 40.6548 2.7477 -3.26196 0
M  V30 440 S 41.4878 2.31493 -4.82878 0
M  V30 441 C 42.6438 3.70783 -5.04253 0
M  V30 442 H 42.8768 1.08072 -2.76962 0
M  V30 443 H 40.4098 0.448952 -1.47729 0
M  V30 444 H 42.3678 3.49798 -2.1483 0
M  V30 445 H 41.0288 2.9321 -1.12635 0
M  V30 446 H 40.2218 3.75648 -3.36013 0
M  V30 447 H 39.8238 2.03719 -3.13647 0
M  V30 448 H 42.1158 4.6627 -4.91527 0
M  V30 449 H 43.0588 3.65901 -6.06236 0
M  V30 450 H 43.4668 3.63244 -4.32105 0
M  V30 451 N 42.8649 1.48995 0.513639 0
M  V30 452 C 44.2759 1.5119 1.09537 0
M  V30 453 C 44.6269 0.290906 1.94031 0
M  V30 454 O 43.7519 -0.60049 2.07902 0
M  V30 455 C 44.3469 2.73964 1.99322 0
M  V30 456 C 42.9059 2.78978 2.52682 0
M  V30 457 C 42.0529 2.44934 1.30009 0
M  V30 458 H 45.0039 1.55875 0.298125 0
M  V30 459 H 45.0249 2.53409 2.83838 0
M  V30 460 H 44.5369 3.62813 1.37799 0
M  V30 461 H 42.6379 1.94378 3.1788 0
M  V30 462 H 42.7509 3.8083 2.90698 0
M  V30 463 H 41.1149 1.9644 1.62122 0
M  V30 464 H 41.8979 3.36043 0.702131 0
M  V30 465 N 44.343 -0.763751 1.37857 0
M  V30 466 C 45.591 -1.51957 1.33243 0
M  V30 467 C 45.912 -1.94835 -0.0801709 0
M  V30 468 O 45.182 -1.66894 -1.02582 0
M  V30 469 H 43.762 -0.563626 0.49024 0
M  V30 470 H 46.424 -0.908504 1.7243 0
M  V30 471 H 45.52 -2.41523 1.97669 0
M  V30 472 N 45.8211 -1.22559 -0.990812 0
M  V30 473 C 46.7511 -1.0218 -2.09956 0
M  V30 474 C 47.7321 0.0579394 -1.70001 0
M  V30 475 O 48.9171 -0.104684 -1.93918 0
M  V30 476 C 46.0471 -0.601023 -3.4206 0
M  V30 477 C 45.0011 -1.62694 -3.95872 0
M  V30 478 C 44.3271 -1.06193 -5.24049 0
M  V30 479 C 45.6271 -3.01743 -4.2632 0
M  V30 480 H 47.3211 -1.94916 -2.27262 0
M  V30 481 H 44.8671 -0.938566 -1.09211 0
M  V30 482 H 46.8201 -0.445561 -4.19038 0
M  V30 483 H 45.5441 0.362005 -3.24588 0
M  V30 484 H 44.2031 -1.77021 -3.21028 0
M  V30 485 H 43.8511 -0.0901903 -5.02919 0
M  V30 486 H 43.5511 -1.74732 -5.61019 0
M  V30 487 H 45.0751 -0.918092 -6.03658 0
M  V30 488 H 46.4891 -2.90777 -4.94087 0
M  V30 489 H 44.8861 -3.67425 -4.74467 0
M  V30 490 H 45.9561 -3.51518 -3.34011 0
M  V30 491 N 47.2992 1.18797 -1.03562 0
M  V30 492 C 48.2322 2.2105 -0.56676 0
M  V30 493 C 49.2102 1.57704 0.395993 0
M  V30 494 O 50.3942 1.85908 0.311498 0
M  V30 495 C 47.5212 3.38259 0.172704 0
M  V30 496 C 46.5672 4.19987 -0.74252 0
M  V30 497 S 47.4002 4.87199 -2.22254 0
M  V30 498 C 48.5562 6.07813 -1.49379 0
M  V30 499 H 48.7892 2.60478 -1.43312 0
M  V30 500 H 46.3222 1.29151 -0.846133 0
M  V30 501 H 48.2802 4.06191 0.593191 0
M  V30 502 H 46.9412 2.97252 1.01488 0
M  V30 503 H 46.1342 5.03709 -0.171265 0
M  V30 504 H 45.7362 3.57408 -1.10163 0
M  V30 505 H 48.0282 6.72948 -0.784056 0
M  V30 506 H 48.9712 6.69435 -2.30786 0
M  V30 507 H 49.3792 5.55781 -0.988331 0
M  V30 508 N 48.7773 0.814389 1.34928 0
M  V30 509 C 50.1933 0.499084 1.51596 0
M  V30 510 C 50.3933 -0.978319 1.76157 0
M  V30 511 O 49.4493 -1.76309 1.80752 0
M  V30 512 C 50.7623 1.35121 2.68631 0
M  V30 513 C 52.3103 1.34746 2.82511 0
M  V30 514 C 52.7853 2.18388 4.0258 0
M  V30 515 N 54.2763 2.15966 4.09772 0
M  V30 516 C 55.0113 2.77437 5.01813 0
M  V30 517 N 54.5073 3.47866 5.99134 0
M  V30 518 N 56.3003 2.67037 4.94619 0
M  V30 519 H 48.4513 1.7711 1.17243 0
M  V30 520 H 50.7143 0.754256 0.574284 0
M  V30 521 H 50.4203 2.40001 2.57085 0
M  V30 522 H 50.2943 1.00991 3.63429 0
M  V30 523 H 52.6813 0.30648 2.93504 0
M  V30 524 H 52.7623 1.72869 1.88547 0
M  V30 525 H 52.4063 3.2253 3.92347 0
M  V30 526 H 52.3363 1.77621 4.9574 0
M  V30 527 H 54.8273 1.64729 3.40107 0
M  V30 528 H 55.1403 3.92038 6.65977 0
M  V30 529 H 53.4853 3.51972 5.99284 0
M  V30 530 H 56.6763 2.11597 4.17546 0
M  V30 531 H 56.8493 3.15232 5.66156 0
M  V30 532 N 50.2554 -1.46986 0.568584 0
M  V30 533 C 51.1884 -2.27129 -0.220779 0
M  V30 534 C 52.1664 -1.34757 -0.909905 0
M  V30 535 O 53.3504 -1.64152 -0.926622 0
M  V30 536 C 50.4774 -3.12108 -1.31553 0
M  V30 537 C 49.5234 -4.20141 -0.733748 0
M  V30 538 S 50.3564 -5.33783 0.428479 0
M  V30 539 C 51.5124 -6.22327 -0.667811 0
M  V30 540 H 51.7454 -2.93731 0.459267 0
M  V30 541 H 49.2784 -1.5026 0.355154 0
M  V30 542 H 51.2364 -3.61636 -1.94241 0
M  V30 543 H 49.8974 -2.44847 -1.96746 0
M  V30 544 H 49.0904 -4.79373 -1.5562 0
M  V30 545 H 48.6924 -3.73553 -0.182812 0
M  V30 546 H 50.9844 -6.59364 -1.55708 0
M  V30 547 H 51.9274 -7.0801 -0.11258 0
M  V30 548 H 52.3354 -5.5618 -0.965601 0
M  V30 549 N 51.7335 -0.305618 -1.54608 0
M  V30 550 C 53.1495 0.0476228 -1.59529 0
M  V30 551 C 53.3495 1.52025 -1.32252 0
M  V30 552 O 52.4055 2.27368 -1.09818 0
M  V30 553 C 53.7185 -0.354471 -2.98603 0
M  V30 554 C 55.2665 -0.303622 -3.11524 0
M  V30 555 C 55.7415 -0.680608 -4.52915 0
M  V30 556 N 57.2325 -0.63332 -4.5885 0
M  V30 557 C 57.9675 -0.897432 -5.66334 0
M  V30 558 N 57.4635 -1.22775 -6.81834 0
M  V30 559 N 59.2565 -0.824186 -5.56025 0
M  V30 560 H 51.4075 -1.2653 -1.70599 0
M  V30 561 H 53.6705 -0.513291 -0.797017 0
M  V30 562 H 53.3765 -1.3798 -3.23503 0
M  V30 563 H 53.2505 0.289568 -3.76087 0
M  V30 564 H 55.6375 0.712472 -2.8637 0
M  V30 565 H 55.7185 -0.982348 -2.36185 0
M  V30 566 H 55.3625 -1.69453 -4.78799 0
M  V30 567 H 55.2925 0.0202385 -5.26596 0
M  V30 568 H 57.7835 -0.389138 -3.75891 0
M  V30 569 H 58.0965 -1.41513 -7.59733 0
M  V30 570 H 56.4415 -1.26583 -6.83375 0
M  V30 571 H 59.6325 -0.565748 -4.64669 0
M  V30 572 H 59.8055 -1.03338 -6.39707 0
M  V30 573 N 53.2116 1.57565 -0.0334293 0
M  V30 574 C 54.1216 2.13943 0.962572 0
M  V30 575 C 55.1376 1.09276 1.35406 0
M  V30 576 O 56.3136 1.41355 1.4346 0
M  V30 577 C 53.3786 2.65887 2.22497 0
M  V30 578 C 52.4396 3.85286 1.8935 0
M  V30 579 C 51.6726 4.34743 3.09571 0
M  V30 580 O 51.8956 3.83352 4.22371 0
M  V30 581 O 50.8296 5.26538 2.91618 0
M  V30 582 H 54.6556 2.99333 0.513169 0
M  V30 583 H 52.2406 1.4822 0.18743 0
M  V30 584 H 54.1226 2.99346 2.96598 0
M  V30 585 H 52.7976 1.83578 2.6661 0
M  V30 586 H 51.7046 3.56746 1.1262 0
M  V30 587 H 53.0376 4.68771 1.5005 0
M  V30 588 N 54.6897 -0.239769 1.55765 0
M  V30 589 C 56.1057 -0.588624 1.48349 0
M  V30 590 C 56.3057 -1.88005 0.72502 0
M  V30 591 O 55.3617 -2.51186 0.257269 0
M  V30 592 C 56.6747 -0.68474 2.928 0
M  V30 593 C 58.2227 -0.77659 3.03213 0
M  V30 594 C 58.6977 -0.904207 4.48986 0
M  V30 595 N 60.1887 -0.968896 4.52953 0
M  V30 596 C 60.9237 -1.08703 5.63002 0
M  V30 597 N 60.4197 -1.17026 6.82845 0
M  V30 598 N 62.2127 -1.12074 5.50814 0
M  V30 599 H 54.3637 0.607911 2.03515 0
M  V30 600 H 56.6267 0.21083 0.924259 0
M  V30 601 H 56.3327 0.194284 3.51163 0
M  V30 602 H 56.2067 -1.55435 3.43686 0
M  V30 603 H 58.5937 -1.64606 2.44926 0
M  V30 604 H 58.6747 0.118315 2.55526 0
M  V30 605 H 58.3187 -0.0392633 5.07885 0
M  V30 606 H 58.2487 -1.81426 4.9436 0
M  V30 607 H 60.7397 -0.915633 3.6664 0
M  V30 608 H 61.0527 -1.25966 7.62465 0
M  V30 609 H 59.3977 -1.13971 6.85591 0
M  V30 610 H 62.5887 -1.05226 4.5612 0
M  V30 611 H 62.7617 -1.20936 6.36615 0
M  V30 612 N 56.1678 -1.49265 -0.50573 0
M  V30 613 C 57.3978 -1.61979 -1.28243 0
M  V30 614 C 57.8058 -0.288576 -1.86986 0
M  V30 615 O 57.1488 0.735408 -1.68337 0
M  V30 616 C 57.2108 -2.62632 -2.45489 0
M  V30 617 C 56.8748 -4.071 -2.07651 0
M  V30 618 C 57.8718 -4.94049 -1.61901 0
M  V30 619 C 55.5568 -4.52801 -2.17431 0
M  V30 620 C 57.5508 -6.24736 -1.26428 0
M  V30 621 C 55.2378 -5.83503 -1.8157 0
M  V30 622 C 56.2358 -6.69294 -1.36142 0
M  V30 623 O 55.9238 -7.9756 -1.00764 0
M  V30 624 H 55.6558 -0.54834 -0.395347 0
M  V30 625 H 58.2098 -1.96002 -0.614204 0
M  V30 626 H 56.4398 -2.2378 -3.15372 0
M  V30 627 H 58.1288 -2.64925 -3.07522 0
M  V30 628 H 58.8948 -4.5997 -1.53795 0
M  V30 629 H 54.7738 -3.86196 -2.51742 0
M  V30 630 H 58.3178 -6.91652 -0.908992 0
M  V30 631 H 54.2148 -6.17112 -1.89324 0
M  V30 632 H 54.9828 -8.10529 -1.13952 0
M  V30 633 N 57.6459 0.756429 -1.3826 0
M  V30 634 C 58.8709 1.55077 -1.37717 0
M  V30 635 C 59.2959 1.88073 0.03164 0
M  V30 636 O 58.6539 1.50364 1.01293 0
M  V30 637 C 58.7019 2.8283 -2.23695 0
M  V30 638 O 57.8059 3.77862 -1.6521 0
M  V30 639 H 57.1469 0.469152 -0.469885 0
M  V30 640 H 59.6769 0.935019 -1.81985 0
M  V30 641 H 59.6869 3.31783 -2.37453 0
M  V30 642 H 58.3619 2.58144 -3.2609 0
M  V30 643 H 56.9389 3.36555 -1.60578 0
M  V30 644 N 59.124 1.23083 0.984299 0
M  V30 645 C 60.087 1.00979 2.05757 0
M  V30 646 C 61.087 -0.0269573 1.60777 0
M  V30 647 O 62.277 0.212403 1.729 0
M  V30 648 C 59.409 0.527072 3.36801 0
M  V30 649 H 60.602 1.9622 2.26799 0
M  V30 650 H 58.155 1.05072 1.15714 0
M  V30 651 H 58.89 -0.429294 3.21446 0
M  V30 652 H 58.675 1.27515 3.70786 0
M  V30 653 H 60.165 0.392942 4.15747 0
M  V30 654 N 60.6021 -1.18246 1.0419 0
M  V30 655 C 61.8271 -1.92736 0.765996 0
M  V30 656 C 62.2521 -1.75728 -0.67091 0
M  V30 657 O 61.6101 -1.06825 -1.46486 0
M  V30 658 C 61.6581 -3.42148 1.13875 0
M  V30 659 O 60.7621 -4.11548 0.264954 0
M  V30 660 H 60.1031 -0.601238 0.281797 0
M  V30 661 H 62.6331 -1.49942 1.39207 0
M  V30 662 H 62.6431 -3.92858 1.1012 0
M  V30 663 H 61.3181 -3.53848 2.18551 0
M  V30 664 H 59.8951 -3.71137 0.362226 0
M  V30 665 N 62.0802 -0.821533 -1.34494 0
M  V30 666 C 63.0272 -0.240397 -2.29545 0
M  V30 667 C 63.9972 0.634031 -1.53523 0
M  V30 668 O 65.1822 0.575966 -1.81899 0
M  V30 669 C 62.3222 0.592869 -3.39969 0
M  V30 670 C 61.4352 -0.30365 -4.30932 0
M  V30 671 C 60.5702 0.539049 -5.28458 0
M  V30 672 C 59.6092 -0.356942 -6.11058 0
M  V30 673 N 58.7462 0.446603 -7.00678 0
M  V30 674 H 63.5862 -1.05632 -2.7865 0
M  V30 675 H 61.1232 -0.532413 -1.37127 0
M  V30 676 H 63.0812 1.09129 -4.02675 0
M  V30 677 H 61.7112 1.37392 -2.92102 0
M  V30 678 H 60.7632 -0.920276 -3.691 0
M  V30 679 H 62.0752 -0.992661 -4.88823 0
M  V30 680 H 61.2292 1.102 -5.96608 0
M  V30 681 H 59.9682 1.26157 -4.71101 0
M  V30 682 H 58.9732 -0.932047 -5.41842 0
M  V30 683 H 60.1982 -1.07755 -6.70497 0
M  V30 684 H 58.1442 1.15282 -6.45791 0
M  V30 685 H 58.0612 -0.184048 -7.55776 0
M  V30 686 H 59.3292 0.992352 -7.73158 0
M  V30 687 N 63.5583 1.46682 -0.576371 0
M  V30 688 C 64.9693 1.86112 -0.148091 0
M  V30 689 C 65.3203 1.48073 1.2872 0
M  V30 690 O 64.4453 0.892656 1.97131 0
M  V30 691 C 65.0403 3.37786 -0.261982 0
M  V30 692 C 63.5993 3.76235 0.111384 0
M  V30 693 C 62.7463 2.70713 -0.60083 0
M  V30 694 H 65.6973 1.37927 -0.78497 0
M  V30 695 H 65.7183 3.77007 0.514364 0
M  V30 696 H 65.2303 3.6544 -1.30671 0
M  V30 697 H 63.3313 3.54198 1.15649 0
M  V30 698 H 63.4443 4.78391 -0.26052 0
M  V30 699 H 61.8083 2.54666 -0.0417783 0
M  V30 700 H 62.5913 3.01208 -1.64708 0
M  V30 701 N 65.0364 0.313813 1.54444 0
M  V30 702 C 65.9664 -0.549454 2.26943 0
M  V30 703 C 66.9474 -1.12741 1.27372 0
M  V30 704 O 68.1324 -1.15436 1.56167 0
M  V30 705 C 65.2624 -1.71523 3.01989 0
M  V30 706 C 64.2164 -1.26703 4.08816 0
M  V30 707 C 63.5424 -2.51898 4.71647 0
M  V30 708 C 64.8424 -0.388962 5.2085 0
M  V30 709 H 66.5364 0.0552661 2.99349 0
M  V30 710 H 64.0824 0.0280207 1.43973 0
M  V30 711 H 66.0354 -2.32535 3.51433 0
M  V30 712 H 64.7594 -2.34639 2.27183 0
M  V30 713 H 63.4184 -0.679896 3.6024 0
M  V30 714 H 63.0664 -3.13356 3.93468 0
M  V30 715 H 62.7664 -2.22605 5.43802 0
M  V30 716 H 64.2904 -3.1369 5.23861 0
M  V30 717 H 65.7044 -0.905107 5.6611 0
M  V30 718 H 64.1014 -0.18924 5.99802 0
M  V30 719 H 65.1714 0.582699 4.81386 0
M  V30 720 N 66.5145 -1.57545 0.0417849 0
M  V30 721 C 67.4615 -2.10977 -0.935805 0
M  V30 722 C 68.4315 -1.01486 -1.31491 0
M  V30 723 O 69.6165 -1.2898 -1.40602 0
M  V30 724 C 66.7565 -2.65169 -2.2086 0
M  V30 725 C 65.8695 -3.88714 -1.88482 0
M  V30 726 C 65.0045 -4.31254 -3.1015 0
M  V30 727 C 64.0435 -5.47524 -2.7365 0
M  V30 728 N 63.1805 -5.85162 -3.87982 0
M  V30 729 H 68.0205 -2.94218 -0.473249 0
M  V30 730 H 65.5575 -1.45415 -0.221981 0
M  V30 731 H 67.5155 -2.94685 -2.95325 0
M  V30 732 H 66.1455 -1.8474 -2.64709 0
M  V30 733 H 65.1975 -3.65849 -1.04205 0
M  V30 734 H 66.5095 -4.73245 -1.57608 0
M  V30 735 H 65.6635 -4.62273 -3.92923 0
M  V30 736 H 64.4025 -3.45516 -3.44195 0
M  V30 737 H 63.4075 -5.16187 -1.89291 0
M  V30 738 H 64.6325 -6.34971 -2.40807 0
M  V30 739 H 62.5785 -5.02377 -4.21846 0
M  V30 740 H 62.4955 -6.64362 -3.60775 0
M  V30 741 H 63.7635 -6.20791 -4.71422 0
M  V30 742 N 67.9926 0.231505 -1.5589 0
M  V30 743 C 69.2406 0.955461 -1.78088 0
M  V30 744 C 69.5616 1.85262 -0.608533 0
M  V30 745 O 68.8316 1.92277 0.375035 0
M  V30 746 H 67.4116 0.355787 -0.656829 0
M  V30 747 H 70.0736 0.245751 -1.93344 0
M  V30 748 H 69.1696 1.56814 -2.69844 0
M  V30 749 N 69.4707 1.49531 0.497807 0
M  V30 750 C 70.4337 1.65916 1.58128 0
M  V30 751 C 71.4337 0.530825 1.51786 0
M  V30 752 O 72.6237 0.797342 1.54881 0
M  V30 753 C 69.7557 1.65951 2.9778 0
M  V30 754 H 70.9487 2.62556 1.44929 0
M  V30 755 H 68.5017 1.38611 0.722275 0
M  V30 756 H 69.2367 0.709065 3.16453 0
M  V30 757 H 69.0217 2.47897 3.03792 0
M  V30 758 H 70.5117 1.80673 3.76493 0
M  V30 759 N 70.9488 -0.749086 1.3866 0
M  V30 760 C 72.3648 -1.05276 1.19955 0
M  V30 761 C 72.5648 -2.01435 0.05134 0
M  V30 762 O 71.6208 -2.45232 -0.60147 0
M  V30 763 C 72.9338 -1.62853 2.52783 0
M  V30 764 C 74.4818 -1.75002 2.59506 0
M  V30 765 C 74.9568 -2.35991 3.92521 0
M  V30 766 N 76.4478 -2.43416 3.94085 0
M  V30 767 C 77.1828 -2.91511 4.9377 0
M  V30 768 N 76.6788 -3.39608 6.03853 0
M  V30 769 N 78.4718 -2.90592 4.81157 0
M  V30 770 H 70.6228 -0.111066 2.12109 0
M  V30 771 H 72.8858 -0.111901 0.941373 0
M  V30 772 H 72.5918 -0.99664 3.37283 0
M  V30 773 H 72.4658 -2.61854 2.715 0
M  V30 774 H 74.8528 -2.37317 1.75398 0
M  V30 775 H 74.9338 -0.74693 2.44652 0
M  V30 776 H 74.5778 -1.74308 4.77053 0
M  V30 777 H 74.5078 -3.3695 4.04688 0
M  V30 778 H 76.9988 -2.09405 3.14576 0
M  V30 779 H 77.3118 -3.74775 6.75843 0
M  V30 780 H 75.6568 -3.37653 6.07466 0
M  V30 781 H 78.8478 -2.52332 3.94267 0
M  V30 782 H 79.0208 -3.27762 5.58996 0
M  V30 783 N 72.4269 -1.23603 -0.977757 0
M  V30 784 C 73.6759 -1.06377 -1.71368 0
M  V30 785 C 73.9889 0.399062 -1.91486 0
M  V30 786 O 75.1949 0.691312 -2.62551 0
M  V30 787 C 73.6509 -1.85512 -3.08404 0
M  V30 788 C 73.2589 -3.36141 -2.96164 0
M  V30 789 C 75.0029 -1.76783 -3.85938 0
M  V30 790 C 72.9099 -4.07659 -4.28449 0
M  V30 791 H 71.8399 -0.394452 -0.642591 0
M  V30 792 H 74.4909 -1.47594 -1.09034 0
M  V30 793 H 72.8729 -1.37103 -3.71509 0
M  V30 794 H 74.0469 -3.92056 -2.42133 0
M  V30 795 H 72.3619 -3.45712 -2.32104 0
M  V30 796 H 74.9589 -2.27526 -4.83876 0
M  V30 797 H 75.3019 -0.731116 -4.0983 0
M  V30 798 H 75.8349 -2.22818 -3.2954 0
M  V30 799 H 72.5739 -5.11648 -4.09752 0
M  V30 800 H 72.0939 -3.5653 -4.82334 0
M  V30 801 H 73.7729 -4.141 -4.97122 0
M  V30 802 N 73.905 1.17692 -1.04816 0
M  V30 803 C 74.868 2.19787 -0.650117 0
M  V30 804 C 75.868 1.58044 0.296427 0
M  V30 805 O 77.058 1.74012 0.0808097 0
M  V30 806 C 74.19 3.40869 0.0456987 0
M  V30 807 H 75.383 2.56516 -1.5537 0
M  V30 808 H 72.936 1.31708 -0.841594 0
M  V30 809 H 73.671 3.09681 0.962726 0
M  V30 810 H 73.456 3.86928 -0.634727 0
M  V30 811 H 74.946 4.16445 0.310432 0
M  V30 812 N 75.3831 0.828654 1.34056 0
M  V30 813 C 76.6311 0.41863 1.97717 0
M  V30 814 C 76.9521 -1.02314 1.66002 0
M  V30 815 O 76.2221 -1.71119 0.953683 0
M  V30 816 H 74.8021 0.151809 0.731412 0
M  V30 817 H 77.4641 1.05936 1.63596 0
M  V30 818 H 76.5601 0.542318 3.07352 0
M  V30 819 N 76.8612 -1.46375 0.584142 0
M  V30 820 C 78.1012 -2.0427 0.0729695 0
M  V30 821 C 78.4652 -1.44563 -1.26355 0
M  V30 822 O 79.6662 -1.93667 -1.86405 0
M  V30 823 C 77.9372 -3.57399 0.00967464 0
M  V30 824 S 79.4962 -4.36551 -0.443714 0
M  V30 825 H 76.3142 -0.709975 0.0381673 0
M  V30 826 H 78.9162 -1.79398 0.776962 0
M  V30 827 H 77.6202 -3.98372 0.986319 0
M  V30 828 H 77.1512 -3.8681 -0.717044 0
M  V30 829 H 79.1662 -4.66237 -1.69816 0
M  V30 830 N 78.3393 -0.321999 -1.54275 0
M  V30 831 C 79.2693 0.537411 -2.27231 0
M  V30 832 C 80.2503 1.12064 -1.27968 0
M  V30 833 O 81.4353 1.14606 -1.56777 0
M  V30 834 C 78.5653 1.69919 -3.02894 0
M  V30 835 C 77.5193 1.24534 -4.09482 0
M  V30 836 C 76.8453 2.49394 -4.72977 0
M  V30 837 C 78.1453 0.361335 -5.21049 0
M  V30 838 H 79.8393 -0.0711406 -2.99315 0
M  V30 839 H 77.3853 -0.0356555 -1.43956 0
M  V30 840 H 79.3383 2.30668 -3.52662 0
M  V30 841 H 78.0623 2.33431 -2.28424 0
M  V30 842 H 76.7213 0.660782 -3.60596 0
M  V30 843 H 76.3693 3.11265 -3.95124 0
M  V30 844 H 76.0693 2.19718 -5.44975 0
M  V30 845 H 77.5933 3.10908 -5.25517 0
M  V30 846 H 79.0073 0.875072 -5.66582 0
M  V30 847 H 77.4043 0.157428 -5.99893 0
M  V30 848 H 78.4743 -0.60822 -4.8107 0
M  V30 849 N 79.8174 1.5752 -0.0501392 0
M  V30 850 C 80.7674 2.07981 0.934231 0
M  V30 851 C 81.7514 0.984745 1.27246 0
M  V30 852 O 82.9434 1.24809 1.25506 0
M  V30 853 C 80.0724 2.62751 2.20945 0
M  V30 854 C 79.1584 3.79225 1.89865 0
M  V30 855 N 79.5494 4.89036 1.29142 0
M  V30 856 C 77.8474 3.88111 2.19741 0
M  V30 857 C 78.5484 5.70084 1.15669 0
M  V30 858 N 77.5244 5.17659 1.65923 0
M  V30 859 H 81.3264 2.90277 0.460053 0
M  V30 860 H 78.8404 1.61665 0.15434 0
M  V30 861 H 80.8374 2.97205 2.9236 0
M  V30 862 H 79.4974 1.81894 2.6897 0
M  V30 863 H 80.5084 5.08854 0.963756 0
M  V30 864 H 77.1854 3.18194 2.70293 0
M  V30 865 H 78.5754 6.68395 0.685356 0
M  V30 866 N 81.2955 -0.223234 1.56011 0
M  V30 867 C 82.2285 -1.30377 1.87289 0
M  V30 868 C 83.2065 -1.45286 0.730112 0
M  V30 869 O 84.3905 -1.61126 0.978302 0
M  V30 870 C 81.5175 -2.67431 2.07843 0
M  V30 871 C 80.5635 -2.69546 3.30526 0
M  V30 872 S 81.3965 -2.23781 4.865 0
M  V30 873 C 82.5525 -3.62714 5.10088 0
M  V30 874 H 82.7855 -1.03652 2.78646 0
M  V30 875 H 80.3185 -0.425393 1.48424 0
M  V30 876 H 82.2765 -3.46336 2.20368 0
M  V30 877 H 80.9375 -2.91381 1.17285 0
M  V30 878 H 80.1305 -3.70255 3.41947 0
M  V30 879 H 79.7325 -1.98703 3.16849 0
M  V30 880 H 82.0245 -4.58391 4.98883 0
M  V30 881 H 82.9675 -3.5621 6.11981 0
M  V30 882 H 83.3755 -3.56323 4.37829 0
M  V30 883 N 82.7736 -1.49793 -0.48987 0
M  V30 884 C 84.0016 -1.63568 -1.26701 0
M  V30 885 C 84.4166 -0.311465 -1.86213 0
M  V30 886 O 83.7736 0.704416 -1.68357 0
M  V30 887 C 83.8246 -2.71284 -2.38929 0
M  V30 888 O 83.5456 -3.9857 -1.81861 0
M  V30 889 C 85.0466 -2.95864 -3.3012 0
M  V30 890 H 82.2666 -0.550342 -0.383881 0
M  V30 891 H 84.8106 -1.95898 -0.586864 0
M  V30 892 H 82.9656 -2.417 -3.02753 0
M  V30 893 H 83.3796 -4.57993 -2.55622 0
M  V30 894 H 84.8536 -3.74941 -4.05121 0
M  V30 895 H 85.3306 -2.06206 -3.87783 0
M  V30 896 H 85.9366 -3.26907 -2.72051 0
M  V30 897 N 84.2517 0.741722 -1.39055 0
M  V30 898 C 85.4977 1.50336 -1.36113 0
M  V30 899 C 85.8307 1.94148 0.0450796 0
M  V30 900 O 85.1057 1.66301 1.00868 0
M  V30 901 C 85.3887 2.74773 -2.32749 0
M  V30 902 C 85.2417 2.37023 -3.82283 0
M  V30 903 C 86.5607 3.76846 -2.27322 0
M  V30 904 H 83.6797 0.545351 -0.495743 0
M  V30 905 H 86.3217 0.848624 -1.69995 0
M  V30 906 H 84.4717 3.30639 -2.03986 0
M  V30 907 H 86.1437 1.8684 -4.21768 0
M  V30 908 H 84.3867 1.69334 -3.99385 0
M  V30 909 H 85.0577 3.26104 -4.45376 0
M  V30 910 H 87.5337 3.30548 -2.5274 0
M  V30 911 H 86.4097 4.6159 -2.97028 0
M  V30 912 H 86.6707 4.23286 -1.27599 0
M  V30 913 N 85.7298 1.2412 0.971189 0
M  V30 914 C 86.6398 1.04747 2.09917 0
M  V30 915 C 87.6558 -0.0107162 1.73997 0
M  V30 916 O 88.8318 0.186714 2.00533 0
M  V30 917 C 85.8968 0.650828 3.40537 0
M  V30 918 C 84.9578 1.7851 3.90426 0
M  V30 919 C 84.1908 1.40729 5.14812 0
M  V30 920 O 84.4138 0.29557 5.69634 0
M  V30 921 O 83.3478 2.23168 5.58999 0
M  V30 922 H 87.1738 1.99304 2.29154 0
M  V30 923 H 84.7588 1.02908 1.08307 0
M  V30 924 H 86.6408 0.440992 4.19086 0
M  V30 925 H 85.3158 -0.265649 3.22608 0
M  V30 926 H 84.2228 2.04966 3.12953 0
M  V30 927 H 85.5558 2.68023 4.12825 0
M  V30 928 N 87.2079 -1.17134 1.05439 0
M  V30 929 C 88.4359 -1.91372 0.786414 0
M  V30 930 C 88.8509 -1.76955 -0.658202 0
M  V30 931 O 88.2079 -1.10838 -1.44987 0
M  V30 932 C 88.2589 -3.42356 1.1608 0
M  V30 933 O 87.9799 -3.56332 2.54871 0
M  V30 934 C 89.4809 -4.33663 0.919322 0
M  V30 935 H 86.7009 -0.607118 0.285743 0
M  V30 936 H 89.2449 -1.48525 1.40572 0
M  V30 937 H 87.3999 -3.82939 0.586191 0
M  V30 938 H 87.8139 -4.49896 2.69618 0
M  V30 939 H 89.2879 -5.38099 1.231 0
M  V30 940 H 89.7649 -4.38959 -0.145359 0
M  V30 941 H 90.3709 -3.98796 1.47789 0
M  V30 942 N 88.686 -0.835752 -1.33615 0
M  V30 943 C 89.649 -0.272 -2.2758 0
M  V30 944 C 90.649 0.557487 -1.50827 0
M  V30 945 O 91.839 0.37173 -1.70188 0
M  V30 946 C 88.971 0.617173 -3.35267 0
M  V30 947 H 90.164 -1.10111 -2.78954 0
M  V30 948 H 87.717 -0.608594 -1.43965 0
M  V30 949 H 88.452 1.46884 -2.89129 0
M  V30 950 H 88.237 0.0237066 -3.92093 0
M  V30 951 H 89.727 1.005 -4.05326 0
M  V30 952 N 90.1641 1.46063 -0.591896 0
M  V30 953 C 91.4101 2.02638 -0.0811191 0
M  V30 954 C 91.7431 1.4613 1.27905 0
M  V30 955 O 91.0181 0.629908 1.84017 0
M  V30 956 C 91.3011 3.60091 -0.0252436 0
M  V30 957 C 91.1541 4.26965 -1.41496 0
M  V30 958 C 92.4731 4.3496 0.670685 0
M  V30 959 H 89.5921 0.73635 -0.0309524 0
M  V30 960 H 92.2341 1.741 -0.760859 0
M  V30 961 H 90.3841 3.84535 0.553624 0
M  V30 962 H 92.0561 4.13756 -2.0397 0
M  V30 963 H 90.2991 3.85971 -1.98011 0
M  V30 964 H 90.9701 5.35781 -1.32825 0
M  V30 965 H 93.4461 4.15716 0.178825 0
M  V30 966 H 92.3221 5.44686 0.678837 0
M  V30 967 H 92.5831 4.06685 1.73379 0
M  V30 968 N 91.6422 0.330177 1.54103 0
M  V30 969 C 92.5722 -0.525353 2.27513 0
M  V30 970 C 93.5532 -1.11383 1.2856 0
M  V30 971 O 94.7382 -1.13773 1.57383 0
M  V30 972 C 91.8682 -1.6831 3.03791 0
M  V30 973 C 90.8222 -1.2236 4.10137 0
M  V30 974 C 90.1482 -2.46882 4.74293 0
M  V30 975 C 91.4482 -0.333697 5.21233 0
M  V30 976 H 93.1422 0.087013 2.99274 0
M  V30 977 H 90.6882 0.0432893 1.43935 0
M  V30 978 H 92.6412 -2.28795 3.5388 0
M  V30 979 H 91.3652 -2.32216 2.29659 0
M  V30 980 H 90.0242 -0.64165 3.60941 0
M  V30 981 H 89.6722 -3.09165 3.96769 0
M  V30 982 H 89.3722 -2.16825 5.46133 0
M  V30 983 H 90.8962 -3.08117 5.27159 0
M  V30 984 H 92.3102 -0.845013 5.67038 0
M  V30 985 H 90.7072 -0.125612 5.99969 0
M  V30 986 H 91.7772 0.633724 4.80741 0
M  V30 987 N 93.1203 -1.57491 0.0584922 0
M  V30 988 C 94.3693 -1.92155 -0.613146 0
M  V30 989 C 94.6823 -0.939334 -1.71569 0
M  V30 990 O 95.8883 -1.17829 -2.44599 0
M  V30 991 C 94.3443 -3.41303 -1.14195 0
M  V30 992 C 93.9523 -4.47944 -0.0711265 0
M  V30 993 C 95.6963 -3.84988 -1.78841 0
M  V30 994 C 93.6033 -5.88212 -0.613225 0
M  V30 995 H 92.5333 -0.717162 -0.232796 0
M  V30 996 H 95.1843 -1.83049 0.12857 0
M  V30 997 H 93.5663 -3.45437 -1.93621 0
M  V30 998 H 94.7403 -4.55408 0.702836 0
M  V30 999 H 93.0553 -4.13644 0.478313 0
M  V30 1000 H 95.6523 -4.87159 -2.20408 0
M  V30 1001 H 95.9953 -3.21632 -2.64308 0
M  V30 1002 H 96.5283 -3.83401 -1.06059 0
M  V30 1003 H 93.2673 -6.55183 0.203978 0
M  V30 1004 H 92.7873 -5.84294 -1.35501 0
M  V30 1005 H 94.4663 -6.37687 -1.09383 0
M  V30 1006 N 94.5984 0.214957 -1.56127 0
M  V30 1007 C 95.5084 1.28727 -1.96129 0
M  V30 1008 C 96.5244 1.50916 -0.866044 0
M  V30 1009 O 97.7004 1.63918 -1.17016 0
M  V30 1010 C 94.7654 2.61569 -2.27558 0
M  V30 1011 C 93.8264 2.47625 -3.50685 0
M  V30 1012 C 93.0594 3.74132 -3.80606 0
M  V30 1013 O 93.2824 4.77438 -3.12104 0
M  V30 1014 O 92.2164 3.70849 -4.74083 0
M  V30 1015 H 96.0424 0.977855 -2.87527 0
M  V30 1016 H 93.6274 0.418358 -1.43423 0
M  V30 1017 H 95.5094 3.40012 -2.48938 0
M  V30 1018 H 94.1844 2.92178 -1.39332 0
M  V30 1019 H 93.0914 1.67361 -3.34576 0
M  V30 1020 H 94.4244 2.21954 -4.39315 0
M  V30 1021 N 96.0765 1.50051 0.48192 0
M  V30 1022 C 97.3045 1.64237 1.25832 0
M  V30 1023 C 97.7195 0.321336 1.86045 0
M  V30 1024 O 97.0765 -0.695478 1.68729 0
M  V30 1025 C 97.1275 2.72548 2.37487 0
M  V30 1026 O 96.8485 3.99529 1.79745 0
M  V30 1027 C 98.3495 2.9761 3.28547 0
M  V30 1028 H 95.5695 0.55237 0.380957 0
M  V30 1029 H 98.1135 1.96207 0.576467 0
M  V30 1030 H 96.2685 2.43303 3.01467 0
M  V30 1031 H 96.6825 4.59342 2.5319 0
M  V30 1032 H 98.1565 3.77084 4.03127 0
M  V30 1033 H 98.6335 2.0826 3.86684 0
M  V30 1034 H 99.2395 3.28345 2.70314 0
M  V30 1035 N 97.5546 -0.734337 1.39446 0
M  V30 1036 C 98.4846 -1.86155 1.40955 0
M  V30 1037 C 99.4656 -1.67898 0.272827 0
M  V30 1038 O 100.651 -1.88207 0.478743 0
M  V30 1039 C 97.7806 -3.23912 1.25294 0
M  V30 1040 C 96.7346 -3.56808 2.36373 0
M  V30 1041 C 96.0606 -4.93508 2.058 0
M  V30 1042 C 97.3606 -3.59713 3.78687 0
M  V30 1043 H 99.0546 -1.8515 2.35287 0
M  V30 1044 H 96.6006 -0.889367 1.13253 0
M  V30 1045 H 98.5536 -4.02443 1.2497 0
M  V30 1046 H 97.2776 -3.25446 0.274308 0
M  V30 1047 H 95.9366 -2.80606 2.35914 0
M  V30 1048 H 95.5846 -4.91623 1.06374 0
M  V30 1049 H 95.2846 -5.16486 2.80208 0
M  V30 1050 H 96.8086 -5.74396 2.07128 0
M  V30 1051 H 98.2226 -4.2832 3.81071 0
M  V30 1052 H 96.6196 -3.94209 4.52459 0
M  V30 1053 H 97.6896 -2.59504 4.09617 0
M  V30 1054 N 99.0327 -1.24633 -0.964593 0
M  V30 1055 C 100.279 -1.08949 -1.71049 0
M  V30 1056 C 100.612 0.370302 -1.90637 0
M  V30 1057 O 99.8867 1.27349 -1.47011 0
M  V30 1058 C 100.17 -1.83329 -3.0994 0
M  V30 1059 C 100.023 -3.37077 -2.97824 0
M  V30 1060 C 101.342 -1.60846 -4.09654 0
M  V30 1061 H 98.4607 -0.397178 -0.620821 0
M  V30 1062 H 101.103 -1.5334 -1.12191 0
M  V30 1063 H 99.2527 -1.45597 -3.60186 0
M  V30 1064 H 100.925 -3.84425 -2.5498 0
M  V30 1065 H 99.1677 -3.65298 -2.33965 0
M  V30 1066 H 99.8387 -3.84324 -3.96231 0
M  V30 1067 H 102.315 -1.93674 -3.68279 0
M  V30 1068 H 101.191 -2.1534 -5.04896 0
M  V30 1069 H 101.452 -0.547434 -4.38698 0
M  V30 1070 N 100.511 1.16574 -1.06058 0
M  V30 1071 C 101.739 1.90952 -0.796552 0
M  V30 1072 C 102.154 1.77302 0.648808 0
M  V30 1073 O 101.511 1.11605 1.44397 0
M  V30 1074 C 101.562 3.41736 -1.17894 0
M  V30 1075 O 101.283 3.54975 -2.56758 0
M  V30 1076 C 102.784 4.33169 -0.942308 0
M  V30 1077 H 100.004 0.605594 -0.288959 0
M  V30 1078 H 102.548 1.47777 -1.41358 0
M  V30 1079 H 100.703 3.82623 -0.606491 0
M  V30 1080 H 101.117 4.4846 -2.72 0
M  V30 1081 H 102.591 5.37439 -1.25952 0
M  V30 1082 H 103.068 4.3903 0.122078 0
M  V30 1083 H 103.674 3.98007 -1.49902 0
M  V30 1084 N 101.989 0.842826 1.3317 0
M  V30 1085 C 102.919 0.294028 2.31641 0
M  V30 1086 C 103.9 -0.600401 1.59151 0
M  V30 1087 O 105.085 -0.523124 1.87022 0
M  V30 1088 C 102.215 -0.528416 3.43257 0
M  V30 1089 C 101.169 0.27056 4.27144 0
M  V30 1090 C 100.495 -0.675881 5.30411 0
M  V30 1091 C 101.795 1.48981 5.00602 0
M  V30 1092 H 103.489 1.11681 2.77791 0
M  V30 1093 H 101.035 0.538478 1.33553 0
M  V30 1094 H 102.988 -0.922674 4.11175 0
M  V30 1095 H 101.712 -1.38445 2.95805 0
M  V30 1096 H 100.371 0.646427 3.60856 0
M  V30 1097 H 100.019 -1.52842 4.79216 0
M  V30 1098 H 99.7189 -0.145374 5.8742 0
M  V30 1099 H 101.243 -1.06757 6.01195 0
M  V30 1100 H 102.657 1.16849 5.61266 0
M  V30 1101 H 101.054 1.95739 5.6728 0
M  V30 1102 H 102.124 2.25746 4.29147 0
M  V30 1103 N 103.467 -1.45747 0.599634 0
M  V30 1104 C 104.715 -2.01893 0.0915472 0
M  V30 1105 C 105.036 -1.47155 -1.27946 0
M  V30 1106 O 104.306 -0.66273 -1.84349 0
M  V30 1107 H 102.886 -0.746363 0.0308524 0
M  V30 1108 H 105.548 -1.78645 0.779237 0
M  V30 1109 H 104.644 -3.1208 0.0353086 0
M  V30 1110 N 104.945 -0.338344 -1.53925 0
M  V30 1111 C 105.908 0.508299 -2.23493 0
M  V30 1112 C 106.908 1.03175 -1.23335 0
M  V30 1113 O 108.098 0.921826 -1.47811 0
M  V30 1114 C 105.23 1.70754 -2.95052 0
M  V30 1115 H 106.423 -0.100058 -2.99733 0
M  V30 1116 H 103.976 -0.0896198 -1.56043 0
M  V30 1117 H 104.711 2.35474 -2.22986 0
M  V30 1118 H 104.496 1.33946 -3.68512 0
M  V30 1119 H 105.986 2.30818 -3.48013 0
M  V30 1120 N 106.423 1.57458 -0.0668435 0
M  V30 1121 C 107.333 2.15937 0.916975 0
M  V30 1122 C 108.349 1.12123 1.33058 0
M  V30 1123 O 109.525 1.44366 1.40429 0
M  V30 1124 C 106.59 2.70547 2.16807 0
M  V30 1125 C 105.651 3.89215 1.81135 0
M  V30 1126 C 104.884 4.41211 3.0028 0
M  V30 1127 O 105.107 3.92225 4.14144 0
M  V30 1128 O 104.041 5.32605 2.80384 0
M  V30 1129 H 107.867 3.00354 0.449561 0
M  V30 1130 H 105.452 1.48584 0.155949 0
M  V30 1131 H 107.334 3.0557 2.90181 0
M  V30 1132 H 106.009 1.89192 2.62656 0
M  V30 1133 H 104.916 3.59054 1.05028 0
M  V30 1134 H 106.249 4.71848 1.40073 0
M  V30 1135 N 107.901 -0.206675 1.56239 0
M  V30 1136 C 109.147 -0.930218 1.80208 0
M  V30 1137 C 109.48 -1.83387 0.638981 0
M  V30 1138 O 108.755 -1.91119 -0.361066 0
M  V30 1139 C 109.038 -1.75641 3.1436 0
M  V30 1140 C 108.891 -0.878257 4.41142 0
M  V30 1141 C 110.21 -2.73129 3.45092 0
M  V30 1142 H 107.329 -0.336742 0.655571 0
M  V30 1143 H 109.971 -0.198222 1.88963 0
M  V30 1144 H 108.121 -2.38048 3.07027 0
M  V30 1145 H 109.793 -0.269787 4.6051 0
M  V30 1146 H 108.036 -0.184385 4.33408 0
M  V30 1147 H 108.707 -1.49106 5.3148 0
M  V30 1148 H 111.183 -2.20856 3.52649 0
M  V30 1149 H 110.059 -3.28028 4.40101 0
M  V30 1150 H 110.32 -3.51606 2.68003 0
M  V30 1151 N 109.379 -1.50304 -0.473955 0
M  V30 1152 C 110.311 -1.65109 -1.58971 0
M  V30 1153 C 111.324 -0.532676 -1.53839 0
M  V30 1154 O 112.513 -0.805751 -1.59279 0
M  V30 1155 C 109.613 -1.61684 -2.97845 0
M  V30 1156 C 108.786 -2.8951 -3.27876 0
M  V30 1157 C 107.845 -2.78768 -4.4629 0
M  V30 1158 O 106.871 -3.52722 -4.46739 0
M  V30 1159 N 108.073 -1.9213 -5.47783 0
M  V30 1160 H 110.838 -2.61347 -1.46689 0
M  V30 1161 H 108.399 -1.47732 -0.662324 0
M  V30 1162 H 110.391 -1.52114 -3.75024 0
M  V30 1163 H 108.961 -0.731925 -3.03911 0
M  V30 1164 H 108.181 -3.13228 -2.39336 0
M  V30 1165 H 109.469 -3.74199 -3.4475 0
M  V30 1166 H 108.867 -1.31353 -5.50239 0
M  V30 1167 H 107.424 -1.88466 -6.23958 0
M  V30 1168 N 110.857 0.726932 -1.39834 0
M  V30 1169 C 112.103 1.48771 -1.38704 0
M  V30 1170 C 112.458 1.92394 0.0146387 0
M  V30 1171 O 111.751 1.64474 0.982797 0
M  V30 1172 C 111.945 2.73495 -2.30077 0
M  V30 1173 C 111.774 2.42068 -3.78989 0
M  V30 1174 C 110.544 2.33966 -4.4787 0
M  V30 1175 C 112.742 2.0708 -4.70768 0
M  V30 1176 N 110.724 1.95095 -5.82075 0
M  V30 1177 C 112.095 1.78719 -5.93683 0
M  V30 1178 C 114.15 1.93618 -4.58712 0
M  V30 1179 C 112.853 1.3825 -7.05889 0
M  V30 1180 C 114.879 1.54553 -5.70848 0
M  V30 1181 C 114.241 1.27082 -6.92842 0
M  V30 1182 H 110.34 0.542919 -0.562817 0
M  V30 1183 H 112.924 0.84408 -1.75452 0
M  V30 1184 H 111.095 3.35625 -1.95474 0
M  V30 1185 H 112.827 3.39755 -2.19883 0
M  V30 1186 H 109.582 2.51331 -4.0141 0
M  V30 1187 H 110.006 1.7823 -6.53118 0
M  V30 1188 H 114.648 2.13522 -3.64922 0
M  V30 1189 H 112.366 1.17088 -7.99572 0
M  V30 1190 H 115.952 1.44731 -5.6351 0
M  V30 1191 H 114.832 0.973069 -7.78139 0
M  V30 1192 N 112.336 1.25143 0.95797 0
M  V30 1193 C 113.561 1.12521 1.74223 0
M  V30 1194 C 113.986 -0.317402 1.85403 0
M  V30 1195 O 113.344 -1.2299 1.33204 0
M  V30 1196 C 113.392 1.78062 3.1357 0
M  V30 1197 O 112.496 1.058 3.98598 0
M  V30 1198 H 111.837 0.39304 0.535178 0
M  V30 1199 H 114.367 1.65641 1.201 0
M  V30 1200 H 114.377 1.84213 3.64046 0
M  V30 1201 H 113.052 2.83021 3.04749 0
M  V30 1202 H 111.629 1.07506 3.57067 0
M  V30 1203 N 113.814 -1.1601 1.06675 0
M  V30 1204 C 115.039 -1.91068 0.806706 0
M  V30 1205 C 115.464 -1.77112 -0.633485 0
M  V30 1206 O 114.822 -1.09908 -1.44187 0
M  V30 1207 C 114.87 -3.39655 1.21106 0
M  V30 1208 O 113.974 -4.10893 0.352189 0
M  V30 1209 H 113.315 -0.595125 0.294486 0
M  V30 1210 H 115.845 -1.46955 1.42356 0
M  V30 1211 H 115.855 -3.90434 1.18428 0
M  V30 1212 H 114.53 -3.49132 2.26008 0
M  V30 1213 H 113.107 -3.70285 0.440868 0
M  V30 1214 N 115.292 -0.849877 -1.32721 0
M  V30 1215 C 116.532 -0.457146 -1.99222 0
M  V30 1216 C 116.896 0.968038 -1.6581 0
M  V30 1217 O 118.097 1.46507 -2.25364 0
M  V30 1218 C 116.368 -0.683966 -3.50794 0
M  V30 1219 S 117.927 -0.388095 -4.3708 0
M  V30 1220 H 114.745 -0.171464 -0.690015 0
M  V30 1221 H 117.347 -1.10155 -1.61512 0
M  V30 1222 H 116.051 -1.72038 -3.726 0
M  V30 1223 H 115.582 -0.0258086 -3.93392 0
M  V30 1224 H 117.597 0.787791 -4.89906 0
M  V30 1225 N 116.77 1.45427 -0.607355 0
M  V30 1226 C 117.718 2.32269 0.12411 0
M  V30 1227 C 118.712 1.45955 0.859854 0
M  V30 1228 O 119.918 1.6244 0.775447 0
M  V30 1229 H 116.293 0.749691 0.0588839 0
M  V30 1230 H 118.264 2.91743 -0.626762 0
M  V30 1231 C 117.013 3.29567 1.1082 0
M  V30 1232 H 116.336 3.95978 0.551492 0
M  V30 1233 H 117.776 3.93061 1.58995 0
M  V30 1234 C 116.235 2.56722 2.18164 0
M  V30 1235 O 116.765 2.34842 3.25902 0
M  V30 1236 N 114.971 2.16861 1.93442 0
M  V30 1237 H 114.518 2.34855 1.05834 0
M  V30 1238 H 114.476 1.68444 2.65469 0
M  V30 1239 N 118.248 0.346503 1.53744 0
M  V30 1240 C 119.497 -0.250122 2.00143 0
M  V30 1241 C 119.81 -1.51418 1.23822 0
M  V30 1242 O 121.016 -2.18823 1.60713 0
M  V30 1243 C 119.472 -0.496252 3.56462 0
M  V30 1244 C 119.08 0.752077 4.41642 0
M  V30 1245 C 120.824 -1.05157 4.11269 0
M  V30 1246 C 118.731 0.476583 5.89477 0
M  V30 1247 H 117.661 -0.0972409 0.747703 0
M  V30 1248 H 120.312 0.46229 1.77581 0
M  V30 1249 H 118.694 -1.26944 3.75102 0
M  V30 1250 H 119.868 1.5266 4.34778 0
M  V30 1251 H 118.183 1.22925 3.97842 0
M  V30 1252 H 120.78 -1.27269 5.19333 0
M  V30 1253 H 121.123 -2.00799 3.64672 0
M  V30 1254 H 121.656 -0.339019 3.96353 0
M  V30 1255 H 118.395 1.4028 6.40314 0
M  V30 1256 H 117.915 -0.259794 5.99237 0
M  V30 1257 H 119.594 0.0949315 6.4693 0
M  V30 1258 N 119.726 -1.57421 0.075193 0
M  V30 1259 C 120.973 -1.93618 -0.593146 0
M  V30 1260 C 121.301 -0.955484 -1.69413 0
M  V30 1261 O 120.556 0.0283251 -1.9568 0
M  V30 1262 C 120.855 -3.36428 -1.20626 0
M  V30 1263 C 120.521 -4.50307 -0.231078 0
M  V30 1264 C 119.183 -4.81186 0.0371936 0
M  V30 1265 C 121.535 -5.19374 0.435888 0
M  V30 1266 C 118.863 -5.78466 0.979461 0
M  V30 1267 C 121.215 -6.17665 1.3665 0
M  V30 1268 C 119.879 -6.46958 1.6432 0
M  V30 1269 H 119.149 -0.708499 -0.217047 0
M  V30 1270 H 121.796 -1.90937 0.146793 0
M  V30 1271 H 120.101 -3.35592 -2.02201 0
M  V30 1272 H 121.798 -3.61727 -1.73073 0
M  V30 1273 H 118.388 -4.26227 -0.450357 0
M  V30 1274 H 122.572 -4.95711 0.241748 0
M  V30 1275 H 117.828 -5.99487 1.20106 0
M  V30 1276 H 122.002 -6.70284 1.88924 0
M  V30 1277 H 119.629 -7.2215 2.37494 0
M  V30 1278 N 121.204 0.198386 -1.56346 0
M  V30 1279 C 122.429 0.939682 -1.84891 0
M  V30 1280 C 122.854 1.76202 -0.658369 0
M  V30 1281 O 122.212 1.76993 0.392851 0
M  V30 1282 C 122.26 1.81428 -3.11635 0
M  V30 1283 O 121.364 2.91265 -2.91956 0
M  V30 1284 H 120.705 0.264807 -0.608912 0
M  V30 1285 H 123.235 0.204695 -2.03573 0
M  V30 1286 H 123.245 2.21958 -3.42343 0
M  V30 1287 H 121.92 1.21004 -3.97908 0
M  V30 1288 H 120.497 2.54514 -2.72538 0
M  V30 1289 N 122.682 1.50554 0.465978 0
M  V30 1290 C 123.91 1.65563 1.24083 0
M  V30 1291 C 124.325 0.341051 1.85694 0
M  V30 1292 O 123.682 -0.677543 1.69457 0
M  V30 1293 C 123.733 2.75051 2.34583 0
M  V30 1294 O 123.454 4.01413 1.75497 0
M  V30 1295 C 124.955 3.01078 3.25372 0
M  V30 1296 H 122.175 0.55638 0.375077 0
M  V30 1297 H 124.719 1.96807 0.555624 0
M  V30 1298 H 122.874 2.46486 2.9887 0
M  V30 1299 H 123.288 4.62002 2.48303 0
M  V30 1300 H 124.762 3.81339 3.99105 0
M  V30 1301 H 125.239 2.12349 3.84453 0
M  V30 1302 H 125.845 3.31194 2.66816 0
M  V30 1303 N 124.16 -0.719506 1.40217 0
M  V30 1304 C 125.092 -1.84428 1.36084 0
M  V30 1305 C 126.105 -1.60597 0.266913 0
M  V30 1306 O 127.294 -1.70544 0.526983 0
M  V30 1307 C 124.394 -3.20757 1.094 0
M  V30 1308 C 123.567 -3.71817 2.30372 0
M  V30 1309 C 122.626 -4.86748 1.99907 0
M  V30 1310 O 121.652 -4.99603 2.72737 0
M  V30 1311 N 122.854 -5.7226 0.974635 0
M  V30 1312 H 125.619 -1.88473 2.33019 0
M  V30 1313 H 123.18 -0.900885 1.3452 0
M  V30 1314 H 125.172 -3.95235 0.870116 0
M  V30 1315 H 123.742 -3.11884 0.211452 0
M  V30 1316 H 122.962 -2.88514 2.68614 0
M  V30 1317 H 124.25 -4.02666 3.11026 0
M  V30 1318 H 123.648 -5.6448 0.371368 0
M  V30 1319 H 122.205 -6.46739 0.810656 0
M  V30 1320 N 125.638 -1.25649 -0.95132 0
M  V30 1321 C 126.915 -1.01361 -1.67288 0
M  V30 1322 C 127.295 0.459135 -2.06046 0
M  V30 1323 O 126.643 1.43723 -1.7764 0
M  V30 1324 C 126.853 -1.95256 -2.89268 0
M  V30 1325 C 128.201 -2.23289 -3.61147 0
M  V30 1326 O 129.225 -1.93041 -2.99355 0
M  V30 1327 O 128.084 -2.74741 -4.72419 0
M  V30 1328 H 125.178 -0.38464 -0.732107 0
M  V30 1329 H 127.724 -1.36817 -1.00395 0
M  V30 1330 H 126.496 -2.94685 -2.57442 0
M  V30 1331 H 126.119 -1.60218 -3.6389 0
M  V30 1332 N 127.117 1.15442 -1.07289 0
M  V30 1333 C 128.067 2.18164 -0.662467 0
M  V30 1334 C 129.051 1.57845 0.312074 0
M  V30 1335 O 130.243 1.76552 0.125905 0
M  V30 1336 C 127.372 3.43246 -0.0611295 0
M  V30 1337 C 126.458 4.1062 -1.06077 0
M  V30 1338 N 126.849 4.53491 -2.24008 0
M  V30 1339 C 125.147 4.36949 -0.893964 0
M  V30 1340 C 125.848 5.05731 -2.87422 0
M  V30 1341 N 124.824 4.99236 -2.15091 0
M  V30 1342 H 128.626 2.49038 -1.56068 0
M  V30 1343 H 126.14 1.32003 -0.945988 0
M  V30 1344 H 128.137 4.16145 0.250792 0
M  V30 1345 H 126.797 3.13854 0.832207 0
M  V30 1346 H 127.808 4.46898 -2.6173 0
M  V30 1347 H 124.485 4.17466 -0.0534693 0
M  V30 1348 H 125.875 5.48865 -3.87553 0
M  V30 1349 N 128.595 0.856903 1.32268 0
M  V30 1350 C 129.558 0.308171 2.27119 0
M  V30 1351 C 130.558 -0.533421 1.51695 0
M  V30 1352 O 131.748 -0.344607 1.70757 0
M  V30 1353 C 128.88 -0.563757 3.36206 0
M  V30 1354 H 130.073 1.14535 2.77167 0
M  V30 1355 H 127.626 0.631421 1.42978 0
M  V30 1356 H 128.361 -1.42266 2.91429 0
M  V30 1357 H 128.146 0.0386749 3.92081 0
M  V30 1358 H 129.636 -0.940386 4.06874 0
M  V30 1359 N 130.073 -1.45103 0.615059 0
M  V30 1360 C 131.036 -2.29025 -0.0895485 0
M  V30 1361 C 132.036 -1.40174 -0.787906 0
M  V30 1362 O 133.226 -1.62217 -0.634933 0
M  V30 1363 C 130.358 -3.21376 -1.13711 0
M  V30 1364 H 131.551 -2.92807 0.648382 0
M  V30 1365 H 129.104 -1.51749 0.374444 0
M  V30 1366 H 129.839 -2.6241 -1.90556 0
M  V30 1367 H 129.624 -3.86834 -0.640475 0
M  V30 1368 H 131.114 -3.84459 -1.63036 0
M  V30 1369 N 131.551 -0.354651 -1.53558 0
M  V30 1370 C 132.514 0.484566 -2.24019 0
M  V30 1371 C 133.514 1.01861 -1.24422 0
M  V30 1372 O 134.704 0.906097 -1.4878 0
M  V30 1373 C 131.836 1.67615 -2.96847 0
M  V30 1374 H 133.029 -0.131843 -2.9961 0
M  V30 1375 H 130.582 -0.106165 -1.55939 0
M  V30 1376 H 131.317 2.33095 -2.25471 0
M  V30 1377 H 131.102 1.30029 -3.69912 0
M  V30 1378 H 132.592 2.27114 -3.50441 0
M  V30 1379 N 133.029 1.57378 -0.0835403 0
M  V30 1380 C 133.992 2.12252 0.864959 0
M  V30 1381 C 134.992 1.04916 1.21858 0
M  V30 1382 O 136.182 1.30853 1.14991 0
M  V30 1383 C 133.314 2.63358 2.16461 0
M  V30 1384 H 134.507 2.97371 0.388676 0
M  V30 1385 H 132.06 1.55423 0.165317 0
M  V30 1386 H 132.795 1.81727 2.686 0
M  V30 1387 H 132.58 3.41826 1.92087 0
M  V30 1388 H 134.07 3.05847 2.84337 0
M  V30 1389 N 134.507 -0.190092 1.56449 0
M  V30 1390 C 135.756 -0.907912 1.80111 0
M  V30 1391 C 136.069 -1.84214 0.657619 0
M  V30 1392 O 137.275 -2.60094 0.778663 0
M  V30 1393 C 135.731 -1.66485 3.19078 0
M  V30 1394 C 135.339 -0.7752 4.41242 0
M  V30 1395 C 137.083 -2.37201 3.52045 0
M  V30 1396 C 134.99 -1.53129 5.71231 0
M  V30 1397 H 133.92 -0.34276 0.671589 0
M  V30 1398 H 136.571 -0.161109 1.82791 0
M  V30 1399 H 134.953 -2.45572 3.10661 0
M  V30 1400 H 136.127 -0.0226298 4.60794 0
M  V30 1401 H 134.442 -0.178627 4.16017 0
M  V30 1402 H 137.039 -2.94329 4.46402 0
M  V30 1403 H 137.382 -3.11632 2.76028 0
M  V30 1404 H 137.915 -1.65075 3.61932 0
M  V30 1405 H 134.654 -0.82967 6.50228 0
M  V30 1406 H 134.174 -2.25767 5.55688 0
M  V30 1407 H 135.853 -2.08377 6.12526 0
M  V30 1408 N 135.985 -1.50799 -0.457987 0
M  V30 1409 C 136.948 -1.7005 -1.53674 0
M  V30 1410 C 137.948 -0.570881 -1.50325 0
M  V30 1411 O 139.138 -0.838126 -1.52712 0
M  V30 1412 C 136.27 -1.73788 -2.93276 0
M  V30 1413 H 137.463 -2.66306 -1.37917 0
M  V30 1414 H 135.016 -1.40477 -0.685271 0
M  V30 1415 H 135.751 -0.792717 -3.14462 0
M  V30 1416 H 135.536 -2.55864 -2.97113 0
M  V30 1417 H 137.026 -1.90591 -3.71571 0
M  V30 1418 N 137.463 0.71206 -1.40597 0
M  V30 1419 C 138.41 1.82613 -1.41142 0
M  V30 1420 C 139.38 1.63925 -0.267903 0
M  V30 1421 O 140.565 1.85009 -0.466495 0
M  V30 1422 C 137.705 3.20354 -1.28324 0
M  V30 1423 C 136.818 3.50589 -2.52411 0
M  V30 1424 C 135.953 4.77855 -2.32009 0
M  V30 1425 C 134.992 5.01005 -3.51654 0
M  V30 1426 N 134.129 6.19487 -3.30425 0
M  V30 1427 H 138.969 1.81482 -2.36365 0
M  V30 1428 H 136.506 0.886475 -1.17388 0
M  V30 1429 H 138.464 3.99899 -1.18899 0
M  V30 1430 H 137.094 3.20705 -0.367189 0
M  V30 1431 H 136.146 2.65573 -2.72351 0
M  V30 1432 H 137.458 3.63604 -3.41458 0
M  V30 1433 H 136.612 5.65424 -2.19956 0
M  V30 1434 H 135.351 4.67056 -1.40392 0
M  V30 1435 H 134.356 4.1189 -3.64179 0
M  V30 1436 H 135.581 5.13674 -4.44202 0
M  V30 1437 H 133.527 6.09932 -2.41494 0
M  V30 1438 H 133.444 6.33194 -4.13039 0
M  V30 1439 H 134.712 7.09834 -3.22113 0
M  V30 1440 N 138.941 1.26152 0.944643 0
M  V30 1441 C 139.904 1.07474 2.0244 0
M  V30 1442 C 140.904 0.0242064 1.60782 0
M  V30 1443 O 142.094 0.267302 1.72137 0
M  V30 1444 C 139.226 0.633956 3.34953 0
M  V30 1445 H 140.419 2.03336 2.20442 0
M  V30 1446 H 137.972 1.087 1.12312 0
M  V30 1447 H 138.707 -0.326811 3.22649 0
M  V30 1448 H 138.492 1.39247 3.66542 0
M  V30 1449 H 139.982 0.52501 4.14287 0
M  V30 1450 N 140.419 -1.14872 1.07899 0
M  V30 1451 C 141.667 -1.85422 0.803941 0
M  V30 1452 C 141.988 -1.83051 -0.67211 0
M  V30 1453 O 141.258 -1.27532 -1.48703 0
M  V30 1454 H 139.838 -0.686537 0.294408 0
M  V30 1455 H 142.5 -1.39226 1.3639 0
M  V30 1456 H 141.596 -2.90399 1.14346 0
M  V30 1457 N 141.898 -0.863906 -1.31812 0
M  V30 1458 C 143.147 -0.46801 -1.96195 0
M  V30 1459 C 143.46 0.983474 -1.69077 0
M  V30 1460 O 144.666 1.48523 -2.27273 0
M  V30 1461 C 143.122 -0.785995 -3.51212 0
M  V30 1462 C 142.73 -2.25383 -3.87178 0
M  V30 1463 C 144.474 -0.458274 -4.22019 0
M  V30 1464 C 142.381 -2.51455 -5.3528 0
M  V30 1465 H 141.311 -0.171283 -0.734287 0
M  V30 1466 H 143.962 -1.05597 -1.50072 0
M  V30 1467 H 142.344 -0.127359 -3.95795 0
M  V30 1468 H 143.518 -2.95502 -3.53575 0
M  V30 1469 H 141.833 -2.54698 -3.2942 0
M  V30 1470 H 144.43 -0.630369 -5.30971 0
M  V30 1471 H 144.773 0.600834 -4.11941 0
M  V30 1472 H 145.306 -1.07319 -3.8305 0
M  V30 1473 H 142.045 -3.56025 -5.50387 0
M  V30 1474 H 141.565 -1.85923 -5.70257 0
M  V30 1475 H 143.244 -2.35874 -6.02472 0
M  V30 1476 N 143.376 1.44774 -0.622745 0
M  V30 1477 C 144.787 1.85546 -0.207226 0
M  V30 1478 C 145.138 1.52093 1.23944 0
M  V30 1479 O 144.263 0.95492 1.94191 0
M  V30 1480 C 144.858 3.36781 -0.369313 0
M  V30 1481 C 143.417 3.76399 -0.00836847 0
M  V30 1482 C 142.564 2.68664 -0.686651 0
M  V30 1483 H 145.515 1.3536 -0.828454 0
M  V30 1484 H 145.536 3.78453 0.394162 0
M  V30 1485 H 145.048 3.61098 -1.42231 0
M  V30 1486 H 143.149 3.57698 1.04322 0
M  V30 1487 H 143.262 4.7732 -0.412584 0
M  V30 1488 H 141.626 2.54404 -0.122777 0
M  V30 1489 H 142.409 2.95815 -1.74208 0
M  V30 1490 N 144.854 0.36279 1.53368 0
M  V30 1491 C 146.1 -0.228113 2.01513 0
M  V30 1492 C 146.433 -1.48648 1.2497 0
M  V30 1493 O 145.708 -1.91459 0.342616 0
M  V30 1494 C 145.991 -0.522884 3.56284 0
M  V30 1495 C 145.844 0.74892 4.43521 0
M  V30 1496 C 147.163 -1.32461 4.19693 0
M  V30 1497 H 144.282 -0.0814343 0.732487 0
M  V30 1498 H 146.924 0.48713 1.83649 0
M  V30 1499 H 145.074 -1.1322 3.71636 0
M  V30 1500 H 146.746 1.38648 4.39971 0
M  V30 1501 H 144.989 1.36986 4.11603 0
M  V30 1502 H 145.66 0.497667 5.49752 0
M  V30 1503 H 148.136 -0.809203 4.08156 0
M  V30 1504 H 147.012 -1.49961 5.28018 0
M  V30 1505 H 147.273 -2.33232 3.75573 0
M  V30 1506 N 146.332 -1.57332 0.0918853 0
M  V30 1507 C 147.562 -1.98286 -0.580205 0
M  V30 1508 C 147.97 -0.969713 -1.6246 0
M  V30 1509 O 147.313 0.0493501 -1.83634 0
M  V30 1510 C 147.375 -3.35603 -1.28882 0
M  V30 1511 C 147.039 -4.55285 -0.395559 0
M  V30 1512 C 148.036 -5.18687 0.355002 0
M  V30 1513 C 145.721 -5.01314 -0.314556 0
M  V30 1514 C 147.715 -6.26484 1.17458 0
M  V30 1515 C 145.402 -6.08979 0.508677 0
M  V30 1516 C 146.4 -6.71429 1.2519 0
M  V30 1517 O 146.088 -7.77018 2.06151 0
M  V30 1518 H 145.82 -0.656678 -0.160466 0
M  V30 1519 H 148.374 -2.04721 0.16688 0
M  V30 1520 H 146.604 -3.25842 -2.08241 0
M  V30 1521 H 148.293 -3.61026 -1.85512 0
M  V30 1522 H 149.059 -4.84058 0.302134 0
M  V30 1523 H 144.938 -4.5247 -0.882697 0
M  V30 1524 H 148.482 -6.75159 1.75518 0
M  V30 1525 H 144.379 -6.4304 0.563037 0
M  V30 1526 H 145.147 -7.93991 1.98799 0
M  V30 1527 N 147.81 0.181792 -1.56548 0
M  V30 1528 C 148.773 1.20894 -1.94724 0
M  V30 1529 C 149.773 1.37738 -0.829747 0
M  V30 1530 O 150.963 1.35323 -1.09697 0
M  V30 1531 C 148.095 2.57593 -2.23291 0
M  V30 1532 H 149.288 0.882275 -2.86629 0
M  V30 1533 H 146.841 0.423838 -1.50444 0
M  V30 1534 H 147.576 2.95291 -1.34067 0
M  V30 1535 H 147.361 2.46735 -3.04736 0
M  V30 1536 H 148.851 3.31637 -2.53785 0
M  V30 1537 N 149.288 1.51039 0.449983 0
M  V30 1538 C 150.534 1.64287 1.19923 0
M  V30 1539 C 150.889 0.348701 1.89214 0
M  V30 1540 O 150.182 -0.654751 1.80065 0
M  V30 1541 C 150.376 2.77556 2.25161 0
M  V30 1542 C 150.205 4.17862 1.66198 0
M  V30 1543 C 148.975 4.83976 1.45243 0
M  V30 1544 C 151.173 5.01388 1.14519 0
M  V30 1545 N 149.155 6.08433 0.817437 0
M  V30 1546 C 150.526 6.16743 0.634705 0
M  V30 1547 C 152.581 4.87008 1.03574 0
M  V30 1548 C 151.284 7.19295 0.0255452 0
M  V30 1549 C 153.31 5.89757 0.440489 0
M  V30 1550 C 152.672 7.04375 -0.0595112 0
M  V30 1551 H 148.771 0.655161 0.426952 0
M  V30 1552 H 151.355 1.88228 0.49781 0
M  V30 1553 H 149.526 2.553 2.92706 0
M  V30 1554 H 151.258 2.80049 2.92155 0
M  V30 1555 H 148.013 4.41627 1.71063 0
M  V30 1556 H 148.437 6.75017 0.517747 0
M  V30 1557 H 153.079 3.9866 1.4082 0
M  V30 1558 H 150.797 8.07302 -0.359071 0
M  V30 1559 H 154.383 5.80698 0.35788 0
M  V30 1560 H 153.263 7.82521 -0.512882 0
M  V30 1561 N 150.766 -0.704594 1.40972 0
M  V30 1562 C 151.713 -1.81862 1.42109 0
M  V30 1563 C 152.683 -1.63781 0.276593 0
M  V30 1564 O 153.868 -1.84759 0.4763 0
M  V30 1565 C 151.008 -3.19669 1.30022 0
M  V30 1566 C 150.121 -3.49246 2.54267 0
M  V30 1567 C 149.256 -4.76618 2.3454 0
M  V30 1568 C 148.295 -4.99133 3.54306 0
M  V30 1569 N 147.432 -6.17726 3.33706 0
M  V30 1570 H 152.272 -1.80226 2.37324 0
M  V30 1571 H 149.809 -0.880238 1.17857 0
M  V30 1572 H 151.767 -3.99263 1.21018 0
M  V30 1573 H 150.397 -3.20506 0.384192 0
M  V30 1574 H 149.449 -2.64125 2.73756 0
M  V30 1575 H 150.761 -3.61788 3.43381 0
M  V30 1576 H 149.915 -5.64249 2.22952 0
M  V30 1577 H 148.654 -4.66305 1.42867 0
M  V30 1578 H 147.659 -4.09953 3.66359 0
M  V30 1579 H 148.884 -5.11311 4.4692 0
M  V30 1580 H 146.83 -6.08642 2.44725 0
M  V30 1581 H 146.747 -6.30995 4.16391 0
M  V30 1582 H 148.015 -7.08115 3.25873 0
M  V30 1583 N 152.244 -1.26651 -0.937939 0
M  V30 1584 C 153.492 -1.12165 -1.68118 0
M  V30 1585 C 153.813 0.334983 -1.92101 0
M  V30 1586 O 153.083 1.23583 -1.52 0
M  V30 1587 H 151.663 -0.412093 -0.623048 0
M  V30 1588 H 154.325 -1.59027 -1.12678 0
M  V30 1589 H 153.421 -1.64289 -2.6536 0
M  V30 1590 N 153.722 1.14298 -1.08507 0
M  V30 1591 C 154.632 2.23027 -0.727753 0
M  V30 1592 C 155.648 1.71952 0.26619 0
M  V30 1593 O 156.824 2.011 0.109882 0
M  V30 1594 C 153.889 3.46403 -0.143541 0
M  V30 1595 C 152.95 4.12413 -1.19223 0
M  V30 1596 C 152.183 5.29899 -0.635798 0
M  V30 1597 O 152.406 5.67796 0.544393 0
M  V30 1598 O 151.34 5.85717 -1.38634 0
M  V30 1599 H 155.166 2.55945 -1.63481 0
M  V30 1600 H 152.751 1.22248 -0.858817 0
M  V30 1601 H 154.633 4.21018 0.179404 0
M  V30 1602 H 153.308 3.15206 0.736659 0
M  V30 1603 H 152.215 3.39667 -1.56772 0
M  V30 1604 H 153.548 4.47718 -2.04474 0
M  V30 1605 N 155.201 0.870884 1.31352 0
M  V30 1606 C 156.429 0.49677 2.00848 0
M  V30 1607 C 156.844 -0.910998 1.65367 0
M  V30 1608 O 156.201 -1.59696 0.883374 0
M  V30 1609 C 156.252 0.645308 3.55694 0
M  V30 1610 O 155.973 1.99764 3.89905 0
M  V30 1611 C 157.474 0.272326 4.42463 0
M  V30 1612 H 154.694 0.193462 0.642506 0
M  V30 1613 H 157.238 1.1723 1.67563 0
M  V30 1614 H 155.393 0.0173176 3.87396 0
M  V30 1615 H 155.807 2.00607 4.84621 0
M  V30 1616 H 157.281 0.427208 5.50344 0
M  V30 1617 H 157.758 -0.788587 4.32062 0
M  V30 1618 H 158.364 0.876054 4.1618 0
M  V30 1619 N 156.679 -1.44442 0.630414 0
M  V30 1620 C 157.956 -1.9549 0.0655657 0
M  V30 1621 C 158.336 -1.5724 -1.40851 0
M  V30 1622 O 157.684 -0.846116 -2.12257 0
M  V30 1623 C 157.894 -3.47812 0.287691 0
M  V30 1624 C 159.242 -4.24216 0.180513 0
M  V30 1625 O 160.266 -3.55526 0.219019 0
M  V30 1626 O 159.125 -5.46434 0.0848493 0
M  V30 1627 H 156.219 -0.826688 -0.0227177 0
M  V30 1628 H 158.765 -1.54496 0.702068 0
M  V30 1629 H 157.537 -3.687 1.31056 0
M  V30 1630 H 157.16 -3.95751 -0.382984 0
M  V30 1631 N 158.157 -0.370918 -1.53173 0
M  V30 1632 C 159.067 0.480823 -2.2962 0
M  V30 1633 C 160.083 1.08789 -1.35798 0
M  V30 1634 O 161.259 1.09768 -1.68858 0
M  V30 1635 C 158.324 1.60227 -3.07454 0
M  V30 1636 C 157.385 1.0222 -4.16953 0
M  V30 1637 C 156.618 2.0902 -4.91066 0
M  V30 1638 O 156.841 3.30222 -4.65091 0
M  V30 1639 O 155.775 1.71778 -5.76867 0
M  V30 1640 H 159.601 -0.141421 -3.03371 0
M  V30 1641 H 157.186 -0.135146 -1.48787 0
M  V30 1642 H 159.068 2.25417 -3.56041 0
M  V30 1643 H 157.743 2.20982 -2.36535 0
M  V30 1644 H 156.65 0.334064 -3.72605 0
M  V30 1645 H 157.983 0.459131 -4.90054 0
M  V30 1646 N 159.635 1.57281 -0.100228 0
M  V30 1647 C 160.545 2.17833 0.870965 0
M  V30 1648 C 161.561 1.14921 1.30649 0
M  V30 1649 O 162.737 1.47313 1.37335 0
M  V30 1650 C 159.802 2.75085 2.1102 0
M  V30 1651 C 158.863 3.9297 1.72838 0
M  V30 1652 C 158.096 4.47482 2.90854 0
M  V30 1653 O 158.319 4.00922 4.05731 0
M  V30 1654 O 157.253 5.38433 2.69023 0
M  V30 1655 H 161.079 3.0124 0.38575 0
M  V30 1656 H 158.664 1.48881 0.124397 0
M  V30 1657 H 160.546 3.11656 2.83634 0
M  V30 1658 H 159.221 1.94721 2.58584 0
M  V30 1659 H 158.128 3.61201 0.973883 0
M  V30 1660 H 159.461 4.74713 1.30033 0
M  V30 1661 N 161.113 -0.173488 1.56642 0
M  V30 1662 C 162.343 -0.904781 1.85734 0
M  V30 1663 C 162.751 -1.76431 0.68328 0
M  V30 1664 O 162.094 -1.802 -0.356865 0
M  V30 1665 C 162.156 -1.83382 3.09211 0
M  V30 1666 C 161.82 -1.15411 4.42187 0
M  V30 1667 C 162.817 -0.520609 5.17287 0
M  V30 1668 C 160.502 -1.15151 4.88923 0
M  V30 1669 C 162.496 0.106412 6.37311 0
M  V30 1670 C 160.183 -0.520664 6.08878 0
M  V30 1671 C 161.181 0.107196 6.82916 0
M  V30 1672 O 160.869 0.728102 8.00596 0
M  V30 1673 H 160.601 -0.268408 0.62043 0
M  V30 1674 H 163.155 -0.179096 2.04618 0
M  V30 1675 H 161.385 -2.59976 2.86268 0
M  V30 1676 H 163.074 -2.43476 3.24768 0
M  V30 1677 H 163.84 -0.514606 4.82262 0
M  V30 1678 H 159.719 -1.62961 4.31236 0
M  V30 1679 H 163.263 0.597081 6.9504 0
M  V30 1680 H 159.16 -0.524242 6.43368 0
M  V30 1681 H 159.928 0.627138 8.16094 0
M  V30 1682 N 162.591 -1.51276 -0.441967 0
M  V30 1683 C 163.521 -1.752 -1.54361 0
M  V30 1684 C 164.502 -0.601682 -1.59103 0
M  V30 1685 O 165.687 -0.843913 -1.74905 0
M  V30 1686 C 162.817 -1.87282 -2.92477 0
M  V30 1687 C 161.771 -3.02687 -3.02596 0
M  V30 1688 C 161.097 -2.99947 -4.42647 0
M  V30 1689 C 162.397 -4.4273 -2.77106 0
M  V30 1690 H 164.091 -2.67442 -1.34592 0
M  V30 1691 H 161.637 -1.28694 -0.646048 0
M  V30 1692 H 163.59 -2.02602 -3.695 0
M  V30 1693 H 162.314 -0.916844 -3.13467 0
M  V30 1694 H 160.973 -2.87065 -2.28012 0
M  V30 1695 H 160.621 -2.02136 -4.60597 0
M  V30 1696 H 160.321 -3.77439 -4.50348 0
M  V30 1697 H 161.845 -3.17354 -5.2165 0
M  V30 1698 H 163.259 -4.58727 -3.43864 0
M  V30 1699 H 161.656 -5.21893 -2.96222 0
M  V30 1700 H 162.726 -4.53087 -1.72744 0
M  V30 1701 N 164.069 0.697108 -1.41344 0
M  V30 1702 C 165.315 1.45796 -1.41828 0
M  V30 1703 C 165.67 1.92382 -0.0261743 0
M  V30 1704 O 164.963 1.66522 0.947688 0
M  V30 1705 C 165.157 2.68553 -2.35826 0
M  V30 1706 C 164.986 2.33975 -3.84039 0
M  V30 1707 C 163.756 2.24414 -4.52732 0
M  V30 1708 C 165.954 1.97048 -4.75054 0
M  V30 1709 N 163.936 1.82705 -5.86082 0
M  V30 1710 C 165.307 1.66086 -5.9734 0
M  V30 1711 C 167.362 1.83845 -4.62715 0
M  V30 1712 C 166.065 1.23246 -7.08663 0
M  V30 1713 C 168.091 1.4241 -5.73998 0
M  V30 1714 C 167.453 1.12357 -6.95381 0
M  V30 1715 H 163.552 0.530859 -0.574206 0
M  V30 1716 H 166.136 0.806674 -1.77203 0
M  V30 1717 H 164.307 3.31404 -2.02549 0
M  V30 1718 H 166.039 3.35015 -2.2704 0
M  V30 1719 H 162.794 2.4276 -4.0665 0
M  V30 1720 H 163.218 1.64337 -6.56751 0
M  V30 1721 H 167.86 2.05734 -3.69369 0
M  V30 1722 H 165.578 1.00102 -8.01876 0
M  V30 1723 H 169.164 1.32746 -5.66454 0
M  V30 1724 H 168.044 0.807795 -7.80028 0
M  V30 1725 N 165.547 1.27147 0.931209 0
M  V30 1726 C 166.787 1.14511 1.69312 0
M  V30 1727 C 167.151 -0.304638 1.89568 0
M  V30 1728 O 168.352 -0.553343 2.63043 0
M  V30 1729 C 166.623 1.90349 3.02493 0
M  V30 1730 S 168.182 1.93884 3.93642 0
M  V30 1731 H 165 0.408858 0.581684 0
M  V30 1732 H 167.602 1.61006 1.10893 0
M  V30 1733 H 166.306 2.94877 2.85439 0
M  V30 1734 H 165.837 1.44333 3.65966 0
M  V30 1735 H 167.852 1.03273 4.85334 0
M  V30 1736 N 167.025 -1.13721 1.09112 0
M  V30 1737 C 168.274 -1.84275 0.82009 0
M  V30 1738 C 168.587 -1.84253 -0.656509 0
M  V30 1739 O 169.793 -2.50668 -1.04296 0
M  V30 1740 C 168.249 -3.30825 1.41714 0
M  V30 1741 C 167.857 -3.39244 2.92605 0
M  V30 1742 C 169.601 -4.06443 1.22492 0
M  V30 1743 C 167.508 -4.80047 3.45411 0
M  V30 1744 H 166.438 -0.690387 0.30312 0
M  V30 1745 H 169.089 -1.28146 1.31343 0
M  V30 1746 H 167.471 -3.86737 0.851498 0
M  V30 1747 H 168.645 -2.93344 3.55367 0
M  V30 1748 H 166.96 -2.77088 3.10823 0
M  V30 1749 H 169.557 -5.10387 1.59402 0
M  V30 1750 H 169.9 -4.15972 0.165299 0
M  V30 1751 H 170.433 -3.56852 1.75788 0
M  V30 1752 H 167.172 -4.75709 4.50978 0
M  V30 1753 H 166.692 -5.26455 2.87411 0
M  V30 1754 H 168.371 -5.48957 3.42425 0
M  V30 1755 N 168.503 -0.877838 -1.30888 0
M  V30 1756 C 169.413 -0.343096 -2.32078 0
M  V30 1757 C 170.429 0.551022 -1.65045 0
M  V30 1758 O 171.605 0.445854 -1.96403 0
M  V30 1759 C 168.67 0.439905 -3.43898 0
M  V30 1760 C 167.731 -0.483111 -4.26573 0
M  V30 1761 C 166.964 0.262616 -5.33053 0
M  V30 1762 O 167.187 1.48967 -5.50604 0
M  V30 1763 O 166.121 -0.383593 -6.00676 0
M  V30 1764 H 169.947 -1.18203 -2.79753 0
M  V30 1765 H 167.532 -0.64145 -1.34929 0
M  V30 1766 H 169.414 0.883504 -4.12034 0
M  V30 1767 H 168.089 1.25526 -2.98371 0
M  V30 1768 H 166.996 -0.975374 -3.61161 0
M  V30 1769 H 168.329 -1.26427 -4.75686 0
M  V30 1770 N 169.982 1.44106 -0.638065 0
M  V30 1771 C 170.914 2.28976 0.101205 0
M  V30 1772 C 171.927 1.4167 0.802088 0
M  V30 1773 O 173.116 1.65755 0.662375 0
M  V30 1774 C 170.216 3.18217 1.16581 0
M  V30 1775 C 169.389 4.33978 0.546066 0
M  V30 1776 C 168.448 5.04202 1.50554 0
M  V30 1777 O 167.474 5.59986 1.01999 0
M  V30 1778 N 168.676 5.06296 2.8398 0
M  V30 1779 H 171.441 2.93064 -0.627186 0
M  V30 1780 H 169.002 1.54629 -0.479731 0
M  V30 1781 H 170.994 3.62061 1.80815 0
M  V30 1782 H 169.564 2.55833 1.79634 0
M  V30 1783 H 168.784 3.93239 -0.275046 0
M  V30 1784 H 170.072 5.08675 0.112793 0
M  V30 1785 H 169.47 4.62319 3.26002 0
M  V30 1786 H 168.027 5.53907 3.43556 0
M  V30 1787 N 171.46 0.379036 1.52974 0
M  V30 1788 C 172.688 -0.20679 2.05864 0
M  V30 1789 C 173.103 -1.41356 1.25155 0
M  V30 1790 O 172.46 -1.8009 0.295588 0
M  V30 1791 C 172.511 -0.587045 3.56702 0
M  V30 1792 O 172.232 0.571776 4.34353 0
M  V30 1793 C 173.733 -1.22983 4.25899 0
M  V30 1794 H 170.953 -0.0336123 0.670158 0
M  V30 1795 H 173.497 0.541298 1.97206 0
M  V30 1796 H 171.652 -1.28504 3.65466 0
M  V30 1797 H 172.066 0.261544 5.23847 0
M  V30 1798 H 173.54 -1.44635 5.32715 0
M  V30 1799 H 174.017 -2.19416 3.80465 0
M  V30 1800 H 174.623 -0.572892 4.21424 0
M  V30 1801 N 172.938 -1.57226 0.108567 0
M  V30 1802 C 173.868 -2.17778 -0.84232 0
M  V30 1803 C 174.849 -1.11487 -1.2847 0
M  V30 1804 O 176.034 -1.39681 -1.34918 0
M  V30 1805 C 173.164 -2.76888 -2.09644 0
M  V30 1806 C 172.118 -3.88669 -1.79221 0
M  V30 1807 C 171.444 -4.34541 -3.11574 0
M  V30 1808 C 172.744 -5.11251 -1.06864 0
M  V30 1809 H 174.438 -2.97489 -0.337774 0
M  V30 1810 H 171.984 -1.43097 -0.161025 0
M  V30 1811 H 173.937 -3.17904 -2.76614 0
M  V30 1812 H 172.661 -1.94451 -2.62405 0
M  V30 1813 H 171.32 -3.48213 -1.14644 0
M  V30 1814 H 170.968 -3.48977 -3.62249 0
M  V30 1815 H 170.668 -5.09914 -2.91996 0
M  V30 1816 H 172.192 -4.782 -3.7968 0
M  V30 1817 H 173.606 -5.49352 -1.63968 0
M  V30 1818 H 172.003 -5.9214 -0.974178 0
M  V30 1819 H 173.073 -4.8487 -0.0536168 0
M  V30 1820 N 174.416 0.165178 -1.56732 0
M  V30 1821 C 175.646 0.894919 -1.86212 0
M  V30 1822 C 176.054 1.76066 -0.692627 0
M  V30 1823 O 175.397 1.80387 0.347303 0
M  V30 1824 C 175.459 1.8174 -3.10179 0
M  V30 1825 C 175.123 1.13064 -4.42793 0
M  V30 1826 C 176.12 0.493169 -5.17556 0
M  V30 1827 C 173.805 1.12556 -4.89527 0
M  V30 1828 C 175.799 -0.140209 -6.37246 0
M  V30 1829 C 173.486 0.488366 -6.09145 0
M  V30 1830 C 174.484 -0.143411 -6.82849 0
M  V30 1831 O 174.172 -0.77055 -8.00199 0
M  V30 1832 H 173.904 0.265114 -0.621844 0
M  V30 1833 H 176.458 0.168242 -2.0471 0
M  V30 1834 H 174.688 2.58455 -2.87642 0
M  V30 1835 H 176.377 2.4175 -3.26055 0
M  V30 1836 H 177.143 0.489023 -4.82528 0
M  V30 1837 H 173.022 1.60672 -4.32094 0
M  V30 1838 H 176.566 -0.633932 -6.94714 0
M  V30 1839 H 172.463 0.490116 -6.43637 0
M  V30 1840 H 173.231 -0.670408 -8.1575 0
M  V30 1841 N 175.894 1.51508 0.433938 0
M  V30 1842 C 177.141 1.64345 1.18309 0
M  V30 1843 C 177.469 0.361315 1.91115 0
M  V30 1844 O 176.724 -0.654753 1.84422 0
M  V30 1845 C 177.023 2.79928 2.22205 0
M  V30 1846 C 176.689 4.19078 1.66387 0
M  V30 1847 C 175.351 4.56932 1.50887 0
M  V30 1848 C 177.703 5.05894 1.25381 0
M  V30 1849 C 175.031 5.79305 0.928608 0
M  V30 1850 C 177.383 6.2885 0.687823 0
M  V30 1851 C 176.047 6.65473 0.519755 0
M  V30 1852 H 175.317 0.601381 0.432923 0
M  V30 1853 H 177.964 1.85549 0.473676 0
M  V30 1854 H 176.269 2.52959 2.99197 0
M  V30 1855 H 177.966 2.87059 2.79997 0
M  V30 1856 H 174.556 3.89234 1.79428 0
M  V30 1857 H 178.74 4.77253 1.36175 0
M  V30 1858 H 173.996 6.06324 0.786186 0
M  V30 1859 H 178.17 6.95461 0.361581 0
M  V30 1860 H 175.797 7.6017 0.0679979 0
M  V30 1861 N 177.372 -0.689602 1.41712 0
M  V30 1862 C 178.319 -1.80345 1.44029 0
M  V30 1863 C 179.289 -1.63478 0.293948 0
M  V30 1864 O 180.474 -1.84244 0.495869 0
M  V30 1865 C 177.614 -3.18272 1.33405 0
M  V30 1866 C 176.727 -3.46529 2.57956 0
M  V30 1867 C 175.862 -4.74103 2.39582 0
M  V30 1868 C 174.901 -4.95347 3.5958 0
M  V30 1869 N 174.038 -6.14151 3.40239 0
M  V30 1870 H 178.878 -1.77698 2.39222 0
M  V30 1871 H 176.415 -0.867688 1.18784 0
M  V30 1872 H 178.373 -3.97956 1.25246 0
M  V30 1873 H 177.003 -3.2008 0.418164 0
M  V30 1874 H 176.055 -2.61207 2.76542 0
M  V30 1875 H 177.367 -3.58126 3.47199 0
M  V30 1876 H 176.521 -5.61853 2.28924 0
M  V30 1877 H 175.26 -4.64763 1.47805 0
M  V30 1878 H 174.265 -4.06044 3.70686 0
M  V30 1879 H 175.49 -5.06542 4.52318 0
M  V30 1880 H 173.436 -6.06013 2.51167 0
M  V30 1881 H 173.353 -6.26543 4.23061 0
M  V30 1882 H 174.621 -7.04619 3.33365 0
M  V30 1883 N 178.85 -1.27639 -0.924453 0
M  V30 1884 C 180.127 -1.04887 -1.651 0
M  V30 1885 C 180.507 0.415327 -2.06974 0
M  V30 1886 O 179.855 1.39923 -1.80648 0
M  V30 1887 C 180.065 -2.01348 -2.85061 0
M  V30 1888 C 181.413 -2.30899 -3.56329 0
M  V30 1889 O 182.437 -1.99348 -2.95193 0
M  V30 1890 O 181.296 -2.84699 -4.66485 0
M  V30 1891 H 178.39 -0.400083 -0.723784 0
M  V30 1892 H 180.936 -1.38916 -0.974703 0
M  V30 1893 H 179.708 -3.0008 -2.51133 0
M  V30 1894 H 179.331 -1.679 -3.6041 0
M  V30 1895 N 180.328 1.1314 -1.09713 0
M  V30 1896 C 181.576 1.84119 -0.833338 0
M  V30 1897 C 181.897 1.84097 0.642904 0
M  V30 1898 O 181.167 1.29881 1.46655 0
M  V30 1899 H 179.747 0.681766 -0.305293 0
M  V30 1900 H 182.409 1.37038 -1.38588 0
M  V30 1901 H 181.505 2.88543 -1.18951 0
M  V30 1902 N 181.806 0.884767 1.30421 0
M  V30 1903 C 183.217 0.553656 1.78302 0
M  V30 1904 C 183.568 -0.930153 1.7275 0
M  V30 1905 O 182.693 -1.72681 1.30423 0
M  V30 1906 C 183.288 0.998234 3.2376 0
M  V30 1907 C 181.847 0.71854 3.69478 0
M  V30 1908 C 180.994 1.18132 2.50879 0
M  V30 1909 H 183.945 1.06901 1.17294 0
M  V30 1910 H 183.966 0.327118 3.79091 0
M  V30 1911 H 183.478 2.0782 3.27769 0
M  V30 1912 H 181.579 -0.349444 3.70958 0
M  V30 1913 H 181.692 1.30595 4.60958 0
M  V30 1914 H 180.056 0.600669 2.47516 0
M  V30 1915 H 180.839 2.26902 2.57624 0
M  V30 1916 N 183.284 -1.43765 0.645699 0
M  V30 1917 C 184.214 -2.33471 -0.0370477 0
M  V30 1918 C 185.195 -1.49042 -0.819779 0
M  V30 1919 O 186.38 -1.77726 -0.782758 0
M  V30 1920 C 183.51 -3.32311 -1.0093 0
M  V30 1921 C 182.464 -4.2667 -0.337201 0
M  V30 1922 C 181.79 -5.1549 -1.42037 0
M  V30 1923 C 183.09 -5.16657 0.765706 0
M  V30 1924 H 184.784 -2.90809 0.712069 0
M  V30 1925 H 182.33 -1.39834 0.343876 0
M  V30 1926 H 184.283 -3.9396 -1.49578 0
M  V30 1927 H 183.007 -2.73213 -1.78948 0
M  V30 1928 H 181.666 -3.66374 0.128771 0
M  V30 1929 H 181.314 -4.52735 -2.1918 0
M  V30 1930 H 181.014 -5.79438 -0.975966 0
M  V30 1931 H 182.538 -5.80012 -1.90838 0
M  V30 1932 H 183.952 -5.72158 0.361702 0
M  V30 1933 H 182.349 -5.89286 1.13413 0
M  V30 1934 H 183.419 -4.56796 1.62683 0
M  V30 1935 N 184.763 -0.387143 -1.52771 0
M  V30 1936 C 185.711 0.463953 -2.27926 0
M  V30 1937 C 186.705 1.06493 -1.31741 0
M  V30 1938 O 187.911 1.00565 -1.49287 0
M  V30 1939 H 184.286 0.16837 -0.732909 0
M  V30 1940 H 186.257 -0.19141 -2.97785 0
M  V30 1941 C 185.006 1.5803 -3.09713 0
M  V30 1942 H 184.329 1.12718 -3.83581 0
M  V30 1943 H 185.769 2.15008 -3.65442 0
M  V30 1944 C 184.228 2.53509 -2.2189 0
M  V30 1945 O 184.758 3.56863 -1.84422 0
M  V30 1946 N 182.964 2.23199 -1.86093 0
M  V30 1947 H 182.511 1.39185 -2.16761 0
M  V30 1948 H 182.469 2.87333 -1.27621 0
M  V30 1949 N 186.241 1.57166 -0.116904 0
M  V30 1950 C 187.174 2.10912 0.871291 0
M  V30 1951 C 188.152 1.025 1.26224 0
M  V30 1952 O 189.336 1.3014 1.36366 0
M  V30 1953 C 186.463 2.6041 2.16574 0
M  V30 1954 C 185.509 3.80687 1.92302 0
M  V30 1955 S 186.342 5.23199 1.14119 0
M  V30 1956 C 187.498 5.76064 2.44748 0
M  V30 1957 H 187.731 2.94401 0.414138 0
M  V30 1958 H 185.264 1.54096 0.096829 0
M  V30 1959 H 187.222 2.89583 2.9095 0
M  V30 1960 H 185.883 1.77106 2.59408 0
M  V30 1961 H 185.076 4.13462 2.8821 0
M  V30 1962 H 184.678 3.5212 1.26047 0
M  V30 1963 H 186.97 5.8566 3.406 0
M  V30 1964 H 187.913 6.74184 2.16521 0
M  V30 1965 H 188.321 5.04117 2.54019 0
M  V30 1966 N 187.719 -0.156864 1.56817 0
M  V30 1967 C 188.968 -0.869504 1.81996 0
M  V30 1968 C 189.281 -1.82777 0.696545 0
M  V30 1969 O 190.487 -2.58384 0.833658 0
M  V30 1970 C 188.943 -1.59679 3.22538 0
M  V30 1971 C 188.551 -0.681431 4.42787 0
M  V30 1972 C 190.295 -2.2968 3.56997 0
M  V30 1973 C 188.202 -1.40978 5.74351 0
M  V30 1974 H 187.132 -0.328438 0.678708 0
M  V30 1975 H 189.783 -0.1223 1.83092 0
M  V30 1976 H 188.165 -2.38927 3.158 0
M  V30 1977 H 189.339 0.0751166 4.60739 0
M  V30 1978 H 187.654 -0.0903431 4.16302 0
M  V30 1979 H 190.251 -2.84794 4.52544 0
M  V30 1980 H 190.594 -3.05707 2.82576 0
M  V30 1981 H 191.127 -1.57361 3.65352 0
M  V30 1982 H 187.866 -0.691561 6.51842 0
M  V30 1983 H 187.386 -2.13929 5.60352 0
M  V30 1984 H 189.065 -1.95337 6.16808 0
M  V30 1985 N 189.197 -1.51736 -0.425897 0
M  V30 1986 C 190.127 -1.76827 -1.52494 0
M  V30 1987 C 191.108 -0.618524 -1.58456 0
M  V30 1988 O 192.293 -0.862416 -1.74 0
M  V30 1989 C 189.423 -1.90374 -2.90474 0
M  V30 1990 C 188.377 -3.0588 -2.99369 0
M  V30 1991 C 187.703 -3.04625 -4.3944 0
M  V30 1992 C 189.003 -4.45644 -2.72394 0
M  V30 1993 H 190.697 -2.68855 -1.31748 0
M  V30 1994 H 188.243 -1.29372 -0.632362 0
M  V30 1995 H 190.196 -2.0651 -3.6733 0
M  V30 1996 H 188.92 -0.95004 -3.12477 0
M  V30 1997 H 187.579 -2.89467 -2.24954 0
M  V30 1998 H 187.227 -2.0701 -4.58428 0
M  V30 1999 H 186.927 -3.82195 -4.46319 0
M  V30 2000 H 188.451 -3.22869 -5.18255 0
M  V30 2001 H 189.865 -4.62348 -3.38979 0
M  V30 2002 H 188.262 -5.25006 -2.9067 0
M  V30 2003 H 189.332 -4.54893 -1.67929 0
M  V30 2004 N 190.675 0.682077 -1.42076 0
M  V30 2005 C 191.952 1.43755 -1.32642 0
M  V30 2006 C 192.332 2.11063 0.0396611 0
M  V30 2007 O 191.68 2.02701 1.05474 0
M  V30 2008 C 191.89 2.44596 -2.48946 0
M  V30 2009 C 193.238 3.09454 -2.9073 0
M  V30 2010 O 194.262 2.54922 -2.48783 0
M  V30 2011 O 193.121 4.08253 -3.63307 0
M  V30 2012 H 190.215 0.640857 -0.522715 0
M  V30 2013 H 192.761 0.711415 -1.54068 0
M  V30 2014 H 191.533 1.93609 -3.40046 0
M  V30 2015 H 191.156 3.24701 -2.29467 0
M  V30 2016 N 192.153 1.28127 0.917671 0
M  V30 2017 C 193.43 1.05761 1.64542 0
M  V30 2018 C 193.81 -0.404344 2.07191 0
M  V30 2019 O 193.158 -1.38963 1.81388 0
M  V30 2020 C 193.368 2.02857 2.83989 0
M  V30 2021 C 194.716 2.32786 3.551 0
M  V30 2022 O 195.74 2.0091 2.94132 0
M  V30 2023 O 194.599 2.87169 4.64969 0
M  V30 2024 H 191.693 0.403916 0.721652 0
M  V30 2025 H 194.239 1.39431 0.967322 0
M  V30 2026 H 193.011 3.01407 2.49538 0
M  V30 2027 H 192.634 1.69809 3.59514 0
M  V30 2028 N 193.631 -1.12557 1.10312 0
M  V30 2029 C 194.879 -1.83675 0.843091 0
M  V30 2030 C 195.2 -1.84435 -0.633131 0
M  V30 2031 O 194.47 -1.30657 -1.45964 0
M  V30 2032 H 193.05 -0.680138 0.308904 0
M  V30 2033 H 195.712 -1.36301 1.39313 0
M  V30 2034 H 194.808 -2.87908 1.2048 0
M  V30 2035 N 195.109 -0.891671 -1.2995 0
M  V30 2036 C 196.357 -0.512486 -1.95494 0
M  V30 2037 C 196.678 0.942776 -1.70695 0
M  V30 2038 O 195.948 1.66374 -1.03424 0
M  V30 2039 H 194.528 -0.186533 -0.723336 0
M  V30 2040 H 197.19 -1.13621 -1.58355 0
M  V30 2041 H 196.286 -0.688342 -3.04415 0
M  V30 2042 N 196.587 1.43421 -0.653314 0
M  V30 2043 C 197.864 1.95361 -0.0966581 0
M  V30 2044 C 198.244 1.59461 1.38331 0
M  V30 2045 O 197.592 0.879777 2.10884 0
M  V30 2046 C 197.802 3.47311 -0.342988 0
M  V30 2047 C 199.15 4.23875 -0.24798 0
M  V30 2048 O 200.174 3.55133 -0.275553 0
M  V30 2049 O 199.033 5.4623 -0.171771 0
M  V30 2050 H 196.127 0.826945 0.00956291 0
M  V30 2051 H 198.673 1.5336 -0.726558 0
M  V30 2052 H 197.445 3.66569 -1.36906 0
M  V30 2053 H 197.068 3.9631 0.319975 0
M  V30 2054 N 198.065 0.39524 1.52563 0
M  V30 2055 C 198.995 -0.428384 2.29537 0
M  V30 2056 C 199.976 -1.05831 1.33169 0
M  V30 2057 O 201.161 -1.06995 1.62067 0
M  V30 2058 C 198.291 -1.55274 3.10656 0
M  V30 2059 C 197.245 -1.04855 4.14957 0
M  V30 2060 C 196.571 -2.26543 4.84337 0
M  V30 2061 C 197.871 -0.112324 5.22179 0
M  V30 2062 H 199.565 0.213867 2.98635 0
M  V30 2063 H 197.111 0.104298 1.43622 0
M  V30 2064 H 199.064 -2.1358 3.63265 0
M  V30 2065 H 197.788 -2.22266 2.39302 0
M  V30 2066 H 196.447 -0.487985 3.63338 0
M  V30 2067 H 196.095 -2.92059 4.09525 0
M  V30 2068 H 195.795 -1.93466 5.54837 0
M  V30 2069 H 197.319 -2.85481 5.39753 0
M  V30 2070 H 198.733 -0.603752 5.70112 0
M  V30 2071 H 197.13 0.128968 5.99961 0
M  V30 2072 H 198.2 0.837052 4.77621 0
M  V30 2073 N 199.544 -1.57102 0.125237 0
M  V30 2074 C 200.772 -1.99761 -0.538797 0
M  V30 2075 C 201.187 -1.00503 -1.59827 0
M  V30 2076 O 200.544 0.00119474 -1.825 0
M  V30 2077 C 200.595 -3.42408 -1.15927 0
M  V30 2078 O 200.316 -4.37869 -0.142143 0
M  V30 2079 C 201.817 -4.00232 -1.90602 0
M  V30 2080 H 199.037 -0.655772 -0.14214 0
M  V30 2081 H 201.581 -2.03383 0.213413 0
M  V30 2082 H 199.736 -3.39706 -1.86223 0
M  V30 2083 H 200.15 -5.21128 -0.593775 0
M  V30 2084 H 201.624 -5.02105 -2.29335 0
M  V30 2085 H 202.101 -3.39721 -2.78363 0
M  V30 2086 H 202.707 -4.06499 -1.25055 0
M  V30 2087 N 201.022 0.148545 -1.56898 0
M  V30 2088 C 201.97 1.20265 -1.99096 0
M  V30 2089 C 202.964 1.44559 -0.883123 0
M  V30 2090 O 204.17 1.4487 -1.0683 0
M  V30 2091 H 200.545 0.404786 -0.63376 0
M  V30 2092 H 202.516 0.82004 -2.86911 0
M  V30 2093 C 201.265 2.52886 -2.3863 0
M  V30 2094 H 200.588 2.35021 -3.23427 0
M  V30 2095 H 202.028 3.25274 -2.7198 0
M  V30 2096 C 200.487 3.13315 -1.23837 0
M  V30 2097 O 201.017 3.98077 -0.538268 0
M  V30 2098 N 199.223 2.72742 -1.00301 0
M  V30 2099 H 198.77 2.03912 -1.5741 0
M  V30 2100 H 198.728 3.13507 -0.236838 0
M  V30 2101 N 202.5 1.5196 0.417844 0
M  V30 2102 C 203.43 1.77634 1.51554 0
M  V30 2103 C 204.411 0.626918 1.58126 0
M  V30 2104 O 205.596 0.871632 1.7354 0
M  V30 2105 C 202.726 1.91911 2.8946 0
M  V30 2106 C 201.68 3.07463 2.97743 0
M  V30 2107 C 201.006 3.06951 4.37819 0
M  V30 2108 C 202.306 4.47082 2.70027 0
M  V30 2109 H 204 2.6955 1.3032 0
M  V30 2110 H 201.546 1.29706 0.625492 0
M  V30 2111 H 203.499 2.08455 3.6623 0
M  V30 2112 H 202.223 0.966598 3.11969 0
M  V30 2113 H 200.882 2.90656 2.23416 0
M  V30 2114 H 200.53 2.09438 4.57323 0
M  V30 2115 H 200.23 3.84556 4.44286 0
M  V30 2116 H 201.754 3.25613 5.16535 0
M  V30 2117 H 203.168 4.6414 3.36522 0
M  V30 2118 H 201.565 5.2654 2.87881 0
M  V30 2119 H 202.635 4.55777 1.65514 0
M  V30 2120 N 203.978 -0.674533 1.42435 0
M  V30 2121 C 205.227 -1.43034 1.42212 0
M  V30 2122 C 205.54 -1.95555 0.0420788 0
M  V30 2123 O 206.746 -2.71374 -0.0827558 0
M  V30 2124 C 205.202 -2.58748 2.50155 0
M  V30 2125 C 204.81 -2.12925 3.94166 0
M  V30 2126 C 206.554 -3.36257 2.59098 0
M  V30 2127 C 204.461 -3.25723 4.93618 0
M  V30 2128 H 203.391 -0.537345 0.528939 0
M  V30 2129 H 206.042 -0.73024 1.68344 0
M  V30 2130 H 204.424 -3.31128 2.17188 0
M  V30 2131 H 205.598 -1.47697 4.36488 0
M  V30 2132 H 203.913 -1.48354 3.89076 0
M  V30 2133 H 206.51 -4.20264 3.30578 0
M  V30 2134 H 206.853 -3.82866 1.63461 0
M  V30 2135 H 207.386 -2.70947 2.9126 0
M  V30 2136 H 204.125 -2.84105 5.90732 0
M  V30 2137 H 203.645 -3.89732 4.55926 0
M  V30 2138 H 205.324 -3.91186 5.15347 0
M  V30 2139 N 205.456 -1.28612 -0.910864 0
M  V30 2140 C 206.406 -1.09423 -2.00026 0
M  V30 2141 C 207.39 -0.0170079 -1.60891 0
M  V30 2142 O 208.582 -0.237472 -1.754 0
M  V30 2143 C 205.711 -0.76114 -3.34756 0
M  V30 2144 C 204.797 -1.87735 -3.80285 0
M  V30 2145 N 205.188 -3.11938 -3.98156 0
M  V30 2146 C 203.486 -1.76786 -4.09467 0
M  V30 2147 C 204.187 -3.84687 -4.36338 0
M  V30 2148 N 203.163 -3.12555 -4.44759 0
M  V30 2149 H 206.965 -2.03658 -2.11898 0
M  V30 2150 H 204.479 -1.19573 -1.09891 0
M  V30 2151 H 206.476 -0.604743 -4.12491 0
M  V30 2152 H 205.136 0.173403 -3.24237 0
M  V30 2153 H 206.147 -3.47516 -3.83996 0
M  V30 2154 H 202.824 -0.905284 -4.07567 0
M  V30 2155 H 204.214 -4.91518 -4.58104 0
M  V30 2156 N 206.934 1.1197 -1.10907 0
M  V30 2157 C 208.162 1.87402 -0.876824 0
M  V30 2158 C 208.577 1.79894 0.573025 0
M  V30 2159 O 207.934 1.17629 1.39534 0
M  V30 2160 C 207.985 3.36428 -1.32282 0
M  V30 2161 O 207.706 3.43765 -2.71582 0
M  V30 2162 C 209.207 4.28783 -1.12518 0
M  V30 2163 H 206.427 0.592793 -0.314384 0
M  V30 2164 H 208.971 1.41649 -1.47499 0
M  V30 2165 H 207.126 3.79706 -0.768229 0
M  V30 2166 H 207.54 4.3652 -2.90776 0
M  V30 2167 H 209.014 5.31613 -1.48633 0
M  V30 2168 H 209.491 4.39153 -0.0642394 0
M  V30 2169 H 210.097 3.91291 -1.66648 0
M  V30 2170 N 208.412 0.89855 1.29475 0
M  V30 2171 C 209.359 0.373819 2.27753 0
M  V30 2172 C 210.329 -0.543444 1.56958 0
M  V30 2173 O 211.514 -0.468934 1.84948 0
M  V30 2174 C 208.654 -0.393648 3.42848 0
M  V30 2175 C 207.767 0.554379 4.28428 0
M  V30 2176 C 206.902 -0.230026 5.30702 0
M  V30 2177 C 205.941 0.712599 6.07938 0
M  V30 2178 N 205.078 -0.0373283 7.0209 0
M  V30 2179 H 209.918 1.21699 2.72017 0
M  V30 2180 H 207.455 0.611456 1.33789 0
M  V30 2181 H 209.413 -0.85466 4.08352 0
M  V30 2182 H 208.043 -1.20128 2.99615 0
M  V30 2183 H 207.095 1.13391 3.63107 0
M  V30 2184 H 208.407 1.27597 4.82204 0
M  V30 2185 H 207.561 -0.752288 6.02018 0
M  V30 2186 H 206.3 -0.984758 4.77654 0
M  V30 2187 H 205.305 1.24637 5.35486 0
M  V30 2188 H 206.53 1.46664 6.63074 0
M  V30 2189 H 204.476 -0.774348 6.51414 0
M  V30 2190 H 204.393 0.624374 7.53417 0
M  V30 2191 H 205.661 -0.539891 7.77628 0
M  V30 2192 N 209.89 -1.43072 0.660911 0
M  V30 2193 C 211.12 -2.05769 0.185153 0
M  V30 2194 C 211.528 -1.49668 -1.15742 0
M  V30 2195 O 210.871 -0.625649 -1.72717 0
M  V30 2196 C 210.933 -3.59489 0.0278237 0
M  V30 2197 C 210.597 -4.38212 1.2969 0
M  V30 2198 C 211.594 -4.69772 2.22734 0
M  V30 2199 C 209.279 -4.7809 1.54063 0
M  V30 2200 C 211.273 -5.40129 3.38437 0
M  V30 2201 C 208.96 -5.4819 2.70058 0
M  V30 2202 C 209.958 -5.79132 3.62071 0
M  V30 2203 O 209.646 -6.47798 4.76039 0
M  V30 2204 H 209.378 -0.669873 0.0908086 0
M  V30 2205 H 211.932 -1.84436 0.90402 0
M  V30 2206 H 210.162 -3.79426 -0.746489 0
M  V30 2207 H 211.851 -4.03862 -0.406275 0
M  V30 2208 H 212.617 -4.39476 2.05149 0
M  V30 2209 H 208.496 -4.53408 0.833215 0
M  V30 2210 H 212.04 -5.64198 4.10277 0
M  V30 2211 H 207.937 -5.77902 2.87574 0
M  V30 2212 H 208.705 -6.66283 4.75404 0
M  V30 2213 N 211.368 -0.403325 -1.52352 0
M  V30 2214 C 212.779 0.0675782 -1.86578 0
M  V30 2215 C 213.13 1.44941 -1.32236 0
M  V30 2216 O 212.255 2.06112 -0.659307 0
M  V30 2217 C 212.85 0.129404 -3.38553 0
M  V30 2218 C 211.409 0.544629 -3.72439 0
M  V30 2219 C 210.556 -0.284551 -2.75836 0
M  V30 2220 H 213.507 -0.620631 -1.46061 0
M  V30 2221 H 213.528 0.94581 -3.68558 0
M  V30 2222 H 213.04 -0.87645 -3.78074 0
M  V30 2223 H 211.141 1.55734 -3.38493 0
M  V30 2224 H 211.254 0.293046 -4.78203 0
M  V30 2225 H 209.618 0.252258 -2.53448 0
M  V30 2226 H 210.401 -1.28865 -3.18196 0
M  V30 2227 N 212.846 1.57033 -0.133567 0
M  V30 2228 C 213.778 2.13176 0.841944 0
M  V30 2229 C 214.791 1.07794 1.22001 0
M  V30 2230 O 215.98 1.35117 1.16643 0
M  V30 2231 C 213.08 2.62847 2.13926 0
M  V30 2232 C 212.253 3.92486 1.93064 0
M  V30 2233 C 211.312 4.27605 3.0666 0
M  V30 2234 O 210.338 4.96168 2.78937 0
M  V30 2235 N 211.54 3.861 4.33483 0
M  V30 2236 H 214.305 2.97503 0.362192 0
M  V30 2237 H 211.866 1.61821 0.05042 0
M  V30 2238 H 213.858 2.83363 2.88942 0
M  V30 2239 H 212.428 1.83319 2.53205 0
M  V30 2240 H 211.648 3.80732 1.02159 0
M  V30 2241 H 212.936 4.77225 1.76447 0
M  V30 2242 H 212.334 3.30828 4.58878 0
M  V30 2243 H 210.891 4.11694 5.05323 0
M  V30 2244 N 214.325 -0.140222 1.56975 0
M  V30 2245 C 215.255 -1.17456 2.01808 0
M  V30 2246 C 216.236 -1.44415 0.898794 0
M  V30 2247 O 217.421 -1.5522 1.16707 0
M  V30 2248 C 214.551 -2.50607 2.40444 0
M  V30 2249 C 213.505 -2.38155 3.55621 0
M  V30 2250 C 212.831 -3.76078 3.80091 0
M  V30 2251 C 214.131 -1.85991 4.88062 0
M  V30 2252 H 215.825 -0.801743 2.88466 0
M  V30 2253 H 213.371 -0.38422 1.38779 0
M  V30 2254 H 215.324 -3.23197 2.7041 0
M  V30 2255 H 214.048 -2.89737 1.50732 0
M  V30 2256 H 212.707 -1.68016 3.25832 0
M  V30 2257 H 212.355 -4.12656 2.87618 0
M  V30 2258 H 212.055 -3.68606 4.57606 0
M  V30 2259 H 213.579 -4.50206 4.12488 0
M  V30 2260 H 214.993 -2.4838 5.16701 0
M  V30 2261 H 213.39 -1.89393 5.6943 0
M  V30 2262 H 214.46 -0.816023 4.77984 0
M  V30 2263 N 215.803 -1.52179 -0.40978 0
M  V30 2264 C 216.733 -1.78435 -1.5061 0
M  V30 2265 C 217.714 -0.635295 -1.57791 0
M  V30 2266 O 218.899 -0.880823 -1.73076 0
M  V30 2267 C 216.029 -1.93444 -2.88439 0
M  V30 2268 C 214.983 -3.09038 -2.96108 0
M  V30 2269 C 214.309 -3.09268 -4.36185 0
M  V30 2270 C 215.609 -4.48508 -2.67652 0
M  V30 2271 H 217.303 -2.70237 -1.28889 0
M  V30 2272 H 214.849 -1.30036 -0.618605 0
M  V30 2273 H 216.802 -2.10394 -3.65119 0
M  V30 2274 H 215.526 -0.983129 -3.11452 0
M  V30 2275 H 214.185 -2.91837 -2.21872 0
M  V30 2276 H 213.833 -2.11861 -4.56206 0
M  V30 2277 H 213.533 -3.86907 -4.42241 0
M  V30 2278 H 215.057 -3.28348 -5.14801 0
M  V30 2279 H 216.471 -4.65918 -3.34056 0
M  V30 2280 H 214.868 -5.28059 -2.85085 0
M  V30 2281 H 215.938 -4.56649 -1.63095 0
M  V30 2282 N 217.281 0.66697 -1.42791 0
M  V30 2283 C 218.692 1.2478 -1.38877 0
M  V30 2284 C 219.043 1.96012 -0.0859426 0
M  V30 2285 O 218.168 2.00463 0.815081 0
M  V30 2286 C 218.763 2.26938 -2.51564 0
M  V30 2287 C 217.322 2.80529 -2.50959 0
M  V30 2288 C 216.469 1.54965 -2.29959 0
M  V30 2289 H 219.42 0.459853 -1.51892 0
M  V30 2290 H 219.441 3.08834 -2.22265 0
M  V30 2291 H 218.953 1.75065 -3.46372 0
M  V30 2292 H 217.054 3.36502 -1.59991 0
M  V30 2293 H 217.167 3.29012 -3.48265 0
M  V30 2294 H 215.531 1.81817 -1.78366 0
M  V30 2295 H 216.314 1.05047 -3.26833 0
M  V30 2296 N 218.759 1.29093 0.90403 0
M  V30 2297 C 220.007 1.16583 1.65085 0
M  V30 2298 C 220.328 -0.283933 1.92922 0
M  V30 2299 O 219.598 -1.19509 1.55224 0
M  V30 2300 H 218.178 0.428467 0.611903 0
M  V30 2301 H 220.84 1.61959 1.08422 0
M  V30 2302 H 219.936 1.71266 2.6091 0
M  V30 2303 N 220.237 -1.11381 1.11499 0
M  V30 2304 C 221.486 -1.82494 0.858993 0
M  V30 2305 C 221.799 -1.85605 -0.617278 0
M  V30 2306 O 223.005 -2.52824 -0.989552 0
M  V30 2307 C 221.461 -3.27745 1.48699 0
M  V30 2308 C 221.069 -3.32961 2.99735 0
M  V30 2309 C 222.813 -4.03754 1.31085 0
M  V30 2310 C 220.72 -4.72612 3.55516 0
M  V30 2311 H 219.65 -0.683802 0.317696 0
M  V30 2312 H 222.301 -1.25331 1.34031 0
M  V30 2313 H 220.683 -3.84844 0.933339 0
M  V30 2314 H 221.857 -2.85741 3.61509 0
M  V30 2315 H 220.172 -2.70433 3.16631 0
M  V30 2316 H 222.769 -5.06891 1.70192 0
M  V30 2317 H 223.112 -4.15527 0.253496 0
M  V30 2318 H 223.645 -3.53043 1.83318 0
M  V30 2319 H 220.384 -4.66036 4.60967 0
M  V30 2320 H 219.904 -5.2024 2.98513 0
M  V30 2321 H 221.583 -5.4157 3.53992 0
M  V30 2322 N 221.715 -0.905404 -1.28997 0
M  V30 2323 C 223.131 -0.60233 -1.47798 0
M  V30 2324 C 223.331 0.854645 -1.82478 0
M  V30 2325 O 222.387 1.63439 -1.92468 0
M  V30 2326 C 223.7 -1.53306 -2.58685 0
M  V30 2327 C 225.248 -1.53887 -2.72558 0
M  V30 2328 C 225.723 -2.45602 -3.86579 0
M  V30 2329 N 227.214 -2.43681 -3.93921 0
M  V30 2330 C 227.949 -3.11347 -4.81509 0
M  V30 2331 N 227.445 -3.88313 -5.73746 0
M  V30 2332 N 229.238 -3.00476 -4.75048 0
M  V30 2333 H 221.389 -1.84765 -1.04764 0
M  V30 2334 H 223.652 -0.792025 -0.520961 0
M  V30 2335 H 223.358 -2.57141 -2.39941 0
M  V30 2336 H 223.232 -1.25787 -3.55609 0
M  V30 2337 H 225.619 -0.507941 -2.90696 0
M  V30 2338 H 225.7 -1.85447 -1.76191 0
M  V30 2339 H 225.344 -3.48792 -3.69197 0
M  V30 2340 H 225.274 -2.11349 -4.82327 0
M  V30 2341 H 227.765 -1.87767 -3.27951 0
M  V30 2342 H 228.078 -4.36985 -6.37389 0
M  V30 2343 H 226.423 -3.92419 -5.73614 0
M  V30 2344 H 229.614 -2.39858 -4.01977 0
M  V30 2345 H 229.787 -3.53485 -5.43095 0
M  V30 2346 N 223.193 1.4272 -0.668489 0
M  V30 2347 C 224.441 2.01226 -0.187769 0
M  V30 2348 C 224.762 1.53092 1.2078 0
M  V30 2349 O 224.032 0.74993 1.80977 0
M  V30 2350 H 222.612 0.744041 -0.0664272 0
M  V30 2351 H 225.274 1.74723 -0.863583 0
M  V30 2352 H 224.37 3.11556 -0.184166 0
M  V30 2353 N 224.671 0.411399 1.52136 0
M  V30 2354 C 225.92 -0.165009 2.01024 0
M  V30 2355 C 226.233 -1.4603 1.30133 0
M  V30 2356 O 227.439 -2.1181 1.69849 0
M  V30 2357 C 225.895 -0.344618 3.58246 0
M  V30 2358 C 225.503 0.938716 4.38055 0
M  V30 2359 C 227.247 -0.876195 4.15359 0
M  V30 2360 C 225.154 0.726172 5.86925 0
M  V30 2361 H 224.084 -0.0654407 0.751155 0
M  V30 2362 H 226.735 0.537192 1.75461 0
M  V30 2363 H 225.117 -1.10921 3.80148 0
M  V30 2364 H 226.291 1.70963 4.27912 0
M  V30 2365 H 224.606 1.39688 3.92271 0
M  V30 2366 H 227.203 -1.05128 5.24263 0
M  V30 2367 H 227.546 -1.85152 3.7286 0
M  V30 2368 H 228.079 -0.170607 3.97434 0
M  V30 2369 H 224.818 1.67312 6.33788 0
M  V30 2370 H 224.338 -0.00540283 5.998 0
M  V30 2371 H 226.017 0.369231 6.45946 0
M  V30 2372 N 226.149 -1.5696 0.141893 0
M  V30 2373 C 227.374 -2.00754 -0.520838 0
M  V30 2374 C 227.799 -1.0213 -1.57959 0
M  V30 2375 O 227.157 0.00371324 -1.813 0
M  V30 2376 C 227.205 -3.43318 -1.10294 0
M  V30 2377 O 226.309 -3.47679 -2.21795 0
M  V30 2378 H 225.65 -0.651564 -0.127908 0
M  V30 2379 H 228.18 -2.03221 0.23712 0
M  V30 2380 H 228.19 -3.82012 -1.43287 0
M  V30 2381 H 226.865 -4.14608 -0.327574 0
M  V30 2382 H 225.442 -3.20824 -1.9007 0
M  V30 2383 N 227.627 0.131896 -1.57047 0
M  V30 2384 C 228.537 1.1815 -2.02676 0
M  V30 2385 C 229.553 1.46113 -0.944824 0
M  V30 2386 O 230.729 1.57485 -1.25541 0
M  V30 2387 C 227.794 2.49139 -2.41103 0
M  V30 2388 C 226.855 2.28688 -3.63318 0
M  V30 2389 C 226.088 3.53431 -3.99903 0
M  V30 2390 O 226.311 4.60223 -3.36973 0
M  V30 2391 O 225.245 3.45198 -4.93074 0
M  V30 2392 H 229.071 0.824069 -2.92306 0
M  V30 2393 H 226.656 0.341745 -1.45439 0
M  V30 2394 H 228.538 3.26338 -2.66611 0
M  V30 2395 H 227.213 2.84382 -1.54624 0
M  V30 2396 H 226.12 1.4939 -3.42977 0
M  V30 2397 H 227.453 1.98355 -4.50462 0
M  V30 2398 N 229.106 1.52395 0.401703 0
M  V30 2399 C 230.016 1.7917 1.51444 0
M  V30 2400 C 231.032 0.677691 1.6026 0
M  V30 2401 O 232.208 0.963909 1.76835 0
M  V30 2402 C 229.273 1.94347 2.87107 0
M  V30 2403 C 228.334 3.18257 2.88116 0
M  V30 2404 C 227.567 3.32701 4.17308 0
M  V30 2405 O 227.79 2.52238 5.11598 0
M  V30 2406 O 226.724 4.25891 4.25324 0
M  V30 2407 H 230.55 2.73633 1.31752 0
M  V30 2408 H 228.135 1.3733 0.588296 0
M  V30 2409 H 230.017 2.06109 3.67555 0
M  V30 2410 H 228.692 1.03073 3.06851 0
M  V30 2411 H 227.599 3.11947 2.06494 0
M  V30 2412 H 228.932 4.09336 2.73322 0
M  V30 2413 N 230.584 -0.659388 1.43143 0
M  V30 2414 C 231.812 -1.44723 1.47861 0
M  V30 2415 C 232.227 -1.88563 0.0945886 0
M  V30 2416 O 231.584 -1.59108 -0.893915 0
M  V30 2417 C 231.635 -2.68627 2.41913 0
M  V30 2418 O 231.356 -2.26623 3.74932 0
M  V30 2419 C 232.857 -3.62045 2.55809 0
M  V30 2420 H 230.077 -0.444801 0.502387 0
M  V30 2421 H 232.621 -0.808916 1.87821 0
M  V30 2422 H 230.776 -3.28613 2.05164 0
M  V30 2423 H 231.19 -3.06745 4.2545 0
M  V30 2424 H 232.664 -4.45666 3.25708 0
M  V30 2425 H 233.141 -4.08981 1.60099 0
M  V30 2426 H 233.747 -3.07944 2.93344 0
M  V30 2427 N 232.062 -1.29571 -0.897171 0
M  V30 2428 C 233.29 -1.20583 -1.68129 0
M  V30 2429 C 233.705 0.233181 -1.87354 0
M  V30 2430 O 233.062 1.15579 -1.41236 0
M  V30 2431 C 233.113 -1.91772 -3.06441 0
M  V30 2432 O 232.834 -3.30053 -2.88091 0
M  V30 2433 C 234.335 -1.89291 -4.00854 0
M  V30 2434 H 231.555 -0.417826 -0.525036 0
M  V30 2435 H 234.099 -1.70987 -1.12177 0
M  V30 2436 H 232.254 -1.45196 -3.59161 0
M  V30 2437 H 232.668 -3.65942 -3.75748 0
M  V30 2438 H 234.142 -2.43662 -4.95311 0
M  V30 2439 H 234.619 -0.869014 -4.30517 0
M  V30 2440 H 235.225 -2.35622 -3.54066 0
M  V30 2441 N 233.54 1.10788 -1.12088 0
M  V30 2442 C 234.768 1.86461 -0.896651 0
M  V30 2443 C 235.183 1.80492 0.553912 0
M  V30 2444 O 234.54 1.19102 1.38278 0
M  V30 2445 C 234.591 3.35006 -1.35843 0
M  V30 2446 O 234.312 3.40866 -2.75213 0
M  V30 2447 C 235.813 4.27565 -1.1706 0
M  V30 2448 H 233.033 0.589425 -0.320654 0
M  V30 2449 H 235.577 1.40076 -1.48993 0
M  V30 2450 H 233.732 3.7887 -0.808458 0
M  V30 2451 H 234.146 4.33411 -2.9539 0
M  V30 2452 H 235.62 5.30007 -1.54263 0
M  V30 2453 H 236.097 4.3906 -0.110814 0
M  V30 2454 H 236.703 3.89501 -1.70789 0
M  V30 2455 N 235.018 0.912232 1.28515 0
M  V30 2456 C 236.266 0.543523 1.94654 0
M  V30 2457 C 236.587 -0.9155 1.72173 0
M  V30 2458 O 235.857 -1.64708 1.06058 0
M  V30 2459 H 234.437 0.198017 0.720277 0
M  V30 2460 H 237.099 1.16126 1.56527 0
M  V30 2461 H 236.195 0.736684 3.03281 0
M  V30 2462 N 236.496 -1.42363 0.676048 0
M  V30 2463 C 237.742 -2.0182 0.199125 0
M  V30 2464 C 238.075 -1.53339 -1.19168 0
M  V30 2465 O 237.35 -0.736124 -1.80032 0
M  V30 2466 C 237.633 -3.59331 0.235144 0
M  V30 2467 C 237.486 -4.17989 1.66149 0
M  V30 2468 C 238.805 -4.3813 -0.41595 0
M  V30 2469 H 235.924 -0.733293 0.0738311 0
M  V30 2470 H 238.566 -1.69368 0.86107 0
M  V30 2471 H 236.716 -3.87109 -0.328487 0
M  V30 2472 H 238.388 -4.0116 2.27747 0
M  V30 2473 H 236.631 -3.7377 2.20178 0
M  V30 2474 H 237.302 -5.27126 1.63837 0
M  V30 2475 H 239.778 -4.16051 0.0638529 0
M  V30 2476 H 238.654 -5.47717 -0.360115 0
M  V30 2477 H 238.915 -4.16101 -1.49373 0
M  V30 2478 N 237.974 -0.419461 -1.51915 0
M  V30 2479 C 238.924 0.418496 -2.24126 0
M  V30 2480 C 239.908 1.00495 -1.25656 0
M  V30 2481 O 241.1 0.926058 -1.50842 0
M  V30 2482 C 238.229 1.52899 -3.07371 0
M  V30 2483 C 237.315 0.952797 -4.13258 0
M  V30 2484 N 237.706 0.104175 -5.05693 0
M  V30 2485 C 236.004 1.22224 -4.28926 0
M  V30 2486 C 236.705 -0.21752 -5.81293 0
M  V30 2487 N 235.681 0.394293 -5.42168 0
M  V30 2488 H 239.483 -0.236048 -2.92951 0
M  V30 2489 H 236.997 -0.230481 -1.60756 0
M  V30 2490 H 238.994 2.14199 -3.57665 0
M  V30 2491 H 237.654 2.18605 -2.40088 0
M  V30 2492 H 238.665 -0.260924 -5.17242 0
M  V30 2493 H 235.342 1.87812 -3.72871 0
M  V30 2494 H 236.732 -0.906992 -6.6575 0
M  V30 2495 N 239.452 1.56882 -0.150215 0
M  V30 2496 C 240.4 2.18214 0.805313 0
M  V30 2497 C 241.394 1.14006 1.25296 0
M  V30 2498 O 242.6 1.3225 1.22107 0
M  V30 2499 H 238.975 0.698762 0.277913 0
M  V30 2500 H 240.946 2.97231 0.263862 0
M  V30 2501 C 239.695 2.82065 2.03309 0
M  V30 2502 H 239.018 3.61968 1.69763 0
M  V30 2503 H 240.458 3.28477 2.68103 0
M  V30 2504 C 238.917 1.80739 2.84315 0
M  V30 2505 O 239.447 1.27983 3.80767 0
M  V30 2506 N 237.653 1.4997 2.48913 0
M  V30 2507 H 237.2 1.93062 1.70542 0
M  V30 2508 H 237.158 0.824217 3.03404 0
M  V30 2509 N 240.93 -0.123565 1.57115 0
M  V30 2510 C 241.86 -1.15309 2.03042 0
M  V30 2511 C 242.841 -1.43454 0.914061 0
M  V30 2512 O 244.026 -1.53973 1.18347 0
M  V30 2513 C 241.156 -2.48043 2.43089 0
M  V30 2514 C 240.11 -2.3437 3.58127 0
M  V30 2515 C 239.436 -3.72026 3.84059 0
M  V30 2516 C 240.736 -1.80804 4.90007 0
M  V30 2517 H 242.43 -0.771102 2.893 0
M  V30 2518 H 239.976 -0.369479 1.39179 0
M  V30 2519 H 241.929 -3.20311 2.73823 0
M  V30 2520 H 240.653 -2.88122 1.53796 0
M  V30 2521 H 239.312 -1.64551 3.27595 0
M  V30 2522 H 238.96 -4.09582 2.91979 0
M  V30 2523 H 238.66 -3.63732 4.6149 0
M  V30 2524 H 240.184 -4.45806 4.1724 0
M  V30 2525 H 241.598 -2.42886 5.19307 0
M  V30 2526 H 239.995 -1.83343 5.71407 0
M  V30 2527 H 241.065 -0.76528 4.78823 0
M  V30 2528 N 242.408 -1.52605 -0.393616 0
M  V30 2529 C 243.638 -1.71046 -1.15874 0
M  V30 2530 C 244.046 -0.426483 -1.84331 0
M  V30 2531 O 243.389 0.608513 -1.73329 0
M  V30 2532 C 243.451 -2.80118 -2.25332 0
M  V30 2533 C 243.115 -4.21381 -1.76881 0
M  V30 2534 C 244.112 -5.04697 -1.24808 0
M  V30 2535 C 241.797 -4.67683 -1.83244 0
M  V30 2536 C 243.791 -6.32393 -0.797387 0
M  V30 2537 C 241.478 -5.95364 -1.37787 0
M  V30 2538 C 242.476 -6.77549 -0.861208 0
M  V30 2539 O 242.164 -8.02837 -0.413252 0
M  V30 2540 H 241.896 -0.576155 -0.353583 0
M  V30 2541 H 244.45 -2.00018 -0.467123 0
M  V30 2542 H 242.68 -2.46557 -2.97904 0
M  V30 2543 H 244.369 -2.87006 -2.87023 0
M  V30 2544 H 245.135 -4.70111 -1.19252 0
M  V30 2545 H 241.014 -4.03805 -2.22401 0
M  V30 2546 H 244.558 -6.9649 -0.393437 0
M  V30 2547 H 240.455 -6.29455 -1.43026 0
M  V30 2548 H 241.223 -8.16749 -0.53515 0
M  V30 2549 N 243.887 0.651787 -1.4349 0
M  V30 2550 C 244.834 1.76462 -1.4876 0
M  V30 2551 C 245.804 1.62641 -0.337189 0
M  V30 2552 O 246.989 1.82864 -0.544544 0
M  V30 2553 C 244.129 3.14623 -1.41796 0
M  V30 2554 C 243.242 3.39568 -2.67053 0
M  V30 2555 C 242.377 4.67585 -2.52068 0
M  V30 2556 C 241.416 4.85639 -3.72587 0
M  V30 2557 N 240.553 6.04915 -3.56402 0
M  V30 2558 H 245.393 1.71293 -2.43849 0
M  V30 2559 H 242.93 0.835889 -1.21043 0
M  V30 2560 H 244.888 3.94496 -1.35753 0
M  V30 2561 H 243.518 3.18859 -0.50288 0
M  V30 2562 H 242.57 2.53783 -2.8337 0
M  V30 2563 H 243.882 3.48795 -3.56572 0
M  V30 2564 H 243.036 5.55586 -2.4374 0
M  V30 2565 H 241.775 4.60681 -1.60075 0
M  V30 2566 H 240.78 3.96073 -3.81321 0
M  V30 2567 H 242.005 4.94372 -4.65589 0
M  V30 2568 H 239.951 5.9914 -2.67146 0
M  V30 2569 H 239.868 6.15106 -4.39524 0
M  V30 2570 H 241.136 6.95533 -3.51929 0
M  V30 2571 N 245.365 1.30045 0.890287 0
M  V30 2572 C 246.298 1.10301 1.99772 0
M  V30 2573 C 247.276 0.0121631 1.62595 0
M  V30 2574 O 248.46 0.16469 1.87779 0
M  V30 2575 C 245.587 0.681125 3.31781 0
M  V30 2576 C 244.633 1.77206 3.87944 0
M  V30 2577 S 245.466 3.37335 4.15891 0
M  V30 2578 C 246.622 2.97036 5.50927 0
M  V30 2579 H 246.855 2.04057 2.16213 0
M  V30 2580 H 244.388 1.14299 1.03804 0
M  V30 2581 H 246.346 0.444439 4.08087 0
M  V30 2582 H 245.007 -0.236981 3.13205 0
M  V30 2583 H 244.2 1.42903 4.83316 0
M  V30 2584 H 243.802 1.96275 3.18358 0
M  V30 2585 H 246.094 2.44666 6.31779 0
M  V30 2586 H 247.037 3.91296 5.90164 0
M  V30 2587 H 247.445 2.35057 5.13233 0
M  V30 2588 N 246.843 -1.10192 1.12674 0
M  V30 2589 C 247.776 -2.15847 0.740625 0
M  V30 2590 C 248.754 -1.60352 -0.269421 0
M  V30 2591 O 249.938 -1.87796 -0.16278 0
M  V30 2592 C 247.065 -3.38562 0.096641 0
M  V30 2593 C 246.111 -4.12758 1.07391 0
M  V30 2594 S 246.944 -4.67997 2.60267 0
M  V30 2595 C 248.1 -5.94021 1.97206 0
M  V30 2596 H 248.333 -2.48266 1.63558 0
M  V30 2597 H 245.866 -1.22019 0.946087 0
M  V30 2598 H 247.824 -4.09621 -0.268535 0
M  V30 2599 H 246.485 -3.04377 -0.775462 0
M  V30 2600 H 245.678 -5.00755 0.570997 0
M  V30 2601 H 245.28 -3.47523 1.38216 0
M  V30 2602 H 247.572 -6.64589 1.31634 0
M  V30 2603 H 248.515 -6.48979 2.83253 0
M  V30 2604 H 248.923 -5.46169 1.42686 0
M  V30 2605 N 248.321 -0.919034 -1.28029 0
M  V30 2606 C 249.284 -0.416182 -2.2539 0
M  V30 2607 C 250.284 0.460438 -1.54067 0
M  V30 2608 O 251.474 0.262744 -1.72207 0
M  V30 2609 C 248.606 0.402707 -3.38513 0
M  V30 2610 H 249.799 -1.27629 -2.71387 0
M  V30 2611 H 247.352 -0.698919 -1.39803 0
M  V30 2612 H 248.087 1.282 -2.97885 0
M  V30 2613 H 247.872 -0.225698 -3.9145 0
M  V30 2614 H 249.362 0.745191 -4.10897 0
M  V30 2615 N 249.799 1.42003 -0.683588 0
M  V30 2616 C 250.747 2.326 0.000815408 0
M  V30 2617 C 251.741 1.50308 0.781278 0
M  V30 2618 O 252.947 1.66322 0.688251 0
M  V30 2619 H 249.322 0.751758 0.0190616 0
M  V30 2620 H 251.293 2.88011 -0.780528 0
M  V30 2621 C 250.042 3.34978 0.93195 0
M  V30 2622 H 249.365 3.98345 0.340817 0
M  V30 2623 H 250.805 4.00936 1.37936 0
M  V30 2624 C 249.264 2.67925 2.04249 0
M  V30 2625 O 249.794 2.51788 3.12995 0
M  V30 2626 N 248 2.2681 1.81675 0
M  V30 2627 H 247.547 2.40135 0.932363 0
M  V30 2628 H 247.505 1.8228 2.56167 0
M  V30 2629 N 251.277 0.427512 1.51691 0
M  V30 2630 C 252.525 -0.141948 2.01601 0
M  V30 2631 C 252.846 -1.44067 1.31414 0
M  V30 2632 O 252.116 -1.90763 0.445658 0
M  V30 2633 H 250.696 -0.0554468 0.744939 0
M  V30 2634 H 253.358 0.567968 1.86441 0
M  V30 2635 H 252.454 -0.324913 3.10404 0
M  V30 2636 N 252.755 -1.56801 0.158532 0
M  V30 2637 C 254.004 -1.95665 -0.489702 0
M  V30 2638 C 254.317 -1.04654 -1.65248 0
M  V30 2639 O 255.523 -1.33146 -2.3661 0
M  V30 2640 C 253.979 -3.47874 -0.922582 0
M  V30 2641 C 253.587 -4.47489 0.213893 0
M  V30 2642 C 255.331 -3.95583 -1.53996 0
M  V30 2643 C 253.238 -5.90921 -0.237903 0
M  V30 2644 H 252.168 -0.730516 -0.186716 0
M  V30 2645 H 254.819 -1.81861 0.244722 0
M  V30 2646 H 253.201 -3.57051 -1.71261 0
M  V30 2647 H 254.375 -4.50017 0.991036 0
M  V30 2648 H 252.69 -4.09764 0.740407 0
M  V30 2649 H 255.287 -5.0019 -1.8898 0
M  V30 2650 H 255.63 -3.37789 -2.43319 0
M  V30 2651 H 256.163 -3.8937 -0.814611 0
M  V30 2652 H 252.902 -6.52559 0.620236 0
M  V30 2653 H 252.422 -5.91729 -0.980676 0
M  V30 2654 H 254.101 -6.43352 -0.686067 0
M  V30 2655 N 254.233 0.115231 -1.57178 0
M  V30 2656 C 255.163 1.1423 -2.03651 0
M  V30 2657 C 256.144 1.42967 -0.921655 0
M  V30 2658 O 257.329 1.53343 -1.19162 0
M  V30 2659 C 254.459 2.4675 -2.44401 0
M  V30 2660 C 253.413 2.32467 -3.59365 0
M  V30 2661 C 252.739 3.69984 -3.86026 0
M  V30 2662 C 254.039 1.78203 -4.90959 0
M  V30 2663 H 255.733 0.755749 -2.89705 0
M  V30 2664 H 253.279 0.362093 -1.39373 0
M  V30 2665 H 255.232 3.18854 -2.75517 0
M  V30 2666 H 253.956 2.87302 -1.55322 0
M  V30 2667 H 252.615 1.62811 -3.28463 0
M  V30 2668 H 252.263 4.08028 -2.94147 0
M  V30 2669 H 251.963 3.61279 -4.63412 0
M  V30 2670 H 253.487 4.43587 -4.19599 0
M  V30 2671 H 254.901 2.40128 -5.20587 0
M  V30 2672 H 253.298 1.8031 -5.72371 0
M  V30 2673 H 254.368 0.739876 -4.79222 0
M  V30 2674 N 255.711 1.52812 0.385517 0
M  V30 2675 C 256.658 1.77838 1.47113 0
M  V30 2676 C 257.628 0.621757 1.54024 0
M  V30 2677 O 258.813 0.861846 1.70226 0
M  V30 2678 C 255.953 1.95618 2.84302 0
M  V30 2679 C 255.066 3.23316 2.86515 0
M  V30 2680 C 254.201 3.31394 4.15152 0
M  V30 2681 C 253.24 4.53201 4.1143 0
M  V30 2682 N 252.377 4.58542 5.3168 0
M  V30 2683 H 257.217 2.70482 1.25073 0
M  V30 2684 H 254.754 1.34006 0.606692 0
M  V30 2685 H 256.712 2.03912 3.63972 0
M  V30 2686 H 255.342 1.06331 3.04784 0
M  V30 2687 H 254.394 3.24076 1.99195 0
M  V30 2688 H 255.706 4.13045 2.79634 0
M  V30 2689 H 254.86 3.3889 5.03228 0
M  V30 2690 H 253.599 2.39645 4.24761 0
M  V30 2691 H 252.604 4.45827 3.21742 0
M  V30 2692 H 253.829 5.46271 4.03442 0
M  V30 2693 H 251.775 3.69686 5.41912 0
M  V30 2694 H 251.692 5.42148 5.26889 0
M  V30 2695 H 252.96 4.70296 6.21644 0
M  V30 2696 N 257.189 -0.644168 1.43834 0
M  V30 2697 C 258.435 -1.40603 1.46146 0
M  V30 2698 C 258.768 -1.93997 0.0887717 0
M  V30 2699 O 258.043 -1.72854 -0.891724 0
M  V30 2700 C 258.326 -2.58086 2.51124 0
M  V30 2701 C 258.179 -2.10126 3.97702 0
M  V30 2702 C 259.498 -3.60291 2.52742 0
M  V30 2703 H 256.617 -0.509905 0.532134 0
M  V30 2704 H 259.259 -0.729502 1.75437 0
M  V30 2705 H 257.409 -3.15801 2.26278 0
M  V30 2706 H 259.081 -1.57342 4.33637 0
M  V30 2707 H 257.324 -1.41419 4.10101 0
M  V30 2708 H 257.995 -2.94649 4.66783 0
M  V30 2709 H 260.471 -3.12352 2.7491 0
M  V30 2710 H 259.347 -4.40032 3.28121 0
M  V30 2711 H 259.608 -4.1349 1.56455 0
M  V30 2712 N 258.668 -1.30515 -0.883378 0
M  V30 2713 C 260.079 -1.17509 -1.45081 0
M  V30 2714 C 260.43 0.223605 -1.94922 0
M  V30 2715 O 259.555 1.12041 -1.85137 0
M  V30 2716 C 260.15 -2.12715 -2.63701 0
M  V30 2717 C 258.709 -2.03682 -3.16529 0
M  V30 2718 C 257.856 -2.02706 -1.89224 0
M  V30 2719 H 260.807 -1.42762 -0.693165 0
M  V30 2720 H 260.828 -1.70891 -3.39965 0
M  V30 2721 H 260.34 -3.14505 -2.27395 0
M  V30 2722 H 258.441 -1.05039 -3.57488 0
M  V30 2723 H 258.554 -2.92146 -3.7972 0
M  V30 2724 H 256.918 -1.4753 -2.07622 0
M  V30 2725 H 257.701 -3.06229 -1.55174 0
M  V30 2726 N 260.146 1.09593 -1.13257 0
M  V30 2727 C 261.109 2.14359 -0.811358 0
M  V30 2728 C 262.109 1.59808 0.178377 0
M  V30 2729 O 263.299 1.74132 -0.0484911 0
M  V30 2730 C 260.431 3.40269 -0.207276 0
M  V30 2731 H 261.624 2.44284 -1.73969 0
M  V30 2732 H 259.177 1.25102 -0.936973 0
M  V30 2733 H 259.912 3.15969 0.73036 0
M  V30 2734 H 259.697 3.81154 -0.919992 0
M  V30 2735 H 261.187 4.176 0.000667944 0
M  V30 2736 N 261.624 0.925811 1.2754 0
M  V30 2737 C 262.873 0.561084 1.93739 0
M  V30 2738 C 263.186 -0.901685 1.73577 0
M  V30 2739 O 264.392 -1.37511 2.34101 0
M  V30 2740 C 262.848 0.952668 3.47062 0
M  V30 2741 C 262.456 2.43599 3.75983 0
M  V30 2742 C 264.2 0.659103 4.19352 0
M  V30 2743 C 262.107 2.76707 5.22673 0
M  V30 2744 H 261.037 0.206122 0.725279 0
M  V30 2745 H 263.688 1.12637 1.44863 0
M  V30 2746 H 262.07 0.316053 3.94737 0
M  V30 2747 H 263.244 3.12035 3.39073 0
M  V30 2748 H 261.559 2.70125 3.16893 0
M  V30 2749 H 264.156 0.882985 5.27359 0
M  V30 2750 H 264.499 -0.403607 4.14339 0
M  V30 2751 H 265.032 1.25473 3.77494 0
M  V30 2752 H 261.771 3.8188 5.32774 0
M  V30 2753 H 261.291 2.12919 5.60737 0
M  V30 2754 H 262.97 2.6435 5.90532 0
M  V30 2755 N 263.102 -1.41638 0.69111 0
M  V30 2756 C 264.05 -2.32597 0.0115199 0
M  V30 2757 C 265.044 -1.5072 -0.773296 0
M  V30 2758 O 266.25 -1.66685 -0.67942 0
M  V30 2759 H 262.625 -0.751849 -0.0150746 0
M  V30 2760 H 264.596 -2.87593 0.795791 0
M  V30 2761 C 263.345 -3.35467 -0.914172 0
M  V30 2762 H 262.668 -3.9852 -0.319687 0
M  V30 2763 H 264.108 -4.01662 -1.35808 0
M  V30 2764 C 262.567 -2.69004 -2.02826 0
M  V30 2765 O 263.097 -2.53444 -3.11655 0
M  V30 2766 N 261.303 -2.2777 -1.80469 0
M  V30 2767 H 260.85 -2.40626 -0.919615 0
M  V30 2768 H 260.808 -1.83635 -2.55197 0
M  V30 2769 N 264.58 -0.43555 -1.51462 0
M  V30 2770 C 265.826 0.131709 -2.02372 0
M  V30 2771 C 266.159 1.42516 -1.3192 0
M  V30 2772 O 265.434 1.89606 -0.433573 0
M  V30 2773 C 265.717 0.352301 -3.58373 0
M  V30 2774 C 265.57 -0.959676 -4.39443 0
M  V30 2775 C 266.889 1.12286 -4.25535 0
M  V30 2776 H 264.008 0.0463936 -0.735538 0
M  V30 2777 H 266.65 -0.574197 -1.81116 0
M  V30 2778 H 264.8 0.9536 -3.76615 0
M  V30 2779 H 266.472 -1.59482 -4.32855 0
M  V30 2780 H 264.715 -1.56468 -4.04599 0
M  V30 2781 H 265.386 -0.759394 -5.46752 0
M  V30 2782 H 267.862 0.613545 -4.11552 0
M  V30 2783 H 266.738 1.24598 -5.34571 0
M  V30 2784 H 266.999 2.15048 -3.86273 0
M  V30 2785 N 266.058 1.56714 -0.166846 0
M  V30 2786 C 267.006 2.19056 0.782123 0
M  V30 2787 C 268 1.15328 1.24079 0
M  V30 2788 O 269.206 1.33537 1.20697 0
M  V30 2789 H 265.581 0.70167 0.270486 0
M  V30 2790 H 267.552 2.97494 0.232322 0
M  V30 2791 C 266.301 2.84206 2.00306 0
M  V30 2792 H 265.624 3.63748 1.65914 0
M  V30 2793 H 267.064 3.31302 2.64604 0
M  V30 2794 C 265.523 1.83744 2.82382 0
M  V30 2795 O 266.053 1.32014 3.79388 0
M  V30 2796 N 264.259 1.52601 2.47308 0
M  V30 2797 H 263.806 1.9486 1.68485 0
M  V30 2798 H 263.764 0.856351 3.02513 0
M  V30 2799 N 267.536 -0.106894 1.57237 0
M  V30 2800 C 268.813 -0.843526 1.76477 0
M  V30 2801 C 269.193 -1.97499 0.745464 0
M  V30 2802 O 268.541 -2.27357 -0.228306 0
M  V30 2803 C 268.751 -1.34903 3.21873 0
M  V30 2804 C 270.099 -1.79654 3.8472 0
M  V30 2805 O 271.123 -1.44554 3.2555 0
M  V30 2806 O 269.982 -2.44515 4.88748 0
M  V30 2807 H 267.076 -0.401468 0.723016 0
M  V30 2808 H 269.622 -0.0896927 1.69463 0
M  V30 2809 H 268.394 -0.53781 3.87586 0
M  V30 2810 H 268.017 -2.16522 3.33473 0
M  V30 2811 N 269.014 -1.53014 -0.377408 0
M  V30 2812 C 270.239 -1.72818 -1.14668 0
M  V30 2813 C 270.664 -0.450725 -1.8262 0
M  V30 2814 O 270.022 0.59439 -1.7128 0
M  V30 2815 C 270.07 -2.88627 -2.16164 0
M  V30 2816 O 269.174 -2.56409 -3.22998 0
M  V30 2817 H 268.515 -0.574301 -0.333278 0
M  V30 2818 H 271.045 -1.99853 -0.438152 0
M  V30 2819 H 271.055 -3.14455 -2.59966 0
M  V30 2820 H 269.73 -3.81294 -1.66095 0
M  V30 2821 H 268.307 -2.4136 -2.84253 0
M  V30 2822 N 270.492 0.636531 -1.44174 0
M  V30 2823 C 271.738 1.39826 -1.4689 0
M  V30 2824 C 272.071 1.93947 -0.0990585 0
M  V30 2825 O 271.346 1.73325 0.882544 0
M  V30 2826 C 271.629 2.56751 -2.5249 0
M  V30 2827 C 271.482 2.08014 -3.98811 0
M  V30 2828 C 272.801 3.58946 -2.54649 0
M  V30 2829 H 269.92 0.507075 -0.53483 0
M  V30 2830 H 272.562 0.720188 -1.75822 0
M  V30 2831 H 270.712 3.14597 -2.2795 0
M  V30 2832 H 272.384 1.5504 -4.34466 0
M  V30 2833 H 270.627 1.39242 -4.10846 0
M  V30 2834 H 271.298 2.92169 -4.68339 0
M  V30 2835 H 273.774 3.1089 -2.76563 0
M  V30 2836 H 272.65 4.38286 -3.3045 0
M  V30 2837 H 272.911 4.12655 -1.58646 0
M  V30 2838 N 271.97 1.30982 0.876444 0
M  V30 2839 C 273.198 1.23242 1.6619 0
M  V30 2840 C 273.613 -0.203345 1.87702 0
M  V30 2841 O 272.97 -1.13317 1.43057 0
M  V30 2842 C 273.021 1.96623 3.03351 0
M  V30 2843 O 272.742 3.34594 2.82804 0
M  V30 2844 C 274.243 1.95644 3.97792 0
M  V30 2845 H 271.463 0.426126 0.518322 0
M  V30 2846 H 274.007 1.7275 1.09442 0
M  V30 2847 H 272.162 1.50892 3.56806 0
M  V30 2848 H 272.576 3.71873 3.69879 0
M  V30 2849 H 274.05 2.51511 4.91372 0
M  V30 2850 H 274.527 0.937395 4.2908 0
M  V30 2851 H 275.133 2.41225 3.50272 0
M  V30 2852 N 273.449 -1.08991 1.13837 0
M  V30 2853 C 274.396 -2.15748 0.819835 0
M  V30 2854 C 275.366 -1.64636 -0.220026 0
M  V30 2855 O 276.551 -1.90582 -0.0912757 0
M  V30 2856 C 273.691 -3.4382 0.296913 0
M  V30 2857 C 272.804 -4.0881 1.39636 0
M  V30 2858 C 271.939 -5.24655 0.831314 0
M  V30 2859 C 270.978 -5.81575 1.90886 0
M  V30 2860 N 270.115 -6.88774 1.36142 0
M  V30 2861 H 274.955 -2.42338 1.73426 0
M  V30 2862 H 272.492 -1.18935 0.865613 0
M  V30 2863 H 274.45 -4.17193 -0.0244339 0
M  V30 2864 H 273.08 -3.17535 -0.580628 0
M  V30 2865 H 272.132 -3.33258 1.83422 0
M  V30 2866 H 273.444 -4.47141 2.21058 0
M  V30 2867 H 272.598 -6.04942 0.461515 0
M  V30 2868 H 271.337 -4.87698 -0.013932 0
M  V30 2869 H 270.342 -4.99946 2.28767 0
M  V30 2870 H 271.567 -6.20592 2.75758 0
M  V30 2871 H 269.513 -6.53788 0.538254 0
M  V30 2872 H 269.43 -7.25898 2.11208 0
M  V30 2873 H 270.698 -7.72806 1.01933 0
M  V30 2874 N 274.927 -0.932562 -1.27047 0
M  V30 2875 C 276.152 -0.591474 -1.98787 0
M  V30 2876 C 276.577 0.824601 -1.69062 0
M  V30 2877 O 275.935 1.5541 -0.933677 0
M  V30 2878 C 275.983 -0.829808 -3.50922 0
M  V30 2879 O 275.087 0.102266 -4.12273 0
M  V30 2880 H 274.428 -0.227185 -0.623926 0
M  V30 2881 H 276.958 -1.25314 -1.61733 0
M  V30 2882 H 276.968 -0.747292 -4.01098 0
M  V30 2883 H 275.643 -1.86201 -3.7189 0
M  V30 2884 H 274.22 -0.0305761 -3.72887 0
M  V30 2885 N 276.405 1.4127 -0.698611 0
M  V30 2886 C 277.352 2.30773 -0.0352094 0
M  V30 2887 C 278.322 1.47273 0.768111 0
M  V30 2888 O 279.507 1.76053 0.735524 0
M  V30 2889 C 276.647 3.33346 0.893 0
M  V30 2890 C 275.76 4.31924 0.0809695 0
M  V30 2891 C 274.895 5.21566 1.0071 0
M  V30 2892 C 273.934 6.11811 0.188155 0
M  V30 2893 N 273.071 6.93926 1.06825 0
M  V30 2894 H 277.911 2.86943 -0.804207 0
M  V30 2895 H 275.448 1.4132 -0.408294 0
M  V30 2896 H 277.406 3.91368 1.44523 0
M  V30 2897 H 276.036 2.78719 1.62836 0
M  V30 2898 H 275.088 3.75825 -0.588224 0
M  V30 2899 H 276.4 4.95716 -0.553801 0
M  V30 2900 H 275.554 5.84437 1.62845 0
M  V30 2901 H 274.293 4.58008 1.67572 0
M  V30 2902 H 273.298 5.47986 -0.446254 0
M  V30 2903 H 274.523 6.77425 -0.476716 0
M  V30 2904 H 272.469 6.32973 1.72283 0
M  V30 2905 H 272.386 7.54416 0.489123 0
M  V30 2906 H 273.654 7.61262 1.67632 0
M  V30 2907 N 277.883 0.443576 1.51229 0
M  V30 2908 C 279.13 -0.120796 2.02139 0
M  V30 2909 C 279.458 -1.42166 1.32736 0
M  V30 2910 O 278.713 -1.90849 0.43301 0
M  V30 2911 C 279.012 -0.380579 3.55368 0
M  V30 2912 C 278.678 0.83523 4.43097 0
M  V30 2913 C 277.34 1.16864 4.66794 0
M  V30 2914 C 279.692 1.64601 4.94526 0
M  V30 2915 C 277.02 2.31339 5.39165 0
M  V30 2916 C 279.372 2.78181 5.68153 0
M  V30 2917 C 278.036 3.11969 5.90112 0
M  V30 2918 H 277.306 -0.0442023 0.73968 0
M  V30 2919 H 279.953 0.592046 1.82118 0
M  V30 2920 H 278.258 -1.17538 3.73754 0
M  V30 2921 H 279.955 -0.830777 3.923 0
M  V30 2922 H 276.545 0.565437 4.24854 0
M  V30 2923 H 280.729 1.40163 4.76097 0
M  V30 2924 H 275.985 2.57823 5.5438 0
M  V30 2925 H 280.159 3.41371 6.06992 0
M  V30 2926 H 277.786 4.00784 6.45969 0
M  V30 2927 N 279.361 -1.56624 0.175154 0
M  V30 2928 C 280.638 -1.88688 -0.515373 0
M  V30 2929 C 281.018 -1.08564 -1.81044 0
M  V30 2930 O 280.366 -0.180703 -2.27784 0
M  V30 2931 C 280.576 -3.40768 -0.753552 0
M  V30 2932 C 281.924 -4.10587 -1.08184 0
M  V30 2933 O 282.948 -3.46106 -0.841961 0
M  V30 2934 O 281.807 -5.24512 -1.53459 0
M  V30 2935 H 278.901 -0.78301 -0.26613 0
M  V30 2936 H 281.447 -1.68347 0.213877 0
M  V30 2937 H 280.219 -3.90965 0.161829 0
M  V30 2938 H 279.842 -3.66733 -1.53598 0
M  V30 2939 N 280.839 0.0985539 -1.57292 0
M  V30 2940 C 281.787 1.1387 -2.02821 0
M  V30 2941 C 282.781 1.41676 -0.928666 0
M  V30 2942 O 283.987 1.41398 -1.11385 0
M  V30 2943 H 280.362 0.384419 -0.646317 0
M  V30 2944 H 282.333 0.728347 -2.89375 0
M  V30 2945 C 281.082 2.45166 -2.46554 0
M  V30 2946 H 280.405 2.24613 -3.3074 0
M  V30 2947 H 281.845 3.16456 -2.8219 0
M  V30 2948 C 280.304 3.09216 -1.33742 0
M  V30 2949 O 280.834 3.96163 -0.66464 0
M  V30 2950 N 279.04 2.69413 -1.08928 0
M  V30 2951 H 278.587 1.98801 -1.63817 0
M  V30 2952 H 278.545 3.12594 -0.336458 0
M  V30 2953 N 282.317 1.53212 0.369288 0
M  V30 2954 C 283.247 1.82365 1.45826 0
M  V30 2955 C 284.228 0.676907 1.56051 0
M  V30 2956 O 285.413 0.926401 1.70679 0
M  V30 2957 C 282.543 2.01023 2.83208 0
M  V30 2958 C 281.497 3.1678 2.8781 0
M  V30 2959 C 280.823 3.20724 4.27832 0
M  V30 2960 C 282.123 4.55447 2.55667 0
M  V30 2961 H 283.817 2.73559 1.21678 0
M  V30 2962 H 281.363 1.3163 0.583911 0
M  V30 2963 H 283.316 2.20001 3.59413 0
M  V30 2964 H 282.04 1.06536 3.08736 0
M  V30 2965 H 280.699 2.97616 2.14056 0
M  V30 2966 H 280.347 2.23882 4.50429 0
M  V30 2967 H 280.047 3.98496 4.31827 0
M  V30 2968 H 281.571 3.41881 5.05915 0
M  V30 2969 H 282.985 4.74611 3.21586 0
M  V30 2970 H 281.382 5.35432 2.70984 0
M  V30 2971 H 282.452 4.60812 1.5093 0
M  V30 2972 N 283.795 -0.628877 1.44509 0
M  V30 2973 C 285.025 -1.41349 1.50678 0
M  V30 2974 C 285.433 -1.88745 0.131075 0
M  V30 2975 O 284.776 -1.61592 -0.87371 0
M  V30 2976 C 284.838 -2.66608 2.41165 0
M  V30 2977 C 284.502 -2.40993 3.88293 0
M  V30 2978 C 285.499 -2.0268 4.78766 0
M  V30 2979 C 283.184 -2.54563 4.33016 0
M  V30 2980 C 285.178 -1.78269 6.11963 0
M  V30 2981 C 282.865 -2.29766 5.6626 0
M  V30 2982 C 283.863 -1.91678 6.55552 0
M  V30 2983 O 283.551 -1.67158 7.86329 0
M  V30 2984 H 283.283 -0.439851 0.51333 0
M  V30 2985 H 285.837 -0.776084 1.90174 0
M  V30 2986 H 284.067 -3.32994 1.96601 0
M  V30 2987 H 285.756 -3.28615 2.38259 0
M  V30 2988 H 286.522 -1.91751 4.45485 0
M  V30 2989 H 282.401 -2.83179 3.63773 0
M  V30 2990 H 285.945 -1.48465 6.81619 0
M  V30 2991 H 281.842 -2.40306 5.99102 0
M  V30 2992 H 282.61 -1.81386 7.98149 0
M  V30 2993 N 285.273 -1.31445 -0.869486 0
M  V30 2994 C 286.521 -1.20918 -1.61936 0
M  V30 2995 C 286.842 0.232683 -1.93607 0
M  V30 2996 O 286.112 1.15352 -1.58338 0
M  V30 2997 H 284.692 -0.44454 -0.600328 0
M  V30 2998 H 287.354 -1.64776 -1.0409 0
M  V30 2999 H 286.45 -1.78124 -2.56278 0
M  V30 3000 N 286.751 1.08385 -1.14413 0
M  V30 3001 C 287.991 1.8238 -0.922868 0
M  V30 3002 C 288.355 1.84225 0.540842 0
M  V30 3003 O 289.556 2.53985 0.880058 0
M  V30 3004 C 287.827 3.24048 -1.50757 0
M  V30 3005 S 289.386 4.14917 -1.4279 0
M  V30 3006 H 286.204 0.628524 -0.332384 0
M  V30 3007 H 288.806 1.30278 -1.45766 0
M  V30 3008 H 287.51 3.20288 -2.56601 0
M  V30 3009 H 287.041 3.81224 -0.971178 0
M  V30 3010 H 289.056 4.94473 -0.413582 0
M  V30 3011 N 288.23 0.939286 1.26551 0
M  V30 3012 C 289.646 0.641304 1.46149 0
M  V30 3013 C 289.846 -0.805964 1.84679 0
M  V30 3014 O 288.902 -1.58278 1.96734 0
M  V30 3015 C 290.215 1.6011 2.54529 0
M  V30 3016 C 291.763 1.6106 2.68382 0
M  V30 3017 C 292.238 2.55765 3.79932 0
M  V30 3018 N 293.729 2.5404 3.87322 0
M  V30 3019 C 294.464 3.24004 4.73085 0
M  V30 3020 N 293.96 4.03388 5.63249 0
M  V30 3021 N 295.753 3.12965 4.66914 0
M  V30 3022 H 287.904 1.87478 0.998285 0
M  V30 3023 H 290.167 0.805559 0.499779 0
M  V30 3024 H 289.873 2.63412 2.33039 0
M  V30 3025 H 289.747 1.35171 3.52149 0
M  V30 3026 H 292.134 0.584835 2.89247 0
M  V30 3027 H 292.215 1.90053 1.71212 0
M  V30 3028 H 291.859 3.58458 3.5982 0
M  V30 3029 H 291.789 2.24063 4.76554 0
M  V30 3030 H 294.28 1.96396 3.22858 0
M  V30 3031 H 294.593 4.5373 6.25579 0
M  V30 3032 H 292.938 4.07489 5.63008 0
M  V30 3033 H 296.129 2.50432 3.95476 0
M  V30 3034 H 296.302 3.67759 5.33533 0
M  V30 3035 N 289.708 -1.40897 0.706093 0
M  V30 3036 C 290.618 -2.3455 0.0482286 0
M  V30 3037 C 291.634 -1.56796 -0.754396 0
M  V30 3038 O 292.81 -1.89228 -0.689538 0
M  V30 3039 C 289.875 -3.35625 -0.869303 0
M  V30 3040 C 288.936 -4.29261 -0.0576994 0
M  V30 3041 C 288.169 -5.25508 -0.931531 0
M  V30 3042 O 288.392 -5.27472 -2.17092 0
M  V30 3043 O 287.326 -6.00727 -0.375587 0
M  V30 3044 H 291.152 -2.92407 0.820476 0
M  V30 3045 H 288.737 -1.4193 0.4665 0
M  V30 3046 H 290.619 -3.97635 -1.39514 0
M  V30 3047 H 289.294 -2.80196 -1.62086 0
M  V30 3048 H 288.201 -3.70566 0.512988 0
M  V30 3049 H 289.534 -4.87817 0.655426 0
M  V30 3050 N 291.186 -0.45159 -1.50991 0
M  V30 3051 C 292.411 0.110667 -2.07105 0
M  V30 3052 C 292.836 1.3446 -1.31538 0
M  V30 3053 O 292.194 1.77743 -0.357365 0
M  V30 3054 C 292.242 0.397238 -3.58405 0
M  V30 3055 O 291.346 1.48124 -3.84881 0
M  V30 3056 H 290.687 -0.00439271 -0.663985 0
M  V30 3057 H 293.217 -0.637026 -1.9443 0
M  V30 3058 H 293.227 0.64351 -4.02893 0
M  V30 3059 H 291.902 -0.504553 -4.12828 0
M  V30 3060 H 290.479 1.22381 -3.52246 0
M  V30 3061 N 292.664 1.56529 -0.183458 0
M  V30 3062 C 293.594 2.21549 0.737456 0
M  V30 3063 C 294.575 1.17489 1.23005 0
M  V30 3064 O 295.76 1.45959 1.281 0
M  V30 3065 C 292.89 2.86575 1.96194 0
M  V30 3066 C 291.844 3.96778 1.60473 0
M  V30 3067 C 291.17 4.48911 2.90487 0
M  V30 3068 C 292.47 5.15767 0.823497 0
M  V30 3069 H 294.164 2.98761 0.195453 0
M  V30 3070 H 291.71 1.43702 0.0925686 0
M  V30 3071 H 293.663 3.30739 2.61131 0
M  V30 3072 H 292.387 2.06749 2.52828 0
M  V30 3073 H 291.046 3.53286 0.978997 0
M  V30 3074 H 290.694 3.65862 3.45186 0
M  V30 3075 H 290.394 5.23265 2.67335 0
M  V30 3076 H 291.918 4.95771 3.56432 0
M  V30 3077 H 293.332 5.56549 1.37571 0
M  V30 3078 H 291.729 5.96114 0.690551 0
M  V30 3079 H 292.799 4.84574 -0.177782 0
M  V30 3080 N 294.142 -0.090211 1.57342 0
M  V30 3081 C 295.391 -0.791531 1.8552 0
M  V30 3082 C 295.704 -1.79659 0.773441 0
M  V30 3083 O 296.91 -2.54616 0.942497 0
M  V30 3084 C 295.366 -1.45856 3.2902 0
M  V30 3085 C 294.974 -0.493017 4.45279 0
M  V30 3086 C 296.718 -2.14332 3.66418 0
M  V30 3087 C 294.625 -1.16491 5.79814 0
M  V30 3088 H 293.555 -0.299356 0.692027 0
M  V30 3089 H 296.206 -0.0445343 1.83446 0
M  V30 3090 H 294.588 -2.25318 3.2565 0
M  V30 3091 H 295.762 0.270464 4.60006 0
M  V30 3092 H 294.077 0.0863061 4.16311 0
M  V30 3093 H 296.674 -2.65344 4.64216 0
M  V30 3094 H 297.017 -2.93447 2.95287 0
M  V30 3095 H 297.55 -1.41724 3.71698 0
M  V30 3096 H 294.289 -0.41447 6.54188 0
M  V30 3097 H 293.809 -1.8997 5.68921 0
M  V30 3098 H 295.488 -1.69001 6.24538 0
M  V30 3099 N 295.62 -1.53406 -0.361157 0
M  V30 3100 C 296.897 -1.60411 -1.11927 0
M  V30 3101 C 297.277 -0.414385 -2.06993 0
M  V30 3102 O 296.625 0.594976 -2.20618 0
M  V30 3103 C 296.835 -2.95652 -1.85448 0
M  V30 3104 C 298.183 -3.50386 -2.39823 0
M  V30 3105 O 299.207 -2.97711 -1.95568 0
M  V30 3106 O 298.066 -4.42482 -3.20737 0
M  V30 3107 H 295.16 -0.64811 -0.513695 0
M  V30 3108 H 297.706 -1.65749 -0.364065 0
M  V30 3109 H 296.478 -3.73682 -1.16091 0
M  V30 3110 H 296.101 -2.93825 -2.67866 0
M  V30 3111 N 297.098 0.621204 -1.44841 0
M  V30 3112 C 298.346 1.37783 -1.47852 0
M  V30 3113 C 298.667 1.94653 -0.116224 0
M  V30 3114 O 297.937 1.76367 0.852737 0
M  V30 3115 H 296.517 0.511453 -0.544449 0
M  V30 3116 H 299.179 0.730446 -1.80694 0
M  V30 3117 H 298.275 2.20414 -2.20961 0
M  V30 3118 N 298.576 1.31904 0.862503 0
M  V30 3119 C 299.825 1.21373 1.61094 0
M  V30 3120 C 300.138 -0.22504 1.94301 0
M  V30 3121 O 301.344 -0.452121 2.67709 0
M  V30 3122 C 299.8 2.12525 2.9045 0
M  V30 3123 C 299.408 3.61441 2.64697 0
M  V30 3124 C 301.152 2.10813 3.68454 0
M  V30 3125 C 299.059 4.44578 3.90006 0
M  V30 3126 H 297.989 0.450705 0.604468 0
M  V30 3127 H 300.64 1.56811 0.953027 0
M  V30 3128 H 299.022 1.69994 3.57656 0
M  V30 3129 H 300.196 4.12264 2.05851 0
M  V30 3130 H 298.511 3.65205 2.00036 0
M  V30 3131 H 301.108 2.70167 4.61426 0
M  V30 3132 H 301.451 1.09713 4.01583 0
M  V30 3133 H 301.984 2.51583 3.08141 0
M  V30 3134 H 298.723 5.46461 3.62023 0
M  V30 3135 H 298.243 3.98508 4.48276 0
M  V30 3136 H 299.922 4.57176 4.5782 0
M  V30 3137 N 300.054 -1.07777 1.14986 0
M  V30 3138 C 301.001 -2.14867 0.842672 0
M  V30 3139 C 301.971 -1.6486 -0.202552 0
M  V30 3140 O 303.156 -1.90668 -0.0710568 0
M  V30 3141 C 300.296 -3.43486 0.333363 0
M  V30 3142 C 299.409 -4.07306 1.43965 0
M  V30 3143 C 298.544 -5.23744 0.886914 0
M  V30 3144 C 297.583 -5.79517 1.97043 0
M  V30 3145 N 296.72 -6.87291 1.4344 0
M  V30 3146 H 301.56 -2.40485 1.75986 0
M  V30 3147 H 299.097 -1.1801 0.878179 0
M  V30 3148 H 301.055 -4.17195 0.0198163 0
M  V30 3149 H 299.685 -3.18133 -0.546916 0
M  V30 3150 H 298.737 -3.31293 1.86946 0
M  V30 3151 H 300.049 -4.44771 2.25788 0
M  V30 3152 H 299.203 -6.04419 0.525651 0
M  V30 3153 H 297.942 -4.87685 0.0377957 0
M  V30 3154 H 296.947 -4.97491 2.34057 0
M  V30 3155 H 298.172 -6.17632 2.82325 0
M  V30 3156 H 296.118 -6.5318 0.607567 0
M  V30 3157 H 296.035 -7.23617 2.18895 0
M  V30 3158 H 297.303 -7.71682 1.10124 0
M  V30 3159 N 301.532 -0.945985 -1.26051 0
M  V30 3160 C 302.948 -0.649045 -1.45807 0
M  V30 3161 C 303.148 0.796158 -1.85104 0
M  V30 3162 O 302.204 1.57233 -1.97571 0
M  V30 3163 C 303.517 -1.61458 -2.53677 0
M  V30 3164 C 305.065 -1.62481 -2.67524 0
M  V30 3165 C 305.54 -2.57776 -3.7857 0
M  V30 3166 N 307.031 -2.5609 -3.85969 0
M  V30 3167 C 307.766 -3.26508 -4.7136 0
M  V30 3168 N 307.262 -4.0637 -5.61102 0
M  V30 3169 N 309.055 -3.15437 -4.65248 0
M  V30 3170 H 301.206 -1.88005 -0.988328 0
M  V30 3171 H 303.469 -0.808198 -0.4955 0
M  V30 3172 H 303.175 -2.64644 -2.31638 0
M  V30 3173 H 303.049 -1.37036 -3.51427 0
M  V30 3174 H 305.436 -0.600167 -2.88933 0
M  V30 3175 H 305.517 -1.90958 -1.70202 0
M  V30 3176 H 305.161 -3.60361 -3.57913 0
M  V30 3177 H 305.091 -2.26587 -4.75359 0
M  V30 3178 H 307.582 -1.98105 -3.21812 0
M  V30 3179 H 307.895 -4.57042 -6.23164 0
M  V30 3180 H 306.24 -4.10469 -5.60839 0
M  V30 3181 H 309.431 -2.52525 -3.94143 0
M  V30 3182 H 309.604 -3.70584 -5.31575 0
M  V30 3183 N 303.011 1.40521 -0.713556 0
M  V30 3184 C 303.974 2.29098 -0.0684347 0
M  V30 3185 C 304.974 1.45268 0.689472 0
M  V30 3186 O 306.164 1.66205 0.521677 0
M  V30 3187 C 303.296 3.28446 0.913024 0
M  V30 3188 H 304.489 2.87645 -0.84855 0
M  V30 3189 H 302.042 1.48809 -0.47809 0
M  V30 3190 H 302.777 2.74913 1.72027 0
M  V30 3191 H 302.562 3.90327 0.372472 0
M  V30 3192 H 304.052 3.94777 1.36165 0
M  V30 3193 N 304.489 0.459591 1.5075 0
M  V30 3194 C 305.717 -0.0973749 2.06671 0
M  V30 3195 C 306.132 -1.34524 1.32472 0
M  V30 3196 O 305.489 -1.7827 0.390634 0
M  V30 3197 C 305.54 -0.39714 3.59312 0
M  V30 3198 O 305.261 0.801214 4.30711 0
M  V30 3199 C 306.762 -1.00234 4.31819 0
M  V30 3200 H 303.982 0.00195854 0.670997 0
M  V30 3201 H 306.526 0.645072 1.94059 0
M  V30 3202 H 304.681 -1.08951 3.71764 0
M  V30 3203 H 305.095 0.538857 5.21725 0
M  V30 3204 H 306.569 -1.16193 5.39632 0
M  V30 3205 H 307.046 -1.98939 3.91561 0
M  V30 3206 H 307.652 -0.348699 4.23868 0
M  V30 3207 N 305.967 -1.56429 0.191757 0
M  V30 3208 C 307.244 -1.89224 -0.495332 0
M  V30 3209 C 307.624 -1.10478 -1.79883 0
M  V30 3210 O 306.972 -0.204852 -2.2758 0
M  V30 3211 C 307.182 -3.41548 -0.717367 0
M  V30 3212 C 308.53 -4.11711 -1.03823 0
M  V30 3213 O 309.554 -3.4698 -0.805204 0
M  V30 3214 O 308.413 -5.2611 -1.47887 0
M  V30 3215 H 305.507 -0.785788 -0.25781 0
M  V30 3216 H 308.053 -1.68111 0.231721 0
M  V30 3217 H 306.825 -3.90772 0.203287 0
M  V30 3218 H 306.448 -3.68342 -1.497 0
M  V30 3219 N 307.445 0.0818655 -1.57387 0
M  V30 3220 C 308.691 0.784074 -1.8703 0
M  V30 3221 C 309.024 1.77729 -0.782689 0
M  V30 3222 O 308.299 1.93384 0.208051 0
M  V30 3223 C 308.582 1.50105 -3.27323 0
M  V30 3224 C 308.435 0.524925 -4.46727 0
M  V30 3225 C 309.754 2.44843 -3.65705 0
M  V30 3226 H 306.873 0.283582 -0.680257 0
M  V30 3227 H 309.515 0.0474352 -1.89941 0
M  V30 3228 H 307.665 2.12897 -3.24972 0
M  V30 3229 H 309.337 -0.0970111 -4.61198 0
M  V30 3230 H 307.58 -0.160606 -4.33503 0
M  V30 3231 H 308.251 1.064 -5.41648 0
M  V30 3232 H 310.727 1.92135 -3.69085 0
M  V30 3233 H 309.603 2.92018 -4.64776 0
M  V30 3234 H 309.864 3.29197 -2.95096 0
M  V30 3235 N 308.923 1.53595 0.353017 0
M  V30 3236 C 309.856 1.7572 1.45594 0
M  V30 3237 C 310.834 0.605961 1.50887 0
M  V30 3238 O 312.018 0.840023 1.68748 0
M  V30 3239 C 309.145 1.84732 2.83887 0
M  V30 3240 C 308.191 3.06808 2.96262 0
M  V30 3241 S 309.024 4.66065 2.63711 0
M  V30 3242 C 310.18 4.77943 4.04131 0
M  V30 3243 H 310.413 2.68994 1.26608 0
M  V30 3244 H 307.946 1.44343 0.548117 0
M  V30 3245 H 309.904 1.9061 3.63563 0
M  V30 3246 H 308.565 0.92488 3.00175 0
M  V30 3247 H 307.758 3.09761 3.97573 0
M  V30 3248 H 307.36 2.99108 2.24523 0
M  V30 3249 H 309.652 4.5877 4.98534 0
M  V30 3250 H 310.595 5.80022 4.06177 0
M  V30 3251 H 311.003 4.06472 3.91715 0
M  V30 3252 N 310.401 -0.613514 1.45168 0
M  V30 3253 C 311.65 -1.36874 1.4815 0
M  V30 3254 C 311.963 -1.952 0.124982 0
M  V30 3255 O 313.169 -2.71481 0.0324176 0
M  V30 3256 C 311.625 -2.47905 2.60904 0
M  V30 3257 C 311.233 -1.96016 4.02842 0
M  V30 3258 C 312.977 -3.24965 2.73126 0
M  V30 3259 C 310.884 -3.04494 5.06988 0
M  V30 3260 H 309.814 -0.514428 0.551253 0
M  V30 3261 H 312.465 -0.658182 1.7129 0
M  V30 3262 H 310.847 -3.21618 2.31037 0
M  V30 3263 H 312.021 -1.29051 4.4236 0
M  V30 3264 H 310.336 -1.31719 3.95018 0
M  V30 3265 H 312.933 -4.05865 3.48106 0
M  V30 3266 H 313.276 -3.75588 1.79553 0
M  V30 3267 H 313.809 -2.5835 3.0249 0
M  V30 3268 H 310.548 -2.58795 6.0225 0
M  V30 3269 H 310.068 -3.70044 4.72046 0
M  V30 3270 H 311.747 -3.68976 5.31475 0
M  V30 3271 N 311.879 -1.3236 -0.855495 0
M  V30 3272 C 312.842 -1.21164 -1.94556 0
M  V30 3273 C 313.842 -0.134908 -1.60233 0
M  V30 3274 O 315.032 -0.385249 -1.69887 0
M  V30 3275 C 312.164 -0.863192 -3.29791 0
M  V30 3276 H 313.357 -2.18038 -2.05911 0
M  V30 3277 H 310.91 -1.16179 -1.04557 0
M  V30 3278 H 311.645 0.103769 -3.24134 0
M  V30 3279 H 311.43 -1.64166 -3.56078 0
M  V30 3280 H 312.92 -0.809156 -4.09686 0
M  V30 3281 N 313.357 1.07166 -1.15556 0
M  V30 3282 C 314.605 1.79443 -0.929764 0
M  V30 3283 C 314.926 1.87246 0.544414 0
M  V30 3284 O 314.196 1.37473 1.39564 0
M  V30 3285 H 312.776 0.664625 -0.341003 0
M  V30 3286 H 315.438 1.29499 -1.45657 0
M  V30 3287 H 314.534 2.81832 -1.34079 0
M  V30 3288 N 314.835 0.952656 1.25548 0
M  V30 3289 C 315.782 0.47008 2.25962 0
M  V30 3290 C 316.752 -0.476384 1.59122 0
M  V30 3291 O 317.937 -0.39007 1.8677 0
M  V30 3292 C 315.077 -0.247881 3.44209 0
M  V30 3293 C 314.19 0.735591 4.25691 0
M  V30 3294 C 313.325 -0.0047306 5.312 0
M  V30 3295 C 312.364 0.969805 6.04368 0
M  V30 3296 N 311.501 0.260486 7.01617 0
M  V30 3297 H 316.341 1.33126 2.66611 0
M  V30 3298 H 313.878 0.66765 1.31076 0
M  V30 3299 H 315.836 -0.680695 4.1161 0
M  V30 3300 H 314.466 -1.07312 3.0444 0
M  V30 3301 H 313.518 1.28689 3.57971 0
M  V30 3302 H 314.83 1.47934 4.76358 0
M  V30 3303 H 313.984 -0.496275 6.04667 0
M  V30 3304 H 312.723 -0.781282 4.81401 0
M  V30 3305 H 311.728 1.47237 5.29718 0
M  V30 3306 H 312.953 1.74655 6.56256 0
M  V30 3307 H 310.899 -0.497364 6.54112 0
M  V30 3308 H 310.816 0.943362 7.50091 0
M  V30 3309 H 312.084 -0.209587 7.79218 0
M  V30 3310 N 316.313 -1.40141 0.720998 0
M  V30 3311 C 317.559 -2.01084 0.263231 0
M  V30 3312 C 317.892 -1.57052 -1.14229 0
M  V30 3313 O 317.167 -0.793027 -1.77599 0
M  V30 3314 C 317.45 -3.58401 0.349344 0
M  V30 3315 C 317.303 -4.12491 1.79363 0
M  V30 3316 C 318.622 -4.39231 -0.276351 0
M  V30 3317 H 315.741 -0.730572 0.0971228 0
M  V30 3318 H 318.383 -1.66543 0.914518 0
M  V30 3319 H 316.533 -3.87958 -0.205165 0
M  V30 3320 H 318.205 -3.93711 2.40394 0
M  V30 3321 H 316.448 -3.66576 2.31958 0
M  V30 3322 H 317.119 -5.21646 1.80524 0
M  V30 3323 H 319.595 -4.15637 0.196184 0
M  V30 3324 H 318.471 -5.48586 -0.185681 0
M  V30 3325 H 318.732 -4.20643 -1.36059 0
M  V30 3326 N 317.792 -0.46758 -1.50504 0
M  V30 3327 C 318.755 0.317059 -2.26996 0
M  V30 3328 C 319.755 0.923513 -1.31635 0
M  V30 3329 O 320.945 0.793239 -1.55091 0
M  V30 3330 C 318.077 1.45134 -3.08462 0
M  V30 3331 H 319.27 -0.353723 -2.97807 0
M  V30 3332 H 316.823 -0.221545 -1.54722 0
M  V30 3333 H 317.558 2.15728 -2.4214 0
M  V30 3334 H 317.343 1.02232 -3.78538 0
M  V30 3335 H 318.833 2.00493 -3.66323 0
M  V30 3336 N 319.27 1.56325 -0.20005 0
M  V30 3337 C 320.516 1.98012 0.438059 0
M  V30 3338 C 320.849 1.08702 1.60927 0
M  V30 3339 O 320.124 0.140064 1.93995 0
M  V30 3340 C 320.407 3.48841 0.893419 0
M  V30 3341 C 320.26 4.48928 -0.279947 0
M  V30 3342 C 321.579 4.03498 1.75719 0
M  V30 3343 H 318.698 0.719918 0.157757 0
M  V30 3344 H 321.34 1.87743 -0.291968 0
M  V30 3345 H 319.49 3.57723 1.51547 0
M  V30 3346 H 321.162 4.52079 -0.91772 0
M  V30 3347 H 319.405 4.23694 -0.930919 0
M  V30 3348 H 320.076 5.5194 0.0812601 0
M  V30 3349 H 322.552 3.97427 1.23253 0
M  V30 3350 H 321.428 5.09393 2.04476 0
M  V30 3351 H 321.689 3.4906 2.71311 0
M  V30 3352 N 320.748 -0.0735177 1.57428 0
M  V30 3353 C 321.994 -0.774145 1.87443 0
M  V30 3354 C 322.327 -1.77311 0.792103 0
M  V30 3355 O 321.602 -1.93492 -0.197793 0
M  V30 3356 C 321.885 -1.48367 3.28115 0
M  V30 3357 C 321.738 -0.501227 4.46999 0
M  V30 3358 C 323.057 -2.429 3.66998 0
M  V30 3359 H 320.176 -0.279971 0.681752 0
M  V30 3360 H 322.818 -0.0373616 1.89963 0
M  V30 3361 H 320.968 -2.11171 3.26097 0
M  V30 3362 H 322.64 0.121468 4.6114 0
M  V30 3363 H 320.883 0.183593 4.33411 0
M  V30 3364 H 321.554 -1.03526 5.42205 0
M  V30 3365 H 324.03 -1.90175 3.70098 0
M  V30 3366 H 322.906 -2.89549 4.66318 0
M  V30 3367 H 323.167 -3.27628 2.96837 0
M  V30 3368 N 322.226 -1.5378 -0.344866 0
M  V30 3369 C 323.189 -1.80981 -1.40637 0
M  V30 3370 C 324.189 -0.680816 -1.45676 0
M  V30 3371 O 325.379 -0.949095 -1.46075 0
M  V30 3372 C 322.511 -1.95063 -2.79577 0
M  V30 3373 H 323.704 -2.75803 -1.17783 0
M  V30 3374 H 321.257 -1.45173 -0.579181 0
M  V30 3375 H 321.992 -1.02379 -3.07716 0
M  V30 3376 H 321.777 -2.77198 -2.77315 0
M  V30 3377 H 323.267 -2.17629 -3.56409 0
M  V30 3378 N 323.704 0.605807 -1.45491 0
M  V30 3379 C 324.952 1.36207 -1.49305 0
M  V30 3380 C 325.273 1.94519 -0.136863 0
M  V30 3381 O 324.543 1.77261 0.833983 0
M  V30 3382 H 323.123 0.50565 -0.549843 0
M  V30 3383 H 325.785 0.711239 -1.81459 0
M  V30 3384 H 324.881 2.18058 -2.23287 0
M  V30 3385 N 325.182 1.32811 0.848464 0
M  V30 3386 C 326.412 1.26556 1.63301 0
M  V30 3387 C 326.82 -0.1676 1.88456 0
M  V30 3388 O 326.163 -1.11713 1.45828 0
M  V30 3389 C 326.225 1.96202 3.01239 0
M  V30 3390 C 325.889 3.45528 2.99098 0
M  V30 3391 C 326.886 4.40903 2.75501 0
M  V30 3392 C 324.571 3.87558 3.19537 0
M  V30 3393 C 326.565 5.76282 2.72356 0
M  V30 3394 C 324.252 5.23044 3.16019 0
M  V30 3395 C 325.25 6.17217 2.92458 0
M  V30 3396 O 324.938 7.50223 2.88825 0
M  V30 3397 H 324.67 0.43771 0.515156 0
M  V30 3398 H 327.224 1.7559 1.0657 0
M  V30 3399 H 325.454 1.41746 3.59785 0
M  V30 3400 H 327.143 1.83573 3.62016 0
M  V30 3401 H 327.909 4.09756 2.5947 0
M  V30 3402 H 323.788 3.14674 3.369 0
M  V30 3403 H 327.332 6.4976 2.53886 0
M  V30 3404 H 323.229 5.53818 3.31596 0
M  V30 3405 H 323.997 7.59657 3.04735 0
M  V30 3406 N 326.66 -1.06551 1.16123 0
M  V30 3407 C 327.908 -1.78947 0.939267 0
M  V30 3408 C 328.229 -1.87532 -0.534476 0
M  V30 3409 O 327.499 -1.38211 -1.38833 0
M  V30 3410 H 326.079 -0.662807 0.344523 0
M  V30 3411 H 328.741 -1.28725 1.46342 0
M  V30 3412 H 327.837 -2.81117 1.35572 0
M  V30 3413 N 328.138 -0.959301 -1.25041 0
M  V30 3414 C 329.415 -0.533805 -1.88175 0
M  V30 3415 C 329.795 0.988994 -1.865 0
M  V30 3416 O 329.143 1.85677 -1.33177 0
M  V30 3417 C 329.353 -1.11575 -3.30684 0
M  V30 3418 C 330.701 -1.19548 -4.07423 0
M  V30 3419 O 331.725 -1.06765 -3.39823 0
M  V30 3420 O 330.584 -1.39656 -5.28354 0
M  V30 3421 H 327.678 -0.176772 -0.807887 0
M  V30 3422 H 330.224 -1.05303 -1.33076 0
M  V30 3423 H 328.996 -2.15884 -3.26358 0
M  V30 3424 H 328.619 -0.580059 -3.93346 0
M  V30 3425 N 329.616 1.39756 -0.72842 0
M  V30 3426 C 330.862 2.00942 -0.273892 0
M  V30 3427 C 331.195 1.57656 1.13394 0
M  V30 3428 O 330.47 0.802434 1.77176 0
M  V30 3429 C 330.753 3.58211 -0.368346 0
M  V30 3430 C 330.606 4.11534 -1.81548 0
M  V30 3431 C 331.925 4.39372 0.253054 0
M  V30 3432 H 329.044 0.730047 -0.100996 0
M  V30 3433 H 331.686 1.66056 -0.923337 0
M  V30 3434 H 329.836 3.88061 0.184588 0
M  V30 3435 H 331.508 3.92431 -2.42478 0
M  V30 3436 H 329.751 3.65341 -2.33898 0
M  V30 3437 H 330.422 5.20682 -1.83288 0
M  V30 3438 H 332.898 4.15527 -0.218224 0
M  V30 3439 H 331.774 5.48677 0.156585 0
M  V30 3440 H 332.035 4.21358 1.33826 0
M  V30 3441 N 331.094 0.475555 1.50254 0
M  V30 3442 C 332.342 -0.077738 2.0195 0
M  V30 3443 C 332.663 -1.39813 1.35931 0
M  V30 3444 O 331.933 -1.89249 0.506123 0
M  V30 3445 H 330.513 -0.031719 0.746326 0
M  V30 3446 H 333.175 0.626995 1.84539 0
M  V30 3447 H 332.271 -0.225995 3.11281 0
M  V30 3448 N 332.573 -1.56217 0.208337 0
M  V30 3449 C 333.52 -2.19699 -0.707192 0
M  V30 3450 C 334.49 -1.14836 -1.20008 0
M  V30 3451 O 335.675 -1.4314 -1.26157 0
M  V30 3452 C 332.815 -2.87061 -1.91546 0
M  V30 3453 C 331.928 -4.06483 -1.46271 0
M  V30 3454 C 331.063 -4.61665 -2.62752 0
M  V30 3455 C 330.102 -5.73417 -2.14147 0
M  V30 3456 N 329.239 -6.22948 -3.23853 0
M  V30 3457 H 334.079 -2.97575 -0.159111 0
M  V30 3458 H 331.616 -1.46948 -0.0667874 0
M  V30 3459 H 333.574 -3.24294 -2.62468 0
M  V30 3460 H 332.204 -2.11725 -2.43664 0
M  V30 3461 H 331.256 -3.74825 -0.648886 0
M  V30 3462 H 332.568 -4.87271 -1.06622 0
M  V30 3463 H 331.722 -5.01272 -3.41776 0
M  V30 3464 H 330.461 -3.80013 -3.05682 0
M  V30 3465 H 329.466 -5.33326 -1.33581 0
M  V30 3466 H 330.691 -6.56897 -1.72232 0
M  V30 3467 H 328.637 -5.44213 -3.6629 0
M  V30 3468 H 328.554 -6.98823 -2.88414 0
M  V30 3469 H 329.822 -6.6721 -4.03052 0
M  V30 3470 N 334.051 0.0651679 -1.57465 0
M  V30 3471 C 335.299 0.761555 -1.87202 0
M  V30 3472 C 335.62 1.77778 -0.801243 0
M  V30 3473 O 334.89 1.95166 0.16937 0
M  V30 3474 H 333.47 0.284251 -0.690804 0
M  V30 3475 H 336.132 0.0396827 -1.9486 0
M  V30 3476 H 335.228 1.27365 -2.84929 0
M  V30 3477 N 335.529 1.53961 0.336706 0
M  V30 3478 C 336.769 1.73254 1.08454 0
M  V30 3479 C 337.133 0.488937 1.8567 0
M  V30 3480 O 338.334 0.559001 2.62923 0
M  V30 3481 C 336.605 2.96519 1.99528 0
M  V30 3482 S 338.164 3.36655 2.81441 0
M  V30 3483 H 334.982 0.609353 0.366347 0
M  V30 3484 H 337.584 1.92117 0.362124 0
M  V30 3485 H 336.288 3.85193 1.41614 0
M  V30 3486 H 335.819 2.80142 2.76196 0
M  V30 3487 H 337.834 2.90925 4.01967 0
M  V30 3488 N 337.007 -0.598083 1.45811 0
M  V30 3489 C 337.97 -1.69018 1.54808 0
M  V30 3490 C 338.97 -1.55037 0.426652 0
M  V30 3491 O 340.16 -1.59932 0.690456 0
M  V30 3492 C 337.292 -3.0835 1.45371 0
M  V30 3493 H 338.485 -1.62403 2.52121 0
M  V30 3494 H 336.038 -0.814626 1.33392 0
M  V30 3495 H 336.773 -3.20534 0.492793 0
M  V30 3496 H 336.558 -3.19907 2.26721 0
M  V30 3497 H 338.048 -3.8788 1.54721 0
M  V30 3498 N 338.485 -1.33259 -0.841409 0
M  V30 3499 C 339.417 -1.19136 -1.95804 0
M  V30 3500 C 340.43 -0.122965 -1.62335 0
M  V30 3501 O 341.619 -0.373154 -1.74556 0
M  V30 3502 C 338.719 -0.804268 -3.29218 0
M  V30 3503 C 337.892 -1.96376 -3.90839 0
M  V30 3504 C 336.951 -1.55806 -5.02604 0
M  V30 3505 O 335.977 -2.27203 -5.21888 0
M  V30 3506 N 337.179 -0.461609 -5.78662 0
M  V30 3507 H 339.944 -2.15326 -2.08458 0
M  V30 3508 H 337.505 -1.25971 -1.017 0
M  V30 3509 H 339.497 -0.51501 -4.0141 0
M  V30 3510 H 338.067 0.0668809 -3.12528 0
M  V30 3511 H 337.287 -2.41879 -3.11269 0
M  V30 3512 H 338.575 -2.73966 -4.28742 0
M  V30 3513 H 337.973 0.132343 -5.65545 0
M  V30 3514 H 336.53 -0.232013 -6.51387 0
M  V30 3515 N 339.963 1.05934 -1.16686 0
M  V30 3516 C 340.926 2.11669 -0.879144 0
M  V30 3517 C 341.926 1.60294 0.127445 0
M  V30 3518 O 343.116 1.7389 -0.103865 0
M  V30 3519 C 340.248 3.39438 -0.315425 0
M  V30 3520 H 341.441 2.38626 -1.81653 0
M  V30 3521 H 338.994 1.22058 -0.976299 0
M  V30 3522 H 339.729 3.18132 0.629468 0
M  V30 3523 H 339.514 3.78034 -1.04079 0
M  V30 3524 H 341.004 4.17391 -0.132189 0
M  V30 3525 N 341.441 0.965919 1.2453 0
M  V30 3526 C 342.371 0.513476 2.27784 0
M  V30 3527 C 343.352 -0.445974 1.6415 0
M  V30 3528 O 344.537 -0.342485 1.91156 0
M  V30 3529 C 341.667 -0.198839 3.4673 0
M  V30 3530 C 340.621 0.676456 4.2262 0
M  V30 3531 C 339.947 -0.167248 5.34438 0
M  V30 3532 C 341.247 1.96017 4.84123 0
M  V30 3533 H 342.941 1.3765 2.65881 0
M  V30 3534 H 340.487 0.663321 1.27813 0
M  V30 3535 H 342.44 -0.526567 4.18097 0
M  V30 3536 H 341.164 -1.0962 3.07654 0
M  V30 3537 H 339.823 0.98743 3.53052 0
M  V30 3538 H 339.471 -1.0647 4.91603 0
M  V30 3539 H 339.171 0.415181 5.86131 0
M  V30 3540 H 340.695 -0.489688 6.08633 0
M  V30 3541 H 342.109 1.69814 5.47573 0
M  V30 3542 H 340.506 2.48918 5.4604 0
M  V30 3543 H 341.576 2.65622 4.05676 0
M  V30 3544 N 342.919 -1.39368 0.735821 0
M  V30 3545 C 344.335 -1.54204 0.411492 0
M  V30 3546 C 344.535 -1.70268 -1.07755 0
M  V30 3547 O 343.591 -1.70364 -1.86366 0
M  V30 3548 C 344.904 -2.75925 1.19523 0
M  V30 3549 C 346.452 -2.89761 1.18354 0
M  V30 3550 C 346.927 -4.14421 1.94986 0
M  V30 3551 N 348.418 -4.21462 1.92156 0
M  V30 3552 C 349.153 -5.16871 2.48258 0
M  V30 3553 N 348.649 -6.18063 3.13001 0
M  V30 3554 N 350.442 -5.09093 2.38287 0
M  V30 3555 H 342.593 -1.27189 1.70108 0
M  V30 3556 H 344.856 -0.616517 0.720147 0
M  V30 3557 H 344.562 -2.70401 2.24892 0
M  V30 3558 H 344.436 -3.68614 0.800222 0
M  V30 3559 H 346.823 -2.94777 0.137975 0
M  V30 3560 H 346.904 -1.98133 1.61793 0
M  V30 3561 H 346.548 -4.10166 2.99543 0
M  V30 3562 H 346.478 -5.05095 1.48953 0
M  V30 3563 H 348.969 -3.48979 1.44991 0
M  V30 3564 H 349.282 -6.87326 3.53275 0
M  V30 3565 H 347.627 -6.18448 3.17091 0
M  V30 3566 H 350.818 -4.28973 1.8735 0
M  V30 3567 H 350.991 -5.83272 2.82308 0
M  V30 3568 N 344.397 -0.483516 -1.5 0
M  V30 3569 C 345.645 0.067027 -2.01989 0
M  V30 3570 C 345.966 1.3909 -1.36671 0
M  V30 3571 O 345.236 1.88978 -0.516152 0
M  V30 3572 H 343.816 0.0277606 -0.746484 0
M  V30 3573 H 346.478 -0.636773 -1.84204 0
M  V30 3574 H 345.574 0.209484 -3.11396 0
M  V30 3575 N 345.875 1.56104 -0.216619 0
M  V30 3576 C 347.122 1.98172 0.416416 0
M  V30 3577 C 347.45 1.10413 1.60122 0
M  V30 3578 O 346.705 0.147967 1.9514 0
M  V30 3579 C 347.004 3.45923 0.898464 0
M  V30 3580 C 346.67 4.50559 -0.175288 0
M  V30 3581 C 345.332 4.78897 -0.470271 0
M  V30 3582 C 347.684 5.1334 -0.901728 0
M  V30 3583 C 345.012 5.67299 -1.4963 0
M  V30 3584 C 347.364 6.02853 -1.91705 0
M  V30 3585 C 346.028 6.29537 -2.21901 0
M  V30 3586 H 345.298 0.725164 0.152377 0
M  V30 3587 H 347.945 1.88839 -0.318103 0
M  V30 3588 H 346.25 3.52434 1.71165 0
M  V30 3589 H 347.947 3.75841 1.39803 0
M  V30 3590 H 344.537 4.28551 0.0647806 0
M  V30 3591 H 348.721 4.91521 -0.687072 0
M  V30 3592 H 343.977 5.86239 -1.73592 0
M  V30 3593 H 348.151 6.50552 -2.48505 0
M  V30 3594 H 345.778 6.97835 -3.01548 0
M  V30 3595 N 347.353 -0.0568162 1.57498 0
M  V30 3596 C 348.601 -0.751617 1.87604 0
M  V30 3597 C 348.922 -1.77351 0.81066 0
M  V30 3598 O 348.192 -1.95254 -0.159018 0
M  V30 3599 H 346.772 -0.280583 0.692302 0
M  V30 3600 H 349.434 -0.0293483 1.94878 0
M  V30 3601 H 348.53 -1.25852 2.856 0
M  V30 3602 N 348.832 -1.54138 -0.328536 0
M  V30 3603 C 349.795 -1.82462 -1.38709 0
M  V30 3604 C 350.795 -0.696229 -1.44946 0
M  V30 3605 O 351.985 -0.964535 -1.4506 0
M  V30 3606 C 349.117 -1.98018 -2.77492 0
M  V30 3607 H 350.31 -2.77037 -1.14851 0
M  V30 3608 H 347.863 -1.45779 -0.563751 0
M  V30 3609 H 348.598 -1.05637 -3.06613 0
M  V30 3610 H 348.383 -2.80124 -2.74359 0
M  V30 3611 H 349.873 -2.21396 -3.54081 0
M  V30 3612 N 350.31 0.590341 -1.46126 0
M  V30 3613 C 351.726 0.912917 -1.30912 0
M  V30 3614 C 351.926 1.99616 -0.274893 0
M  V30 3615 O 350.982 2.50397 0.325197 0
M  V30 3616 C 352.295 1.3375 -2.69317 0
M  V30 3617 C 353.843 1.45077 -2.77348 0
M  V30 3618 C 354.318 1.90904 -4.16317 0
M  V30 3619 N 355.809 1.9811 -4.18696 0
M  V30 3620 C 356.544 2.34828 -5.23109 0
M  V30 3621 N 356.04 2.70393 -6.37856 0
M  V30 3622 N 357.833 2.35317 -5.10473 0
M  V30 3623 H 349.984 -0.125358 -2.1203 0
M  V30 3624 H 352.247 0.00658481 -0.947977 0
M  V30 3625 H 351.953 0.615614 -3.4627 0
M  V30 3626 H 351.827 2.30058 -2.9892 0
M  V30 3627 H 354.214 2.16353 -2.00687 0
M  V30 3628 H 354.295 0.4704 -2.51438 0
M  V30 3629 H 353.939 1.20209 -4.9347 0
M  V30 3630 H 353.869 2.89886 -4.39629 0
M  V30 3631 H 356.36 1.73146 -3.359 0
M  V30 3632 H 356.673 2.97341 -7.13308 0
M  V30 3633 H 355.018 2.68048 -6.41229 0
M  V30 3634 H 358.209 2.0695 -4.19868 0
M  V30 3635 H 358.382 2.63605 -5.9196 0
M  V30 3636 N 351.788 1.33704 0.83433 0
M  V30 3637 C 353.034 1.25603 1.59222 0
M  V30 3638 C 353.367 -0.176659 1.93395 0
M  V30 3639 O 352.642 -1.11915 1.59076 0
M  V30 3640 C 352.925 2.13576 2.89926 0
M  V30 3641 C 352.778 3.65326 2.62406 0
M  V30 3642 C 354.097 2.01238 3.91397 0
M  V30 3643 H 351.216 0.457613 0.577719 0
M  V30 3644 H 353.858 1.63848 0.961972 0
M  V30 3645 H 352.008 1.8109 3.43713 0
M  V30 3646 H 353.68 4.08124 2.15017 0
M  V30 3647 H 351.923 3.8698 1.96033 0
M  V30 3648 H 352.594 4.22232 3.55562 0
M  V30 3649 H 355.07 2.29738 3.46929 0
M  V30 3650 H 353.946 2.65036 4.80673 0
M  V30 3651 H 354.207 0.985951 4.30966 0
M  V30 3652 N 353.266 -1.05314 1.17247 0
M  V30 3653 C 354.515 -1.77685 0.954521 0
M  V30 3654 C 354.828 -1.88616 -0.518025 0
M  V30 3655 O 356.034 -2.57714 -0.854144 0
M  V30 3656 C 354.49 -3.19402 1.65863 0
M  V30 3657 C 354.098 -3.16605 3.16963 0
M  V30 3658 C 355.842 -3.96237 1.52303 0
M  V30 3659 C 353.749 -4.53103 3.80068 0
M  V30 3660 H 352.679 -0.666 0.353496 0
M  V30 3661 H 355.33 -1.1805 1.40486 0
M  V30 3662 H 353.712 -3.79355 1.13602 0
M  V30 3663 H 354.886 -2.66176 3.76148 0
M  V30 3664 H 353.201 -2.53268 3.30521 0
M  V30 3665 H 355.798 -4.97157 1.96822 0
M  V30 3666 H 356.141 -4.136 0.473401 0
M  V30 3667 H 356.674 -3.42829 2.01775 0
M  V30 3668 H 353.413 -4.40946 4.85023 0
M  V30 3669 H 352.933 -5.03686 3.2567 0
M  V30 3670 H 354.612 -5.22045 3.82202 0
M  V30 3671 N 354.744 -0.972509 -1.24016 0
M  V30 3672 C 355.993 -0.632603 -1.91523 0
M  V30 3673 C 356.306 0.836641 -1.76804 0
M  V30 3674 O 357.512 1.28728 -2.39043 0
M  V30 3675 C 355.968 -1.08082 -3.43287 0
M  V30 3676 C 355.576 -2.57386 -3.66683 0
M  V30 3677 C 357.32 -0.814288 -4.16617 0
M  V30 3678 C 355.227 -2.95915 -5.12043 0
M  V30 3679 H 354.157 -0.232898 -0.717129 0
M  V30 3680 H 356.808 -1.17936 -1.40582 0
M  V30 3681 H 355.19 -0.462339 -3.93292 0
M  V30 3682 H 356.364 -3.24405 -3.27258 0
M  V30 3683 H 354.679 -2.81701 -3.06649 0
M  V30 3684 H 357.276 -1.0781 -5.23718 0
M  V30 3685 H 357.619 0.24955 -4.15551 0
M  V30 3686 H 358.152 -1.39397 -3.72577 0
M  V30 3687 H 354.891 -4.0139 -5.18234 0
M  V30 3688 H 354.411 -2.33584 -5.52448 0
M  V30 3689 H 356.09 -2.86086 -5.80314 0
M  V30 3690 N 356.222 1.38976 -0.743202 0
M  V30 3691 C 357.45 2.04636 -0.30525 0
M  V30 3692 C 357.865 1.56044 1.06281 0
M  V30 3693 O 357.222 0.728921 1.67311 0
M  V30 3694 C 357.273 3.60193 -0.307177 0
M  V30 3695 O 356.994 4.06998 -1.62124 0
M  V30 3696 C 358.495 4.4306 0.145928 0
M  V30 3697 H 355.715 0.65788 -0.132041 0
M  V30 3698 H 358.259 1.77866 -1.00915 0
M  V30 3699 H 356.414 3.85835 0.347898 0
M  V30 3700 H 356.828 5.01371 -1.54036 0
M  V30 3701 H 358.302 5.51921 0.0934183 0
M  V30 3702 H 358.779 4.22706 1.19231 0
M  V30 3703 H 359.385 4.22584 -0.479886 0
M  V30 3704 N 357.7 0.491464 1.49741 0
M  V30 3705 C 358.61 -0.296835 2.32715 0
M  V30 3706 C 359.626 -0.976536 1.44013 0
M  V30 3707 O 360.802 -0.960023 1.77047 0
M  V30 3708 C 357.867 -1.35288 3.19215 0
M  V30 3709 C 356.928 -0.687632 4.23757 0
M  V30 3710 C 356.161 -1.69336 5.06123 0
M  V30 3711 O 356.384 -2.92219 4.89861 0
M  V30 3712 O 355.318 -1.25394 5.88693 0
M  V30 3713 H 359.144 0.382048 3.01287 0
M  V30 3714 H 356.729 0.252953 1.47243 0
M  V30 3715 H 358.611 -1.96411 3.72828 0
M  V30 3716 H 357.286 -2.01487 2.53347 0
M  V30 3717 H 356.193 -0.0369159 3.74082 0
M  V30 3718 H 357.526 -0.0682566 4.92153 0
M  V30 3719 N 359.178 -1.55987 0.224894 0
M  V30 3720 C 360.427 -1.97566 -0.406273 0
M  V30 3721 C 360.74 -1.11569 -1.6066 0
M  V30 3722 O 361.946 -1.43062 -2.3075 0
M  V30 3723 C 360.402 -3.51474 -0.774207 0
M  V30 3724 C 360.01 -4.46179 0.403496 0
M  V30 3725 C 361.754 -4.01758 -1.37079 0
M  V30 3726 C 359.661 -5.91399 0.0129412 0
M  V30 3727 H 358.591 -0.737777 -0.155565 0
M  V30 3728 H 361.242 -1.80659 0.321635 0
M  V30 3729 H 359.624 -3.63994 -1.55963 0
M  V30 3730 H 360.798 -4.45409 1.18101 0
M  V30 3731 H 359.113 -4.06255 0.913536 0
M  V30 3732 H 361.71 -5.07756 -1.67596 0
M  V30 3733 H 362.053 -3.47805 -2.28773 0
M  V30 3734 H 362.586 -3.92475 -0.648733 0
M  V30 3735 H 359.325 -6.49341 0.896451 0
M  V30 3736 H 358.845 -5.95356 -0.728821 0
M  V30 3737 H 360.524 -6.45683 -0.412582 0
M  V30 3738 N 360.656 0.0484629 -1.57525 0
M  V30 3739 C 361.933 0.777447 -1.79486 0
M  V30 3740 C 362.313 1.94597 -0.818251 0
M  V30 3741 O 361.661 2.28047 0.143767 0
M  V30 3742 C 361.871 1.22864 -3.26658 0
M  V30 3743 C 363.219 1.65251 -3.91123 0
M  V30 3744 O 364.243 1.32372 -3.3069 0
M  V30 3745 O 363.102 2.26207 -4.97486 0
M  V30 3746 H 360.196 0.374357 -0.737419 0
M  V30 3747 H 362.742 0.0267359 -1.69679 0
M  V30 3748 H 361.514 0.393589 -3.89316 0
M  V30 3749 H 361.137 2.03996 -3.41279 0
M  V30 3750 N 362.134 1.5431 0.320358 0
M  V30 3751 C 363.545 1.63872 0.894594 0
M  V30 3752 C 363.896 0.534847 1.88769 0
M  V30 3753 O 363.021 -0.331732 2.13842 0
M  V30 3754 C 363.616 2.97049 1.62934 0
M  V30 3755 C 362.175 3.08796 2.15226 0
M  V30 3756 C 361.322 2.59456 0.978671 0
M  V30 3757 H 364.273 1.58398 0.0978544 0
M  V30 3758 H 364.294 2.87388 2.49376 0
M  V30 3759 H 363.806 3.7737 0.906302 0
M  V30 3760 H 361.907 2.33156 2.90636 0
M  V30 3761 H 362.02 4.14649 2.40006 0
M  V30 3762 H 360.384 2.1543 1.35875 0
M  V30 3763 H 361.167 3.42237 0.269895 0
M  V30 3764 N 363.613 -0.582584 1.46437 0
M  V30 3765 C 364.862 -1.337 1.5102 0
M  V30 3766 C 365.175 -1.94891 0.166359 0
M  V30 3767 O 366.381 -2.71351 0.0899954 0
M  V30 3768 C 364.837 -2.42315 2.66104 0
M  V30 3769 C 364.445 -1.87427 4.06909 0
M  V30 3770 C 366.189 -3.19099 2.79958 0
M  V30 3771 C 364.096 -2.93672 5.13333 0
M  V30 3772 H 363.026 -0.502619 0.562041 0
M  V30 3773 H 365.677 -0.621701 1.72647 0
M  V30 3774 H 364.059 -3.16645 2.37807 0
M  V30 3775 H 365.233 -1.19639 4.44998 0
M  V30 3776 H 363.548 -1.2331 3.97723 0
M  V30 3777 H 366.145 -3.9839 3.56636 0
M  V30 3778 H 366.488 -3.71695 1.87479 0
M  V30 3779 H 367.021 -2.51875 3.07902 0
M  V30 3780 H 363.76 -2.45962 6.07604 0
M  V30 3781 H 363.28 -3.59948 4.79789 0
M  V30 3782 H 364.959 -3.5762 5.39182 0
M  V30 3783 N 365.091 -1.34144 -0.827227 0
M  V30 3784 C 366.039 -1.25364 -1.95925 0
M  V30 3785 C 367.033 -0.152608 -1.68711 0
M  V30 3786 O 368.239 -0.317311 -1.77181 0
M  V30 3787 H 364.614 -0.389342 -0.643364 0
M  V30 3788 H 366.585 -2.21045 -2.00454 0
M  V30 3789 C 365.334 -1.02158 -3.32354 0
M  V30 3790 H 364.657 -1.86111 -3.5384 0
M  V30 3791 H 366.097 -1.00048 -4.12027 0
M  V30 3792 C 364.556 0.275244 -3.35774 0
M  V30 3793 O 365.086 1.27806 -3.80826 0
M  V30 3794 N 363.292 0.306853 -2.88975 0
M  V30 3795 H 362.839 -0.509777 -2.52506 0
M  V30 3796 H 362.797 1.17432 -2.91646 0
M  V30 3797 N 366.569 1.04691 -1.17803 0
M  V30 3798 C 367.532 2.10724 -0.901545 0
M  V30 3799 C 368.532 1.6042 0.110437 0
M  V30 3800 O 369.722 1.7377 -0.122303 0
M  V30 3801 C 366.854 3.39084 -0.351409 0
M  V30 3802 H 368.047 2.36686 -1.84174 0
M  V30 3803 H 365.6 1.21015 -0.98919 0
M  V30 3804 H 366.335 3.18782 0.59569 0
M  V30 3805 H 366.12 3.76909 -1.08083 0
M  V30 3806 H 367.61 4.17227 -0.176451 0
M  V30 3807 N 368.047 0.979072 1.23499 0
M  V30 3808 C 368.977 0.537606 2.27227 0
M  V30 3809 C 369.958 -0.428539 1.64613 0
M  V30 3810 O 371.143 -0.322191 1.91509 0
M  V30 3811 C 368.273 -0.162052 3.46922 0
M  V30 3812 C 367.227 0.721242 4.21879 0
M  V30 3813 C 366.553 -0.110555 5.34586 0
M  V30 3814 C 367.853 2.01141 4.82016 0
M  V30 3815 H 369.547 1.40462 2.64406 0
M  V30 3816 H 367.093 0.67684 1.27102 0
M  V30 3817 H 369.046 -0.482192 4.18632 0
M  V30 3818 H 367.77 -1.06351 3.08799 0
M  V30 3819 H 366.429 1.02482 3.51984 0
M  V30 3820 H 366.077 -1.0125 4.92704 0
M  V30 3821 H 365.777 0.477325 5.85658 0
M  V30 3822 H 367.301 -0.425107 6.09118 0
M  V30 3823 H 368.715 1.75612 5.45741 0
M  V30 3824 H 367.112 2.54695 5.43369 0
M  V30 3825 H 368.182 2.69909 4.02836 0
M  V30 3826 N 369.525 -1.3858 0.750561 0
M  V30 3827 C 370.457 -2.29057 0.0810714 0
M  V30 3828 C 371.47 -1.47596 -0.686973 0
M  V30 3829 O 372.659 -1.70495 -0.528563 0
M  V30 3830 C 369.759 -3.26475 -0.909247 0
M  V30 3831 C 368.932 -4.36945 -0.199478 0
M  V30 3832 C 367.991 -5.14572 -1.10011 0
M  V30 3833 O 367.017 -5.66321 -0.57177 0
M  V30 3834 N 368.219 -5.27262 -2.42849 0
M  V30 3835 H 370.984 -2.87153 0.858087 0
M  V30 3836 H 368.545 -1.50328 0.60109 0
M  V30 3837 H 370.537 -3.75285 -1.51471 0
M  V30 3838 H 369.107 -2.69298 -1.58736 0
M  V30 3839 H 368.327 -3.8981 0.586664 0
M  V30 3840 H 369.615 -5.07963 0.291783 0
M  V30 3841 H 369.013 -4.86763 -2.88233 0
M  V30 3842 H 367.57 -5.79456 -2.98453 0
M  V30 3843 N 371.003 -0.499398 -1.49478 0
M  V30 3844 C 371.966 0.268838 -2.27618 0
M  V30 3845 C 372.966 0.895383 -1.33565 0
M  V30 3846 O 374.156 0.760164 -1.56739 0
M  V30 3847 C 371.288 1.38559 -3.11471 0
M  V30 3848 H 372.481 -0.416812 -2.96989 0
M  V30 3849 H 370.034 -0.254313 -1.54217 0
M  V30 3850 H 370.769 2.10544 -2.46661 0
M  V30 3851 H 370.554 0.941797 -3.80621 0
M  V30 3852 H 372.044 1.92678 -3.70493 0
M  V30 3853 N 372.481 1.55866 -0.233164 0
M  V30 3854 C 373.444 2.1953 0.658715 0
M  V30 3855 C 374.444 1.16053 1.11303 0
M  V30 3856 O 375.634 1.41218 1.01996 0
M  V30 3857 C 372.766 2.82791 1.90373 0
M  V30 3858 H 373.959 2.99721 0.10347 0
M  V30 3859 H 371.512 1.56291 0.0164245 0
M  V30 3860 H 372.247 2.06501 2.50056 0
M  V30 3861 H 372.032 3.58578 1.58632 0
M  V30 3862 H 373.522 3.31556 2.53891 0
M  V30 3863 N 373.959 -0.0401083 1.57549 0
M  V30 3864 C 374.892 -1.07689 2.01192 0
M  V30 3865 C 375.87 -1.358 0.894273 0
M  V30 3866 O 377.054 -1.48642 1.15921 0
M  V30 3867 C 374.181 -2.41418 2.3756 0
M  V30 3868 C 373.227 -2.29237 3.59656 0
M  V30 3869 S 374.06 -1.65628 5.09242 0
M  V30 3870 C 375.216 -3.0087 5.48843 0
M  V30 3871 H 375.449 -0.705108 2.88817 0
M  V30 3872 H 372.982 -0.249724 1.52367 0
M  V30 3873 H 374.94 -3.18329 2.59186 0
M  V30 3874 H 373.601 -2.75747 1.50407 0
M  V30 3875 H 372.794 -3.27932 3.82722 0
M  V30 3876 H 372.396 -1.60469 3.37825 0
M  V30 3877 H 374.688 -3.97201 5.48851 0
M  V30 3878 H 375.631 -2.82549 6.49286 0
M  V30 3879 H 376.039 -3.02934 4.76331 0
M  V30 3880 N 375.437 -1.54477 -0.31217 0
M  V30 3881 C 376.347 -1.87695 -1.4074 0
M  V30 3882 C 377.363 -0.769975 -1.56036 0
M  V30 3883 O 378.539 -1.06537 -1.70915 0
M  V30 3884 C 375.604 -2.10755 -2.75287 0
M  V30 3885 C 374.665 -3.34514 -2.69071 0
M  V30 3886 C 373.898 -3.56465 -3.97201 0
M  V30 3887 O 374.121 -2.81637 -4.96021 0
M  V30 3888 O 373.055 -4.49964 -3.9977 0
M  V30 3889 H 376.881 -2.80849 -1.15574 0
M  V30 3890 H 374.466 -1.40526 -0.507228 0
M  V30 3891 H 376.348 -2.27188 -3.54913 0
M  V30 3892 H 375.023 -1.20788 -3.0032 0
M  V30 3893 H 373.93 -3.23456 -1.87955 0
M  V30 3894 H 375.263 -4.24575 -2.48992 0
M  V30 3895 N 376.915 0.57481 -1.46744 0
M  V30 3896 C 378.163 1.33009 -1.52161 0
M  V30 3897 C 378.484 1.94185 -0.178092 0
M  V30 3898 O 377.754 1.7899 0.796196 0
M  V30 3899 H 376.334 0.493873 -0.560445 0
M  V30 3900 H 378.996 0.672589 -1.82927 0
M  V30 3901 H 378.092 2.13273 -2.27862 0
M  V30 3902 N 378.394 1.34581 0.820102 0
M  V30 3903 C 379.624 1.29991 1.6058 0
M  V30 3904 C 380.032 -0.127588 1.88769 0
M  V30 3905 O 379.375 -1.08595 1.48165 0
M  V30 3906 C 379.437 2.02548 2.9701 0
M  V30 3907 C 379.101 3.51794 2.91701 0
M  V30 3908 C 380.098 4.46647 2.66087 0
M  V30 3909 C 377.783 3.94249 3.11245 0
M  V30 3910 C 379.777 5.81929 2.60071 0
M  V30 3911 C 377.464 5.2963 3.04853 0
M  V30 3912 C 378.462 6.23282 2.793 0
M  V30 3913 O 378.15 7.56181 2.72847 0
M  V30 3914 H 377.882 0.448539 0.505756 0
M  V30 3915 H 380.436 1.77811 1.02822 0
M  V30 3916 H 378.666 1.49345 3.56697 0
M  V30 3917 H 380.355 1.91211 3.58041 0
M  V30 3918 H 381.121 4.15168 2.5072 0
M  V30 3919 H 377 3.21749 3.30149 0
M  V30 3920 H 380.544 6.54999 2.40046 0
M  V30 3921 H 376.441 5.60727 3.19774 0
M  V30 3922 H 377.209 7.6595 2.88553 0
M  V30 3923 N 379.872 -1.04064 1.18357 0
M  V30 3924 C 380.782 -2.15569 0.925596 0
M  V30 3925 C 381.798 -1.7365 -0.110295 0
M  V30 3926 O 382.974 -2.01273 0.0716218 0
M  V30 3927 C 380.039 -3.43704 0.454836 0
M  V30 3928 C 379.1 -4.00004 1.55869 0
M  V30 3929 C 378.333 -5.22023 1.1103 0
M  V30 3930 O 378.556 -5.70392 -0.0309756 0
M  V30 3931 O 377.49 -5.70856 1.90805 0
M  V30 3932 H 381.316 -2.40187 1.8586 0
M  V30 3933 H 378.901 -1.1402 0.965394 0
M  V30 3934 H 380.783 -4.20923 0.200382 0
M  V30 3935 H 379.458 -3.20559 -0.449876 0
M  V30 3936 H 378.365 -3.24172 1.86716 0
M  V30 3937 H 379.698 -4.2749 2.43953 0
M  V30 3938 N 381.35 -0.985608 -1.22978 0
M  V30 3939 C 382.596 -0.65836 -1.91816 0
M  V30 3940 C 382.929 0.806692 -1.76653 0
M  V30 3941 O 382.204 1.58252 -1.13078 0
M  V30 3942 C 382.487 -1.056 -3.44268 0
M  V30 3943 C 382.34 -2.57906 -3.68516 0
M  V30 3944 C 383.659 -0.603781 -4.35939 0
M  V30 3945 H 380.778 -0.24065 -0.696604 0
M  V30 3946 H 383.42 -1.22783 -1.44998 0
M  V30 3947 H 381.57 -0.571445 -3.84274 0
M  V30 3948 H 383.242 -3.13976 -3.3796 0
M  V30 3949 H 381.485 -3.00305 -3.13048 0
M  V30 3950 H 382.156 -2.80779 -4.75255 0
M  V30 3951 H 384.632 -1.01987 -4.03408 0
M  V30 3952 H 383.508 -0.910383 -5.41298 0
M  V30 3953 H 383.769 0.495761 -4.39312 0
M  V30 3954 N 382.828 1.3818 -0.7579 0
M  V30 3955 C 384.056 2.04301 -0.326937 0
M  V30 3956 C 384.471 1.57163 1.0462 0
M  V30 3957 O 383.828 0.746626 1.66529 0
M  V30 3958 C 383.879 3.59846 -0.345363 0
M  V30 3959 O 383.6 4.05256 -1.66432 0
M  V30 3960 C 385.101 4.4319 0.098927 0
M  V30 3961 H 382.321 0.656443 -0.139012 0
M  V30 3962 H 384.865 1.76786 -1.02796 0
M  V30 3963 H 383.02 3.86182 0.306955 0
M  V30 3964 H 383.434 4.99709 -1.59345 0
M  V30 3965 H 384.908 5.51989 0.0348745 0
M  V30 3966 H 385.385 4.23947 1.14741 0
M  V30 3967 H 385.991 4.22051 -0.52468 0
M  V30 3968 N 384.306 0.507319 1.49211 0
M  V30 3969 C 385.534 -0.0315749 2.06876 0
M  V30 3970 C 385.949 -1.30241 1.36685 0
M  V30 3971 O 385.306 -1.76937 0.447152 0
M  V30 3972 C 385.357 -0.282627 3.60393 0
M  V30 3973 O 385.078 0.937835 4.27944 0
M  V30 3974 C 386.579 -0.864453 4.3479 0
M  V30 3975 H 383.799 0.0233048 0.670595 0
M  V30 3976 H 386.343 0.706484 1.91909 0
M  V30 3977 H 384.498 -0.97068 3.75042 0
M  V30 3978 H 384.912 0.704567 5.19746 0
M  V30 3979 H 386.386 -0.989664 5.43056 0
M  V30 3980 H 386.863 -1.86382 3.97692 0
M  V30 3981 H 387.469 -0.213672 4.24763 0
M  V30 3982 N 385.784 -1.5574 0.241426 0
M  V30 3983 C 386.717 -2.17168 -0.700935 0
M  V30 3984 C 387.695 -1.12206 -1.1768 0
M  V30 3985 O 388.879 -1.40565 -1.25593 0
M  V30 3986 C 386.006 -2.76796 -1.95196 0
M  V30 3987 C 385.052 -3.94764 -1.61442 0
M  V30 3988 S 385.885 -5.30613 -0.72182 0
M  V30 3989 C 387.041 -5.93691 -1.98197 0
M  V30 3990 H 387.274 -2.96761 -0.178882 0
M  V30 3991 H 384.807 -1.54378 0.0259299 0
M  V30 3992 H 386.765 -3.11787 -2.67019 0
M  V30 3993 H 385.426 -1.9716 -2.44514 0
M  V30 3994 H 384.619 -4.35057 -2.54443 0
M  V30 3995 H 384.221 -3.61022 -0.976672 0
M  V30 3996 H 386.513 -6.10874 -2.92983 0
M  V30 3997 H 387.456 -6.89258 -1.62262 0
M  V30 3998 H 387.864 -5.22709 -2.13156 0
M  V30 3999 N 387.262 0.0317525 -1.57568 0
M  V30 4000 C 388.539 0.758366 -1.803 0
M  V30 4001 C 388.919 1.93718 -0.838845 0
M  V30 4002 O 388.267 2.28187 0.119571 0
M  V30 4003 C 388.477 1.19392 -3.27943 0
M  V30 4004 C 389.825 1.61094 -3.92854 0
M  V30 4005 O 390.849 1.28857 -3.32076 0
M  V30 4006 O 389.708 2.20918 -4.99858 0
M  V30 4007 H 386.802 0.366514 -0.741348 0
M  V30 4008 H 389.348 0.00873765 -1.69698 0
M  V30 4009 H 388.12 0.352275 -3.89711 0
M  V30 4010 H 387.743 2.00365 -3.43424 0
M  V30 4011 N 388.74 1.54641 0.303973 0
M  V30 4012 C 389.65 1.88439 1.39743 0
M  V30 4013 C 390.666 0.778239 1.55626 0
M  V30 4014 O 391.842 1.07442 1.70347 0
M  V30 4015 C 388.907 2.12212 2.74166 0
M  V30 4016 C 387.968 3.35936 2.67293 0
M  V30 4017 C 387.201 3.58566 3.95305 0
M  V30 4018 O 387.424 2.84263 4.9452 0
M  V30 4019 O 386.358 4.52078 3.97378 0
M  V30 4020 H 390.184 2.81458 1.14083 0
M  V30 4021 H 387.769 1.40793 0.499768 0
M  V30 4022 H 389.651 2.29067 3.53704 0
M  V30 4023 H 388.326 1.22379 2.99675 0
M  V30 4024 H 387.233 3.24448 1.86237 0
M  V30 4025 H 388.566 4.2589 2.46736 0
M  V30 4026 N 390.218 -0.567019 1.47046 0
M  V30 4027 C 391.181 -1.65696 1.58359 0
M  V30 4028 C 392.181 -1.54097 0.459441 0
M  V30 4029 O 393.371 -1.58432 0.724225 0
M  V30 4030 C 390.503 -3.05197 1.51879 0
M  V30 4031 H 391.696 -1.57019 2.5551 0
M  V30 4032 H 389.249 -0.786148 1.3509 0
M  V30 4033 H 389.984 -3.19417 0.560673 0
M  V30 4034 H 389.769 -3.15025 2.33455 0
M  V30 4035 H 391.259 -3.84511 1.62913 0
M  V30 4036 N 391.696 -1.35014 -0.812953 0
M  V30 4037 C 392.936 -1.29289 -1.58315 0
M  V30 4038 C 393.3 0.132727 -1.91541 0
M  V30 4039 O 394.501 0.314269 -2.66957 0
M  V30 4040 C 392.772 -2.1681 -2.84127 0
M  V30 4041 S 394.331 -2.28538 -3.74588 0
M  V30 4042 H 391.149 -0.459569 -0.542511 0
M  V30 4043 H 393.751 -1.70336 -0.959467 0
M  V30 4044 H 392.455 -3.19379 -2.57731 0
M  V30 4045 H 391.986 -1.76697 -3.51485 0
M  V30 4046 H 394.001 -1.4655 -4.74065 0
M  V30 4047 N 393.175 1.03435 -1.18907 0
M  V30 4048 C 394.107 2.1165 -0.879595 0
M  V30 4049 C 395.12 1.62316 0.125439 0
M  V30 4050 O 396.309 1.78201 -0.103245 0
M  V30 4051 C 393.409 3.37622 -0.294042 0
M  V30 4052 C 392.582 4.16166 -1.34629 0
M  V30 4053 C 391.641 5.20457 -0.775274 0
M  V30 4054 O 390.667 5.50379 -1.4516 0
M  V30 4055 N 391.869 5.78949 0.424126 0
M  V30 4056 H 394.634 2.38791 -1.81105 0
M  V30 4057 H 392.195 1.19681 -1.09032 0
M  V30 4058 H 394.187 4.04572 0.101679 0
M  V30 4059 H 392.757 3.07873 0.541575 0
M  V30 4060 H 391.977 3.44444 -1.91707 0
M  V30 4061 H 393.265 4.65432 -2.05549 0
M  V30 4062 H 392.663 5.56948 0.991209 0
M  V30 4063 H 391.22 6.47334 0.761691 0
M  V30 4064 N 394.653 0.992116 1.22453 0
M  V30 4065 C 395.563 0.55065 2.28046 0
M  V30 4066 C 396.579 -0.400189 1.69335 0
M  V30 4067 O 397.755 -0.267215 1.99619 0
M  V30 4068 C 394.82 -0.128496 3.46462 0
M  V30 4069 C 393.881 0.865208 4.20491 0
M  V30 4070 C 393.114 0.218377 5.33253 0
M  V30 4071 O 393.337 -0.987894 5.6178 0
M  V30 4072 O 392.271 0.922845 5.94783 0
M  V30 4073 H 396.097 1.4291 2.67975 0
M  V30 4074 H 393.682 0.760326 1.28606 0
M  V30 4075 H 395.564 -0.508947 4.18315 0
M  V30 4076 H 394.239 -0.981526 3.0846 0
M  V30 4077 H 393.146 1.29658 3.50913 0
M  V30 4078 H 394.479 1.68741 4.62371 0
M  V30 4079 N 396.131 -1.37776 0.765217 0
M  V30 4080 C 397.379 -1.99454 0.325943 0
M  V30 4081 C 397.7 -1.61049 -1.09947 0
M  V30 4082 O 396.97 -0.872821 -1.75381 0
M  V30 4083 H 395.55 -0.737697 0.117525 0
M  V30 4084 H 398.212 -1.68359 0.981895 0
M  V30 4085 H 397.308 -3.09547 0.398353 0
M  V30 4086 N 397.609 -0.515225 -1.4894 0
M  V30 4087 C 398.557 0.269115 -2.31038 0
M  V30 4088 C 399.551 0.949443 -1.40292 0
M  V30 4089 O 400.757 0.87551 -1.57273 0
M  V30 4090 H 397.132 0.10565 -0.744542 0
M  V30 4091 H 399.103 -0.443096 -2.95092 0
M  V30 4092 C 397.852 1.31213 -3.21991 0
M  V30 4093 H 397.175 0.798034 -3.91754 0
M  V30 4094 H 398.615 1.83263 -3.82349 0
M  V30 4095 C 397.074 2.33791 -2.42576 0
M  V30 4096 O 397.604 3.3995 -2.14003 0
M  V30 4097 N 395.81 2.06625 -2.0434 0
M  V30 4098 H 395.357 1.20314 -2.27777 0
M  V30 4099 H 395.315 2.75483 -1.51514 0
M  V30 4100 N 399.087 1.5561 -0.249682 0
M  V30 4101 C 400.336 1.98187 0.37479 0
M  V30 4102 C 400.649 1.14111 1.58865 0
M  V30 4103 O 401.855 1.46714 2.28445 0
M  V30 4104 C 400.311 3.52661 0.718192 0
M  V30 4105 C 399.919 4.45481 -0.474428 0
M  V30 4106 C 401.663 4.03888 1.3067 0
M  V30 4107 C 399.57 5.91303 -0.107026 0
M  V30 4108 H 398.5 0.740159 0.143808 0
M  V30 4109 H 401.151 1.80125 -0.350336 0
M  V30 4110 H 399.533 3.66429 1.50152 0
M  V30 4111 H 400.707 4.43473 -1.25172 0
M  V30 4112 H 399.022 4.04751 -0.978052 0
M  V30 4113 H 401.619 5.10358 1.59496 0
M  V30 4114 H 401.962 3.51401 2.23211 0
M  V30 4115 H 402.495 3.93457 0.586211 0
M  V30 4116 H 399.234 6.47833 -0.999642 0
M  V30 4117 H 398.754 5.9644 0.634013 0
M  V30 4118 H 400.433 6.46258 0.309807 0
M  V30 4119 N 400.565 -0.0233959 1.57583 0
M  V30 4120 C 401.812 -0.713063 1.8953 0
M  V30 4121 C 402.14 -1.75056 0.847673 0
M  V30 4122 O 401.395 -1.95119 -0.150636 0
M  V30 4123 C 401.694 -1.41428 3.28227 0
M  V30 4124 C 401.36 -0.512222 4.47981 0
M  V30 4125 C 400.022 -0.263785 4.80476 0
M  V30 4126 C 402.374 0.110248 5.21083 0
M  V30 4127 C 399.702 0.615804 5.83459 0
M  V30 4128 C 402.054 0.977573 6.25001 0
M  V30 4129 C 400.718 1.23542 6.55968 0
M  V30 4130 H 399.988 -0.260928 0.69354 0
M  V30 4131 H 402.635 0.0271047 1.91481 0
M  V30 4132 H 400.94 -2.22791 3.22291 0
M  V30 4133 H 402.637 -1.95355 3.50196 0
M  V30 4134 H 399.227 -0.716013 4.22577 0
M  V30 4135 H 403.411 -0.0687137 4.96252 0
M  V30 4136 H 398.667 0.82382 6.05824 0
M  V30 4137 H 402.841 1.46638 6.80786 0
M  V30 4138 H 400.468 1.91871 7.35588 0
M  V30 4139 N 402.043 -1.548 -0.295768 0
M  V30 4140 C 403.289 -1.74588 -1.03184 0
M  V30 4141 C 403.622 -0.532962 -1.86744 0
M  V30 4142 O 402.897 0.469872 -1.88739 0
M  V30 4143 C 403.18 -3.03791 -1.93347 0
M  V30 4144 C 403.033 -4.35392 -1.12933 0
M  V30 4145 C 404.352 -3.28892 -2.92435 0
M  V30 4146 H 401.471 -0.635221 -0.373715 0
M  V30 4147 H 404.113 -1.87519 -0.30606 0
M  V30 4148 H 402.263 -2.92898 -2.55232 0
M  V30 4149 H 403.935 -4.58211 -0.532943 0
M  V30 4150 H 402.178 -4.31642 -0.432168 0
M  V30 4151 H 402.849 -5.22074 -1.79284 0
M  V30 4152 H 405.325 -3.39429 -2.4068 0
M  V30 4153 H 404.201 -4.20603 -3.52682 0
M  V30 4154 H 404.462 -2.47437 -3.6637 0
M  V30 4155 N 403.521 0.559213 -1.47345 0
M  V30 4156 C 404.749 1.34194 -1.57479 0
M  V30 4157 C 405.164 1.87463 -0.224261 0
M  V30 4158 O 404.521 1.64888 0.782185 0
M  V30 4159 C 404.572 2.51324 -2.59843 0
M  V30 4160 O 404.293 2.00256 -3.89653 0
M  V30 4161 C 405.794 3.43563 -2.80142 0
M  V30 4162 H 403.014 0.409136 -0.531835 0
M  V30 4163 H 405.558 0.677609 -1.92947 0
M  V30 4164 H 403.713 3.13699 -2.27314 0
M  V30 4165 H 404.127 2.76708 -4.4557 0
M  V30 4166 H 405.601 4.2217 -3.55635 0
M  V30 4167 H 406.078 3.9698 -1.87892 0
M  V30 4168 H 406.684 2.87005 -3.1386 0
M  V30 4169 N 404.999 1.35443 0.805782 0
M  V30 4170 C 406.227 1.31878 1.59423 0
M  V30 4171 C 406.642 -0.103562 1.88516 0
M  V30 4172 O 405.999 -1.05575 1.48863 0
M  V30 4173 C 406.05 2.12426 2.92502 0
M  V30 4174 O 405.771 3.49115 2.6467 0
M  V30 4175 C 407.272 2.16455 3.86862 0
M  V30 4176 H 404.492 0.453002 0.495005 0
M  V30 4177 H 407.036 1.78309 1.00131 0
M  V30 4178 H 405.191 1.69593 3.48306 0
M  V30 4179 H 405.605 3.90957 3.49647 0
M  V30 4180 H 407.079 2.77204 4.77349 0
M  V30 4181 H 407.556 1.16352 4.23508 0
M  V30 4182 H 408.162 2.59453 3.36993 0
M  V30 4183 N 406.477 -1.02803 1.19454 0
M  V30 4184 C 407.705 -1.79841 1.02297 0
M  V30 4185 C 408.12 -1.83879 -0.428259 0
M  V30 4186 O 407.477 -1.28345 -1.29745 0
M  V30 4187 C 407.528 -3.24852 1.58598 0
M  V30 4188 O 407.249 -3.21097 2.98041 0
M  V30 4189 C 408.75 -4.18485 1.46236 0
M  V30 4190 H 405.97 -0.565936 0.360496 0
M  V30 4191 H 408.514 -1.2948 1.58288 0
M  V30 4192 H 406.669 -3.72401 1.06753 0
M  V30 4193 H 407.083 -4.12033 3.24545 0
M  V30 4194 H 408.557 -5.18121 1.90407 0
M  V30 4195 H 409.034 -4.37254 0.41301 0
M  V30 4196 H 409.64 -3.76811 1.97215 0
M  V30 4197 N 407.956 -0.998596 -1.21925 0
M  V30 4198 C 409.204 -0.676325 -1.90448 0
M  V30 4199 C 409.525 0.794719 -1.78071 0
M  V30 4200 O 408.795 1.5701 -1.17152 0
M  V30 4201 H 407.375 -0.247165 -0.704925 0
M  V30 4202 H 410.037 -1.26633 -1.48156 0
M  V30 4203 H 409.133 -0.943858 -2.97486 0
M  V30 4204 N 409.434 1.37368 -0.772513 0
M  V30 4205 C 410.674 2.01512 -0.342361 0
M  V30 4206 C 411.038 1.59997 1.06136 0
M  V30 4207 O 412.239 2.16609 1.59167 0
M  V30 4208 C 410.51 3.54134 -0.482048 0
M  V30 4209 S 412.069 4.38585 -0.137272 0
M  V30 4210 H 408.887 0.698699 -0.131686 0
M  V30 4211 H 411.489 1.67552 -1.0073 0
M  V30 4212 H 410.193 3.81837 -1.50428 0
M  V30 4213 H 409.724 3.92894 0.199413 0
M  V30 4214 H 411.739 4.84594 1.06692 0
M  V30 4215 N 410.912 0.523116 1.48665 0
M  V30 4216 C 412.161 -0.01544 2.01694 0
M  V30 4217 C 412.474 -1.35975 1.40606 0
M  V30 4218 O 413.68 -1.98627 1.85093 0
M  V30 4219 C 412.136 -0.0779303 3.59816 0
M  V30 4220 C 411.744 1.26107 4.29885 0
M  V30 4221 C 413.488 -0.565678 4.20714 0
M  V30 4222 C 411.395 1.15954 5.79921 0
M  V30 4223 H 410.325 -0.00954163 0.75394 0
M  V30 4224 H 412.976 0.665865 1.70993 0
M  V30 4225 H 411.358 -0.824165 3.87329 0
M  V30 4226 H 412.532 2.02233 4.14051 0
M  V30 4227 H 410.847 1.68401 3.80828 0
M  V30 4228 H 413.444 -0.6595 5.30617 0
M  V30 4229 H 413.787 -1.56984 3.85567 0
M  V30 4230 H 414.32 0.12467 3.97605 0
M  V30 4231 H 411.059 2.13864 6.19631 0
M  V30 4232 H 410.579 0.439529 5.98187 0
M  V30 4233 H 412.258 0.847361 6.41427 0
M  V30 4234 N 412.39 -1.55475 0.257931 0
M  V30 4235 C 413.667 -1.91155 -0.414629 0
M  V30 4236 C 414.047 -1.18008 -1.75035 0
M  V30 4237 O 413.395 -0.301193 -2.26506 0
M  V30 4238 C 413.605 -3.44283 -0.571859 0
M  V30 4239 C 414.953 -4.15744 -0.862678 0
M  V30 4240 O 415.977 -3.50083 -0.657314 0
M  V30 4241 O 414.836 -5.31909 -1.2544 0
M  V30 4242 H 411.93 -0.796016 -0.22425 0
M  V30 4243 H 414.476 -1.66976 0.302814 0
M  V30 4244 H 413.248 -3.89558 0.368844 0
M  V30 4245 H 412.871 -3.7436 -1.33943 0
M  V30 4246 N 413.868 0.0150385 -1.57593 0
M  V30 4247 C 415.117 0.702115 -1.89085 0
M  V30 4248 C 415.43 1.75764 -0.858277 0
M  V30 4249 O 416.636 2.49829 -1.0629 0
M  V30 4250 C 415.092 1.29992 -3.35604 0
M  V30 4251 C 414.7 0.280007 -4.47124 0
M  V30 4252 C 416.444 1.96606 -3.76227 0
M  V30 4253 C 414.351 0.886949 -5.84711 0
M  V30 4254 H 413.281 0.265997 -0.705522 0
M  V30 4255 H 415.932 -0.0430408 -1.8345 0
M  V30 4256 H 414.314 2.09525 -3.36029 0
M  V30 4257 H 415.488 -0.489631 -4.58191 0
M  V30 4258 H 413.803 -0.284835 -4.15425 0
M  V30 4259 H 416.4 2.42893 -4.76347 0
M  V30 4260 H 416.743 2.79024 -3.08952 0
M  V30 4261 H 417.276 1.23828 -3.78036 0
M  V30 4262 H 414.015 0.101876 -6.55421 0
M  V30 4263 H 413.535 1.6261 -5.77337 0
M  V30 4264 H 415.214 1.39011 -6.3189 0
M  V30 4265 N 415.346 1.54954 0.287554 0
M  V30 4266 C 416.595 1.74081 1.01877 0
M  V30 4267 C 416.908 0.541135 1.87966 0
M  V30 4268 O 418.114 0.614491 2.64455 0
M  V30 4269 C 416.57 3.08042 1.86113 0
M  V30 4270 C 416.178 4.35531 1.04961 0
M  V30 4271 C 417.922 3.36523 2.58752 0
M  V30 4272 C 415.829 5.60538 1.88551 0
M  V30 4273 H 414.759 0.64884 0.384087 0
M  V30 4274 H 417.41 1.81426 0.275101 0
M  V30 4275 H 415.792 2.94696 2.64519 0
M  V30 4276 H 416.966 4.59751 0.31074 0
M  V30 4277 H 415.281 4.14085 0.43843 0
M  V30 4278 H 417.878 4.27122 3.21668 0
M  V30 4279 H 418.221 2.56 3.28283 0
M  V30 4280 H 418.754 3.50901 1.87386 0
M  V30 4281 H 415.493 6.43767 1.23466 0
M  V30 4282 H 415.013 5.40483 2.60074 0
M  V30 4283 H 416.692 5.98297 2.46273 0
M  V30 4284 N 416.824 -0.551391 1.4764 0
M  V30 4285 C 417.754 -1.66757 1.63445 0
M  V30 4286 C 418.735 -1.63077 0.483742 0
M  V30 4287 O 419.92 -1.80607 0.71377 0
M  V30 4288 C 417.05 -3.05387 1.65396 0
M  V30 4289 C 416.004 -3.23918 2.79752 0
M  V30 4290 C 415.33 -4.63393 2.66779 0
M  V30 4291 C 416.63 -3.08735 4.21284 0
M  V30 4292 H 418.324 -1.53786 2.56886 0
M  V30 4293 H 415.87 -0.738415 1.23626 0
M  V30 4294 H 417.823 -3.83325 1.75043 0
M  V30 4295 H 416.547 -3.19332 0.685195 0
M  V30 4296 H 415.206 -2.48391 2.69625 0
M  V30 4297 H 414.854 -4.74144 1.67918 0
M  V30 4298 H 414.554 -4.7674 3.43501 0
M  V30 4299 H 416.078 -5.43458 2.78364 0
M  V30 4300 H 417.492 -3.76484 4.32357 0
M  V30 4301 H 415.889 -3.33588 4.98838 0
M  V30 4302 H 416.959 -2.0541 4.39243 0
M  V30 4303 N 418.302 -1.35869 -0.798587 0
M  V30 4304 C 419.55 -1.29332 -1.55298 0
M  V30 4305 C 419.871 0.129729 -1.94568 0
M  V30 4306 O 419.141 1.06796 -1.6423 0
M  V30 4307 H 417.721 -0.475737 -0.57592 0
M  V30 4308 H 420.383 -1.70062 -0.952093 0
M  V30 4309 H 419.479 -1.91458 -2.46476 0
M  V30 4310 N 419.78 1.02168 -1.19998 0
M  V30 4311 C 421.196 1.27969 -0.953737 0
M  V30 4312 C 421.396 1.98079 0.369703 0
M  V30 4313 O 420.452 2.27306 1.09947 0
M  V30 4314 C 421.765 2.11971 -2.13281 0
M  V30 4315 C 423.313 2.25255 -2.17323 0
M  V30 4316 C 423.788 3.12632 -3.34702 0
M  V30 4317 N 425.279 3.2022 -3.34684 0
M  V30 4318 C 426.014 3.88039 -4.22153 0
M  V30 4319 N 425.51 4.58027 -5.19791 0
M  V30 4320 N 427.303 3.84511 -4.10009 0
M  V30 4321 H 419.454 0.550794 -2.05134 0
M  V30 4322 H 421.717 0.305683 -0.897364 0
M  V30 4323 H 421.423 1.67785 -3.09097 0
M  V30 4324 H 421.297 3.12699 -2.10949 0
M  V30 4325 H 423.684 2.68667 -1.22073 0
M  V30 4326 H 423.765 1.24053 -2.23706 0
M  V30 4327 H 423.409 2.69926 -4.30235 0
M  V30 4328 H 423.339 4.13909 -3.25556 0
M  V30 4329 H 425.83 2.70382 -2.64012 0
M  V30 4330 H 426.143 5.07429 -5.82868 0
M  V30 4331 H 424.488 4.56869 -5.23733 0
M  V30 4332 H 427.679 3.28978 -3.33003 0
M  V30 4333 H 427.852 4.3709 -4.78389 0
M  V30 4334 N 421.258 1.00505 1.21394 0
M  V30 4335 C 422.208 0.536503 2.21598 0
M  V30 4336 C 423.192 -0.401914 1.55799 0
M  V30 4337 O 424.384 -0.226757 1.75541 0
M  V30 4338 C 421.513 -0.135446 3.43033 0
M  V30 4339 C 420.599 0.823992 4.16018 0
M  V30 4340 N 420.99 1.97683 4.6557 0
M  V30 4341 C 419.288 0.642387 4.4135 0
M  V30 4342 C 419.989 2.58003 5.21354 0
M  V30 4343 N 418.965 1.86162 5.1073 0
M  V30 4344 H 422.767 1.41557 2.57563 0
M  V30 4345 H 420.281 0.868878 1.37202 0
M  V30 4346 H 422.278 -0.488584 4.14027 0
M  V30 4347 H 420.938 -1.01049 3.08576 0
M  V30 4348 H 421.949 2.3572 4.61147 0
M  V30 4349 H 418.626 -0.185578 4.17087 0
M  V30 4350 H 420.016 3.555 5.70149 0
M  V30 4351 N 422.737 -1.36956 0.779787 0
M  V30 4352 C 423.984 -1.99491 0.347766 0
M  V30 4353 C 424.312 -1.61898 -1.07793 0
M  V30 4354 O 423.567 -0.86071 -1.75756 0
M  V30 4355 C 423.866 -3.54585 0.447686 0
M  V30 4356 C 423.532 -4.1197 1.83279 0
M  V30 4357 C 422.194 -4.27356 2.2118 0
M  V30 4358 C 424.546 -4.43354 2.74019 0
M  V30 4359 C 421.874 -4.71432 3.4924 0
M  V30 4360 C 424.226 -4.88858 4.01497 0
M  V30 4361 C 422.89 -5.0245 4.39432 0
M  V30 4362 H 422.16 -0.729991 0.127257 0
M  V30 4363 H 424.807 -1.63599 0.995376 0
M  V30 4364 H 423.112 -3.90773 -0.283447 0
M  V30 4365 H 424.809 -4.00888 0.0945948 0
M  V30 4366 H 421.399 -4.00428 1.52825 0
M  V30 4367 H 425.583 -4.31045 2.45995 0
M  V30 4368 H 420.839 -4.80141 3.78516 0
M  V30 4369 H 425.013 -5.12108 4.71931 0
M  V30 4370 H 422.64 -5.36362 5.38721 0
M  V30 4371 N 424.215 -0.530993 -1.48385 0
M  V30 4372 C 425.125 0.23503 -2.3342 0
M  V30 4373 C 426.141 0.93801 -1.46552 0
M  V30 4374 O 427.317 0.912745 -1.7953 0
M  V30 4375 C 424.382 1.26778 -3.22689 0
M  V30 4376 C 423.443 0.575038 -4.25431 0
M  V30 4377 C 422.676 1.55858 -5.10435 0
M  V30 4378 O 422.899 2.79129 -4.97437 0
M  V30 4379 O 421.833 1.09742 -5.91811 0
M  V30 4380 H 425.659 -0.461794 -3.00169 0
M  V30 4381 H 423.244 -0.291903 -1.46521 0
M  V30 4382 H 425.126 1.86457 -3.77904 0
M  V30 4383 H 423.801 1.94699 -2.586 0
M  V30 4384 H 422.708 -0.0622782 -3.74048 0
M  V30 4385 H 424.041 -0.062253 -4.92161 0
M  V30 4386 N 425.693 1.55336 -0.266172 0
M  V30 4387 C 426.625 2.19544 0.658247 0
M  V30 4388 C 427.638 1.17746 1.12427 0
M  V30 4389 O 428.827 1.44517 1.04772 0
M  V30 4390 C 425.927 2.80032 1.9088 0
M  V30 4391 C 425.1 4.07436 1.59106 0
M  V30 4392 C 424.159 4.52056 2.69317 0
M  V30 4393 O 423.185 5.18023 2.35883 0
M  V30 4394 N 424.387 4.21448 3.99201 0
M  V30 4395 H 427.152 2.99503 0.108754 0
M  V30 4396 H 424.713 1.61667 -0.0869059 0
M  V30 4397 H 426.705 3.06831 2.63888 0
M  V30 4398 H 425.275 2.04119 2.36758 0
M  V30 4399 H 424.495 3.88021 0.695243 0
M  V30 4400 H 425.783 4.90462 1.35367 0
M  V30 4401 H 425.181 3.68528 4.29189 0
M  V30 4402 H 423.738 4.53039 4.68614 0
M  V30 4403 N 427.171 -0.0066808 1.57599 0
M  V30 4404 C 428.104 -1.03397 2.03431 0
M  V30 4405 C 429.082 -1.33872 0.922877 0
M  V30 4406 O 430.266 -1.4615 1.19048 0
M  V30 4407 C 427.393 -2.36325 2.42628 0
M  V30 4408 C 426.439 -2.21557 3.64438 0
M  V30 4409 S 427.272 -1.54789 5.12641 0
M  V30 4410 C 428.428 -2.8916 5.55101 0
M  V30 4411 H 428.661 -0.643687 2.90248 0
M  V30 4412 H 426.194 -0.217349 1.52863 0
M  V30 4413 H 428.152 -3.12759 2.65879 0
M  V30 4414 H 426.813 -2.72495 1.56222 0
M  V30 4415 H 426.006 -3.1974 3.89592 0
M  V30 4416 H 425.608 -1.53267 3.41153 0
M  V30 4417 H 427.9 -3.8547 5.57153 0
M  V30 4418 H 428.843 -2.68713 6.55133 0
M  V30 4419 H 429.251 -2.92762 4.82649 0
M  V30 4420 N 428.649 -1.55105 -0.279332 0
M  V30 4421 C 429.596 -1.8755 -1.34513 0
M  V30 4422 C 430.566 -0.726384 -1.49375 0
M  V30 4423 O 431.751 -0.977063 -1.63884 0
M  V30 4424 C 428.891 -2.14738 -2.70151 0
M  V30 4425 C 428.004 -3.42285 -2.63562 0
M  V30 4426 C 427.139 -3.59206 -3.91337 0
M  V30 4427 C 426.178 -4.80467 -3.79233 0
M  V30 4428 N 425.315 -4.94079 -4.98829 0
M  V30 4429 H 430.155 -2.78456 -1.06143 0
M  V30 4430 H 427.692 -1.37867 -0.512936 0
M  V30 4431 H 429.65 -2.28501 -3.49061 0
M  V30 4432 H 428.28 -1.27075 -2.96735 0
M  V30 4433 H 427.332 -3.37029 -1.76397 0
M  V30 4434 H 428.644 -4.31328 -2.50515 0
M  V30 4435 H 427.798 -3.72751 -4.78687 0
M  V30 4436 H 426.537 -2.68337 -4.07243 0
M  V30 4437 H 425.542 -4.66932 -2.90266 0
M  V30 4438 H 426.767 -5.72765 -3.64852 0
M  V30 4439 H 424.713 -4.06139 -5.15158 0
M  V30 4440 H 424.63 -5.77156 -4.8829 0
M  V30 4441 H 425.898 -5.12003 -5.8777 0
M  V30 4442 N 430.127 0.543554 -1.4793 0
M  V30 4443 C 431.404 1.30458 -1.4574 0
M  V30 4444 C 431.784 2.1048 -0.161692 0
M  V30 4445 O 431.132 2.11831 0.856734 0
M  V30 4446 C 431.342 2.19754 -2.71126 0
M  V30 4447 C 432.69 2.80334 -3.18901 0
M  V30 4448 O 433.714 2.30049 -2.71948 0
M  V30 4449 O 432.573 3.71766 -4.00565 0
M  V30 4450 H 429.667 0.588117 -0.581418 0
M  V30 4451 H 432.213 0.561328 -1.60147 0
M  V30 4452 H 430.985 1.60316 -3.56952 0
M  V30 4453 H 430.608 3.01351 -2.59371 0
M  V30 4454 N 431.605 1.3629 0.791371 0
M  V30 4455 C 432.882 1.20962 1.53712 0
M  V30 4456 C 433.262 -0.205021 2.10102 0
M  V30 4457 O 432.61 -1.21042 1.93807 0
M  V30 4458 C 432.82 2.29002 2.63361 0
M  V30 4459 C 434.168 2.65572 3.31295 0
M  V30 4460 O 435.192 2.2803 2.73643 0
M  V30 4461 O 434.051 3.3018 4.35481 0
M  V30 4462 H 431.145 0.47086 0.679867 0
M  V30 4463 H 433.691 1.48016 0.830021 0
M  V30 4464 H 432.463 3.2382 2.19674 0
M  V30 4465 H 432.086 2.03303 3.41692 0
M  V30 4466 N 433.083 -1.0153 1.20538 0
M  V30 4467 C 434.046 -2.0826 0.957098 0
M  V30 4468 C 435.046 -1.60657 -0.0678655 0
M  V30 4469 O 436.236 -1.73385 0.168332 0
M  V30 4470 C 433.368 -3.38033 0.441188 0
M  V30 4471 H 434.561 -2.31719 1.90384 0
M  V30 4472 H 432.114 -1.1835 1.02093 0
M  V30 4473 H 432.849 -3.20249 -0.510961 0
M  V30 4474 H 432.634 -3.73911 1.18038 0
M  V30 4475 H 434.124 -4.16613 0.287009 0
M  V30 4476 N 434.561 -1.01147 -1.20859 0
M  V30 4477 C 435.81 -0.693214 -1.89413 0
M  V30 4478 C 436.123 0.779969 -1.79376 0
M  V30 4479 O 437.329 1.21057 -2.43017 0
M  V30 4480 C 435.785 -1.18949 -3.39675 0
M  V30 4481 C 435.393 -2.68921 -3.58309 0
M  V30 4482 C 437.137 -0.94642 -4.13815 0
M  V30 4483 C 435.044 -3.12056 -5.0237 0
M  V30 4484 H 433.974 -0.255595 -0.709357 0
M  V30 4485 H 436.625 -1.22349 -1.36759 0
M  V30 4486 H 435.007 -0.587228 -3.91622 0
M  V30 4487 H 436.181 -3.34652 -3.16772 0
M  V30 4488 H 434.496 -2.91314 -2.97532 0
M  V30 4489 H 437.093 -1.24417 -5.20023 0
M  V30 4490 H 437.436 0.117219 -4.16135 0
M  V30 4491 H 437.969 -1.5118 -3.67953 0
M  V30 4492 H 434.708 -4.17674 -5.05202 0
M  V30 4493 H 434.228 -2.51041 -5.44737 0
M  V30 4494 H 435.907 -3.04403 -5.70918 0
M  V30 4495 N 436.039 1.36541 -0.78704 0
M  V30 4496 C 437.285 1.99599 -0.358872 0
M  V30 4497 C 437.618 1.62323 1.06606 0
M  V30 4498 O 436.893 0.876858 1.73613 0
M  V30 4499 C 437.176 3.56327 -0.519944 0
M  V30 4500 C 437.029 4.03464 -1.98839 0
M  V30 4501 C 438.348 4.4005 0.0664737 0
M  V30 4502 H 435.467 0.725107 -0.131869 0
M  V30 4503 H 438.109 1.6199 -0.992936 0
M  V30 4504 H 436.259 3.88495 0.0198321 0
M  V30 4505 H 437.931 3.81793 -2.58905 0
M  V30 4506 H 436.174 3.55092 -2.49183 0
M  V30 4507 H 436.845 5.12439 -2.05207 0
M  V30 4508 H 439.321 4.14228 -0.394267 0
M  V30 4509 H 438.197 5.48847 -0.0762682 0
M  V30 4510 H 438.458 4.26655 1.15835 0
M  V30 4511 N 437.518 0.538854 1.48102 0
M  V30 4512 C 438.758 0.0101209 2.04397 0
M  V30 4513 C 439.122 -1.30741 1.40609 0
M  V30 4514 O 440.323 -1.92272 1.87843 0
M  V30 4515 C 438.594 -0.100232 3.57259 0
M  V30 4516 S 440.153 -0.577746 4.3498 0
M  V30 4517 H 436.971 0.0163171 0.710813 0
M  V30 4518 H 439.573 0.721429 1.81702 0
M  V30 4519 H 438.277 0.863351 4.01216 0
M  V30 4520 H 437.808 -0.835651 3.84422 0
M  V30 4521 H 439.823 -1.84073 4.60794 0
M  V30 4522 N 438.996 -1.55193 0.274407 0
M  V30 4523 C 439.944 -2.23924 -0.629362 0
M  V30 4524 C 440.938 -1.23602 -1.1584 0
M  V30 4525 O 442.144 -1.41535 -1.11211 0
M  V30 4526 H 438.519 -0.718637 -0.221507 0
M  V30 4527 H 440.49 -2.98388 -0.0268322 0
M  V30 4528 C 439.239 -2.97329 -1.80252 0
M  V30 4529 H 438.562 -3.74313 -1.40462 0
M  V30 4530 H 440.002 -3.48743 -2.41152 0
M  V30 4531 C 438.461 -2.0276 -2.69054 0
M  V30 4532 O 438.991 -1.57836 -3.69392 0
M  V30 4533 N 437.197 -1.69275 -2.36208 0
M  V30 4534 H 436.744 -2.06004 -1.54661 0
M  V30 4535 H 436.702 -1.06271 -2.95895 0
M  V30 4536 N 440.474 -0.00167713 -1.576 0
M  V30 4537 C 441.723 0.682021 -1.89819 0
M  V30 4538 C 442.036 1.74844 -0.876871 0
M  V30 4539 O 443.242 2.48688 -1.08934 0
M  V30 4540 C 441.698 1.26425 -3.36964 0
M  V30 4541 C 441.306 0.232568 -4.47396 0
M  V30 4542 C 443.05 1.92604 -3.78291 0
M  V30 4543 C 440.957 0.824882 -5.85619 0
M  V30 4544 H 439.887 0.258499 -0.708304 0
M  V30 4545 H 442.538 -0.0624957 -1.83394 0
M  V30 4546 H 440.92 2.05949 -3.38232 0
M  V30 4547 H 442.094 -0.5382 -4.57646 0
M  V30 4548 H 440.409 -0.32888 -4.15099 0
M  V30 4549 H 443.006 2.37827 -4.78897 0
M  V30 4550 H 443.349 2.75732 -3.11894 0
M  V30 4551 H 443.882 1.19812 -3.79328 0
M  V30 4552 H 440.621 0.0323542 -6.55492 0
M  V30 4553 H 440.141 1.56477 -5.79029 0
M  V30 4554 H 441.82 1.32301 -6.33329 0
M  V30 4555 N 441.952 1.55251 0.271103 0
M  V30 4556 C 443.2 1.75599 1.00047 0
M  V30 4557 C 443.521 0.561188 1.8675 0
M  V30 4558 O 442.791 -0.423846 1.9126 0
M  V30 4559 H 441.371 0.647562 0.372387 0
M  V30 4560 H 444.033 1.92656 0.294876 0
M  V30 4561 H 443.129 2.65766 1.6363 0
M  V30 4562 N 443.43 -0.535701 1.48216 0
M  V30 4563 C 444.38 -1.63688 1.58714 0
M  V30 4564 C 445.364 -1.54635 0.444615 0
M  V30 4565 O 446.556 -1.62753 0.695742 0
M  V30 4566 C 443.685 -3.02423 1.62466 0
M  V30 4567 C 442.771 -3.16601 2.82178 0
M  V30 4568 N 443.162 -3.00771 4.06658 0
M  V30 4569 C 441.46 -3.47645 2.79391 0
M  V30 4570 C 442.161 -3.18213 4.86945 0
M  V30 4571 N 441.137 -3.45528 4.19656 0
M  V30 4572 H 444.939 -1.5005 2.5271 0
M  V30 4573 H 442.453 -0.741018 1.44508 0
M  V30 4574 H 444.45 -3.81517 1.6808 0
M  V30 4575 H 443.11 -3.17157 0.695826 0
M  V30 4576 H 444.121 -2.77652 4.37184 0
M  V30 4577 H 440.798 -3.68771 1.95739 0
M  V30 4578 H 442.188 -3.1076 5.95716 0
M  V30 4579 N 444.908 -1.36708 -0.784132 0
M  V30 4580 C 446.155 -1.31231 -1.54222 0
M  V30 4581 C 446.483 0.106864 -1.94206 0
M  V30 4582 O 445.738 1.07734 -1.63376 0
M  V30 4583 C 446.037 -2.18571 -2.82774 0
M  V30 4584 C 445.703 -3.67039 -2.61903 0
M  V30 4585 C 444.365 -4.07503 -2.55919 0
M  V30 4586 C 446.717 -4.61149 -2.4288 0
M  V30 4587 C 444.045 -5.40211 -2.28886 0
M  V30 4588 C 446.397 -5.94081 -2.17373 0
M  V30 4589 C 445.061 -6.33664 -2.09825 0
M  V30 4590 H 444.331 -0.48021 -0.56434 0
M  V30 4591 H 446.978 -1.68807 -0.904233 0
M  V30 4592 H 445.283 -1.73949 -3.51068 0
M  V30 4593 H 446.98 -2.11655 -3.40592 0
M  V30 4594 H 443.57 -3.34941 -2.67418 0
M  V30 4595 H 447.754 -4.30756 -2.46501 0
M  V30 4596 H 443.01 -5.69855 -2.21529 0
M  V30 4597 H 447.184 -6.66566 -2.01649 0
M  V30 4598 H 444.811 -7.36423 -1.88641 0
M  V30 4599 N 446.386 1.0089 -1.21074 0
M  V30 4600 C 447.663 1.71834 -0.934469 0
M  V30 4601 C 448.043 2.0368 0.554753 0
M  V30 4602 O 447.391 1.70742 1.51854 0
M  V30 4603 C 447.601 2.98061 -1.8155 0
M  V30 4604 C 448.949 3.7117 -2.06199 0
M  V30 4605 O 449.973 3.08034 -1.78867 0
M  V30 4606 O 448.832 4.84721 -2.52404 0
M  V30 4607 H 445.926 0.749253 -0.35007 0
M  V30 4608 H 448.472 1.06668 -1.31985 0
M  V30 4609 H 447.244 2.70908 -2.82355 0
M  V30 4610 H 446.867 3.70968 -1.43068 0
M  V30 4611 N 447.864 1.01787 1.20321 0
M  V30 4612 C 449.11 0.708985 1.90003 0
M  V30 4613 C 449.443 -0.759572 1.78729 0
M  V30 4614 O 448.718 -1.55198 1.17234 0
M  V30 4615 C 449.001 1.1469 3.41348 0
M  V30 4616 C 448.854 2.67586 3.61549 0
M  V30 4617 C 450.173 0.71915 4.34185 0
M  V30 4618 H 447.292 0.259034 0.689978 0
M  V30 4619 H 449.934 1.26584 1.41692 0
M  V30 4620 H 448.084 0.673128 3.82624 0
M  V30 4621 H 449.756 3.22826 3.29517 0
M  V30 4622 H 447.999 3.085 3.04976 0
M  V30 4623 H 448.67 2.93281 4.67643 0
M  V30 4624 H 451.146 1.12647 4.00562 0
M  V30 4625 H 450.022 1.05358 5.38694 0
M  V30 4626 H 450.283 -0.379111 4.40472 0
M  V30 4627 N 449.342 -1.36122 0.79427 0
M  V30 4628 C 450.252 -2.33769 0.197296 0
M  V30 4629 C 451.268 -1.61276 -0.653153 0
M  V30 4630 O 452.444 -1.9323 -0.5678 0
M  V30 4631 C 449.509 -3.40474 -0.654098 0
M  V30 4632 C 448.57 -4.28759 0.215411 0
M  V30 4633 C 447.803 -5.30368 -0.595443 0
M  V30 4634 O 448.026 -5.40211 -1.83107 0
M  V30 4635 O 446.96 -6.019 0.00721351 0
M  V30 4636 H 450.786 -2.86597 1.00478 0
M  V30 4637 H 448.371 -1.38676 0.555818 0
M  V30 4638 H 450.253 -4.05703 -1.13944 0
M  V30 4639 H 448.928 -2.89937 -1.43938 0
M  V30 4640 H 447.835 -3.66554 0.747615 0
M  V30 4641 H 449.168 -4.82661 0.964332 0
M  V30 4642 N 450.82 -0.546701 -1.47814 0
M  V30 4643 C 452.069 -0.0166497 -2.01693 0
M  V30 4644 C 452.382 1.33721 -1.42752 0
M  V30 4645 O 453.588 1.95658 -1.8823 0
M  V30 4646 C 452.044 0.0206769 -3.59894 0
M  V30 4647 C 451.652 -1.3293 -4.27824 0
M  V30 4648 C 453.396 0.498674 -4.21561 0
M  V30 4649 C 451.303 -1.25165 -5.78003 0
M  V30 4650 H 450.233 -0.0024541 -0.753996 0
M  V30 4651 H 452.884 -0.692984 -1.69912 0
M  V30 4652 H 451.266 0.76244 -3.88591 0
M  V30 4653 H 452.44 -2.08795 -4.10781 0
M  V30 4654 H 450.755 -1.74438 -3.78101 0
M  V30 4655 H 453.352 0.575 -5.31599 0
M  V30 4656 H 453.695 1.5083 -3.88016 0
M  V30 4657 H 454.228 -0.18791 -3.97356 0
M  V30 4658 H 450.967 -2.23695 -6.1615 0
M  V30 4659 H 450.487 -0.53464 -5.97412 0
M  V30 4660 H 452.166 -0.949299 -6.39998 0
M  V30 4661 N 452.299 1.55045 -0.282633 0
M  V30 4662 C 453.576 1.9179 0.384166 0
M  V30 4663 C 453.956 1.20778 1.73136 0
M  V30 4664 O 453.304 0.33719 2.25998 0
M  V30 4665 C 453.514 3.45149 0.517014 0
M  V30 4666 C 454.862 4.17064 0.796427 0
M  V30 4667 O 455.886 3.51084 0.601535 0
M  V30 4668 O 454.745 5.33837 1.16962 0
M  V30 4669 H 451.839 0.799483 0.211558 0
M  V30 4670 H 454.385 1.66474 -0.32934 0
M  V30 4671 H 453.157 3.88922 -0.430772 0
M  V30 4672 H 452.78 3.76443 1.2797 0
M  V30 4673 N 453.777 0.010035 1.57597 0
M  V30 4674 C 455.023 -0.673697 1.91283 0
M  V30 4675 C 455.356 -1.72863 0.884979 0
M  V30 4676 O 454.631 -1.94268 -0.0949487 0
M  V30 4677 C 454.914 -1.30766 3.35518 0
M  V30 4678 C 454.767 -0.263578 4.49027 0
M  V30 4679 C 456.086 -2.23105 3.79358 0
M  V30 4680 H 453.205 -0.243439 0.695634 0
M  V30 4681 H 455.847 0.0633864 1.89894 0
M  V30 4682 H 453.997 -1.93588 3.36832 0
M  V30 4683 H 455.669 0.365738 4.59848 0
M  V30 4684 H 453.912 0.413077 4.31829 0
M  V30 4685 H 454.583 -0.746398 5.4693 0
M  V30 4686 H 457.059 -1.70289 3.79659 0
M  V30 4687 H 455.935 -2.64424 4.81011 0
M  V30 4688 H 456.196 -3.11433 3.13787 0
M  V30 4689 N 455.255 -1.55392 -0.262866 0
M  V30 4690 C 456.202 -1.88966 -1.32516 0
M  V30 4691 C 457.172 -0.742187 -1.48596 0
M  V30 4692 O 458.357 -0.99439 -1.62839 0
M  V30 4693 C 455.497 -2.17592 -2.67858 0
M  V30 4694 C 454.61 -3.45061 -2.59917 0
M  V30 4695 C 453.745 -3.63336 -3.87505 0
M  V30 4696 C 452.784 -4.84462 -3.74116 0
M  V30 4697 N 451.921 -4.99342 -4.93561 0
M  V30 4698 H 456.761 -2.79566 -1.03184 0
M  V30 4699 H 454.298 -1.38404 -0.498285 0
M  V30 4700 H 456.256 -2.3219 -3.46617 0
M  V30 4701 H 454.886 -1.30215 -2.95371 0
M  V30 4702 H 453.938 -3.38881 -1.72812 0
M  V30 4703 H 455.25 -4.3396 -2.45926 0
M  V30 4704 H 454.404 -3.77807 -4.74707 0
M  V30 4705 H 453.143 -2.72641 -4.04374 0
M  V30 4706 H 452.148 -4.69985 -2.85297 0
M  V30 4707 H 453.373 -5.76603 -3.58757 0
M  V30 4708 H 451.319 -4.1158 -5.10821 0
M  V30 4709 H 451.236 -5.82303 -4.82141 0
M  V30 4710 H 452.504 -5.18208 -5.82306 0
M  V30 4711 N 456.733 0.527833 -1.48498 0
M  V30 4712 C 457.979 1.28295 -1.57836 0
M  V30 4713 C 458.334 1.9077 -0.249943 0
M  V30 4714 O 457.627 1.76421 0.747402 0
M  V30 4715 C 457.821 2.39275 -2.65485 0
M  V30 4716 C 457.65 1.87679 -4.08664 0
M  V30 4717 C 456.42 1.70187 -4.75778 0
M  V30 4718 C 458.618 1.40409 -4.94762 0
M  V30 4719 N 456.6 1.13238 -6.03366 0
M  V30 4720 C 457.971 0.954216 -6.12613 0
M  V30 4721 C 460.026 1.28732 -4.8097 0
M  V30 4722 C 458.729 0.39915 -7.18192 0
M  V30 4723 C 460.755 0.746244 -5.86673 0
M  V30 4724 C 460.117 0.306457 -7.03733 0
M  V30 4725 H 456.216 0.460408 -0.632099 0
M  V30 4726 H 458.8 0.594913 -1.85388 0
M  V30 4727 H 456.971 3.05572 -2.3975 0
M  V30 4728 H 458.703 3.06308 -2.64495 0
M  V30 4729 H 455.458 1.93772 -4.32145 0
M  V30 4730 H 455.882 0.867687 -6.71417 0
M  V30 4731 H 460.524 1.61338 -3.90807 0
M  V30 4732 H 458.242 0.0607678 -8.08077 0
M  V30 4733 H 461.828 0.659041 -5.78055 0
M  V30 4734 H 460.708 -0.105708 -7.84129 0
M  V30 4735 N 458.211 1.37122 0.776871 0
M  V30 4736 C 459.141 1.35164 1.90402 0
M  V30 4737 C 460.122 0.221069 1.68657 0
M  V30 4738 O 461.307 0.420642 1.8959 0
M  V30 4739 C 458.437 1.15274 3.27611 0
M  V30 4740 C 457.391 2.25289 3.63908 0
M  V30 4741 C 456.717 1.90527 4.99603 0
M  V30 4742 C 458.017 3.67446 3.71188 0
M  V30 4743 H 459.711 2.29482 1.92297 0
M  V30 4744 H 457.257 1.10465 0.923773 0
M  V30 4745 H 459.21 1.12536 4.06096 0
M  V30 4746 H 457.934 0.174102 3.26136 0
M  V30 4747 H 456.593 2.27174 2.87728 0
M  V30 4748 H 456.241 0.91206 4.94662 0
M  V30 4749 H 455.941 2.64193 5.24858 0
M  V30 4750 H 457.465 1.89367 5.80493 0
M  V30 4751 H 458.879 3.67719 4.39836 0
M  V30 4752 H 457.276 4.40123 4.07936 0
M  V30 4753 H 458.346 4.01443 2.71977 0
M  V30 4754 N 459.689 -1.00246 1.21608 0
M  V30 4755 C 460.637 -2.11193 0.97469 0
M  V30 4756 C 461.631 -1.69216 -0.0789303 0
M  V30 4757 O 462.837 -1.79853 0.0726806 0
M  V30 4758 H 459.212 -0.690455 0.297953 0
M  V30 4759 H 461.183 -2.2873 1.91638 0
M  V30 4760 C 459.932 -3.43182 0.558717 0
M  V30 4761 H 459.255 -3.75918 1.3611 0
M  V30 4762 H 460.695 -4.21823 0.429154 0
M  V30 4763 C 459.154 -3.28882 -0.730648 0
M  V30 4764 O 459.684 -3.59835 -1.78554 0
M  V30 4765 N 457.89 -2.8209 -0.698131 0
M  V30 4766 H 457.437 -2.57099 0.16061 0
M  V30 4767 H 457.395 -2.72903 -1.56113 0
M  V30 4768 N 461.167 -1.02423 -1.1978 0
M  V30 4769 C 462.077 -0.610919 -2.26506 0
M  V30 4770 C 463.093 0.355152 -1.70337 0
M  V30 4771 O 464.269 0.214195 -2.00258 0
M  V30 4772 C 461.334 0.0365921 -3.46681 0
M  V30 4773 C 460.395 -0.976389 -4.18049 0
M  V30 4774 C 459.628 -0.359683 -5.32487 0
M  V30 4775 O 459.851 0.838601 -5.64202 0
M  V30 4776 O 458.785 -1.08022 -5.92127 0
M  V30 4777 H 462.611 -1.49965 -2.64091 0
M  V30 4778 H 460.196 -0.794156 -1.26545 0
M  V30 4779 H 462.078 0.39786 -4.19518 0
M  V30 4780 H 460.753 0.899398 -3.10954 0
M  V30 4781 H 459.66 -1.38916 -3.47352 0
M  V30 4782 H 460.993 -1.80941 -4.57735 0
M  V30 4783 N 462.645 1.35699 -0.801477 0
M  V30 4784 C 463.593 2.3177 -0.196317 0
M  V30 4785 C 464.587 1.56388 0.651081 0
M  V30 4786 O 465.793 1.71557 0.544815 0
M  V30 4787 H 462.168 0.750669 -0.0447189 0
M  V30 4788 H 464.139 2.8036 -1.02181 0
M  V30 4789 C 462.888 3.41671 0.644702 0
M  V30 4790 H 462.211 3.998 0.0019921 0
M  V30 4791 H 463.651 4.11184 1.0346 0
M  V30 4792 C 462.11 2.84271 1.80808 0
M  V30 4793 O 462.64 2.77408 2.9053 0
M  V30 4794 N 460.846 2.41391 1.61799 0
M  V30 4795 H 460.393 2.47173 0.725493 0
M  V30 4796 H 460.351 2.03334 2.39797 0
M  V30 4797 N 464.123 0.554532 1.47522 0
M  V30 4798 C 465.086 -0.184174 2.28459 0
M  V30 4799 C 466.086 -0.845195 1.36796 0
M  V30 4800 O 467.276 -0.701467 1.59452 0
M  V30 4801 C 464.408 -1.26903 3.16399 0
M  V30 4802 H 465.601 0.526751 2.95238 0
M  V30 4803 H 463.154 0.311375 1.53167 0
M  V30 4804 H 463.889 -2.01244 2.54306 0
M  V30 4805 H 463.674 -0.799883 3.83854 0
M  V30 4806 H 465.164 -1.78794 3.77389 0
M  V30 4807 N 465.601 -1.54893 0.290851 0
M  V30 4808 C 466.847 -2.0023 -0.321867 0
M  V30 4809 C 467.18 -1.179 -1.54316 0
M  V30 4810 O 466.455 -0.25293 -1.92848 0
M  V30 4811 C 466.738 -3.53456 -0.688515 0
M  V30 4812 C 466.591 -4.46532 0.541209 0
M  V30 4813 C 467.91 -4.13057 -1.51895 0
M  V30 4814 H 465.029 -0.727891 -0.115515 0
M  V30 4815 H 467.671 -1.85722 0.400931 0
M  V30 4816 H 465.821 -3.6595 -1.30433 0
M  V30 4817 H 467.493 -4.4596 1.17973 0
M  V30 4818 H 465.736 -4.17545 1.17636 0
M  V30 4819 H 466.407 -5.51475 0.240675 0
M  V30 4820 H 468.883 -4.03937 -0.99872 0
M  V30 4821 H 467.759 -5.20448 -1.74429 0
M  V30 4822 H 468.02 -3.64284 -2.50498 0
M  V30 4823 N 467.08 -0.0183926 -1.57589 0
M  V30 4824 C 467.99 0.982943 -2.13015 0
M  V30 4825 C 469.006 1.36443 -1.07979 0
M  V30 4826 O 470.182 1.44802 -1.3998 0
M  V30 4827 C 467.247 2.25024 -2.63752 0
M  V30 4828 C 466.308 1.93018 -3.83461 0
M  V30 4829 C 465.541 3.13706 -4.31769 0
M  V30 4830 O 465.764 4.2601 -3.79305 0
M  V30 4831 O 464.698 2.96629 -5.23732 0
M  V30 4832 H 468.524 0.541709 -2.9883 0
M  V30 4833 H 466.109 0.201565 -1.48034 0
M  V30 4834 H 467.991 2.99441 -2.96502 0
M  V30 4835 H 466.666 2.68349 -1.81026 0
M  V30 4836 H 465.573 1.16019 -3.55655 0
M  V30 4837 H 466.906 1.54516 -4.67317 0
M  V30 4838 N 468.558 1.5553 0.254621 0
M  V30 4839 C 469.505 1.89666 1.31512 0
M  V30 4840 C 470.475 0.750057 1.482 0
M  V30 4841 O 471.66 1.00301 1.62309 0
M  V30 4842 C 468.8 2.19009 2.667 0
M  V30 4843 C 467.913 3.46435 2.58083 0
M  V30 4844 C 467.048 3.65386 3.85573 0
M  V30 4845 C 466.087 4.8644 3.71541 0
M  V30 4846 N 465.224 5.01952 4.90906 0
M  V30 4847 H 470.064 2.80109 1.017 0
M  V30 4848 H 467.601 1.38666 0.490938 0
M  V30 4849 H 469.559 2.34025 3.45381 0
M  V30 4850 H 468.189 1.31779 2.94676 0
M  V30 4851 H 467.241 3.39792 1.71013 0
M  V30 4852 H 468.553 4.35258 2.43622 0
M  V30 4853 H 467.707 3.80319 4.72697 0
M  V30 4854 H 466.446 2.74781 4.02922 0
M  V30 4855 H 465.451 4.71491 2.82801 0
M  V30 4856 H 466.676 5.78497 3.55694 0
M  V30 4857 H 464.622 4.14283 5.08631 0
M  V30 4858 H 464.539 5.84851 4.79046 0
M  V30 4859 H 465.807 5.21289 5.7955 0
M  V30 4860 N 470.036 -0.519951 1.48776 0
M  V30 4861 C 471.282 -1.27711 1.57536 0
M  V30 4862 C 471.615 -1.92547 0.252866 0
M  V30 4863 O 470.89 -1.7979 -0.742021 0
M  V30 4864 C 471.173 -2.35875 2.72094 0
M  V30 4865 C 471.026 -1.75664 4.1408 0
M  V30 4866 C 472.345 -3.37575 2.82367 0
M  V30 4867 H 469.464 -0.462971 0.573434 0
M  V30 4868 H 472.106 -0.578194 1.80989 0
M  V30 4869 H 470.256 -2.95488 2.52228 0
M  V30 4870 H 471.928 -1.20025 4.45412 0
M  V30 4871 H 470.171 -1.06154 4.20611 0
M  V30 4872 H 470.842 -2.54029 4.90075 0
M  V30 4873 H 473.318 -2.87929 3.00393 0
M  V30 4874 H 472.194 -4.1064 3.64233 0
M  V30 4875 H 472.455 -3.98743 1.90936 0
M  V30 4876 N 471.514 -1.37532 -0.769588 0
M  V30 4877 C 472.462 -1.33561 -1.90432 0
M  V30 4878 C 473.456 -0.224027 -1.67912 0
M  V30 4879 O 474.662 -0.392174 -1.75676 0
M  V30 4880 H 471.037 -0.416279 -0.626271 0
M  V30 4881 H 473.008 -2.29348 -1.90899 0
M  V30 4882 C 471.757 -1.16162 -3.27722 0
M  V30 4883 H 471.08 -2.00951 -3.45628 0
M  V30 4884 H 472.52 -1.17434 -4.07413 0
M  V30 4885 C 470.979 0.132583 -3.36639 0
M  V30 4886 O 471.509 1.11539 -3.85904 0
M  V30 4887 N 469.715 0.184013 -2.90017 0
M  V30 4888 H 469.262 -0.616415 -2.50116 0
M  V30 4889 H 469.22 1.04956 -2.96364 0
M  V30 4890 N 472.992 0.995999 -1.22138 0
M  V30 4891 C 474.241 1.72928 -1.03821 0
M  V30 4892 C 474.554 1.90872 0.427444 0
M  V30 4893 O 475.76 2.61496 0.730212 0
M  V30 4894 C 474.216 3.11124 -1.80913 0
M  V30 4895 C 473.824 3.01122 -3.31707 0
M  V30 4896 C 475.568 3.8852 -1.71035 0
M  V30 4897 C 473.475 4.34453 -4.01253 0
M  V30 4898 H 472.405 0.648376 -0.384869 0
M  V30 4899 H 475.056 1.11213 -1.45959 0
M  V30 4900 H 473.438 3.73503 -1.31573 0
M  V30 4901 H 474.612 2.47926 -3.88419 0
M  V30 4902 H 472.927 2.3721 -3.42228 0
M  V30 4903 H 475.524 4.872 -2.20318 0
M  V30 4904 H 475.867 4.1087 -0.670196 0
M  V30 4905 H 476.4 3.32812 -2.17902 0
M  V30 4906 H 473.139 4.17303 -5.05508 0
M  V30 4907 H 472.659 4.87574 -3.49331 0
M  V30 4908 H 474.338 5.03215 -4.06674 0
M  V30 4909 N 474.47 1.03057 1.19235 0
M  V30 4910 C 475.417 0.612832 2.22515 0
M  V30 4911 C 476.387 -0.374224 1.61829 0
M  V30 4912 O 477.572 -0.270501 1.88873 0
M  V30 4913 C 474.712 -0.028475 3.45088 0
M  V30 4914 C 473.825 1.00483 4.20151 0
M  V30 4915 C 472.96 0.333102 5.30155 0
M  V30 4916 C 471.999 1.3522 5.96977 0
M  V30 4917 N 471.136 0.70616 6.9854 0
M  V30 4918 H 475.976 1.49812 2.57605 0
M  V30 4919 H 473.513 0.749658 1.26564 0
M  V30 4920 H 475.471 -0.417548 4.15105 0
M  V30 4921 H 474.101 -0.877334 3.10649 0
M  V30 4922 H 473.153 1.51194 3.49062 0
M  V30 4923 H 474.465 1.77929 4.65986 0
M  V30 4924 H 473.619 -0.110725 6.06599 0
M  V30 4925 H 472.358 -0.473547 4.85396 0
M  V30 4926 H 471.363 1.80627 5.19282 0
M  V30 4927 H 472.588 2.16037 6.4382 0
M  V30 4928 H 470.534 -0.0803667 6.55951 0
M  V30 4929 H 470.451 1.41848 7.42573 0
M  V30 4930 H 471.719 0.286391 7.78974 0
M  V30 4931 N 475.948 -1.35272 0.808662 0
M  V30 4932 C 477.359 -1.81179 0.450688 0
M  V30 4933 C 477.71 -1.67143 -1.02751 0
M  V30 4934 O 476.835 -1.20325 -1.79864 0
M  V30 4935 C 477.43 -3.28943 0.811275 0
M  V30 4936 C 475.989 -3.72985 0.505871 0
M  V30 4937 C 475.136 -2.57229 1.03578 0
M  V30 4938 H 478.087 -1.2322 1.00012 0
M  V30 4939 H 478.108 -3.80342 0.109588 0
M  V30 4940 H 477.62 -3.39127 1.88718 0
M  V30 4941 H 475.721 -3.68349 -0.561209 0
M  V30 4942 H 475.834 -4.67677 1.03995 0
M  V30 4943 H 474.198 -2.50548 0.458005 0
M  V30 4944 H 474.981 -2.7019 2.11784 0
M  V30 4945 N 477.426 -0.562348 -1.47226 0
M  V30 4946 C 478.358 0.220011 -2.28142 0
M  V30 4947 C 479.371 0.874596 -1.37312 0
M  V30 4948 O 480.56 0.747583 -1.62091 0
M  V30 4949 C 477.66 1.32953 -3.11732 0
M  V30 4950 C 476.833 0.770759 -4.30556 0
M  V30 4951 C 475.892 1.76541 -4.95701 0
M  V30 4952 O 474.918 1.3095 -5.53932 0
M  V30 4953 N 476.12 3.09896 -4.90861 0
M  V30 4954 H 478.885 -0.474107 -2.95926 0
M  V30 4955 H 476.446 -0.398761 -1.56912 0
M  V30 4956 H 478.438 1.99378 -3.5218 0
M  V30 4957 H 477.008 1.92681 -2.46156 0
M  V30 4958 H 476.228 -0.0704056 -3.94137 0
M  V30 4959 H 477.516 0.376872 -5.07402 0
M  V30 4960 H 476.914 3.49577 -4.44761 0
M  V30 4961 H 475.471 3.71865 -5.35313 0
M  V30 4962 N 478.904 1.54736 -0.299062 0
M  V30 4963 C 480.15 2.00397 0.311244 0
M  V30 4964 C 480.483 1.18716 1.53688 0
M  V30 4965 O 479.758 0.263154 1.92712 0
M  V30 4966 C 480.041 3.53817 0.669761 0
M  V30 4967 C 479.894 4.46239 -0.564882 0
M  V30 4968 C 481.213 4.13856 1.49702 0
M  V30 4969 H 478.332 0.728493 0.111653 0
M  V30 4970 H 480.974 1.85506 -0.410774 0
M  V30 4971 H 479.124 3.66637 1.28491 0
M  V30 4972 H 480.796 4.45328 -1.20337 0
M  V30 4973 H 479.039 4.16916 -1.19849 0
M  V30 4974 H 479.71 5.5134 -0.269918 0
M  V30 4975 H 482.186 4.04461 0.977284 0
M  V30 4976 H 481.062 5.21365 1.71666 0
M  V30 4977 H 481.323 3.65608 2.48563 0
M  V30 4978 N 480.382 0.0267497 1.57577 0
M  V30 4979 C 481.659 -0.690926 1.82991 0
M  V30 4980 C 482.039 -1.90471 0.910164 0
M  V30 4981 O 481.387 -2.28474 -0.0347985 0
M  V30 4982 C 481.597 -1.07139 3.32148 0
M  V30 4983 C 482.945 -1.46402 3.98562 0
M  V30 4984 O 483.969 -1.16443 3.36629 0
M  V30 4985 O 482.828 -2.02214 5.07712 0
M  V30 4986 H 479.922 -0.338747 0.75444 0
M  V30 4987 H 482.468 0.0542506 1.69613 0
M  V30 4988 H 481.24 -0.207394 3.9075 0
M  V30 4989 H 480.863 -1.87481 3.50623 0
M  V30 4990 N 481.861 -1.55662 -0.24637 0
M  V30 4991 C 483.277 -1.48098 -0.594907 0
M  V30 4992 C 483.477 -0.717044 -1.8831 0
M  V30 4993 O 482.533 -0.246618 -2.51293 0
M  V30 4994 C 483.846 -2.92507 -0.697146 0
M  V30 4995 C 485.394 -3.02881 -0.789436 0
M  V30 4996 C 485.869 -4.48598 -0.923232 0
M  V30 4997 N 487.36 -4.52538 -0.988088 0
M  V30 4998 C 488.095 -5.62536 -1.11089 0
M  V30 4999 N 487.591 -6.82342 -1.19919 0
M  V30 5000 N 489.384 -5.50334 -1.14408 0
M  V30 5001 H 481.535 -2.0377 0.599278 0
M  V30 5002 H 483.798 -0.925145 0.20691 0
M  V30 5003 H 483.504 -3.51242 0.179396 0
M  V30 5004 H 483.378 -3.43024 -1.5689 0
M  V30 5005 H 485.765 -2.44226 -1.65643 0
M  V30 5006 H 485.846 -2.55574 0.107482 0
M  V30 5007 H 485.49 -5.07864 -0.0607927 0
M  V30 5008 H 485.42 -4.93587 -1.8352 0
M  V30 5009 H 487.911 -3.66248 -0.931167 0
M  V30 5010 H 488.224 -7.61924 -1.29197 0
M  V30 5011 H 486.569 -6.85102 -1.16876 0
M  V30 5012 H 489.76 -4.5567 -1.07158 0
M  V30 5013 H 489.933 -6.36096 -1.23634 0
M  V30 5014 N 483.339 0.512053 -1.4905 0
M  V30 5015 C 484.569 1.28928 -1.61434 0
M  V30 5016 C 484.977 1.87107 -0.280647 0
M  V30 5017 O 484.32 1.68024 0.742537 0
M  V30 5018 C 484.382 2.466 -2.61588 0
M  V30 5019 C 484.046 2.09375 -4.06216 0
M  V30 5020 C 485.043 1.63994 -4.93358 0
M  V30 5021 C 482.728 2.19348 -4.51876 0
M  V30 5022 C 484.722 1.29076 -6.24194 0
M  V30 5023 C 482.409 1.84041 -5.82728 0
M  V30 5024 C 483.407 1.38978 -6.68711 0
M  V30 5025 O 483.095 1.04144 -7.97126 0
M  V30 5026 H 482.827 0.397668 -0.546659 0
M  V30 5027 H 485.381 0.622507 -1.9574 0
M  V30 5028 H 483.611 3.16318 -2.22441 0
M  V30 5029 H 485.3 3.08642 -2.63619 0
M  V30 5030 H 486.066 1.55744 -4.59313 0
M  V30 5031 H 481.945 2.53376 -3.85125 0
M  V30 5032 H 485.489 0.938303 -6.91261 0
M  V30 5033 H 481.386 1.91938 -6.16304 0
M  V30 5034 H 482.154 1.17387 -8.10039 0
M  V30 5035 N 484.817 1.37938 0.762283 0
M  V30 5036 C 486.233 1.18945 1.06415 0
M  V30 5037 C 486.433 0.0321163 2.01474 0
M  V30 5038 O 485.489 -0.624844 2.44647 0
M  V30 5039 C 486.802 2.51218 1.65258 0
M  V30 5040 C 488.35 2.57824 1.7747 0
M  V30 5041 C 488.825 3.90251 2.39725 0
M  V30 5042 N 490.316 3.91744 2.47166 0
M  V30 5043 C 491.051 4.90966 2.96209 0
M  V30 5044 N 490.547 6.00585 3.45354 0
M  V30 5045 N 492.34 4.78363 2.9517 0
M  V30 5046 H 484.491 2.11994 0.131301 0
M  V30 5047 H 486.754 0.940262 0.120879 0
M  V30 5048 H 486.46 3.36317 1.02878 0
M  V30 5049 H 486.334 2.68989 2.64433 0
M  V30 5050 H 488.721 1.73126 2.3898 0
M  V30 5051 H 488.802 2.43928 0.770241 0
M  V30 5052 H 488.446 4.75368 1.78852 0
M  V30 5053 H 488.376 4.01454 3.40796 0
M  V30 5054 H 490.867 3.12563 2.12397 0
M  V30 5055 H 491.18 6.72236 3.81207 0
M  V30 5056 H 489.525 6.04217 3.43434 0
M  V30 5057 H 492.716 3.91841 2.56082 0
M  V30 5058 H 492.889 5.55843 3.33081 0
M  V30 5059 N 486.295 -0.989507 1.22664 0
M  V30 5060 C 487.225 -2.09847 1.02404 0
M  V30 5061 C 488.206 -1.70007 -0.0561303 0
M  V30 5062 O 489.391 -1.93906 0.106748 0
M  V30 5063 C 486.521 -3.41996 0.604663 0
M  V30 5064 C 485.475 -3.95699 1.63115 0
M  V30 5065 C 484.801 -5.23936 1.0675 0
M  V30 5066 C 486.101 -4.25999 3.02196 0
M  V30 5067 H 487.795 -2.27054 1.95158 0
M  V30 5068 H 485.341 -1.09111 0.939727 0
M  V30 5069 H 487.294 -4.1899 0.45002 0
M  V30 5070 H 486.018 -3.24626 -0.35855 0
M  V30 5071 H 484.677 -3.2084 1.77362 0
M  V30 5072 H 484.325 -5.02909 0.0955422 0
M  V30 5073 H 484.025 -5.60833 1.75328 0
M  V30 5074 H 485.549 -6.0356 0.924516 0
M  V30 5075 H 486.963 -4.93777 2.91303 0
M  V30 5076 H 485.36 -4.74076 3.67929 0
M  V30 5077 H 486.43 -3.33636 3.51873 0
M  V30 5078 N 487.773 -1.03688 -1.18687 0
M  V30 5079 C 488.72 -0.624624 -2.22187 0
M  V30 5080 C 489.69 0.365636 -1.62026 0
M  V30 5081 O 490.875 0.260481 -1.89014 0
M  V30 5082 C 488.015 0.0101738 -3.45099 0
M  V30 5083 C 487.128 -1.02709 -4.19613 0
M  V30 5084 C 486.263 -0.361213 -5.2997 0
M  V30 5085 C 485.302 -1.38384 -5.96252 0
M  V30 5086 N 484.439 -0.743196 -6.98155 0
M  V30 5087 H 489.279 -1.51176 -2.56807 0
M  V30 5088 H 486.816 -0.75636 -1.26165 0
M  V30 5089 H 488.774 0.395528 -4.15321 0
M  V30 5090 H 487.404 0.860848 -3.1111 0
M  V30 5091 H 486.456 -1.53043 -3.48256 0
M  V30 5092 H 487.768 -1.80398 -4.65036 0
M  V30 5093 H 486.922 0.0785537 -6.06649 0
M  V30 5094 H 485.661 0.447799 -4.8564 0
M  V30 5095 H 484.666 -1.83378 -5.18317 0
M  V30 5096 H 485.891 -2.19448 -6.42666 0
M  V30 5097 H 483.837 0.0455789 -6.55984 0
M  V30 5098 H 483.754 -1.45784 -7.41811 0
M  V30 5099 H 485.022 -0.327698 -7.78811 0
M  V30 5100 N 489.251 1.34841 -0.815825 0
M  V30 5101 C 490.199 2.31549 -0.220888 0
M  V30 5102 C 491.193 1.5707 0.634457 0
M  V30 5103 O 492.399 1.72125 0.526589 0
M  V30 5104 H 488.774 0.750153 -0.0526782 0
M  V30 5105 H 490.745 2.7926 -1.05149 0
M  V30 5106 C 489.494 3.42335 0.608427 0
M  V30 5107 H 488.817 3.9978 -0.0404121 0
M  V30 5108 H 490.257 4.12258 0.990931 0
M  V30 5109 C 488.716 2.86173 1.77782 0
M  V30 5110 O 489.246 2.80474 2.87571 0
M  V30 5111 N 487.452 2.43093 1.59229 0
M  V30 5112 H 486.999 2.47928 0.699237 0
M  V30 5113 H 486.957 2.05866 2.37627 0
M  V30 5114 N 490.729 0.570148 1.46925 0
M  V30 5115 C 491.977 0.0508523 2.02036 0
M  V30 5116 C 492.298 -1.30885 1.44548 0
M  V30 5117 O 491.568 -1.85647 0.625453 0
M  V30 5118 H 490.148 0.0158088 0.746833 0
M  V30 5119 H 492.81 0.743086 1.80178 0
M  V30 5120 H 491.906 -0.027575 3.12088 0
M  V30 5121 N 492.207 -1.54576 0.307264 0
M  V30 5122 C 493.623 -1.59534 -0.0459251 0
M  V30 5123 C 493.823 -1.32414 -1.51884 0
M  V30 5124 O 492.879 -1.1006 -2.27251 0
M  V30 5125 C 494.192 -2.98566 0.357649 0
M  V30 5126 C 495.74 -3.11491 0.306937 0
M  V30 5127 C 496.215 -4.52842 0.685427 0
M  V30 5128 N 497.706 -4.58782 0.638203 0
M  V30 5129 C 498.441 -5.66238 0.903458 0
M  V30 5130 N 497.937 -6.81703 1.23501 0
M  V30 5131 N 499.73 -5.55937 0.830102 0
M  V30 5132 H 491.881 -1.70464 1.26712 0
M  V30 5133 H 494.144 -0.79647 0.514139 0
M  V30 5134 H 493.85 -3.23356 1.38325 0
M  V30 5135 H 493.724 -3.76117 -0.285565 0
M  V30 5136 H 496.111 -2.86446 -0.709424 0
M  V30 5137 H 496.192 -2.36081 0.984861 0
M  V30 5138 H 495.836 -4.78618 1.69963 0
M  V30 5139 H 495.766 -5.26598 -0.0146346 0
M  V30 5140 H 498.257 -3.75849 0.393138 0
M  V30 5141 H 498.57 -7.59582 1.42322 0
M  V30 5142 H 496.915 -6.8324 1.27311 0
M  V30 5143 H 500.106 -4.64608 0.570693 0
M  V30 5144 H 500.279 -6.39597 1.04019 0
M  V30 5145 N 493.685 -0.035106 -1.57561 0
M  V30 5146 C 495.101 0.321334 -1.56332 0
M  V30 5147 C 495.301 1.72509 -1.04129 0
M  V30 5148 O 494.357 2.4287 -0.690694 0
M  V30 5149 C 495.67 0.164469 -3.0025 0
M  V30 5150 C 497.218 0.236786 -3.12103 0
M  V30 5151 C 497.693 0.10864 -4.57871 0
M  V30 5152 N 499.184 0.165433 -4.62904 0
M  V30 5153 C 499.919 0.0901506 -5.73329 0
M  V30 5154 N 499.415 -0.0365606 -6.9279 0
M  V30 5155 N 501.208 0.144572 -5.61914 0
M  V30 5156 H 493.359 -0.952976 -1.89821 0
M  V30 5157 H 495.622 -0.368537 -0.873432 0
M  V30 5158 H 495.328 -0.802746 -3.42416 0
M  V30 5159 H 495.202 0.932194 -3.655 0
M  V30 5160 H 497.589 1.19446 -2.69845 0
M  V30 5161 H 497.67 -0.561419 -2.49563 0
M  V30 5162 H 497.314 -0.845644 -5.00811 0
M  V30 5163 H 497.244 0.925786 -5.18398 0
M  V30 5164 H 499.735 0.263269 -3.76982 0
M  V30 5165 H 500.048 -0.0871487 -7.72751 0
M  V30 5166 H 498.393 -0.0714256 -6.94963 0
M  V30 5167 H 501.584 0.242006 -4.67474 0
M  V30 5168 H 501.757 0.0824413 -6.47948 0
M  V30 5169 N 495.163 1.55791 0.238111 0
M  V30 5170 C 496.412 1.77234 0.962868 0
M  V30 5171 C 496.725 0.600661 1.86149 0
M  V30 5172 O 497.931 0.698315 2.62366 0
M  V30 5173 C 496.387 3.13808 1.76218 0
M  V30 5174 C 495.995 4.3865 0.910518 0
M  V30 5175 C 497.739 3.44585 2.47914 0
M  V30 5176 C 495.646 5.66252 1.70623 0
M  V30 5177 H 494.576 0.660731 0.36325 0
M  V30 5178 H 497.227 1.8221 0.217242 0
M  V30 5179 H 495.609 3.02963 2.55009 0
M  V30 5180 H 496.783 4.60507 0.164316 0
M  V30 5181 H 495.098 4.15271 0.30647 0
M  V30 5182 H 497.695 4.3714 3.07917 0
M  V30 5183 H 498.038 2.66314 3.19973 0
M  V30 5184 H 498.571 3.56685 1.76127 0
M  V30 5185 H 495.31 6.47369 1.02923 0
M  V30 5186 H 494.83 5.48483 2.42748 0
M  V30 5187 H 496.509 6.05829 2.27114 0
M  V30 5188 N 496.642 -0.504142 1.49319 0
M  V30 5189 C 497.891 -1.25507 1.57895 0
M  V30 5190 C 498.204 -1.93735 0.269433 0
M  V30 5191 O 499.41 -2.70492 0.233706 0
M  V30 5192 C 497.866 -2.27869 2.78574 0
M  V30 5193 C 497.474 -1.65594 4.16272 0
M  V30 5194 C 499.218 -3.0381 2.96479 0
M  V30 5195 C 497.125 -2.66048 5.28178 0
M  V30 5196 H 496.055 -0.47212 0.587894 0
M  V30 5197 H 498.706 -0.52931 1.757 0
M  V30 5198 H 497.088 -3.03594 2.54257 0
M  V30 5199 H 498.262 -0.958826 4.50714 0
M  V30 5200 H 496.577 -1.02055 4.037 0
M  V30 5201 H 499.174 -3.78925 3.77253 0
M  V30 5202 H 499.517 -3.61235 2.06918 0
M  V30 5203 H 500.05 -2.352 3.20821 0
M  V30 5204 H 496.789 -2.13408 6.19788 0
M  V30 5205 H 496.309 -3.34009 4.98195 0
M  V30 5206 H 497.988 -3.28536 5.57381 0
M  V30 5207 N 498.12 -1.38341 -0.754957 0
M  V30 5208 C 499.05 -1.38176 -1.88227 0
M  V30 5209 C 500.031 -0.247873 -1.68284 0
M  V30 5210 O 501.216 -0.45075 -1.88896 0
M  V30 5211 C 498.346 -1.20471 -3.25736 0
M  V30 5212 C 497.3 -2.3105 -3.60278 0
M  V30 5213 C 496.626 -1.98452 -4.96509 0
M  V30 5214 C 497.926 -3.73305 -3.65295 0
M  V30 5215 H 499.62 -2.32512 -1.88622 0
M  V30 5216 H 497.166 -1.1192 -0.906082 0
M  V30 5217 H 499.119 -1.18982 -4.04254 0
M  V30 5218 H 497.843 -0.225965 -3.25817 0
M  V30 5219 H 496.502 -2.31723 -2.84078 0
M  V30 5220 H 496.15 -0.990641 -4.93148 0
M  V30 5221 H 495.85 -2.7251 -5.20588 0
M  V30 5222 H 497.374 -1.98578 -5.77407 0
M  V30 5223 H 498.788 -3.7467 -4.3393 0
M  V30 5224 H 497.185 -4.46557 -4.00883 0
M  V30 5225 H 498.255 -4.05719 -2.65556 0
M  V30 5226 N 499.598 0.982988 -1.23187 0
M  V30 5227 C 500.528 2.09301 -1.03515 0
M  V30 5228 C 501.509 1.70035 0.0471136 0
M  V30 5229 O 502.694 1.93847 -0.117029 0
M  V30 5230 C 499.824 3.4167 -0.622791 0
M  V30 5231 C 498.778 3.94828 -1.65211 0
M  V30 5232 C 498.104 5.23362 -1.09527 0
M  V30 5233 C 499.404 4.2439 -3.04451 0
M  V30 5234 H 501.098 2.26016 -1.96359 0
M  V30 5235 H 498.644 1.08611 -0.945501 0
M  V30 5236 H 500.597 4.18746 -0.472233 0
M  V30 5237 H 499.321 3.24811 0.341329 0
M  V30 5238 H 497.98 3.19895 -1.79061 0
M  V30 5239 H 497.628 5.02852 -0.122211 0
M  V30 5240 H 497.328 5.59895 -1.783 0
M  V30 5241 H 498.852 6.03062 -0.956511 0
M  V30 5242 H 500.266 4.92225 -2.93917 0
M  V30 5243 H 498.663 4.72118 -3.70438 0
M  V30 5244 H 499.733 3.31765 -3.53638 0
M  V30 5245 N 501.076 1.04316 1.18135 0
M  V30 5246 C 502.039 0.640794 2.2006 0
M  V30 5247 C 503.039 -0.303124 1.57917 0
M  V30 5248 O 504.229 -0.0881855 1.73977 0
M  V30 5249 C 501.361 -0.060148 3.40847 0
M  V30 5250 H 502.554 1.54281 2.57172 0
M  V30 5251 H 500.107 0.836004 1.32063 0
M  V30 5252 H 500.842 -0.975845 3.0927 0
M  V30 5253 H 500.627 0.618319 3.87194 0
M  V30 5254 H 502.117 -0.328082 4.16309 0
M  V30 5255 N 502.554 -1.34406 0.822964 0
M  V30 5256 C 503.464 -2.33298 0.246838 0
M  V30 5257 C 504.48 -1.62625 -0.618797 0
M  V30 5258 O 505.656 -1.94391 -0.526685 0
M  V30 5259 C 502.721 -3.41785 -0.581731 0
M  V30 5260 C 501.782 -4.28206 0.306309 0
M  V30 5261 C 501.015 -5.31512 -0.48281 0
M  V30 5262 O 501.238 -5.43973 -1.71607 0
M  V30 5263 O 500.172 -6.01749 0.134884 0
M  V30 5264 H 503.998 -2.84401 1.06534 0
M  V30 5265 H 501.583 -1.37466 0.585108 0
M  V30 5266 H 503.465 -4.08028 -1.05313 0
M  V30 5267 H 502.14 -2.92925 -1.37756 0
M  V30 5268 H 501.047 -3.64885 0.825199 0
M  V30 5269 H 502.38 -4.80507 1.06649 0
M  V30 5270 N 504.032 -0.577932 -1.46621 0
M  V30 5271 C 505.28 -0.061566 -2.02006 0
M  V30 5272 C 505.601 1.30117 -1.4524 0
M  V30 5273 O 504.871 1.85313 -0.63529 0
M  V30 5274 H 503.451 -0.0197692 -0.746738 0
M  V30 5275 H 506.113 -0.752631 -1.79782 0
M  V30 5276 H 505.209 0.0110238 -3.12098 0
M  V30 5277 N 505.51 1.54411 -0.315457 0
M  V30 5278 C 506.926 1.59556 0.037464 0
M  V30 5279 C 507.126 1.33217 1.5118 0
M  V30 5280 O 506.182 1.11264 2.26664 0
M  V30 5281 C 507.495 2.98372 -0.373477 0
M  V30 5282 C 509.043 3.11324 -0.323452 0
M  V30 5283 C 509.518 4.52472 -0.709433 0
M  V30 5284 N 511.009 4.58437 -0.662524 0
M  V30 5285 C 511.744 5.65751 -0.933474 0
M  V30 5286 N 511.24 6.81039 -1.27114 0
M  V30 5287 N 513.033 5.55489 -0.859573 0
M  V30 5288 H 505.184 1.6979 -1.27614 0
M  V30 5289 H 507.447 0.793732 -0.518356 0
M  V30 5290 H 507.153 3.22618 -1.40037 0
M  V30 5291 H 507.027 3.76264 0.265615 0
M  V30 5292 H 509.414 2.86818 0.694223 0
M  V30 5293 H 509.495 2.35555 -0.997367 0
M  V30 5294 H 509.139 4.7771 -1.72498 0
M  V30 5295 H 509.069 5.26598 -0.0132923 0
M  V30 5296 H 511.56 3.75636 -0.413065 0
M  V30 5297 H 511.873 7.58816 -1.46348 0
M  V30 5298 H 510.218 6.82555 -1.30932 0
M  V30 5299 H 513.409 4.64299 -0.595324 0
M  V30 5300 H 513.582 6.39036 -1.0741 0
M  V30 5301 N 506.988 0.0434614 1.5754 0
M  V30 5302 C 507.918 -0.931651 2.14109 0
M  V30 5303 C 508.899 -1.32971 1.06079 0
M  V30 5304 O 510.084 -1.40579 1.33982 0
M  V30 5305 C 507.214 -2.20914 2.67982 0
M  V30 5306 C 506.168 -1.95139 3.80926 0
M  V30 5307 C 505.494 -3.29276 4.21285 0
M  V30 5308 C 506.794 -1.27913 5.06395 0
M  V30 5309 H 508.488 -0.460497 2.95837 0
M  V30 5310 H 506.034 -0.220058 1.42309 0
M  V30 5311 H 507.987 -2.89522 3.06194 0
M  V30 5312 H 506.711 -2.70221 1.83434 0
M  V30 5313 H 505.37 -1.28945 3.43175 0
M  V30 5314 H 505.018 -3.76369 3.33699 0
M  V30 5315 H 504.718 -3.12831 4.97404 0
M  V30 5316 H 506.242 -3.99129 4.62091 0
M  V30 5317 H 507.656 -1.86544 5.42102 0
M  V30 5318 H 506.053 -1.2182 5.87605 0
M  V30 5319 H 507.123 -0.254066 4.84234 0
M  V30 5320 N 508.466 -1.55915 -0.229846 0
M  V30 5321 C 509.712 -1.78807 -0.956868 0
M  V30 5322 C 510.045 -0.611687 -1.84315 0
M  V30 5323 O 509.32 0.389398 -1.90562 0
M  V30 5324 C 509.603 -3.11718 -1.80288 0
M  V30 5325 C 509.456 -4.3979 -0.943649 0
M  V30 5326 C 510.775 -3.40999 -2.78222 0
M  V30 5327 H 507.894 -0.6505 -0.346437 0
M  V30 5328 H 510.536 -1.88648 -0.226252 0
M  V30 5329 H 508.686 -3.03459 -2.42579 0
M  V30 5330 H 510.358 -4.60059 -0.338121 0
M  V30 5331 H 508.601 -4.33086 -0.248705 0
M  V30 5332 H 509.272 -5.29208 -1.5698 0
M  V30 5333 H 511.748 -3.49332 -2.26067 0
M  V30 5334 H 510.624 -4.35183 -3.34526 0
M  V30 5335 H 510.885 -2.62754 -3.55546 0
M  V30 5336 N 509.944 0.496216 -1.49584 0
M  V30 5337 C 510.892 1.61805 -1.67098 0
M  V30 5338 C 511.886 1.60667 -0.536877 0
M  V30 5339 O 513.092 1.65118 -0.716654 0
M  V30 5340 H 509.467 0.53646 -0.526986 0
M  V30 5341 H 511.438 1.44187 -2.61252 0
M  V30 5342 C 510.187 2.99912 -1.75921 0
M  V30 5343 H 509.51 3.01496 -2.62565 0
M  V30 5344 H 510.95 3.77931 -1.92209 0
M  V30 5345 C 509.409 3.33092 -0.505088 0
M  V30 5346 O 509.939 4.00019 0.367085 0
M  V30 5347 N 508.145 2.88278 -0.366599 0
M  V30 5348 H 507.692 2.33989 -1.07735 0
M  V30 5349 H 507.65 3.10846 0.47142 0
M  V30 5350 N 511.423 1.38739 0.74761 0
M  V30 5351 C 512.353 1.39173 1.87492 0
M  V30 5352 C 513.334 0.256794 1.6815 0
M  V30 5353 O 514.519 0.460762 1.88655 0
M  V30 5354 C 511.649 1.22197 3.25093 0
M  V30 5355 C 510.603 2.32957 3.59047 0
M  V30 5356 C 509.929 2.01082 4.95449 0
M  V30 5357 C 511.229 3.75237 3.6331 0
M  V30 5358 H 512.923 2.3351 1.87386 0
M  V30 5359 H 510.469 1.12399 0.900134 0
M  V30 5360 H 512.422 1.21124 4.03617 0
M  V30 5361 H 511.146 0.243241 3.25693 0
M  V30 5362 H 509.805 2.33226 2.82845 0
M  V30 5363 H 509.453 1.01678 4.92616 0
M  V30 5364 H 509.153 2.75267 5.19136 0
M  V30 5365 H 510.677 2.01638 5.76346 0
M  V30 5366 H 512.091 3.76966 4.31937 0
M  V30 5367 H 510.488 4.48677 3.98509 0
M  V30 5368 H 511.558 4.07122 2.634 0
M  V30 5369 N 512.901 -0.976442 1.23707 0
M  V30 5370 C 514.149 -1.71487 1.06942 0
M  V30 5371 C 514.47 -1.9098 -0.393897 0
M  V30 5372 O 513.74 -1.48128 -1.28198 0
M  V30 5373 H 512.32 -0.635425 0.392739 0
M  V30 5374 H 514.982 -1.17515 1.55487 0
M  V30 5375 H 514.078 -2.70286 1.56051 0
M  V30 5376 N 514.379 -1.04941 -1.1758 0
M  V30 5377 C 515.619 -0.766996 -1.89464 0
M  V30 5378 C 515.983 0.693123 -1.79053 0
M  V30 5379 O 517.184 1.08953 -2.45729 0
M  V30 5380 C 515.455 -1.23108 -3.35528 0
M  V30 5381 S 517.014 -1.07565 -4.25412 0
M  V30 5382 H 513.832 -0.278616 -0.654136 0
M  V30 5383 H 516.434 -1.34352 -1.4202 0
M  V30 5384 H 515.138 -2.28896 -3.40639 0
M  V30 5385 H 514.669 -0.648724 -3.88014 0
M  V30 5386 H 516.684 0.00169467 -4.962 0
M  V30 5387 N 515.857 1.33968 -0.830081 0
M  V30 5388 C 516.82 2.27694 -0.26235 0
M  V30 5389 C 517.82 1.50589 0.563876 0
M  V30 5390 O 519.01 1.70028 0.378941 0
M  V30 5391 C 516.142 3.35002 0.63138 0
M  V30 5392 H 517.335 2.79419 -1.08928 0
M  V30 5393 H 514.888 1.44221 -0.602486 0
M  V30 5394 H 515.623 2.88504 1.48109 0
M  V30 5395 H 515.408 3.92079 0.0403276 0
M  V30 5396 H 516.898 4.04897 1.02217 0
M  V30 5397 N 517.335 0.585699 1.46312 0
M  V30 5398 C 518.268 -0.194257 2.27372 0
M  V30 5399 C 519.246 -0.894116 1.3581 0
M  V30 5400 O 520.43 -0.907402 1.65222 0
M  V30 5401 C 517.557 -1.27901 3.13622 0
M  V30 5402 C 516.603 -0.684666 4.20969 0
M  V30 5403 S 517.436 0.490745 5.33247 0
M  V30 5404 C 518.592 -0.595137 6.23064 0
M  V30 5405 H 518.825 0.493515 2.93175 0
M  V30 5406 H 516.358 0.372666 1.49835 0
M  V30 5407 H 518.316 -1.90008 3.63878 0
M  V30 5408 H 516.977 -1.93875 2.47126 0
M  V30 5409 H 516.17 -1.50015 4.81156 0
M  V30 5410 H 515.772 -0.139204 3.73741 0
M  V30 5411 H 518.064 -1.48002 6.61137 0
M  V30 5412 H 519.007 -0.0299446 7.08094 0
M  V30 5413 H 519.415 -0.900627 5.57269 0
M  V30 5414 N 518.813 -1.54241 0.323641 0
M  V30 5415 C 520.061 -2.00174 -0.278359 0
M  V30 5416 C 520.382 -1.2134 -1.52648 0
M  V30 5417 O 519.652 -0.315244 -1.93347 0
M  V30 5418 H 518.232 -0.739463 -0.105845 0
M  V30 5419 H 520.894 -1.89864 0.440204 0
M  V30 5420 H 519.99 -3.07486 -0.5347 0
M  V30 5421 N 520.291 -0.0518155 -1.57515 0
M  V30 5422 C 521.241 0.932017 -2.0808 0
M  V30 5423 C 522.225 1.27141 -0.986098 0
M  V30 5424 O 523.417 1.25373 -1.24943 0
M  V30 5425 C 520.546 2.20665 -2.62986 0
M  V30 5426 C 519.632 1.89462 -3.79427 0
M  V30 5427 N 520.023 1.28621 -4.89173 0
M  V30 5428 C 518.321 2.19327 -3.88345 0
M  V30 5429 C 519.022 1.15062 -5.70207 0
M  V30 5430 N 517.998 1.65372 -5.17835 0
M  V30 5431 H 521.8 0.456964 -2.90326 0
M  V30 5432 H 519.314 0.152619 -1.61681 0
M  V30 5433 H 521.311 2.92044 -2.97516 0
M  V30 5434 H 519.971 2.68776 -1.8218 0
M  V30 5435 H 520.982 0.958341 -5.08956 0
M  V30 5436 H 517.659 2.69955 -3.18482 0
M  V30 5437 H 519.049 0.678243 -6.68468 0
M  V30 5438 N 521.769 1.56035 0.221574 0
M  V30 5439 C 523.18 1.69229 0.788567 0
M  V30 5440 C 523.531 0.653814 1.84986 0
M  V30 5441 O 522.656 -0.195065 2.15519 0
M  V30 5442 C 523.251 3.06809 1.43713 0
M  V30 5443 C 521.81 3.21858 1.95152 0
M  V30 5444 C 520.957 2.65155 0.811685 0
M  V30 5445 H 523.908 1.587 -0.00307894 0
M  V30 5446 H 523.929 3.02666 2.30594 0
M  V30 5447 H 523.441 3.82369 0.664475 0
M  V30 5448 H 521.542 2.51167 2.7522 0
M  V30 5449 H 521.655 4.29073 2.1315 0
M  V30 5450 H 520.019 2.23635 1.21899 0
M  V30 5451 H 520.802 3.43261 0.0516987 0
M  V30 5452 N 523.247 -0.488276 1.49845 0
M  V30 5453 C 524.472 -1.26997 1.63971 0
M  V30 5454 C 524.897 -1.85427 0.315994 0
M  V30 5455 O 524.255 -1.66475 -0.718032 0
M  V30 5456 C 524.303 -2.36689 2.72049 0
M  V30 5457 O 523.407 -3.40882 2.32107 0
M  V30 5458 H 522.748 -0.374376 0.548396 0
M  V30 5459 H 525.278 -0.583104 1.96115 0
M  V30 5460 H 525.288 -2.82262 2.94605 0
M  V30 5461 H 523.963 -1.93529 3.68129 0
M  V30 5462 H 522.54 -3.01139 2.19931 0
M  V30 5463 N 524.725 -1.39134 -0.740242 0
M  V30 5464 C 525.972 -1.36071 -1.49969 0
M  V30 5465 C 526.3 0.0450245 -1.94448 0
M  V30 5466 O 525.555 1.02482 -1.66721 0
M  V30 5467 C 525.854 -2.27457 -2.75678 0
M  V30 5468 C 525.52 -3.75185 -2.50094 0
M  V30 5469 C 524.182 -4.15439 -2.42825 0
M  V30 5470 C 526.534 -4.68643 -2.28086 0
M  V30 5471 C 523.862 -5.4722 -2.11584 0
M  V30 5472 C 526.214 -6.00695 -1.98363 0
M  V30 5473 C 524.878 -6.40018 -1.8956 0
M  V30 5474 H 524.148 -0.497921 -0.548777 0
M  V30 5475 H 526.795 -1.71599 -0.85007 0
M  V30 5476 H 525.1 -1.8503 -3.45356 0
M  V30 5477 H 526.797 -2.22384 -3.33686 0
M  V30 5478 H 523.387 -3.43279 -2.56627 0
M  V30 5479 H 527.571 -4.3838 -2.32672 0
M  V30 5480 H 522.827 -5.76615 -2.03287 0
M  V30 5481 H 527.001 -6.72644 -1.80341 0
M  V30 5482 H 524.628 -7.42051 -1.65117 0
M  V30 5483 N 526.204 0.969867 -1.24223 0
M  V30 5484 C 527.45 1.7151 -1.08223 0
M  V30 5485 C 527.783 1.90478 0.37838 0
M  V30 5486 O 527.058 1.4647 1.27971 0
M  V30 5487 C 527.341 3.10714 -1.82013 0
M  V30 5488 C 527.194 2.9925 -3.35811 0
M  V30 5489 C 528.513 4.10332 -1.59108 0
M  V30 5490 H 525.632 0.622499 -0.394543 0
M  V30 5491 H 528.274 1.1284 -1.52863 0
M  V30 5492 H 526.424 3.608 -1.44068 0
M  V30 5493 H 528.096 2.56608 -3.83341 0
M  V30 5494 H 526.339 2.35512 -3.64303 0
M  V30 5495 H 527.01 3.97857 -3.82641 0
M  V30 5496 H 529.486 3.69097 -1.92111 0
M  V30 5497 H 528.362 5.05804 -2.13198 0
M  V30 5498 H 528.623 4.38926 -0.528832 0
M  V30 5499 N 527.682 1.05563 1.17022 0
M  V30 5500 C 528.615 0.604197 2.20056 0
M  V30 5501 C 529.593 -0.369169 1.58354 0
M  V30 5502 O 530.777 -0.279898 1.8641 0
M  V30 5503 C 527.904 -0.115265 3.38504 0
M  V30 5504 C 526.95 0.813698 4.18666 0
M  V30 5505 S 527.783 2.30492 4.83357 0
M  V30 5506 C 528.939 1.59674 6.0519 0
M  V30 5507 H 529.172 1.47713 2.58008 0
M  V30 5508 H 526.705 0.867932 1.27696 0
M  V30 5509 H 528.663 -0.524162 4.0714 0
M  V30 5510 H 527.324 -0.964284 2.98932 0
M  V30 5511 H 526.517 0.256736 5.03346 0
M  V30 5512 H 526.119 1.16213 3.55486 0
M  V30 5513 H 528.411 0.898164 6.7152 0
M  V30 5514 H 529.354 2.42115 6.65422 0
M  V30 5515 H 529.762 1.08252 5.54023 0
M  V30 5516 N 529.16 -1.33526 0.837174 0
M  V30 5517 C 530.385 -2.0258 0.444545 0
M  V30 5518 C 530.81 -1.6258 -0.946006 0
M  V30 5519 O 530.168 -0.817548 -1.6182 0
M  V30 5520 C 530.216 -3.5605 0.571006 0
M  V30 5521 O 529.32 -4.10422 -0.403431 0
M  V30 5522 H 528.661 -0.638866 0.180958 0
M  V30 5523 H 531.191 -1.70462 1.13154 0
M  V30 5524 H 531.201 -4.05488 0.452024 0
M  V30 5525 H 529.876 -3.84509 1.58512 0
M  V30 5526 H 528.453 -3.72113 -0.242147 0
M  V30 5527 N 530.638 -0.59345 -1.46 0
M  V30 5528 C 531.586 0.146268 -2.3214 0
M  V30 5529 C 532.58 0.873743 -1.45128 0
M  V30 5530 O 533.786 0.790912 -1.61693 0
M  V30 5531 H 530.161 0.0660349 -0.749095 0
M  V30 5532 H 532.132 -0.598895 -2.92328 0
M  V30 5533 C 530.881 1.1396 -3.28494 0
M  V30 5534 H 530.204 0.589252 -3.95434 0
M  V30 5535 H 531.644 1.62738 -3.91526 0
M  V30 5536 C 530.103 2.20604 -2.54628 0
M  V30 5537 O 530.633 3.28128 -2.31722 0
M  V30 5538 N 528.839 1.95502 -2.15005 0
M  V30 5539 H 528.386 1.0807 -2.33834 0
M  V30 5540 H 528.344 2.67064 -1.65904 0
M  V30 5541 N 532.116 1.54067 -0.331816 0
M  V30 5542 C 533.341 2.05599 0.272705 0
M  V30 5543 C 533.766 1.2059 1.44359 0
M  V30 5544 O 533.124 0.216907 1.79998 0
M  V30 5545 C 533.172 3.54188 0.677021 0
M  V30 5546 O 532.276 3.72082 1.77844 0
M  V30 5547 H 531.617 0.662286 0.0476801 0
M  V30 5548 H 534.147 1.98826 -0.482624 0
M  V30 5549 H 534.157 3.96608 0.957415 0
M  V30 5550 H 532.832 4.15513 -0.179325 0
M  V30 5551 H 531.409 3.41566 1.49622 0
M  V30 5552 N 533.594 0.0601682 1.57485 0
M  V30 5553 C 534.841 -0.611594 1.93043 0
M  V30 5554 C 535.169 -1.70317 0.939274 0
M  V30 5555 O 534.424 -1.95644 -0.046996 0
M  V30 5556 C 534.723 -1.23831 3.35262 0
M  V30 5557 C 534.389 -0.274037 4.50066 0
M  V30 5558 C 533.051 -0.00872394 4.81199 0
M  V30 5559 C 535.403 0.386308 5.19766 0
M  V30 5560 C 532.731 0.924218 5.79375 0
M  V30 5561 C 535.083 1.3075 6.1894 0
M  V30 5562 C 533.747 1.58139 6.48497 0
M  V30 5563 H 533.017 -0.223798 0.706396 0
M  V30 5564 H 535.664 0.128566 1.91068 0
M  V30 5565 H 533.969 -2.05394 3.33647 0
M  V30 5566 H 535.666 -1.76517 3.60059 0
M  V30 5567 H 532.256 -0.491008 4.25778 0
M  V30 5568 H 536.44 0.194436 4.95919 0
M  V30 5569 H 531.696 1.1438 6.00606 0
M  V30 5570 H 535.87 1.82519 6.72056 0
M  V30 5571 H 533.497 2.30593 7.24383 0
M  V30 5572 N 535.072 -1.5615 -0.213296 0
M  V30 5573 C 536.3 -1.83638 -0.953139 0
M  V30 5574 C 536.715 -0.640362 -1.77609 0
M  V30 5575 O 536.072 0.391071 -1.78261 0
M  V30 5576 C 536.123 -3.09735 -1.86405 0
M  V30 5577 O 535.844 -4.24723 -1.07435 0
M  V30 5578 C 537.345 -3.5027 -2.71709 0
M  V30 5579 H 534.565 -0.610263 -0.278962 0
M  V30 5580 H 537.109 -2.03247 -0.226035 0
M  V30 5581 H 535.264 -2.92077 -2.545 0
M  V30 5582 H 535.678 -4.9641 -1.69343 0
M  V30 5583 H 537.152 -4.41515 -3.31313 0
M  V30 5584 H 537.629 -2.72406 -3.44516 0
M  V30 5585 H 538.235 -3.70396 -2.09015 0
M  V30 5586 N 536.55 0.480323 -1.50102 0
M  V30 5587 C 537.498 1.60024 -1.68805 0
M  V30 5588 C 538.492 1.60089 -0.553888 0
M  V30 5589 O 539.698 1.64349 -0.734127 0
M  V30 5590 H 536.073 0.530841 -0.532646 0
M  V30 5591 H 538.044 1.41408 -2.62767 0
M  V30 5592 C 536.793 2.98029 -1.79092 0
M  V30 5593 H 536.116 2.98694 -2.65748 0
M  V30 5594 H 537.556 3.75871 -1.96206 0
M  V30 5595 C 536.015 3.32538 -0.540388 0
M  V30 5596 O 536.545 4.00386 0.324637 0
M  V30 5597 N 534.751 2.87873 -0.397154 0
M  V30 5598 H 534.298 2.32834 -1.1021 0
M  V30 5599 H 534.256 3.11328 0.438425 0
M  V30 5600 N 538.028 1.39524 0.732853 0
M  V30 5601 C 538.96 1.34318 1.85718 0
M  V30 5602 C 539.973 0.251576 1.60844 0
M  V30 5603 O 541.162 0.510685 1.71039 0
M  V30 5604 C 538.262 1.06334 3.21786 0
M  V30 5605 C 537.435 2.26813 3.73998 0
M  V30 5606 C 536.494 1.95253 4.88634 0
M  V30 5607 O 535.52 2.67957 5.02183 0
M  V30 5608 N 536.722 0.919984 5.73164 0
M  V30 5609 H 539.487 2.3121 1.90688 0
M  V30 5610 H 537.048 1.33654 0.91368 0
M  V30 5611 H 539.04 0.832363 3.96048 0
M  V30 5612 H 537.61 0.181682 3.12072 0
M  V30 5613 H 536.83 2.65849 2.91064 0
M  V30 5614 H 538.118 3.0717 4.05616 0
M  V30 5615 H 537.516 0.317487 5.64808 0
M  V30 5616 H 536.073 0.748905 6.47483 0
M  V30 5617 N 539.506 -0.963266 1.24736 0
M  V30 5618 C 540.752 -1.70933 1.09131 0
M  V30 5619 C 541.085 -1.90676 -0.368273 0
M  V30 5620 O 540.36 -1.47147 -1.27193 0
M  V30 5621 C 540.643 -3.09744 1.83658 0
M  V30 5622 C 540.496 -2.97465 3.37394 0
M  V30 5623 C 541.815 -4.09483 1.61282 0
M  V30 5624 H 538.934 -0.620398 0.397838 0
M  V30 5625 H 541.576 -1.12028 1.53459 0
M  V30 5626 H 539.726 -3.60031 1.4598 0
M  V30 5627 H 541.398 -2.54571 3.84696 0
M  V30 5628 H 539.641 -2.33576 3.65547 0
M  V30 5629 H 540.312 -3.95822 3.84745 0
M  V30 5630 H 542.788 -3.68073 1.94066 0
M  V30 5631 H 541.664 -5.04666 2.15878 0
M  V30 5632 H 541.925 -4.38639 0.552102 0
M  V30 5633 N 540.985 -1.06182 -1.16461 0
M  V30 5634 C 541.918 -0.615859 -2.19733 0
M  V30 5635 C 542.896 0.360766 -1.58547 0
M  V30 5636 O 544.08 0.270009 -1.86556 0
M  V30 5637 C 541.207 0.097312 -3.3856 0
M  V30 5638 C 540.253 -0.835889 -4.18229 0
M  V30 5639 S 541.086 -2.33052 -4.82128 0
M  V30 5640 C 542.242 -1.62881 -6.04335 0
M  V30 5641 H 542.475 -1.49079 -2.57221 0
M  V30 5642 H 540.008 -0.874692 -1.27234 0
M  V30 5643 H 541.966 0.502563 -4.07412 0
M  V30 5644 H 540.627 0.948418 -2.99439 0
M  V30 5645 H 539.82 -0.283426 -5.03202 0
M  V30 5646 H 539.422 -1.18097 -3.54865 0
M  V30 5647 H 541.714 -0.933764 -6.71034 0
M  V30 5648 H 542.657 -2.45641 -6.64128 0
M  V30 5649 H 543.065 -1.11189 -5.53441 0
M  V30 5650 N 542.463 1.3308 -0.844243 0
M  V30 5651 C 543.426 2.27403 -0.286485 0
M  V30 5652 C 544.426 1.51179 0.547872 0
M  V30 5653 O 545.616 1.70421 0.360886 0
M  V30 5654 C 542.748 3.35653 0.595813 0
M  V30 5655 H 543.941 2.78248 -1.11885 0
M  V30 5656 H 541.494 1.43574 -0.617749 0
M  V30 5657 H 542.229 2.90058 1.4504 0
M  V30 5658 H 542.014 3.921 -0.00125994 0
M  V30 5659 H 543.504 4.05958 0.979168 0
M  V30 5660 N 543.941 0.601185 1.45683 0
M  V30 5661 C 544.873 -0.159446 2.28645 0
M  V30 5662 C 545.886 -0.837882 1.39583 0
M  V30 5663 O 547.075 -0.704344 1.64016 0
M  V30 5664 C 544.175 -1.24641 3.15147 0
M  V30 5665 C 543.348 -0.656334 4.32448 0
M  V30 5666 C 542.407 -1.63337 5.00208 0
M  V30 5667 O 541.433 -1.16217 5.57209 0
M  V30 5668 N 542.635 -2.96773 4.98905 0
M  V30 5669 H 545.4 0.5524 2.94565 0
M  V30 5670 H 542.961 0.440223 1.558 0
M  V30 5671 H 544.953 -1.8997 3.57342 0
M  V30 5672 H 543.523 -1.86087 2.51178 0
M  V30 5673 H 542.743 0.174879 3.93812 0
M  V30 5674 H 544.031 -0.242211 5.08223 0
M  V30 5675 H 543.429 -3.37662 4.53873 0
M  V30 5676 H 541.986 -3.57541 5.44984 0
M  V30 5677 N 545.419 -1.53889 0.339982 0
M  V30 5678 C 546.668 -2.00035 -0.258604 0
M  V30 5679 C 546.981 -1.23179 -1.51942 0
M  V30 5680 O 548.187 -1.59784 -2.19503 0
M  V30 5681 C 546.643 -3.56249 -0.511359 0
M  V30 5682 C 546.251 -4.41957 0.733349 0
M  V30 5683 C 547.995 -4.1082 -1.069 0
M  V30 5684 C 545.902 -5.89673 0.451591 0
M  V30 5685 H 544.832 -0.747284 -0.10041 0
M  V30 5686 H 547.483 -1.77776 0.454758 0
M  V30 5687 H 545.865 -3.7456 -1.28533 0
M  V30 5688 H 547.039 -4.35421 1.50815 0
M  V30 5689 H 545.354 -3.9836 1.21237 0
M  V30 5690 H 547.951 -5.18789 -1.2947 0
M  V30 5691 H 548.294 -3.63817 -2.02343 0
M  V30 5692 H 548.827 -3.96205 -0.355817 0
M  V30 5693 H 545.566 -6.40903 1.37565 0
M  V30 5694 H 545.086 -5.99122 -0.285193 0
M  V30 5695 H 546.765 -6.46965 0.0675067 0
M  V30 5696 N 546.897 -0.0685191 -1.57451 0
M  V30 5697 C 547.807 0.914677 -2.16034 0
M  V30 5698 C 548.823 1.32938 -1.12265 0
M  V30 5699 O 549.999 1.40275 -1.44516 0
M  V30 5700 C 547.064 2.16519 -2.70777 0
M  V30 5701 C 546.125 1.80721 -3.89408 0
M  V30 5702 C 545.358 2.9981 -4.41531 0
M  V30 5703 O 545.581 4.13727 -3.92666 0
M  V30 5704 O 544.515 2.79817 -5.32903 0
M  V30 5705 H 548.341 0.446364 -3.00402 0
M  V30 5706 H 545.926 0.154367 -1.486 0
M  V30 5707 H 547.808 2.89856 -3.05878 0
M  V30 5708 H 546.483 2.62454 -1.89471 0
M  V30 5709 H 545.39 1.04646 -3.59166 0
M  V30 5710 H 546.723 1.39571 -4.71997 0
M  V30 5711 N 548.375 1.56261 0.205012 0
M  V30 5712 C 549.305 1.96779 1.257 0
M  V30 5713 C 550.286 0.838309 1.48008 0
M  V30 5714 O 551.471 1.10189 1.59913 0
M  V30 5715 C 548.601 2.29876 2.60335 0
M  V30 5716 C 547.555 3.45469 2.52656 0
M  V30 5717 C 546.881 3.64215 3.91473 0
M  V30 5718 C 548.181 4.79954 2.06014 0
M  V30 5719 H 549.875 2.84904 0.920338 0
M  V30 5720 H 547.421 1.37072 0.441277 0
M  V30 5721 H 549.374 2.56814 3.34102 0
M  V30 5722 H 548.098 1.38622 2.95722 0
M  V30 5723 H 546.757 3.18605 1.81345 0
M  V30 5724 H 546.405 2.70309 4.24196 0
M  V30 5725 H 546.105 4.41973 3.87213 0
M  V30 5726 H 547.629 3.93519 4.66878 0
M  V30 5727 H 549.043 5.05989 2.69533 0
M  V30 5728 H 547.44 5.61111 2.12777 0
M  V30 5729 H 548.51 4.74201 1.01297 0
M  V30 5730 N 549.853 -0.472356 1.50355 0
M  V30 5731 C 551.099 -1.22348 1.62488 0
M  V30 5732 C 551.454 -1.89711 0.320574 0
M  V30 5733 O 550.747 -1.79074 -0.68141 0
M  V30 5734 C 550.941 -2.29257 2.74182 0
M  V30 5735 C 550.77 -1.72383 4.15348 0
M  V30 5736 C 549.54 -1.52411 4.81766 0
M  V30 5737 C 551.738 -1.21949 4.99633 0
M  V30 5738 N 549.72 -0.907669 6.07153 0
M  V30 5739 C 551.091 -0.726191 6.15732 0
M  V30 5740 C 553.146 -1.10792 4.85417 0
M  V30 5741 C 551.849 -0.132322 7.19178 0
M  V30 5742 C 553.875 -0.52799 5.89038 0
M  V30 5743 C 553.237 -0.0450604 7.04386 0
M  V30 5744 H 549.336 -0.436631 0.648751 0
M  V30 5745 H 551.92 -0.525698 1.87469 0
M  V30 5746 H 550.091 -2.96464 2.50926 0
M  V30 5747 H 551.823 -2.9628 2.75681 0
M  V30 5748 H 548.578 -1.776 4.39039 0
M  V30 5749 H 549.002 -0.617897 6.74174 0
M  V30 5750 H 553.644 -1.46722 3.96525 0
M  V30 5751 H 551.362 0.239187 8.07746 0
M  V30 5752 H 554.948 -0.444046 5.80103 0
M  V30 5753 H 553.828 0.396659 7.83196 0
M  V30 5754 N 551.331 -1.39911 -0.725443 0
M  V30 5755 C 552.559 -1.40949 -1.51463 0
M  V30 5756 C 552.974 -0.0065242 -1.88799 0
M  V30 5757 O 552.331 0.967163 -1.54765 0
M  V30 5758 C 552.382 -2.29119 -2.79619 0
M  V30 5759 O 552.103 -3.63952 -2.43866 0
M  V30 5760 C 553.604 -2.38642 -3.73584 0
M  V30 5761 H 550.824 -0.481091 -0.467752 0
M  V30 5762 H 553.368 -1.83843 -0.895651 0
M  V30 5763 H 551.523 -1.89612 -3.37826 0
M  V30 5764 H 551.937 -4.10677 -3.26258 0
M  V30 5765 H 553.411 -3.04563 -4.60375 0
M  V30 5766 H 553.888 -1.40846 -4.16004 0
M  V30 5767 H 554.494 -2.78659 -3.21293 0
M  V30 5768 N 552.809 0.956637 -1.25245 0
M  V30 5769 C 553.759 2.03841 -1.02141 0
M  V30 5770 C 554.743 1.60848 0.0410058 0
M  V30 5771 O 555.935 1.76142 -0.174084 0
M  V30 5772 C 553.064 3.37282 -0.639963 0
M  V30 5773 C 552.15 3.86805 -1.73903 0
M  V30 5774 N 552.541 4.09143 -2.97381 0
M  V30 5775 C 550.839 4.15574 -1.61909 0
M  V30 5776 C 551.54 4.49923 -3.68707 0
M  V30 5777 N 550.516 4.55737 -2.96318 0
M  V30 5778 H 554.318 2.19102 -1.95886 0
M  V30 5779 H 551.832 1.1413 -1.15534 0
M  V30 5780 H 553.829 4.14403 -0.455643 0
M  V30 5781 H 552.489 3.23401 0.29018 0
M  V30 5782 H 553.5 3.96275 -3.33447 0
M  V30 5783 H 550.177 4.10566 -0.757764 0
M  V30 5784 H 551.567 4.75526 -4.74684 0
M  V30 5785 N 554.287 1.06798 1.15896 0
M  V30 5786 C 555.698 0.811355 1.68149 0
M  V30 5787 C 556.049 -0.664339 1.8461 0
M  V30 5788 O 555.174 -1.51485 1.54535 0
M  V30 5789 C 555.769 1.46624 3.05429 0
M  V30 5790 C 554.328 1.25726 3.54781 0
M  V30 5791 C 553.475 1.53949 2.3064 0
M  V30 5792 H 556.426 1.23078 1.00187 0
M  V30 5793 H 556.447 0.88437 3.7008 0
M  V30 5794 H 555.959 2.54025 2.93416 0
M  V30 5795 H 554.06 0.20322 3.72045 0
M  V30 5796 H 554.173 1.97354 4.36564 0
M  V30 5797 H 552.537 0.96025 2.35905 0
M  V30 5798 H 553.32 2.6252 2.2122 0
M  V30 5799 N 555.766 -1.3263 0.851289 0
M  V30 5800 C 557.043 -1.91982 0.374448 0
M  V30 5801 C 557.423 -1.77568 -1.14161 0
M  V30 5802 O 556.771 -1.1717 -1.96172 0
M  V30 5803 C 556.981 -3.38862 0.835088 0
M  V30 5804 C 558.329 -4.15999 0.850309 0
M  V30 5805 O 559.353 -3.47566 0.779505 0
M  V30 5806 O 558.212 -5.38189 0.949481 0
M  V30 5807 H 555.306 -0.819846 0.10854 0
M  V30 5808 H 557.852 -1.41422 0.937966 0
M  V30 5809 H 556.624 -3.43281 1.87814 0
M  V30 5810 H 556.247 -3.96821 0.248833 0
M  V30 5811 N 557.244 -0.608902 -1.45362 0
M  V30 5812 C 558.191 0.109172 -2.30542 0
M  V30 5813 C 559.161 0.858704 -1.42181 0
M  V30 5814 O 560.346 0.844178 -1.71109 0
M  V30 5815 C 557.486 1.09971 -3.27109 0
M  V30 5816 C 556.599 0.350911 -4.30572 0
M  V30 5817 C 555.734 1.33129 -5.14247 0
M  V30 5818 C 554.773 0.570377 -6.09437 0
M  V30 5819 N 553.91 1.5001 -6.85887 0
M  V30 5820 H 558.75 -0.623195 -2.91411 0
M  V30 5821 H 556.287 -0.319122 -1.43597 0
M  V30 5822 H 558.245 1.68714 -3.81564 0
M  V30 5823 H 556.875 1.79947 -2.67991 0
M  V30 5824 H 555.927 -0.352054 -3.78767 0
M  V30 5825 H 557.239 -0.242725 -4.98209 0
M  V30 5826 H 556.393 1.99074 -5.73109 0
M  V30 5827 H 555.132 1.95885 -4.46632 0
M  V30 5828 H 554.137 -0.102702 -5.49704 0
M  V30 5829 H 555.362 -0.0521607 -6.7908 0
M  V30 5830 H 553.308 2.11529 -6.2096 0
M  V30 5831 H 553.225 0.959934 -7.49881 0
M  V30 5832 H 554.493 2.14909 -7.49289 0
M  V30 5833 N 558.722 1.53707 -0.348139 0
M  V30 5834 C 559.952 2.05108 0.247864 0
M  V30 5835 C 560.36 1.22252 1.44399 0
M  V30 5836 O 559.703 0.251853 1.81965 0
M  V30 5837 C 559.765 3.52171 0.722187 0
M  V30 5838 C 559.429 4.5562 -0.354902 0
M  V30 5839 C 560.426 5.05883 -1.19911 0
M  V30 5840 C 558.111 4.99703 -0.510145 0
M  V30 5841 C 560.105 5.98814 -2.18406 0
M  V30 5842 C 557.792 5.92443 -1.49848 0
M  V30 5843 C 558.79 6.41887 -2.33389 0
M  V30 5844 O 558.478 7.32802 -3.3054 0
M  V30 5845 H 558.21 0.674086 0.0508296 0
M  V30 5846 H 560.764 1.99229 -0.49968 0
M  V30 5847 H 558.994 3.55529 1.52105 0
M  V30 5848 H 560.683 3.8652 1.23925 0
M  V30 5849 H 561.449 4.72586 -1.09028 0
M  V30 5850 H 557.328 4.60816 0.130274 0
M  V30 5851 H 560.872 6.3733 -2.83649 0
M  V30 5852 H 556.769 6.25155 -1.60786 0
M  V30 5853 H 557.537 7.50749 -3.26064 0
M  V30 5854 N 560.2 0.0768682 1.57412 0
M  V30 5855 C 561.611 -0.455037 1.8107 0
M  V30 5856 C 561.962 -1.69323 0.991162 0
M  V30 5857 O 561.087 -2.15328 0.215156 0
M  V30 5858 C 561.682 -0.832316 3.28417 0
M  V30 5859 C 560.241 -1.30906 3.52903 0
M  V30 5860 C 559.388 -0.296714 2.75708 0
M  V30 5861 H 562.339 0.302514 1.5579 0
M  V30 5862 H 562.36 -1.69333 3.40744 0
M  V30 5863 H 561.872 0.0690532 3.88039 0
M  V30 5864 H 559.973 -2.22875 2.98592 0
M  V30 5865 H 560.086 -1.28348 4.61588 0
M  V30 5866 H 558.45 -0.775059 2.42621 0
M  V30 5867 H 559.233 0.597015 3.38069 0
M  V30 5868 N 561.678 -1.56367 -0.196722 0
M  V30 5869 C 562.924 -1.80796 -0.918725 0
M  V30 5870 C 563.257 -0.650645 -1.82976 0
M  V30 5871 O 562.532 0.348889 -1.91345 0
M  V30 5872 C 562.815 -3.15472 -1.73636 0
M  V30 5873 C 562.668 -4.41693 -0.85015 0
M  V30 5874 C 563.987 -3.46824 -2.70927 0
M  V30 5875 H 561.106 -0.657702 -0.332561 0
M  V30 5876 H 563.748 -1.89086 -0.186186 0
M  V30 5877 H 561.898 -3.08536 -2.36088 0
M  V30 5878 H 563.57 -4.60673 -0.240459 0
M  V30 5879 H 561.813 -4.33517 -0.156785 0
M  V30 5880 H 562.484 -5.32419 -1.45719 0
M  V30 5881 H 564.96 -3.54049 -2.18607 0
M  V30 5882 H 563.836 -4.4218 -3.25219 0
M  V30 5883 H 564.097 -2.70236 -3.49893 0
M  V30 5884 N 563.156 0.464375 -1.50603 0
M  V30 5885 C 564.404 1.21356 -1.61608 0
M  V30 5886 C 564.725 1.92329 -0.321643 0
M  V30 5887 O 563.995 1.84403 0.661232 0
M  V30 5888 H 562.575 0.45094 -0.595535 0
M  V30 5889 H 565.237 0.535046 -1.87412 0
M  V30 5890 H 564.333 1.95783 -2.43054 0
M  V30 5891 N 564.634 1.40294 0.718013 0
M  V30 5892 C 565.88 1.38645 1.48005 0
M  V30 5893 C 566.213 -0.0121202 1.94196 0
M  V30 5894 O 565.488 -0.980309 1.67989 0
M  V30 5895 C 565.771 2.37379 2.70782 0
M  V30 5896 C 565.624 3.8625 2.30501 0
M  V30 5897 C 566.943 2.33685 3.72933 0
M  V30 5898 H 564.062 0.504928 0.536858 0
M  V30 5899 H 566.704 1.71411 0.819649 0
M  V30 5900 H 564.854 2.09568 3.27129 0
M  V30 5901 H 566.526 4.24879 1.79655 0
M  V30 5902 H 564.769 4.02202 1.6253 0
M  V30 5903 H 565.44 4.50847 3.18498 0
M  V30 5904 H 567.916 2.58314 3.2621 0
M  V30 5905 H 566.792 3.0482 4.56482 0
M  V30 5906 H 567.053 1.34765 4.21059 0
M  V30 5907 N 566.112 -0.949982 1.2575 0
M  V30 5908 C 567.062 -2.03297 1.03221 0
M  V30 5909 C 568.046 -1.60867 -0.0324751 0
M  V30 5910 O 569.238 -1.76047 0.183423 0
M  V30 5911 C 566.367 -3.36938 0.657841 0
M  V30 5912 C 565.453 -3.85878 1.75952 0
M  V30 5913 N 565.844 -4.0756 2.99547 0
M  V30 5914 C 564.142 -4.14709 1.64111 0
M  V30 5915 C 564.843 -4.47961 3.71087 0
M  V30 5916 N 563.819 -4.5416 2.98731 0
M  V30 5917 H 567.621 -2.1806 1.97045 0
M  V30 5918 H 565.135 -1.13516 1.16138 0
M  V30 5919 H 567.132 -4.14155 0.477614 0
M  V30 5920 H 565.792 -3.2355 -0.273025 0
M  V30 5921 H 566.803 -3.94501 3.35544 0
M  V30 5922 H 563.48 -4.10158 0.779527 0
M  V30 5923 H 564.87 -4.73002 4.77199 0
M  V30 5924 N 567.59 -1.07411 -1.15328 0
M  V30 5925 C 568.837 -0.797649 -1.86128 0
M  V30 5926 C 569.165 0.676298 -1.82364 0
M  V30 5927 O 568.42 1.51223 -1.24218 0
M  V30 5928 C 568.719 -1.25191 -3.34757 0
M  V30 5929 C 568.385 -2.73191 -3.58716 0
M  V30 5930 C 567.047 -3.13616 -3.64964 0
M  V30 5931 C 569.399 -3.68718 -3.6837 0
M  V30 5932 C 566.727 -4.48383 -3.78377 0
M  V30 5933 C 569.079 -5.03248 -3.83306 0
M  V30 5934 C 567.743 -5.43293 -3.878 0
M  V30 5935 H 567.013 -0.29188 -0.681092 0
M  V30 5936 H 569.66 -1.34524 -1.36292 0
M  V30 5937 H 567.965 -0.623712 -3.86804 0
M  V30 5938 H 569.662 -1.01489 -3.87945 0
M  V30 5939 H 566.252 -2.40898 -3.54494 0
M  V30 5940 H 570.436 -3.38614 -3.62842 0
M  V30 5941 H 565.692 -4.78877 -3.80114 0
M  V30 5942 H 569.866 -5.77142 -3.89718 0
M  V30 5943 H 567.493 -6.47721 -3.97946 0
M  V30 5944 N 569.068 1.32177 -0.85831 0
M  V30 5945 C 569.998 2.31282 -0.321041 0
M  V30 5946 C 570.979 1.59841 0.581786 0
M  V30 5947 O 572.164 1.87619 0.501262 0
M  V30 5948 C 569.294 3.4385 0.48832 0
M  V30 5949 C 568.248 4.26799 -0.320391 0
M  V30 5950 C 567.574 5.31164 0.613934 0
M  V30 5951 C 568.874 4.98829 -1.54813 0
M  V30 5952 H 570.568 2.76469 -1.14915 0
M  V30 5953 H 568.114 1.32916 -0.554028 0
M  V30 5954 H 570.067 4.12224 0.874626 0
M  V30 5955 H 568.791 2.97401 1.34983 0
M  V30 5956 H 567.45 3.60077 -0.688497 0
M  V30 5957 H 567.098 4.80967 1.47239 0
M  V30 5958 H 566.798 5.8755 0.0768097 0
M  V30 5959 H 568.322 6.024 0.997336 0
M  V30 5960 H 569.736 5.59864 -1.23392 0
M  V30 5961 H 568.133 5.64957 -2.02346 0
M  V30 5962 H 569.203 4.26483 -2.30739 0
M  V30 5963 N 570.547 0.616602 1.45037 0
M  V30 5964 C 571.958 0.199359 1.85633 0
M  V30 5965 C 572.309 -1.24588 1.51566 0
M  V30 5966 O 571.434 -1.94594 0.94668 0
M  V30 5967 C 572.029 0.355033 3.36935 0
M  V30 5968 C 570.588 -0.00758748 3.76399 0
M  V30 5969 C 569.735 0.675256 2.68953 0
M  V30 5970 H 572.686 0.822708 1.3571 0
M  V30 5971 H 572.707 -0.410201 3.78282 0
M  V30 5972 H 572.219 1.40699 3.61698 0
M  V30 5973 H 570.32 -1.05837 3.57252 0
M  V30 5974 H 570.433 0.392346 4.77491 0
M  V30 5975 H 568.797 0.111992 2.54454 0
M  V30 5976 H 569.58 1.72952 2.96551 0
M  V30 5977 N 572.025 -1.5352 0.356285 0
M  V30 5978 C 572.972 -2.25439 -0.494569 0
M  V30 5979 C 573.942 -1.25752 -1.08516 0
M  V30 5980 O 575.127 -1.54513 -1.1194 0
M  V30 5981 C 572.267 -3.04011 -1.63313 0
M  V30 5982 C 571.38 -4.18574 -1.06862 0
M  V30 5983 C 570.515 -4.84607 -2.17552 0
M  V30 5984 C 569.554 -5.91218 -1.58518 0
M  V30 5985 N 568.691 -6.50979 -2.63003 0
M  V30 5986 H 573.531 -2.97737 0.125244 0
M  V30 5987 H 571.068 -1.46916 0.0735789 0
M  V30 5988 H 573.026 -3.47834 -2.30363 0
M  V30 5989 H 571.656 -2.33986 -2.22374 0
M  V30 5990 H 570.708 -3.79303 -0.288672 0
M  V30 5991 H 572.02 -4.95215 -0.596924 0
M  V30 5992 H 571.174 -5.31566 -2.92442 0
M  V30 5993 H 569.913 -4.07418 -2.6807 0
M  V30 5994 H 568.918 -5.4363 -0.821391 0
M  V30 5995 H 570.143 -6.70322 -1.08836 0
M  V30 5996 H 568.089 -5.76648 -3.12751 0
M  V30 5997 H 568.006 -7.23131 -2.20493 0
M  V30 5998 H 569.274 -7.02589 -3.37623 0
M  V30 5999 N 573.503 -0.0852151 -1.57369 0
M  V30 6000 C 574.45 0.877268 -2.13478 0
M  V30 6001 C 575.42 1.28642 -1.05073 0
M  V30 6002 O 576.605 1.36992 -1.32808 0
M  V30 6003 C 573.745 2.13464 -2.71159 0
M  V30 6004 C 572.858 1.77691 -3.93764 0
M  V30 6005 C 571.993 2.98139 -4.39643 0
M  V30 6006 C 571.032 2.58447 -5.54862 0
M  V30 6007 N 570.169 3.71698 -5.95639 0
M  V30 6008 H 575.009 0.391933 -2.95411 0
M  V30 6009 H 572.546 0.181796 -1.45972 0
M  V30 6010 H 574.504 2.87086 -3.02717 0
M  V30 6011 H 573.134 2.59514 -1.91969 0
M  V30 6012 H 572.186 0.940768 -3.68583 0
M  V30 6013 H 573.498 1.44497 -4.77412 0
M  V30 6014 H 572.652 3.80026 -4.72933 0
M  V30 6015 H 571.391 3.34536 -3.54876 0
M  V30 6016 H 570.396 1.74984 -5.21211 0
M  V30 6017 H 571.621 2.23205 -6.41371 0
M  V30 6018 H 569.567 4.07831 -5.13819 0
M  V30 6019 H 569.484 3.42317 -6.74059 0
M  V30 6020 H 570.752 4.54123 -6.33555 0
M  V30 6021 N 574.981 1.5647 0.188427 0
M  V30 6022 C 575.911 1.98101 1.23606 0
M  V30 6023 C 576.892 0.853961 1.47111 0
M  V30 6024 O 578.077 1.11879 1.58735 0
M  V30 6025 C 575.207 2.32624 2.57882 0
M  V30 6026 C 574.161 3.48129 2.48978 0
M  V30 6027 C 573.487 3.68347 3.87588 0
M  V30 6028 C 574.787 4.82112 2.00911 0
M  V30 6029 H 576.481 2.85864 0.890068 0
M  V30 6030 H 574.027 1.37532 0.426714 0
M  V30 6031 H 575.98 2.60343 3.3136 0
M  V30 6032 H 574.704 1.41751 2.94235 0
M  V30 6033 H 573.363 3.20511 1.77956 0
M  V30 6034 H 573.011 2.74793 4.21305 0
M  V30 6035 H 572.711 4.46055 3.82503 0
M  V30 6036 H 574.235 3.98449 4.62678 0
M  V30 6037 H 575.649 5.08819 2.64151 0
M  V30 6038 H 574.046 5.63337 2.06814 0
M  V30 6039 H 575.116 4.75249 0.96262 0
M  V30 6040 N 576.459 -0.456382 1.50847 0
M  V30 6041 C 577.736 -1.21739 1.53098 0
M  V30 6042 C 578.116 -2.09179 0.284132 0
M  V30 6043 O 577.464 -2.16466 -0.731773 0
M  V30 6044 C 577.674 -2.03573 2.83477 0
M  V30 6045 C 579.022 -2.61264 3.34703 0
M  V30 6046 O 580.046 -2.13802 2.84898 0
M  V30 6047 O 578.905 -3.47779 4.21559 0
M  V30 6048 H 575.999 -0.553219 0.614718 0
M  V30 6049 H 578.545 -0.467003 1.63148 0
M  V30 6050 H 577.317 -1.39232 3.65691 0
M  V30 6051 H 576.94 -2.85716 2.76499 0
M  V30 6052 N 577.937 -1.40673 -0.710563 0
M  V30 6053 C 578.847 -1.43663 -1.85467 0
M  V30 6054 C 579.863 -0.328721 -1.70867 0
M  V30 6055 O 581.039 -0.574098 -1.93044 0
M  V30 6056 C 578.104 -1.30226 -3.21313 0
M  V30 6057 C 577.165 -2.51204 -3.48131 0
M  V30 6058 C 576.398 -2.38398 -4.77495 0
M  V30 6059 O 576.621 -1.40048 -5.5294 0
M  V30 6060 O 575.555 -3.2787 -5.04762 0
M  V30 6061 H 579.381 -2.40156 -1.859 0
M  V30 6062 H 576.966 -1.22049 -0.861652 0
M  V30 6063 H 578.848 -1.2496 -4.02446 0
M  V30 6064 H 577.523 -0.368419 -3.21597 0
M  V30 6065 H 576.43 -2.62048 -2.66987 0
M  V30 6066 H 577.763 -3.43366 -3.52648 0
M  V30 6067 N 579.415 0.9433 -1.26252 0
M  V30 6068 C 580.378 2.02326 -1.07689 0
M  V30 6069 C 581.378 1.60779 -0.0259174 0
M  V30 6070 O 582.568 1.72108 -0.269134 0
M  V30 6071 C 579.7 3.34886 -0.63752 0
M  V30 6072 H 580.893 2.20225 -2.0357 0
M  V30 6073 H 578.446 1.12197 -1.08819 0
M  V30 6074 H 579.181 3.22684 0.323377 0
M  V30 6075 H 578.966 3.66393 -1.39637 0
M  V30 6076 H 580.456 4.14231 -0.529418 0
M  V30 6077 N 580.893 1.08022 1.14757 0
M  V30 6078 C 582.139 0.808705 1.85978 0
M  V30 6079 C 582.472 -0.663764 1.82504 0
M  V30 6080 O 581.747 -1.48765 1.25296 0
M  V30 6081 C 582.03 1.32623 3.34788 0
M  V30 6082 C 581.883 2.86375 3.46856 0
M  V30 6083 C 583.202 0.948291 4.29762 0
M  V30 6084 H 580.321 0.295244 0.675278 0
M  V30 6085 H 582.963 1.33917 1.34783 0
M  V30 6086 H 581.113 0.875002 3.78518 0
M  V30 6087 H 582.785 3.39839 3.11941 0
M  V30 6088 H 581.028 3.24232 2.88194 0
M  V30 6089 H 581.699 3.17658 4.51439 0
M  V30 6090 H 584.175 1.33722 3.94028 0
M  V30 6091 H 583.051 1.33765 5.32352 0
M  V30 6092 H 583.312 -0.145094 4.41862 0
M  V30 6093 N 582.371 -1.3172 0.865308 0
M  V30 6094 C 583.334 -2.26918 0.322627 0
M  V30 6095 C 584.334 -1.52031 -0.523751 0
M  V30 6096 O 585.524 -1.70973 -0.333727 0
M  V30 6097 C 582.656 -3.36558 -0.542338 0
M  V30 6098 H 583.849 -2.76432 1.16298 0
M  V30 6099 H 581.402 -1.42573 0.640512 0
M  V30 6100 H 582.137 -2.92329 -1.40407 0
M  V30 6101 H 581.922 -3.92048 0.0636395 0
M  V30 6102 H 583.412 -4.07465 -0.91446 0
M  V30 6103 N 583.85 -0.624285 -1.44708 0
M  V30 6104 C 584.76 0.0861083 -2.34442 0
M  V30 6105 C 585.776 0.84291 -1.5222 0
M  V30 6106 O 586.952 0.796723 -1.84971 0
M  V30 6107 C 584.017 1.05999 -3.30099 0
M  V30 6108 C 583.077 0.303316 -4.28227 0
M  V30 6109 C 582.311 1.23081 -5.19314 0
M  V30 6110 O 582.534 2.46929 -5.14181 0
M  V30 6111 O 581.468 0.71883 -5.97592 0
M  V30 6112 H 585.293 -0.651756 -2.96624 0
M  V30 6113 H 582.879 -0.384493 -1.44368 0
M  V30 6114 H 584.76 1.62046 -3.88997 0
M  V30 6115 H 583.436 1.77859 -2.70459 0
M  V30 6116 H 582.343 -0.300033 -3.72895 0
M  V30 6117 H 583.676 -0.375123 -4.90768 0
M  V30 6118 N 585.328 1.53329 -0.364422 0
M  V30 6119 C 586.291 2.24323 0.470292 0
M  V30 6120 C 587.291 1.25068 1.01067 0
M  V30 6121 O 588.481 1.49354 0.896605 0
M  V30 6122 C 585.613 2.97908 1.65722 0
M  V30 6123 H 586.806 2.9952 -0.150917 0
M  V30 6124 H 584.359 1.55868 -0.116092 0
M  V30 6125 H 585.094 2.2695 2.31655 0
M  V30 6126 H 584.879 3.70732 1.27671 0
M  V30 6127 H 586.369 3.5188 2.24878 0
M  V30 6128 N 586.806 0.0935595 1.57322 0
M  V30 6129 C 587.756 -0.876521 2.10478 0
M  V30 6130 C 588.74 -1.24482 1.01946 0
M  V30 6131 O 589.932 -1.22016 1.28223 0
M  V30 6132 C 587.061 -2.13615 2.68745 0
M  V30 6133 C 586.147 -1.79335 3.84317 0
M  V30 6134 N 586.538 -1.15606 4.92411 0
M  V30 6135 C 584.836 -2.08954 3.94023 0
M  V30 6136 C 585.537 -0.999036 5.73057 0
M  V30 6137 N 584.513 -1.51585 5.22037 0
M  V30 6138 H 588.315 -0.379829 2.91435 0
M  V30 6139 H 585.829 -0.109699 1.62029 0
M  V30 6140 H 587.826 -2.84053 3.05155 0
M  V30 6141 H 586.486 -2.63851 1.89242 0
M  V30 6142 H 587.497 -0.823063 5.11318 0
M  V30 6143 H 584.174 -2.61416 3.25527 0
M  V30 6144 H 585.564 -0.500772 6.70031 0
M  V30 6145 N 588.284 -1.56567 -0.180126 0
M  V30 6146 C 589.214 -1.98753 -1.22553 0
M  V30 6147 C 590.195 -0.86175 -1.46656 0
M  V30 6148 O 591.38 -1.12719 -1.58139 0
M  V30 6149 C 588.51 -2.33988 -2.56645 0
M  V30 6150 C 587.464 -3.49445 -2.47128 0
M  V30 6151 C 586.79 -3.70397 -3.8563 0
M  V30 6152 C 588.09 -4.83171 -1.98352 0
M  V30 6153 H 589.784 -2.86332 -0.874896 0
M  V30 6154 H 587.33 -1.37757 -0.419414 0
M  V30 6155 H 589.283 -2.62097 -3.29974 0
M  V30 6156 H 588.007 -1.43309 -2.93479 0
M  V30 6157 H 586.666 -3.2145 -1.76254 0
M  V30 6158 H 586.314 -2.77023 -4.19842 0
M  V30 6159 H 586.014 -4.48077 -3.80132 0
M  V30 6160 H 587.538 -4.00897 -4.60558 0
M  V30 6161 H 588.952 -5.10213 -2.61449 0
M  V30 6162 H 587.349 -5.64425 -2.03823 0
M  V30 6163 H 588.419 -4.75753 -0.937402 0
M  V30 6164 N 589.762 0.448376 -1.51087 0
M  V30 6165 C 591.01 1.19635 -1.62886 0
M  V30 6166 C 591.331 1.91977 -0.342024 0
M  V30 6167 O 590.601 1.85094 0.641636 0
M  V30 6168 H 589.181 0.444598 -0.600285 0
M  V30 6169 H 591.843 0.515138 -1.87969 0
M  V30 6170 H 590.939 1.93194 -2.45117 0
M  V30 6171 N 591.24 1.41047 0.703093 0
M  V30 6172 C 592.187 1.42302 1.81711 0
M  V30 6173 C 593.157 0.278336 1.63751 0
M  V30 6174 O 594.342 0.478266 1.84709 0
M  V30 6175 C 591.482 1.30362 3.19531 0
M  V30 6176 C 590.595 2.54638 3.48975 0
M  V30 6177 C 589.73 2.35047 4.76368 0
M  V30 6178 C 588.769 3.54837 4.98756 0
M  V30 6179 N 587.906 3.34363 6.1737 0
M  V30 6180 H 592.746 2.37516 1.79973 0
M  V30 6181 H 590.283 1.1795 0.878983 0
M  V30 6182 H 592.241 1.21443 3.99134 0
M  V30 6183 H 590.871 0.387602 3.20464 0
M  V30 6184 H 589.923 2.74037 2.63833 0
M  V30 6185 H 591.235 3.43766 3.61423 0
M  V30 6186 H 590.389 2.23552 5.64012 0
M  V30 6187 H 589.128 1.43363 4.66153 0
M  V30 6188 H 588.133 3.66795 4.09563 0
M  V30 6189 H 589.358 4.47464 5.10835 0
M  V30 6190 H 587.304 2.45373 6.08382 0
M  V30 6191 H 587.221 4.17063 6.30551 0
M  V30 6192 H 588.489 3.26626 7.07768 0
M  V30 6193 N 592.718 -0.936591 1.26751 0
M  V30 6194 C 593.648 -2.05315 1.11212 0
M  V30 6195 C 594.629 -1.70092 0.0160262 0
M  V30 6196 O 595.814 -1.93279 0.188894 0
M  V30 6197 C 592.944 -3.39123 0.749171 0
M  V30 6198 C 591.898 -3.88425 1.79751 0
M  V30 6199 C 591.224 -5.18936 1.28876 0
M  V30 6200 C 592.524 -4.12798 3.19992 0
M  V30 6201 H 594.218 -2.18573 2.04613 0
M  V30 6202 H 591.764 -1.05027 0.985159 0
M  V30 6203 H 593.717 -4.16704 0.627323 0
M  V30 6204 H 592.441 -3.25855 -0.220543 0
M  V30 6205 H 591.1 -3.13028 1.90811 0
M  V30 6206 H 590.748 -5.02051 0.308757 0
M  V30 6207 H 590.448 -5.52892 1.98958 0
M  V30 6208 H 591.972 -5.99096 1.17967 0
M  V30 6209 H 593.386 -4.80977 3.11983 0
M  V30 6210 H 591.783 -4.58044 3.87705 0
M  V30 6211 H 592.853 -3.18412 3.65707 0
M  V30 6212 N 594.196 -1.08629 -1.14182 0
M  V30 6213 C 595.144 -0.71284 -2.21408 0
M  V30 6214 C 596.138 0.282457 -1.67029 0
M  V30 6215 O 597.344 0.144783 -1.79417 0
M  V30 6216 H 593.719 -0.212497 -0.721352 0
M  V30 6217 H 595.69 -1.6265 -2.50175 0
M  V30 6218 C 594.439 -0.140704 -3.47415 0
M  V30 6219 H 593.762 -0.897739 -3.8959 0
M  V30 6220 H 595.202 0.0827677 -4.23919 0
M  V30 6221 C 593.661 1.122 -3.17668 0
M  V30 6222 O 594.191 2.20652 -3.35672 0
M  V30 6223 N 592.397 1.03328 -2.71609 0
M  V30 6224 H 591.944 0.150666 -2.57159 0
M  V30 6225 H 591.902 1.8789 -2.52081 0
M  V30 6226 N 595.674 1.31259 -0.872281 0
M  V30 6227 C 596.92 1.96913 -0.485083 0
M  V30 6228 C 597.253 1.68774 0.960667 0
M  V30 6229 O 596.528 0.985495 1.67685 0
M  V30 6230 C 596.811 3.52299 -0.745502 0
M  V30 6231 C 596.664 3.90002 -2.24095 0
M  V30 6232 C 597.983 4.39582 -0.213516 0
M  V30 6233 H 595.102 0.715252 -0.177716 0
M  V30 6234 H 597.744 1.55347 -1.09395 0
M  V30 6235 H 595.894 3.87835 -0.227276 0
M  V30 6236 H 597.566 3.64555 -2.82661 0
M  V30 6237 H 595.809 3.38526 -2.71261 0
M  V30 6238 H 596.48 4.98352 -2.37381 0
M  V30 6239 H 598.956 4.10882 -0.656902 0
M  V30 6240 H 597.832 5.47251 -0.42516 0
M  V30 6241 H 598.093 4.33158 0.884666 0
M  V30 6242 N 597.152 0.631951 1.44375 0
M  V30 6243 C 598.099 -0.0724807 2.30686 0
M  V30 6244 C 599.069 -0.835975 1.43529 0
M  V30 6245 O 600.254 -0.816849 1.7243 0
M  V30 6246 C 597.394 -1.04753 3.28817 0
M  V30 6247 C 596.507 -0.282367 4.31076 0
M  V30 6248 C 595.642 -1.2493 5.163 0
M  V30 6249 C 594.681 -0.473349 6.10267 0
M  V30 6250 N 593.818 -1.39079 6.88187 0
M  V30 6251 H 598.658 0.669477 2.90383 0
M  V30 6252 H 596.195 0.341927 1.43071 0
M  V30 6253 H 598.153 -1.62623 3.842 0
M  V30 6254 H 596.783 -1.75661 2.70819 0
M  V30 6255 H 595.835 0.412268 3.78159 0
M  V30 6256 H 597.147 0.321955 4.9776 0
M  V30 6257 H 596.301 -1.89931 5.76204 0
M  V30 6258 H 595.04 -1.88755 4.49692 0
M  V30 6259 H 594.045 0.190142 5.49471 0
M  V30 6260 H 595.27 0.16019 6.78911 0
M  V30 6261 H 593.216 -2.01623 6.24247 0
M  V30 6262 H 593.133 -0.840513 7.51313 0
M  V30 6263 H 594.401 -2.02961 7.52613 0
M  V30 6264 N 598.631 -1.53133 0.372548 0
M  V30 6265 C 599.561 -2.28876 -0.462412 0
M  V30 6266 C 600.542 -1.31583 -1.07796 0
M  V30 6267 O 601.727 -1.60461 -1.09389 0
M  V30 6268 C 598.857 -3.08317 -1.59868 0
M  V30 6269 C 597.811 -4.13355 -1.11003 0
M  V30 6270 C 597.137 -4.8092 -2.33708 0
M  V30 6271 C 598.437 -5.21955 -0.18983 0
M  V30 6272 H 600.131 -2.9892 0.169511 0
M  V30 6273 H 597.677 -1.43761 0.0829658 0
M  V30 6274 H 599.63 -3.60055 -2.18949 0
M  V30 6275 H 598.354 -2.35976 -2.25794 0
M  V30 6276 H 597.013 -3.62573 -0.541869 0
M  V30 6277 H 596.661 -4.05144 -2.98106 0
M  V30 6278 H 596.361 -5.51904 -2.01682 0
M  V30 6279 H 597.885 -5.35455 -2.93462 0
M  V30 6280 H 599.299 -5.69153 -0.688319 0
M  V30 6281 H 597.696 -6.00087 0.0398887 0
M  V30 6282 H 598.766 -4.78811 0.766057 0
M  V30 6283 N 600.109 -0.101901 -1.5727 0
M  V30 6284 C 601.337 0.568392 -1.98939 0
M  V30 6285 C 601.752 1.61301 -0.981194 0
M  V30 6286 O 601.109 1.82478 0.0282869 0
M  V30 6287 C 601.16 1.20997 -3.40649 0
M  V30 6288 O 600.881 0.207129 -4.3761 0
M  V30 6289 C 602.382 1.96523 -3.97358 0
M  V30 6290 H 599.602 0.15186 -0.65359 0
M  V30 6291 H 602.146 -0.183198 -2.03678 0
M  V30 6292 H 600.301 1.91245 -3.36904 0
M  V30 6293 H 600.715 0.671071 -5.20189 0
M  V30 6294 H 602.189 2.36764 -4.98645 0
M  V30 6295 H 602.666 2.83376 -3.35552 0
M  V30 6296 H 603.272 1.31076 -4.04598 0
M  V30 6297 N 601.587 1.56661 0.17182 0
M  V30 6298 C 602.534 1.96371 1.21273 0
M  V30 6299 C 603.504 0.82756 1.44016 0
M  V30 6300 O 604.689 1.08764 1.56764 0
M  V30 6301 C 601.829 2.32838 2.54716 0
M  V30 6302 C 600.942 3.59628 2.39356 0
M  V30 6303 C 600.077 3.85311 3.65662 0
M  V30 6304 C 599.116 5.0545 3.45234 0
M  V30 6305 N 598.253 5.27268 4.63608 0
M  V30 6306 H 603.093 2.85106 0.86709 0
M  V30 6307 H 600.63 1.41073 0.416744 0
M  V30 6308 H 602.588 2.52004 3.3249 0
M  V30 6309 H 601.218 1.47214 2.87277 0
M  V30 6310 H 600.27 3.4838 1.52761 0
M  V30 6311 H 601.582 4.4756 2.20207 0
M  V30 6312 H 600.736 4.04841 4.51872 0
M  V30 6313 H 599.475 2.95753 3.8779 0
M  V30 6314 H 598.48 4.85819 2.5741 0
M  V30 6315 H 599.705 5.96538 3.24529 0
M  V30 6316 H 597.651 4.40662 4.85956 0
M  V30 6317 H 597.568 6.09422 4.4737 0
M  V30 6318 H 598.836 5.51277 5.51103 0
M  V30 6319 N 603.065 -0.440357 1.51323 0
M  V30 6320 C 603.995 -1.54174 1.75364 0
M  V30 6321 C 604.976 -1.59039 0.603375 0
M  V30 6322 O 606.161 -1.74815 0.845774 0
M  V30 6323 C 603.291 -2.92277 1.87593 0
M  V30 6324 C 602.245 -3.02274 3.03009 0
M  V30 6325 C 601.571 -4.42327 3.00418 0
M  V30 6326 C 602.871 -2.76634 4.43024 0
M  V30 6327 H 604.565 -1.34307 2.67585 0
M  V30 6328 H 602.111 -0.644678 1.28763 0
M  V30 6329 H 604.064 -3.69284 2.02995 0
M  V30 6330 H 602.788 -3.13369 0.920179 0
M  V30 6331 H 601.447 -2.27706 2.87307 0
M  V30 6332 H 601.095 -4.60382 2.02626 0
M  V30 6333 H 600.795 -4.49946 3.77918 0
M  V30 6334 H 602.319 -5.21312 3.17909 0
M  V30 6335 H 603.733 -3.43376 4.59093 0
M  V30 6336 H 602.13 -2.95666 5.22208 0
M  V30 6337 H 603.2 -1.72262 4.5327 0
M  V30 6338 N 604.543 -1.41418 -0.695603 0
M  V30 6339 C 605.771 -1.4413 -1.48439 0
M  V30 6340 C 606.186 -0.0465698 -1.88743 0
M  V30 6341 O 605.543 0.934117 -1.56782 0
M  V30 6342 C 605.594 -2.34998 -2.74696 0
M  V30 6343 O 605.315 -3.69043 -2.36091 0
M  V30 6344 C 606.816 -2.46513 -3.68438 0
M  V30 6345 H 604.036 -0.490905 -0.457442 0
M  V30 6346 H 606.58 -1.85702 -0.856454 0
M  V30 6347 H 604.735 -1.96735 -3.33728 0
M  V30 6348 H 605.149 -4.17505 -3.17474 0
M  V30 6349 H 606.623 -3.1426 -4.53811 0
M  V30 6350 H 607.1 -1.49638 -4.12922 0
M  V30 6351 H 607.706 -2.85412 -3.1531 0
M  V30 6352 N 606.021 0.929856 -1.27246 0
M  V30 6353 C 606.931 2.0636 -1.11592 0
M  V30 6354 C 607.947 1.73938 -0.046496 0
M  V30 6355 O 609.123 1.9981 -0.252544 0
M  V30 6356 C 606.188 3.38213 -0.762437 0
M  V30 6357 C 605.249 3.84346 -1.9125 0
M  V30 6358 C 604.482 5.09906 -1.57579 0
M  V30 6359 O 604.705 5.68354 -0.482694 0
M  V30 6360 O 603.639 5.51359 -2.41426 0
M  V30 6361 H 607.465 2.22478 -2.0673 0
M  V30 6362 H 605.05 1.04865 -1.06413 0
M  V30 6363 H 606.932 4.1741 -0.57854 0
M  V30 6364 H 605.607 3.23307 0.159439 0
M  V30 6365 H 604.514 3.06045 -2.15144 0
M  V30 6366 H 605.847 4.0379 -2.81451 0
M  V30 6367 N 607.499 1.09233 1.13605 0
M  V30 6368 C 608.446 0.729921 2.18954 0
M  V30 6369 C 609.416 -0.287916 1.63586 0
M  V30 6370 O 610.601 -0.170003 1.90041 0
M  V30 6371 C 607.741 0.154489 3.44754 0
M  V30 6372 C 606.854 1.22613 4.14234 0
M  V30 6373 C 605.989 0.613657 5.27644 0
M  V30 6374 C 605.028 1.66674 5.8897 0
M  V30 6375 N 604.165 1.07545 6.93814 0
M  V30 6376 H 609.005 1.63257 2.49302 0
M  V30 6377 H 606.542 0.815693 1.22413 0
M  V30 6378 H 608.5 -0.196923 4.16735 0
M  V30 6379 H 607.13 -0.711433 3.14863 0
M  V30 6380 H 606.182 1.69485 3.40557 0
M  V30 6381 H 607.494 2.0238 4.55899 0
M  V30 6382 H 606.648 0.210976 6.06333 0
M  V30 6383 H 605.387 -0.215584 4.87223 0
M  V30 6384 H 604.392 2.07899 5.08978 0
M  V30 6385 H 605.617 2.49861 6.31464 0
M  V30 6386 H 603.563 0.267451 6.55455 0
M  V30 6387 H 603.48 1.81011 7.3401 0
M  V30 6388 H 604.748 0.698906 7.7636 0
M  V30 6389 N 608.977 -1.30795 0.87923 0
M  V30 6390 C 609.909 -2.27241 0.299025 0
M  V30 6391 C 610.922 -1.53472 -0.543166 0
M  V30 6392 O 612.111 -1.74756 -0.363651 0
M  V30 6393 C 609.211 -3.33655 -0.593931 0
M  V30 6394 C 608.384 -4.36857 0.2179 0
M  V30 6395 C 607.443 -5.22715 -0.604646 0
M  V30 6396 O 606.469 -5.69192 -0.0293838 0
M  V30 6397 N 607.671 -5.48008 -1.91488 0
M  V30 6398 H 610.436 -2.77667 1.12788 0
M  V30 6399 H 607.997 -1.43914 0.741637 0
M  V30 6400 H 609.989 -3.88013 -1.15012 0
M  V30 6401 H 608.559 -2.83202 -1.32346 0
M  V30 6402 H 607.779 -3.82444 0.955536 0
M  V30 6403 H 609.067 -5.02869 0.774614 0
M  V30 6404 H 608.465 -5.1202 -2.40525 0
M  V30 6405 H 607.022 -6.05264 -2.41864 0
M  V30 6406 N 610.455 -0.639598 -1.44038 0
M  V30 6407 C 611.418 0.0506628 -2.29144 0
M  V30 6408 C 612.418 0.764001 -1.41491 0
M  V30 6409 O 613.608 0.607309 -1.63271 0
M  V30 6410 C 610.74 1.0824 -3.2326 0
M  V30 6411 H 611.933 -0.697987 -2.91664 0
M  V30 6412 H 609.486 -0.400146 -1.51091 0
M  V30 6413 H 610.221 1.86075 -2.65606 0
M  V30 6414 H 610.006 0.574725 -3.87865 0
M  V30 6415 H 611.496 1.56487 -3.87171 0
M  V30 6416 N 611.933 1.52934 -0.380664 0
M  V30 6417 C 612.865 2.23822 0.493581 0
M  V30 6418 C 613.878 1.25761 1.03383 0
M  V30 6419 O 615.067 1.5189 0.937633 0
M  V30 6420 C 612.167 2.9342 1.69582 0
M  V30 6421 C 611.34 4.18115 1.28445 0
M  V30 6422 C 610.399 4.70788 2.35042 0
M  V30 6423 O 609.425 5.34093 1.96807 0
M  V30 6424 N 610.627 4.49899 3.66839 0
M  V30 6425 H 613.392 2.99484 -0.11371 0
M  V30 6426 H 610.953 1.60577 -0.206587 0
M  V30 6427 H 612.945 3.2556 2.40401 0
M  V30 6428 H 611.515 2.21119 2.20965 0
M  V30 6429 H 610.735 3.92109 0.405503 0
M  V30 6430 H 612.023 4.99152 0.986132 0
M  V30 6431 H 611.421 3.99349 4.0067 0
M  V30 6432 H 609.978 4.86551 4.33718 0
M  V30 6433 N 613.412 0.11024 1.57214 0
M  V30 6434 C 614.642 -0.557025 1.98949 0
M  V30 6435 C 615.05 -1.61317 0.988606 0
M  V30 6436 O 614.393 -1.83679 -0.0279159 0
M  V30 6437 C 614.455 -1.24956 3.37085 0
M  V30 6438 C 614.119 -0.342398 4.55716 0
M  V30 6439 C 615.116 0.415511 5.18237 0
M  V30 6440 C 612.801 -0.256029 5.01647 0
M  V30 6441 C 614.795 1.24761 6.25071 0
M  V30 6442 C 612.482 0.579713 6.08344 0
M  V30 6443 C 613.48 1.33017 6.69922 0
M  V30 6444 O 613.168 2.15205 7.74559 0
M  V30 6445 H 612.9 -0.152792 0.658506 0
M  V30 6446 H 615.454 0.19076 2.04512 0
M  V30 6447 H 613.684 -2.04424 3.2825 0
M  V30 6448 H 615.373 -1.81286 3.63167 0
M  V30 6449 H 616.139 0.358605 4.83672 0
M  V30 6450 H 612.018 -0.829831 4.5347 0
M  V30 6451 H 615.562 1.83386 6.73064 0
M  V30 6452 H 611.459 0.638044 6.42339 0
M  V30 6453 H 612.227 2.08052 7.91617 0
M  V30 6454 N 614.89 -1.56749 -0.16351 0
M  V30 6455 C 615.82 -2.00042 -1.20438 0
M  V30 6456 C 616.801 -0.877256 -1.45733 0
M  V30 6457 O 617.986 -1.1439 -1.56935 0
M  V30 6458 C 615.116 -2.36697 -2.54149 0
M  V30 6459 C 614.07 -3.52046 -2.43408 0
M  V30 6460 C 613.396 -3.74466 -3.81679 0
M  V30 6461 C 614.696 -4.85247 -1.93216 0
M  V30 6462 H 616.39 -2.87244 -0.844477 0
M  V30 6463 H 613.936 -1.38194 -0.40478 0
M  V30 6464 H 615.889 -2.65582 -3.27176 0
M  V30 6465 H 614.613 -1.46414 -2.91943 0
M  V30 6466 H 613.272 -3.23301 -1.72834 0
M  V30 6467 H 612.92 -2.81461 -4.1688 0
M  V30 6468 H 612.62 -4.52084 -3.75359 0
M  V30 6469 H 614.144 -4.0576 -4.5628 0
M  V30 6470 H 615.558 -5.12957 -2.56023 0
M  V30 6471 H 613.955 -5.66556 -1.97825 0
M  V30 6472 H 615.025 -4.7672 -0.88689 0
M  V30 6473 N 616.368 0.432326 -1.51554 0
M  V30 6474 C 617.616 1.17901 -1.64146 0
M  V30 6475 C 617.937 1.91604 -0.362367 0
M  V30 6476 O 617.207 1.85764 0.621968 0
M  V30 6477 H 615.787 0.438206 -0.604966 0
M  V30 6478 H 618.449 0.495172 -1.88505 0
M  V30 6479 H 617.545 1.90584 -2.47152 0
M  V30 6480 N 617.846 1.41785 0.688094 0
M  V30 6481 C 618.779 1.38643 1.81255 0
M  V30 6482 C 619.757 0.252583 1.60626 0
M  V30 6483 O 620.941 0.440691 1.83276 0
M  V30 6484 C 618.068 1.16449 3.18053 0
M  V30 6485 C 617.114 2.32651 3.57457 0
M  V30 6486 S 617.947 3.95152 3.61407 0
M  V30 6487 C 619.103 3.75275 5.00919 0
M  V30 6488 H 619.336 2.33799 1.83644 0
M  V30 6489 H 616.869 1.28398 0.857513 0
M  V30 6490 H 618.827 1.0433 3.97021 0
M  V30 6491 H 617.488 0.229002 3.13264 0
M  V30 6492 H 616.681 2.12835 4.56856 0
M  V30 6493 H 616.283 2.41215 2.85817 0
M  V30 6494 H 618.575 3.35443 5.88629 0
M  V30 6495 H 619.518 4.74302 5.25778 0
M  V30 6496 H 619.926 3.08401 4.7281 0
M  V30 6497 N 619.324 -0.923095 1.27737 0
M  V30 6498 C 620.549 -1.71054 1.17283 0
M  V30 6499 C 620.974 -1.86208 -0.266153 0
M  V30 6500 O 620.332 -1.36545 -1.1927 0
M  V30 6501 C 620.38 -3.0854 1.86642 0
M  V30 6502 O 619.484 -3.95528 1.16752 0
M  V30 6503 H 618.825 -0.524136 0.407649 0
M  V30 6504 H 621.355 -1.15487 1.6889 0
M  V30 6505 H 621.365 -3.58828 1.94182 0
M  V30 6506 H 620.04 -2.96828 2.91317 0
M  V30 6507 H 618.617 -3.53967 1.17312 0
M  V30 6508 N 620.802 -1.09834 -1.13024 0
M  V30 6509 C 622.042 -0.846664 -1.8604 0
M  V30 6510 C 622.406 0.616557 -1.81831 0
M  V30 6511 O 623.607 0.984329 -2.50129 0
M  V30 6512 C 621.878 -1.37228 -3.30005 0
M  V30 6513 S 623.437 -1.25511 -4.20467 0
M  V30 6514 H 620.255 -0.30611 -0.64173 0
M  V30 6515 H 622.857 -1.40255 -1.36194 0
M  V30 6516 H 621.561 -2.43138 -3.30624 0
M  V30 6517 H 621.092 -0.81271 -3.84914 0
M  V30 6518 H 623.107 -0.208762 -4.95761 0
M  V30 6519 N 622.28 1.30327 -0.886154 0
M  V30 6520 C 623.557 1.90922 -0.425217 0
M  V30 6521 C 623.937 1.80533 1.09413 0
M  V30 6522 O 623.285 1.2233 1.92996 0
M  V30 6523 C 623.495 3.36529 -0.924638 0
M  V30 6524 C 624.843 4.13598 -0.960305 0
M  V30 6525 O 625.867 3.45377 -0.871382 0
M  V30 6526 O 624.726 5.35482 -1.09184 0
M  V30 6527 H 621.82 0.81668 -0.130238 0
M  V30 6528 H 624.366 1.38886 -0.975132 0
M  V30 6529 H 623.138 3.38181 -1.96849 0
M  V30 6530 H 622.761 3.96021 -0.353955 0
M  V30 6531 N 623.758 0.647228 1.43697 0
M  V30 6532 C 625.006 0.157876 2.01482 0
M  V30 6533 C 625.327 -1.23039 1.51282 0
M  V30 6534 O 624.597 -1.82071 0.722982 0
M  V30 6535 H 623.177 0.0553745 0.744945 0
M  V30 6536 H 625.839 0.83755 1.75986 0
M  V30 6537 H 624.935 0.137895 3.11795 0
M  V30 6538 N 625.236 -1.5273 0.388769 0
M  V30 6539 C 626.647 -1.86505 -0.0853788 0
M  V30 6540 C 626.998 -1.30847 -1.46197 0
M  V30 6541 O 626.123 -0.639609 -2.06732 0
M  V30 6542 C 626.718 -3.38414 -0.161703 0
M  V30 6543 C 625.277 -3.71902 -0.580144 0
M  V30 6544 C 624.424 -2.76095 0.258218 0
M  V30 6545 H 627.375 -1.46647 0.606665 0
M  V30 6546 H 627.396 -3.67638 -0.980936 0
M  V30 6547 H 626.908 -3.78893 0.840333 0
M  V30 6548 H 625.009 -3.36992 -1.58957 0
M  V30 6549 H 625.122 -4.77902 -0.338663 0
M  V30 6550 H 623.486 -2.53195 -0.276432 0
M  V30 6551 H 624.269 -3.19411 1.25822 0
M  V30 6552 N 626.714 -0.118576 -1.57153 0
M  V30 6553 C 627.961 0.539526 -1.9518 0
M  V30 6554 C 628.289 1.66714 -1.00184 0
M  V30 6555 O 627.544 1.95683 -0.0256482 0
M  V30 6556 C 627.843 1.11303 -3.39627 0
M  V30 6557 C 627.509 0.106809 -4.50773 0
M  V30 6558 C 626.171 -0.169876 -4.809 0
M  V30 6559 C 628.523 -0.57895 -5.17975 0
M  V30 6560 C 625.851 -1.13861 -5.75545 0
M  V30 6561 C 628.203 -1.53631 -6.13661 0
M  V30 6562 C 626.867 -1.82099 -6.42181 0
M  V30 6563 H 626.137 0.197427 -0.714215 0
M  V30 6564 H 628.784 -0.199391 -1.90459 0
M  V30 6565 H 627.089 1.92869 -3.4104 0
M  V30 6566 H 628.786 1.63032 -3.66363 0
M  V30 6567 H 625.376 0.332645 -4.27307 0
M  V30 6568 H 629.56 -0.378359 -4.94856 0
M  V30 6569 H 624.816 -1.36592 -5.95947 0
M  V30 6570 H 628.99 -2.07337 -6.64819 0
M  V30 6571 H 626.617 -2.57319 -7.15326 0
M  V30 6572 N 628.193 1.56834 0.155195 0
M  V30 6573 C 629.14 1.97646 1.19184 0
M  V30 6574 C 630.11 0.842788 1.4313 0
M  V30 6575 O 631.295 1.1042 1.55602 0
M  V30 6576 C 628.435 2.35527 2.52232 0
M  V30 6577 C 627.548 3.62147 2.35529 0
M  V30 6578 C 626.683 3.89167 3.61555 0
M  V30 6579 C 625.722 5.09084 3.39853 0
M  V30 6580 N 624.859 5.32156 4.5799 0
M  V30 6581 H 629.699 2.8601 0.836802 0
M  V30 6582 H 627.236 1.41507 0.401758 0
M  V30 6583 H 629.194 2.55516 3.29799 0
M  V30 6584 H 627.824 1.50253 2.85699 0
M  V30 6585 H 626.876 3.4998 1.49057 0
M  V30 6586 H 628.188 4.49871 2.15448 0
M  V30 6587 H 627.342 4.09611 4.47553 0
M  V30 6588 H 626.081 2.9985 3.84632 0
M  V30 6589 H 625.086 4.88522 2.52243 0
M  V30 6590 H 626.311 5.99947 3.18183 0
M  V30 6591 H 624.257 4.45791 4.81255 0
M  V30 6592 H 624.174 6.14133 4.40882 0
M  V30 6593 H 625.442 5.57091 5.45225 0
M  V30 6594 N 629.671 -0.424282 1.51781 0
M  V30 6595 C 631.082 -1.00368 1.57427 0
M  V30 6596 C 631.433 -1.91962 0.40558 0
M  V30 6597 O 630.558 -2.111 -0.47601 0
M  V30 6598 C 631.153 -1.82707 2.85313 0
M  V30 6599 C 629.712 -2.35675 2.93487 0
M  V30 6600 C 628.859 -1.1524 2.5222 0
M  V30 6601 H 631.81 -0.205064 1.5737 0
M  V30 6602 H 631.831 -2.68294 2.69812 0
M  V30 6603 H 631.343 -1.16017 3.70353 0
M  V30 6604 H 629.444 -3.05781 2.12906 0
M  V30 6605 H 629.557 -2.67578 3.97415 0
M  V30 6606 H 627.921 -1.50174 2.05718 0
M  V30 6607 H 628.704 -0.5014 3.39619 0
M  V30 6608 N 631.149 -1.42148 -0.680565 0
M  V30 6609 C 632.426 -1.32795 -1.43614 0
M  V30 6610 C 632.806 0.037415 -2.11067 0
M  V30 6611 O 632.154 1.05258 -2.02813 0
M  V30 6612 C 632.364 -2.49206 -2.44331 0
M  V30 6613 C 633.712 -2.91059 -3.09144 0
M  V30 6614 O 634.736 -2.49054 -2.54657 0
M  V30 6615 O 633.595 -3.63741 -4.07866 0
M  V30 6616 H 630.689 -0.523397 -0.640301 0
M  V30 6617 H 633.235 -1.54144 -0.709775 0
M  V30 6618 H 632.007 -3.40252 -1.93247 0
M  V30 6619 H 631.63 -2.29813 -3.24456 0
M  V30 6620 N 632.627 0.916307 -1.28225 0
M  V30 6621 C 633.577 2.00488 -1.08574 0
M  V30 6622 C 634.561 1.60897 -0.0101874 0
M  V30 6623 O 635.753 1.75499 -0.230034 0
M  V30 6624 C 632.882 3.35076 -0.746943 0
M  V30 6625 C 631.968 3.81077 -1.86121 0
M  V30 6626 N 632.359 3.99475 -3.10247 0
M  V30 6627 C 630.657 4.10212 -1.75048 0
M  V30 6628 C 631.358 4.37965 -3.82834 0
M  V30 6629 N 630.334 4.4608 -3.10667 0
M  V30 6630 H 634.136 2.1276 -2.02757 0
M  V30 6631 H 631.65 1.10397 -1.19107 0
M  V30 6632 H 633.647 4.12743 -0.587252 0
M  V30 6633 H 632.307 3.2416 0.187146 0
M  V30 6634 H 633.318 3.85466 -3.45885 0
M  V30 6635 H 629.995 4.07947 -0.887999 0
M  V30 6636 H 631.385 4.60183 -4.89572 0
M  V30 6637 N 634.105 1.10431 1.1244 0
M  V30 6638 C 635.335 0.867612 1.87499 0
M  V30 6639 C 635.743 -0.585475 1.79913 0
M  V30 6640 O 635.086 -1.41539 1.171 0
M  V30 6641 C 635.148 1.2374 3.37533 0
M  V30 6642 C 634.812 2.69751 3.68895 0
M  V30 6643 C 635.809 3.67988 3.67261 0
M  V30 6644 C 633.494 3.06135 3.98229 0
M  V30 6645 C 635.488 5.00632 3.9452 0
M  V30 6646 C 633.175 4.38967 4.25149 0
M  V30 6647 C 634.173 5.36025 4.23281 0
M  V30 6648 O 633.861 6.66465 4.49533 0
M  V30 6649 H 633.593 0.311196 0.600111 0
M  V30 6650 H 636.147 1.47257 1.43194 0
M  V30 6651 H 634.377 0.575537 3.82393 0
M  V30 6652 H 636.066 0.978187 3.93937 0
M  V30 6653 H 636.832 3.41224 3.44661 0
M  V30 6654 H 632.711 2.31214 3.98825 0
M  V30 6655 H 636.255 5.7638 3.92978 0
M  V30 6656 H 632.152 4.6547 4.47223 0
M  V30 6657 H 632.92 6.72095 4.67152 0
M  V30 6658 N 635.583 -1.29855 0.893053 0
M  V30 6659 C 636.999 -1.48366 0.588199 0
M  V30 6660 C 637.199 -1.81654 -0.872018 0
M  V30 6661 O 636.255 -1.909 -1.65268 0
M  V30 6662 C 637.568 -2.60136 1.5083 0
M  V30 6663 C 639.116 -2.74014 1.51279 0
M  V30 6664 C 639.591 -3.88905 2.41902 0
M  V30 6665 N 641.082 -3.96228 2.39911 0
M  V30 6666 C 641.817 -4.84458 3.06738 0
M  V30 6667 N 641.313 -5.77426 3.8282 0
M  V30 6668 N 643.106 -4.77894 2.95929 0
M  V30 6669 H 635.257 -1.06522 1.83757 0
M  V30 6670 H 637.52 -0.528495 0.787018 0
M  V30 6671 H 637.226 -2.42383 2.54839 0
M  V30 6672 H 637.1 -3.56793 1.22388 0
M  V30 6673 H 639.487 -2.91167 0.480179 0
M  V30 6674 H 639.568 -1.77952 1.83757 0
M  V30 6675 H 639.212 -3.72508 3.45253 0
M  V30 6676 H 639.142 -4.84322 2.06737 0
M  V30 6677 H 641.633 -3.29728 1.84629 0
M  V30 6678 H 641.946 -6.41529 4.30883 0
M  V30 6679 H 640.291 -5.77332 3.86927 0
M  V30 6680 H 643.482 -4.04248 2.36012 0
M  V30 6681 H 643.655 -5.46444 3.48286 0
M  V30 6682 N 637.061 -0.65484 -1.43351 0
M  V30 6683 C 638.291 -0.176429 -2.05845 0
M  V30 6684 C 638.699 1.16375 -1.49176 0
M  V30 6685 O 638.042 1.72981 -0.618322 0
M  V30 6686 C 638.104 -0.0125844 -3.59498 0
M  V30 6687 C 637.768 -1.27831 -4.38758 0
M  V30 6688 C 638.765 -2.2074 -4.70712 0
M  V30 6689 C 636.45 -1.52035 -4.78739 0
M  V30 6690 C 638.444 -3.36145 -5.41558 0
M  V30 6691 C 636.131 -2.67732 -5.49329 0
M  V30 6692 C 637.129 -3.59612 -5.80662 0
M  V30 6693 O 636.817 -4.73289 -6.4981 0
M  V30 6694 H 636.549 -0.0879682 -0.670252 0
M  V30 6695 H 639.103 -0.896193 -1.84818 0
M  V30 6696 H 637.333 0.762567 -3.79107 0
M  V30 6697 H 639.022 0.423392 -4.03686 0
M  V30 6698 H 639.788 -2.03284 -4.40341 0
M  V30 6699 H 635.667 -0.813987 -4.53757 0
M  V30 6700 H 639.211 -4.07881 -5.65932 0
M  V30 6701 H 635.108 -2.85122 -5.79116 0
M  V30 6702 H 635.876 -4.72575 -6.68293 0
M  V30 6703 O 638.578 1.52239 -0.539034 0
M  V30 6704 H 639.269 1.93674 -0.0315656 0
M  V30 END ATOM
M  V30 BEGIN BOND
M  V30 END BOND
M  V30 END CTAB
M  END
$$$$
