drugbank_target|P23677 Inositol-trisphosphate 3-kinase A (DB01863; DB03401; DB04395)
 OpenBabel12092119573D

  0  0  0     0  0            999 V3000
M  V30 BEGIN CTAB
M  V30 COUNTS 7144 7217 0 0 0
M  V30 BEGIN ATOM
M  V30 1 H -0.908 1.98254 -0.117106 0
M  V30 2 N 0 1.576 0 0
M  V30 3 C 0.933 2.03868 1.02534 0
M  V30 4 C 1.911 0.928543 1.3348 0
M  V30 5 O 3.095 1.19667 1.45644 0
M  V30 6 C 0.222 2.43627 2.35294 0
M  V30 7 C -0.732 3.65373 2.2001 0
M  V30 8 S 0.101 5.13292 1.52614 0
M  V30 9 C 1.257 5.56322 2.86805 0
M  V30 10 H 1.49 2.90518 0.631377 0
M  V30 11 H -0.977 1.52953 0.210867 0
M  V30 12 H 0.981 2.67203 3.11629 0
M  V30 13 H -0.358 1.57376 2.7183 0
M  V30 14 H -1.165 3.90944 3.18086 0
M  V30 15 H -1.563 3.418 1.51819 0
M  V30 16 H 0.729 5.58782 3.83104 0
M  V30 17 H 1.672 6.56266 2.65933 0
M  V30 18 H 2.08 4.83886 2.90714 0
M  V30 19 N 1.4781 -0.272755 1.55222 0
M  V30 20 C 2.7061 -1.02255 1.79865 0
M  V30 21 C 3.1211 -1.79924 0.572088 0
M  V30 22 O 2.4781 -1.76638 -0.458842 0
M  V30 23 C 2.5291 -1.98094 3.02392 0
M  V30 24 O 2.2501 -1.23572 4.20311 0
M  V30 25 C 3.7511 -2.84884 3.39641 0
M  V30 26 H 0.9711 -0.302057 0.599168 0
M  V30 27 H 3.5151 -0.303465 2.02236 0
M  V30 28 H 1.6701 -2.65465 2.82147 0
M  V30 29 H 2.0841 -1.88172 4.89583 0
M  V30 30 H 3.5581 -3.47927 4.28545 0
M  V30 31 H 4.0351 -3.54665 2.59055 0
M  V30 32 H 4.6411 -2.23003 3.62146 0
M  V30 33 N 2.9562 -1.48159 -0.537278 0
M  V30 34 C 3.8862 -1.65029 -1.6519 0
M  V30 35 C 4.8672 -0.499281 -1.62607 0
M  V30 36 O 6.0522 -0.730972 -1.79918 0
M  V30 37 C 3.1822 -1.68303 -3.03795 0
M  V30 38 C 2.1362 -2.8283 -3.21234 0
M  V30 39 C 1.4622 -2.71189 -4.60826 0
M  V30 40 C 2.7622 -4.24211 -3.04701 0
M  V30 41 H 4.4562 -2.58341 -1.51328 0
M  V30 42 H 2.0022 -1.24325 -0.726585 0
M  V30 43 H 3.9552 -1.78693 -3.81637 0
M  V30 44 H 2.6792 -0.715635 -3.18663 0
M  V30 45 H 1.3382 -2.71983 -2.45807 0
M  V30 46 H 0.9862 -1.72435 -4.7252 0
M  V30 47 H 0.6862 -3.48035 -4.7344 0
M  V30 48 H 2.2102 -2.83537 -5.40777 0
M  V30 49 H 3.6242 -4.3593 -3.72341 0
M  V30 50 H 2.0212 -5.01998 -3.28813 0
M  V30 51 H 3.0912 -4.41184 -2.01209 0
M  V30 52 N 4.4343 0.785586 -1.36625 0
M  V30 53 C 5.8453 1.36101 -1.27803 0
M  V30 54 C 6.1963 1.96035 0.0804875 0
M  V30 55 O 5.3213 1.92834 0.982042 0
M  V30 56 C 5.9163 2.47442 -2.31426 0
M  V30 57 C 4.4753 3.00789 -2.26281 0
M  V30 58 C 3.6223 1.73896 -2.15999 0
M  V30 59 H 6.5733 0.586928 -1.47448 0
M  V30 60 H 6.5943 3.2656 -1.95291 0
M  V30 61 H 6.1063 2.03791 -3.30289 0
M  V30 62 H 4.2073 3.48851 -1.30896 0
M  V30 63 H 4.3203 3.57343 -3.19128 0
M  V30 64 H 2.6843 1.9628 -1.62316 0
M  V30 65 H 3.4673 1.32368 -3.16755 0
M  V30 66 N 5.9124 1.20967 1.01018 0
M  V30 67 C 7.1604 1.02172 1.74371 0
M  V30 68 C 7.4814 -0.446414 1.89821 0
M  V30 69 O 6.7514 -1.32234 1.44537 0
M  V30 70 H 5.3314 0.375066 0.646014 0
M  V30 71 H 7.9934 1.52187 1.21758 0
M  V30 72 H 7.0894 1.48538 2.74487 0
M  V30 73 N 7.3905 -1.2043 1.01659 0
M  V30 74 C 8.6385 -1.89423 0.704522 0
M  V30 75 C 8.9595 -1.79231 -0.768197 0
M  V30 76 O 8.2295 -1.1947 -1.55254 0
M  V30 77 H 6.8095 -0.701178 0.257602 0
M  V30 78 H 9.4715 -1.4626 1.28818 0
M  V30 79 H 8.5675 -2.96052 0.987916 0
M  V30 80 N 8.8686 -0.792821 -1.36206 0
M  V30 81 C 10.2796 -0.429513 -1.81692 0
M  V30 82 C 10.6306 1.04695 -1.65932 0
M  V30 83 O 9.7556 1.81256 -1.18218 0
M  V30 84 C 10.3506 -0.772831 -3.29868 0
M  V30 85 C 8.9096 -0.462307 -3.7355 0
M  V30 86 C 8.0566 -1.00569 -2.5842 0
M  V30 87 H 11.0076 -0.985672 -1.24379 0
M  V30 88 H 11.0286 -0.0651928 -3.80444 0
M  V30 89 H 10.5406 -1.84747 -3.41307 0
M  V30 90 H 8.6416 0.604158 -3.67669 0
M  V30 91 H 8.7546 -0.985299 -4.68859 0
M  V30 92 H 7.1186 -0.428734 -2.51066 0
M  V30 93 H 7.9016 -2.08616 -2.72643 0
M  V30 94 N 10.3467 1.47872 -0.545128 0
M  V30 95 C 11.5747 2.06889 -0.021084 0
M  V30 96 C 11.9897 1.39955 1.2672 0
M  V30 97 O 11.3467 0.492036 1.75742 0
M  V30 98 C 11.3977 3.60996 0.190817 0
M  V30 99 O 11.1187 4.25419 -1.04644 0
M  V30 100 C 12.6197 4.36849 0.753521 0
M  V30 101 H 9.8397 0.669785 -0.0403635 0
M  V30 102 H 12.3837 1.90049 -0.755095 0
M  V30 103 H 10.5387 3.77391 0.87492 0
M  V30 104 H 10.9527 5.17785 -0.836611 0
M  V30 105 H 12.4267 5.45399 0.851139 0
M  V30 106 H 12.9037 4.02306 1.762 0
M  V30 107 H 13.5097 4.25169 0.105503 0
M  V30 108 N 11.8248 0.280983 1.55075 0
M  V30 109 C 13.0728 -0.333455 1.9933 0
M  V30 110 C 13.3938 -1.55937 1.17085 0
M  V30 111 O 12.6638 -1.94143 0.261805 0
M  V30 112 H 11.2438 -0.126197 0.736263 0
M  V30 113 H 13.9058 0.387678 1.91005 0
M  V30 114 H 13.0018 -0.619292 3.05894 0
M  V30 115 N 13.3029 -1.57598 0.00835791 0
M  V30 116 C 14.2359 -2.04409 -1.01451 0
M  V30 117 C 15.2139 -0.935609 -1.32985 0
M  V30 118 O 16.3979 -1.20437 -1.45007 0
M  V30 119 C 13.5249 -2.44872 -2.33999 0
M  V30 120 C 12.5709 -3.66535 -2.18069 0
M  V30 121 S 13.4039 -5.14095 -1.4989 0
M  V30 122 C 14.5599 -5.57835 -2.8385 0
M  V30 123 H 14.7929 -2.90849 -0.615961 0
M  V30 124 H 12.3259 -1.53063 -0.202752 0
M  V30 125 H 14.2839 -2.68852 -3.10208 0
M  V30 126 H 12.9449 -1.58815 -2.70992 0
M  V30 127 H 12.1379 -3.92626 -3.16008 0
M  V30 128 H 11.7399 -3.426 -1.50004 0
M  V30 129 H 14.0319 -5.60806 -3.80136 0
M  V30 130 H 14.9749 -6.57667 -2.62449 0
M  V30 131 H 15.3829 -4.85421 -2.88144 0
M  V30 132 N 14.781 0.264519 -1.55364 0
M  V30 133 C 15.744 1.31046 -1.88042 0
M  V30 134 C 16.744 1.41943 -0.755569 0
M  V30 135 O 17.934 1.40947 -1.02369 0
M  V30 136 C 15.066 2.69067 -2.09323 0
M  V30 137 H 16.259 1.03297 -2.81549 0
M  V30 138 H 13.812 0.502989 -1.47986 0
M  V30 139 H 14.547 3.01982 -1.18226 0
M  V30 140 H 14.332 2.62542 -2.91229 0
M  V30 141 H 15.822 3.44623 -2.35848 0
M  V30 142 N 16.2591 1.48442 0.529413 0
M  V30 143 C 17.6751 1.34575 0.858004 0
M  V30 144 C 17.8751 0.3572 1.98309 0
M  V30 145 O 16.9311 -0.221379 2.51528 0
M  V30 146 C 18.2441 2.74617 1.22499 0
M  V30 147 C 19.7921 2.83109 1.33484 0
M  V30 148 C 20.2671 4.23854 1.73526 0
M  V30 149 N 21.7581 4.2653 1.80628 0
M  V30 150 C 22.4931 5.32372 2.12997 0
M  V30 151 N 21.9891 6.48491 2.43786 0
M  V30 152 N 23.7821 5.19766 2.14008 0
M  V30 153 H 15.9331 2.1133 -0.212925 0
M  V30 154 H 18.1961 0.947439 -0.0326199 0
M  V30 155 H 17.9021 3.4852 0.471905 0
M  V30 156 H 17.7761 3.08177 2.17501 0
M  V30 157 H 20.1631 2.09462 2.0787 0
M  V30 158 H 20.2441 2.53168 0.366027 0
M  V30 159 H 19.8881 4.98018 0.997013 0
M  V30 160 H 19.8181 4.5124 2.71459 0
M  V30 161 H 22.3091 3.42772 1.59108 0
M  V30 162 H 22.6221 7.24993 2.67592 0
M  V30 163 H 20.9671 6.51765 2.41304 0
M  V30 164 H 24.1581 4.28066 1.89412 0
M  V30 165 H 24.3311 6.02354 2.38902 0
M  V30 166 N 17.7372 -0.778329 1.37039 0
M  V30 167 C 19.1482 -1.35421 1.28523 0
M  V30 168 C 19.4992 -1.96075 -0.0700901 0
M  V30 169 O 18.6242 -1.93352 -0.971801 0
M  V30 170 C 19.2192 -2.46211 2.32735 0
M  V30 171 C 17.7782 -2.99585 2.27873 0
M  V30 172 C 16.9252 -1.72748 2.16918 0
M  V30 173 H 19.8762 -0.5791 1.47757 0
M  V30 174 H 19.8972 -3.2552 1.9702 0
M  V30 175 H 19.4092 -2.02036 3.31365 0
M  V30 176 H 17.5102 -3.48152 1.32745 0
M  V30 177 H 17.6232 -3.55646 3.21018 0
M  V30 178 H 15.9872 -1.95416 1.63354 0
M  V30 179 H 16.7702 -1.30686 3.17452 0
M  V30 180 N 19.2153 -1.21501 -1.00376 0
M  V30 181 C 20.4633 -1.03095 -1.73827 0
M  V30 182 C 20.7843 0.436341 -1.90055 0
M  V30 183 O 20.0543 1.31466 -1.45236 0
M  V30 184 H 18.6343 -0.378487 -0.644016 0
M  V30 185 H 21.2963 -1.52831 -1.20949 0
M  V30 186 H 20.3923 -1.49991 -2.73695 0
M  V30 187 N 20.6934 1.19889 -1.02296 0
M  V30 188 C 21.9414 1.89046 -0.714558 0
M  V30 189 C 22.2624 1.79636 0.758681 0
M  V30 190 O 21.5324 1.20292 1.54618 0
M  V30 191 H 20.1124 0.699802 -0.261317 0
M  V30 192 H 22.7744 1.45574 -1.29592 0
M  V30 193 H 21.8704 2.95524 -1.0036 0
M  V30 194 N 22.1715 0.800033 1.35784 0
M  V30 195 C 23.1345 0.211565 2.28221 0
M  V30 196 C 24.1345 -0.59728 1.49296 0
M  V30 197 O 25.3245 -0.416721 1.69142 0
M  V30 198 C 22.4565 -0.705846 3.33513 0
M  V30 199 H 23.6495 1.02677 2.81776 0
M  V30 200 H 21.2025 0.570211 1.45528 0
M  V30 201 H 21.9375 -1.54498 2.85133 0
M  V30 202 H 21.7225 -0.127655 3.91892 0
M  V30 203 H 23.2125 -1.11211 4.02519 0
M  V30 204 N 23.6496 -1.47581 0.552962 0
M  V30 205 C 25.0656 -1.5818 0.212424 0
M  V30 206 C 25.2656 -1.55213 -1.28496 0
M  V30 207 O 24.3216 -1.45329 -2.06484 0
M  V30 208 C 25.6346 -2.88865 0.835318 0
M  V30 209 C 27.1826 -3.0244 0.806156 0
M  V30 210 C 27.6576 -4.35819 1.40804 0
M  V30 211 N 29.1486 -4.42444 1.37103 0
M  V30 212 C 29.8836 -5.44202 1.80641 0
M  V30 213 N 29.3796 -6.52795 2.32015 0
M  V30 214 N 31.1726 -5.35222 1.71738 0
M  V30 215 H 23.3236 -1.47753 1.52587 0
M  V30 216 H 25.5866 -0.702941 0.636064 0
M  V30 217 H 25.2926 -2.9676 1.88749 0
M  V30 218 H 25.1666 -3.7579 0.325848 0
M  V30 219 H 27.5536 -2.94144 -0.237317 0
M  V30 220 H 27.6346 -2.17068 1.35334 0
M  V30 221 H 27.2786 -4.44871 2.45056 0
M  V30 222 H 27.2086 -5.19916 0.836338 0
M  V30 223 H 29.6996 -3.6456 0.995202 0
M  V30 224 H 30.0126 -7.26609 2.63171 0
M  V30 225 H 28.3576 -6.53696 2.36023 0
M  V30 226 H 31.5486 -4.49284 1.31382 0
M  V30 227 H 31.7216 -6.14389 2.05987 0
M  V30 228 N 25.1277 -0.289203 -1.54924 0
M  V30 229 C 26.5387 0.205791 -1.85562 0
M  V30 230 C 26.8897 1.54351 -1.2112 0
M  V30 231 O 26.0147 2.10435 -0.504601 0
M  V30 232 C 26.6097 0.380177 -3.3666 0
M  V30 233 C 25.1687 0.819395 -3.67373 0
M  V30 234 C 24.3157 -0.079159 -2.77187 0
M  V30 235 H 27.2667 -0.510577 -1.50262 0
M  V30 236 H 27.2877 1.21659 -3.60526 0
M  V30 237 H 26.7997 -0.593589 -3.83534 0
M  V30 238 H 24.9007 1.80413 -3.26009 0
M  V30 239 H 25.0137 0.646957 -4.74712 0
M  V30 240 H 23.3777 0.439565 -2.50878 0
M  V30 241 H 24.1607 -1.04906 -3.26878 0
M  V30 242 N 26.6058 1.57591 -0.0167156 0
M  V30 243 C 27.8458 1.93145 0.668902 0
M  V30 244 C 28.2098 0.892406 1.7 0
M  V30 245 O 29.4108 1.13373 2.43721 0
M  V30 246 C 27.6818 3.33678 1.28039 0
M  V30 247 S 29.2408 3.91142 1.9888 0
M  V30 248 H 26.0588 0.67593 0.220545 0
M  V30 249 H 28.6608 1.95347 -0.0774105 0
M  V30 250 H 27.3648 4.07126 0.517339 0
M  V30 251 H 26.8958 3.3489 2.06427 0
M  V30 252 H 28.9108 3.73571 3.26587 0
M  V30 253 N 28.0839 -0.256276 1.55502 0
M  V30 254 C 29.3089 -1.00766 1.81276 0
M  V30 255 C 29.7339 -1.78524 0.59252 0
M  V30 256 O 29.0919 -1.75413 -0.45827 0
M  V30 257 C 29.1399 -1.92869 3.04687 0
M  V30 258 O 28.2439 -3.019 2.80945 0
M  V30 259 H 27.5849 -0.287224 0.598664 0
M  V30 260 H 30.1149 -0.280109 2.02674 0
M  V30 261 H 30.1249 -2.34511 3.33869 0
M  V30 262 H 28.7999 -1.35689 3.93143 0
M  V30 263 H 27.3769 -2.64454 2.62904 0
M  V30 264 N 29.562 -1.4872 -0.521534 0
M  V30 265 C 30.973 -1.50607 -1.10337 0
M  V30 266 C 31.324 -0.280612 -1.94183 0
M  V30 267 O 30.449 0.611507 -2.0758 0
M  V30 268 C 31.044 -2.72903 -2.00772 0
M  V30 269 C 29.603 -2.77634 -2.54158 0
M  V30 270 C 28.75 -2.44241 -1.31307 0
M  V30 271 H 31.701 -1.55714 -0.306388 0
M  V30 272 H 31.722 -2.519 -2.85178 0
M  V30 273 H 31.234 -3.62077 -1.39721 0
M  V30 274 H 29.335 -1.92689 -3.18907 0
M  V30 275 H 29.448 -3.79283 -2.92714 0
M  V30 276 H 27.812 -1.95577 -1.63161 0
M  V30 277 H 28.595 -3.35666 -0.719943 0
M  V30 278 N 31.0401 0.771051 -1.3745 0
M  V30 279 C 32.2881 1.52661 -1.32435 0
M  V30 280 C 32.6091 1.9479 0.0905024 0
M  V30 281 O 31.8791 1.66348 1.03466 0
M  V30 282 H 30.4591 0.566218 -0.487244 0
M  V30 283 H 33.1211 0.917636 -1.71946 0
M  V30 284 H 32.2171 2.42568 -1.96385 0
M  V30 285 N 32.5182 1.22032 0.997298 0
M  V30 286 C 33.4482 1.01065 2.10495 0
M  V30 287 C 34.4292 -0.0669542 1.69968 0
M  V30 288 O 35.6142 0.0943987 1.9397 0
M  V30 289 C 32.7442 0.582874 3.42374 0
M  V30 290 C 31.6982 1.60592 3.96729 0
M  V30 291 C 31.0242 1.03412 5.24605 0
M  V30 292 C 32.3242 2.99478 4.27914 0
M  V30 293 H 34.0182 1.93708 2.28292 0
M  V30 294 H 31.5642 0.932761 1.09707 0
M  V30 295 H 33.5172 0.423332 4.19268 0
M  V30 296 H 32.2412 -0.379213 3.24391 0
M  V30 297 H 30.9002 1.75316 3.21963 0
M  V30 298 H 30.5482 0.063518 5.0296 0
M  V30 299 H 30.2482 1.71754 5.61938 0
M  V30 300 H 31.7722 0.886066 6.04137 0
M  V30 301 H 33.1862 2.88153 4.95622 0
M  V30 302 H 31.5832 3.64903 4.76409 0
M  V30 303 H 32.6532 3.49742 3.3587 0
M  V30 304 N 33.9963 -1.19345 1.0293 0
M  V30 305 C 34.9063 -2.26245 0.620515 0
M  V30 306 C 35.9223 -1.70486 -0.347928 0
M  V30 307 O 37.0983 -2.00347 -0.205704 0
M  V30 308 C 34.1633 -3.46693 -0.0218957 0
M  V30 309 C 33.2243 -4.17632 0.994102 0
M  V30 310 C 32.4573 -5.32329 0.382253 0
M  V30 311 O 32.6803 -5.64552 -0.814676 0
M  V30 312 O 31.6143 -5.91664 1.10531 0
M  V30 313 H 35.4403 -2.63453 1.51083 0
M  V30 314 H 33.0253 -1.26207 0.799513 0
M  V30 315 H 34.9073 -4.19683 -0.380072 0
M  V30 316 H 33.5823 -3.11333 -0.886209 0
M  V30 317 H 32.4893 -3.4676 1.40387 0
M  V30 318 H 33.8223 -4.56964 1.8288 0
M  V30 319 N 35.4744 -0.807222 -1.35358 0
M  V30 320 C 36.8904 -0.491038 -1.51858 0
M  V30 321 C 37.0904 0.987648 -1.75635 0
M  V30 322 O 36.1464 1.77265 -1.79815 0
M  V30 323 C 37.4594 -1.33695 -2.69344 0
M  V30 324 C 39.0074 -1.33246 -2.83222 0
M  V30 325 C 39.4824 -2.1625 -4.03733 0
M  V30 326 N 40.9734 -2.1379 -4.10911 0
M  V30 327 C 41.7084 -2.74772 -5.03277 0
M  V30 328 N 41.2044 -3.44684 -6.0097 0
M  V30 329 N 42.9974 -2.6441 -4.96028 0
M  V30 330 H 35.1484 -1.76485 -1.18181 0
M  V30 331 H 37.4114 -0.751199 -0.578276 0
M  V30 332 H 37.1174 -2.38634 -2.58354 0
M  V30 333 H 36.9914 -0.990618 -3.6396 0
M  V30 334 H 39.3784 -0.290911 -2.93663 0
M  V30 335 H 39.4594 -1.71866 -1.89461 0
M  V30 336 H 39.1034 -3.20445 -3.94052 0
M  V30 337 H 39.0334 -1.74989 -4.96675 0
M  V30 338 H 41.5244 -1.62923 -3.40976 0
M  V30 339 H 41.8374 -3.88501 -6.68047 0
M  V30 340 H 40.1824 -3.48788 -6.01142 0
M  V30 341 H 43.3734 -2.0938 -4.18662 0
M  V30 342 H 43.5464 -3.12225 -5.6782 0
M  V30 343 N 36.9525 1.47285 -0.560781 0
M  V30 344 C 37.9155 2.28535 0.174488 0
M  V30 345 C 38.9155 1.37153 0.839388 0
M  V30 346 O 40.1055 1.59748 0.694702 0
M  V30 347 C 37.2375 3.16934 1.25561 0
M  V30 348 H 38.4305 2.95012 -0.539262 0
M  V30 349 H 35.9835 1.53034 -0.317865 0
M  V30 350 H 36.7185 2.55157 2.00164 0
M  V30 351 H 36.5035 3.8419 0.783604 0
M  V30 352 H 37.9935 3.78143 1.77193 0
M  V30 353 N 38.4306 0.297415 1.54768 0
M  V30 354 C 39.8416 -0.195947 1.85669 0
M  V30 355 C 40.1926 -1.53707 1.21937 0
M  V30 356 O 39.3176 -2.10164 0.515754 0
M  V30 357 C 39.9126 -0.362318 3.36857 0
M  V30 358 C 38.4716 -0.799901 3.67802 0
M  V30 359 C 37.6186 0.0938578 2.77141 0
M  V30 360 H 40.5696 0.518538 1.4999 0
M  V30 361 H 40.5906 -1.19745 3.61167 0
M  V30 362 H 40.1026 0.613921 3.83214 0
M  V30 363 H 38.2036 -1.78682 3.26961 0
M  V30 364 H 38.3166 -0.621773 4.75048 0
M  V30 365 H 36.6806 -0.426254 2.51108 0
M  V30 366 H 37.4636 1.06639 3.26318 0
M  V30 367 N 39.9087 -1.5758 0.0250728 0
M  V30 368 C 41.3247 -1.56124 -0.331282 0
M  V30 369 C 41.5247 -1.03029 -1.73169 0
M  V30 370 O 40.5807 -0.675215 -2.43305 0
M  V30 371 C 41.8937 -3.00139 -0.183584 0
M  V30 372 C 43.4417 -3.11946 -0.256654 0
M  V30 373 C 43.9167 -4.57793 -0.137792 0
M  V30 374 N 45.4077 -4.6279 -0.194904 0
M  V30 375 C 46.1427 -5.7326 -0.126655 0
M  V30 376 N 45.6387 -6.928 -0.00755288 0
M  V30 377 N 47.4317 -5.61811 -0.180348 0
M  V30 378 H 39.5827 -1.90424 0.94087 0
M  V30 379 H 41.8457 -0.875761 0.362968 0
M  V30 380 H 41.5517 -3.4292 0.780927 0
M  V30 381 H 41.4257 -3.64899 -0.955448 0
M  V30 382 H 43.8127 -2.69079 -1.21162 0
M  V30 383 H 43.8937 -2.49915 0.545517 0
M  V30 384 H 43.5377 -5.01339 0.813739 0
M  V30 385 H 43.4677 -5.17798 -0.958775 0
M  V30 386 H 45.9587 -3.76807 -0.287267 0
M  V30 387 H 46.2717 -7.72791 0.0379428 0
M  V30 388 H 44.6167 -6.94995 0.0271731 0
M  V30 389 H 47.8077 -4.6731 -0.271767 0
M  V30 390 H 47.9807 -6.47882 -0.123697 0
M  V30 391 N 41.3868 0.248026 -1.55636 0
M  V30 392 C 42.8028 0.596483 -1.48035 0
M  V30 393 C 43.0028 1.88386 -0.715039 0
M  V30 394 O 42.0588 2.51319 -0.243944 0
M  V30 395 C 43.3718 0.700258 -2.92433 0
M  V30 396 C 44.9198 0.792659 -3.02797 0
M  V30 397 C 45.3948 0.928005 -4.485 0
M  V30 398 N 46.8858 0.992903 -4.52433 0
M  V30 399 C 47.6208 1.11687 -5.62418 0
M  V30 400 N 47.1168 1.20645 -6.82214 0
M  V30 401 N 48.9098 1.14994 -5.50212 0
M  V30 402 H 41.0608 -0.597109 -2.03834 0
M  V30 403 H 43.3238 -0.205925 -0.925364 0
M  V30 404 H 43.0298 -0.175658 -3.51261 0
M  V30 405 H 42.9038 1.57255 -3.42857 0
M  V30 406 H 45.2908 1.65903 -2.4405 0
M  V30 407 H 45.3718 -0.104762 -2.55585 0
M  V30 408 H 45.0158 0.0661971 -5.07857 0
M  V30 409 H 44.9458 1.84045 -4.93391 0
M  V30 410 H 47.4368 0.935064 -3.66149 0
M  V30 411 H 47.7498 1.30008 -7.61786 0
M  V30 412 H 46.0948 1.17605 -6.84977 0
M  V30 413 H 49.2858 1.07643 -4.55555 0
M  V30 414 H 49.4588 1.24311 -6.35965 0
M  V30 415 N 42.8649 1.48995 0.513639 0
M  V30 416 C 44.0899 1.61792 1.29762 0
M  V30 417 C 44.5149 0.284475 1.85936 0
M  V30 418 O 43.8729 -0.746185 1.65232 0
M  V30 419 C 43.9209 2.67993 2.41272 0
M  V30 420 O 43.0249 2.26287 3.44772 0
M  V30 421 H 42.3659 0.541963 0.38363 0
M  V30 422 H 44.8959 1.95097 0.616307 0
M  V30 423 H 44.9059 2.89772 2.87221 0
M  V30 424 H 43.5809 3.64791 1.9975 0
M  V30 425 H 42.1579 2.14788 3.04829 0
M  V30 426 N 44.343 -0.763751 1.37857 0
M  V30 427 C 45.589 -1.52483 1.33704 0
M  V30 428 C 45.922 -1.94051 -0.0759612 0
M  V30 429 O 45.197 -1.64675 -1.03501 0
M  V30 430 C 45.48 -2.78441 2.28348 0
M  V30 431 C 45.333 -2.43075 3.78463 0
M  V30 432 C 46.652 -3.80415 2.21298 0
M  V30 433 H 43.771 -0.553169 0.487005 0
M  V30 434 H 46.413 -0.875562 1.68624 0
M  V30 435 H 44.563 -3.33842 1.987 0
M  V30 436 H 46.235 -1.93527 4.18742 0
M  V30 437 H 44.478 -1.75666 3.96641 0
M  V30 438 H 45.149 -3.33149 4.40132 0
M  V30 439 H 47.625 -3.34527 2.47449 0
M  V30 440 H 46.501 -4.66257 2.89647 0
M  V30 441 H 46.762 -4.25262 1.20849 0
M  V30 442 N 45.8211 -1.22559 -0.990812 0
M  V30 443 C 47.0691 -1.04933 -1.72724 0
M  V30 444 C 47.3901 0.416158 -1.90508 0
M  V30 445 O 46.6601 1.29918 -1.46622 0
M  V30 446 H 45.2401 -0.385296 -0.639965 0
M  V30 447 H 47.9021 -1.54105 -1.19322 0
M  V30 448 H 46.9981 -1.52886 -2.72089 0
M  V30 449 N 47.2992 1.18797 -1.03562 0
M  V30 450 C 48.2092 2.25913 -0.632505 0
M  V30 451 C 49.2252 1.70668 0.338882 0
M  V30 452 O 50.4012 2.00453 0.195076 0
M  V30 453 C 47.4662 3.467 0.00350942 0
M  V30 454 C 46.5272 4.17098 -1.01624 0
M  V30 455 C 45.7602 5.32119 -0.410478 0
M  V30 456 O 45.9832 5.64976 0.784725 0
M  V30 457 O 44.9172 5.9107 -1.13667 0
M  V30 458 H 48.7432 2.62648 -1.52478 0
M  V30 459 H 46.3282 1.25781 -0.806195 0
M  V30 460 H 48.2102 4.19878 0.35781 0
M  V30 461 H 46.8852 3.11798 0.869686 0
M  V30 462 H 45.7922 3.4601 -1.42224 0
M  V30 463 H 47.1252 4.55987 -1.85301 0
M  V30 464 N 48.7773 0.814389 1.34928 0
M  V30 465 C 49.7073 0.244827 2.32213 0
M  V30 466 C 50.6883 -0.634024 1.57842 0
M  V30 467 O 51.8733 -0.562676 1.8587 0
M  V30 468 C 49.0033 -0.601106 3.42058 0
M  V30 469 C 47.9573 0.179896 4.27622 0
M  V30 470 C 47.2833 -0.788237 5.28858 0
M  V30 471 C 48.5833 1.38329 5.03649 0
M  V30 472 H 50.2773 1.05763 2.80097 0
M  V30 473 H 47.8233 0.510029 1.34665 0
M  V30 474 H 49.7763 -1.00968 4.09125 0
M  V30 475 H 48.5003 -1.44688 2.92802 0
M  V30 476 H 47.1593 0.569739 3.62146 0
M  V30 477 H 46.8073 -1.62973 4.75866 0
M  V30 478 H 46.5073 -0.269942 5.8698 0
M  V30 479 H 48.0313 -1.19485 5.98795 0
M  V30 480 H 49.4453 1.04918 5.63618 0
M  V30 481 H 47.8423 1.83662 5.71304 0
M  V30 482 H 48.9123 2.16592 4.33839 0
M  V30 483 N 50.2554 -1.46986 0.568584 0
M  V30 484 C 51.6714 -1.57946 0.229189 0
M  V30 485 C 51.8714 -1.56567 -1.26843 0
M  V30 486 O 50.9274 -1.47511 -2.04931 0
M  V30 487 C 52.2404 -2.87963 0.865909 0
M  V30 488 C 53.7884 -3.01568 0.838188 0
M  V30 489 C 54.2634 -4.34301 1.45419 0
M  V30 490 N 55.7544 -4.40965 1.41788 0
M  V30 491 C 56.4894 -5.42256 1.86403 0
M  V30 492 N 55.9854 -6.50297 2.38926 0
M  V30 493 N 57.7784 -5.3337 1.77405 0
M  V30 494 H 49.9294 -1.46126 1.54146 0
M  V30 495 H 52.1924 -0.696156 0.643484 0
M  V30 496 H 51.8984 -2.94742 1.91886 0
M  V30 497 H 51.7724 -3.75423 0.365687 0
M  V30 498 H 54.1594 -2.94379 -0.206106 0
M  V30 499 H 54.2404 -2.1562 1.37629 0
M  V30 500 H 53.8844 -4.42247 2.49761 0
M  V30 501 H 53.8144 -5.19 0.891435 0
M  V30 502 H 56.3054 -3.63484 1.03381 0
M  V30 503 H 56.6184 -7.23777 2.70863 0
M  V30 504 H 54.9634 -6.51155 2.42944 0
M  V30 505 H 58.1544 -4.47865 1.3614 0
M  V30 506 H 58.3274 -6.12169 2.12492 0
M  V30 507 N 51.7335 -0.305618 -1.54608 0
M  V30 508 C 52.6635 0.561482 -2.26649 0
M  V30 509 C 53.6445 1.13415 -1.26772 0
M  V30 510 O 54.8295 1.16262 -1.55553 0
M  V30 511 C 51.9595 1.73122 -3.01075 0
M  V30 512 C 50.9135 1.2887 -4.08138 0
M  V30 513 C 50.2395 2.54396 -4.70305 0
M  V30 514 C 51.5395 0.416578 -5.20636 0
M  V30 515 H 53.2335 -0.0393902 -2.99374 0
M  V30 516 H 50.7795 -0.020385 -1.43986 0
M  V30 517 H 52.7325 2.34396 -3.50195 0
M  V30 518 H 51.4565 2.3584 -2.25936 0
M  V30 519 H 50.1155 0.698991 -3.59875 0
M  V30 520 H 49.7635 3.15439 -3.918 0
M  V30 521 H 49.4635 2.25486 -5.42614 0
M  V30 522 H 50.9875 3.16464 -5.2219 0
M  V30 523 H 52.4015 0.935116 -5.65622 0
M  V30 524 H 50.7985 0.221046 -5.99693 0
M  V30 525 H 51.8685 -0.557162 -4.81688 0
M  V30 526 N 53.2116 1.57565 -0.0334293 0
M  V30 527 C 54.1416 2.13511 0.945265 0
M  V30 528 C 55.1226 1.05231 1.33643 0
M  V30 529 O 56.3076 1.33084 1.41429 0
M  V30 530 C 53.4376 2.6657 2.22616 0
M  V30 531 C 52.3916 3.79676 1.97561 0
M  V30 532 C 51.7176 4.1918 3.31952 0
M  V30 533 C 53.0176 5.0557 1.31135 0
M  V30 534 H 54.7116 2.95538 0.479325 0
M  V30 535 H 52.2576 1.42166 0.229115 0
M  V30 536 H 54.2106 3.04344 2.91466 0
M  V30 537 H 52.9346 1.8171 2.71384 0
M  V30 538 H 51.5936 3.42347 1.31127 0
M  V30 539 H 51.2416 3.31296 3.78487 0
M  V30 540 H 50.9416 4.95402 3.15992 0
M  V30 541 H 52.4656 4.59541 4.02063 0
M  V30 542 H 53.8796 5.40903 1.89992 0
M  V30 543 H 52.2766 5.86818 1.25559 0
M  V30 544 H 53.3466 4.84062 0.284894 0
M  V30 545 N 54.6897 -0.239769 1.55765 0
M  V30 546 C 55.9367 -0.966801 1.7793 0
M  V30 547 C 56.2647 -1.85046 0.599015 0
M  V30 548 O 55.5197 -1.91197 -0.417395 0
M  V30 549 C 55.8187 -1.852 3.05672 0
M  V30 550 C 55.4847 -1.1231 4.36689 0
M  V30 551 C 54.1467 -0.921689 4.72291 0
M  V30 552 C 56.4987 -0.607019 5.17653 0
M  V30 553 C 53.8267 -0.191996 5.86386 0
M  V30 554 C 56.1787 0.109241 6.32506 0
M  V30 555 C 54.8427 0.322073 6.66723 0
M  V30 556 H 54.1127 -0.353778 0.651093 0
M  V30 557 H 56.7597 -0.23634 1.90036 0
M  V30 558 H 55.0647 -2.64975 2.8861 0
M  V30 559 H 56.7617 -2.41635 3.20021 0
M  V30 560 H 53.3517 -1.29004 4.08725 0
M  V30 561 H 57.5357 -0.750153 4.90598 0
M  V30 562 H 52.7917 -0.0166949 6.11398 0
M  V30 563 H 56.9657 0.516737 6.9448 0
M  V30 564 H 54.5927 0.88944 7.54979 0
M  V30 565 N 56.1678 -1.49265 -0.50573 0
M  V30 566 C 57.0778 -1.68312 -1.63427 0
M  V30 567 C 58.0938 -0.565682 -1.64548 0
M  V30 568 O 59.2698 -0.839801 -1.83055 0
M  V30 569 C 56.3348 -1.74107 -2.99813 0
M  V30 570 C 55.3958 -2.97653 -3.09356 0
M  V30 571 C 54.6288 -3.03163 -4.39236 0
M  V30 572 O 54.8518 -2.16396 -5.27758 0
M  V30 573 O 53.7858 -3.9558 -4.53652 0
M  V30 574 H 57.6118 -2.63907 -1.50289 0
M  V30 575 H 55.1968 -1.32951 -0.681502 0
M  V30 576 H 57.0788 -1.803 -3.80881 0
M  V30 577 H 55.7538 -0.816901 -3.13223 0
M  V30 578 H 54.6608 -2.96981 -2.27493 0
M  V30 579 H 55.9938 -3.89535 -3.00871 0
M  V30 580 N 57.6459 0.756429 -1.3826 0
M  V30 581 C 58.6089 1.85176 -1.35065 0
M  V30 582 C 59.6089 1.58818 -0.251703 0
M  V30 583 O 60.7989 1.66615 -0.508433 0
M  V30 584 C 57.9309 3.22596 -1.10201 0
M  V30 585 H 59.1239 1.89417 -2.3251 0
M  V30 586 H 56.6769 0.95783 -1.23512 0
M  V30 587 H 57.4119 3.24025 -0.133504 0
M  V30 588 H 57.1969 3.43122 -1.89762 0
M  V30 589 H 58.6869 4.02673 -1.10654 0
M  V30 590 N 59.124 1.23083 0.984299 0
M  V30 591 C 60.54 0.992637 1.24975 0
M  V30 592 C 60.74 -0.308618 1.99123 0
M  V30 593 O 59.796 -1.02905 2.30579 0
M  V30 594 C 61.109 2.19698 2.05312 0
M  V30 595 C 62.657 2.24147 2.18465 0
M  V30 596 C 63.132 3.44157 3.02192 0
M  V30 597 N 64.623 3.44372 3.09777 0
M  V30 598 C 65.358 4.33886 3.74874 0
M  V30 599 N 64.854 5.3363 4.41827 0
M  V30 600 N 66.647 4.21639 3.71721 0
M  V30 601 H 58.798 2.06731 0.487453 0
M  V30 602 H 61.061 0.906339 0.277944 0
M  V30 603 H 60.767 3.1411 1.58201 0
M  V30 604 H 60.641 2.20465 3.06064 0
M  V30 605 H 63.028 1.30277 2.64786 0
M  V30 606 H 63.109 2.27415 1.17115 0
M  V30 607 H 62.753 4.38332 2.56568 0
M  V30 608 H 62.683 3.3813 4.03702 0
M  V30 609 H 65.174 2.72201 2.62135 0
M  V30 610 H 65.487 5.98196 4.89266 0
M  V30 611 H 63.832 5.37534 4.40548 0
M  V30 612 H 67.023 3.42962 3.18582 0
M  V30 613 H 67.196 4.91604 4.22173 0
M  V30 614 N 60.6021 -1.18246 1.0419 0
M  V30 615 C 61.8421 -1.89948 0.754916 0
M  V30 616 C 62.2061 -1.78608 -0.70451 0
M  V30 617 O 63.4071 -2.4503 -1.10516 0
M  V30 618 C 61.6781 -3.36305 1.20969 0
M  V30 619 S 63.2371 -4.26088 1.04854 0
M  V30 620 H 60.0551 -0.655897 0.274446 0
M  V30 621 H 62.6571 -1.42873 1.33445 0
M  V30 622 H 61.3611 -3.42089 2.26722 0
M  V30 623 H 60.8921 -3.8842 0.624004 0
M  V30 624 H 62.9071 -4.96189 -0.0332896 0
M  V30 625 N 62.0802 -0.821533 -1.34494 0
M  V30 626 C 63.0432 -0.247847 -2.27856 0
M  V30 627 C 64.0432 0.573453 -1.50227 0
M  V30 628 O 65.2332 0.389759 -1.69784 0
M  V30 629 C 62.3652 0.652698 -3.34593 0
M  V30 630 H 63.5582 -1.07146 -2.80107 0
M  V30 631 H 61.1112 -0.593291 -1.44602 0
M  V30 632 H 61.8462 1.49943 -2.87555 0
M  V30 633 H 61.6312 0.065292 -3.92046 0
M  V30 634 H 63.1212 1.04793 -4.04238 0
M  V30 635 N 63.5583 1.46682 -0.576371 0
M  V30 636 C 64.5213 2.28707 0.150239 0
M  V30 637 C 65.5213 1.38035 0.824794 0
M  V30 638 O 66.7113 1.60476 0.677719 0
M  V30 639 C 63.8433 3.18248 1.22192 0
M  V30 640 H 65.0363 2.94423 -0.570521 0
M  V30 641 H 62.5893 1.52688 -0.334078 0
M  V30 642 H 63.3243 2.57265 1.97447 0
M  V30 643 H 63.1093 3.85 0.742812 0
M  V30 644 H 64.5993 3.80001 1.73172 0
M  V30 645 N 65.0364 0.313813 1.54444 0
M  V30 646 C 66.2824 -0.292108 2.00685 0
M  V30 647 C 66.6154 -1.52548 1.20177 0
M  V30 648 O 65.8904 -1.92452 0.281531 0
M  V30 649 C 66.1734 -0.635968 3.5444 0
M  V30 650 C 66.0264 0.607437 4.4568 0
M  V30 651 C 67.3454 -1.45747 4.15266 0
M  V30 652 H 64.4644 -0.104697 0.729526 0
M  V30 653 H 67.1064 0.428457 1.85106 0
M  V30 654 H 65.2564 -1.24986 3.67846 0
M  V30 655 H 66.9284 1.24581 4.44159 0
M  V30 656 H 65.1714 1.23822 4.15753 0
M  V30 657 H 65.8424 0.322515 5.51057 0
M  V30 658 H 68.3184 -0.938645 4.05375 0
M  V30 659 H 67.1944 -1.66683 5.2298 0
M  V30 660 H 67.4554 -2.45063 3.67963 0
M  V30 661 N 66.5145 -1.57545 0.0417849 0
M  V30 662 C 67.4775 -2.09885 -0.92093 0
M  V30 663 C 68.4775 -1.01648 -1.24596 0
M  V30 664 O 69.6675 -1.27759 -1.1842 0
M  V30 665 C 66.7995 -2.57527 -2.23367 0
M  V30 666 H 67.9925 -2.96236 -0.467382 0
M  V30 667 H 65.5455 -1.5493 -0.206467 0
M  V30 668 H 66.2805 -1.74542 -2.73323 0
M  V30 669 H 66.0655 -3.36613 -2.01083 0
M  V30 670 H 67.5555 -2.98201 -2.92346 0
M  V30 671 N 67.9926 0.231505 -1.5589 0
M  V30 672 C 68.9556 1.27028 -1.90779 0
M  V30 673 C 69.9556 1.40308 -0.785507 0
M  V30 674 O 71.1456 1.38744 -1.05336 0
M  V30 675 C 68.2776 2.64566 -2.14983 0
M  V30 676 H 69.4706 0.973017 -2.83677 0
M  V30 677 H 67.0236 0.471486 -1.49019 0
M  V30 678 H 67.7586 2.99406 -1.24604 0
M  V30 679 H 67.5436 2.56305 -2.96732 0
M  V30 680 H 69.0336 3.39543 -2.43105 0
M  V30 681 N 69.4707 1.49531 0.497807 0
M  V30 682 C 70.4337 1.65916 1.58128 0
M  V30 683 C 71.4337 0.530825 1.51786 0
M  V30 684 O 72.6237 0.797342 1.54881 0
M  V30 685 C 69.7557 1.65951 2.9778 0
M  V30 686 H 70.9487 2.62556 1.44929 0
M  V30 687 H 68.5017 1.38611 0.722275 0
M  V30 688 H 69.2367 0.709065 3.16453 0
M  V30 689 H 69.0217 2.47897 3.03792 0
M  V30 690 H 70.5117 1.80673 3.76493 0
M  V30 691 N 70.9488 -0.749086 1.3866 0
M  V30 692 C 71.9118 -1.84457 1.36045 0
M  V30 693 C 72.9118 -1.58682 0.260122 0
M  V30 694 O 74.1018 -1.66343 0.517261 0
M  V30 695 C 71.2338 -3.22008 1.11911 0
M  V30 696 H 72.4268 -1.88182 2.33512 0
M  V30 697 H 69.9798 -0.951266 1.24019 0
M  V30 698 H 70.7148 -3.2395 0.150686 0
M  V30 699 H 70.4998 -3.42111 1.91579 0
M  V30 700 H 71.9898 -4.0208 1.12788 0
M  V30 701 N 72.4269 -1.23603 -0.977757 0
M  V30 702 C 73.3899 -1.02069 -2.05218 0
M  V30 703 C 74.3899 0.0184305 -1.60789 0
M  V30 704 O 75.5799 -0.221569 -1.72785 0
M  V30 705 C 72.7119 -0.544926 -3.36517 0
M  V30 706 H 73.9049 -1.9742 -2.25755 0
M  V30 707 H 71.4579 -1.05684 -1.15155 0
M  V30 708 H 72.1929 0.412241 -3.21669 0
M  V30 709 H 71.9779 -1.2948 -3.70105 0
M  V30 710 H 73.4679 -0.414985 -4.15533 0
M  V30 711 N 73.905 1.17692 -1.04816 0
M  V30 712 C 74.868 2.19787 -0.650117 0
M  V30 713 C 75.868 1.58044 0.296427 0
M  V30 714 O 77.058 1.74012 0.0808097 0
M  V30 715 C 74.19 3.40869 0.0456987 0
M  V30 716 H 75.383 2.56516 -1.5537 0
M  V30 717 H 72.936 1.31708 -0.841594 0
M  V30 718 H 73.671 3.09681 0.962726 0
M  V30 719 H 73.456 3.86928 -0.634727 0
M  V30 720 H 74.946 4.16445 0.310432 0
M  V30 721 N 75.3831 0.828654 1.34056 0
M  V30 722 C 76.6311 0.41863 1.97717 0
M  V30 723 C 76.9521 -1.02314 1.66002 0
M  V30 724 O 76.2221 -1.71119 0.953683 0
M  V30 725 H 74.8021 0.151809 0.731412 0
M  V30 726 H 77.4641 1.05936 1.63596 0
M  V30 727 H 76.5601 0.542318 3.07352 0
M  V30 728 N 76.8612 -1.46375 0.584142 0
M  V30 729 C 77.7712 -2.34115 -0.150728 0
M  V30 730 C 78.7872 -1.49838 -0.884567 0
M  V30 731 O 79.9632 -1.82704 -0.847429 0
M  V30 732 C 77.0282 -3.2705 -1.15062 0
M  V30 733 C 76.0892 -4.27228 -0.421293 0
M  V30 734 C 75.3222 -5.15722 -1.37355 0
M  V30 735 O 75.5452 -5.07176 -2.61014 0
M  V30 736 O 74.4792 -5.95383 -0.883355 0
M  V30 737 H 78.3052 -2.98309 0.569708 0
M  V30 738 H 75.8902 -1.45373 0.344535 0
M  V30 739 H 77.7722 -3.84381 -1.72712 0
M  V30 740 H 76.4472 -2.65451 -1.8525 0
M  V30 741 H 75.3542 -3.7358 0.197085 0
M  V30 742 H 76.6872 -4.91616 0.239641 0
M  V30 743 N 78.3393 -0.321999 -1.54275 0
M  V30 744 C 79.7503 0.166384 -1.85957 0
M  V30 745 C 80.1013 1.51747 -1.24367 0
M  V30 746 O 79.2263 2.09317 -0.549124 0
M  V30 747 C 79.8213 0.308681 -3.37391 0
M  V30 748 C 78.3803 0.741286 -3.69028 0
M  V30 749 C 77.5273 -0.137937 -2.76957 0
M  V30 750 H 80.4783 -0.542335 -1.49146 0
M  V30 751 H 80.4993 1.13984 -3.63026 0
M  V30 752 H 80.0113 -0.674809 -3.82188 0
M  V30 753 H 78.1123 1.73458 -3.29762 0
M  V30 754 H 78.2253 0.546118 -4.75977 0
M  V30 755 H 76.5893 0.386251 -2.51754 0
M  V30 756 H 77.3723 -1.11816 -3.2458 0
M  V30 757 N 79.8174 1.5752 -0.0501392 0
M  V30 758 C 81.2334 1.56631 0.306402 0
M  V30 759 C 81.4334 1.0577 1.71508 0
M  V30 760 O 80.4894 0.713837 2.422 0
M  V30 761 C 81.8024 3.00393 0.135811 0
M  V30 762 C 83.3504 3.12315 0.206993 0
M  V30 763 C 83.8254 4.57954 0.064944 0
M  V30 764 N 85.3164 4.63041 0.121254 0
M  V30 765 C 86.0514 5.73389 0.0354381 0
M  V30 766 N 85.5474 6.92724 -0.102666 0
M  V30 767 N 87.3404 5.62026 0.090946 0
M  V30 768 H 79.4914 1.88903 -0.971046 0
M  V30 769 H 81.7544 0.869876 -0.376855 0
M  V30 770 H 81.4604 3.41635 -0.835384 0
M  V30 771 H 81.3344 3.66373 0.897275 0
M  V30 772 H 83.7214 2.70973 1.16866 0
M  V30 773 H 83.8024 2.49016 -0.585208 0
M  V30 774 H 83.4464 4.99981 -0.893394 0
M  V30 775 H 83.3764 5.19258 0.876277 0
M  V30 776 H 85.8674 3.77216 0.227284 0
M  V30 777 H 86.1804 7.72633 -0.160882 0
M  V30 778 H 84.5254 6.94864 -0.137737 0
M  V30 779 H 87.7164 4.67684 0.197388 0
M  V30 780 H 87.8894 6.47997 0.0206089 0
M  V30 781 N 81.2955 -0.223234 1.56011 0
M  V30 782 C 82.2585 -1.26014 1.9145 0
M  V30 783 C 83.2585 -1.3989 0.792937 0
M  V30 784 O 84.4485 -1.38184 1.0607 0
M  V30 785 C 81.5805 -2.63422 2.16383 0
M  V30 786 H 82.7735 -0.95796 2.84189 0
M  V30 787 H 80.3265 -0.463576 1.49267 0
M  V30 788 H 81.0615 -2.98741 1.2619 0
M  V30 789 H 80.8465 -2.54728 2.98088 0
M  V30 790 H 82.3365 -3.38249 2.44903 0
M  V30 791 N 82.7736 -1.49793 -0.48987 0
M  V30 792 C 84.1896 -1.36803 -0.822022 0
M  V30 793 C 84.3896 -0.409652 -1.97292 0
M  V30 794 O 83.4456 0.154614 -2.52026 0
M  V30 795 C 84.7586 -2.77768 -1.15175 0
M  V30 796 C 86.3066 -2.86549 -1.25931 0
M  V30 797 C 86.7816 -4.28306 -1.62228 0
M  V30 798 N 88.2726 -4.31169 -1.69256 0
M  V30 799 C 89.0076 -5.37832 -1.98807 0
M  V30 800 N 88.5036 -6.54726 -2.26507 0
M  V30 801 N 90.2966 -5.25258 -2.00152 0
M  V30 802 H 82.4476 -2.10691 0.268881 0
M  V30 803 H 84.7106 -0.946241 0.057728 0
M  V30 804 H 84.4166 -3.49648 -0.379335 0
M  V30 805 H 84.2906 -3.13836 -2.09253 0
M  V30 806 H 86.6776 -2.14899 -2.02243 0
M  V30 807 H 86.7586 -2.54049 -0.298776 0
M  V30 808 H 86.4026 -5.00486 -0.864622 0
M  V30 809 H 86.3326 -4.58279 -2.594 0
M  V30 810 H 88.8236 -3.4687 -1.49965 0
M  V30 811 H 89.1366 -7.31833 -2.48276 0
M  V30 812 H 87.4816 -6.57933 -2.23939 0
M  V30 813 H 90.6726 -4.32938 -1.77996 0
M  V30 814 H 90.8456 -6.08476 -2.22848 0
M  V30 815 N 84.2517 0.741722 -1.39055 0
M  V30 816 C 85.4997 1.49818 -1.35643 0
M  V30 817 C 85.8207 1.94938 0.0491642 0
M  V30 818 O 85.0907 1.68505 0.999141 0
M  V30 819 H 83.6707 0.555755 -0.499144 0
M  V30 820 H 86.3327 0.880957 -1.73854 0
M  V30 821 H 85.4287 2.38348 -2.01486 0
M  V30 822 N 85.7298 1.2412 0.971189 0
M  V30 823 C 86.6928 1.03156 2.04674 0
M  V30 824 C 87.6928 -0.00990322 1.60797 0
M  V30 825 O 88.8828 0.230729 1.72665 0
M  V30 826 C 86.0148 0.562765 3.36223 0
M  V30 827 H 87.2078 1.98614 2.24705 0
M  V30 828 H 84.7608 1.06293 1.14593 0
M  V30 829 H 85.4958 -0.395176 3.21883 0
M  V30 830 H 85.2808 1.31441 3.69413 0
M  V30 831 H 86.7708 0.437015 4.15307 0
M  V30 832 N 87.2079 -1.17134 1.05439 0
M  V30 833 C 88.1549 -2.21235 0.657539 0
M  V30 834 C 89.1249 -1.62551 -0.341543 0
M  V30 835 O 90.3099 -1.89379 -0.232393 0
M  V30 836 C 87.4499 -3.45076 0.0410575 0
M  V30 837 C 86.5629 -4.18042 1.08927 0
M  V30 838 C 85.6979 -5.29376 0.439848 0
M  V30 839 C 84.7369 -5.94132 1.4722 0
M  V30 840 N 83.8739 -6.96975 0.846756 0
M  V30 841 H 88.7139 -2.54534 1.54972 0
M  V30 842 H 86.2509 -1.25028 0.775006 0
M  V30 843 H 88.2089 -4.15862 -0.33383 0
M  V30 844 H 86.8389 -3.12353 -0.814568 0
M  V30 845 H 85.8909 -3.45945 1.58196 0
M  V30 846 H 87.2029 -4.62306 1.87282 0
M  V30 847 H 86.3569 -6.06699 0.0115125 0
M  V30 848 H 85.0959 -4.86251 -0.375656 0
M  V30 849 H 84.1009 -5.15538 1.91052 0
M  V30 850 H 85.3259 -6.39337 2.28965 0
M  V30 851 H 83.2719 -6.5598 0.0518075 0
M  V30 852 H 83.1889 -7.39565 1.5678 0
M  V30 853 H 84.4569 -7.78239 0.443277 0
M  V30 854 N 88.686 -0.835752 -1.33615 0
M  V30 855 C 90.102 -0.523139 -1.50783 0
M  V30 856 C 90.302 0.950171 -1.77691 0
M  V30 857 O 89.358 1.73411 -1.83534 0
M  V30 858 C 90.671 -1.39378 -2.66448 0
M  V30 859 C 92.219 -1.39223 -2.80332 0
M  V30 860 C 92.694 -2.24765 -3.99055 0
M  V30 861 N 94.185 -2.22458 -4.06284 0
M  V30 862 C 94.92 -2.85386 -4.97336 0
M  V30 863 N 94.416 -3.57354 -5.93523 0
M  V30 864 N 96.209 -2.74872 -4.90308 0
M  V30 865 H 88.36 -1.78952 -1.14411 0
M  V30 866 H 90.623 -0.763297 -0.562212 0
M  V30 867 H 90.329 -2.44061 -2.53234 0
M  V30 868 H 90.203 -1.0676 -3.61776 0
M  V30 869 H 92.59 -0.353136 -2.92979 0
M  V30 870 H 92.671 -1.75846 -1.85773 0
M  V30 871 H 92.315 -3.28732 -3.87167 0
M  V30 872 H 92.245 -1.85485 -4.92852 0
M  V30 873 H 94.736 -1.70119 -3.37443 0
M  V30 874 H 95.049 -4.02584 -6.59656 0
M  V30 875 H 93.394 -3.61461 -5.93608 0
M  V30 876 H 96.585 -2.18213 -4.14126 0
M  V30 877 H 96.758 -3.24199 -5.61069 0
M  V30 878 N 90.1641 1.46063 -0.591896 0
M  V30 879 C 91.5801 1.57561 -0.254288 0
M  V30 880 C 91.7801 1.58565 1.24336 0
M  V30 881 O 90.8361 1.50753 2.02558 0
M  V30 882 C 92.1491 2.86549 -0.911611 0
M  V30 883 C 93.6971 3.00197 -0.886059 0
M  V30 884 C 94.1721 4.31933 -1.5231 0
M  V30 885 N 95.6631 4.38654 -1.48786 0
M  V30 886 C 96.3981 5.39222 -1.95006 0
M  V30 887 N 95.8941 6.46414 -2.49241 0
M  V30 888 N 97.6871 5.3048 -1.85868 0
M  V30 889 H 89.8381 1.43655 -1.56451 0
M  V30 890 H 92.1011 0.68583 -0.654478 0
M  V30 891 H 91.8071 2.91651 -1.96551 0
M  V30 892 H 91.6811 3.74794 -0.425368 0
M  V30 893 H 94.0681 2.9467 0.159246 0
M  V30 894 H 94.1491 2.13403 -1.41041 0
M  V30 895 H 93.7931 4.38217 -2.56765 0
M  V30 896 H 93.7231 5.17516 -0.973891 0
M  V30 897 H 96.2141 3.61793 -1.09151 0
M  V30 898 H 96.5271 7.19376 -2.82344 0
M  V30 899 H 94.8721 6.47208 -2.53272 0
M  V30 900 H 98.0631 4.45643 -1.43248 0
M  V30 901 H 98.2361 6.08711 -2.22204 0
M  V30 902 N 91.6422 0.330177 1.54103 0
M  V30 903 C 92.8902 -0.269871 2.0029 0
M  V30 904 C 93.2112 -1.52133 1.21986 0
M  V30 905 O 92.4812 -1.93212 0.323438 0
M  V30 906 H 91.0612 -0.10271 0.739905 0
M  V30 907 H 93.7232 0.448249 1.89675 0
M  V30 908 H 92.8192 -0.52166 3.07709 0
M  V30 909 N 93.1203 -1.57491 0.0584922 0
M  V30 910 C 94.3683 -1.92597 -0.612436 0
M  V30 911 C 94.6893 -0.938162 -1.70949 0
M  V30 912 O 93.9593 0.0158301 -1.95894 0
M  V30 913 H 92.5393 -0.710964 -0.229214 0
M  V30 914 H 95.2013 -1.94571 0.113218 0
M  V30 915 H 94.2973 -2.94038 -1.04633 0
M  V30 916 N 94.5984 0.214957 -1.56127 0
M  V30 917 C 95.5304 1.29004 -1.89448 0
M  V30 918 C 96.5434 1.42716 -0.783326 0
M  V30 919 O 97.7324 1.43496 -1.06166 0
M  V30 920 C 94.8324 2.66482 -2.09381 0
M  V30 921 C 94.0054 2.74633 -3.40434 0
M  V30 922 C 93.0644 3.9317 -3.49719 0
M  V30 923 O 92.0904 3.812 -4.227 0
M  V30 924 N 93.2924 5.07765 -2.81346 0
M  V30 925 H 96.0574 1.00743 -2.82261 0
M  V30 926 H 93.6184 0.40497 -1.56753 0
M  V30 927 H 95.6104 3.44173 -2.12901 0
M  V30 928 H 94.1804 2.87314 -1.23163 0
M  V30 929 H 93.4004 1.83368 -3.48955 0
M  V30 930 H 94.6884 2.77054 -4.26754 0
M  V30 931 H 94.0864 5.20386 -2.21843 0
M  V30 932 H 92.6434 5.83474 -2.90519 0
M  V30 933 N 96.0765 1.50051 0.48192 0
M  V30 934 C 97.3225 1.60736 1.2366 0
M  V30 935 C 97.6555 0.301786 1.91841 0
M  V30 936 O 96.9305 -0.696025 1.8162 0
M  V30 937 C 97.2135 2.78009 2.28874 0
M  V30 938 C 97.0665 4.18416 1.65069 0
M  V30 939 C 98.3855 2.90867 3.30279 0
M  V30 940 H 95.5045 0.585031 0.448228 0
M  V30 941 H 98.1465 1.82402 0.531946 0
M  V30 942 H 96.2965 2.59667 2.88973 0
M  V30 943 H 97.9685 4.48322 1.0865 0
M  V30 944 H 96.2115 4.23177 0.954148 0
M  V30 945 H 96.8825 4.96381 2.41474 0
M  V30 946 H 99.3585 3.07623 2.80191 0
M  V30 947 H 98.2345 3.74566 4.01238 0
M  V30 948 H 98.4955 2.01021 3.93755 0
M  V30 949 N 97.5546 -0.734337 1.39446 0
M  V30 950 C 98.9656 -1.31264 1.32766 0
M  V30 951 C 99.3166 -1.96198 -0.00767497 0
M  V30 952 O 98.4416 -1.96346 -0.909796 0
M  V30 953 C 99.0366 -2.38682 2.4045 0
M  V30 954 C 97.5956 -2.92184 2.37288 0
M  V30 955 C 96.7426 -1.6576 2.22304 0
M  V30 956 H 99.6936 -0.531799 1.49525 0
M  V30 957 H 99.7146 -3.19087 2.07276 0
M  V30 958 H 99.2266 -1.91392 3.37625 0
M  V30 959 H 97.3276 -3.43752 1.43754 0
M  V30 960 H 97.4406 -3.45253 3.3217 0
M  V30 961 H 95.8046 -1.9012 1.69489 0
M  V30 962 H 96.5876 -1.20521 3.21449 0
M  V30 963 N 99.0327 -1.24633 -0.964593 0
M  V30 964 C 99.9807 -1.03917 -2.08096 0
M  V30 965 C 100.975 0.0268581 -1.69379 0
M  V30 966 O 102.181 -0.127952 -1.79545 0
M  V30 967 H 98.5557 -0.319044 -0.680966 0
M  V30 968 H 100.527 -1.98581 -2.22729 0
M  V30 969 C 99.2757 -0.663983 -3.41301 0
M  V30 970 H 98.5987 -1.47605 -3.71555 0
M  V30 971 H 100.039 -0.558663 -4.20303 0
M  V30 972 C 98.4977 0.629169 -3.30973 0
M  V30 973 O 99.0277 1.67404 -3.65156 0
M  V30 974 N 97.2337 0.611057 -2.84103 0
M  V30 975 H 96.7807 -0.239593 -2.56483 0
M  V30 976 H 96.7387 1.47647 -2.77575 0
M  V30 977 N 100.511 1.16574 -1.06058 0
M  V30 978 C 101.759 1.86677 -0.77434 0
M  V30 979 C 102.08 1.81959 0.701147 0
M  V30 980 O 101.35 1.2515 1.50713 0
M  V30 981 H 99.9298 0.691134 -0.283449 0
M  V30 982 H 102.592 1.41378 -1.34158 0
M  V30 983 H 101.688 2.92181 -1.09711 0
M  V30 984 N 101.989 0.842826 1.3317 0
M  V30 985 C 102.919 0.294028 2.31641 0
M  V30 986 C 103.9 -0.600401 1.59151 0
M  V30 987 O 105.085 -0.523124 1.87022 0
M  V30 988 C 102.215 -0.528416 3.43257 0
M  V30 989 C 101.169 0.27056 4.27144 0
M  V30 990 C 100.495 -0.675881 5.30411 0
M  V30 991 C 101.795 1.48981 5.00602 0
M  V30 992 H 103.489 1.11681 2.77791 0
M  V30 993 H 101.035 0.538478 1.33553 0
M  V30 994 H 102.988 -0.922674 4.11175 0
M  V30 995 H 101.712 -1.38445 2.95805 0
M  V30 996 H 100.371 0.646427 3.60856 0
M  V30 997 H 100.019 -1.52842 4.79216 0
M  V30 998 H 99.7189 -0.145374 5.8742 0
M  V30 999 H 101.243 -1.06757 6.01195 0
M  V30 1000 H 102.657 1.16849 5.61266 0
M  V30 1001 H 101.054 1.95739 5.6728 0
M  V30 1002 H 102.124 2.25746 4.29147 0
M  V30 1003 N 103.467 -1.45747 0.599634 0
M  V30 1004 C 104.878 -1.85853 0.177681 0
M  V30 1005 C 105.229 -1.50102 -1.26348 0
M  V30 1006 O 104.354 -0.923905 -1.95686 0
M  V30 1007 C 104.949 -3.37326 0.315688 0
M  V30 1008 C 103.508 -3.76365 -0.0515144 0
M  V30 1009 C 102.655 -2.69722 0.643822 0
M  V30 1010 H 105.606 -1.36661 0.806814 0
M  V30 1011 H 105.627 -3.77778 -0.454321 0
M  V30 1012 H 105.139 -3.63315 1.36468 0
M  V30 1013 H 103.24 -3.55993 -1.09999 0
M  V30 1014 H 103.353 -4.77916 0.336594 0
M  V30 1015 H 101.717 -2.54567 0.0822881 0
M  V30 1016 H 102.5 -2.98549 1.6948 0
M  V30 1017 N 104.945 -0.338344 -1.53925 0
M  V30 1018 C 106.361 0.0137736 -1.59594 0
M  V30 1019 C 106.561 1.49186 -1.35447 0
M  V30 1020 O 105.617 2.24987 -1.14616 0
M  V30 1021 C 106.93 -0.41773 -2.97784 0
M  V30 1022 C 108.478 -0.369633 -3.1081 0
M  V30 1023 C 108.953 -0.776524 -4.51369 0
M  V30 1024 N 110.444 -0.730506 -4.57403 0
M  V30 1025 C 111.179 -1.01736 -5.64303 0
M  V30 1026 N 110.675 -1.3721 -6.79077 0
M  V30 1027 N 112.468 -0.941942 -5.54151 0
M  V30 1028 H 104.619 -1.3012 -1.67876 0
M  V30 1029 H 106.882 -0.530082 -0.78595 0
M  V30 1030 H 106.588 -1.44811 -3.20504 0
M  V30 1031 H 106.462 0.209729 -3.76616 0
M  V30 1032 H 108.849 0.651568 -2.87817 0
M  V30 1033 H 108.93 -1.03223 -2.34049 0
M  V30 1034 H 108.574 -1.79571 -4.75096 0
M  V30 1035 H 108.504 -0.0914649 -5.26521 0
M  V30 1036 H 110.995 -0.468783 -3.74981 0
M  V30 1037 H 111.308 -1.57597 -7.5656 0
M  V30 1038 H 109.653 -1.4105 -6.80536 0
M  V30 1039 H 112.844 -0.664184 -4.63364 0
M  V30 1040 H 113.017 -1.16884 -6.37371 0
M  V30 1041 N 106.423 1.57458 -0.0668435 0
M  V30 1042 C 107.386 2.11323 0.887422 0
M  V30 1043 C 108.386 1.03618 1.22964 0
M  V30 1044 O 109.576 1.29626 1.16373 0
M  V30 1045 C 106.708 2.61048 2.19242 0
M  V30 1046 H 107.901 2.96942 0.420194 0
M  V30 1047 H 105.454 1.55239 0.181793 0
M  V30 1048 H 106.189 1.78868 2.70512 0
M  V30 1049 H 105.974 3.39769 1.95702 0
M  V30 1050 H 107.464 3.02814 2.87565 0
M  V30 1051 N 107.901 -0.206675 1.56239 0
M  V30 1052 C 109.312 -0.772383 1.69974 0
M  V30 1053 C 109.663 -1.84353 0.671436 0
M  V30 1054 O 108.788 -2.15695 -0.174491 0
M  V30 1055 C 109.383 -1.40779 3.08167 0
M  V30 1056 C 107.942 -1.92072 3.23706 0
M  V30 1057 C 107.089 -0.786347 2.65917 0
M  V30 1058 H 110.04 0.0182223 1.5869 0
M  V30 1059 H 110.061 -2.27696 3.04852 0
M  V30 1060 H 109.573 -0.627958 3.82986 0
M  V30 1061 H 107.674 -2.7281 2.53782 0
M  V30 1062 H 107.787 -2.09046 4.31087 0
M  V30 1063 H 106.151 -1.1976 2.24788 0
M  V30 1064 H 106.934 -0.0189416 3.43295 0
M  V30 1065 N 109.379 -1.50304 -0.473955 0
M  V30 1066 C 110.79 -1.54042 -1.0549 0
M  V30 1067 C 111.141 -0.342248 -1.93192 0
M  V30 1068 O 110.266 0.545157 -2.09421 0
M  V30 1069 C 110.861 -2.79152 -1.91989 0
M  V30 1070 C 109.42 -2.8558 -2.45196 0
M  V30 1071 C 108.567 -2.48295 -1.2347 0
M  V30 1072 H 111.518 -1.5661 -0.256693 0
M  V30 1073 H 111.539 -2.60845 -2.7702 0
M  V30 1074 H 111.051 -3.66339 -1.28131 0
M  V30 1075 H 109.152 -2.02738 -3.12615 0
M  V30 1076 H 109.265 -3.88403 -2.80499 0
M  V30 1077 H 107.629 -2.00669 -1.56856 0
M  V30 1078 H 108.412 -3.37787 -0.612789 0
M  V30 1079 N 110.857 0.726932 -1.39834 0
M  V30 1080 C 111.82 1.82269 -1.38962 0
M  V30 1081 C 112.82 1.58248 -0.285334 0
M  V30 1082 O 114.01 1.65499 -0.54366 0
M  V30 1083 C 111.142 3.20186 -1.17019 0
M  V30 1084 H 112.335 1.84443 -2.36476 0
M  V30 1085 H 109.888 0.931416 -1.25516 0
M  V30 1086 H 110.623 3.23669 -0.202204 0
M  V30 1087 H 110.408 3.3902 -1.96998 0
M  V30 1088 H 111.898 4.00235 -1.1917 0
M  V30 1089 N 112.336 1.25143 0.95797 0
M  V30 1090 C 113.747 1.08851 1.51685 0
M  V30 1091 C 114.098 -0.33687 1.93286 0
M  V30 1092 O 113.223 -1.22644 1.7829 0
M  V30 1093 C 113.818 1.96978 2.75654 0
M  V30 1094 C 112.377 1.84881 3.27866 0
M  V30 1095 C 111.524 1.91329 2.0072 0
M  V30 1096 H 114.475 1.38478 0.77522 0
M  V30 1097 H 114.496 1.5078 3.4935 0
M  V30 1098 H 114.008 3.00712 2.45345 0
M  V30 1099 H 112.109 0.840182 3.63004 0
M  V30 1100 H 112.222 2.6951 3.96107 0
M  V30 1101 H 110.586 1.35174 2.15871 0
M  V30 1102 H 111.369 2.96661 1.72764 0
M  V30 1103 N 113.814 -1.1601 1.06675 0
M  V30 1104 C 115.06 -1.86909 0.786945 0
M  V30 1105 C 115.393 -1.81717 -0.685018 0
M  V30 1106 O 114.668 -1.23551 -1.50218 0
M  V30 1107 C 114.951 -3.36313 1.28707 0
M  V30 1108 C 114.804 -3.50175 2.82308 0
M  V30 1109 C 116.123 -4.3084 0.898071 0
M  V30 1110 H 113.242 -0.678677 0.287343 0
M  V30 1111 H 115.884 -1.36336 1.32334 0
M  V30 1112 H 114.034 -3.79513 0.830768 0
M  V30 1113 H 115.706 -3.15886 3.36175 0
M  V30 1114 H 113.949 -2.91959 3.20847 0
M  V30 1115 H 114.62 -4.55116 3.12368 0
M  V30 1116 H 117.096 -3.95561 1.29114 0
M  V30 1117 H 115.972 -5.33876 1.27543 0
M  V30 1118 H 116.233 -4.41662 -0.196651 0
M  V30 1119 N 115.292 -0.849877 -1.32721 0
M  V30 1120 C 116.541 -0.447175 -1.96681 0
M  V30 1121 C 116.854 1.00135 -1.68025 0
M  V30 1122 O 118.06 1.50926 -2.25685 0
M  V30 1123 C 116.516 -0.7487 -3.52026 0
M  V30 1124 C 116.124 -2.21264 -3.89546 0
M  V30 1125 C 117.868 -0.413487 -4.22481 0
M  V30 1126 C 115.775 -2.45763 -5.37917 0
M  V30 1127 H 114.705 -0.163486 -0.736063 0
M  V30 1128 H 117.356 -1.03999 -1.51183 0
M  V30 1129 H 115.738 -0.0853727 -3.95908 0
M  V30 1130 H 116.912 -2.91736 -3.56689 0
M  V30 1131 H 115.227 -2.5119 -3.32103 0
M  V30 1132 H 117.824 -0.574017 -5.3161 0
M  V30 1133 H 118.167 0.644492 -4.11281 0
M  V30 1134 H 118.7 -1.03251 -3.84167 0
M  V30 1135 H 115.439 -3.50168 -5.54132 0
M  V30 1136 H 114.959 -1.79864 -5.72197 0
M  V30 1137 H 116.638 -2.29471 -6.0494 0
M  V30 1138 N 116.77 1.45427 -0.607355 0
M  V30 1139 C 118.181 1.85756 -0.187535 0
M  V30 1140 C 118.532 1.5077 1.25551 0
M  V30 1141 O 117.657 0.93427 1.95193 0
M  V30 1142 C 118.252 3.37154 -0.333572 0
M  V30 1143 C 116.811 3.76387 0.0315542 0
M  V30 1144 C 115.958 2.69377 -0.658117 0
M  V30 1145 H 118.909 1.36231 -0.81405 0
M  V30 1146 H 118.93 3.78014 0.43428 0
M  V30 1147 H 118.442 3.62586 -1.38393 0
M  V30 1148 H 116.543 3.56571 1.0811 0
M  V30 1149 H 116.656 4.77731 -0.361935 0
M  V30 1150 H 115.02 2.5452 -0.0957873 0
M  V30 1151 H 115.803 2.97646 -1.7106 0
M  V30 1152 N 118.248 0.346503 1.53744 0
M  V30 1153 C 119.18 -0.543316 2.22667 0
M  V30 1154 C 120.193 -1.06159 1.23427 0
M  V30 1155 O 121.382 -0.971235 1.49764 0
M  V30 1156 C 118.482 -1.76076 2.89569 0
M  V30 1157 C 117.655 -1.37727 4.15151 0
M  V30 1158 C 116.714 -2.45471 4.65436 0
M  V30 1159 O 115.74 -2.08655 5.29577 0
M  V30 1160 N 116.942 -3.7677 4.41616 0
M  V30 1161 H 119.707 0.0469703 2.99663 0
M  V30 1162 H 117.268 0.170766 1.60997 0
M  V30 1163 H 119.26 -2.47593 3.20125 0
M  V30 1164 H 117.83 -2.25835 2.16142 0
M  V30 1165 H 117.05 -0.492746 3.91108 0
M  V30 1166 H 118.338 -1.09708 4.96832 0
M  V30 1167 H 117.736 -4.09467 3.90325 0
M  V30 1168 H 116.293 -4.44448 4.7677 0
M  V30 1169 N 119.726 -1.57421 0.075193 0
M  V30 1170 C 120.656 -2.15942 -0.888324 0
M  V30 1171 C 121.637 -1.08737 -1.30806 0
M  V30 1172 O 122.822 -1.36787 -1.37851 0
M  V30 1173 C 119.952 -2.72379 -2.1547 0
M  V30 1174 C 118.906 -3.8478 -1.87425 0
M  V30 1175 C 118.232 -4.27834 -3.20721 0
M  V30 1176 C 119.532 -5.08869 -1.17684 0
M  V30 1177 H 121.226 -2.96705 -0.400799 0
M  V30 1178 H 118.772 -1.42723 -0.191342 0
M  V30 1179 H 120.725 -3.11965 -2.83295 0
M  V30 1180 H 119.449 -1.88841 -2.6647 0
M  V30 1181 H 118.108 -3.45703 -1.22004 0
M  V30 1182 H 117.756 -3.41214 -3.6957 0
M  V30 1183 H 117.456 -5.03605 -3.02746 0
M  V30 1184 H 118.98 -4.70039 -3.89738 0
M  V30 1185 H 120.394 -5.4575 -1.75584 0
M  V30 1186 H 118.791 -5.8994 -1.09956 0
M  V30 1187 H 119.861 -4.84648 -0.156453 0
M  V30 1188 N 121.204 0.198386 -1.56346 0
M  V30 1189 C 122.432 0.935572 -1.84539 0
M  V30 1190 C 122.847 1.76989 -0.657281 0
M  V30 1191 O 122.204 1.78626 0.374043 0
M  V30 1192 C 122.255 1.8344 -3.11499 0
M  V30 1193 O 121.976 1.03377 -4.25728 0
M  V30 1194 C 123.477 2.68355 -3.52846 0
M  V30 1195 H 120.697 0.273126 -0.612897 0
M  V30 1196 H 123.241 0.20663 -2.03453 0
M  V30 1197 H 121.396 2.51701 -2.94492 0
M  V30 1198 H 121.81 1.64599 -4.98003 0
M  V30 1199 H 123.284 3.27085 -4.44657 0
M  V30 1200 H 123.761 3.41901 -2.75681 0
M  V30 1201 H 124.367 2.05471 -3.72373 0
M  V30 1202 N 122.682 1.50554 0.465978 0
M  V30 1203 C 123.928 1.62038 1.21949 0
M  V30 1204 C 124.261 0.322116 1.9151 0
M  V30 1205 O 123.536 -0.676723 1.82348 0
M  V30 1206 C 123.819 2.80421 2.25912 0
M  V30 1207 C 123.672 4.20144 1.60622 0
M  V30 1208 C 124.991 2.94354 3.27176 0
M  V30 1209 H 122.11 0.589752 0.441998 0
M  V30 1210 H 124.752 1.82956 0.51257 0
M  V30 1211 H 122.902 2.62717 2.86203 0
M  V30 1212 H 124.574 4.49449 1.03889 0
M  V30 1213 H 122.817 4.24165 0.909211 0
M  V30 1214 H 123.488 4.98914 2.36196 0
M  V30 1215 H 125.964 3.10578 2.76913 0
M  V30 1216 H 124.84 3.788 3.97242 0
M  V30 1217 H 125.101 2.05186 3.916 0
M  V30 1218 N 124.16 -0.719506 1.40217 0
M  V30 1219 C 125.388 -1.50864 1.41589 0
M  V30 1220 C 125.803 -1.88794 0.0145275 0
M  V30 1221 O 125.16 -1.55174 -0.960594 0
M  V30 1222 C 125.211 -2.78646 2.30302 0
M  V30 1223 O 124.932 -2.42321 3.64983 0
M  V30 1224 C 126.433 -3.72569 2.40224 0
M  V30 1225 H 123.653 -0.465709 0.48307 0
M  V30 1226 H 126.197 -0.88785 1.84221 0
M  V30 1227 H 124.352 -3.37019 1.91042 0
M  V30 1228 H 124.766 -3.24514 4.12057 0
M  V30 1229 H 126.24 -4.5908 3.06512 0
M  V30 1230 H 126.717 -4.15403 1.42608 0
M  V30 1231 H 127.323 -3.20109 2.80019 0
M  V30 1232 N 125.638 -1.25649 -0.95132 0
M  V30 1233 C 126.601 -1.06399 -2.03007 0
M  V30 1234 C 127.601 -0.0156794 -1.60792 0
M  V30 1235 O 128.791 -0.25817 -1.72276 0
M  V30 1236 C 125.923 -0.616184 -3.35285 0
M  V30 1237 H 127.116 -2.02164 -2.21517 0
M  V30 1238 H 124.669 -1.08103 -1.12887 0
M  V30 1239 H 125.404 0.343917 -3.22471 0
M  V30 1240 H 125.189 -1.37301 -3.67275 0
M  V30 1241 H 126.679 -0.503032 -4.14559 0
M  V30 1242 N 127.117 1.15442 -1.07289 0
M  V30 1243 C 128.027 2.23786 -0.704057 0
M  V30 1244 C 129.043 1.7166 0.284413 0
M  V30 1245 O 130.219 2.00972 0.131205 0
M  V30 1246 C 127.284 3.46535 -0.106792 0
M  V30 1247 C 126.345 4.13654 -1.14842 0
M  V30 1248 C 125.578 5.30544 -0.57956 0
M  V30 1249 O 125.801 5.67187 0.604585 0
M  V30 1250 O 124.735 5.87154 -1.32414 0
M  V30 1251 H 128.561 2.57664 -1.60757 0
M  V30 1252 H 126.146 1.23152 -0.845803 0
M  V30 1253 H 128.028 4.20804 0.224048 0
M  V30 1254 H 126.703 3.14407 0.770049 0
M  V30 1255 H 125.61 3.4131 -1.5316 0
M  V30 1256 H 126.943 4.49861 -1.99714 0
M  V30 1257 N 128.595 0.856903 1.32268 0
M  V30 1258 C 129.505 0.306131 2.32594 0
M  V30 1259 C 130.521 -0.577209 1.64147 0
M  V30 1260 O 131.697 -0.477043 1.95669 0
M  V30 1261 C 128.762 -0.494561 3.43154 0
M  V30 1262 C 127.823 0.415186 4.27288 0
M  V30 1263 C 127.056 -0.347387 5.32568 0
M  V30 1264 O 127.279 -1.57708 5.48165 0
M  V30 1265 O 126.213 0.287982 6.01211 0
M  V30 1266 H 130.039 1.13737 2.81598 0
M  V30 1267 H 127.624 0.619902 1.35932 0
M  V30 1268 H 129.506 -0.948944 4.10576 0
M  V30 1269 H 128.181 -1.30257 2.96336 0
M  V30 1270 H 127.088 0.917793 3.62667 0
M  V30 1271 H 128.421 1.18844 4.77637 0
M  V30 1272 N 130.073 -1.45103 0.615059 0
M  V30 1273 C 131.484 -1.85654 0.197383 0
M  V30 1274 C 131.835 -1.51433 -1.24749 0
M  V30 1275 O 130.96 -0.944608 -1.94695 0
M  V30 1276 C 131.555 -3.36972 0.351448 0
M  V30 1277 C 130.114 -3.76398 -0.011593 0
M  V30 1278 C 129.261 -2.69024 0.672394 0
M  V30 1279 H 132.212 -1.35797 0.821263 0
M  V30 1280 H 132.233 -3.78239 -0.414227 0
M  V30 1281 H 131.745 -3.61847 1.40314 0
M  V30 1282 H 129.846 -3.5714 -1.06217 0
M  V30 1283 H 129.959 -4.77532 0.387265 0
M  V30 1284 H 128.323 -2.54465 0.109284 0
M  V30 1285 H 129.106 -2.96735 1.72636 0
M  V30 1286 N 131.551 -0.354651 -1.53558 0
M  V30 1287 C 132.828 0.294281 -1.93374 0
M  V30 1288 C 133.208 1.67313 -1.28723 0
M  V30 1289 O 132.556 2.24179 -0.442247 0
M  V30 1290 C 132.766 0.355445 -3.47185 0
M  V30 1291 C 134.114 0.601007 -4.20325 0
M  V30 1292 O 135.138 0.437106 -3.53508 0
M  V30 1293 O 133.997 0.919322 -5.38712 0
M  V30 1294 H 131.091 0.174033 -0.808481 0
M  V30 1295 H 133.637 -0.406638 -1.64756 0
M  V30 1296 H 132.409 -0.611729 -3.86489 0
M  V30 1297 H 132.032 1.1027 -3.82003 0
M  V30 1298 N 133.029 1.57378 -0.0835403 0
M  V30 1299 C 134.275 1.94217 0.583733 0
M  V30 1300 C 134.608 0.964653 1.68547 0
M  V30 1301 O 133.883 -0.00422258 1.945 0
M  V30 1302 C 134.166 3.41253 1.14972 0
M  V30 1303 C 134.019 4.49768 0.0538277 0
M  V30 1304 C 135.338 3.89352 2.05166 0
M  V30 1305 H 132.457 0.706233 0.210724 0
M  V30 1306 H 135.099 1.89392 -0.1519 0
M  V30 1307 H 133.249 3.45496 1.77665 0
M  V30 1308 H 134.921 4.57641 -0.579851 0
M  V30 1309 H 133.164 4.29432 -0.614068 0
M  V30 1310 H 133.835 5.49817 0.490452 0
M  V30 1311 H 136.311 3.87189 1.52393 0
M  V30 1312 H 135.187 4.92822 2.41698 0
M  V30 1313 H 135.448 3.27973 2.96456 0
M  V30 1314 N 134.507 -0.190092 1.56449 0
M  V30 1315 C 135.918 -0.754312 1.70784 0
M  V30 1316 C 136.269 -1.83631 0.690951 0
M  V30 1317 O 135.394 -2.15868 -0.151604 0
M  V30 1318 C 135.989 -1.37503 3.09642 0
M  V30 1319 C 134.548 -1.88628 3.25725 0
M  V30 1320 C 133.695 -0.758098 2.66736 0
M  V30 1321 H 136.646 0.0350524 1.58661 0
M  V30 1322 H 136.667 -2.2445 3.0725 0
M  V30 1323 H 136.179 -0.587302 3.83631 0
M  V30 1324 H 134.28 -2.70103 2.56661 0
M  V30 1325 H 134.393 -2.04462 4.3328 0
M  V30 1326 H 132.757 -1.17369 2.26046 0
M  V30 1327 H 133.54 0.0174705 3.43296 0
M  V30 1328 N 135.985 -1.50799 -0.457987 0
M  V30 1329 C 137.396 -1.55152 -1.0385 0
M  V30 1330 C 137.747 -0.362719 -1.92818 0
M  V30 1331 O 136.872 0.522915 -2.09987 0
M  V30 1332 C 137.467 -2.81173 -1.89017 0
M  V30 1333 C 136.026 -2.88164 -2.42154 0
M  V30 1334 C 135.173 -2.49591 -1.20829 0
M  V30 1335 H 138.124 -1.56874 -0.240068 0
M  V30 1336 H 138.145 -2.63769 -2.74238 0
M  V30 1337 H 137.657 -3.67677 -1.24238 0
M  V30 1338 H 135.758 -2.06042 -3.10447 0
M  V30 1339 H 135.871 -3.91356 -2.76364 0
M  V30 1340 H 134.235 -2.02322 -1.54719 0
M  V30 1341 H 135.018 -3.38418 -0.576927 0
M  V30 1342 N 137.463 0.71206 -1.40597 0
M  V30 1343 C 138.691 1.50111 -1.42388 0
M  V30 1344 C 139.106 1.88784 -0.0245395 0
M  V30 1345 O 138.463 1.55681 0.952351 0
M  V30 1346 C 138.514 2.7742 -2.31776 0
M  V30 1347 O 138.235 2.40382 -3.66262 0
M  V30 1348 C 139.736 3.7129 -2.42196 0
M  V30 1349 H 136.956 0.46314 -0.485533 0
M  V30 1350 H 139.5 0.878068 -1.8469 0
M  V30 1351 H 137.655 3.36001 -1.92827 0
M  V30 1352 H 138.069 3.22324 -4.13772 0
M  V30 1353 H 139.543 4.57448 -3.08943 0
M  V30 1354 H 140.02 4.14641 -1.44809 0
M  V30 1355 H 140.626 3.18619 -2.81712 0
M  V30 1356 N 138.941 1.26152 0.944643 0
M  V30 1357 C 140.166 1.14363 1.7302 0
M  V30 1358 C 140.591 -0.29772 1.85729 0
M  V30 1359 O 139.949 -1.2157 1.34501 0
M  V30 1360 C 139.997 1.81378 3.11664 0
M  V30 1361 O 139.101 1.10022 3.97453 0
M  V30 1362 H 138.442 0.398694 0.53098 0
M  V30 1363 H 140.972 1.66906 1.18337 0
M  V30 1364 H 140.982 1.88064 3.62072 0
M  V30 1365 H 139.657 2.86237 3.0173 0
M  V30 1366 H 138.234 1.11287 3.55907 0
M  V30 1367 N 140.419 -1.14872 1.07899 0
M  V30 1368 C 141.83 -1.67367 0.827363 0
M  V30 1369 C 142.181 -1.85236 -0.646693 0
M  V30 1370 O 141.306 -1.55974 -1.50004 0
M  V30 1371 C 141.901 -3.04016 1.49532 0
M  V30 1372 C 140.46 -3.53566 1.29106 0
M  V30 1373 C 139.607 -2.29161 1.56143 0
M  V30 1374 H 142.558 -0.990083 1.24028 0
M  V30 1375 H 142.579 -3.69219 0.919643 0
M  V30 1376 H 142.091 -2.90978 2.56814 0
M  V30 1377 H 140.192 -3.71835 0.238713 0
M  V30 1378 H 140.305 -4.34661 2.01511 0
M  V30 1379 H 138.669 -2.34978 0.982717 0
M  V30 1380 H 139.452 -2.18705 2.64619 0
M  V30 1381 N 141.898 -0.863906 -1.31812 0
M  V30 1382 C 143.146 -0.470904 -1.96537 0
M  V30 1383 C 143.467 0.978771 -1.68657 0
M  V30 1384 O 142.737 1.6853 -0.998717 0
M  V30 1385 H 141.317 -0.171148 -0.72713 0
M  V30 1386 H 143.979 -1.10236 -1.60729 0
M  V30 1387 H 143.075 -0.623616 -3.05806 0
M  V30 1388 N 143.376 1.44774 -0.622745 0
M  V30 1389 C 144.787 1.85546 -0.207226 0
M  V30 1390 C 145.138 1.52093 1.23944 0
M  V30 1391 O 144.263 0.95492 1.94191 0
M  V30 1392 C 144.858 3.36781 -0.369313 0
M  V30 1393 C 143.417 3.76399 -0.00836847 0
M  V30 1394 C 142.564 2.68664 -0.686651 0
M  V30 1395 H 145.515 1.3536 -0.828454 0
M  V30 1396 H 145.536 3.78453 0.394162 0
M  V30 1397 H 145.048 3.61098 -1.42231 0
M  V30 1398 H 143.149 3.57698 1.04322 0
M  V30 1399 H 143.262 4.7732 -0.412584 0
M  V30 1400 H 141.626 2.54404 -0.122777 0
M  V30 1401 H 142.409 2.95815 -1.74208 0
M  V30 1402 N 144.854 0.36279 1.53368 0
M  V30 1403 C 146.265 -0.117022 1.86333 0
M  V30 1404 C 146.616 -1.48397 1.28347 0
M  V30 1405 O 145.741 -2.07787 0.604428 0
M  V30 1406 C 146.336 -0.21912 3.38091 0
M  V30 1407 C 144.895 -0.643184 3.70864 0
M  V30 1408 C 144.042 0.211318 2.76494 0
M  V30 1409 H 146.993 0.581687 1.47655 0
M  V30 1410 H 147.014 -1.04319 3.6592 0
M  V30 1411 H 146.526 0.775902 3.80265 0
M  V30 1412 H 144.627 -1.64654 3.34245 0
M  V30 1413 H 144.74 -0.41973 4.77258 0
M  V30 1414 H 143.104 -0.319367 2.5269 0
M  V30 1415 H 143.887 1.20383 3.21501 0
M  V30 1416 N 146.332 -1.57332 0.0918853 0
M  V30 1417 C 147.242 -2.17368 -0.882505 0
M  V30 1418 C 148.258 -1.14226 -1.31257 0
M  V30 1419 O 149.434 -1.46582 -1.38115 0
M  V30 1420 C 146.499 -2.73962 -2.12476 0
M  V30 1421 C 145.56 -3.92048 -1.7492 0
M  V30 1422 C 144.793 -4.45933 -2.93223 0
M  V30 1423 O 145.016 -3.98764 -4.07852 0
M  V30 1424 O 143.95 -5.36999 -2.71875 0
M  V30 1425 H 147.776 -3.01031 -0.40172 0
M  V30 1426 H 145.361 -1.48813 -0.132291 0
M  V30 1427 H 147.243 -3.10147 -2.85283 0
M  V30 1428 H 145.918 -1.93347 -2.59613 0
M  V30 1429 H 144.825 -3.6068 -0.993025 0
M  V30 1430 H 146.158 -4.74017 -1.32548 0
M  V30 1431 N 147.81 0.181792 -1.56548 0
M  V30 1432 C 149.226 0.53316 -1.50431 0
M  V30 1433 C 149.426 1.85184 -0.794297 0
M  V30 1434 O 148.482 2.50058 -0.350318 0
M  V30 1435 C 149.795 0.575597 -2.9514 0
M  V30 1436 C 151.343 0.663519 -3.05886 0
M  V30 1437 C 151.818 0.736946 -4.52032 0
M  V30 1438 N 153.309 0.800118 -4.56237 0
M  V30 1439 C 154.044 0.877327 -5.66649 0
M  V30 1440 N 153.54 0.916016 -6.86718 0
M  V30 1441 N 155.333 0.915542 -5.54594 0
M  V30 1442 H 147.484 -0.683025 -2.01118 0
M  V30 1443 H 149.747 -0.244988 -0.915797 0
M  V30 1444 H 149.453 -0.324482 -3.502 0
M  V30 1445 H 149.327 1.42572 -3.49218 0
M  V30 1446 H 151.714 1.55403 -2.50867 0
M  V30 1447 H 151.795 -0.21307 -2.54911 0
M  V30 1448 H 151.439 -0.149262 -5.07681 0
M  V30 1449 H 151.369 1.62953 -5.00753 0
M  V30 1450 H 153.86 0.778926 -3.69785 0
M  V30 1451 H 154.173 0.975813 -7.66614 0
M  V30 1452 H 152.518 0.884469 -6.89349 0
M  V30 1453 H 155.709 0.882245 -4.59711 0
M  V30 1454 H 155.882 0.972253 -6.40665 0
M  V30 1455 N 149.288 1.51039 0.449983 0
M  V30 1456 C 150.198 1.74261 1.57067 0
M  V30 1457 C 151.214 0.626363 1.62335 0
M  V30 1458 O 152.39 0.907162 1.79812 0
M  V30 1459 C 149.455 1.85114 2.93144 0
M  V30 1460 C 148.516 3.0893 2.98095 0
M  V30 1461 C 147.749 3.19256 4.27681 0
M  V30 1462 O 147.972 2.35835 5.19363 0
M  V30 1463 O 146.906 4.12144 4.38658 0
M  V30 1464 H 150.732 2.69303 1.40391 0
M  V30 1465 H 148.317 1.35389 0.631688 0
M  V30 1466 H 150.199 1.94311 3.73926 0
M  V30 1467 H 148.874 0.932588 3.09975 0
M  V30 1468 H 147.781 3.0522 2.16314 0
M  V30 1469 H 149.114 4.00433 2.86206 0
M  V30 1470 N 150.766 -0.704594 1.40972 0
M  V30 1471 C 152.182 -1.01406 1.23244 0
M  V30 1472 C 152.382 -2.01169 0.115399 0
M  V30 1473 O 151.438 -2.47021 -0.523147 0
M  V30 1474 C 152.751 -1.54728 2.57836 0
M  V30 1475 C 154.299 -1.66658 2.64942 0
M  V30 1476 C 154.774 -2.23383 3.9983 0
M  V30 1477 N 156.265 -2.30756 4.01629 0
M  V30 1478 C 157 -2.75655 5.02794 0
M  V30 1479 N 156.496 -3.20225 6.14352 0
M  V30 1480 N 158.289 -2.75138 4.90159 0
M  V30 1481 H 150.44 -0.0435285 2.12355 0
M  V30 1482 H 152.703 -0.0818951 0.944456 0
M  V30 1483 H 152.409 -0.888832 3.40283 0
M  V30 1484 H 152.283 -2.53084 2.79693 0
M  V30 1485 H 154.67 -2.31617 1.8286 0
M  V30 1486 H 154.751 -0.668717 2.46904 0
M  V30 1487 H 154.395 -1.59043 4.82357 0
M  V30 1488 H 154.325 -3.23904 4.15203 0
M  V30 1489 H 156.816 -1.99291 3.21079 0
M  V30 1490 H 157.129 -3.53084 6.87424 0
M  V30 1491 H 155.474 -3.18156 6.17901 0
M  V30 1492 H 158.665 -2.39661 4.02095 0
M  V30 1493 H 158.838 -3.09812 5.6914 0
M  V30 1494 N 152.244 -1.26651 -0.937939 0
M  V30 1495 C 153.521 -1.0313 -1.66204 0
M  V30 1496 C 153.901 0.437256 -2.06522 0
M  V30 1497 O 153.249 1.41831 -1.79154 0
M  V30 1498 C 153.459 -1.98314 -2.87181 0
M  V30 1499 C 154.807 -2.27107 -3.58758 0
M  V30 1500 O 155.831 -1.96205 -2.97291 0
M  V30 1501 O 154.69 -2.79736 -4.69479 0
M  V30 1502 H 151.784 -0.392384 -0.727986 0
M  V30 1503 H 154.33 -1.37874 -0.989382 0
M  V30 1504 H 153.102 -2.97399 -2.54302 0
M  V30 1505 H 152.725 -1.64068 -3.6217 0
M  V30 1506 N 153.722 1.14298 -1.08507 0
M  V30 1507 C 154.962 1.87016 -0.824894 0
M  V30 1508 C 155.326 1.81099 0.637735 0
M  V30 1509 O 156.527 2.48963 1.01345 0
M  V30 1510 C 154.798 3.31584 -1.33368 0
M  V30 1511 S 156.357 4.21903 -1.20596 0
M  V30 1512 H 153.175 0.645259 -0.2986 0
M  V30 1513 H 155.777 1.37822 -1.38656 0
M  V30 1514 H 154.481 3.33439 -2.39262 0
M  V30 1515 H 154.012 3.85836 -0.767734 0
M  V30 1516 H 156.027 4.95971 -0.150891 0
M  V30 1517 N 155.201 0.870884 1.31352 0
M  V30 1518 C 156.131 0.343096 2.30966 0
M  V30 1519 C 157.112 -0.566507 1.60389 0
M  V30 1520 O 158.297 -0.483336 1.88089 0
M  V30 1521 C 155.427 -0.455487 3.443 0
M  V30 1522 C 154.381 0.361103 4.26474 0
M  V30 1523 C 153.707 -0.563221 5.31725 0
M  V30 1524 C 155.007 1.59566 4.97329 0
M  V30 1525 H 156.701 1.17548 2.75359 0
M  V30 1526 H 154.247 0.566686 1.32381 0
M  V30 1527 H 156.2 -0.83525 4.13039 0
M  V30 1528 H 154.924 -1.32139 2.98675 0
M  V30 1529 H 153.583 0.722825 3.59403 0
M  V30 1530 H 153.231 -1.42643 4.82351 0
M  V30 1531 H 152.931 -0.0207409 5.87596 0
M  V30 1532 H 154.455 -0.939808 6.03324 0
M  V30 1533 H 155.869 1.28728 5.58661 0
M  V30 1534 H 154.266 2.07728 5.63 0
M  V30 1535 H 155.336 2.34798 4.24262 0
M  V30 1536 N 156.679 -1.44442 0.630414 0
M  V30 1537 C 158.09 -1.85434 0.217063 0
M  V30 1538 C 158.441 -1.52748 -1.23136 0
M  V30 1539 O 157.566 -0.965205 -1.93682 0
M  V30 1540 C 158.161 -3.36581 0.387168 0
M  V30 1541 C 156.72 -3.76389 0.0283297 0
M  V30 1542 C 155.867 -2.68296 0.700889 0
M  V30 1543 H 158.818 -1.34919 0.83562 0
M  V30 1544 H 158.839 -3.78657 -0.374086 0
M  V30 1545 H 158.351 -3.60339 1.44144 0
M  V30 1546 H 156.452 -3.58246 -1.02423 0
M  V30 1547 H 156.565 -4.77095 0.437892 0
M  V30 1548 H 154.929 -2.54335 0.136267 0
M  V30 1549 H 155.712 -2.94887 1.75774 0
M  V30 1550 N 158.157 -0.370918 -1.53173 0
M  V30 1551 C 159.12 0.460778 -2.24521 0
M  V30 1552 C 160.12 1.00536 -1.25496 0
M  V30 1553 O 161.31 0.890266 -1.49733 0
M  V30 1554 C 158.442 1.64457 -2.98608 0
M  V30 1555 H 159.635 -0.163613 -2.99453 0
M  V30 1556 H 157.188 -0.122699 -1.55818 0
M  V30 1557 H 157.923 2.30691 -2.2793 0
M  V30 1558 H 157.708 1.26099 -3.7127 0
M  V30 1559 H 159.198 2.23384 -3.5283 0
M  V30 1560 N 159.635 1.57281 -0.100228 0
M  V30 1561 C 160.598 2.13158 0.842398 0
M  V30 1562 C 161.598 1.06202 1.20738 0
M  V30 1563 O 162.788 1.32066 1.13597 0
M  V30 1564 C 159.92 2.65639 2.13655 0
M  V30 1565 H 161.113 2.97766 0.357114 0
M  V30 1566 H 158.666 1.5559 0.148823 0
M  V30 1567 H 159.401 1.84566 2.66657 0
M  V30 1568 H 159.186 3.43844 1.88451 0
M  V30 1569 H 160.676 3.08846 2.81077 0
M  V30 1570 N 161.113 -0.173488 1.56642 0
M  V30 1571 C 162.361 -0.888706 1.81512 0
M  V30 1572 C 162.682 -1.82875 0.676872 0
M  V30 1573 O 161.952 -1.93536 -0.303414 0
M  V30 1574 H 160.532 -0.331164 0.669582 0
M  V30 1575 H 163.194 -0.173823 1.94123 0
M  V30 1576 H 162.29 -1.46691 2.75478 0
M  V30 1577 N 162.591 -1.51276 -0.441967 0
M  V30 1578 C 163.816 -1.67799 -1.21895 0
M  V30 1579 C 164.241 -0.372864 -1.84367 0
M  V30 1580 O 163.599 0.666501 -1.68604 0
M  V30 1581 C 163.647 -2.79199 -2.28211 0
M  V30 1582 O 162.751 -2.42479 -3.33583 0
M  V30 1583 H 162.092 -0.559649 -0.357336 0
M  V30 1584 H 164.622 -1.97815 -0.522522 0
M  V30 1585 H 164.632 -3.03146 -2.73069 0
M  V30 1586 H 163.307 -3.73906 -1.82118 0
M  V30 1587 H 161.884 -2.29087 -2.94234 0
M  V30 1588 N 164.069 0.697108 -1.41344 0
M  V30 1589 C 165.294 1.49096 -1.44171 0
M  V30 1590 C 165.719 1.88038 -0.0481568 0
M  V30 1591 O 165.077 1.54525 0.948243 0
M  V30 1592 C 165.125 2.73088 -2.3549 0
M  V30 1593 O 164.229 3.70514 -1.81088 0
M  V30 1594 H 163.57 0.448801 -0.489361 0
M  V30 1595 H 166.1 0.856992 -1.85787 0
M  V30 1596 H 166.11 3.21413 -2.51312 0
M  V30 1597 H 164.785 2.44081 -3.36745 0
M  V30 1598 H 163.362 3.29441 -1.74708 0
M  V30 1599 N 165.547 1.27147 0.931209 0
M  V30 1600 C 166.497 1.06227 2.01742 0
M  V30 1601 C 167.481 -0.00859065 1.60898 0
M  V30 1602 O 168.673 0.209537 1.75755 0
M  V30 1603 C 165.802 0.707787 3.35924 0
M  V30 1604 C 164.888 1.81661 3.83223 0
M  V30 1605 N 165.279 3.05564 4.03069 0
M  V30 1606 C 163.577 1.70249 4.12227 0
M  V30 1607 C 164.278 3.77697 4.42403 0
M  V30 1608 N 163.254 3.0544 4.49675 0
M  V30 1609 H 167.056 2.00261 2.15111 0
M  V30 1610 H 164.57 1.1781 1.11779 0
M  V30 1611 H 166.567 0.539043 4.134 0
M  V30 1612 H 165.227 -0.224964 3.2392 0
M  V30 1613 H 166.238 3.41363 3.89476 0
M  V30 1614 H 162.915 0.840329 4.08956 0
M  V30 1615 H 164.305 4.84168 4.65866 0
M  V30 1616 N 167.025 -1.13721 1.09112 0
M  V30 1617 C 167.955 -2.21148 0.749385 0
M  V30 1618 C 168.936 -1.6792 -0.271475 0
M  V30 1619 O 170.121 -1.93693 -0.140251 0
M  V30 1620 C 167.251 -3.46905 0.165659 0
M  V30 1621 C 166.205 -4.13203 1.11567 0
M  V30 1622 C 165.531 -5.33248 0.393809 0
M  V30 1623 C 166.831 -4.60912 2.45678 0
M  V30 1624 H 168.525 -2.4999 1.64758 0
M  V30 1625 H 166.071 -1.20156 0.793626 0
M  V30 1626 H 168.024 -4.21313 -0.085466 0
M  V30 1627 H 166.748 -3.17449 -0.767714 0
M  V30 1628 H 165.407 -3.40758 1.35202 0
M  V30 1629 H 165.055 -5.00054 -0.543599 0
M  V30 1630 H 164.755 -5.78552 1.02721 0
M  V30 1631 H 166.279 -6.10413 0.150908 0
M  V30 1632 H 167.693 -5.26759 2.26269 0
M  V30 1633 H 166.09 -5.16944 3.04776 0
M  V30 1634 H 167.16 -3.75603 3.06677 0
M  V30 1635 N 168.503 -0.877838 -1.30888 0
M  V30 1636 C 169.435 -0.296607 -2.27273 0
M  V30 1637 C 170.448 0.544799 -1.53414 0
M  V30 1638 O 171.637 0.365511 -1.74718 0
M  V30 1639 C 168.737 0.597481 -3.33592 0
M  V30 1640 C 167.91 -0.213251 -4.3688 0
M  V30 1641 C 166.969 0.610208 -5.2265 0
M  V30 1642 O 165.995 0.035441 -5.69189 0
M  V30 1643 N 167.197 1.92071 -5.47804 0
M  V30 1644 H 169.962 -1.12492 -2.77787 0
M  V30 1645 H 167.523 -0.740105 -1.43993 0
M  V30 1646 H 169.515 1.15425 -3.87891 0
M  V30 1647 H 168.085 1.32647 -2.83061 0
M  V30 1648 H 167.305 -0.951466 -3.82545 0
M  V30 1649 H 168.593 -0.769262 -5.02951 0
M  V30 1650 H 167.991 2.4107 -5.11763 0
M  V30 1651 H 166.548 2.42508 -6.05007 0
M  V30 1652 N 169.982 1.44106 -0.638065 0
M  V30 1653 C 170.914 2.28976 0.101205 0
M  V30 1654 C 171.927 1.4167 0.802088 0
M  V30 1655 O 173.116 1.65755 0.662375 0
M  V30 1656 C 170.216 3.18217 1.16581 0
M  V30 1657 C 169.389 4.33978 0.546066 0
M  V30 1658 C 168.448 5.04202 1.50554 0
M  V30 1659 O 167.474 5.59986 1.01999 0
M  V30 1660 N 168.676 5.06296 2.8398 0
M  V30 1661 H 171.441 2.93064 -0.627186 0
M  V30 1662 H 169.002 1.54629 -0.479731 0
M  V30 1663 H 170.994 3.62061 1.80815 0
M  V30 1664 H 169.564 2.55833 1.79634 0
M  V30 1665 H 168.784 3.93239 -0.275046 0
M  V30 1666 H 170.072 5.08675 0.112793 0
M  V30 1667 H 169.47 4.62319 3.26002 0
M  V30 1668 H 168.027 5.53907 3.43556 0
M  V30 1669 N 171.46 0.379036 1.52974 0
M  V30 1670 C 172.871 -0.0972525 1.86447 0
M  V30 1671 C 173.222 -1.47027 1.29914 0
M  V30 1672 O 172.347 -2.07135 0.626433 0
M  V30 1673 C 172.942 -0.183248 3.38304 0
M  V30 1674 C 171.501 -0.603812 3.71525 0
M  V30 1675 C 170.648 0.240632 2.76254 0
M  V30 1676 H 173.599 0.597316 1.4703 0
M  V30 1677 H 173.62 -1.00432 3.67006 0
M  V30 1678 H 173.132 0.816191 3.79421 0
M  V30 1679 H 171.233 -1.61099 3.35973 0
M  V30 1680 H 171.346 -0.369086 4.77676 0
M  V30 1681 H 169.71 -0.292548 2.53014 0
M  V30 1682 H 170.493 1.23786 3.20206 0
M  V30 1683 N 172.938 -1.57226 0.108567 0
M  V30 1684 C 174.354 -1.5766 -0.248058 0
M  V30 1685 C 174.554 -1.12063 -1.67464 0
M  V30 1686 O 173.61 -0.803236 -2.39383 0
M  V30 1687 C 174.923 -3.0069 -0.0242287 0
M  V30 1688 C 176.471 -3.12868 -0.0909372 0
M  V30 1689 C 176.946 -4.57879 0.105067 0
M  V30 1690 N 178.437 -4.63172 0.0506846 0
M  V30 1691 C 179.172 -5.73126 0.177396 0
M  V30 1692 N 178.668 -6.91866 0.359696 0
M  V30 1693 N 180.461 -5.61977 0.117709 0
M  V30 1694 H 172.612 -1.85169 1.04049 0
M  V30 1695 H 174.875 -0.85529 0.40888 0
M  V30 1696 H 174.581 -3.38299 0.961604 0
M  V30 1697 H 174.455 -3.6945 -0.76068 0
M  V30 1698 H 176.842 -2.75124 -1.06729 0
M  V30 1699 H 176.923 -2.46672 0.677225 0
M  V30 1700 H 176.567 -4.96321 1.07834 0
M  V30 1701 H 176.497 -5.22153 -0.682954 0
M  V30 1702 H 178.988 -3.778 -0.0871266 0
M  V30 1703 H 179.301 -7.71503 0.447529 0
M  V30 1704 H 177.646 -6.93874 0.395536 0
M  V30 1705 H 180.837 -4.68094 -0.0236741 0
M  V30 1706 H 181.01 -6.47627 0.219905 0
M  V30 1707 N 174.416 0.165178 -1.56732 0
M  V30 1708 C 175.832 0.517174 -1.50988 0
M  V30 1709 C 176.032 1.84331 -0.813894 0
M  V30 1710 O 175.088 2.49672 -0.37682 0
M  V30 1711 C 176.401 0.544261 -2.95733 0
M  V30 1712 C 177.949 0.631039 -3.06573 0
M  V30 1713 C 178.424 0.68896 -4.52788 0
M  V30 1714 N 179.915 0.751683 -4.5706 0
M  V30 1715 C 180.65 0.817177 -5.67547 0
M  V30 1716 N 180.146 0.843129 -6.8765 0
M  V30 1717 N 181.939 0.856668 -5.55534 0
M  V30 1718 H 174.09 -0.704318 -2.00382 0
M  V30 1719 H 176.353 -0.254687 -0.913148 0
M  V30 1720 H 176.059 -0.361607 -3.49836 0
M  V30 1721 H 175.933 1.3886 -3.5071 0
M  V30 1722 H 178.32 1.52733 -2.52501 0
M  V30 1723 H 178.401 -0.240095 -2.54671 0
M  V30 1724 H 178.045 -0.2031 -5.07494 0
M  V30 1725 H 177.975 1.57633 -5.02454 0
M  V30 1726 H 180.466 0.739661 -3.70591 0
M  V30 1727 H 180.779 0.894448 -7.67606 0
M  V30 1728 H 179.124 0.811304 -6.90248 0
M  V30 1729 H 182.315 0.833437 -4.60621 0
M  V30 1730 H 182.488 0.904247 -6.4166 0
M  V30 1731 N 175.894 1.51508 0.433938 0
M  V30 1732 C 176.824 1.76016 1.53429 0
M  V30 1733 C 177.805 0.610112 1.58782 0
M  V30 1734 O 178.99 0.853177 1.74455 0
M  V30 1735 C 176.12 1.88831 2.9148 0
M  V30 1736 C 175.074 3.04288 3.00987 0
M  V30 1737 C 174.4 3.0229 4.4105 0
M  V30 1738 C 175.7 4.44193 2.74754 0
M  V30 1739 H 177.394 2.68152 1.33171 0
M  V30 1740 H 174.94 1.29035 0.639214 0
M  V30 1741 H 176.893 2.04559 3.6842 0
M  V30 1742 H 175.617 0.933455 3.12976 0
M  V30 1743 H 174.276 2.8827 2.26486 0
M  V30 1744 H 173.924 2.04576 4.59519 0
M  V30 1745 H 173.624 3.79822 4.4834 0
M  V30 1746 H 175.148 3.20116 5.1996 0
M  V30 1747 H 176.562 4.60544 3.41426 0
M  V30 1748 H 174.959 5.23457 2.9345 0
M  V30 1749 H 176.029 4.53996 1.70339 0
M  V30 1750 N 177.372 -0.689602 1.41712 0
M  V30 1751 C 178.597 -1.48329 1.44959 0
M  V30 1752 C 179.022 -1.8801 0.0581283 0
M  V30 1753 O 178.38 -1.55026 -0.940035 0
M  V30 1754 C 178.428 -2.71835 2.36935 0
M  V30 1755 O 177.532 -3.69549 1.8305 0
M  V30 1756 H 176.873 -0.446199 0.491734 0
M  V30 1757 H 179.403 -0.847127 1.86239 0
M  V30 1758 H 179.413 -3.20076 2.53013 0
M  V30 1759 H 178.088 -2.42291 3.38035 0
M  V30 1760 H 176.665 -3.2851 1.76452 0
M  V30 1761 N 178.85 -1.27639 -0.924453 0
M  V30 1762 C 180.078 -1.16989 -1.70649 0
M  V30 1763 C 180.493 0.272869 -1.86818 0
M  V30 1764 O 179.85 1.18549 -1.38753 0
M  V30 1765 C 179.901 -1.85229 -3.10439 0
M  V30 1766 O 179.622 -3.23868 -2.95028 0
M  V30 1767 C 181.123 -1.80746 -4.04779 0
M  V30 1768 H 178.343 -0.406595 -0.53378 0
M  V30 1769 H 180.887 -1.68569 -1.15778 0
M  V30 1770 H 179.042 -1.37545 -3.6216 0
M  V30 1771 H 179.456 -3.57889 -3.83426 0
M  V30 1772 H 180.93 -2.33101 -5.00368 0
M  V30 1773 H 181.407 -0.777499 -4.32263 0
M  V30 1774 H 182.013 -2.28059 -3.58984 0
M  V30 1775 N 180.328 1.1314 -1.09713 0
M  V30 1776 C 181.553 1.88862 -0.857081 0
M  V30 1777 C 181.978 1.78729 0.586304 0
M  V30 1778 O 181.336 1.13692 1.41222 0
M  V30 1779 C 181.384 3.36325 -1.30069 0
M  V30 1780 O 180.488 4.09815 -0.461007 0
M  V30 1781 H 179.829 0.587108 -0.310162 0
M  V30 1782 H 182.359 1.43129 -1.46203 0
M  V30 1783 H 182.369 3.87157 -1.28738 0
M  V30 1784 H 181.044 3.43017 -2.35185 0
M  V30 1785 H 179.621 3.68986 -0.538888 0
M  V30 1786 N 181.806 0.884767 1.30421 0
M  V30 1787 C 183.031 0.517288 2.00845 0
M  V30 1788 C 183.456 -0.886779 1.65885 0
M  V30 1789 O 182.814 -1.58768 0.875354 0
M  V30 1790 C 182.862 0.698994 3.5376 0
M  V30 1791 O 181.966 -0.255208 4.1161 0
M  V30 1792 H 181.307 0.203872 0.631927 0
M  V30 1793 H 183.837 1.19225 1.66272 0
M  V30 1794 H 183.847 0.597912 4.03595 0
M  V30 1795 H 182.522 1.72271 3.78544 0
M  V30 1796 H 181.099 -0.10784 3.72744 0
M  V30 1797 N 183.284 -1.43765 0.645699 0
M  V30 1798 C 184.53 -2.02197 0.156271 0
M  V30 1799 C 184.863 -1.50776 -1.22393 0
M  V30 1800 O 184.138 -0.697771 -1.81553 0
M  V30 1801 C 184.421 -3.59749 0.158872 0
M  V30 1802 C 184.274 -4.21419 1.57245 0
M  V30 1803 C 185.593 -4.37149 -0.50879 0
M  V30 1804 H 182.712 -0.734694 0.0582602 0
M  V30 1805 H 185.354 -1.71157 0.824951 0
M  V30 1806 H 183.504 -3.86325 -0.410525 0
M  V30 1807 H 185.176 -4.059 2.19186 0
M  V30 1808 H 183.419 -3.78356 2.122 0
M  V30 1809 H 184.09 -5.30482 1.52619 0
M  V30 1810 H 186.566 -4.16093 -0.024412 0
M  V30 1811 H 185.442 -5.4683 -0.476213 0
M  V30 1812 H 185.703 -4.12839 -1.58165 0
M  V30 1813 N 184.763 -0.387143 -1.52771 0
M  V30 1814 C 185.988 0.198407 -2.06449 0
M  V30 1815 C 186.413 1.39918 -1.25716 0
M  V30 1816 O 185.771 1.79099 -0.281657 0
M  V30 1817 C 185.819 0.548893 -3.56398 0
M  V30 1818 O 184.923 1.64315 -3.78252 0
M  V30 1819 H 184.264 0.0237731 -0.663574 0
M  V30 1820 H 186.794 -0.553989 -1.96957 0
M  V30 1821 H 186.804 0.813812 -3.99801 0
M  V30 1822 H 185.479 -0.329005 -4.14597 0
M  V30 1823 H 184.056 1.37211 -3.46738 0
M  V30 1824 N 186.241 1.57166 -0.116904 0
M  V30 1825 C 187.466 1.999 0.55271 0
M  V30 1826 C 187.891 0.996039 1.59564 0
M  V30 1827 O 187.249 -0.032556 1.81271 0
M  V30 1828 C 187.297 3.4152 1.15742 0
M  V30 1829 O 186.401 3.44106 2.27299 0
M  V30 1830 H 185.742 0.649447 0.138258 0
M  V30 1831 H 188.272 2.03573 -0.204759 0
M  V30 1832 H 188.282 3.79684 1.49346 0
M  V30 1833 H 186.957 4.14034 0.393493 0
M  V30 1834 H 185.534 3.17759 1.9515 0
M  V30 1835 N 187.719 -0.156864 1.56817 0
M  V30 1836 C 188.947 -0.886316 1.86955 0
M  V30 1837 C 189.362 -1.75185 0.703975 0
M  V30 1838 O 188.719 -1.79555 -0.326552 0
M  V30 1839 C 188.77 -1.75117 3.16253 0
M  V30 1840 O 188.491 -0.920537 4.2832 0
M  V30 1841 C 189.992 -2.58905 3.59837 0
M  V30 1842 H 187.212 -0.25678 0.619923 0
M  V30 1843 H 189.756 -0.152615 2.0393 0
M  V30 1844 H 187.911 -2.43805 3.01062 0
M  V30 1845 H 188.325 -1.51337 5.02192 0
M  V30 1846 H 189.799 -3.1518 4.53172 0
M  V30 1847 H 190.276 -3.34472 2.84649 0
M  V30 1848 H 190.882 -1.95526 3.7769 0
M  V30 1849 N 189.197 -1.51736 -0.425897 0
M  V30 1850 C 190.445 -1.64644 -1.17204 0
M  V30 1851 C 190.766 -0.370486 -1.91448 0
M  V30 1852 O 190.036 0.614088 -1.86026 0
M  V30 1853 H 188.616 -0.606819 -0.435638 0
M  V30 1854 H 191.278 -1.88713 -0.487177 0
M  V30 1855 H 190.374 -2.47958 -1.89534 0
M  V30 1856 N 190.675 0.682077 -1.42076 0
M  V30 1857 C 191.9 1.47558 -1.45744 0
M  V30 1858 C 192.325 1.87977 -0.0680981 0
M  V30 1859 O 191.683 1.55522 0.9318 0
M  V30 1860 C 191.731 2.70575 -2.38373 0
M  V30 1861 O 190.835 3.68573 -1.85007 0
M  V30 1862 H 190.176 0.443585 -0.494093 0
M  V30 1863 H 192.706 0.837238 -1.86686 0
M  V30 1864 H 192.716 3.18729 -2.54707 0
M  V30 1865 H 191.391 2.40495 -3.39315 0
M  V30 1866 H 189.968 3.2757 -1.78192 0
M  V30 1867 N 192.153 1.28127 0.917671 0
M  V30 1868 C 193.378 1.18007 1.70555 0
M  V30 1869 C 193.803 -0.258257 1.86319 0
M  V30 1870 O 193.161 -1.1869 1.37049 0
M  V30 1871 C 193.209 1.87948 3.07746 0
M  V30 1872 O 192.313 1.18427 3.9503 0
M  V30 1873 H 191.654 0.409867 0.522403 0
M  V30 1874 H 194.184 1.69379 1.1477 0
M  V30 1875 H 194.194 1.95701 3.58001 0
M  V30 1876 H 192.869 2.92573 2.95591 0
M  V30 1877 H 191.446 1.18811 3.53466 0
M  V30 1878 N 193.631 -1.12557 1.10312 0
M  V30 1879 C 194.856 -1.88405 0.867085 0
M  V30 1880 C 195.281 -1.79038 -0.576817 0
M  V30 1881 O 194.639 -1.14439 -1.40618 0
M  V30 1882 C 194.687 -3.3563 1.31851 0
M  V30 1883 O 193.791 -4.09565 0.482734 0
M  V30 1884 H 193.132 -0.585455 0.313271 0
M  V30 1885 H 195.662 -1.42352 1.4696 0
M  V30 1886 H 195.672 -3.86469 1.3079 0
M  V30 1887 H 194.347 -3.41765 2.37001 0
M  V30 1888 H 192.924 -3.68695 0.558448 0
M  V30 1889 N 195.109 -0.891671 -1.2995 0
M  V30 1890 C 196.039 -0.379797 -2.30391 0
M  V30 1891 C 197.02 0.540919 -1.6127 0
M  V30 1892 O 198.205 0.453352 -1.88834 0
M  V30 1893 C 195.335 0.400654 -3.44981 0
M  V30 1894 C 194.289 -0.428905 -4.25846 0
M  V30 1895 C 193.615 0.478557 -5.32554 0
M  V30 1896 C 194.915 -1.67458 -4.94727 0
M  V30 1897 H 196.609 -1.21914 -2.73454 0
M  V30 1898 H 194.155 -0.587675 -1.31462 0
M  V30 1899 H 196.108 0.769434 -4.14316 0
M  V30 1900 H 194.832 1.27371 -3.0074 0
M  V30 1901 H 193.491 -0.779911 -3.58208 0
M  V30 1902 H 193.139 1.34951 -4.84559 0
M  V30 1903 H 192.839 -0.0727433 -5.87555 0
M  V30 1904 H 194.363 0.843705 -6.04743 0
M  V30 1905 H 195.777 -1.376 -5.56542 0
M  V30 1906 H 194.174 -2.16659 -5.59624 0
M  V30 1907 H 195.244 -2.41518 -4.20473 0
M  V30 1908 N 196.587 1.43421 -0.653314 0
M  V30 1909 C 197.517 2.33487 0.0246656 0
M  V30 1910 C 198.498 1.49475 0.811863 0
M  V30 1911 O 199.683 1.78139 0.773322 0
M  V30 1912 C 196.813 3.32841 0.99166 0
M  V30 1913 C 195.767 4.26842 0.314568 0
M  V30 1914 C 195.093 5.16236 1.39302 0
M  V30 1915 C 196.393 5.16243 -0.793095 0
M  V30 1916 H 198.087 2.90427 -0.727481 0
M  V30 1917 H 195.633 1.39649 -0.351287 0
M  V30 1918 H 197.586 3.94747 1.47487 0
M  V30 1919 H 196.31 2.74158 1.77497 0
M  V30 1920 H 194.969 3.663 -0.148199 0
M  V30 1921 H 194.617 4.53891 2.16776 0
M  V30 1922 H 194.317 5.79948 0.945223 0
M  V30 1923 H 195.841 5.81015 1.87759 0
M  V30 1924 H 197.255 5.71958 -0.392039 0
M  V30 1925 H 195.652 5.88676 -1.16536 0
M  V30 1926 H 196.722 4.55927 -1.65103 0
M  V30 1927 N 198.065 0.39524 1.52563 0
M  V30 1928 C 198.975 -0.444232 2.30356 0
M  V30 1929 C 199.991 -1.06615 1.37511 0
M  V30 1930 O 201.167 -1.07067 1.70583 0
M  V30 1931 C 198.232 -1.55315 3.09964 0
M  V30 1932 C 197.293 -0.955734 4.18526 0
M  V30 1933 C 196.526 -2.01181 4.9433 0
M  V30 1934 O 196.749 -3.22781 4.70285 0
M  V30 1935 O 195.683 -1.62579 5.79527 0
M  V30 1936 H 199.509 0.189667 3.03107 0
M  V30 1937 H 197.094 0.1588 1.48554 0
M  V30 1938 H 198.976 -2.19724 3.59582 0
M  V30 1939 H 197.651 -2.17191 2.4002 0
M  V30 1940 H 196.558 -0.274743 3.7309 0
M  V30 1941 H 197.891 -0.381109 4.90722 0
M  V30 1942 N 199.544 -1.57102 0.125237 0
M  V30 1943 C 200.821 -1.86953 -0.575142 0
M  V30 1944 C 201.201 -1.02749 -1.84407 0
M  V30 1945 O 200.549 -0.108144 -2.28244 0
M  V30 1946 C 200.759 -3.38198 -0.861583 0
M  V30 1947 C 202.107 -4.06937 -1.21192 0
M  V30 1948 O 203.131 -3.43252 -0.951645 0
M  V30 1949 O 201.99 -5.19364 -1.70068 0
M  V30 1950 H 199.084 -0.774147 -0.290906 0
M  V30 1951 H 201.63 -1.68942 0.160211 0
M  V30 1952 H 200.402 -3.91282 0.0373647 0
M  V30 1953 H 200.025 -3.61661 -1.65188 0
M  V30 1954 N 201.022 0.148545 -1.56898 0
M  V30 1955 C 202.247 0.880385 -1.87787 0
M  V30 1956 C 202.672 1.74018 -0.714093 0
M  V30 1957 O 202.03 1.78153 0.336343 0
M  V30 1958 C 202.078 1.71422 -3.17249 0
M  V30 1959 O 201.182 2.8183 -3.01074 0
M  V30 1960 H 200.523 0.245301 -0.617028 0
M  V30 1961 H 203.053 0.139826 -2.04122 0
M  V30 1962 H 203.063 2.10954 -3.49231 0
M  V30 1963 H 201.738 1.08284 -4.01556 0
M  V30 1964 H 200.315 2.45715 -2.80497 0
M  V30 1965 N 202.5 1.5196 0.417844 0
M  V30 1966 C 203.41 1.77554 1.53336 0
M  V30 1967 C 204.426 0.660655 1.6097 0
M  V30 1968 O 205.602 0.945099 1.77848 0
M  V30 1969 C 202.667 1.91291 2.89152 0
M  V30 1970 C 201.728 3.15183 2.91475 0
M  V30 1971 C 200.961 3.28256 4.20813 0
M  V30 1972 O 201.184 2.46798 5.14244 0
M  V30 1973 O 200.118 4.21356 4.29817 0
M  V30 1974 H 203.944 2.7222 1.34647 0
M  V30 1975 H 201.529 1.36698 0.602828 0
M  V30 1976 H 203.411 2.02199 3.69721 0
M  V30 1977 H 202.086 0.998129 3.07927 0
M  V30 1978 H 200.993 3.09739 2.09791 0
M  V30 1979 H 202.326 4.06414 2.77648 0
M  V30 1980 N 203.978 -0.674533 1.42435 0
M  V30 1981 C 205.255 -1.4305 1.33402 0
M  V30 1982 C 205.635 -2.11081 -0.0284674 0
M  V30 1983 O 204.983 -2.03257 -1.04397 0
M  V30 1984 C 205.193 -2.43272 2.50239 0
M  V30 1985 C 206.541 -3.07907 2.92367 0
M  V30 1986 O 207.565 -2.53599 2.50132 0
M  V30 1987 O 206.424 -4.0632 3.65467 0
M  V30 1988 H 203.518 -0.638076 0.526106 0
M  V30 1989 H 206.064 -0.703235 1.54443 0
M  V30 1990 H 204.836 -1.91803 3.41068 0
M  V30 1991 H 204.459 -3.23479 2.31186 0
M  V30 1992 N 205.456 -1.28612 -0.910864 0
M  V30 1993 C 206.733 -1.06632 -1.63979 0
M  V30 1994 C 207.113 0.393351 -2.07403 0
M  V30 1995 O 206.461 1.37999 -1.82122 0
M  V30 1996 C 206.671 -2.0436 -2.8291 0
M  V30 1997 C 208.019 -2.34666 -3.5386 0
M  V30 1998 O 209.043 -2.02467 -2.93062 0
M  V30 1999 O 207.902 -2.89631 -4.63439 0
M  V30 2000 H 204.996 -0.407737 -0.7195 0
M  V30 2001 H 207.542 -1.39942 -0.959914 0
M  V30 2002 H 206.314 -3.02727 -2.47936 0
M  V30 2003 H 205.937 -1.71714 -3.58609 0
M  V30 2004 N 206.934 1.1197 -1.10907 0
M  V30 2005 C 207.864 2.19928 -0.784473 0
M  V30 2006 C 208.845 1.6833 0.244726 0
M  V30 2007 O 210.03 1.93892 0.109418 0
M  V30 2008 C 207.16 3.46597 -0.220827 0
M  V30 2009 C 206.114 4.11376 -1.18127 0
M  V30 2010 C 205.44 5.32554 -0.478594 0
M  V30 2011 C 206.74 4.56945 -2.52979 0
M  V30 2012 H 208.434 2.47337 -1.68715 0
M  V30 2013 H 205.98 1.18879 -0.812642 0
M  V30 2014 H 207.933 4.21396 0.0184278 0
M  V30 2015 H 206.657 3.1863 0.717113 0
M  V30 2016 H 205.316 3.38564 -1.40606 0
M  V30 2017 H 204.964 5.00856 0.463976 0
M  V30 2018 H 204.664 5.76844 -1.11912 0
M  V30 2019 H 206.188 6.10096 -0.248 0
M  V30 2020 H 207.602 5.23093 -2.3462 0
M  V30 2021 H 205.999 5.1203 -3.12962 0
M  V30 2022 H 207.069 3.70676 -3.12614 0
M  V30 2023 N 208.412 0.89855 1.29475 0
M  V30 2024 C 209.342 0.39201 2.30186 0
M  V30 2025 C 210.323 -0.532359 1.61555 0
M  V30 2026 O 211.508 -0.443331 1.89072 0
M  V30 2027 C 208.638 -0.382353 3.45189 0
M  V30 2028 C 207.592 0.451483 4.25612 0
M  V30 2029 C 206.918 -0.450307 5.328 0
M  V30 2030 C 208.218 1.70079 4.93832 0
M  V30 2031 H 209.912 1.23362 2.72804 0
M  V30 2032 H 207.458 0.594638 1.31149 0
M  V30 2033 H 209.411 -0.747451 4.14718 0
M  V30 2034 H 208.135 -1.25774 3.01411 0
M  V30 2035 H 206.794 0.798897 3.57789 0
M  V30 2036 H 206.442 -1.32379 4.85268 0
M  V30 2037 H 206.142 0.103902 5.87508 0
M  V30 2038 H 207.666 -0.811623 6.05182 0
M  V30 2039 H 209.08 1.40549 5.55805 0
M  V30 2040 H 207.477 2.19623 5.58467 0
M  V30 2041 H 208.547 2.43744 4.19186 0
M  V30 2042 N 209.89 -1.43072 0.660911 0
M  V30 2043 C 211.115 -2.06584 0.183805 0
M  V30 2044 C 211.54 -1.49257 -1.14472 0
M  V30 2045 O 210.898 -0.605528 -1.70889 0
M  V30 2046 C 210.946 -3.60418 0.114434 0
M  V30 2047 O 210.05 -4.01981 -0.921137 0
M  V30 2048 H 209.391 -0.656669 0.0983994 0
M  V30 2049 H 211.921 -1.83447 0.906006 0
M  V30 2050 H 211.931 -4.07946 -0.0663394 0
M  V30 2051 H 210.606 -4.01519 1.08422 0
M  V30 2052 H 209.183 -3.66029 -0.71253 0
M  V30 2053 N 211.368 -0.403325 -1.52352 0
M  V30 2054 C 212.645 0.232611 -1.94212 0
M  V30 2055 C 213.025 1.63133 -1.33981 0
M  V30 2056 O 212.373 2.22659 -0.513344 0
M  V30 2057 C 212.583 0.244811 -3.4814 0
M  V30 2058 C 213.931 0.46698 -4.22024 0
M  V30 2059 O 214.955 0.324419 -3.5472 0
M  V30 2060 O 213.814 0.74747 -5.41364 0
M  V30 2061 H 210.908 0.148223 -0.813609 0
M  V30 2062 H 213.454 -0.458848 -1.63379 0
M  V30 2063 H 212.226 -0.734378 -3.84347 0
M  V30 2064 H 211.849 0.980611 -3.85318 0
M  V30 2065 N 212.846 1.57033 -0.133567 0
M  V30 2066 C 214.071 2.00475 0.531477 0
M  V30 2067 C 214.496 1.01291 1.58499 0
M  V30 2068 O 213.854 -0.0133279 1.81295 0
M  V30 2069 C 213.902 3.42729 1.12113 0
M  V30 2070 O 213.006 3.46498 2.23636 0
M  V30 2071 H 212.347 0.650876 0.131362 0
M  V30 2072 H 214.877 2.03344 -0.22634 0
M  V30 2073 H 214.887 3.81246 1.4531 0
M  V30 2074 H 213.562 4.14428 0.349557 0
M  V30 2075 H 212.139 3.19811 1.91769 0
M  V30 2076 N 214.325 -0.140222 1.56975 0
M  V30 2077 C 215.235 -1.19223 2.02047 0
M  V30 2078 C 216.251 -1.46612 0.937062 0
M  V30 2079 O 217.427 -1.58148 1.24704 0
M  V30 2080 C 214.492 -2.50414 2.39778 0
M  V30 2081 C 213.553 -2.30612 3.621 0
M  V30 2082 C 212.786 -3.55547 3.98023 0
M  V30 2083 O 213.009 -4.62004 3.34528 0
M  V30 2084 O 211.943 -3.47808 4.91237 0
M  V30 2085 H 215.769 -0.839559 2.91865 0
M  V30 2086 H 213.354 -0.349453 1.45256 0
M  V30 2087 H 215.236 -3.27747 2.64877 0
M  V30 2088 H 213.911 -2.85198 1.53114 0
M  V30 2089 H 212.818 -1.51207 3.4218 0
M  V30 2090 H 214.151 -2.00741 4.49404 0
M  V30 2091 N 215.803 -1.52179 -0.40978 0
M  V30 2092 C 217.028 -1.70347 -1.18308 0
M  V30 2093 C 217.453 -0.411887 -1.83535 0
M  V30 2094 O 216.811 0.630587 -1.6998 0
M  V30 2095 C 216.859 -2.83977 -2.22238 0
M  V30 2096 O 215.963 -2.495 -3.28365 0
M  V30 2097 H 215.304 -0.567103 -0.345384 0
M  V30 2098 H 217.834 -1.98879 -0.480445 0
M  V30 2099 H 217.844 -3.0887 -2.66577 0
M  V30 2100 H 216.519 -3.77685 -1.74146 0
M  V30 2101 H 215.096 -2.35277 -2.89308 0
M  V30 2102 N 217.281 0.66697 -1.42791 0
M  V30 2103 C 218.697 0.981027 -1.25889 0
M  V30 2104 C 218.897 2.00793 -0.168695 0
M  V30 2105 O 217.953 2.48321 0.45747 0
M  V30 2106 C 219.266 1.47838 -2.61848 0
M  V30 2107 C 220.814 1.59575 -2.69267 0
M  V30 2108 C 221.289 2.12704 -4.05612 0
M  V30 2109 N 222.78 2.20026 -4.07606 0
M  V30 2110 C 223.515 2.62227 -5.09926 0
M  V30 2111 N 223.011 3.03824 -6.22626 0
M  V30 2112 N 224.804 2.62045 -4.97281 0
M  V30 2113 H 216.955 -0.0127891 -2.12396 0
M  V30 2114 H 219.218 0.0568258 -0.946295 0
M  V30 2115 H 218.924 0.798299 -3.4252 0
M  V30 2116 H 218.798 2.45579 -2.86305 0
M  V30 2117 H 221.185 2.26687 -1.88936 0
M  V30 2118 H 221.266 0.60302 -2.48591 0
M  V30 2119 H 220.91 1.46198 -4.86404 0
M  V30 2120 H 220.84 3.12782 -4.23645 0
M  V30 2121 H 223.331 1.90708 -3.2625 0
M  V30 2122 H 223.644 3.34734 -6.96544 0
M  V30 2123 H 221.989 3.01662 -6.26119 0
M  V30 2124 H 225.18 2.28916 -4.08308 0
M  V30 2125 H 225.353 2.94613 -5.77154 0
M  V30 2126 N 218.759 1.29093 0.90403 0
M  V30 2127 C 219.984 1.19809 1.69294 0
M  V30 2128 C 220.409 -0.238481 1.86582 0
M  V30 2129 O 219.767 -1.1723 1.383 0
M  V30 2130 C 219.815 1.91202 3.05736 0
M  V30 2131 O 218.919 1.22611 3.93752 0
M  V30 2132 H 218.26 0.415385 0.518027 0
M  V30 2133 H 220.79 1.70586 1.12967 0
M  V30 2134 H 220.8 1.99487 3.55906 0
M  V30 2135 H 219.475 2.95692 2.92471 0
M  V30 2136 H 218.052 1.22554 3.52186 0
M  V30 2137 N 220.237 -1.11381 1.11499 0
M  V30 2138 C 221.653 -1.35143 0.849031 0
M  V30 2139 C 221.853 -1.94515 -0.525938 0
M  V30 2140 O 220.909 -2.1785 -1.27662 0
M  V30 2141 C 222.222 -2.28249 1.95762 0
M  V30 2142 C 223.77 -2.41812 1.98736 0
M  V30 2143 C 224.245 -3.3824 3.088 0
M  V30 2144 N 225.736 -3.45803 3.08179 0
M  V30 2145 C 226.471 -4.20358 3.89982 0
M  V30 2146 N 225.967 -4.97884 4.8175 0
M  V30 2147 N 227.76 -4.15877 3.78157 0
M  V30 2148 H 219.911 -0.712062 2.00109 0
M  V30 2149 H 222.174 -0.376025 0.870235 0
M  V30 2150 H 221.88 -1.91817 2.94787 0
M  V30 2151 H 221.754 -3.28473 1.85433 0
M  V30 2152 H 224.141 -2.77518 1.00338 0
M  V30 2153 H 224.222 -1.41437 2.13141 0
M  V30 2154 H 223.866 -3.03261 4.07425 0
M  V30 2155 H 223.796 -4.38471 2.91635 0
M  V30 2156 H 226.287 -2.90506 2.41691 0
M  V30 2157 H 226.6 -5.52142 5.40702 0
M  V30 2158 H 224.945 -4.97043 4.85771 0
M  V30 2159 H 228.136 -3.544 3.05808 0
M  V30 2160 H 228.309 -4.73723 4.42143 0
M  V30 2161 N 221.715 -0.905404 -1.28997 0
M  V30 2162 C 222.963 -0.533192 -1.9494 0
M  V30 2163 C 223.284 0.924618 -1.71685 0
M  V30 2164 O 222.554 1.65268 -1.05183 0
M  V30 2165 H 221.134 -0.194194 -0.721317 0
M  V30 2166 H 223.796 -1.15294 -1.57141 0
M  V30 2167 H 222.892 -0.72059 -3.03667 0
M  V30 2168 N 223.193 1.4272 -0.668489 0
M  V30 2169 C 224.141 2.32586 0.0254857 0
M  V30 2170 C 225.135 1.49471 0.797176 0
M  V30 2171 O 226.341 1.65583 0.705853 0
M  V30 2172 H 222.716 0.751514 0.0270339 0
M  V30 2173 H 224.687 2.88823 -0.749936 0
M  V30 2174 C 223.436 3.3397 0.967427 0
M  V30 2175 H 222.759 3.97961 0.383048 0
M  V30 2176 H 224.199 3.9945 1.42181 0
M  V30 2177 C 222.658 2.65744 2.0708 0
M  V30 2178 O 223.188 2.48454 3.15648 0
M  V30 2179 N 221.394 2.2487 1.8407 0
M  V30 2180 H 220.941 2.39132 0.95778 0
M  V30 2181 H 220.899 1.79552 2.58086 0
M  V30 2182 N 224.671 0.411399 1.52136 0
M  V30 2183 C 225.917 -0.163888 2.02137 0
M  V30 2184 C 226.25 -1.44597 1.29636 0
M  V30 2185 O 225.525 -1.90272 0.403353 0
M  V30 2186 C 225.808 -0.40927 3.57767 0
M  V30 2187 C 225.661 0.889643 4.40914 0
M  V30 2188 C 226.98 -1.19042 4.23694 0
M  V30 2189 H 224.099 -0.0580896 0.734707 0
M  V30 2190 H 226.741 0.54531 1.82007 0
M  V30 2191 H 224.891 -1.0134 3.7505 0
M  V30 2192 H 226.563 1.52575 4.35337 0
M  V30 2193 H 224.806 1.50011 4.07037 0
M  V30 2194 H 225.477 0.672314 5.4789 0
M  V30 2195 H 227.953 -0.678942 4.10524 0
M  V30 2196 H 226.829 -1.33086 5.32522 0
M  V30 2197 H 227.09 -2.21166 3.82803 0
M  V30 2198 N 226.149 -1.5696 0.141893 0
M  V30 2199 C 227.081 -2.13619 -0.830627 0
M  V30 2200 C 228.094 -1.08439 -1.21428 0
M  V30 2201 O 229.283 -1.35734 -1.15925 0
M  V30 2202 C 226.383 -2.63978 -2.12529 0
M  V30 2203 C 225.556 -3.93504 -1.9098 0
M  V30 2204 C 224.615 -4.29225 -3.04388 0
M  V30 2205 O 223.641 -4.97641 -2.76302 0
M  V30 2206 N 224.843 -3.88393 -4.31429 0
M  V30 2207 H 227.608 -2.97691 -0.34641 0
M  V30 2208 H 225.169 -1.61846 -0.0418375 0
M  V30 2209 H 227.161 -2.84891 -2.87436 0
M  V30 2210 H 225.731 -1.84659 -2.52229 0
M  V30 2211 H 224.951 -3.81269 -1.00139 0
M  V30 2212 H 226.239 -4.78154 -1.73914 0
M  V30 2213 H 225.637 -3.33257 -4.57117 0
M  V30 2214 H 224.194 -4.14368 -5.03133 0
M  V30 2215 N 227.627 0.131896 -1.57047 0
M  V30 2216 C 228.557 1.16384 -2.02428 0
M  V30 2217 C 229.538 1.43936 -0.90644 0
M  V30 2218 O 230.723 1.54599 -1.17528 0
M  V30 2219 C 227.853 2.49328 -2.4177 0
M  V30 2220 C 226.807 2.36266 -3.56879 0
M  V30 2221 C 226.133 3.74057 -3.8208 0
M  V30 2222 C 227.433 1.834 -4.89042 0
M  V30 2223 H 229.127 0.786433 -2.88887 0
M  V30 2224 H 226.673 0.376855 -1.38981 0
M  V30 2225 H 228.626 3.21759 -2.7212 0
M  V30 2226 H 227.35 2.88934 -1.52266 0
M  V30 2227 H 226.009 1.66286 -3.26718 0
M  V30 2228 H 225.657 4.11125 -2.89803 0
M  V30 2229 H 225.357 3.66174 -4.59554 0
M  V30 2230 H 226.881 4.48012 -4.1487 0
M  V30 2231 H 228.295 2.45636 -5.18011 0
M  V30 2232 H 226.692 1.8637 -5.70426 0
M  V30 2233 H 227.762 0.790662 -4.7841 0
M  V30 2234 N 229.106 1.52395 0.401703 0
M  V30 2235 C 230.016 1.7917 1.51444 0
M  V30 2236 C 231.032 0.677691 1.6026 0
M  V30 2237 O 232.208 0.963909 1.76835 0
M  V30 2238 C 229.273 1.94347 2.87107 0
M  V30 2239 C 228.334 3.18257 2.88116 0
M  V30 2240 C 227.567 3.32701 4.17308 0
M  V30 2241 O 227.79 2.52238 5.11598 0
M  V30 2242 O 226.724 4.25891 4.25324 0
M  V30 2243 H 230.55 2.73633 1.31752 0
M  V30 2244 H 228.135 1.3733 0.588296 0
M  V30 2245 H 230.017 2.06109 3.67555 0
M  V30 2246 H 228.692 1.03073 3.06851 0
M  V30 2247 H 227.599 3.11947 2.06494 0
M  V30 2248 H 228.932 4.09336 2.73322 0
M  V30 2249 N 230.584 -0.659388 1.43143 0
M  V30 2250 C 231.547 -1.75432 1.47501 0
M  V30 2251 C 232.547 -1.56707 0.360512 0
M  V30 2252 O 233.737 -1.62717 0.622002 0
M  V30 2253 C 230.869 -3.14239 1.32162 0
M  V30 2254 H 232.062 -1.7295 2.45006 0
M  V30 2255 H 229.615 -0.870469 1.29817 0
M  V30 2256 H 230.35 -3.22336 0.356401 0
M  V30 2257 H 230.135 -3.29235 2.12948 0
M  V30 2258 H 231.625 -3.94094 1.3813 0
M  V30 2259 N 232.062 -1.29571 -0.897171 0
M  V30 2260 C 233.31 -1.17456 -1.64464 0
M  V30 2261 C 233.631 0.273698 -1.9307 0
M  V30 2262 O 232.901 1.18684 -1.55855 0
M  V30 2263 H 231.481 -0.431706 -0.609622 0
M  V30 2264 H 234.143 -1.62531 -1.07562 0
M  V30 2265 H 233.239 -1.72648 -2.59998 0
M  V30 2266 N 233.54 1.10788 -1.12088 0
M  V30 2267 C 234.45 2.20599 -0.798338 0
M  V30 2268 C 235.466 1.72712 0.21135 0
M  V30 2269 O 236.642 2.01348 0.0458477 0
M  V30 2270 C 233.707 3.45771 -0.253674 0
M  V30 2271 C 232.768 4.08411 -1.32283 0
M  V30 2272 C 232.001 5.27608 -0.80406 0
M  V30 2273 O 232.224 5.69241 0.363478 0
M  V30 2274 O 231.158 5.8101 -1.57198 0
M  V30 2275 H 234.984 2.50614 -1.7154 0
M  V30 2276 H 232.569 1.19454 -0.897275 0
M  V30 2277 H 234.451 4.21376 0.0453691 0
M  V30 2278 H 233.126 3.1739 0.636005 0
M  V30 2279 H 232.033 3.34507 -1.67499 0
M  V30 2280 H 233.366 4.40986 -2.18614 0
M  V30 2281 N 235.018 0.912232 1.28515 0
M  V30 2282 C 236.295 0.463597 1.90027 0
M  V30 2283 C 236.675 -1.05753 1.82701 0
M  V30 2284 O 236.023 -1.90492 1.26194 0
M  V30 2285 C 236.233 0.992253 3.34597 0
M  V30 2286 C 237.581 1.04344 4.11579 0
M  V30 2287 O 238.605 0.94079 3.43551 0
M  V30 2288 O 237.464 1.1995 5.33174 0
M  V30 2289 H 234.558 0.146666 0.813891 0
M  V30 2290 H 237.104 1.00292 1.36893 0
M  V30 2291 H 235.876 2.03623 3.34146 0
M  V30 2292 H 235.499 0.433672 3.95228 0
M  V30 2293 N 236.496 -1.42363 0.676048 0
M  V30 2294 C 237.742 -2.0182 0.199125 0
M  V30 2295 C 238.075 -1.53339 -1.19168 0
M  V30 2296 O 237.35 -0.736124 -1.80032 0
M  V30 2297 C 237.633 -3.59331 0.235144 0
M  V30 2298 C 237.486 -4.17989 1.66149 0
M  V30 2299 C 238.805 -4.3813 -0.41595 0
M  V30 2300 H 235.924 -0.733293 0.0738311 0
M  V30 2301 H 238.566 -1.69368 0.86107 0
M  V30 2302 H 236.716 -3.87109 -0.328487 0
M  V30 2303 H 238.388 -4.0116 2.27747 0
M  V30 2304 H 236.631 -3.7377 2.20178 0
M  V30 2305 H 237.302 -5.27126 1.63837 0
M  V30 2306 H 239.778 -4.16051 0.0638529 0
M  V30 2307 H 238.654 -5.47717 -0.360115 0
M  V30 2308 H 238.915 -4.16101 -1.49373 0
M  V30 2309 N 237.974 -0.419461 -1.51915 0
M  V30 2310 C 239.222 0.152637 -2.01523 0
M  V30 2311 C 239.543 1.44762 -1.30649 0
M  V30 2312 O 238.813 1.90997 -0.435535 0
M  V30 2313 H 237.393 0.0593966 -0.744635 0
M  V30 2314 H 240.055 -0.558073 -1.86739 0
M  V30 2315 H 239.151 0.341369 -3.10227 0
M  V30 2316 N 239.452 1.56882 -0.150215 0
M  V30 2317 C 240.384 2.14057 0.819286 0
M  V30 2318 C 241.397 1.09082 1.20851 0
M  V30 2319 O 242.586 1.36347 1.15203 0
M  V30 2320 C 239.686 2.65102 2.11127 0
M  V30 2321 C 238.859 3.94511 1.88891 0
M  V30 2322 C 237.918 4.30834 3.02107 0
M  V30 2323 O 236.944 4.99099 2.73659 0
M  V30 2324 N 238.146 3.90676 4.29363 0
M  V30 2325 H 240.911 2.97871 0.330618 0
M  V30 2326 H 238.472 1.61866 0.0332538 0
M  V30 2327 H 240.464 2.86411 2.85921 0
M  V30 2328 H 239.034 1.85994 2.51247 0
M  V30 2329 H 238.254 3.81795 0.981152 0
M  V30 2330 H 239.542 4.7907 1.71376 0
M  V30 2331 H 238.94 3.35677 4.55343 0
M  V30 2332 H 237.497 4.1703 5.00928 0
M  V30 2333 N 240.93 -0.123565 1.57115 0
M  V30 2334 C 241.877 -1.15177 2.00007 0
M  V30 2335 C 242.847 -1.41403 0.871454 0
M  V30 2336 O 244.032 -1.53346 1.13533 0
M  V30 2337 C 241.172 -2.47436 2.40561 0
M  V30 2338 C 240.285 -2.28184 3.66819 0
M  V30 2339 C 239.42 -3.53641 3.96373 0
M  V30 2340 C 238.459 -3.29528 5.15827 0
M  V30 2341 N 237.596 -4.47175 5.41275 0
M  V30 2342 H 242.436 -0.779008 2.87638 0
M  V30 2343 H 239.973 -0.373166 1.42288 0
M  V30 2344 H 241.931 -3.24584 2.62109 0
M  V30 2345 H 240.561 -2.82614 1.55978 0
M  V30 2346 H 239.613 -1.41976 3.52912 0
M  V30 2347 H 240.925 -2.0634 4.5412 0
M  V30 2348 H 240.079 -4.39209 4.18545 0
M  V30 2349 H 238.818 -3.78512 3.07538 0
M  V30 2350 H 237.823 -2.42349 4.93505 0
M  V30 2351 H 239.048 -3.06031 6.06236 0
M  V30 2352 H 236.994 -4.72175 4.55397 0
M  V30 2353 H 236.911 -4.28419 6.22891 0
M  V30 2354 H 238.179 -5.3389 5.67963 0
M  V30 2355 N 242.408 -1.52605 -0.393616 0
M  V30 2356 C 243.356 -1.77688 -1.50099 0
M  V30 2357 C 244.35 -0.644615 -1.56656 0
M  V30 2358 O 245.556 -0.826997 -1.59877 0
M  V30 2359 H 241.931 -0.562159 -0.499481 0
M  V30 2360 H 243.902 -2.7043 -1.26135 0
M  V30 2361 C 242.651 -1.95858 -2.87289 0
M  V30 2362 H 241.974 -2.8241 -2.82992 0
M  V30 2363 H 243.414 -2.174 -3.64024 0
M  V30 2364 C 241.873 -0.729848 -3.28899 0
M  V30 2365 O 242.403 0.0949217 -4.01588 0
M  V30 2366 N 240.609 -0.561283 -2.85128 0
M  V30 2367 H 240.156 -1.23357 -2.26143 0
M  V30 2368 H 240.114 0.2595 -3.13327 0
M  V30 2369 N 243.887 0.651787 -1.4349 0
M  V30 2370 C 244.837 1.75783 -1.45205 0
M  V30 2371 C 245.821 1.57679 -0.320328 0
M  V30 2372 O 247.013 1.67767 -0.564211 0
M  V30 2373 C 244.142 3.14377 -1.3792 0
M  V30 2374 C 243.228 3.38023 -2.56127 0
M  V30 2375 N 243.619 3.32135 -3.81471 0
M  V30 2376 C 241.917 3.68747 -2.50882 0
M  V30 2377 C 242.618 3.55902 -4.60118 0
M  V30 2378 N 241.594 3.77783 -3.90872 0
M  V30 2379 H 245.396 1.69657 -2.39987 0
M  V30 2380 H 242.91 0.853508 -1.38163 0
M  V30 2381 H 244.907 3.93666 -1.37231 0
M  V30 2382 H 243.567 3.21683 -0.441596 0
M  V30 2383 H 244.578 3.11515 -4.13738 0
M  V30 2384 H 241.255 3.8316 -1.65816 0
M  V30 2385 H 242.645 3.57116 -5.69138 0
M  V30 2386 N 245.365 1.30045 0.890287 0
M  V30 2387 C 246.611 1.19747 1.64415 0
M  V30 2388 C 246.966 -0.246591 1.90813 0
M  V30 2389 O 246.259 -1.174 1.51419 0
M  V30 2390 C 246.453 1.95409 2.99249 0
M  V30 2391 C 246.282 3.47025 2.86013 0
M  V30 2392 C 245.052 4.1638 2.86279 0
M  V30 2393 C 247.25 4.42353 2.62351 0
M  V30 2394 N 245.232 5.54293 2.63879 0
M  V30 2395 C 246.603 5.67792 2.49022 0
M  V30 2396 C 248.658 4.32009 2.47533 0
M  V30 2397 C 247.361 6.8406 2.22383 0
M  V30 2398 C 249.387 5.48038 2.22279 0
M  V30 2399 C 248.749 6.72455 2.09722 0
M  V30 2400 H 244.848 0.493223 0.60684 0
M  V30 2401 H 247.432 1.6399 1.04954 0
M  V30 2402 H 245.603 1.53565 3.56752 0
M  V30 2403 H 247.335 1.77298 3.63796 0
M  V30 2404 H 244.09 3.68164 2.97913 0
M  V30 2405 H 244.514 6.26852 2.55706 0
M  V30 2406 H 249.156 3.36503 2.55979 0
M  V30 2407 H 246.874 7.79612 2.12675 0
M  V30 2408 H 250.46 5.41939 2.11643 0
M  V30 2409 H 249.34 7.60722 1.90453 0
M  V30 2410 N 246.843 -1.10192 1.12674 0
M  V30 2411 C 247.775 -2.16418 0.754701 0
M  V30 2412 C 248.788 -1.61309 -0.21986 0
M  V30 2413 O 249.977 -1.785 -0.000826841 0
M  V30 2414 C 247.077 -3.38762 0.096698 0
M  V30 2415 C 246.25 -4.23307 1.10136 0
M  V30 2416 C 245.309 -5.24092 0.470513 0
M  V30 2417 O 244.335 -5.57906 1.12824 0
M  V30 2418 N 245.537 -5.75491 -0.760948 0
M  V30 2419 H 248.302 -2.48943 1.66875 0
M  V30 2420 H 245.863 -1.25834 1.01869 0
M  V30 2421 H 247.855 -4.03291 -0.337384 0
M  V30 2422 H 246.425 -3.04192 -0.720153 0
M  V30 2423 H 245.645 -3.55036 1.71299 0
M  V30 2424 H 246.933 -4.76624 1.78064 0
M  V30 2425 H 246.331 -5.50222 -1.31424 0
M  V30 2426 H 244.888 -6.41792 -1.13781 0
M  V30 2427 N 248.321 -0.919034 -1.28029 0
M  V30 2428 C 249.268 -0.410005 -2.27129 0
M  V30 2429 C 250.238 0.518405 -1.57803 0
M  V30 2430 O 251.423 0.439451 -1.8567 0
M  V30 2431 C 248.563 0.339054 -3.4343 0
M  V30 2432 C 247.676 -0.622468 -4.27492 0
M  V30 2433 C 246.811 0.145567 -5.31001 0
M  V30 2434 C 245.85 -0.809226 -6.06727 0
M  V30 2435 N 244.987 -0.0743728 -7.02061 0
M  V30 2436 H 249.827 -1.26011 -2.70047 0
M  V30 2437 H 247.364 -0.632663 -1.328 0
M  V30 2438 H 249.322 0.789586 -4.0966 0
M  V30 2439 H 247.952 1.15346 -3.01488 0
M  V30 2440 H 247.004 -1.19153 -3.61257 0
M  V30 2441 H 248.316 -1.35252 -4.80113 0
M  V30 2442 H 247.47 0.656417 -6.03139 0
M  V30 2443 H 246.209 0.908643 -4.79161 0
M  V30 2444 H 245.214 -1.3314 -5.33436 0
M  V30 2445 H 246.439 -1.57194 -6.60656 0
M  V30 2446 H 244.385 0.670616 -6.52563 0
M  V30 2447 H 244.302 -0.744157 -7.52329 0
M  V30 2448 H 245.57 0.416109 -7.78389 0
M  V30 2449 N 249.799 1.42003 -0.683588 0
M  V30 2450 C 251.048 2.00638 -0.206681 0
M  V30 2451 C 251.361 1.5472 1.19671 0
M  V30 2452 O 252.567 2.05833 1.77045 0
M  V30 2453 C 251.023 3.58487 -0.318632 0
M  V30 2454 C 250.631 4.1339 -1.72663 0
M  V30 2455 C 252.375 4.24384 0.0991141 0
M  V30 2456 C 250.282 5.63633 -1.79087 0
M  V30 2457 H 249.212 0.750408 -0.0735107 0
M  V30 2458 H 251.863 1.62624 -0.850048 0
M  V30 2459 H 250.245 3.94047 0.392781 0
M  V30 2460 H 251.419 3.89273 -2.46583 0
M  V30 2461 H 249.734 3.59976 -2.09299 0
M  V30 2462 H 252.331 5.34652 0.0713833 0
M  V30 2463 H 252.674 4.00505 1.13586 0
M  V30 2464 H 253.207 3.93816 -0.561599 0
M  V30 2465 H 249.946 5.92323 -2.80774 0
M  V30 2466 H 249.466 5.89714 -1.09535 0
M  V30 2467 H 251.145 6.28201 -1.5483 0
M  V30 2468 N 251.277 0.427512 1.51691 0
M  V30 2469 C 252.693 0.0792977 1.59403 0
M  V30 2470 C 252.893 -1.41035 1.43914 0
M  V30 2471 O 251.949 -2.17922 1.27539 0
M  V30 2472 C 253.262 0.590636 2.94842 0
M  V30 2473 C 254.81 0.550215 3.08126 0
M  V30 2474 C 255.285 1.03836 4.46074 0
M  V30 2475 N 256.776 0.995943 4.52366 0
M  V30 2476 C 257.511 1.34463 5.57411 0
M  V30 2477 N 257.007 1.76569 6.69922 0
M  V30 2478 N 258.8 1.26343 5.47717 0
M  V30 2479 H 250.951 1.39687 1.60004 0
M  V30 2480 H 253.214 0.575003 0.753708 0
M  V30 2481 H 252.92 1.63251 3.11516 0
M  V30 2482 H 252.794 0.0102061 3.77199 0
M  V30 2483 H 255.181 -0.482654 2.91126 0
M  V30 2484 H 255.262 1.16693 2.27632 0
M  V30 2485 H 254.906 2.06965 4.63819 0
M  V30 2486 H 254.836 0.398286 5.25092 0
M  V30 2487 H 257.327 0.68661 3.7161 0
M  V30 2488 H 257.64 2.01438 7.46085 0
M  V30 2489 H 255.985 1.80488 6.71155 0
M  V30 2490 H 259.176 0.933209 4.58703 0
M  V30 2491 H 259.349 1.53846 6.29472 0
M  V30 2492 N 252.755 -1.56801 0.158532 0
M  V30 2493 C 253.983 -2.00859 -0.496303 0
M  V30 2494 C 254.398 -1.03871 -1.57659 0
M  V30 2495 O 253.755 -0.0375165 -1.82461 0
M  V30 2496 C 253.806 -3.4479 -1.08638 0
M  V30 2497 O 253.527 -4.38072 -0.0492322 0
M  V30 2498 C 255.028 -4.04185 -1.8207 0
M  V30 2499 H 252.248 -0.65864 -0.128199 0
M  V30 2500 H 254.792 -2.02885 0.256506 0
M  V30 2501 H 252.947 -3.43579 -1.78975 0
M  V30 2502 H 253.361 -5.2227 -0.483102 0
M  V30 2503 H 254.835 -5.06857 -2.18633 0
M  V30 2504 H 255.312 -3.45549 -2.71095 0
M  V30 2505 H 255.918 -4.0906 -1.16405 0
M  V30 2506 N 254.233 0.115231 -1.57178 0
M  V30 2507 C 255.166 1.17166 -1.95825 0
M  V30 2508 C 256.144 1.39912 -0.828463 0
M  V30 2509 O 257.328 1.54004 -1.08697 0
M  V30 2510 C 254.455 2.52478 -2.25771 0
M  V30 2511 C 253.501 2.46136 -3.48309 0
M  V30 2512 S 254.334 1.89736 -5.0076 0
M  V30 2513 C 255.49 3.26713 -5.33863 0
M  V30 2514 H 255.723 0.842103 -2.85124 0
M  V30 2515 H 253.256 0.322136 -1.51002 0
M  V30 2516 H 255.214 3.30332 -2.43702 0
M  V30 2517 H 253.875 2.82609 -1.37079 0
M  V30 2518 H 253.068 3.45819 -3.66641 0
M  V30 2519 H 252.67 1.76404 -3.29784 0
M  V30 2520 H 254.962 4.22935 -5.29275 0
M  V30 2521 H 255.905 3.13205 -6.35065 0
M  V30 2522 H 256.313 3.25316 -4.61335 0
M  V30 2523 N 255.711 1.52812 0.385517 0
M  V30 2524 C 256.957 1.68275 1.13188 0
M  V30 2525 C 257.29 0.423179 1.89533 0
M  V30 2526 O 256.565 -0.579113 1.85679 0
M  V30 2527 C 256.848 2.92001 2.1073 0
M  V30 2528 C 256.701 4.28067 1.38125 0
M  V30 2529 C 258.02 3.11283 3.11113 0
M  V30 2530 H 255.139 0.612352 0.410115 0
M  V30 2531 H 257.781 1.85415 0.414869 0
M  V30 2532 H 255.931 2.77519 2.71874 0
M  V30 2533 H 257.603 4.54324 0.799187 0
M  V30 2534 H 255.846 4.28388 0.683092 0
M  V30 2535 H 256.517 5.10733 2.09417 0
M  V30 2536 H 258.993 3.2482 2.6006 0
M  V30 2537 H 257.869 3.99325 3.76605 0
M  V30 2538 H 258.13 2.25656 3.80173 0
M  V30 2539 N 257.189 -0.644168 1.43834 0
M  V30 2540 C 258.137 -1.77793 1.49974 0
M  V30 2541 C 259.131 -1.65253 0.372536 0
M  V30 2542 O 260.337 -1.7149 0.546924 0
M  V30 2543 H 256.712 -0.58675 0.47035 0
M  V30 2544 H 258.683 -1.69736 2.45423 0
M  V30 2545 C 257.432 -3.16087 1.4486 0
M  V30 2546 H 256.755 -3.26378 2.30905 0
M  V30 2547 H 258.195 -3.95349 1.53217 0
M  V30 2548 C 256.654 -3.36484 0.167463 0
M  V30 2549 O 257.184 -3.94298 -0.767609 0
M  V30 2550 N 255.39 -2.90504 0.0747556 0
M  V30 2551 H 254.937 -2.4364 0.836507 0
M  V30 2552 H 254.895 -3.04527 -0.781714 0
M  V30 2553 N 258.668 -1.30515 -0.883378 0
M  V30 2554 C 259.598 -1.19607 -2.00541 0
M  V30 2555 C 260.579 -0.086346 -1.69881 0
M  V30 2556 O 261.764 -0.268654 -1.92333 0
M  V30 2557 C 258.894 -0.888758 -3.35736 0
M  V30 2558 C 257.848 -1.95659 -3.8066 0
M  V30 2559 C 257.174 -1.50224 -5.13164 0
M  V30 2560 C 258.474 -3.36788 -3.99213 0
M  V30 2561 H 260.168 -2.13476 -2.09925 0
M  V30 2562 H 257.714 -1.02775 -1.00863 0
M  V30 2563 H 259.667 -0.799094 -4.13754 0
M  V30 2564 H 258.391 0.0856125 -3.26488 0
M  V30 2565 H 257.05 -2.03591 -3.04871 0
M  V30 2566 H 256.698 -0.516092 -5.00345 0
M  V30 2567 H 256.398 -2.2165 -5.44192 0
M  V30 2568 H 257.922 -1.42639 -5.93706 0
M  V30 2569 H 259.336 -3.31605 -4.67665 0
M  V30 2570 H 257.733 -4.06314 -4.41621 0
M  V30 2571 H 258.803 -3.78561 -3.03017 0
M  V30 2572 N 260.146 1.09593 -1.13257 0
M  V30 2573 C 261.557 1.63229 -0.906274 0
M  V30 2574 C 261.908 1.8811 0.557578 0
M  V30 2575 O 261.033 1.62953 1.42391 0
M  V30 2576 C 261.628 2.96535 -1.63867 0
M  V30 2577 C 260.187 3.47003 -1.45828 0
M  V30 2578 C 259.334 2.2145 -1.66898 0
M  V30 2579 H 262.285 0.92978 -1.28611 0
M  V30 2580 H 262.306 3.64411 -1.09476 0
M  V30 2581 H 261.818 2.78394 -2.70404 0
M  V30 2582 H 259.919 3.70272 -0.415848 0
M  V30 2583 H 260.032 4.24551 -2.2202 0
M  V30 2584 H 258.396 2.30022 -1.09371 0
M  V30 2585 H 259.179 2.0583 -2.74752 0
M  V30 2586 N 261.624 0.925811 1.2754 0
M  V30 2587 C 262.87 0.566092 1.94739 0
M  V30 2588 C 263.203 -0.890057 1.72603 0
M  V30 2589 O 262.478 -1.63467 1.05399 0
M  V30 2590 C 262.761 0.89054 3.48915 0
M  V30 2591 C 262.614 2.4003 3.80402 0
M  V30 2592 C 263.933 0.395101 4.38323 0
M  V30 2593 H 261.052 0.20714 0.707292 0
M  V30 2594 H 263.694 1.15725 1.50691 0
M  V30 2595 H 261.844 0.387452 3.86563 0
M  V30 2596 H 263.516 2.97494 3.52555 0
M  V30 2597 H 261.759 2.85028 3.2702 0
M  V30 2598 H 262.43 2.57785 4.8811 0
M  V30 2599 H 264.906 0.826241 4.07814 0
M  V30 2600 H 263.782 0.651086 5.45025 0
M  V30 2601 H 264.043 -0.704798 4.36446 0
M  V30 2602 N 263.102 -1.41638 0.69111 0
M  V30 2603 C 264.351 -2.00526 0.217318 0
M  V30 2604 C 264.664 -1.55353 -1.18848 0
M  V30 2605 O 265.87 -2.06769 -1.75951 0
M  V30 2606 C 264.326 -3.58313 0.337639 0
M  V30 2607 C 263.934 -4.12469 1.74852 0
M  V30 2608 C 265.678 -4.24431 -0.0766066 0
M  V30 2609 C 263.585 -5.62675 1.82074 0
M  V30 2610 H 262.515 -0.750008 0.0774893 0
M  V30 2611 H 265.166 -1.6217 0.858661 0
M  V30 2612 H 263.548 -3.9425 -0.371879 0
M  V30 2613 H 264.722 -3.8796 2.48644 0
M  V30 2614 H 263.037 -3.58861 2.11205 0
M  V30 2615 H 265.634 -5.34683 -0.0430284 0
M  V30 2616 H 265.977 -4.01101 -1.1146 0
M  V30 2617 H 266.51 -3.93512 0.582476 0
M  V30 2618 H 263.249 -5.90826 2.83911 0
M  V30 2619 H 262.769 -5.89124 1.12661 0
M  V30 2620 H 264.448 -6.27371 1.58159 0
M  V30 2621 N 264.58 -0.43555 -1.51462 0
M  V30 2622 C 265.805 0.132627 -2.06976 0
M  V30 2623 C 266.23 1.35848 -1.30104 0
M  V30 2624 O 265.588 1.78112 -0.338493 0
M  V30 2625 C 265.636 0.43523 -3.57964 0
M  V30 2626 O 264.74 1.52198 -3.83288 0
M  V30 2627 H 264.081 0.00265 -0.663995 0
M  V30 2628 H 266.611 -0.616369 -1.95095 0
M  V30 2629 H 266.621 0.686206 -4.02188 0
M  V30 2630 H 265.296 -0.460739 -4.1334 0
M  V30 2631 H 263.873 1.2611 -3.50928 0
M  V30 2632 N 266.058 1.56714 -0.166846 0
M  V30 2633 C 267.469 1.83378 0.350646 0
M  V30 2634 C 267.82 1.08646 1.63372 0
M  V30 2635 O 266.945 0.338058 2.13743 0
M  V30 2636 C 267.54 3.32643 0.642963 0
M  V30 2637 C 266.099 3.59818 1.10491 0
M  V30 2638 C 265.246 2.76954 0.138411 0
M  V30 2639 H 268.197 1.53803 -0.391193 0
M  V30 2640 H 268.218 3.49878 1.49551 0
M  V30 2641 H 267.73 3.87007 -0.291055 0
M  V30 2642 H 265.831 3.1086 2.05418 0
M  V30 2643 H 265.944 4.68178 1.01716 0
M  V30 2644 H 264.308 2.4666 0.634911 0
M  V30 2645 H 265.091 3.34097 -0.789549 0
M  V30 2646 N 267.536 -0.106894 1.57237 0
M  V30 2647 C 268.783 -0.812526 1.85484 0
M  V30 2648 C 269.111 -1.79304 0.753687 0
M  V30 2649 O 268.366 -1.94047 -0.253853 0
M  V30 2650 C 268.665 -1.58628 3.20268 0
M  V30 2651 C 268.331 -0.748967 4.44636 0
M  V30 2652 C 266.993 -0.518104 4.78403 0
M  V30 2653 C 269.345 -0.166122 5.20935 0
M  V30 2654 C 266.673 0.305659 5.85903 0
M  V30 2655 C 269.025 0.644899 6.29304 0
M  V30 2656 C 267.689 0.885965 6.61594 0
M  V30 2657 H 266.959 -0.297324 0.678734 0
M  V30 2658 H 269.606 -0.0744332 1.91355 0
M  V30 2659 H 267.911 -2.39562 3.10028 0
M  V30 2660 H 269.608 -2.13643 3.39349 0
M  V30 2661 H 266.198 -0.939006 4.18187 0
M  V30 2662 H 270.382 -0.33167 4.95191 0
M  V30 2663 H 265.638 0.501528 6.0934 0
M  V30 2664 H 269.812 1.10345 6.87602 0
M  V30 2665 H 267.439 1.52609 7.44725 0
M  V30 2666 N 269.014 -1.53014 -0.377408 0
M  V30 2667 C 269.961 -1.78616 -1.46168 0
M  V30 2668 C 270.931 -0.629917 -1.53692 0
M  V30 2669 O 272.116 -0.870861 -1.69766 0
M  V30 2670 C 269.256 -1.97123 -2.8326 0
M  V30 2671 C 268.369 -3.24831 -2.84796 0
M  V30 2672 C 267.504 -3.33591 -4.13389 0
M  V30 2673 C 266.543 -4.55377 -4.09021 0
M  V30 2674 N 265.68 -4.61355 -5.29241 0
M  V30 2675 H 270.52 -2.71142 -1.23637 0
M  V30 2676 H 268.057 -1.34326 -0.599577 0
M  V30 2677 H 270.015 -2.05839 -3.62886 0
M  V30 2678 H 268.645 -1.07946 -3.04216 0
M  V30 2679 H 267.697 -3.25128 -1.97474 0
M  V30 2680 H 269.009 -4.14523 -2.77439 0
M  V30 2681 H 268.163 -3.41554 -5.01424 0
M  V30 2682 H 266.902 -2.41894 -4.23484 0
M  V30 2683 H 265.907 -4.47527 -3.19373 0
M  V30 2684 H 267.132 -5.48402 -4.00539 0
M  V30 2685 H 265.078 -3.72554 -5.39944 0
M  V30 2686 H 264.995 -5.44935 -5.24006 0
M  V30 2687 H 266.263 -4.73586 -6.19141 0
M  V30 2688 N 270.492 0.636531 -1.44174 0
M  V30 2689 C 271.439 1.74875 -1.50624 0
M  V30 2690 C 272.409 1.62275 -0.35442 0
M  V30 2691 O 273.594 1.82276 -0.563908 0
M  V30 2692 C 270.734 3.13102 -1.45125 0
M  V30 2693 C 269.847 3.36717 -2.7064 0
M  V30 2694 C 268.982 4.64885 -2.57013 0
M  V30 2695 C 268.021 4.8166 -3.77717 0
M  V30 2696 N 267.158 6.01101 -3.62798 0
M  V30 2697 H 271.998 1.68697 -2.45653 0
M  V30 2698 H 269.535 0.823004 -1.21922 0
M  V30 2699 H 271.493 3.93034 -1.39929 0
M  V30 2700 H 270.123 3.18308 -0.536671 0
M  V30 2701 H 269.175 2.50763 -2.86046 0
M  V30 2702 H 270.487 3.44993 -3.60252 0
M  V30 2703 H 269.641 5.52969 -2.49619 0
M  V30 2704 H 268.38 4.58957 -1.64953 0
M  V30 2705 H 267.385 3.92007 -3.85501 0
M  V30 2706 H 268.61 4.89406 -4.70807 0
M  V30 2707 H 266.556 5.96273 -2.73486 0
M  V30 2708 H 266.473 6.10409 -4.46023 0
M  V30 2709 H 267.741 6.91761 -3.59286 0
M  V30 2710 N 271.97 1.30982 0.876444 0
M  V30 2711 C 273.386 1.09498 1.16113 0
M  V30 2712 C 273.586 -0.13875 2.01022 0
M  V30 2713 O 272.642 -0.829935 2.38471 0
M  V30 2714 C 273.955 2.36308 1.85954 0
M  V30 2715 C 275.503 2.41856 1.98683 0
M  V30 2716 C 275.978 3.6853 2.71937 0
M  V30 2717 N 277.469 3.69387 2.79477 0
M  V30 2718 C 278.204 4.64096 3.36753 0
M  V30 2719 N 277.7 5.69155 3.95012 0
M  V30 2720 N 279.493 4.51626 3.3465 0
M  V30 2721 H 271.644 2.10118 0.310494 0
M  V30 2722 H 273.907 0.926634 0.200131 0
M  V30 2723 H 273.613 3.26388 1.31011 0
M  V30 2724 H 273.487 2.4561 2.86278 0
M  V30 2725 H 275.874 1.52249 2.52793 0
M  V30 2726 H 275.955 2.36523 0.9742 0
M  V30 2727 H 275.599 4.58499 2.18496 0
M  V30 2728 H 275.529 3.71127 3.73593 0
M  V30 2729 H 278.02 2.93438 2.38123 0
M  V30 2730 H 278.333 6.3751 4.36808 0
M  V30 2731 H 276.678 5.72937 3.93406 0
M  V30 2732 H 279.869 3.68728 2.8837 0
M  V30 2733 H 280.042 5.25614 3.7899 0
M  V30 2734 N 273.449 -1.08991 1.13837 0
M  V30 2735 C 274.679 -1.84743 0.924859 0
M  V30 2736 C 275.087 -1.81629 -0.529874 0
M  V30 2737 O 274.43 -1.21397 -1.37872 0
M  V30 2738 C 274.492 -3.33568 1.34061 0
M  V30 2739 C 274.156 -3.60425 2.80968 0
M  V30 2740 C 275.153 -3.55771 3.79108 0
M  V30 2741 C 272.838 -3.88627 3.18236 0
M  V30 2742 C 274.832 -3.78939 5.12527 0
M  V30 2743 C 272.519 -4.11449 4.51833 0
M  V30 2744 C 273.517 -4.06598 5.48787 0
M  V30 2745 O 273.205 -4.28826 6.79973 0
M  V30 2746 H 272.937 -0.590258 0.329502 0
M  V30 2747 H 275.491 -1.38598 1.51591 0
M  V30 2748 H 273.721 -3.80442 0.692853 0
M  V30 2749 H 275.41 -3.90743 1.09886 0
M  V30 2750 H 276.176 -3.34005 3.51661 0
M  V30 2751 H 272.055 -3.91526 2.43369 0
M  V30 2752 H 275.599 -3.75068 5.88192 0
M  V30 2753 H 271.496 -4.32698 4.79002 0
M  V30 2754 H 272.264 -4.46264 6.86142 0
M  V30 2755 N 274.927 -0.932562 -1.27047 0
M  V30 2756 C 275.89 -0.440064 -2.24936 0
M  V30 2757 C 276.89 0.444071 -1.54547 0
M  V30 2758 O 278.08 0.244465 -1.72476 0
M  V30 2759 C 275.212 0.36678 -3.38921 0
M  V30 2760 H 276.405 -1.305 -2.70018 0
M  V30 2761 H 273.958 -0.713707 -1.39054 0
M  V30 2762 H 274.693 1.25033 -2.99228 0
M  V30 2763 H 274.478 -0.267204 -3.91188 0
M  V30 2764 H 275.968 0.701567 -4.11665 0
M  V30 2765 N 276.405 1.4127 -0.698611 0
M  V30 2766 C 277.651 2.01979 -0.239972 0
M  V30 2767 C 278.006 1.54353 1.14861 0
M  V30 2768 O 277.299 0.746218 1.76471 0
M  V30 2769 C 277.493 3.56592 -0.240192 0
M  V30 2770 C 277.322 4.19226 -1.62726 0
M  V30 2771 C 276.092 4.53389 -2.23084 0
M  V30 2772 C 278.29 4.45228 -2.57443 0
M  V30 2773 N 276.272 5.01327 -3.54323 0
M  V30 2774 C 277.643 4.94973 -3.73365 0
M  V30 2775 C 279.698 4.27243 -2.55671 0
M  V30 2776 C 278.401 5.28624 -4.878 0
M  V30 2777 C 280.427 4.61985 -3.69221 0
M  V30 2778 C 279.789 5.11904 -4.83873 0
M  V30 2779 H 275.888 0.770561 -0.133269 0
M  V30 2780 H 278.472 1.71767 -0.916748 0
M  V30 2781 H 276.643 3.86271 0.406082 0
M  V30 2782 H 278.375 4.04025 0.23356 0
M  V30 2783 H 275.13 4.39946 -1.75341 0
M  V30 2784 H 275.554 5.29697 -4.21604 0
M  V30 2785 H 280.196 3.87884 -1.68243 0
M  V30 2786 H 277.914 5.66905 -5.75885 0
M  V30 2787 H 281.5 4.49725 -3.69105 0
M  V30 2788 H 280.38 5.38282 -5.70282 0
M  V30 2789 N 277.883 0.443576 1.51229 0
M  V30 2790 C 279.129 -0.120975 2.02439 0
M  V30 2791 C 279.462 -1.41815 1.32674 0
M  V30 2792 O 278.737 -1.89373 0.443622 0
M  V30 2793 C 279.02 -0.333291 3.58554 0
M  V30 2794 C 278.873 0.982968 4.38928 0
M  V30 2795 C 280.192 -1.10028 4.26124 0
M  V30 2796 H 277.311 -0.0424923 0.735774 0
M  V30 2797 H 279.953 0.583794 1.80809 0
M  V30 2798 H 278.103 -0.933614 3.77115 0
M  V30 2799 H 279.775 1.61775 4.32003 0
M  V30 2800 H 278.018 1.58611 4.03763 0
M  V30 2801 H 278.689 0.788379 5.46341 0
M  V30 2802 H 281.165 -0.591711 4.11871 0
M  V30 2803 H 280.041 -1.21761 5.35225 0
M  V30 2804 H 280.302 -2.12996 3.87408 0
M  V30 2805 N 279.361 -1.56624 0.175154 0
M  V30 2806 C 280.293 -2.15333 -0.785128 0
M  V30 2807 C 281.306 -1.1099 -1.19101 0
M  V30 2808 O 282.495 -1.38162 -1.13019 0
M  V30 2809 C 279.595 -2.68427 -2.06882 0
M  V30 2810 C 278.768 -3.97466 -1.8259 0
M  V30 2811 C 277.827 -4.35585 -2.95215 0
M  V30 2812 O 276.853 -5.03389 -2.65684 0
M  V30 2813 N 278.055 -3.97457 -4.23094 0
M  V30 2814 H 280.82 -2.98359 -0.283187 0
M  V30 2815 H 278.381 -1.61898 -0.00749817 0
M  V30 2816 H 280.373 -2.90924 -2.81328 0
M  V30 2817 H 278.943 -1.89968 -2.48256 0
M  V30 2818 H 278.163 -3.83307 -0.920287 0
M  V30 2819 H 279.451 -4.81736 -1.63733 0
M  V30 2820 H 278.849 -3.42878 -4.49945 0
M  V30 2821 H 277.406 -4.24947 -4.9423 0
M  V30 2822 N 280.839 0.0985539 -1.57292 0
M  V30 2823 C 281.769 1.12064 -2.04851 0
M  V30 2824 C 282.75 1.41981 -0.936767 0
M  V30 2825 O 283.935 1.52071 -1.20781 0
M  V30 2826 C 281.065 2.44144 -2.47004 0
M  V30 2827 C 280.019 2.28643 -3.6181 0
M  V30 2828 C 279.345 3.65869 -3.89929 0
M  V30 2829 C 280.645 1.72986 -4.92822 0
M  V30 2830 H 282.339 0.724979 -2.9049 0
M  V30 2831 H 279.885 0.34729 -1.39749 0
M  V30 2832 H 281.838 3.15914 -2.78884 0
M  V30 2833 H 280.562 2.85639 -1.5836 0
M  V30 2834 H 279.221 1.59318 -3.30172 0
M  V30 2835 H 278.869 4.04885 -2.98458 0
M  V30 2836 H 278.569 3.56344 -4.67218 0
M  V30 2837 H 280.093 4.39112 -4.2428 0
M  V30 2838 H 281.507 2.34593 -5.23105 0
M  V30 2839 H 279.904 1.74229 -5.74251 0
M  V30 2840 H 280.974 0.689007 -4.7998 0
M  V30 2841 N 282.317 1.53212 0.369288 0
M  V30 2842 C 283.28 1.7872 1.43498 0
M  V30 2843 C 284.28 0.657554 1.46741 0
M  V30 2844 O 285.47 0.925736 1.47566 0
M  V30 2845 C 282.602 1.90591 2.82645 0
M  V30 2846 H 283.795 2.73894 1.22156 0
M  V30 2847 H 281.348 1.44233 0.602203 0
M  V30 2848 H 282.083 0.974709 3.09306 0
M  V30 2849 H 281.868 2.72751 2.8169 0
M  V30 2850 H 283.358 2.11931 3.59826 0
M  V30 2851 N 283.795 -0.628877 1.44509 0
M  V30 2852 C 285.043 -1.38565 1.4712 0
M  V30 2853 C 285.364 -1.94712 0.105899 0
M  V30 2854 O 284.634 -1.75912 -0.862079 0
M  V30 2855 H 283.214 -0.514333 0.541729 0
M  V30 2856 H 285.876 -0.740018 1.80305 0
M  V30 2857 H 284.972 -2.21583 2.19789 0
M  V30 2858 N 285.273 -1.31445 -0.869486 0
M  V30 2859 C 286.223 -1.15731 -1.96444 0
M  V30 2860 C 287.207 -0.0681855 -1.60755 0
M  V30 2861 O 288.399 -0.293154 -1.74555 0
M  V30 2862 C 285.528 -0.867255 -3.32165 0
M  V30 2863 C 284.614 -1.99738 -3.74119 0
M  V30 2864 N 285.005 -3.24447 -3.88031 0
M  V30 2865 C 283.303 -1.89723 -4.03635 0
M  V30 2866 C 284.004 -3.98374 -4.23879 0
M  V30 2867 N 282.98 -3.26547 -4.3459 0
M  V30 2868 H 286.782 -2.10296 -2.05312 0
M  V30 2869 H 284.296 -1.23009 -1.06031 0
M  V30 2870 H 286.293 -0.735668 -4.10358 0
M  V30 2871 H 284.953 0.0701614 -3.24624 0
M  V30 2872 H 285.964 -3.59557 -3.72746 0
M  V30 2873 H 282.641 -1.03449 -4.04481 0
M  V30 2874 H 284.031 -5.05844 -4.42235 0
M  V30 2875 N 286.751 1.08385 -1.14413 0
M  V30 2876 C 287.979 1.84517 -0.936001 0
M  V30 2877 C 288.394 1.81626 0.515503 0
M  V30 2878 O 287.751 1.22008 1.35721 0
M  V30 2879 C 287.802 3.32049 -1.42918 0
M  V30 2880 O 287.523 3.34951 -2.82381 0
M  V30 2881 C 289.024 4.24986 -1.26103 0
M  V30 2882 H 286.244 0.582491 -0.333084 0
M  V30 2883 H 288.788 1.36885 -1.5193 0
M  V30 2884 H 286.943 3.7707 -0.888641 0
M  V30 2885 H 287.357 4.27048 -3.04517 0
M  V30 2886 H 288.831 5.26615 -1.6547 0
M  V30 2887 H 289.308 4.38726 -0.20392 0
M  V30 2888 H 289.914 3.85791 -1.79012 0
M  V30 2889 N 288.23 0.939286 1.26551 0
M  V30 2890 C 289.478 0.58469 1.93457 0
M  V30 2891 C 289.799 -0.878774 1.74076 0
M  V30 2892 O 289.069 -1.62421 1.09528 0
M  V30 2893 H 287.649 0.21325 0.715914 0
M  V30 2894 H 290.311 1.1942 1.54029 0
M  V30 2895 H 289.407 0.800849 3.0165 0
M  V30 2896 N 289.708 -1.40897 0.706093 0
M  V30 2897 C 290.933 -2.05895 0.249435 0
M  V30 2898 C 291.358 -1.52823 -1.09666 0
M  V30 2899 O 290.716 -0.659589 -1.68876 0
M  V30 2900 C 290.764 -3.59872 0.22904 0
M  V30 2901 O 289.868 -4.04708 -0.792784 0
M  V30 2902 H 289.209 -0.653206 0.119241 0
M  V30 2903 H 291.739 -1.80471 0.96391 0
M  V30 2904 H 291.749 -4.07951 0.0634791 0
M  V30 2905 H 290.424 -3.97866 1.21141 0
M  V30 2906 H 289.001 -3.68111 -0.59572 0
M  V30 2907 N 291.186 -0.45159 -1.50991 0
M  V30 2908 C 292.433 0.110074 -2.02201 0
M  V30 2909 C 292.761 1.4146 -1.33489 0
M  V30 2910 O 292.016 1.90617 -0.443125 0
M  V30 2911 C 292.315 0.361728 -3.55565 0
M  V30 2912 C 291.981 -0.858717 -4.42648 0
M  V30 2913 C 290.643 -1.19338 -4.66167 0
M  V30 2914 C 292.995 -1.67221 -4.93646 0
M  V30 2915 C 290.323 -2.34195 -5.37931 0
M  V30 2916 C 292.675 -2.8119 -5.6667 0
M  V30 2917 C 291.339 -3.15094 -5.88449 0
M  V30 2918 H 290.609 0.040279 -0.739904 0
M  V30 2919 H 293.256 -0.601696 -1.81802 0
M  V30 2920 H 291.561 1.15554 -3.74372 0
M  V30 2921 H 293.258 0.80996 -3.92735 0
M  V30 2922 H 289.848 -0.58796 -4.24548 0
M  V30 2923 H 294.032 -1.42686 -4.75347 0
M  V30 2924 H 289.288 -2.6076 -5.53005 0
M  V30 2925 H 293.462 -3.44585 -6.05173 0
M  V30 2926 H 291.089 -4.04204 -6.43835 0
M  V30 2927 N 292.664 1.56529 -0.183458 0
M  V30 2928 C 293.611 2.18546 0.742055 0
M  V30 2929 C 294.581 1.12912 1.2182 0
M  V30 2930 O 295.766 1.41115 1.28418 0
M  V30 2931 C 292.906 2.83977 1.96089 0
M  V30 2932 C 292.019 4.04105 1.52719 0
M  V30 2933 C 291.154 4.57427 2.70063 0
M  V30 2934 C 290.193 5.69938 2.23243 0
M  V30 2935 N 289.33 6.17717 3.33722 0
M  V30 2936 H 294.17 2.97284 0.206432 0
M  V30 2937 H 291.707 1.46823 0.0901571 0
M  V30 2938 H 293.665 3.20077 2.67594 0
M  V30 2939 H 292.295 2.07822 2.47002 0
M  V30 2940 H 291.347 3.73745 0.708436 0
M  V30 2941 H 292.659 4.85513 1.1436 0
M  V30 2942 H 291.813 4.95772 3.49708 0
M  V30 2943 H 290.552 3.75101 3.11689 0
M  V30 2944 H 289.557 5.31133 1.42048 0
M  V30 2945 H 290.782 6.54073 1.82661 0
M  V30 2946 H 288.728 5.38317 3.74902 0
M  V30 2947 H 288.645 6.94146 2.99495 0
M  V30 2948 H 289.913 6.60713 4.13616 0
M  V30 2949 N 294.142 -0.090211 1.57342 0
M  V30 2950 C 295.105 -1.09335 2.01441 0
M  V30 2951 C 296.105 -1.32666 0.908641 0
M  V30 2952 O 297.295 -1.28697 1.174 0
M  V30 2953 C 294.427 -2.44136 2.3793 0
M  V30 2954 H 295.62 -0.713662 2.91285 0
M  V30 2955 H 293.173 -0.335404 1.52659 0
M  V30 2956 H 293.908 -2.86972 1.51055 0
M  V30 2957 H 293.693 -2.28548 3.18603 0
M  V30 2958 H 295.183 -3.16277 2.72688 0
M  V30 2959 N 295.62 -1.53406 -0.361157 0
M  V30 2960 C 296.583 -1.79479 -1.42548 0
M  V30 2961 C 297.583 -0.665327 -1.4639 0
M  V30 2962 O 298.773 -0.933549 -1.47073 0
M  V30 2963 C 295.905 -1.92087 -2.8163 0
M  V30 2964 H 297.098 -2.74538 -1.20701 0
M  V30 2965 H 294.651 -1.4455 -0.594546 0
M  V30 2966 H 295.386 -0.991099 -3.08784 0
M  V30 2967 H 295.171 -2.74241 -2.80239 0
M  V30 2968 H 296.661 -2.13836 -3.58697 0
M  V30 2969 N 297.098 0.621204 -1.44841 0
M  V30 2970 C 298.346 1.37783 -1.47852 0
M  V30 2971 C 298.667 1.94653 -0.116224 0
M  V30 2972 O 297.937 1.76367 0.852737 0
M  V30 2973 H 296.517 0.511453 -0.544449 0
M  V30 2974 H 299.179 0.730446 -1.80694 0
M  V30 2975 H 298.275 2.20414 -2.20961 0
M  V30 2976 N 298.576 1.31904 0.862503 0
M  V30 2977 C 299.804 1.24998 1.64873 0
M  V30 2978 C 300.219 -0.183425 1.87907 0
M  V30 2979 O 299.576 -1.11794 1.44251 0
M  V30 2980 C 299.627 1.99829 3.01248 0
M  V30 2981 O 299.348 3.37575 2.79239 0
M  V30 2982 C 300.849 1.99852 3.95694 0
M  V30 2983 H 298.069 0.431599 0.513773 0
M  V30 2984 H 300.613 1.73901 1.07604 0
M  V30 2985 H 298.768 1.54668 3.55185 0
M  V30 2986 H 299.182 3.75776 3.65914 0
M  V30 2987 H 300.656 2.56709 4.88676 0
M  V30 2988 H 301.133 0.982852 4.28062 0
M  V30 2989 H 301.739 2.44926 3.47694 0
M  V30 2990 N 300.054 -1.07777 1.14986 0
M  V30 2991 C 301.279 -1.84558 0.946213 0
M  V30 2992 C 301.704 -1.81323 -0.500362 0
M  V30 2993 O 301.062 -1.20301 -1.35637 0
M  V30 2994 C 301.11 -3.29736 1.45968 0
M  V30 2995 O 300.214 -4.07149 0.65601 0
M  V30 2996 H 299.555 -0.571641 0.33782 0
M  V30 2997 H 302.085 -1.35991 1.52865 0
M  V30 2998 H 302.095 -3.80574 1.47063 0
M  V30 2999 H 300.77 -3.31406 2.51283 0
M  V30 3000 H 299.347 -3.65994 0.714322 0
M  V30 3001 N 301.532 -0.945985 -1.26051 0
M  V30 3002 C 302.78 -0.594941 -1.93145 0
M  V30 3003 C 303.101 0.86953 -1.7454 0
M  V30 3004 O 302.371 1.61838 -1.10387 0
M  V30 3005 H 300.951 -0.217044 -0.714773 0
M  V30 3006 H 303.613 -1.20235 -1.53393 0
M  V30 3007 H 302.709 -0.816835 -3.01221 0
M  V30 3008 N 303.011 1.40521 -0.713556 0
M  V30 3009 C 303.941 2.33381 -0.0743864 0
M  V30 3010 C 304.922 1.52784 0.747735 0
M  V30 3011 O 306.107 1.81258 0.697071 0
M  V30 3012 C 303.237 3.36748 0.849598 0
M  V30 3013 C 302.191 4.27793 0.133247 0
M  V30 3014 C 301.517 5.21679 1.17281 0
M  V30 3015 C 302.817 5.12415 -1.01134 0
M  V30 3016 H 304.511 2.87081 -0.850007 0
M  V30 3017 H 302.057 1.38034 -0.410201 0
M  V30 3018 H 304.01 4.00648 1.30612 0
M  V30 3019 H 302.734 2.81439 1.65709 0
M  V30 3020 H 301.393 3.65342 -0.303426 0
M  V30 3021 H 301.041 4.62677 1.9733 0
M  V30 3022 H 300.741 5.83435 0.698397 0
M  V30 3023 H 302.265 5.88456 1.62947 0
M  V30 3024 H 303.679 5.69781 -0.634274 0
M  V30 3025 H 302.076 5.83203 -1.41399 0
M  V30 3026 H 303.146 4.48514 -1.84292 0
M  V30 3027 N 304.489 0.459591 1.5075 0
M  V30 3028 C 305.738 -0.100971 2.01447 0
M  V30 3029 C 306.051 -1.41816 1.34713 0
M  V30 3030 O 307.257 -2.06299 1.76502 0
M  V30 3031 C 305.713 -0.23047 3.59161 0
M  V30 3032 C 305.321 1.0776 4.34847 0
M  V30 3033 C 307.065 -0.743608 4.17936 0
M  V30 3034 C 304.972 0.91253 5.84317 0
M  V30 3035 H 303.902 -0.0415102 0.752856 0
M  V30 3036 H 306.553 0.592742 1.73663 0
M  V30 3037 H 304.935 -0.987703 3.83485 0
M  V30 3038 H 306.109 1.8449 4.22256 0
M  V30 3039 H 304.424 1.52097 3.87628 0
M  V30 3040 H 307.021 -0.883959 5.27343 0
M  V30 3041 H 307.364 -1.73196 3.78562 0
M  V30 3042 H 307.897 -0.04408 3.97776 0
M  V30 3043 H 304.636 1.87391 6.28144 0
M  V30 3044 H 304.156 0.185422 5.99513 0
M  V30 3045 H 305.835 0.574547 6.44444 0
M  V30 3046 N 305.967 -1.56429 0.191757 0
M  V30 3047 C 306.897 -2.21937 -0.725696 0
M  V30 3048 C 307.878 -1.1814 -1.2238 0
M  V30 3049 O 309.063 -1.46636 -1.27325 0
M  V30 3050 C 306.193 -2.87611 -1.94672 0
M  V30 3051 C 305.147 -3.97623 -1.58366 0
M  V30 3052 C 304.473 -4.50446 -2.88102 0
M  V30 3053 C 305.773 -5.16197 -0.796133 0
M  V30 3054 H 307.467 -2.98861 -0.179606 0
M  V30 3055 H 305.013 -1.43749 -0.0849464 0
M  V30 3056 H 306.966 -3.3212 -2.59373 0
M  V30 3057 H 305.69 -2.08087 -2.51728 0
M  V30 3058 H 304.349 -3.53801 -0.960247 0
M  V30 3059 H 303.997 -3.67688 -3.43241 0
M  V30 3060 H 303.697 -5.24675 -2.64556 0
M  V30 3061 H 305.221 -4.97654 -3.53798 0
M  V30 3062 H 306.635 -5.57271 -1.34618 0
M  V30 3063 H 305.032 -5.96471 -0.658928 0
M  V30 3064 H 306.102 -4.84473 0.203478 0
M  V30 3065 N 307.445 0.0818655 -1.57387 0
M  V30 3066 C 308.392 1.09834 -2.0299 0
M  V30 3067 C 309.362 1.39043 -0.908639 0
M  V30 3068 O 310.547 1.50282 -1.17559 0
M  V30 3069 C 307.687 2.40971 -2.47037 0
M  V30 3070 C 306.8 2.18379 -3.7274 0
M  V30 3071 C 305.935 3.43008 -4.0561 0
M  V30 3072 C 304.974 3.15736 -5.24383 0
M  V30 3073 N 304.111 4.32667 -5.52941 0
M  V30 3074 H 308.951 0.702472 -2.89602 0
M  V30 3075 H 306.488 0.33531 -1.43227 0
M  V30 3076 H 308.446 3.1752 -2.70623 0
M  V30 3077 H 307.076 2.78379 -1.63417 0
M  V30 3078 H 306.128 1.32569 -3.56552 0
M  V30 3079 H 307.44 1.94227 -4.59431 0
M  V30 3080 H 306.594 4.27958 -4.30043 0
M  V30 3081 H 305.333 3.70225 -3.17466 0
M  V30 3082 H 304.338 2.2918 -4.99757 0
M  V30 3083 H 305.563 2.8985 -6.14136 0
M  V30 3084 H 303.509 4.59935 -4.67756 0
M  V30 3085 H 303.426 4.11753 -6.34031 0
M  V30 3086 H 304.694 5.18644 -5.81918 0
M  V30 3087 N 308.923 1.53595 0.353017 0
M  V30 3088 C 310.339 1.43648 0.695516 0
M  V30 3089 C 310.539 0.585617 1.92802 0
M  V30 3090 O 309.595 0.0729223 2.52395 0
M  V30 3091 C 310.908 2.8701 0.896991 0
M  V30 3092 C 312.456 2.96723 0.996209 0
M  V30 3093 C 312.931 4.41173 1.23007 0
M  V30 3094 N 314.422 4.44657 1.29749 0
M  V30 3095 C 315.157 5.53547 1.49577 0
M  V30 3096 N 314.653 6.72461 1.66639 0
M  V30 3097 N 316.446 5.41145 1.52048 0
M  V30 3098 H 308.597 2.07415 -0.457481 0
M  V30 3099 H 310.86 0.9372 -0.142687 0
M  V30 3100 H 310.566 3.51644 0.0629938 0
M  V30 3101 H 310.44 3.31401 1.80148 0
M  V30 3102 H 312.827 2.32235 1.82074 0
M  V30 3103 H 312.908 2.55707 0.0688331 0
M  V30 3104 H 312.552 5.06238 0.410505 0
M  V30 3105 H 312.482 4.79772 2.17086 0
M  V30 3106 H 314.973 3.58963 1.18126 0
M  V30 3107 H 315.286 7.51214 1.81378 0
M  V30 3108 H 313.631 6.75423 1.63794 0
M  V30 3109 H 316.822 4.47205 1.38294 0
M  V30 3110 H 316.995 6.26068 1.67159 0
M  V30 3111 N 310.401 -0.613514 1.45168 0
M  V30 3112 C 311.641 -1.38405 1.5041 0
M  V30 3113 C 312.005 -1.91489 0.139922 0
M  V30 3114 O 313.206 -2.68716 0.067033 0
M  V30 3115 C 311.477 -2.50552 2.5487 0
M  V30 3116 S 313.036 -3.38439 2.79292 0
M  V30 3117 H 309.854 -0.471945 0.531779 0
M  V30 3118 H 312.456 -0.708518 1.82209 0
M  V30 3119 H 311.16 -2.09894 3.52665 0
M  V30 3120 H 310.691 -3.22913 2.24701 0
M  V30 3121 H 312.706 -4.48527 2.12222 0
M  V30 3122 N 311.879 -1.3236 -0.855495 0
M  V30 3123 C 313.104 -1.2601 -1.64731 0
M  V30 3124 C 313.529 0.169068 -1.87339 0
M  V30 3125 O 312.887 1.12016 -1.42556 0
M  V30 3126 C 312.935 -2.02417 -2.98429 0
M  V30 3127 O 312.039 -1.3714 -3.8893 0
M  V30 3128 H 311.38 -0.434325 -0.502253 0
M  V30 3129 H 313.91 -1.74661 -1.06558 0
M  V30 3130 H 313.92 -2.12559 -3.48257 0
M  V30 3131 H 312.595 -3.06343 -2.81295 0
M  V30 3132 H 311.172 -1.3554 -3.47395 0
M  V30 3133 N 313.357 1.07166 -1.15556 0
M  V30 3134 C 314.267 2.17947 -0.868116 0
M  V30 3135 C 315.283 1.73297 0.156297 0
M  V30 3136 O 316.459 2.01392 -0.0182327 0
M  V30 3137 C 313.524 3.44789 -0.36355 0
M  V30 3138 C 312.585 4.03996 -1.45209 0
M  V30 3139 C 311.818 5.24783 -0.971508 0
M  V30 3140 O 312.041 5.70109 0.182194 0
M  V30 3141 O 310.975 5.75715 -1.75603 0
M  V30 3142 H 314.801 2.4503 -1.79427 0
M  V30 3143 H 312.386 1.16539 -0.934824 0
M  V30 3144 H 314.268 4.21307 -0.0887113 0
M  V30 3145 H 312.943 3.19253 0.534708 0
M  V30 3146 H 311.85 3.29009 -1.78056 0
M  V30 3147 H 313.183 4.33808 -2.32533 0
M  V30 3148 N 314.835 0.952656 1.25548 0
M  V30 3149 C 316.246 0.647392 1.75116 0
M  V30 3150 C 316.597 -0.837274 1.77438 0
M  V30 3151 O 315.722 -1.65525 1.39393 0
M  V30 3152 C 316.317 1.16845 3.18014 0
M  V30 3153 C 314.876 0.913382 3.6515 0
M  V30 3154 C 314.023 1.31265 2.44264 0
M  V30 3155 H 316.974 1.12968 1.11462 0
M  V30 3156 H 316.995 0.527606 3.76824 0
M  V30 3157 H 316.507 2.24902 3.16292 0
M  V30 3158 H 314.608 -0.152316 3.72289 0
M  V30 3159 H 314.721 1.54845 4.53387 0
M  V30 3160 H 313.085 0.731028 2.43984 0
M  V30 3161 H 313.868 2.40239 2.45234 0
M  V30 3162 N 316.313 -1.40141 0.720998 0
M  V30 3163 C 317.223 -2.34486 0.0731031 0
M  V30 3164 C 318.239 -1.57587 -0.737723 0
M  V30 3165 O 319.415 -1.89949 -0.669429 0
M  V30 3166 C 316.48 -3.36528 -0.833656 0
M  V30 3167 C 315.541 -4.29298 -0.0121673 0
M  V30 3168 C 314.774 -5.26466 -0.875742 0
M  V30 3169 O 314.997 -5.29745 -2.11485 0
M  V30 3170 O 313.931 -6.01092 -0.31185 0
M  V30 3171 H 317.757 -2.9152 0.851444 0
M  V30 3172 H 315.342 -1.41427 0.481527 0
M  V30 3173 H 317.224 -3.99093 -1.35289 0
M  V30 3174 H 315.899 -2.81899 -1.59105 0
M  V30 3175 H 314.806 -3.70001 0.552262 0
M  V30 3176 H 316.139 -4.87094 0.707129 0
M  V30 3177 N 317.792 -0.46758 -1.50504 0
M  V30 3178 C 319.208 -0.121533 -1.59137 0
M  V30 3179 C 319.408 1.3717 -1.47603 0
M  V30 3180 O 318.464 2.14464 -1.33272 0
M  V30 3181 C 319.777 -0.6686 -2.93173 0
M  V30 3182 C 321.325 -0.631716 -3.06559 0
M  V30 3183 C 321.8 -1.15627 -4.43164 0
M  V30 3184 N 323.291 -1.11553 -4.49567 0
M  V30 3185 C 324.026 -1.49195 -5.5365 0
M  V30 3186 N 323.522 -1.94269 -6.65005 0
M  V30 3187 N 325.315 -1.4082 -5.44175 0
M  V30 3188 H 317.466 -1.4388 -1.56245 0
M  V30 3189 H 319.729 -0.594784 -0.738198 0
M  V30 3190 H 319.435 -1.71453 -3.07078 0
M  V30 3191 H 319.309 -0.11021 -3.77039 0
M  V30 3192 H 321.696 0.405297 -2.92304 0
M  V30 3193 H 321.777 -1.22687 -2.24458 0
M  V30 3194 H 321.421 -2.1919 -4.58168 0
M  V30 3195 H 321.351 -0.537365 -5.23851 0
M  V30 3196 H 323.842 -0.784895 -3.69659 0
M  V30 3197 H 324.155 -2.21148 -7.40482 0
M  V30 3198 H 322.5 -1.98219 -6.66134 0
M  V30 3199 H 325.691 -1.0545 -4.56068 0
M  V30 3200 H 325.864 -1.70481 -6.25172 0
M  V30 3201 N 319.27 1.56325 -0.20005 0
M  V30 3202 C 320.5 2.01811 0.442232 0
M  V30 3203 C 320.908 1.07932 1.55394 0
M  V30 3204 O 320.251 0.0772685 1.83537 0
M  V30 3205 C 320.313 3.43685 1.05457 0
M  V30 3206 C 319.977 4.56928 0.0809833 0
M  V30 3207 C 320.974 5.15009 -0.711471 0
M  V30 3208 C 318.659 5.0229 -0.0315364 0
M  V30 3209 C 320.653 6.16904 -1.60336 0
M  V30 3210 C 318.34 6.04028 -0.926981 0
M  V30 3211 C 319.338 6.6121 -1.71146 0
M  V30 3212 O 319.026 7.60971 -2.59189 0
M  V30 3213 H 318.758 0.666173 0.114848 0
M  V30 3214 H 321.312 2.03085 -0.307511 0
M  V30 3215 H 319.542 3.39413 1.85299 0
M  V30 3216 H 321.231 3.72948 1.60201 0
M  V30 3217 H 321.997 4.80827 -0.634873 0
M  V30 3218 H 317.876 4.57476 0.568902 0
M  V30 3219 H 321.42 6.61464 -2.21611 0
M  V30 3220 H 317.317 6.37634 -1.00468 0
M  V30 3221 H 318.085 7.7841 -2.53023 0
M  V30 3222 N 320.748 -0.0735177 1.57428 0
M  V30 3223 C 321.988 -0.778363 1.89 0
M  V30 3224 C 322.352 -1.7483 0.793634 0
M  V30 3225 O 323.553 -2.49811 0.992367 0
M  V30 3226 C 321.824 -1.46929 3.25802 0
M  V30 3227 S 323.383 -2.20943 3.79117 0
M  V30 3228 H 320.201 -0.258874 0.662197 0
M  V30 3229 H 322.803 -0.0345338 1.95469 0
M  V30 3230 H 321.507 -0.749532 4.03497 0
M  V30 3231 H 321.038 -2.25258 3.22525 0
M  V30 3232 H 323.053 -3.47435 3.54265 0
M  V30 3233 N 322.226 -1.5378 -0.344866 0
M  V30 3234 C 323.156 -1.84662 -1.42906 0
M  V30 3235 C 324.137 -0.701648 -1.54955 0
M  V30 3236 O 325.322 -0.953438 -1.69184 0
M  V30 3237 C 322.452 -2.05503 -2.79974 0
M  V30 3238 C 321.406 -3.21318 -2.82734 0
M  V30 3239 C 320.732 -3.2749 -4.22675 0
M  V30 3240 C 322.032 -4.59456 -2.48389 0
M  V30 3241 H 323.726 -2.75461 -1.17311 0
M  V30 3242 H 321.272 -1.32542 -0.562896 0
M  V30 3243 H 323.225 -2.25691 -3.55867 0
M  V30 3244 H 321.949 -1.11434 -3.07002 0
M  V30 3245 H 320.608 -3.00984 -2.09294 0
M  V30 3246 H 320.256 -2.31019 -4.4681 0
M  V30 3247 H 319.956 -4.05316 -4.25433 0
M  V30 3248 H 321.48 -3.49887 -5.00412 0
M  V30 3249 H 322.894 -4.79667 -3.13995 0
M  V30 3250 H 321.291 -5.39675 -2.62432 0
M  V30 3251 H 322.361 -4.63155 -1.4358 0
M  V30 3252 N 323.704 0.605807 -1.45491 0
M  V30 3253 C 324.667 1.69836 -1.5391 0
M  V30 3254 C 325.667 1.55261 -0.418424 0
M  V30 3255 O 326.857 1.60296 -0.681965 0
M  V30 3256 C 323.989 3.09117 -1.43734 0
M  V30 3257 H 325.182 1.63738 -2.51257 0
M  V30 3258 H 322.735 0.821689 -1.32959 0
M  V30 3259 H 323.47 3.20791 -0.475788 0
M  V30 3260 H 323.255 3.21104 -2.25021 0
M  V30 3261 H 324.745 3.88696 -1.52661 0
M  V30 3262 N 325.182 1.32811 0.848464 0
M  V30 3263 C 326.598 1.11937 1.13764 0
M  V30 3264 C 326.798 -0.0960789 2.01271 0
M  V30 3265 O 325.854 -0.779165 2.40178 0
M  V30 3266 C 327.167 2.402 1.809 0
M  V30 3267 C 328.715 2.46016 1.93508 0
M  V30 3268 C 329.19 3.74215 2.64059 0
M  V30 3269 N 330.681 3.75232 2.71579 0
M  V30 3270 C 331.416 4.71134 3.26833 0
M  V30 3271 N 330.912 5.77406 3.8285 0
M  V30 3272 N 332.705 4.58623 3.24995 0
M  V30 3273 H 324.856 2.1073 0.265855 0
M  V30 3274 H 327.119 0.930671 0.180431 0
M  V30 3275 H 326.825 3.29093 1.24058 0
M  V30 3276 H 326.699 2.51628 2.81004 0
M  V30 3277 H 329.086 1.57577 2.49506 0
M  V30 3278 H 329.167 2.38536 0.923811 0
M  V30 3279 H 328.811 4.63031 2.08722 0
M  V30 3280 H 328.741 3.78968 3.65637 0
M  V30 3281 H 331.232 2.98423 2.31845 0
M  V30 3282 H 331.545 6.46632 4.23187 0
M  V30 3283 H 329.89 5.81152 3.81165 0
M  V30 3284 H 333.081 3.74762 2.80484 0
M  V30 3285 H 333.254 5.33535 3.67756 0
M  V30 3286 N 326.66 -1.06551 1.16123 0
M  V30 3287 C 327.59 -2.15935 0.88851 0
M  V30 3288 C 328.571 -1.69306 -0.164135 0
M  V30 3289 O 329.756 -1.94193 -0.0167857 0
M  V30 3290 C 326.886 -3.45149 0.385942 0
M  V30 3291 C 325.84 -4.05271 1.3762 0
M  V30 3292 C 325.166 -5.29664 0.732137 0
M  V30 3293 C 326.466 -4.44355 2.74493 0
M  V30 3294 H 328.16 -2.39006 1.80323 0
M  V30 3295 H 325.706 -1.14866 0.868435 0
M  V30 3296 H 327.659 -4.21004 0.182647 0
M  V30 3297 H 326.383 -3.21689 -0.564274 0
M  V30 3298 H 325.042 -3.3147 1.56599 0
M  V30 3299 H 324.69 -5.02499 -0.224483 0
M  V30 3300 H 324.39 -5.70848 1.39307 0
M  V30 3301 H 325.914 -6.08218 0.538802 0
M  V30 3302 H 327.328 -5.11303 2.59311 0
M  V30 3303 H 325.725 -4.96515 3.37035 0
M  V30 3304 H 326.795 -3.55339 3.29943 0
M  V30 3305 N 328.138 -0.959301 -1.25041 0
M  V30 3306 C 329.071 -0.427418 -2.24161 0
M  V30 3307 C 330.049 0.493837 -1.54919 0
M  V30 3308 O 331.233 0.427144 -1.83597 0
M  V30 3309 C 328.36 0.383893 -3.36517 0
M  V30 3310 C 327.406 -0.478431 -4.23808 0
M  V30 3311 S 328.239 -1.91353 -5.00144 0
M  V30 3312 C 329.395 -1.11077 -6.15965 0
M  V30 3313 H 329.628 -1.26743 -2.6893 0
M  V30 3314 H 327.161 -0.763714 -1.34189 0
M  V30 3315 H 329.119 0.846039 -4.01687 0
M  V30 3316 H 327.78 1.19878 -2.90324 0
M  V30 3317 H 326.973 0.14406 -5.03794 0
M  V30 3318 H 326.575 -0.87597 -3.63597 0
M  V30 3319 H 328.867 -0.361699 -6.76534 0
M  V30 3320 H 329.81 -1.88472 -6.82557 0
M  V30 3321 H 330.218 -0.638843 -5.60873 0
M  V30 3322 N 329.616 1.39756 -0.72842 0
M  V30 3323 C 330.579 2.29012 -0.0927297 0
M  V30 3324 C 331.579 1.45992 0.674025 0
M  V30 3325 O 332.769 1.66749 0.50402 0
M  V30 3326 C 329.901 3.29396 0.878137 0
M  V30 3327 H 331.094 2.86729 -0.879011 0
M  V30 3328 H 328.647 1.48293 -0.493847 0
M  V30 3329 H 329.382 2.76722 1.69101 0
M  V30 3330 H 329.167 3.907 0.331051 0
M  V30 3331 H 330.657 3.96199 1.3197 0
M  V30 3332 N 331.094 0.475555 1.50254 0
M  V30 3333 C 332.371 -0.139685 1.95101 0
M  V30 3334 C 332.751 -1.56555 1.41611 0
M  V30 3335 O 332.099 -2.19956 0.618993 0
M  V30 3336 C 332.309 -0.0784298 3.48912 0
M  V30 3337 C 333.657 -0.265095 4.23772 0
M  V30 3338 O 334.681 -0.154808 3.55863 0
M  V30 3339 O 333.54 -0.488327 5.44314 0
M  V30 3340 H 330.634 -0.109236 0.819754 0
M  V30 3341 H 333.18 0.536276 1.61004 0
M  V30 3342 H 331.952 0.916918 3.80405 0
M  V30 3343 H 331.575 -0.795655 3.89558 0
M  V30 3344 N 332.573 -1.56217 0.208337 0
M  V30 3345 C 333.536 -2.18455 -0.693557 0
M  V30 3346 C 334.536 -1.14268 -1.13135 0
M  V30 3347 O 335.726 -1.39577 -1.0423 0
M  V30 3348 C 332.858 -2.79727 -1.94848 0
M  V30 3349 H 334.051 -2.99519 -0.15114 0
M  V30 3350 H 331.604 -1.56245 -0.041287 0
M  V30 3351 H 332.339 -2.02497 -2.53309 0
M  V30 3352 H 332.124 -3.56009 -1.64316 0
M  V30 3353 H 333.614 -3.27475 -2.59133 0
M  V30 3354 N 334.051 0.0651679 -1.57465 0
M  V30 3355 C 334.981 1.07693 -2.07182 0
M  V30 3356 C 335.962 1.39962 -0.966673 0
M  V30 3357 O 337.147 1.49475 -1.2398 0
M  V30 3358 C 334.277 2.3885 -2.52127 0
M  V30 3359 C 333.231 2.20917 -3.66579 0
M  V30 3360 C 332.557 3.57515 -3.97601 0
M  V30 3361 C 333.857 1.62493 -4.9638 0
M  V30 3362 H 335.551 0.663199 -2.91962 0
M  V30 3363 H 333.097 0.317569 -1.40455 0
M  V30 3364 H 335.05 3.09928 -2.85522 0
M  V30 3365 H 333.774 2.82215 -1.64384 0
M  V30 3366 H 332.433 1.52279 -3.33477 0
M  V30 3367 H 332.081 3.98463 -3.06979 0
M  V30 3368 H 331.781 3.46353 -4.74672 0
M  V30 3369 H 333.305 4.30013 -4.33499 0
M  V30 3370 H 334.719 2.23445 -5.27963 0
M  V30 3371 H 333.116 1.62009 -5.77818 0
M  V30 3372 H 334.186 0.587041 -4.81333 0
M  V30 3373 N 335.529 1.53961 0.336706 0
M  V30 3374 C 336.945 1.44378 0.680241 0
M  V30 3375 C 337.145 0.606034 1.9217 0
M  V30 3376 O 336.201 0.099688 2.52303 0
M  V30 3377 C 337.514 2.87945 0.8665 0
M  V30 3378 C 339.062 2.97763 0.964682 0
M  V30 3379 C 339.537 4.42453 1.18321 0
M  V30 3380 N 341.028 4.46008 1.25025 0
M  V30 3381 C 341.763 5.55102 1.43697 0
M  V30 3382 N 341.259 6.7419 1.59498 0
M  V30 3383 N 343.052 5.42727 1.463 0
M  V30 3384 H 335.203 2.06918 -0.479455 0
M  V30 3385 H 337.466 0.935634 -0.152619 0
M  V30 3386 H 337.172 3.51691 0.0256937 0
M  V30 3387 H 337.046 3.33293 1.76623 0
M  V30 3388 H 339.433 2.34153 1.796 0
M  V30 3389 H 339.514 2.55766 0.041708 0
M  V30 3390 H 339.158 5.06645 0.356788 0
M  V30 3391 H 339.088 4.82048 2.11985 0
M  V30 3392 H 341.579 3.60196 1.14312 0
M  V30 3393 H 341.892 7.53095 1.734 0
M  V30 3394 H 340.237 6.77123 1.56621 0
M  V30 3395 H 343.428 4.48647 1.33543 0
M  V30 3396 H 343.601 6.27806 1.6051 0
M  V30 3397 N 337.007 -0.598083 1.45811 0
M  V30 3398 C 338.255 -1.35413 1.50026 0
M  V30 3399 C 338.576 -1.94444 0.147177 0
M  V30 3400 O 337.846 -1.77701 -0.824571 0
M  V30 3401 H 336.426 -0.502727 0.552517 0
M  V30 3402 H 339.088 -0.701606 1.81834 0
M  V30 3403 H 338.184 -2.16871 2.2444 0
M  V30 3404 N 338.485 -1.33259 -0.841409 0
M  V30 3405 C 339.725 -1.25902 -1.61022 0
M  V30 3406 C 340.089 0.173325 -1.91216 0
M  V30 3407 O 341.29 0.370824 -2.6623 0
M  V30 3408 C 339.561 -2.10735 -2.88662 0
M  V30 3409 S 341.12 -2.20541 -3.79351 0
M  V30 3410 H 337.938 -0.447958 -0.552137 0
M  V30 3411 H 340.54 -1.68263 -0.995382 0
M  V30 3412 H 339.244 -3.1384 -2.64448 0
M  V30 3413 H 338.775 -1.69201 -3.55154 0
M  V30 3414 H 340.79 -1.36462 -4.77067 0
M  V30 3415 N 339.963 1.05934 -1.16686 0
M  V30 3416 C 341.209 1.79065 -0.95203 0
M  V30 3417 C 341.542 1.87147 0.518629 0
M  V30 3418 O 340.817 1.36574 1.38484 0
M  V30 3419 C 341.1 3.23359 -1.58464 0
M  V30 3420 C 340.953 3.23336 -3.12689 0
M  V30 3421 C 342.272 4.21004 -1.28232 0
M  V30 3422 H 339.391 0.65005 -0.34728 0
M  V30 3423 H 342.033 1.23868 -1.44072 0
M  V30 3424 H 340.183 3.70493 -1.16908 0
M  V30 3425 H 341.855 2.84336 -3.6325 0
M  V30 3426 H 340.098 2.61886 -3.4583 0
M  V30 3427 H 340.769 4.25144 -3.52075 0
M  V30 3428 H 343.245 3.8233 -1.64203 0
M  V30 3429 H 342.121 5.20225 -1.75092 0
M  V30 3430 H 342.382 4.41639 -0.201791 0
M  V30 3431 N 341.441 0.965919 1.2453 0
M  V30 3432 C 342.852 0.665929 1.7442 0
M  V30 3433 C 343.203 -0.818407 1.78316 0
M  V30 3434 O 342.328 -1.64037 1.41141 0
M  V30 3435 C 342.923 1.20211 3.16757 0
M  V30 3436 C 341.482 0.952059 3.6416 0
M  V30 3437 C 340.629 1.33848 2.42858 0
M  V30 3438 H 343.58 1.14144 1.10258 0
M  V30 3439 H 343.601 0.567544 3.76244 0
M  V30 3440 H 343.113 2.28244 3.13889 0
M  V30 3441 H 341.214 -0.112821 3.72429 0
M  V30 3442 H 341.327 1.59645 4.51719 0
M  V30 3443 H 339.691 0.756864 2.43195 0
M  V30 3444 H 340.474 2.42827 2.42673 0
M  V30 3445 N 342.919 -1.39368 0.735821 0
M  V30 3446 C 343.882 -2.2896 0.104874 0
M  V30 3447 C 344.882 -1.46347 -0.666274 0
M  V30 3448 O 346.072 -1.67014 -0.49517 0
M  V30 3449 C 343.204 -3.29857 -0.860656 0
M  V30 3450 H 344.397 -2.86259 0.894205 0
M  V30 3451 H 341.95 -1.48029 0.501704 0
M  V30 3452 H 342.685 -2.77615 -1.67631 0
M  V30 3453 H 342.47 -3.9087 -0.310327 0
M  V30 3454 H 343.96 -3.96893 -1.29867 0
M  V30 3455 N 344.397 -0.483516 -1.5 0
M  V30 3456 C 345.644 0.0671597 -2.02389 0
M  V30 3457 C 345.972 1.38597 -1.36459 0
M  V30 3458 O 345.227 1.89634 -0.483458 0
M  V30 3459 C 345.526 0.286226 -3.56252 0
M  V30 3460 C 345.192 -0.952416 -4.40726 0
M  V30 3461 C 343.854 -1.29199 -4.63531 0
M  V30 3462 C 346.206 -1.77655 -4.89988 0
M  V30 3463 C 343.534 -2.45553 -5.32842 0
M  V30 3464 C 345.886 -2.93147 -5.60578 0
M  V30 3465 C 344.55 -3.27505 -5.81633 0
M  V30 3466 H 343.82 0.0245755 -0.740592 0
M  V30 3467 H 346.467 -0.640124 -1.80485 0
M  V30 3468 H 344.772 1.07587 -3.76739 0
M  V30 3469 H 346.469 0.726473 -3.94365 0
M  V30 3470 H 343.059 -0.677881 -4.23205 0
M  V30 3471 H 347.243 -1.52737 -4.72213 0
M  V30 3472 H 342.499 -2.72431 -5.47349 0
M  V30 3473 H 346.673 -3.57344 -5.97727 0
M  V30 3474 H 344.3 -4.1777 -6.35116 0
M  V30 3475 N 345.875 1.56104 -0.216619 0
M  V30 3476 C 346.825 2.16703 0.708798 0
M  V30 3477 C 347.809 1.11392 1.16106 0
M  V30 3478 O 349.001 1.37395 1.11587 0
M  V30 3479 C 346.13 2.84666 1.91886 0
M  V30 3480 C 345.216 3.97195 1.48651 0
M  V30 3481 N 345.607 4.99959 0.766434 0
M  V30 3482 C 343.905 4.09193 1.77418 0
M  V30 3483 C 344.606 5.79126 0.546659 0
M  V30 3484 N 343.582 5.32315 1.10188 0
M  V30 3485 H 347.384 2.93516 0.150162 0
M  V30 3486 H 344.898 1.6239 -0.0176768 0
M  V30 3487 H 346.895 3.26486 2.59253 0
M  V30 3488 H 345.555 2.09347 2.48202 0
M  V30 3489 H 346.566 5.16197 0.419634 0
M  V30 3490 H 343.243 3.45021 2.35088 0
M  V30 3491 H 344.633 6.71895 -0.026103 0
M  V30 3492 N 347.353 -0.0568162 1.57498 0
M  V30 3493 C 348.601 -0.751617 1.87604 0
M  V30 3494 C 348.922 -1.77351 0.81066 0
M  V30 3495 O 348.192 -1.95254 -0.159018 0
M  V30 3496 H 346.772 -0.280583 0.692302 0
M  V30 3497 H 349.434 -0.0293483 1.94878 0
M  V30 3498 H 348.53 -1.25852 2.856 0
M  V30 3499 N 348.832 -1.54138 -0.328536 0
M  V30 3500 C 350.078 -1.7236 -1.06865 0
M  V30 3501 C 350.411 -0.493231 -1.87832 0
M  V30 3502 O 349.686 0.5098 -1.877 0
M  V30 3503 C 349.969 -2.99621 -1.99747 0
M  V30 3504 C 349.822 -4.32899 -1.22143 0
M  V30 3505 C 351.141 -3.22615 -2.99345 0
M  V30 3506 H 348.26 -0.627151 -0.387105 0
M  V30 3507 H 350.902 -1.86827 -0.345767 0
M  V30 3508 H 349.052 -2.87418 -2.61387 0
M  V30 3509 H 350.724 -4.56978 -0.630017 0
M  V30 3510 H 348.967 -4.30628 -0.523628 0
M  V30 3511 H 349.638 -5.18154 -1.90318 0
M  V30 3512 H 352.114 -3.34248 -2.47826 0
M  V30 3513 H 350.99 -4.13027 -3.61524 0
M  V30 3514 H 351.251 -2.3961 -3.71536 0
M  V30 3515 N 350.31 0.590341 -1.46126 0
M  V30 3516 C 351.556 1.35082 -1.51264 0
M  V30 3517 C 351.889 1.93534 -0.160711 0
M  V30 3518 O 351.164 1.76045 0.826956 0
M  V30 3519 C 351.447 2.48588 -2.6053 0
M  V30 3520 C 351.3 1.95221 -4.05227 0
M  V30 3521 C 352.619 3.50662 -2.6594 0
M  V30 3522 H 349.738 0.489803 -0.550692 0
M  V30 3523 H 352.38 0.663887 -1.78024 0
M  V30 3524 H 350.53 3.07186 -2.37843 0
M  V30 3525 H 352.202 1.41139 -4.39178 0
M  V30 3526 H 350.445 1.26101 -4.15068 0
M  V30 3527 H 351.116 2.77121 -4.77397 0
M  V30 3528 H 353.592 3.01934 -2.86313 0
M  V30 3529 H 352.468 4.27551 -3.44226 0
M  V30 3530 H 352.729 4.07399 -1.71694 0
M  V30 3531 N 351.788 1.33704 0.83433 0
M  V30 3532 C 352.698 1.26382 1.97648 0
M  V30 3533 C 353.714 0.173548 1.73132 0
M  V30 3534 O 354.89 0.397962 1.97429 0
M  V30 3535 C 351.955 1.00769 3.31733 0
M  V30 3536 C 351.016 2.1884 3.69334 0
M  V30 3537 C 350.249 1.9444 4.9702 0
M  V30 3538 O 350.472 0.896961 5.63303 0
M  V30 3539 O 349.406 2.81093 5.32231 0
M  V30 3540 H 353.232 2.22444 2.06767 0
M  V30 3541 H 350.817 1.13795 0.968037 0
M  V30 3542 H 352.699 0.882186 4.12062 0
M  V30 3543 H 351.374 0.0773783 3.23608 0
M  V30 3544 H 350.281 2.36946 2.89495 0
M  V30 3545 H 351.614 3.10221 3.82131 0
M  V30 3546 N 353.266 -1.05314 1.17247 0
M  V30 3547 C 354.682 -1.30452 0.919473 0
M  V30 3548 C 354.882 -1.9703 -0.42209 0
M  V30 3549 O 353.938 -2.24311 -1.15935 0
M  V30 3550 C 355.251 -2.17551 2.07586 0
M  V30 3551 C 356.799 -2.30937 2.11275 0
M  V30 3552 C 357.274 -3.21396 3.26296 0
M  V30 3553 N 358.765 -3.28981 3.26076 0
M  V30 3554 C 359.5 -3.99095 4.11716 0
M  V30 3555 N 358.996 -4.71648 5.07465 0
M  V30 3556 N 360.789 -3.95247 3.9967 0
M  V30 3557 H 352.94 -0.604988 2.03602 0
M  V30 3558 H 355.203 -0.329368 0.888944 0
M  V30 3559 H 354.909 -1.75921 3.0454 0
M  V30 3560 H 354.783 -3.18182 2.02584 0
M  V30 3561 H 357.17 -2.71809 1.14907 0
M  V30 3562 H 357.251 -1.2994 2.20339 0
M  V30 3563 H 356.895 -2.81238 4.22927 0
M  V30 3564 H 356.825 -4.22395 3.14467 0
M  V30 3565 H 359.316 -2.77286 2.5675 0
M  V30 3566 H 359.629 -5.22705 5.6921 0
M  V30 3567 H 357.974 -4.70594 5.11435 0
M  V30 3568 H 361.165 -3.37691 3.24164 0
M  V30 3569 H 361.338 -4.4962 4.66632 0
M  V30 3570 N 354.744 -0.972509 -1.24016 0
M  V30 3571 C 356.021 -0.553733 -1.87598 0
M  V30 3572 C 356.401 0.969158 -1.87538 0
M  V30 3573 O 355.749 1.84255 -1.35139 0
M  V30 3574 C 355.959 -1.15076 -3.29482 0
M  V30 3575 C 357.307 -1.23862 -4.06132 0
M  V30 3576 O 358.331 -1.10363 -3.38672 0
M  V30 3577 O 357.19 -1.45252 -5.26844 0
M  V30 3578 H 354.284 -0.185331 -0.805966 0
M  V30 3579 H 356.83 -1.06709 -1.31952 0
M  V30 3580 H 355.602 -2.19333 -3.2405 0
M  V30 3581 H 355.225 -0.621746 -3.92709 0
M  V30 3582 N 356.222 1.38976 -0.743202 0
M  V30 3583 C 357.47 1.99948 -0.29417 0
M  V30 3584 C 357.791 1.59279 1.12495 0
M  V30 3585 O 357.061 0.844808 1.76748 0
M  V30 3586 H 355.641 0.739473 -0.105774 0
M  V30 3587 H 358.303 1.699 -0.954986 0
M  V30 3588 H 357.399 3.10142 -0.349056 0
M  V30 3589 N 357.7 0.491464 1.49741 0
M  V30 3590 C 358.61 -0.296835 2.32715 0
M  V30 3591 C 359.626 -0.976536 1.44013 0
M  V30 3592 O 360.802 -0.960023 1.77047 0
M  V30 3593 C 357.867 -1.35288 3.19215 0
M  V30 3594 C 356.928 -0.687632 4.23757 0
M  V30 3595 C 356.161 -1.69336 5.06123 0
M  V30 3596 O 356.384 -2.92219 4.89861 0
M  V30 3597 O 355.318 -1.25394 5.88693 0
M  V30 3598 H 359.144 0.382048 3.01287 0
M  V30 3599 H 356.729 0.252953 1.47243 0
M  V30 3600 H 358.611 -1.96411 3.72828 0
M  V30 3601 H 357.286 -2.01487 2.53347 0
M  V30 3602 H 356.193 -0.0369159 3.74082 0
M  V30 3603 H 357.526 -0.0682566 4.92153 0
M  V30 3604 N 359.178 -1.55987 0.224894 0
M  V30 3605 C 360.403 -2.03232 -0.41369 0
M  V30 3606 C 360.828 -1.10359 -1.52323 0
M  V30 3607 O 360.186 -0.092395 -1.81064 0
M  V30 3608 C 360.234 -3.48682 -0.919405 0
M  V30 3609 O 359.338 -3.58947 -2.03054 0
M  V30 3610 H 358.679 -0.657428 -0.0931903 0
M  V30 3611 H 361.209 -2.01679 0.34451 0
M  V30 3612 H 361.219 -3.8907 -1.22835 0
M  V30 3613 H 359.894 -4.15761 -0.107339 0
M  V30 3614 H 358.471 -3.30448 -1.72796 0
M  V30 3615 N 360.656 0.0484629 -1.57525 0
M  V30 3616 C 361.886 0.754326 -1.92337 0
M  V30 3617 C 362.294 1.70443 -0.82132 0
M  V30 3618 O 361.637 1.82466 0.21254 0
M  V30 3619 C 361.699 1.58231 -3.22805 0
M  V30 3620 C 361.363 0.799074 -4.4996 0
M  V30 3621 C 362.36 0.1079 -5.19788 0
M  V30 3622 C 360.045 0.759345 -4.96527 0
M  V30 3623 C 362.039 -0.612516 -6.3445 0
M  V30 3624 C 359.726 0.0351713 -6.1109 0
M  V30 3625 C 360.724 -0.649537 -6.79904 0
M  V30 3626 O 360.412 -1.36199 -7.92278 0
M  V30 3627 H 360.144 0.218257 -0.639797 0
M  V30 3628 H 362.698 0.0159295 -2.05394 0
M  V30 3629 H 360.928 2.36406 -3.06021 0
M  V30 3630 H 362.617 2.16898 -3.43089 0
M  V30 3631 H 363.383 0.129748 -4.84826 0
M  V30 3632 H 359.262 1.28177 -4.42822 0
M  V30 3633 H 362.806 -1.14751 -6.88097 0
M  V30 3634 H 358.703 0.0113314 -6.45499 0
M  V30 3635 H 359.471 -1.27366 -8.0853 0
M  V30 3636 N 362.134 1.5431 0.320358 0
M  V30 3637 C 363.064 1.86912 1.3995 0
M  V30 3638 C 364.045 0.726211 1.53819 0
M  V30 3639 O 365.23 0.980233 1.67646 0
M  V30 3640 C 362.36 2.09932 2.7667 0
M  V30 3641 C 361.314 3.25776 2.77586 0
M  V30 3642 C 360.64 3.34173 4.17412 0
M  V30 3643 C 361.94 4.6335 2.41048 0
M  V30 3644 H 363.634 2.77292 1.12914 0
M  V30 3645 H 361.18 1.33421 0.541738 0
M  V30 3646 H 363.133 2.31324 3.52232 0
M  V30 3647 H 361.857 1.16304 3.0519 0
M  V30 3648 H 360.516 3.04276 2.04479 0
M  V30 3649 H 360.164 2.38098 4.43078 0
M  V30 3650 H 359.864 4.12033 4.18931 0
M  V30 3651 H 361.388 3.57803 4.94782 0
M  V30 3652 H 362.802 4.84602 3.06324 0
M  V30 3653 H 361.199 5.43782 2.53813 0
M  V30 3654 H 362.269 4.65381 1.36193 0
M  V30 3655 N 363.613 -0.582584 1.46437 0
M  V30 3656 C 364.545 -1.70618 1.53043 0
M  V30 3657 C 365.558 -1.57322 0.418769 0
M  V30 3658 O 366.747 -1.64744 0.687136 0
M  V30 3659 C 363.847 -3.08869 1.39474 0
M  V30 3660 C 363.02 -3.48166 2.64762 0
M  V30 3661 C 362.079 -4.65478 2.4539 0
M  V30 3662 O 361.105 -4.71333 3.19114 0
M  V30 3663 N 362.307 -5.60365 1.51564 0
M  V30 3664 H 365.072 -1.65405 2.49923 0
M  V30 3665 H 362.633 -0.768567 1.42494 0
M  V30 3666 H 364.625 -3.85143 1.24287 0
M  V30 3667 H 363.195 -3.08449 0.507758 0
M  V30 3668 H 362.415 -2.61598 2.9489 0
M  V30 3669 H 363.703 -3.71188 3.4799 0
M  V30 3670 H 363.101 -5.5837 0.907705 0
M  V30 3671 H 361.658 -6.36068 1.4234 0
M  V30 3672 N 365.091 -1.34144 -0.827227 0
M  V30 3673 C 366.021 -1.28005 -1.95287 0
M  V30 3674 C 367.002 -0.158321 -1.69362 0
M  V30 3675 O 368.187 -0.349987 -1.9102 0
M  V30 3676 C 365.317 -1.03036 -3.31664 0
M  V30 3677 C 364.271 -2.11628 -3.72019 0
M  V30 3678 C 363.597 -1.71854 -5.0633 0
M  V30 3679 C 364.897 -3.53417 -3.8457 0
M  V30 3680 H 366.591 -2.22187 -2.00682 0
M  V30 3681 H 364.137 -1.0696 -0.964135 0
M  V30 3682 H 366.09 -0.973863 -4.09993 0
M  V30 3683 H 364.814 -0.0529391 -3.26557 0
M  V30 3684 H 363.473 -2.16339 -2.95961 0
M  V30 3685 H 363.121 -0.727841 -4.97706 0
M  V30 3686 H 362.821 -2.44531 -5.34302 0
M  V30 3687 H 364.345 -1.67692 -5.87122 0
M  V30 3688 H 365.759 -3.51142 -4.5318 0
M  V30 3689 H 364.156 -4.24679 -4.2399 0
M  V30 3690 H 365.226 -3.91072 -2.86689 0
M  V30 3691 N 366.569 1.04691 -1.17803 0
M  V30 3692 C 367.501 2.12571 -0.857097 0
M  V30 3693 C 368.514 1.62174 0.142647 0
M  V30 3694 O 369.703 1.78301 -0.0843387 0
M  V30 3695 C 366.803 3.37915 -0.258216 0
M  V30 3696 C 365.976 4.1757 -1.30207 0
M  V30 3697 C 365.035 5.2125 -0.720029 0
M  V30 3698 O 364.061 5.51888 -1.39314 0
M  V30 3699 N 365.263 5.78466 0.485507 0
M  V30 3700 H 368.028 2.40698 -1.78562 0
M  V30 3701 H 365.589 1.20831 -1.07757 0
M  V30 3702 H 367.581 4.04442 0.144584 0
M  V30 3703 H 366.151 3.07281 0.574199 0
M  V30 3704 H 365.371 3.46458 -1.88043 0
M  V30 3705 H 366.659 4.67586 -2.00601 0
M  V30 3706 H 366.057 5.55866 1.05022 0
M  V30 3707 H 364.614 6.4649 0.830307 0
M  V30 3708 N 368.047 0.979072 1.23499 0
M  V30 3709 C 369.324 0.563674 1.87302 0
M  V30 3710 C 369.704 -0.959199 1.88049 0
M  V30 3711 O 369.052 -1.83535 1.36114 0
M  V30 3712 C 369.262 1.16822 3.28867 0
M  V30 3713 C 370.61 1.26014 4.0547 0
M  V30 3714 O 371.634 1.12158 3.38082 0
M  V30 3715 O 370.493 1.48044 5.26066 0
M  V30 3716 H 367.587 0.189602 0.804972 0
M  V30 3717 H 370.133 1.07407 1.31384 0
M  V30 3718 H 368.905 2.21049 3.22883 0
M  V30 3719 H 368.528 0.642564 3.92373 0
M  V30 3720 N 369.525 -1.3858 0.750561 0
M  V30 3721 C 370.455 -2.33102 0.136237 0
M  V30 3722 C 371.436 -1.54713 -0.706965 0
M  V30 3723 O 372.621 -1.83043 -0.648769 0
M  V30 3724 C 369.751 -3.38882 -0.760017 0
M  V30 3725 C 368.705 -4.27995 -0.0197785 0
M  V30 3726 C 368.031 -5.24605 -1.03408 0
M  V30 3727 C 369.331 -5.09554 1.14684 0
M  V30 3728 H 371.025 -2.84726 0.925822 0
M  V30 3729 H 368.571 -1.36898 0.446654 0
M  V30 3730 H 370.524 -4.0397 -1.19943 0
M  V30 3731 H 369.248 -2.85734 -1.58189 0
M  V30 3732 H 367.907 -3.64409 0.400184 0
M  V30 3733 H 367.555 -4.67746 -1.84994 0
M  V30 3734 H 367.255 -5.85081 -0.543464 0
M  V30 3735 H 368.779 -5.9257 -1.47288 0
M  V30 3736 H 370.193 -5.67899 0.785118 0
M  V30 3737 H 368.59 -5.7925 1.56812 0
M  V30 3738 H 369.66 -4.4347 1.96118 0
M  V30 3739 N 371.003 -0.499398 -1.49478 0
M  V30 3740 C 371.933 0.269244 -2.31943 0
M  V30 3741 C 372.914 0.964054 -1.40143 0
M  V30 3742 O 374.099 0.955767 -1.69052 0
M  V30 3743 C 371.229 1.33504 -3.20615 0
M  V30 3744 C 370.183 0.760202 -4.21195 0
M  V30 3745 C 369.509 1.9264 -4.98792 0
M  V30 3746 C 370.809 -0.247661 -5.21712 0
M  V30 3747 H 372.503 -0.419082 -2.96452 0
M  V30 3748 H 370.049 -0.202988 -1.42562 0
M  V30 3749 H 372.002 1.88048 -3.77115 0
M  V30 3750 H 370.726 2.05253 -2.54045 0
M  V30 3751 H 369.385 0.23653 -3.65836 0
M  V30 3752 H 369.033 2.63154 -4.28671 0
M  V30 3753 H 368.733 1.54785 -5.66847 0
M  V30 3754 H 370.257 2.4762 -5.58137 0
M  V30 3755 H 371.671 0.209579 -5.72917 0
M  V30 3756 H 370.068 -0.541962 -5.97648 0
M  V30 3757 H 371.138 -1.16409 -4.7072 0
M  V30 3758 N 372.481 1.55866 -0.233164 0
M  V30 3759 C 373.758 1.90471 0.444988 0
M  V30 3760 C 374.138 1.15209 1.7689 0
M  V30 3761 O 373.486 0.265119 2.26957 0
M  V30 3762 C 373.696 3.4333 0.626559 0
M  V30 3763 C 375.044 4.14319 0.92871 0
M  V30 3764 O 376.068 3.48993 0.712926 0
M  V30 3765 O 374.927 5.29846 1.33887 0
M  V30 3766 H 372.021 0.792347 0.236885 0
M  V30 3767 H 374.567 1.67437 -0.276211 0
M  V30 3768 H 373.339 3.90095 -0.306822 0
M  V30 3769 H 372.962 3.72181 1.39881 0
M  V30 3770 N 373.959 -0.0401083 1.57549 0
M  V30 3771 C 375.207 -0.731677 1.8839 0
M  V30 3772 C 375.528 -1.76481 0.829425 0
M  V30 3773 O 374.798 -1.95411 -0.1383 0
M  V30 3774 H 373.378 -0.273225 0.695239 0
M  V30 3775 H 376.04 -0.00867725 1.94898 0
M  V30 3776 H 375.136 -1.22816 2.86919 0
M  V30 3777 N 375.437 -1.54477 -0.31217 0
M  V30 3778 C 376.684 -1.73227 -1.04875 0
M  V30 3779 C 377.012 -0.512042 -1.87639 0
M  V30 3780 O 376.267 0.506131 -1.89042 0
M  V30 3781 C 376.566 -2.967 -1.99258 0
M  V30 3782 C 376.232 -4.30974 -1.32559 0
M  V30 3783 C 374.894 -4.67477 -1.141 0
M  V30 3784 C 377.246 -5.14258 -0.847835 0
M  V30 3785 C 374.574 -5.84852 -0.465326 0
M  V30 3786 C 376.926 -6.32327 -0.185931 0
M  V30 3787 C 375.59 -6.67499 0.0107077 0
M  V30 3788 H 374.86 -0.633881 -0.383765 0
M  V30 3789 H 377.507 -1.88727 -0.324731 0
M  V30 3790 H 375.812 -2.75935 -2.7815 0
M  V30 3791 H 377.509 -3.08401 -2.563 0
M  V30 3792 H 374.099 -4.02262 -1.4793 0
M  V30 3793 H 378.283 -4.86565 -0.978192 0
M  V30 3794 H 373.539 -6.10654 -0.301883 0
M  V30 3795 H 377.713 -6.96135 0.192211 0
M  V30 3796 H 375.34 -7.58306 0.536287 0
M  V30 3797 N 376.915 0.57481 -1.46744 0
M  V30 3798 C 378.192 1.3352 -1.4294 0
M  V30 3799 C 378.572 2.10775 -0.117009 0
M  V30 3800 O 377.92 2.09966 0.901474 0
M  V30 3801 C 378.13 2.25456 -2.66403 0
M  V30 3802 C 379.478 2.87035 -3.12883 0
M  V30 3803 O 380.502 2.35766 -2.67007 0
M  V30 3804 O 379.361 3.80179 -3.92589 0
M  V30 3805 H 376.455 0.600318 -0.568812 0
M  V30 3806 H 379.001 0.595171 -1.58921 0
M  V30 3807 H 377.773 1.67851 -3.53471 0
M  V30 3808 H 377.396 3.06785 -2.52921 0
M  V30 3809 N 378.394 1.34581 0.820102 0
M  V30 3810 C 379.642 1.26845 1.57336 0
M  V30 3811 C 379.963 -0.160667 1.94337 0
M  V30 3812 O 379.233 -1.09396 1.6251 0
M  V30 3813 H 377.813 0.466514 0.583415 0
M  V30 3814 H 380.475 1.68526 0.979027 0
M  V30 3815 H 379.571 1.87513 2.4949 0
M  V30 3816 N 379.872 -1.04064 1.18357 0
M  V30 3817 C 381.283 -1.58719 0.98312 0
M  V30 3818 C 381.634 -1.90556 -0.467193 0
M  V30 3819 O 380.759 -1.69561 -1.34454 0
M  V30 3820 C 381.354 -2.88379 1.77828 0
M  V30 3821 C 379.913 -3.3965 1.62218 0
M  V30 3822 C 379.06 -2.13235 1.77274 0
M  V30 3823 H 382.011 -0.867359 1.32901 0
M  V30 3824 H 382.032 -3.58773 1.26737 0
M  V30 3825 H 381.544 -2.65176 2.83379 0
M  V30 3826 H 379.645 -3.67866 0.592036 0
M  V30 3827 H 379.758 -4.13475 2.42023 0
M  V30 3828 H 378.122 -2.24542 1.20221 0
M  V30 3829 H 378.905 -1.92487 2.8426 0
M  V30 3830 N 381.35 -0.985608 -1.22978 0
M  V30 3831 C 382.59 -0.665487 -1.93263 0
M  V30 3832 C 382.954 0.78706 -1.75127 0
M  V30 3833 O 384.155 1.21826 -2.39608 0
M  V30 3834 C 382.426 -1.0515 -3.41582 0
M  V30 3835 S 383.985 -0.848637 -4.30516 0
M  V30 3836 H 380.803 -0.24355 -0.667985 0
M  V30 3837 H 383.405 -1.26635 -1.48942 0
M  V30 3838 H 382.109 -2.10517 -3.52293 0
M  V30 3839 H 381.64 -0.442134 -3.90908 0
M  V30 3840 H 383.655 0.264717 -4.95493 0
M  V30 3841 N 382.828 1.3818 -0.7579 0
M  V30 3842 C 384.074 2.00316 -0.316453 0
M  V30 3843 C 384.407 1.60026 1.10025 0
M  V30 3844 O 383.682 0.839835 1.75434 0
M  V30 3845 C 383.965 3.57349 -0.444245 0
M  V30 3846 C 383.818 4.07591 -1.90236 0
M  V30 3847 C 385.137 4.3981 0.1598 0
M  V30 3848 H 382.256 0.727741 -0.116459 0
M  V30 3849 H 384.898 1.6406 -0.958352 0
M  V30 3850 H 383.048 3.88365 0.102233 0
M  V30 3851 H 384.72 3.87199 -2.50748 0
M  V30 3852 H 382.963 3.60297 -2.41595 0
M  V30 3853 H 383.634 5.16677 -1.94291 0
M  V30 3854 H 386.11 4.14971 -0.306314 0
M  V30 3855 H 384.986 5.48885 0.0401675 0
M  V30 3856 H 385.247 4.24102 1.24859 0
M  V30 3857 N 384.306 0.507319 1.49211 0
M  V30 3858 C 385.236 -0.256939 2.32082 0
M  V30 3859 C 386.217 -0.956609 1.40652 0
M  V30 3860 O 387.402 -0.946788 1.69557 0
M  V30 3861 C 384.532 -1.31802 3.21318 0
M  V30 3862 C 383.486 -0.737855 4.21592 0
M  V30 3863 C 382.812 -1.89992 4.99807 0
M  V30 3864 C 384.112 0.275325 5.21574 0
M  V30 3865 H 385.806 0.434798 2.96226 0
M  V30 3866 H 383.352 0.210546 1.42452 0
M  V30 3867 H 385.305 -1.86045 3.78107 0
M  V30 3868 H 384.029 -2.03903 2.5513 0
M  V30 3869 H 382.688 -0.217126 3.65956 0
M  V30 3870 H 382.336 -2.60877 4.30061 0
M  V30 3871 H 382.036 -1.51777 5.6766 0
M  V30 3872 H 383.56 -2.44657 5.59442 0
M  V30 3873 H 384.974 -0.179193 5.7302 0
M  V30 3874 H 383.371 0.573649 5.97352 0
M  V30 3875 H 384.441 1.18903 4.70096 0
M  V30 3876 N 385.784 -1.5574 0.241426 0
M  V30 3877 C 387.061 -1.90704 -0.434881 0
M  V30 3878 C 387.441 -1.16145 -1.76277 0
M  V30 3879 O 386.789 -0.277152 -2.26813 0
M  V30 3880 C 386.999 -3.43657 -0.608343 0
M  V30 3881 C 388.347 -4.14806 -0.906725 0
M  V30 3882 O 389.371 -3.49366 -0.694408 0
M  V30 3883 O 388.23 -5.30548 -1.31075 0
M  V30 3884 H 385.324 -0.793592 -0.23268 0
M  V30 3885 H 387.87 -1.67288 0.285086 0
M  V30 3886 H 386.642 -3.89927 0.327505 0
M  V30 3887 H 386.265 -3.72918 -1.37906 0
M  V30 3888 N 387.262 0.0317525 -1.57568 0
M  V30 3889 C 388.502 0.727979 -1.90997 0
M  V30 3890 C 388.866 1.72664 -0.839708 0
M  V30 3891 O 390.067 2.47092 -1.05825 0
M  V30 3892 C 388.338 1.38239 -3.29583 0
M  V30 3893 S 389.897 2.10814 -3.84841 0
M  V30 3894 H 386.715 0.241226 -0.668828 0
M  V30 3895 H 389.317 -0.0173037 -1.95492 0
M  V30 3896 H 388.021 0.642288 -4.05343 0
M  V30 3897 H 387.552 2.16628 -3.28384 0
M  V30 3898 H 389.567 3.3792 -3.63352 0
M  V30 3899 N 388.74 1.54641 0.303973 0
M  V30 3900 C 389.687 1.85386 1.37479 0
M  V30 3901 C 390.657 0.702528 1.50512 0
M  V30 3902 O 391.842 0.950867 1.65418 0
M  V30 3903 C 388.982 2.10413 2.73533 0
M  V30 3904 C 388.095 3.38049 2.68974 0
M  V30 3905 C 387.23 3.52934 3.97002 0
M  V30 3906 C 386.269 4.74373 3.86829 0
M  V30 3907 N 385.406 4.8608 5.06627 0
M  V30 3908 H 390.246 2.76732 1.1056 0
M  V30 3909 H 387.783 1.37034 0.534805 0
M  V30 3910 H 389.741 2.22919 3.52652 0
M  V30 3911 H 388.371 1.22338 2.98719 0
M  V30 3912 H 387.423 3.3418 1.81736 0
M  V30 3913 H 388.735 4.27288 2.57346 0
M  V30 3914 H 387.889 3.65088 4.84557 0
M  V30 3915 H 386.628 2.61824 4.1146 0
M  V30 3916 H 385.633 4.62255 2.97658 0
M  V30 3917 H 386.858 5.66888 3.73918 0
M  V30 3918 H 384.804 3.97891 5.21554 0
M  V30 3919 H 384.721 5.69315 4.9741 0
M  V30 3920 H 385.989 5.02587 5.95841 0
M  V30 3921 N 390.218 -0.567019 1.47046 0
M  V30 3922 C 391.151 -1.69016 1.53326 0
M  V30 3923 C 392.129 -1.57949 0.386126 0
M  V30 3924 O 393.313 -1.78945 0.592529 0
M  V30 3925 C 390.44 -3.07191 1.42658 0
M  V30 3926 C 389.486 -3.36733 2.6175 0
M  V30 3927 S 390.319 -3.27069 4.24012 0
M  V30 3928 C 391.475 -4.67755 4.1588 0
M  V30 3929 H 391.708 -1.63434 2.48348 0
M  V30 3930 H 389.241 -0.747048 1.35124 0
M  V30 3931 H 391.199 -3.86897 1.37191 0
M  V30 3932 H 389.86 -3.10249 0.490369 0
M  V30 3933 H 389.053 -4.37441 2.50323 0
M  V30 3934 H 388.655 -2.64627 2.64289 0
M  V30 3935 H 390.947 -5.58491 3.83529 0
M  V30 3936 H 391.89 -4.84239 5.16641 0
M  V30 3937 H 392.298 -4.45341 3.46889 0
M  V30 3938 N 391.696 -1.35014 -0.812953 0
M  V30 3939 C 392.944 -1.27678 -1.56661 0
M  V30 3940 C 393.265 0.150359 -1.94419 0
M  V30 3941 O 392.535 1.08532 -1.63088 0
M  V30 3942 H 391.115 -0.469602 -0.580933 0
M  V30 3943 H 393.777 -1.69043 -0.970076 0
M  V30 3944 H 392.873 -1.88833 -2.48492 0
M  V30 3945 N 393.175 1.03435 -1.18907 0
M  V30 3946 C 394.421 1.77005 -0.989798 0
M  V30 3947 C 394.754 1.88205 0.478816 0
M  V30 3948 O 394.029 1.39481 1.35556 0
M  V30 3949 C 394.312 3.19925 -1.65287 0
M  V30 3950 C 394.165 3.1663 -3.19477 0
M  V30 3951 C 395.484 4.18189 -1.37134 0
M  V30 3952 H 392.603 0.642538 -0.360991 0
M  V30 3953 H 395.245 1.20784 -1.46667 0
M  V30 3954 H 393.395 3.67929 -1.24741 0
M  V30 3955 H 395.067 2.76567 -3.692 0
M  V30 3956 H 393.31 2.54491 -3.51307 0
M  V30 3957 H 393.981 4.1758 -3.61013 0
M  V30 3958 H 396.457 3.78761 -1.72276 0
M  V30 3959 H 395.333 5.16394 -1.86087 0
M  V30 3960 H 395.594 4.41112 -0.295424 0
M  V30 3961 N 394.653 0.992116 1.22453 0
M  V30 3962 C 396.069 0.702713 1.43297 0
M  V30 3963 C 396.269 -0.726909 1.87932 0
M  V30 3964 O 395.325 -1.49792 2.0327 0
M  V30 3965 C 396.638 1.70762 2.47509 0
M  V30 3966 C 398.186 1.72298 2.61309 0
M  V30 3967 C 398.661 2.71649 3.68742 0
M  V30 3968 N 400.152 2.70239 3.76199 0
M  V30 3969 C 400.887 3.43778 4.58917 0
M  V30 3970 N 400.383 4.26914 5.45633 0
M  V30 3971 N 402.176 3.32487 4.5322 0
M  V30 3972 H 394.327 1.91543 0.917871 0
M  V30 3973 H 396.59 0.826031 0.465162 0
M  V30 3974 H 396.296 2.73059 2.21657 0
M  V30 3975 H 396.17 1.49985 3.46099 0
M  V30 3976 H 398.557 0.706989 2.86506 0
M  V30 3977 H 398.638 1.97143 1.62997 0
M  V30 3978 H 398.282 3.73397 3.44292 0
M  V30 3979 H 398.212 2.44074 4.66622 0
M  V30 3980 H 400.703 2.09912 3.14237 0
M  V30 3981 H 401.016 4.79855 6.05771 0
M  V30 3982 H 399.361 4.31002 5.45218 0
M  V30 3983 H 402.552 2.6698 3.84499 0
M  V30 3984 H 402.725 3.90058 5.17454 0
M  V30 3985 N 396.131 -1.37776 0.765217 0
M  V30 3986 C 397.359 -2.04124 0.337767 0
M  V30 3987 C 397.774 -1.57715 -1.03785 0
M  V30 3988 O 397.131 -0.755447 -1.6613 0
M  V30 3989 C 397.182 -3.59658 0.364442 0
M  V30 3990 O 396.903 -4.04367 1.68579 0
M  V30 3991 C 398.404 -4.43236 -0.0754221 0
M  V30 3992 H 395.624 -0.655696 0.142491 0
M  V30 3993 H 398.168 -1.76238 1.03732 0
M  V30 3994 H 396.323 -3.86339 -0.286471 0
M  V30 3995 H 396.737 -4.98857 1.61993 0
M  V30 3996 H 398.211 -5.52 -0.00560067 0
M  V30 3997 H 398.688 -4.2455 -1.12491 0
M  V30 3998 H 399.294 -4.21767 0.547055 0
M  V30 3999 N 397.609 -0.515225 -1.4894 0
M  V30 4000 C 398.839 0.0205735 -2.0659 0
M  V30 4001 C 399.247 1.30064 -1.37405 0
M  V30 4002 O 398.59 1.78087 -0.450632 0
M  V30 4003 C 398.652 0.330124 -3.57981 0
M  V30 4004 C 398.316 -0.854295 -4.48944 0
M  V30 4005 C 399.313 -1.7487 -4.89609 0
M  V30 4006 C 396.998 -1.05712 -4.9105 0
M  V30 4007 C 398.992 -2.82996 -5.71132 0
M  V30 4008 C 396.679 -2.14154 -5.72347 0
M  V30 4009 C 397.677 -3.0263 -6.12294 0
M  V30 4010 O 397.365 -4.09198 -6.91962 0
M  V30 4011 H 397.097 -0.0236833 -0.675585 0
M  V30 4012 H 399.651 -0.715956 -1.92518 0
M  V30 4013 H 397.881 1.12044 -3.70112 0
M  V30 4014 H 399.57 0.806233 -3.97812 0
M  V30 4015 H 400.336 -1.60388 -4.57712 0
M  V30 4016 H 396.215 -0.377788 -4.59449 0
M  V30 4017 H 399.759 -3.52083 -6.02232 0
M  V30 4018 H 395.656 -2.28626 -6.03656 0
M  V30 4019 H 396.424 -4.06726 -7.10293 0
M  V30 4020 N 399.087 1.5561 -0.249682 0
M  V30 4021 C 400.017 2.24477 0.642826 0
M  V30 4022 C 400.998 1.22601 1.17911 0
M  V30 4023 O 402.183 1.5126 1.21795 0
M  V30 4024 C 399.313 2.94638 1.83863 0
M  V30 4025 C 398.267 4.03227 1.435 0
M  V30 4026 C 397.593 4.60828 2.71186 0
M  V30 4027 C 398.893 5.18796 0.604002 0
M  V30 4028 H 400.587 2.99321 0.0685625 0
M  V30 4029 H 398.133 1.43965 0.0315363 0
M  V30 4030 H 400.086 3.41517 2.46868 0
M  V30 4031 H 398.81 2.17287 2.43832 0
M  V30 4032 H 397.469 3.57121 0.828275 0
M  V30 4033 H 397.117 3.80174 3.29358 0
M  V30 4034 H 396.817 5.34132 2.44901 0
M  V30 4035 H 398.341 5.10442 3.35084 0
M  V30 4036 H 399.755 5.61883 1.13842 0
M  V30 4037 H 398.152 5.98506 0.437097 0
M  V30 4038 H 399.222 4.83384 -0.383147 0
M  V30 4039 N 400.565 -0.0233959 1.57583 0
M  V30 4040 C 401.475 -1.03907 2.10334 0
M  V30 4041 C 402.491 -1.39257 1.04323 0
M  V30 4042 O 403.667 -1.48462 1.36091 0
M  V30 4043 C 400.732 -2.31938 2.57693 0
M  V30 4044 C 399.793 -2.03117 3.78209 0
M  V30 4045 C 399.026 -3.25043 4.233 0
M  V30 4046 O 399.249 -4.35916 3.67876 0
M  V30 4047 O 398.183 -3.10411 5.15683 0
M  V30 4048 H 402.009 -0.620748 2.97288 0
M  V30 4049 H 399.594 -0.240743 1.47448 0
M  V30 4050 H 401.476 -3.07196 2.88458 0
M  V30 4051 H 400.151 -2.73055 1.73847 0
M  V30 4052 H 399.058 -1.25408 3.52454 0
M  V30 4053 H 400.391 -1.66852 4.63056 0
M  V30 4054 N 402.043 -1.548 -0.295768 0
M  V30 4055 C 402.953 -1.89177 -1.38742 0
M  V30 4056 C 403.969 -0.786481 -1.55211 0
M  V30 4057 O 405.145 -1.08344 -1.69775 0
M  V30 4058 C 402.21 -2.13663 -2.73036 0
M  V30 4059 C 401.271 -3.37349 -2.65508 0
M  V30 4060 C 400.504 -3.60658 -3.93398 0
M  V30 4061 O 400.727 -2.86882 -4.93006 0
M  V30 4062 O 399.661 -4.54179 -3.94975 0
M  V30 4063 H 403.487 -2.82059 -1.12589 0
M  V30 4064 H 401.072 -1.41056 -0.492295 0
M  V30 4065 H 402.954 -2.3094 -3.52484 0
M  V30 4066 H 401.629 -1.23967 -2.99022 0
M  V30 4067 H 400.536 -3.25431 -1.84514 0
M  V30 4068 H 401.869 -4.27192 -2.44474 0
M  V30 4069 N 403.521 0.559213 -1.47345 0
M  V30 4070 C 404.431 1.69388 -1.62311 0
M  V30 4071 C 405.447 1.6648 -0.505993 0
M  V30 4072 O 406.623 1.85964 -0.773262 0
M  V30 4073 C 403.688 3.05894 -1.63185 0
M  V30 4074 C 402.749 3.19885 -2.86307 0
M  V30 4075 C 401.982 4.49879 -2.87131 0
M  V30 4076 O 402.205 5.35217 -1.97229 0
M  V30 4077 O 401.139 4.67618 -3.78968 0
M  V30 4078 H 404.965 1.59706 -2.58317 0
M  V30 4079 H 402.55 0.728989 -1.30407 0
M  V30 4080 H 404.432 3.87133 -1.66451 0
M  V30 4081 H 403.107 3.15964 -0.70345 0
M  V30 4082 H 402.014 2.38052 -2.88587 0
M  V30 4083 H 403.347 3.14718 -3.78435 0
M  V30 4084 N 404.999 1.35443 0.805782 0
M  V30 4085 C 405.929 1.31095 1.93226 0
M  V30 4086 C 406.91 0.185244 1.69088 0
M  V30 4087 O 408.095 0.380332 1.90439 0
M  V30 4088 C 405.225 1.08299 3.29983 0
M  V30 4089 C 404.179 2.17519 3.68605 0
M  V30 4090 C 403.505 1.79887 5.03532 0
M  V30 4091 C 404.805 3.5949 3.78898 0
M  V30 4092 H 406.499 2.25352 1.97122 0
M  V30 4093 H 404.045 1.0848 0.946996 0
M  V30 4094 H 405.998 1.03897 4.08391 0
M  V30 4095 H 404.722 0.104885 3.26432 0
M  V30 4096 H 403.381 2.2102 2.92482 0
M  V30 4097 H 403.029 0.80693 4.96485 0
M  V30 4098 H 402.729 2.53001 5.30344 0
M  V30 4099 H 404.253 1.77011 5.84379 0
M  V30 4100 H 405.667 3.58307 4.47536 0
M  V30 4101 H 404.064 4.31371 4.1718 0
M  V30 4102 H 405.134 3.95584 2.80431 0
M  V30 4103 N 406.477 -1.02803 1.19454 0
M  V30 4104 C 407.705 -1.79841 1.02297 0
M  V30 4105 C 408.12 -1.83879 -0.428259 0
M  V30 4106 O 407.477 -1.28345 -1.29745 0
M  V30 4107 C 407.528 -3.24852 1.58598 0
M  V30 4108 O 407.249 -3.21097 2.98041 0
M  V30 4109 C 408.75 -4.18485 1.46236 0
M  V30 4110 H 405.97 -0.565936 0.360496 0
M  V30 4111 H 408.514 -1.2948 1.58288 0
M  V30 4112 H 406.669 -3.72401 1.06753 0
M  V30 4113 H 407.083 -4.12033 3.24545 0
M  V30 4114 H 408.557 -5.18121 1.90407 0
M  V30 4115 H 409.034 -4.37254 0.41301 0
M  V30 4116 H 409.64 -3.76811 1.97215 0
M  V30 4117 N 407.956 -0.998596 -1.21925 0
M  V30 4118 C 408.903 -0.553621 -2.24062 0
M  V30 4119 C 409.873 0.416999 -1.6078 0
M  V30 4120 O 411.058 0.320482 -1.88089 0
M  V30 4121 C 408.198 0.119959 -3.44891 0
M  V30 4122 C 407.311 -0.893077 -4.22668 0
M  V30 4123 C 406.446 -0.192424 -5.30851 0
M  V30 4124 C 405.485 -1.19344 -6.00353 0
M  V30 4125 N 404.622 -0.520707 -7.00166 0
M  V30 4126 H 409.462 -1.4293 -2.61486 0
M  V30 4127 H 406.999 -0.715838 -1.28507 0
M  V30 4128 H 408.957 0.527459 -4.13852 0
M  V30 4129 H 407.587 0.959389 -3.08214 0
M  V30 4130 H 406.639 -1.41886 -3.52948 0
M  V30 4131 H 407.951 -1.65512 -4.70539 0
M  V30 4132 H 407.105 0.271515 -6.06092 0
M  V30 4133 H 405.844 0.602075 -4.83969 0
M  V30 4134 H 404.849 -1.66795 -5.23889 0
M  V30 4135 H 406.074 -1.98891 -6.49322 0
M  V30 4136 H 404.02 0.254252 -6.55507 0
M  V30 4137 H 403.937 -1.2211 -7.46073 0
M  V30 4138 H 405.205 -0.0797596 -7.79459 0
M  V30 4139 N 409.434 1.37368 -0.772513 0
M  V30 4140 C 410.397 2.28601 -0.165541 0
M  V30 4141 C 411.397 1.48062 0.627238 0
M  V30 4142 O 412.587 1.68268 0.450715 0
M  V30 4143 C 409.719 3.32023 0.772897 0
M  V30 4144 H 410.912 2.83787 -0.969787 0
M  V30 4145 H 408.465 1.46647 -0.540775 0
M  V30 4146 H 409.2 2.81962 1.60212 0
M  V30 4147 H 408.985 3.91555 0.206585 0
M  V30 4148 H 410.475 4.00197 1.19298 0
M  V30 4149 N 410.912 0.523116 1.48665 0
M  V30 4150 C 412.328 0.180511 1.58576 0
M  V30 4151 C 412.528 -1.31597 1.52592 0
M  V30 4152 O 411.584 -2.0937 1.4114 0
M  V30 4153 C 412.897 0.776949 2.90489 0
M  V30 4154 C 414.445 0.745058 3.04003 0
M  V30 4155 C 414.92 1.31995 4.38567 0
M  V30 4156 N 416.411 1.28162 4.45117 0
M  V30 4157 C 417.146 1.6964 5.47731 0
M  V30 4158 N 416.642 2.18816 6.57337 0
M  V30 4159 N 418.435 1.6092 5.38573 0
M  V30 4160 H 410.586 1.4958 1.50797 0
M  V30 4161 H 412.849 0.621772 0.715614 0
M  V30 4162 H 412.555 1.82732 3.00503 0
M  V30 4163 H 412.429 0.25007 3.7637 0
M  V30 4164 H 414.816 -0.296532 2.93606 0
M  V30 4165 H 414.897 1.30933 2.1975 0
M  V30 4166 H 414.541 2.36043 4.49718 0
M  V30 4167 H 414.471 0.731418 5.21496 0
M  V30 4168 H 416.962 0.92155 3.66491 0
M  V30 4169 H 417.275 2.48478 7.31764 0
M  V30 4170 H 415.62 2.22805 6.58318 0
M  V30 4171 H 418.811 1.22304 4.5184 0
M  V30 4172 H 418.984 1.93567 6.18414 0
M  V30 4173 N 412.39 -1.55475 0.257931 0
M  V30 4174 C 413.3 -2.2549 -0.647425 0
M  V30 4175 C 414.316 -1.2748 -1.18427 0
M  V30 4176 O 415.492 -1.6038 -1.2182 0
M  V30 4177 C 412.557 -2.94916 -1.82278 0
M  V30 4178 C 411.618 -4.08363 -1.32432 0
M  V30 4179 C 410.851 -4.74469 -2.44366 0
M  V30 4180 O 411.074 -4.39701 -3.63344 0
M  V30 4181 O 410.008 -5.62763 -2.13497 0
M  V30 4182 H 413.834 -3.03593 -0.0807707 0
M  V30 4183 H 411.419 -1.49377 0.0259962 0
M  V30 4184 H 413.301 -3.38606 -2.50846 0
M  V30 4185 H 411.976 -2.19744 -2.37685 0
M  V30 4186 H 410.883 -3.69166 -0.605605 0
M  V30 4187 H 412.216 -4.85385 -0.816211 0
M  V30 4188 N 413.868 0.0150385 -1.57593 0
M  V30 4189 C 415.284 0.370907 -1.5523 0
M  V30 4190 C 415.484 1.75735 -0.985882 0
M  V30 4191 O 414.54 2.44944 -0.613077 0
M  V30 4192 C 415.853 0.259908 -2.99575 0
M  V30 4193 C 417.401 0.335959 -3.11192 0
M  V30 4194 C 417.876 0.254253 -4.57294 0
M  V30 4195 N 419.367 0.312618 -4.62144 0
M  V30 4196 C 420.102 0.272505 -5.72752 0
M  V30 4197 N 419.598 0.183864 -6.92556 0
M  V30 4198 N 421.391 0.323267 -5.6117 0
M  V30 4199 H 413.542 -0.892104 -1.92757 0
M  V30 4200 H 415.805 -0.340563 -0.884715 0
M  V30 4201 H 415.511 -0.693403 -3.44797 0
M  V30 4202 H 415.385 1.048 -3.62349 0
M  V30 4203 H 417.772 1.27971 -2.65909 0
M  V30 4204 H 417.853 -0.481739 -2.51223 0
M  V30 4205 H 417.497 -0.685887 -5.03247 0
M  V30 4206 H 417.427 1.09024 -5.15191 0
M  V30 4207 H 419.918 0.38307 -3.75953 0
M  V30 4208 H 420.231 0.15874 -7.72637 0
M  V30 4209 H 418.576 0.149708 -6.94839 0
M  V30 4210 H 421.767 0.390607 -4.66467 0
M  V30 4211 H 421.94 0.288539 -6.47357 0
M  V30 4212 N 415.346 1.54954 0.287554 0
M  V30 4213 C 416.757 1.65732 0.859634 0
M  V30 4214 C 417.108 0.574767 1.87592 0
M  V30 4215 O 416.233 -0.286299 2.14498 0
M  V30 4216 C 416.828 3.00438 1.56597 0
M  V30 4217 C 415.387 3.13292 2.08627 0
M  V30 4218 C 414.534 2.61473 0.923416 0
M  V30 4219 H 417.485 1.5857 0.0642338 0
M  V30 4220 H 417.506 2.92613 2.43224 0
M  V30 4221 H 417.018 3.79207 0.826053 0
M  V30 4222 H 415.119 2.39268 2.85625 0
M  V30 4223 H 415.232 4.19647 2.31157 0
M  V30 4224 H 413.596 2.18264 1.31275 0
M  V30 4225 H 414.379 3.42733 0.197241 0
M  V30 4226 N 416.824 -0.551391 1.4764 0
M  V30 4227 C 417.771 -1.65796 1.60563 0
M  V30 4228 C 418.741 -1.59932 0.448428 0
M  V30 4229 O 419.926 -1.78679 0.669222 0
M  V30 4230 C 417.066 -3.04108 1.63133 0
M  V30 4231 C 416.179 -3.20365 2.89811 0
M  V30 4232 C 415.314 -4.49109 2.8368 0
M  V30 4233 C 414.353 -4.58819 4.05156 0
M  V30 4234 N 413.49 -5.78926 3.97227 0
M  V30 4235 H 418.33 -1.54088 2.5507 0
M  V30 4236 H 415.867 -0.75052 1.26513 0
M  V30 4237 H 417.825 -3.84207 1.62606 0
M  V30 4238 H 416.455 -3.14637 0.721341 0
M  V30 4239 H 415.507 -2.33659 3.00179 0
M  V30 4240 H 416.819 -3.23402 3.79753 0
M  V30 4241 H 415.973 -5.37475 2.81434 0
M  V30 4242 H 414.712 -4.4856 1.91431 0
M  V30 4243 H 413.717 -3.68864 4.077 0
M  V30 4244 H 414.942 -4.61124 4.98539 0
M  V30 4245 H 412.888 -5.79314 3.07785 0
M  V30 4246 H 412.805 -5.83367 4.80853 0
M  V30 4247 H 414.073 -6.69637 3.99007 0
M  V30 4248 N 418.302 -1.35869 -0.798587 0
M  V30 4249 C 419.232 -1.32118 -1.92528 0
M  V30 4250 C 420.213 -0.194209 -1.68988 0
M  V30 4251 O 421.398 -0.390426 -1.90235 0
M  V30 4252 C 418.528 -1.10047 -3.29404 0
M  V30 4253 C 417.482 -2.19471 -3.67446 0
M  V30 4254 C 416.808 -1.82555 -5.02571 0
M  V30 4255 C 418.108 -3.61495 -3.76987 0
M  V30 4256 H 419.802 -2.26394 -1.95924 0
M  V30 4257 H 417.348 -1.08981 -0.94123 0
M  V30 4258 H 419.301 -1.06061 -4.07835 0
M  V30 4259 H 418.025 -0.122195 -3.26371 0
M  V30 4260 H 416.684 -2.22568 -2.91306 0
M  V30 4261 H 416.332 -0.833249 -4.9605 0
M  V30 4262 H 416.032 -2.5581 -5.28995 0
M  V30 4263 H 417.556 -1.80108 -5.83432 0
M  V30 4264 H 418.97 -3.60676 -4.4563 0
M  V30 4265 H 417.367 -4.33577 -4.14887 0
M  V30 4266 H 418.437 -3.97065 -2.78329 0
M  V30 4267 N 419.78 1.02168 -1.19998 0
M  V30 4268 C 421.196 1.27969 -0.953737 0
M  V30 4269 C 421.396 1.98079 0.369703 0
M  V30 4270 O 420.452 2.27306 1.09947 0
M  V30 4271 C 421.765 2.11971 -2.13281 0
M  V30 4272 C 423.313 2.25255 -2.17323 0
M  V30 4273 C 423.788 3.12632 -3.34702 0
M  V30 4274 N 425.279 3.2022 -3.34684 0
M  V30 4275 C 426.014 3.88039 -4.22153 0
M  V30 4276 N 425.51 4.58027 -5.19791 0
M  V30 4277 N 427.303 3.84511 -4.10009 0
M  V30 4278 H 419.454 0.550794 -2.05134 0
M  V30 4279 H 421.717 0.305683 -0.897364 0
M  V30 4280 H 421.423 1.67785 -3.09097 0
M  V30 4281 H 421.297 3.12699 -2.10949 0
M  V30 4282 H 423.684 2.68667 -1.22073 0
M  V30 4283 H 423.765 1.24053 -2.23706 0
M  V30 4284 H 423.409 2.69926 -4.30235 0
M  V30 4285 H 423.339 4.13909 -3.25556 0
M  V30 4286 H 425.83 2.70382 -2.64012 0
M  V30 4287 H 426.143 5.07429 -5.82868 0
M  V30 4288 H 424.488 4.56869 -5.23733 0
M  V30 4289 H 427.679 3.28978 -3.33003 0
M  V30 4290 H 427.852 4.3709 -4.78389 0
M  V30 4291 N 421.258 1.00505 1.21394 0
M  V30 4292 C 422.205 0.565496 2.23765 0
M  V30 4293 C 423.175 -0.408466 1.60999 0
M  V30 4294 O 424.36 -0.310503 1.88257 0
M  V30 4295 C 421.5 -0.101667 3.4495 0
M  V30 4296 C 420.613 0.915479 4.22188 0
M  V30 4297 C 419.748 0.220574 5.30742 0
M  V30 4298 C 418.787 1.22527 5.99711 0
M  V30 4299 N 417.924 0.557831 6.9988 0
M  V30 4300 H 422.764 1.44314 2.60725 0
M  V30 4301 H 420.301 0.722643 1.28126 0
M  V30 4302 H 422.259 -0.505504 4.14126 0
M  V30 4303 H 420.889 -0.94303 3.08718 0
M  V30 4304 H 419.941 1.43756 3.52191 0
M  V30 4305 H 421.253 1.68005 4.69655 0
M  V30 4306 H 420.407 -0.239368 6.06228 0
M  V30 4307 H 419.146 -0.576401 4.84282 0
M  V30 4308 H 418.151 1.69571 5.22997 0
M  V30 4309 H 419.376 2.02332 6.48258 0
M  V30 4310 H 417.322 -0.219486 6.55633 0
M  V30 4311 H 417.239 1.26065 7.45415 0
M  V30 4312 H 418.507 0.121095 7.79406 0
M  V30 4313 N 422.737 -1.36956 0.779787 0
M  V30 4314 C 424.014 -1.93697 0.272156 0
M  V30 4315 C 424.394 -1.71267 -1.23413 0
M  V30 4316 O 423.742 -1.06607 -2.02107 0
M  V30 4317 C 423.952 -3.42812 0.654291 0
M  V30 4318 C 425.3 -4.19921 0.628602 0
M  V30 4319 O 426.324 -3.51209 0.594172 0
M  V30 4320 O 425.183 -5.42465 0.662864 0
M  V30 4321 H 422.277 -0.824447 0.0649286 0
M  V30 4322 H 424.823 -1.46196 0.861682 0
M  V30 4323 H 423.595 -3.52754 1.69353 0
M  V30 4324 H 423.218 -3.97582 0.0381369 0
M  V30 4325 N 424.215 -0.530993 -1.48385 0
M  V30 4326 C 425.148 0.278511 -2.26494 0
M  V30 4327 C 426.126 0.943905 -1.32398 0
M  V30 4328 O 427.31 0.968098 -1.61741 0
M  V30 4329 C 424.437 1.39453 -3.08659 0
M  V30 4330 C 423.483 0.840434 -4.18137 0
M  V30 4331 S 424.316 -0.292496 -5.34701 0
M  V30 4332 C 425.472 0.825973 -6.20426 0
M  V30 4333 H 425.705 -0.384365 -2.94805 0
M  V30 4334 H 423.238 -0.316799 -1.51115 0
M  V30 4335 H 425.196 2.03382 -3.56575 0
M  V30 4336 H 423.857 2.02913 -2.3976 0
M  V30 4337 H 423.05 1.67769 -4.75257 0
M  V30 4338 H 422.652 0.277819 -3.72967 0
M  V30 4339 H 424.944 1.72438 -6.55188 0
M  V30 4340 H 425.887 0.292728 -7.07495 0
M  V30 4341 H 426.295 1.10683 -5.53543 0
M  V30 4342 N 425.693 1.55336 -0.266172 0
M  V30 4343 C 426.923 2.03506 0.356239 0
M  V30 4344 C 427.331 1.14426 1.50676 0
M  V30 4345 O 426.674 0.155043 1.83045 0
M  V30 4346 C 426.736 3.47848 0.90785 0
M  V30 4347 C 426.4 4.56861 -0.112888 0
M  V30 4348 C 427.397 5.11528 -0.929264 0
M  V30 4349 C 425.082 5.01704 -0.244546 0
M  V30 4350 C 427.076 6.09549 -1.86357 0
M  V30 4351 C 424.763 5.99553 -1.18234 0
M  V30 4352 C 425.761 6.53356 -1.99036 0
M  V30 4353 O 425.449 7.49293 -2.91231 0
M  V30 4354 H 425.181 0.670444 0.08649 0
M  V30 4355 H 427.735 2.01598 -0.39337 0
M  V30 4356 H 425.965 3.46967 1.70737 0
M  V30 4357 H 427.654 3.79407 1.44239 0
M  V30 4358 H 428.42 4.77701 -0.838237 0
M  V30 4359 H 424.299 4.59477 0.374359 0
M  V30 4360 H 427.843 6.51469 -2.49467 0
M  V30 4361 H 423.74 6.32799 -1.27421 0
M  V30 4362 H 424.508 7.66978 -2.8581 0
M  V30 4363 N 427.171 -0.0066808 1.57599 0
M  V30 4364 C 428.118 -1.00024 2.08 0
M  V30 4365 C 429.088 -1.34549 0.973943 0
M  V30 4366 O 430.273 -1.44502 1.24595 0
M  V30 4367 C 427.413 -2.2891 2.58252 0
M  V30 4368 C 426.526 -2.00346 3.82734 0
M  V30 4369 C 425.661 -3.23265 4.21513 0
M  V30 4370 C 424.7 -2.90357 5.3885 0
M  V30 4371 N 423.837 -4.05793 5.72954 0
M  V30 4372 H 428.677 -0.563499 2.92624 0
M  V30 4373 H 426.214 -0.266592 1.44664 0
M  V30 4374 H 428.172 -3.04247 2.85464 0
M  V30 4375 H 426.802 -2.70265 1.76512 0
M  V30 4376 H 425.854 -1.15406 3.62471 0
M  V30 4377 H 427.166 -1.72086 4.68175 0
M  V30 4378 H 426.32 -4.06953 4.49971 0
M  V30 4379 H 425.059 -3.54657 3.34768 0
M  V30 4380 H 424.064 -2.05075 5.10122 0
M  V30 4381 H 425.289 -2.60219 6.27266 0
M  V30 4382 H 423.235 -4.37094 4.89167 0
M  V30 4383 H 423.152 -3.81034 6.52954 0
M  V30 4384 H 424.42 -4.90289 6.06001 0
M  V30 4385 N 428.649 -1.55105 -0.279332 0
M  V30 4386 C 429.596 -1.8755 -1.34513 0
M  V30 4387 C 430.566 -0.726384 -1.49375 0
M  V30 4388 O 431.751 -0.977063 -1.63884 0
M  V30 4389 C 428.891 -2.14738 -2.70151 0
M  V30 4390 C 428.004 -3.42285 -2.63562 0
M  V30 4391 C 427.139 -3.59206 -3.91337 0
M  V30 4392 C 426.178 -4.80467 -3.79233 0
M  V30 4393 N 425.315 -4.94079 -4.98829 0
M  V30 4394 H 430.155 -2.78456 -1.06143 0
M  V30 4395 H 427.692 -1.37867 -0.512936 0
M  V30 4396 H 429.65 -2.28501 -3.49061 0
M  V30 4397 H 428.28 -1.27075 -2.96735 0
M  V30 4398 H 427.332 -3.37029 -1.76397 0
M  V30 4399 H 428.644 -4.31328 -2.50515 0
M  V30 4400 H 427.798 -3.72751 -4.78687 0
M  V30 4401 H 426.537 -2.68337 -4.07243 0
M  V30 4402 H 425.542 -4.66932 -2.90266 0
M  V30 4403 H 426.767 -5.72765 -3.64852 0
M  V30 4404 H 424.713 -4.06139 -5.15158 0
M  V30 4405 H 424.63 -5.77156 -4.8829 0
M  V30 4406 H 425.898 -5.12003 -5.8777 0
M  V30 4407 N 430.127 0.543554 -1.4793 0
M  V30 4408 C 431.06 1.66556 -1.55995 0
M  V30 4409 C 432.038 1.57315 -0.411205 0
M  V30 4410 O 433.222 1.7798 -0.620922 0
M  V30 4411 C 430.349 3.04883 -1.47527 0
M  V30 4412 C 429.395 3.32526 -2.67074 0
M  V30 4413 S 430.228 3.20282 -4.29162 0
M  V30 4414 C 431.384 4.61079 -4.23269 0
M  V30 4415 H 431.617 1.59462 -2.50917 0
M  V30 4416 H 429.15 0.725456 -1.36296 0
M  V30 4417 H 431.108 3.84665 -1.43328 0
M  V30 4418 H 429.769 3.09429 -0.539665 0
M  V30 4419 H 428.962 4.33403 -2.5725 0
M  V30 4420 H 428.564 2.60389 -2.68466 0
M  V30 4421 H 430.856 5.52318 -3.92365 0
M  V30 4422 H 431.799 4.75959 -5.24279 0
M  V30 4423 H 432.207 4.39766 -3.5393 0
M  V30 4424 N 431.605 1.3629 0.791371 0
M  V30 4425 C 432.535 1.33137 1.91825 0
M  V30 4426 C 433.516 0.203168 1.68882 0
M  V30 4427 O 434.701 0.400509 1.90025 0
M  V30 4428 C 431.831 1.11793 3.28816 0
M  V30 4429 C 430.785 2.21417 3.66277 0
M  V30 4430 C 430.111 1.85218 5.01596 0
M  V30 4431 C 431.411 3.63489 3.75064 0
M  V30 4432 H 433.105 2.2743 1.9472 0
M  V30 4433 H 430.651 1.09479 0.935437 0
M  V30 4434 H 432.604 1.08222 4.07266 0
M  V30 4435 H 431.328 0.139501 3.26302 0
M  V30 4436 H 429.987 2.2411 2.90121 0
M  V30 4437 H 429.635 0.859544 4.95602 0
M  V30 4438 H 429.335 2.58611 5.27631 0
M  V30 4439 H 430.859 1.832 5.82469 0
M  V30 4440 H 432.273 3.63034 4.43711 0
M  V30 4441 H 430.67 4.35771 4.12582 0
M  V30 4442 H 431.74 3.98536 2.76219 0
M  V30 4443 N 433.083 -1.0153 1.20538 0
M  V30 4444 C 434.046 -2.0826 0.957098 0
M  V30 4445 C 435.046 -1.60657 -0.0678655 0
M  V30 4446 O 436.236 -1.73385 0.168332 0
M  V30 4447 C 433.368 -3.38033 0.441188 0
M  V30 4448 H 434.561 -2.31719 1.90384 0
M  V30 4449 H 432.114 -1.1835 1.02093 0
M  V30 4450 H 432.849 -3.20249 -0.510961 0
M  V30 4451 H 432.634 -3.73911 1.18038 0
M  V30 4452 H 434.124 -4.16613 0.287009 0
M  V30 4453 N 434.561 -1.01147 -1.20859 0
M  V30 4454 C 435.807 -0.698899 -1.90377 0
M  V30 4455 C 436.14 0.76904 -1.78324 0
M  V30 4456 O 435.415 1.55817 -1.16409 0
M  V30 4457 C 435.698 -1.12878 -3.41951 0
M  V30 4458 C 435.551 -2.65665 -3.62963 0
M  V30 4459 C 436.87 -0.696114 -4.3456 0
M  V30 4460 H 433.989 -0.255372 -0.691342 0
M  V30 4461 H 436.631 -1.25831 -1.42361 0
M  V30 4462 H 434.781 -0.652827 -3.82976 0
M  V30 4463 H 436.453 -3.21074 -3.31224 0
M  V30 4464 H 434.696 -3.06878 -3.06608 0
M  V30 4465 H 435.367 -2.90797 -4.69192 0
M  V30 4466 H 437.843 -1.10521 -4.01154 0
M  V30 4467 H 436.719 -1.025 -5.39245 0
M  V30 4468 H 436.98 0.402465 -4.40264 0
M  V30 4469 N 436.039 1.36541 -0.78704 0
M  V30 4470 C 437.316 1.9355 -0.282424 0
M  V30 4471 C 437.696 1.71919 1.22503 0
M  V30 4472 O 437.044 1.07677 2.01539 0
M  V30 4473 C 437.254 3.4246 -0.672462 0
M  V30 4474 C 438.602 4.19582 -0.650863 0
M  V30 4475 O 439.626 3.50889 -0.612789 0
M  V30 4476 O 438.485 5.42106 -0.691623 0
M  V30 4477 H 435.579 0.824091 -0.0693 0
M  V30 4478 H 438.125 1.45736 -0.869423 0
M  V30 4479 H 436.897 3.51851 -1.71221 0
M  V30 4480 H 436.52 3.97556 -0.0592211 0
M  V30 4481 N 437.518 0.538854 1.48102 0
M  V30 4482 C 438.929 0.100679 1.86428 0
M  V30 4483 C 439.28 -1.32447 1.44749 0
M  V30 4484 O 438.405 -1.99339 0.842199 0
M  V30 4485 C 439 0.175933 3.38343 0
M  V30 4486 C 437.559 -0.207098 3.7583 0
M  V30 4487 C 436.706 0.531741 2.72154 0
M  V30 4488 H 439.657 0.749614 1.3988 0
M  V30 4489 H 439.678 -0.610144 3.75576 0
M  V30 4490 H 439.19 1.21328 3.68648 0
M  V30 4491 H 437.291 -1.24626 3.5114 0
M  V30 4492 H 437.404 0.138687 4.78899 0
M  V30 4493 H 435.768 -0.0230462 2.5469 0
M  V30 4494 H 436.551 1.56989 3.05302 0
M  V30 4495 N 438.996 -1.55193 0.274407 0
M  V30 4496 C 439.906 -2.26164 -0.623473 0
M  V30 4497 C 440.922 -1.28729 -1.17068 0
M  V30 4498 O 442.098 -1.61663 -1.20112 0
M  V30 4499 C 439.163 -2.96833 -1.7914 0
M  V30 4500 C 438.224 -4.09745 -1.28093 0
M  V30 4501 C 437.457 -4.77034 -2.3932 0
M  V30 4502 O 437.68 -4.4353 -3.5866 0
M  V30 4503 O 436.614 -5.64996 -2.07516 0
M  V30 4504 H 440.44 -3.03661 -0.0485661 0
M  V30 4505 H 438.025 -1.49341 0.0418382 0
M  V30 4506 H 439.907 -3.41248 -2.4724 0
M  V30 4507 H 438.582 -2.22253 -2.35341 0
M  V30 4508 H 437.489 -3.69787 -0.566416 0
M  V30 4509 H 438.822 -4.86224 -0.764683 0
M  V30 4510 N 440.474 -0.00167713 -1.576 0
M  V30 4511 C 441.437 0.974046 -2.07473 0
M  V30 4512 C 442.437 1.27143 -0.984444 0
M  V30 4513 O 443.627 1.21633 -1.24703 0
M  V30 4514 C 440.759 2.29849 -2.51759 0
M  V30 4515 H 441.952 0.54262 -2.9495 0
M  V30 4516 H 439.505 0.245829 -1.54355 0
M  V30 4517 H 440.24 2.77677 -1.67529 0
M  V30 4518 H 440.025 2.09584 -3.31386 0
M  V30 4519 H 441.515 2.9984 -2.90664 0
M  V30 4520 N 441.952 1.55251 0.271103 0
M  V30 4521 C 443.363 1.66635 0.842007 0
M  V30 4522 C 443.714 0.594631 1.86972 0
M  V30 4523 O 442.839 -0.263532 2.14789 0
M  V30 4524 C 443.434 3.02082 1.53401 0
M  V30 4525 C 441.993 3.15487 2.05293 0
M  V30 4526 C 441.14 2.62438 0.895631 0
M  V30 4527 H 444.091 1.58629 0.0474117 0
M  V30 4528 H 444.112 2.95176 2.40107 0
M  V30 4529 H 443.624 3.80062 0.785786 0
M  V30 4530 H 441.725 2.42284 2.83071 0
M  V30 4531 H 441.838 4.22075 2.26693 0
M  V30 4532 H 440.202 2.19644 1.28953 0
M  V30 4533 H 440.985 3.42923 0.160878 0
M  V30 4534 N 443.43 -0.535701 1.48216 0
M  V30 4535 C 444.658 -1.31671 1.59594 0
M  V30 4536 C 445.073 -1.87083 0.254056 0
M  V30 4537 O 444.43 -1.66112 -0.755854 0
M  V30 4538 C 444.481 -2.47158 2.63809 0
M  V30 4539 O 444.202 -1.94032 3.92789 0
M  V30 4540 C 445.703 -3.39062 2.85573 0
M  V30 4541 H 442.923 -0.400623 0.538277 0
M  V30 4542 H 445.467 -0.646827 1.94001 0
M  V30 4543 H 443.622 -3.10043 2.32276 0
M  V30 4544 H 444.036 -2.69585 4.49916 0
M  V30 4545 H 445.51 -4.16459 3.62306 0
M  V30 4546 H 445.987 -3.93941 1.94184 0
M  V30 4547 H 446.593 -2.81975 3.18387 0
M  V30 4548 N 444.908 -1.36708 -0.784132 0
M  V30 4549 C 445.818 -1.3363 -1.92822 0
M  V30 4550 C 446.834 -0.237686 -1.72369 0
M  V30 4551 O 448.01 -0.470962 -1.95816 0
M  V30 4552 C 445.075 -1.13011 -3.27764 0
M  V30 4553 C 444.136 -2.32397 -3.60957 0
M  V30 4554 C 443.369 -2.12752 -4.89461 0
M  V30 4555 O 443.592 -1.10541 -5.59586 0
M  V30 4556 O 442.526 -3.00653 -5.21432 0
M  V30 4557 H 446.352 -2.29964 -1.98369 0
M  V30 4558 H 443.937 -1.1731 -0.925136 0
M  V30 4559 H 445.819 -1.03451 -4.08504 0
M  V30 4560 H 444.494 -0.19743 -3.23097 0
M  V30 4561 H 443.401 -2.47527 -2.80502 0
M  V30 4562 H 444.734 -3.2419 -3.70354 0
M  V30 4563 N 446.386 1.0089 -1.21074 0
M  V30 4564 C 447.296 2.13039 -0.982425 0
M  V30 4565 C 448.312 1.73881 0.0642161 0
M  V30 4566 O 449.488 2.01012 -0.12496 0
M  V30 4567 C 446.553 3.42377 -0.545803 0
M  V30 4568 C 445.614 3.95731 -1.6642 0
M  V30 4569 C 444.847 5.18896 -1.24832 0
M  V30 4570 O 445.07 5.70273 -0.120265 0
M  V30 4571 O 444.004 5.65597 -2.05873 0
M  V30 4572 H 447.83 2.35175 -1.92163 0
M  V30 4573 H 445.415 1.1142 -0.995285 0
M  V30 4574 H 447.297 4.20244 -0.311912 0
M  V30 4575 H 445.972 3.21639 0.364727 0
M  V30 4576 H 444.879 3.19108 -1.95246 0
M  V30 4577 H 446.212 4.20872 -2.55201 0
M  V30 4578 N 447.864 1.01787 1.20321 0
M  V30 4579 C 448.774 0.598898 2.26827 0
M  V30 4580 C 449.79 -0.36418 1.70146 0
M  V30 4581 O 450.966 -0.224812 2.00141 0
M  V30 4582 C 448.031 -0.0549769 3.46656 0
M  V30 4583 C 447.092 0.954205 4.18561 0
M  V30 4584 C 446.325 0.331439 5.3267 0
M  V30 4585 O 446.548 -0.86851 5.63749 0
M  V30 4586 O 445.482 1.0488 5.92692 0
M  V30 4587 H 449.308 1.48562 2.64883 0
M  V30 4588 H 446.893 0.787434 1.26964 0
M  V30 4589 H 448.775 -0.420102 4.19301 0
M  V30 4590 H 447.45 -0.915876 3.10473 0
M  V30 4591 H 446.357 1.37072 3.48083 0
M  V30 4592 H 447.69 1.78511 4.58688 0
M  V30 4593 N 449.342 -1.36122 0.79427 0
M  V30 4594 C 450.292 -2.27373 0.169017 0
M  V30 4595 C 451.276 -1.4719 -0.649913 0
M  V30 4596 O 452.468 -1.69518 -0.50919 0
M  V30 4597 C 449.597 -3.36264 -0.691455 0
M  V30 4598 C 448.683 -4.2388 0.13653 0
M  V30 4599 N 449.074 -4.91519 1.19345 0
M  V30 4600 C 447.372 -4.45921 -0.0838499 0
M  V30 4601 C 448.073 -5.56369 1.6979 0
M  V30 4602 N 447.049 -5.34204 1.00634 0
M  V30 4603 H 450.851 -2.77154 0.977897 0
M  V30 4604 H 448.365 -1.49504 0.634208 0
M  V30 4605 H 450.362 -4.00572 -1.15534 0
M  V30 4606 H 449.022 -2.88037 -1.49883 0
M  V30 4607 H 450.033 -4.9334 1.57594 0
M  V30 4608 H 446.71 -4.08518 -0.861341 0
M  V30 4609 H 448.1 -6.20368 2.58055 0
M  V30 4610 N 450.82 -0.546701 -1.47814 0
M  V30 4611 C 451.783 0.196287 -2.28358 0
M  V30 4612 C 452.783 0.852437 -1.36346 0
M  V30 4613 O 453.973 0.709913 -1.59078 0
M  V30 4614 C 451.105 1.28579 -3.15722 0
M  V30 4615 H 452.298 -0.511086 -2.95513 0
M  V30 4616 H 449.851 -0.303248 -1.5333 0
M  V30 4617 H 450.586 2.0259 -2.53235 0
M  V30 4618 H 450.371 0.820229 -3.83425 0
M  V30 4619 H 451.861 1.80793 -3.76435 0
M  V30 4620 N 452.299 1.55045 -0.282633 0
M  V30 4621 C 453.231 2.2023 0.634924 0
M  V30 4622 C 454.244 1.18931 1.11172 0
M  V30 4623 O 455.433 1.4562 1.03233 0
M  V30 4624 C 452.533 2.82041 1.87899 0
M  V30 4625 C 451.706 4.091 1.54776 0
M  V30 4626 C 450.765 4.54887 2.64507 0
M  V30 4627 O 449.791 5.20496 2.30375 0
M  V30 4628 N 450.993 4.25659 3.94709 0
M  V30 4629 H 453.758 2.99601 0.0769811 0
M  V30 4630 H 451.319 1.61565 -0.104048 0
M  V30 4631 H 453.311 3.09613 2.60619 0
M  V30 4632 H 451.881 2.06618 2.3458 0
M  V30 4633 H 451.101 3.88736 0.654049 0
M  V30 4634 H 452.389 4.9187 1.30158 0
M  V30 4635 H 451.787 3.7306 4.25256 0
M  V30 4636 H 450.344 4.57984 4.63782 0
M  V30 4637 N 453.777 0.010035 1.57597 0
M  V30 4638 C 455.193 -0.346164 1.55801 0
M  V30 4639 C 455.393 -1.74144 1.01371 0
M  V30 4640 O 454.449 -2.43938 0.651968 0
M  V30 4641 C 455.762 -0.212216 2.9995 0
M  V30 4642 C 457.31 -0.286409 3.11687 0
M  V30 4643 C 457.785 -0.18147 4.5764 0
M  V30 4644 N 459.276 -0.239056 4.62583 0
M  V30 4645 C 460.011 -0.181351 5.73113 0
M  V30 4646 N 459.507 -0.073661 6.92761 0
M  V30 4647 N 461.3 -0.233949 5.61613 0
M  V30 4648 H 453.451 0.922657 1.91313 0
M  V30 4649 H 455.714 0.354595 0.879185 0
M  V30 4650 H 455.42 0.748169 3.4365 0
M  V30 4651 H 455.294 -0.990224 3.6397 0
M  V30 4652 H 457.681 -1.23724 2.67911 0
M  V30 4653 H 457.762 0.521645 2.50425 0
M  V30 4654 H 457.406 0.765863 5.02093 0
M  V30 4655 H 457.336 -1.00814 5.1686 0
M  V30 4656 H 459.827 -0.32321 3.76515 0
M  V30 4657 H 460.14 -0.0358003 7.72792 0
M  V30 4658 H 458.485 -0.0391461 6.94989 0
M  V30 4659 H 461.676 -0.316347 4.6703 0
M  V30 4660 H 461.849 -0.185514 6.47734 0
M  V30 4661 N 455.255 -1.55392 -0.262866 0
M  V30 4662 C 456.218 -1.88181 -1.30846 0
M  V30 4663 C 457.218 -0.757079 -1.41862 0
M  V30 4664 O 458.408 -1.02519 -1.40838 0
M  V30 4665 C 455.54 -2.09609 -2.68844 0
M  V30 4666 H 456.733 -2.81659 -1.02997 0
M  V30 4667 H 454.286 -1.48039 -0.501414 0
M  V30 4668 H 455.021 -1.18547 -3.01856 0
M  V30 4669 H 454.806 -2.91508 -2.62231 0
M  V30 4670 H 456.296 -2.36215 -3.44372 0
M  V30 4671 N 456.733 0.527833 -1.48498 0
M  V30 4672 C 457.979 1.28545 -1.56857 0
M  V30 4673 C 458.312 1.92678 -0.242651 0
M  V30 4674 O 457.587 1.79394 0.751545 0
M  V30 4675 C 457.87 2.37314 -2.70839 0
M  V30 4676 C 457.723 1.77858 -4.13142 0
M  V30 4677 C 459.042 3.39068 -2.80573 0
M  V30 4678 H 456.161 0.466006 -0.570971 0
M  V30 4679 H 458.803 0.587784 -1.8068 0
M  V30 4680 H 456.953 2.96821 -2.50658 0
M  V30 4681 H 458.625 1.22385 -4.44769 0
M  V30 4682 H 456.868 1.08383 -4.20042 0
M  V30 4683 H 457.539 2.56624 -4.88721 0
M  V30 4684 H 460.015 2.89518 -2.98862 0
M  V30 4685 H 458.891 4.12566 -3.6205 0
M  V30 4686 H 459.152 3.9975 -1.88818 0
M  V30 4687 N 458.211 1.37122 0.776871 0
M  V30 4688 C 459.439 1.3523 1.5659 0
M  V30 4689 C 459.854 -0.0635518 1.88693 0
M  V30 4690 O 459.211 -1.02394 1.51069 0
M  V30 4691 C 459.262 2.18583 2.8793 0
M  V30 4692 O 458.983 3.5465 2.57206 0
M  V30 4693 C 460.484 2.24612 3.82183 0
M  V30 4694 H 457.704 0.4634 0.485285 0
M  V30 4695 H 460.248 1.80392 0.963266 0
M  V30 4696 H 458.403 1.76943 3.4463 0
M  V30 4697 H 458.817 3.98286 3.41275 0
M  V30 4698 H 460.291 2.87267 4.71361 0
M  V30 4699 H 460.768 1.25309 4.20944 0
M  V30 4700 H 461.374 2.66543 3.31414 0
M  V30 4701 N 459.689 -1.00246 1.21608 0
M  V30 4702 C 460.636 -2.09073 0.977613 0
M  V30 4703 C 461.606 -1.65815 -0.097297 0
M  V30 4704 O 462.791 -1.90734 0.0503445 0
M  V30 4705 C 459.931 -3.40671 0.551133 0
M  V30 4706 C 459.044 -3.97326 1.69576 0
M  V30 4707 C 458.179 -5.17043 1.2182 0
M  V30 4708 C 457.218 -5.65813 2.335 0
M  V30 4709 N 456.355 -6.76778 1.86859 0
M  V30 4710 H 461.195 -2.28806 1.90924 0
M  V30 4711 H 458.732 -1.12186 0.951452 0
M  V30 4712 H 460.69 -4.16225 0.285097 0
M  V30 4713 H 459.32 -3.20967 -0.343489 0
M  V30 4714 H 458.372 -3.18734 2.07637 0
M  V30 4715 H 459.684 -4.29511 2.53617 0
M  V30 4716 H 458.838 -5.99852 0.908975 0
M  V30 4717 H 457.577 -4.86458 0.347869 0
M  V30 4718 H 456.582 -4.81599 2.65222 0
M  V30 4719 H 457.807 -5.98427 3.21033 0
M  V30 4720 H 455.753 -6.47994 1.02174 0
M  V30 4721 H 455.67 -7.08231 2.64471 0
M  V30 4722 H 456.938 -7.63116 1.58978 0
M  V30 4723 N 461.167 -1.02423 -1.1978 0
M  V30 4724 C 462.578 -0.748389 -1.71044 0
M  V30 4725 C 462.929 0.732398 -1.82017 0
M  V30 4726 O 462.054 1.57116 -1.48807 0
M  V30 4727 C 462.649 -1.35187 -3.1066 0
M  V30 4728 C 461.208 -1.12472 -3.59203 0
M  V30 4729 C 460.355 -1.45283 -2.36195 0
M  V30 4730 H 463.306 -1.19275 -1.04686 0
M  V30 4731 H 463.327 -0.746408 -3.73107 0
M  V30 4732 H 462.839 -2.4296 -3.02642 0
M  V30 4733 H 460.94 -0.0649983 -3.72543 0
M  V30 4734 H 461.053 -1.81016 -4.43588 0
M  V30 4735 H 459.417 -0.872034 -2.39307 0
M  V30 4736 H 460.2 -2.54129 -2.30811 0
M  V30 4737 N 462.645 1.35699 -0.801477 0
M  V30 4738 C 464.061 1.52065 -0.484596 0
M  V30 4739 C 464.261 1.75215 0.995084 0
M  V30 4740 O 463.317 1.79061 1.78026 0
M  V30 4741 C 464.63 2.69908 -1.32552 0
M  V30 4742 C 466.178 2.83784 -1.32044 0
M  V30 4743 C 466.653 4.04646 -2.14536 0
M  V30 4744 N 468.144 4.11814 -2.12046 0
M  V30 4745 C 468.879 5.04437 -2.72636 0
M  V30 4746 N 468.375 6.02426 -3.42133 0
M  V30 4747 N 470.168 4.97144 -2.62305 0
M  V30 4748 H 462.319 1.18928 -1.75983 0
M  V30 4749 H 464.582 0.581455 -0.748741 0
M  V30 4750 H 464.288 2.59363 -2.37537 0
M  V30 4751 H 464.162 3.64376 -0.975181 0
M  V30 4752 H 466.549 2.93783 -0.27846 0
M  V30 4753 H 466.63 1.90188 -1.71062 0
M  V30 4754 H 466.274 3.95407 -3.18772 0
M  V30 4755 H 466.204 4.97413 -1.72882 0
M  V30 4756 H 468.695 3.41664 -1.61476 0
M  V30 4757 H 469.008 6.69688 -3.85666 0
M  V30 4758 H 467.353 6.02615 -3.46237 0
M  V30 4759 H 470.544 4.19546 -2.07603 0
M  V30 4760 H 470.717 5.69138 -3.09815 0
M  V30 4761 N 464.123 0.554532 1.47522 0
M  V30 4762 C 465.353 0.0342074 2.06572 0
M  V30 4763 C 465.761 -1.26375 1.40805 0
M  V30 4764 O 465.104 -1.7683 0.49769 0
M  V30 4765 C 465.166 -0.235096 3.5873 0
M  V30 4766 C 464.83 0.973024 4.46521 0
M  V30 4767 C 465.827 1.8779 4.848 0
M  V30 4768 C 463.512 1.18694 4.88075 0
M  V30 4769 C 465.506 2.98039 5.63428 0
M  V30 4770 C 463.193 2.29254 5.66468 0
M  V30 4771 C 464.191 3.18757 6.04055 0
M  V30 4772 O 463.879 4.27401 6.8087 0
M  V30 4773 H 463.611 0.041587 0.67472 0
M  V30 4774 H 466.165 0.766748 1.90552 0
M  V30 4775 H 464.395 -1.02191 3.72953 0
M  V30 4776 H 466.084 -0.700477 3.9981 0
M  V30 4777 H 466.85 1.72467 4.53299 0
M  V30 4778 H 462.729 0.49947 4.58286 0
M  V30 4779 H 466.273 3.67926 5.92685 0
M  V30 4780 H 462.17 2.4455 5.97382 0
M  V30 4781 H 462.938 4.25415 6.9926 0
M  V30 4782 N 465.601 -1.54893 0.290851 0
M  V30 4783 C 466.534 -2.19289 -0.631489 0
M  V30 4784 C 467.512 -1.15893 -1.14051 0
M  V30 4785 O 468.696 -1.4449 -1.21058 0
M  V30 4786 C 465.823 -2.82866 -1.86291 0
M  V30 4787 C 464.869 -3.997 -1.48801 0
M  V30 4788 S 465.702 -5.32641 -0.552644 0
M  V30 4789 C 466.858 -5.99696 -1.79209 0
M  V30 4790 H 467.091 -2.9718 -0.0843791 0
M  V30 4791 H 464.624 -1.54218 0.075031 0
M  V30 4792 H 466.582 -3.20124 -2.56964 0
M  V30 4793 H 465.243 -2.04839 -2.38117 0
M  V30 4794 H 464.436 -4.42932 -2.40473 0
M  V30 4795 H 464.038 -3.63947 -0.861321 0
M  V30 4796 H 466.33 -6.19886 -2.734 0
M  V30 4797 H 467.273 -6.94071 -1.40251 0
M  V30 4798 H 467.681 -5.29226 -1.96419 0
M  V30 4799 N 467.08 -0.0183926 -1.57589 0
M  V30 4800 C 468.012 0.995557 -2.06449 0
M  V30 4801 C 469.025 1.29556 -0.985849 0
M  V30 4802 O 470.214 1.2621 -1.26227 0
M  V30 4803 C 467.314 2.32572 -2.46502 0
M  V30 4804 C 466.487 2.21245 -3.77319 0
M  V30 4805 C 465.546 3.37104 -4.04039 0
M  V30 4806 O 464.572 3.14468 -4.74445 0
M  V30 4807 N 465.774 4.60553 -3.53372 0
M  V30 4808 H 468.539 0.578746 -2.94059 0
M  V30 4809 H 466.1 0.168603 -1.6102 0
M  V30 4810 H 468.092 3.08887 -2.61478 0
M  V30 4811 H 466.662 2.65931 -1.64315 0
M  V30 4812 H 465.882 1.29723 -3.72244 0
M  V30 4813 H 467.17 2.10868 -4.63047 0
M  V30 4814 H 466.568 4.81839 -2.96391 0
M  V30 4815 H 465.125 5.34072 -3.73644 0
M  V30 4816 N 468.558 1.5553 0.254621 0
M  V30 4817 C 469.804 1.7818 0.980989 0
M  V30 4818 C 470.159 0.586059 1.83257 0
M  V30 4819 O 469.452 -0.420889 1.8692 0
M  V30 4820 C 469.646 3.03891 1.88109 0
M  V30 4821 C 469.475 4.35578 1.11812 0
M  V30 4822 C 468.245 4.98497 0.826343 0
M  V30 4823 C 470.443 5.11869 0.499486 0
M  V30 4824 N 468.425 6.13888 0.0385095 0
M  V30 4825 C 469.796 6.1981 -0.153292 0
M  V30 4826 C 471.851 4.96216 0.409175 0
M  V30 4827 C 470.554 7.13801 -0.8877 0
M  V30 4828 C 472.58 5.90578 -0.311683 0
M  V30 4829 C 471.942 6.97922 -0.953129 0
M  V30 4830 H 468.041 0.704057 0.340335 0
M  V30 4831 H 470.625 1.93025 0.254855 0
M  V30 4832 H 468.796 2.90389 2.57932 0
M  V30 4833 H 470.528 3.14869 2.54244 0
M  V30 4834 H 467.283 4.59769 1.13621 0
M  V30 4835 H 467.707 6.76129 -0.343275 0
M  V30 4836 H 472.349 4.1331 0.890765 0
M  V30 4837 H 470.067 7.96214 -1.38092 0
M  V30 4838 H 473.653 5.80544 -0.382125 0
M  V30 4839 H 472.533 7.69681 -1.50203 0
M  V30 4840 N 470.036 -0.519951 1.48776 0
M  V30 4841 C 471.452 -0.849418 1.35119 0
M  V30 4842 C 471.652 -1.98077 0.36982 0
M  V30 4843 O 470.708 -2.51664 -0.205359 0
M  V30 4844 C 472.021 -1.20748 2.75391 0
M  V30 4845 C 473.569 -1.31679 2.83954 0
M  V30 4846 C 474.044 -1.70824 4.24951 0
M  V30 4847 N 475.535 -1.77908 4.27672 0
M  V30 4848 C 476.27 -2.09603 5.33717 0
M  V30 4849 N 475.766 -2.39652 6.5003 0
M  V30 4850 N 477.559 -2.10694 5.21119 0
M  V30 4851 H 469.71 0.226377 2.1119 0
M  V30 4852 H 471.973 0.0386519 0.947212 0
M  V30 4853 H 471.679 -0.449703 3.48813 0
M  V30 4854 H 471.553 -2.15534 3.09556 0
M  V30 4855 H 473.94 -2.06532 2.10781 0
M  V30 4856 H 474.021 -0.3499 2.53396 0
M  V30 4857 H 473.665 -0.965282 4.98643 0
M  V30 4858 H 473.595 -2.6858 4.52959 0
M  V30 4859 H 476.086 -1.56923 3.43779 0
M  V30 4860 H 476.399 -2.6297 7.26682 0
M  V30 4861 H 474.744 -2.37149 6.53288 0
M  V30 4862 H 477.935 -1.86682 4.29264 0
M  V30 4863 H 478.108 -2.35062 6.03863 0
M  V30 4864 N 471.514 -1.37532 -0.769588 0
M  V30 4865 C 472.424 -1.35668 -1.91393 0
M  V30 4866 C 473.44 -0.255954 -1.72107 0
M  V30 4867 O 474.616 -0.491704 -1.95305 0
M  V30 4868 C 471.681 -1.16481 -3.26547 0
M  V30 4869 C 470.742 -2.36212 -3.58472 0
M  V30 4870 C 469.975 -2.17932 -4.87177 0
M  V30 4871 O 470.198 -1.1647 -5.58382 0
M  V30 4872 O 469.132 -3.06167 -5.18214 0
M  V30 4873 H 472.958 -2.32055 -1.95918 0
M  V30 4874 H 470.543 -1.18284 -0.912641 0
M  V30 4875 H 472.425 -1.07778 -4.07384 0
M  V30 4876 H 471.1 -0.231687 -3.2287 0
M  V30 4877 H 470.007 -2.50488 -2.77861 0
M  V30 4878 H 471.34 -3.281 -3.66894 0
M  V30 4879 N 472.992 0.995999 -1.22138 0
M  V30 4880 C 474.24 1.73167 -1.042 0
M  V30 4881 C 474.561 1.90329 0.42423 0
M  V30 4882 O 473.831 1.4607 1.30539 0
M  V30 4883 H 472.411 0.641593 -0.38258 0
M  V30 4884 H 475.073 1.19974 -1.53598 0
M  V30 4885 H 474.169 2.72734 -1.51731 0
M  V30 4886 N 474.47 1.03057 1.19235 0
M  V30 4887 C 475.719 0.72326 1.88287 0
M  V30 4888 C 476.032 -0.751333 1.80594 0
M  V30 4889 O 477.238 -1.17176 2.44912 0
M  V30 4890 C 475.694 1.24338 3.3774 0
M  V30 4891 C 475.302 2.74587 3.53986 0
M  V30 4892 C 477.046 1.01213 4.12257 0
M  V30 4893 C 474.953 3.20009 4.97341 0
M  V30 4894 H 473.883 0.266848 0.705201 0
M  V30 4895 H 476.534 1.24509 1.34795 0
M  V30 4896 H 474.916 0.649457 3.90638 0
M  V30 4897 H 476.09 3.39649 3.11408 0
M  V30 4898 H 474.405 2.9601 2.9286 0
M  V30 4899 H 477.002 1.32675 5.17978 0
M  V30 4900 H 477.345 -0.051001 4.16269 0
M  V30 4901 H 477.878 1.57014 3.65501 0
M  V30 4902 H 474.617 4.25659 4.98493 0
M  V30 4903 H 474.137 2.59676 5.40674 0
M  V30 4904 H 475.816 3.13447 5.66003 0
M  V30 4905 N 475.948 -1.35272 0.808662 0
M  V30 4906 C 477.173 -2.03477 0.401475 0
M  V30 4907 C 477.598 -1.60537 -0.980279 0
M  V30 4908 O 476.956 -0.78304 -1.63518 0
M  V30 4909 C 477.004 -3.57181 0.495354 0
M  V30 4910 O 476.108 -4.09474 -0.490397 0
M  V30 4911 H 475.449 -0.642561 0.167366 0
M  V30 4912 H 477.979 -1.72824 1.09512 0
M  V30 4913 H 477.989 -4.06356 0.365912 0
M  V30 4914 H 476.664 -3.87784 1.5032 0
M  V30 4915 H 475.241 -3.71516 -0.321023 0
M  V30 4916 N 477.426 -0.562348 -1.47226 0
M  V30 4917 C 478.651 -0.0432632 -2.07355 0
M  V30 4918 C 479.076 1.24332 -1.41149 0
M  V30 4919 O 478.434 1.74603 -0.488226 0
M  V30 4920 C 478.482 0.130288 -3.60365 0
M  V30 4921 O 477.586 1.19166 -3.94808 0
M  V30 4922 H 476.927 -0.0536334 -0.66183 0
M  V30 4923 H 479.457 -0.779495 -1.89169 0
M  V30 4924 H 479.467 0.342881 -4.06557 0
M  V30 4925 H 478.142 -0.809389 -4.07948 0
M  V30 4926 H 476.719 0.959153 -3.60354 0
M  V30 4927 N 478.904 1.54736 -0.299062 0
M  V30 4928 C 480.129 2.04975 0.316254 0
M  V30 4929 C 480.554 1.17501 1.46885 0
M  V30 4930 O 479.912 0.178678 1.80417 0
M  V30 4931 C 479.96 3.52672 0.751997 0
M  V30 4932 O 479.064 3.68226 1.85697 0
M  V30 4933 H 478.405 0.661126 0.0617175 0
M  V30 4934 H 480.935 1.99805 -0.440341 0
M  V30 4935 H 480.945 3.94488 1.04133 0
M  V30 4936 H 479.62 4.158 -0.0911482 0
M  V30 4937 H 478.197 3.38316 1.56834 0
M  V30 4938 N 480.382 0.0267497 1.57577 0
M  V30 4939 C 481.61 -0.662661 1.96001 0
M  V30 4940 C 482.025 -1.65799 0.903117 0
M  V30 4941 O 481.382 -1.82135 -0.115317 0
M  V30 4942 C 481.433 -1.37112 3.34488 0
M  V30 4943 O 481.154 -0.415683 4.36123 0
M  V30 4944 C 482.655 -2.15257 3.8753 0
M  V30 4945 H 479.875 -0.18287 0.6456 0
M  V30 4946 H 482.419 0.0858116 2.0432 0
M  V30 4947 H 480.574 -2.07101 3.27395 0
M  V30 4948 H 480.988 -0.918496 5.16395 0
M  V30 4949 H 482.462 -2.60285 4.86781 0
M  V30 4950 H 482.939 -2.99063 3.21649 0
M  V30 4951 H 483.545 -1.50231 3.97883 0
M  V30 4952 N 481.861 -1.55662 -0.24637 0
M  V30 4953 C 483.089 -1.81575 -0.991876 0
M  V30 4954 C 483.504 -0.602545 -1.78927 0
M  V30 4955 O 482.861 0.428795 -1.77391 0
M  V30 4956 C 482.912 -3.05711 -1.92933 0
M  V30 4957 O 482.633 -4.22348 -1.1642 0
M  V30 4958 C 484.134 -3.44428 -2.79078 0
M  V30 4959 H 481.354 -0.604209 -0.291844 0
M  V30 4960 H 483.898 -2.02722 -0.269095 0
M  V30 4961 H 482.053 -2.86612 -2.60638 0
M  V30 4962 H 482.467 -4.92706 -1.79835 0
M  V30 4963 H 483.941 -4.34388 -3.40603 0
M  V30 4964 H 484.418 -2.65037 -3.50217 0
M  V30 4965 H 485.024 -3.65879 -2.16824 0
M  V30 4966 N 483.339 0.512053 -1.4905 0
M  V30 4967 C 484.269 1.62365 -1.67809 0
M  V30 4968 C 485.25 1.61737 -0.526809 0
M  V30 4969 O 486.435 1.78651 -0.761404 0
M  V30 4970 C 483.565 3.00895 -1.73435 0
M  V30 4971 C 482.519 3.16387 -2.88242 0
M  V30 4972 C 481.845 4.56157 -2.78971 0
M  V30 4973 C 483.145 2.97457 -4.29321 0
M  V30 4974 H 484.839 1.46921 -2.60873 0
M  V30 4975 H 482.385 0.705379 -1.2554 0
M  V30 4976 H 484.338 3.78549 -1.85145 0
M  V30 4977 H 483.062 3.17403 -0.769619 0
M  V30 4978 H 481.721 2.41155 -2.76116 0
M  V30 4979 H 481.369 4.69525 -1.8043 0
M  V30 4980 H 481.069 4.67465 -3.5602 0
M  V30 4981 H 482.593 5.35886 -2.92675 0
M  V30 4982 H 484.007 3.64888 -4.42187 0
M  V30 4983 H 482.404 3.20245 -5.07507 0
M  V30 4984 H 483.474 1.93692 -4.44535 0
M  V30 4985 N 484.817 1.37938 0.762283 0
M  V30 4986 C 486.065 1.33404 1.51815 0
M  V30 4987 C 486.386 -0.0780975 1.94844 0
M  V30 4988 O 485.656 -1.02405 1.67003 0
M  V30 4989 H 484.236 0.490839 0.563104 0
M  V30 4990 H 486.898 1.72527 0.906669 0
M  V30 4991 H 485.994 1.97926 2.41313 0
M  V30 4992 N 486.295 -0.989507 1.22664 0
M  V30 4993 C 487.542 -1.72953 1.05325 0
M  V30 4994 C 487.87 -1.90104 -0.411168 0
M  V30 4995 O 487.125 -1.44386 -1.32103 0
M  V30 4996 C 487.424 -3.13649 1.71345 0
M  V30 4997 C 487.09 -3.16403 3.21248 0
M  V30 4998 C 485.752 -3.16862 3.62149 0
M  V30 4999 C 488.104 -3.12428 4.17179 0
M  V30 5000 C 485.432 -3.11051 4.97458 0
M  V30 5001 C 487.784 -3.08159 5.52468 0
M  V30 5002 C 486.448 -3.06935 5.92746 0
M  V30 5003 H 485.718 -0.632881 0.385412 0
M  V30 5004 H 488.365 -1.15863 1.52473 0
M  V30 5005 H 486.67 -3.74069 1.16532 0
M  V30 5006 H 488.367 -3.69658 1.55416 0
M  V30 5007 H 484.957 -3.16798 2.88682 0
M  V30 5008 H 489.141 -3.11221 3.86595 0
M  V30 5009 H 484.397 -3.0845 5.27891 0
M  V30 5010 H 488.571 -3.04039 6.26525 0
M  V30 5011 H 486.198 -3.02186 6.97558 0
M  V30 5012 N 487.773 -1.03688 -1.18687 0
M  V30 5013 C 489.189 -0.755413 -1.4059 0
M  V30 5014 C 489.389 0.656659 -1.905 0
M  V30 5015 O 488.445 1.42144 -2.08689 0
M  V30 5016 C 489.758 -1.7983 -2.41001 0
M  V30 5017 C 491.306 -1.81877 -2.54735 0
M  V30 5018 C 491.781 -2.85148 -3.58406 0
M  V30 5019 N 493.272 -2.84015 -3.6591 0
M  V30 5020 C 494.007 -3.60573 -4.45841 0
M  V30 5021 N 493.503 -4.46871 -5.29413 0
M  V30 5022 N 495.296 -3.49079 -4.40568 0
M  V30 5023 H 487.447 -1.94818 -0.846148 0
M  V30 5024 H 489.71 -0.842727 -0.434184 0
M  V30 5025 H 489.416 -2.81097 -2.1137 0
M  V30 5026 H 489.29 -1.62727 -3.40294 0
M  V30 5027 H 491.677 -0.812836 -2.83685 0
M  V30 5028 H 491.758 -2.03057 -1.55568 0
M  V30 5029 H 491.402 -3.85918 -3.30197 0
M  V30 5030 H 491.332 -2.61224 -4.57241 0
M  V30 5031 H 493.823 -2.21431 -3.0623 0
M  V30 5032 H 494.136 -5.02007 -5.87545 0
M  V30 5033 H 492.481 -4.5094 -5.28846 0
M  V30 5034 H 495.672 -2.81066 -3.74325 0
M  V30 5035 H 495.845 -4.08994 -5.02621 0
M  V30 5036 N 489.251 1.34841 -0.815825 0
M  V30 5037 C 490.5 1.97755 -0.396976 0
M  V30 5038 C 490.813 1.65422 1.04379 0
M  V30 5039 O 492.019 2.21771 1.5662 0
M  V30 5040 C 490.475 3.53818 -0.658869 0
M  V30 5041 C 490.083 3.95051 -2.11278 0
M  V30 5042 C 491.827 4.23397 -0.305834 0
M  V30 5043 C 489.734 5.43997 -2.31994 0
M  V30 5044 H 488.664 0.739985 -0.1447 0
M  V30 5045 H 491.315 1.53781 -1.00118 0
M  V30 5046 H 489.697 3.95997 0.0154112 0
M  V30 5047 H 490.871 3.63998 -2.82564 0
M  V30 5048 H 489.186 3.38388 -2.42657 0
M  V30 5049 H 491.783 5.32899 -0.43854 0
M  V30 5050 H 492.126 4.09508 0.748952 0
M  V30 5051 H 492.659 3.8667 -0.934403 0
M  V30 5052 H 489.398 5.62865 -3.35952 0
M  V30 5053 H 488.918 5.76589 -1.65244 0
M  V30 5054 H 490.597 6.10584 -2.14001 0
M  V30 5055 N 490.729 0.570148 1.46925 0
M  V30 5056 C 491.639 -0.173061 2.33961 0
M  V30 5057 C 492.655 -0.898825 1.48987 0
M  V30 5058 O 493.831 -0.864825 1.81887 0
M  V30 5059 C 490.896 -1.18177 3.25937 0
M  V30 5060 C 489.957 -0.462041 4.26806 0
M  V30 5061 C 489.19 -1.4227 5.14388 0
M  V30 5062 O 489.413 -2.65842 5.04662 0
M  V30 5063 O 488.347 -0.940127 5.94513 0
M  V30 5064 H 492.173 0.541216 2.98839 0
M  V30 5065 H 489.758 0.330647 1.45695 0
M  V30 5066 H 491.64 -1.76372 3.82715 0
M  V30 5067 H 490.315 -1.87774 2.63671 0
M  V30 5068 H 489.222 0.161429 3.73752 0
M  V30 5069 H 490.555 0.192719 4.91823 0
M  V30 5070 N 492.207 -1.54576 0.307264 0
M  V30 5071 C 493.455 -1.99867 -0.299574 0
M  V30 5072 C 493.776 -1.19714 -1.53927 0
M  V30 5073 O 493.046 -0.29472 -1.9367 0
M  V30 5074 H 491.626 -0.738299 -0.113683 0
M  V30 5075 H 494.288 -1.9032 0.420042 0
M  V30 5076 H 493.384 -3.06901 -0.567283 0
M  V30 5077 N 493.685 -0.035106 -1.57561 0
M  V30 5078 C 494.934 0.641604 -1.91223 0
M  V30 5079 C 495.247 1.72944 -0.913761 0
M  V30 5080 O 496.453 2.46321 -1.14185 0
M  V30 5081 C 494.909 1.19249 -3.3957 0
M  V30 5082 C 494.517 0.137616 -4.47789 0
M  V30 5083 C 496.261 1.84537 -3.82291 0
M  V30 5084 C 494.168 0.700478 -5.87237 0
M  V30 5085 H 493.098 0.243417 -0.713627 0
M  V30 5086 H 495.749 -0.101382 -1.8322 0
M  V30 5087 H 494.131 1.98728 -3.42525 0
M  V30 5088 H 495.305 -0.635153 -4.56402 0
M  V30 5089 H 493.62 -0.416855 -4.14308 0
M  V30 5090 H 496.217 2.27616 -4.83834 0
M  V30 5091 H 496.56 2.69054 -3.17672 0
M  V30 5092 H 497.093 1.11739 -3.81784 0
M  V30 5093 H 493.832 -0.106693 -6.55413 0
M  V30 5094 H 493.352 1.4416 -5.82218 0
M  V30 5095 H 495.031 1.18837 -6.35993 0
M  V30 5096 N 495.163 1.55791 0.238111 0
M  V30 5097 C 496.11 1.9105 1.29493 0
M  V30 5098 C 497.08 0.765733 1.47397 0
M  V30 5099 O 498.265 1.02017 1.61236 0
M  V30 5100 C 495.405 2.21826 2.64362 0
M  V30 5101 C 494.518 3.49153 2.54394 0
M  V30 5102 C 493.653 3.69455 3.81676 0
M  V30 5103 C 492.692 4.90353 3.66361 0
M  V30 5104 N 491.829 5.07131 4.85554 0
M  V30 5105 H 496.669 2.81172 0.987233 0
M  V30 5106 H 494.206 1.39179 0.476203 0
M  V30 5107 H 496.164 2.37675 3.4288 0
M  V30 5108 H 494.794 1.34897 2.93262 0
M  V30 5109 H 493.846 3.41587 1.67399 0
M  V30 5110 H 495.158 4.37818 2.38991 0
M  V30 5111 H 494.312 3.85311 4.68636 0
M  V30 5112 H 493.051 2.7904 3.99985 0
M  V30 5113 H 492.056 4.74464 2.77784 0
M  V30 5114 H 493.281 5.82237 3.49538 0
M  V30 5115 H 491.227 4.19654 5.04209 0
M  V30 5116 H 491.144 5.89899 4.72816 0
M  V30 5117 H 492.412 5.27407 5.73988 0
M  V30 5118 N 496.642 -0.504142 1.49319 0
M  V30 5119 C 497.589 -1.60603 1.65756 0
M  V30 5120 C 498.559 -1.58425 0.499082 0
M  V30 5121 O 499.744 -1.76459 0.725728 0
M  V30 5122 C 496.884 -2.98764 1.72726 0
M  V30 5123 C 495.997 -3.10982 2.99857 0
M  V30 5124 C 495.132 -4.39857 2.97824 0
M  V30 5125 C 494.171 -4.45697 4.19548 0
M  V30 5126 N 493.308 -5.65995 4.15444 0
M  V30 5127 H 498.148 -1.45895 2.59843 0
M  V30 5128 H 495.685 -0.709891 1.28837 0
M  V30 5129 H 497.643 -3.78839 1.74747 0
M  V30 5130 H 496.273 -3.12183 0.821075 0
M  V30 5131 H 495.325 -2.23991 3.07461 0
M  V30 5132 H 496.637 -3.11157 3.89849 0
M  V30 5133 H 495.791 -5.2825 2.98391 0
M  V30 5134 H 494.53 -4.42242 2.05604 0
M  V30 5135 H 493.535 -3.55707 4.19229 0
M  V30 5136 H 494.76 -4.4503 5.12957 0
M  V30 5137 H 492.706 -5.69229 3.26059 0
M  V30 5138 H 492.623 -5.67773 4.99169 0
M  V30 5139 H 493.891 -6.56604 4.20109 0
M  V30 5140 N 498.12 -1.38341 -0.754957 0
M  V30 5141 C 499.083 -1.35262 -1.85032 0
M  V30 5142 C 500.083 -0.253393 -1.58791 0
M  V30 5143 O 501.273 -0.510205 -1.66561 0
M  V30 5144 C 498.405 -1.10544 -3.22479 0
M  V30 5145 H 499.598 -2.32712 -1.8917 0
M  V30 5146 H 497.151 -1.23614 -0.956515 0
M  V30 5147 H 497.886 -0.136952 -3.24011 0
M  V30 5148 H 497.671 -1.90127 -3.4292 0
M  V30 5149 H 499.161 -1.11082 -4.02555 0
M  V30 5150 N 499.598 0.982988 -1.23187 0
M  V30 5151 C 500.875 1.69814 -0.970707 0
M  V30 5152 C 501.255 2.04811 0.511424 0
M  V30 5153 O 500.603 1.73924 1.48198 0
M  V30 5154 C 500.813 2.94143 -1.87831 0
M  V30 5155 C 502.161 3.66712 -2.14026 0
M  V30 5156 O 503.185 3.04171 -1.8536 0
M  V30 5157 O 502.044 4.79258 -2.62629 0
M  V30 5158 H 499.138 0.741659 -0.365884 0
M  V30 5159 H 501.684 1.03844 -1.34218 0
M  V30 5160 H 500.456 2.64858 -2.88038 0
M  V30 5161 H 500.079 3.6785 -1.50905 0
M  V30 5162 N 501.076 1.04316 1.18135 0
M  V30 5163 C 502.324 0.746542 1.87806 0
M  V30 5164 C 502.645 -0.728082 1.80898 0
M  V30 5165 O 501.915 -1.52554 1.22899 0
M  V30 5166 H 500.495 0.273157 0.695265 0
M  V30 5167 H 503.157 1.32044 1.43354 0
M  V30 5168 H 502.253 1.05362 2.93778 0
M  V30 5169 N 502.554 -1.34406 0.822964 0
M  V30 5170 C 503.779 -2.0304 0.423034 0
M  V30 5171 C 504.204 -1.61568 -0.963196 0
M  V30 5172 O 503.562 -0.800339 -1.62678 0
M  V30 5173 C 503.61 -3.56636 0.53321 0
M  V30 5174 O 502.714 -4.09971 -0.446939 0
M  V30 5175 H 502.055 -0.64075 0.174171 0
M  V30 5176 H 504.585 -1.71653 1.11339 0
M  V30 5177 H 504.595 -4.05945 0.408991 0
M  V30 5178 H 503.27 -3.86168 1.54425 0
M  V30 5179 H 501.847 -3.71835 -0.281601 0
M  V30 5180 N 504.032 -0.577932 -1.46621 0
M  V30 5181 C 505.272 -0.0643097 -2.04299 0
M  V30 5182 C 505.636 1.26967 -1.44026 0
M  V30 5183 O 506.837 1.87224 -1.92875 0
M  V30 5184 C 505.108 0.00547588 -3.574 0
M  V30 5185 S 506.667 0.462216 -4.36359 0
M  V30 5186 H 503.485 -0.0351573 -0.71013 0
M  V30 5187 H 506.087 -0.76935 -1.79725 0
M  V30 5188 H 504.791 -0.969423 -3.98786 0
M  V30 5189 H 504.322 0.733435 -3.86503 0
M  V30 5190 H 506.337 1.71791 -4.65513 0
M  V30 5191 N 505.51 1.54411 -0.315457 0
M  V30 5192 C 506.735 2.05299 0.294496 0
M  V30 5193 C 507.16 1.19052 1.4563 0
M  V30 5194 O 506.518 0.197804 1.80218 0
M  V30 5195 C 506.566 3.5345 0.714549 0
M  V30 5196 O 505.67 3.70175 1.81781 0
M  V30 5197 H 505.011 0.661743 0.0547019 0
M  V30 5198 H 507.541 1.99327 -0.461508 0
M  V30 5199 H 507.551 3.9557 0.999426 0
M  V30 5200 H 506.226 4.1568 -0.135244 0
M  V30 5201 H 504.803 3.3996 1.53236 0
M  V30 5202 N 506.988 0.0434614 1.5754 0
M  V30 5203 C 508.216 -0.641835 1.96693 0
M  V30 5204 C 508.631 -1.64832 0.920652 0
M  V30 5205 O 507.988 -1.82247 -0.095993 0
M  V30 5206 C 508.039 -1.33557 3.35924 0
M  V30 5207 O 507.76 -0.369403 4.3654 0
M  V30 5208 C 509.261 -2.11135 3.89791 0
M  V30 5209 H 506.481 -0.176013 0.647503 0
M  V30 5210 H 509.025 0.107478 2.04217 0
M  V30 5211 H 507.18 -2.03617 3.29574 0
M  V30 5212 H 507.594 -0.863674 5.1734 0
M  V30 5213 H 509.068 -2.55107 4.89514 0
M  V30 5214 H 509.545 -2.95634 3.24803 0
M  V30 5215 H 510.151 -1.46002 3.99454 0
M  V30 5216 N 508.466 -1.55915 -0.229846 0
M  V30 5217 C 509.743 -1.6932 -0.979295 0
M  V30 5218 C 510.123 -0.588321 -2.02736 0
M  V30 5219 O 509.471 0.40586 -2.24867 0
M  V30 5220 C 509.681 -3.10305 -1.59724 0
M  V30 5221 C 511.029 -3.6945 -2.09264 0
M  V30 5222 O 512.053 -3.13214 -1.69633 0
M  V30 5223 O 510.912 -4.68072 -2.82082 0
M  V30 5224 H 508.006 -0.689314 -0.456919 0
M  V30 5225 H 510.552 -1.68238 -0.222283 0
M  V30 5226 H 509.324 -3.82177 -0.840039 0
M  V30 5227 H 508.947 -3.1547 -2.42001 0
M  V30 5228 N 509.944 0.496216 -1.49584 0
M  V30 5229 C 511.191 1.25003 -1.59312 0
M  V30 5230 C 511.519 1.92445 -0.28198 0
M  V30 5231 O 510.774 1.81557 0.730452 0
M  V30 5232 C 511.073 2.3359 -2.705 0
M  V30 5233 C 510.739 1.83574 -4.11839 0
M  V30 5234 C 509.401 1.69653 -4.50302 0
M  V30 5235 C 511.753 1.46193 -5.00277 0
M  V30 5236 C 509.081 1.16736 -5.74969 0
M  V30 5237 C 511.433 0.947265 -6.25468 0
M  V30 5238 C 510.097 0.794485 -6.62755 0
M  V30 5239 H 509.367 0.45742 -0.582965 0
M  V30 5240 H 512.014 0.549996 -1.83432 0
M  V30 5241 H 510.319 3.09401 -2.40371 0
M  V30 5242 H 512.016 2.91627 -2.75235 0
M  V30 5243 H 508.606 1.9537 -3.81482 0
M  V30 5244 H 512.79 1.55793 -4.71214 0
M  V30 5245 H 508.046 1.03623 -6.02555 0
M  V30 5246 H 512.22 0.648846 -6.93371 0
M  V30 5247 H 509.847 0.382271 -7.59238 0
M  V30 5248 N 511.423 1.38739 0.74761 0
M  V30 5249 C 512.37 1.36449 1.86146 0
M  V30 5250 C 513.34 0.226098 1.64554 0
M  V30 5251 O 514.525 0.41926 1.86137 0
M  V30 5252 C 511.665 1.2013 3.23516 0
M  V30 5253 C 510.778 2.43407 3.56899 0
M  V30 5254 C 509.913 2.19773 4.83605 0
M  V30 5255 C 508.952 3.3879 5.09792 0
M  V30 5256 N 508.089 3.14553 6.27695 0
M  V30 5257 H 512.929 2.3167 1.87438 0
M  V30 5258 H 510.466 1.15094 0.916063 0
M  V30 5259 H 512.424 1.08683 4.02795 0
M  V30 5260 H 511.054 0.285453 3.21535 0
M  V30 5261 H 510.106 2.65504 2.72418 0
M  V30 5262 H 511.418 3.32094 3.72176 0
M  V30 5263 H 510.572 2.05496 5.70838 0
M  V30 5264 H 509.311 1.28461 4.70478 0
M  V30 5265 H 508.316 3.53579 4.21025 0
M  V30 5266 H 509.541 4.30986 5.24812 0
M  V30 5267 H 507.487 2.25893 6.1588 0
M  V30 5268 H 507.404 3.96791 6.435 0
M  V30 5269 H 508.672 3.03943 7.17801 0
M  V30 5270 N 512.901 -0.976442 1.23707 0
M  V30 5271 C 514.129 -1.75341 1.09833 0
M  V30 5272 C 514.544 -1.8553 -0.349885 0
M  V30 5273 O 513.901 -1.33732 -1.24185 0
M  V30 5274 C 513.952 -3.17833 1.72233 0
M  V30 5275 O 513.673 -3.08167 3.11391 0
M  V30 5276 C 515.174 -4.11906 1.63853 0
M  V30 5277 H 512.394 -0.550137 0.384175 0
M  V30 5278 H 514.938 -1.2265 1.63638 0
M  V30 5279 H 513.093 -3.67538 1.22452 0
M  V30 5280 H 513.507 -3.97897 3.41729 0
M  V30 5281 H 514.981 -5.09579 2.12211 0
M  V30 5282 H 515.458 -4.35109 0.598092 0
M  V30 5283 H 516.064 -3.68107 2.13019 0
M  V30 5284 N 514.379 -1.04941 -1.1758 0
M  V30 5285 C 515.607 -0.778294 -1.91703 0
M  V30 5286 C 516.022 0.665697 -1.76675 0
M  V30 5287 O 515.379 1.45456 -1.10222 0
M  V30 5288 C 515.43 -1.14628 -3.42845 0
M  V30 5289 O 515.151 -2.53359 -3.57409 0
M  V30 5290 C 516.652 -0.900931 -4.34049 0
M  V30 5291 H 513.872 -0.283167 -0.608323 0
M  V30 5292 H 516.416 -1.39942 -1.49119 0
M  V30 5293 H 514.571 -0.569953 -3.83184 0
M  V30 5294 H 514.985 -2.67709 -4.51035 0
M  V30 5295 H 516.459 -1.20817 -5.38616 0
M  V30 5296 H 516.936 0.163966 -4.38894 0
M  V30 5297 H 517.542 -1.46097 -3.99419 0
M  V30 5298 N 515.857 1.33968 -0.830081 0
M  V30 5299 C 517.273 1.51003 -0.516742 0
M  V30 5300 C 517.473 1.77286 0.957694 0
M  V30 5301 O 516.529 1.82797 1.74188 0
M  V30 5302 C 517.842 2.67036 -1.38247 0
M  V30 5303 C 519.39 2.80919 -1.38034 0
M  V30 5304 C 519.865 4.00004 -2.23071 0
M  V30 5305 N 521.356 4.07224 -2.20733 0
M  V30 5306 C 522.091 4.98541 -2.83275 0
M  V30 5307 N 521.587 5.95033 -3.54835 0
M  V30 5308 N 523.38 4.91469 -2.72791 0
M  V30 5309 H 515.531 1.15168 -1.78466 0
M  V30 5310 H 517.794 0.565443 -0.760906 0
M  V30 5311 H 517.5 2.54266 -2.42985 0
M  V30 5312 H 517.374 3.62226 -1.05225 0
M  V30 5313 H 519.761 2.93127 -0.340713 0
M  V30 5314 H 519.842 1.86517 -1.75057 0
M  V30 5315 H 519.486 3.88557 -3.27087 0
M  V30 5316 H 519.416 4.93634 -1.83394 0
M  V30 5317 H 521.907 3.38162 -1.68687 0
M  V30 5318 H 522.22 6.61357 -3.99784 0
M  V30 5319 H 520.565 5.95135 -3.58942 0
M  V30 5320 H 523.756 4.15048 -2.16456 0
M  V30 5321 H 523.929 5.62439 -3.21818 0
M  V30 5322 N 517.335 0.585699 1.46312 0
M  V30 5323 C 518.56 0.0762461 2.0726 0
M  V30 5324 C 518.985 -1.22071 1.43109 0
M  V30 5325 O 518.343 -1.73804 0.515942 0
M  V30 5326 C 518.391 -0.0729404 3.60526 0
M  V30 5327 O 517.495 -1.1287 3.96654 0
M  V30 5328 H 516.836 0.0641558 0.660893 0
M  V30 5329 H 519.366 0.809492 1.87905 0
M  V30 5330 H 519.376 -0.278158 4.07051 0
M  V30 5331 H 518.051 0.874188 4.06609 0
M  V30 5332 H 516.628 -0.901703 3.61834 0
M  V30 5333 N 518.813 -1.54241 0.323641 0
M  V30 5334 C 520.229 -1.59574 -0.0290018 0
M  V30 5335 C 520.429 -1.34017 -1.50472 0
M  V30 5336 O 519.485 -1.12464 -2.26071 0
M  V30 5337 C 520.798 -2.98169 0.389295 0
M  V30 5338 C 522.346 -3.11148 0.339958 0
M  V30 5339 C 522.821 -4.5209 0.733418 0
M  V30 5340 N 524.312 -4.5808 0.686827 0
M  V30 5341 C 525.047 -5.65248 0.963464 0
M  V30 5342 N 524.543 -6.80355 1.30724 0
M  V30 5343 N 526.336 -5.55025 0.88902 0
M  V30 5344 H 518.487 -1.6911 1.28512 0
M  V30 5345 H 520.75 -0.790972 0.522558 0
M  V30 5346 H 520.456 -3.21871 1.41746 0
M  V30 5347 H 520.33 -3.76399 -0.245657 0
M  V30 5348 H 522.717 -2.87182 -0.679002 0
M  V30 5349 H 522.798 -2.35023 1.00985 0
M  V30 5350 H 522.442 -4.76788 1.75029 0
M  V30 5351 H 522.372 -5.26584 0.0412189 0
M  V30 5352 H 524.863 -3.75411 0.43298 0
M  V30 5353 H 525.176 -7.58029 1.5037 0
M  V30 5354 H 523.521 -6.81851 1.3455 0
M  V30 5355 H 526.712 -4.63977 0.619939 0
M  V30 5356 H 526.885 -6.38458 1.10797 0
M  V30 5357 N 520.291 -0.0518155 -1.57515 0
M  V30 5358 C 521.201 0.937539 -2.15052 0
M  V30 5359 C 522.217 1.34121 -1.10849 0
M  V30 5360 O 523.393 1.418 -1.4302 0
M  V30 5361 C 520.458 2.19379 -2.68466 0
M  V30 5362 C 519.519 1.84841 -3.87469 0
M  V30 5363 C 518.752 3.04477 -4.38326 0
M  V30 5364 O 518.975 4.17868 -3.88256 0
M  V30 5365 O 517.909 2.85453 -5.29906 0
M  V30 5366 H 521.735 0.478201 -2.99912 0
M  V30 5367 H 519.32 0.17012 -1.48428 0
M  V30 5368 H 521.202 2.93084 -3.02787 0
M  V30 5369 H 519.877 2.64449 -1.86677 0
M  V30 5370 H 518.784 1.08449 -3.58036 0
M  V30 5371 H 520.117 1.44569 -4.7049 0
M  V30 5372 N 521.769 1.56035 0.221574 0
M  V30 5373 C 522.701 1.889 1.29805 0
M  V30 5374 C 523.714 0.777269 1.43047 0
M  V30 5375 O 524.903 1.05557 1.43945 0
M  V30 5376 C 522.003 2.0825 2.67367 0
M  V30 5377 C 521.176 3.39267 2.76073 0
M  V30 5378 C 520.235 3.48049 3.94649 0
M  V30 5379 O 519.261 4.2108 3.82988 0
M  V30 5380 N 520.463 2.79191 5.08953 0
M  V30 5381 H 523.228 2.81831 1.01938 0
M  V30 5382 H 520.789 1.5658 0.411612 0
M  V30 5383 H 522.781 2.11441 3.45072 0
M  V30 5384 H 521.351 1.21944 2.87834 0
M  V30 5385 H 520.571 3.48175 1.84846 0
M  V30 5386 H 521.859 4.25575 2.7886 0
M  V30 5387 H 521.257 2.19635 5.21322 0
M  V30 5388 H 519.814 2.88043 5.84701 0
M  V30 5389 N 523.247 -0.488276 1.49845 0
M  V30 5390 C 524.493 -1.24341 1.6021 0
M  V30 5391 C 524.826 -1.91967 0.293651 0
M  V30 5392 O 524.101 -1.81323 -0.703718 0
M  V30 5393 C 524.384 -2.3005 2.77036 0
M  V30 5394 C 524.237 -1.66842 4.17713 0
M  V30 5395 C 525.556 -3.31509 2.89464 0
M  V30 5396 H 522.675 -0.450704 0.583125 0
M  V30 5397 H 525.317 -0.539673 1.82174 0
M  V30 5398 H 523.467 -2.90071 2.58439 0
M  V30 5399 H 525.139 -1.1055 4.47858 0
M  V30 5400 H 523.382 -0.972079 4.22768 0
M  V30 5401 H 524.053 -2.43576 4.95353 0
M  V30 5402 H 526.529 -2.81493 3.06433 0
M  V30 5403 H 525.405 -4.02822 3.72861 0
M  V30 5404 H 525.666 -3.94603 1.99351 0
M  V30 5405 N 524.725 -1.39134 -0.740242 0
M  V30 5406 C 525.655 -1.40165 -1.86751 0
M  V30 5407 C 526.636 -0.265708 -1.68012 0
M  V30 5408 O 527.821 -0.47076 -1.88408 0
M  V30 5409 C 524.951 -1.2392 -3.2444 0
M  V30 5410 C 523.905 -2.34858 -3.57807 0
M  V30 5411 C 523.231 -2.03707 -4.94376 0
M  V30 5412 C 524.531 -3.77159 -3.61315 0
M  V30 5413 H 526.225 -2.345 -1.86145 0
M  V30 5414 H 523.771 -1.12875 -0.89416 0
M  V30 5415 H 525.724 -1.23263 -4.02969 0
M  V30 5416 H 524.448 -0.26051 -3.25559 0
M  V30 5417 H 523.107 -2.34723 -2.81604 0
M  V30 5418 H 522.755 -1.04289 -4.9207 0
M  V30 5419 H 522.455 -2.78016 -5.17669 0
M  V30 5420 H 523.979 -2.04691 -5.75268 0
M  V30 5421 H 525.393 -3.79252 -4.29931 0
M  V30 5422 H 523.79 -4.50784 -3.96124 0
M  V30 5423 H 524.86 -4.08513 -2.61238 0
M  V30 5424 N 526.204 0.969867 -1.24223 0
M  V30 5425 C 527.62 1.23809 -1.00716 0
M  V30 5426 C 527.82 1.99469 0.285358 0
M  V30 5427 O 526.876 2.31764 1.00207 0
M  V30 5428 C 528.189 2.02734 -2.2208 0
M  V30 5429 C 529.737 2.15834 -2.26681 0
M  V30 5430 C 530.212 2.98154 -3.47661 0
M  V30 5431 N 531.703 3.05737 -3.47964 0
M  V30 5432 C 532.438 3.69785 -4.38231 0
M  V30 5433 N 531.934 4.35569 -5.3875 0
M  V30 5434 N 533.727 3.66775 -4.25949 0
M  V30 5435 H 525.878 0.463294 -2.07286 0
M  V30 5436 H 528.141 0.267348 -0.909521 0
M  V30 5437 H 527.847 1.54524 -3.15935 0
M  V30 5438 H 527.721 3.0347 -2.24021 0
M  V30 5439 H 530.108 2.63248 -1.33359 0
M  V30 5440 H 530.189 1.14453 -2.28767 0
M  V30 5441 H 529.833 2.51435 -4.41297 0
M  V30 5442 H 529.763 3.99729 -3.42818 0
M  V30 5443 H 532.254 2.58941 -2.75242 0
M  V30 5444 H 532.567 4.82251 -6.03866 0
M  V30 5445 H 530.912 4.34244 -5.42639 0
M  V30 5446 H 534.103 3.14558 -3.46657 0
M  V30 5447 H 534.276 4.16407 -4.96497 0
M  V30 5448 N 527.682 1.05563 1.17022 0
M  V30 5449 C 528.928 0.769074 1.87652 0
M  V30 5450 C 529.261 -0.702326 1.81055 0
M  V30 5451 O 528.536 -1.5139 1.22112 0
M  V30 5452 C 528.819 1.25492 3.37526 0
M  V30 5453 C 528.672 2.78953 3.52853 0
M  V30 5454 C 529.991 0.856919 4.31677 0
M  V30 5455 H 527.11 0.280854 0.681388 0
M  V30 5456 H 529.752 1.31027 1.37593 0
M  V30 5457 H 527.902 0.794516 3.80289 0
M  V30 5458 H 529.574 3.33146 3.19079 0
M  V30 5459 H 527.817 3.18046 2.95007 0
M  V30 5460 H 528.488 3.08011 4.58076 0
M  V30 5461 H 530.964 1.25334 3.96775 0
M  V30 5462 H 529.84 1.22443 5.35069 0
M  V30 5463 H 530.101 -0.238787 4.41455 0
M  V30 5464 N 529.16 -1.33526 0.837174 0
M  V30 5465 C 530.407 -1.97837 0.432064 0
M  V30 5466 C 530.735 -1.66324 -1.00829 0
M  V30 5467 O 529.99 -0.93448 -1.71948 0
M  V30 5468 C 530.289 -3.52367 0.597675 0
M  V30 5469 C 529.955 -4.03826 2.00587 0
M  V30 5470 C 528.617 -4.1759 2.39106 0
M  V30 5471 C 530.969 -4.31333 2.92576 0
M  V30 5472 C 528.297 -4.56195 3.68921 0
M  V30 5473 C 530.649 -4.7139 4.2187 0
M  V30 5474 C 529.313 -4.8336 4.60347 0
M  V30 5475 H 528.583 -0.723937 0.158104 0
M  V30 5476 H 531.23 -1.5923 1.06387 0
M  V30 5477 H 529.535 -3.91624 -0.117452 0
M  V30 5478 H 531.232 -4.00126 0.26454 0
M  V30 5479 H 527.822 -3.93586 1.69671 0
M  V30 5480 H 532.006 -4.20224 2.64056 0
M  V30 5481 H 527.262 -4.63655 3.9854 0
M  V30 5482 H 531.436 -4.91631 4.93226 0
M  V30 5483 H 529.063 -5.1303 5.60985 0
M  V30 5484 N 530.638 -0.59345 -1.46 0
M  V30 5485 C 531.548 0.135817 -2.34207 0
M  V30 5486 C 532.564 0.875008 -1.50398 0
M  V30 5487 O 533.74 0.835778 -1.83239 0
M  V30 5488 C 530.805 1.12977 -3.27776 0
M  V30 5489 C 529.866 0.394081 -4.27487 0
M  V30 5490 C 529.099 1.34068 -5.16586 0
M  V30 5491 O 529.322 2.5778 -5.08828 0
M  V30 5492 O 528.256 0.845426 -5.95933 0
M  V30 5493 H 532.082 -0.588691 -2.9794 0
M  V30 5494 H 529.667 -0.353784 -1.45151 0
M  V30 5495 H 531.549 1.70261 -3.85473 0
M  V30 5496 H 530.224 1.83556 -2.66625 0
M  V30 5497 H 529.131 -0.220869 -3.73447 0
M  V30 5498 H 530.464 -0.270939 -4.91454 0
M  V30 5499 N 532.116 1.54067 -0.331816 0
M  V30 5500 C 533.026 2.28322 0.539104 0
M  V30 5501 C 534.042 1.32985 1.1221 0
M  V30 5502 O 535.218 1.6601 1.1403 0
M  V30 5503 C 532.283 3.03277 1.68 0
M  V30 5504 C 531.344 4.14216 1.12798 0
M  V30 5505 C 530.577 4.85588 2.2145 0
M  V30 5506 O 530.8 4.56536 3.41952 0
M  V30 5507 O 529.734 5.72309 1.86404 0
M  V30 5508 H 533.56 3.03632 -0.0641692 0
M  V30 5509 H 531.145 1.49083 -0.0972365 0
M  V30 5510 H 533.027 3.50189 2.34405 0
M  V30 5511 H 531.702 2.30834 2.2693 0
M  V30 5512 H 530.609 3.71635 0.428782 0
M  V30 5513 H 531.942 4.88727 0.583698 0
M  V30 5514 N 533.594 0.0601682 1.57485 0
M  V30 5515 C 534.841 -0.611594 1.93043 0
M  V30 5516 C 535.169 -1.70317 0.939274 0
M  V30 5517 O 534.424 -1.95644 -0.046996 0
M  V30 5518 C 534.723 -1.23831 3.35262 0
M  V30 5519 C 534.389 -0.274037 4.50066 0
M  V30 5520 C 533.051 -0.00872394 4.81199 0
M  V30 5521 C 535.403 0.386308 5.19766 0
M  V30 5522 C 532.731 0.924218 5.79375 0
M  V30 5523 C 535.083 1.3075 6.1894 0
M  V30 5524 C 533.747 1.58139 6.48497 0
M  V30 5525 H 533.017 -0.223798 0.706396 0
M  V30 5526 H 535.664 0.128566 1.91068 0
M  V30 5527 H 533.969 -2.05394 3.33647 0
M  V30 5528 H 535.666 -1.76517 3.60059 0
M  V30 5529 H 532.256 -0.491008 4.25778 0
M  V30 5530 H 536.44 0.194436 4.95919 0
M  V30 5531 H 531.696 1.1438 6.00606 0
M  V30 5532 H 535.87 1.82519 6.72056 0
M  V30 5533 H 533.497 2.30593 7.24383 0
M  V30 5534 N 535.072 -1.5615 -0.213296 0
M  V30 5535 C 536.318 -1.79812 -0.937849 0
M  V30 5536 C 536.651 -0.631201 -1.83656 0
M  V30 5537 O 535.926 0.369165 -1.90964 0
M  V30 5538 C 536.209 -3.13613 -1.76972 0
M  V30 5539 C 536.062 -4.40766 -0.89695 0
M  V30 5540 C 537.381 -3.43931 -2.7459 0
M  V30 5541 H 534.5 -0.654138 -0.339518 0
M  V30 5542 H 537.142 -1.88877 -0.20623 0
M  V30 5543 H 535.292 -3.06015 -2.39347 0
M  V30 5544 H 536.964 -4.60392 -0.289306 0
M  V30 5545 H 535.207 -4.33326 -0.202756 0
M  V30 5546 H 535.878 -5.30843 -1.51358 0
M  V30 5547 H 538.354 -3.5171 -2.22349 0
M  V30 5548 H 537.23 -4.38706 -3.29891 0
M  V30 5549 H 537.491 -2.6651 -3.52739 0
M  V30 5550 N 536.55 0.480323 -1.50102 0
M  V30 5551 C 537.482 1.59669 -1.64433 0
M  V30 5552 C 538.495 1.54063 -0.52615 0
M  V30 5553 O 539.684 1.59619 -0.798992 0
M  V30 5554 C 536.784 2.98527 -1.6042 0
M  V30 5555 C 535.957 3.291 -2.88117 0
M  V30 5556 C 535.016 4.47468 -2.76873 0
M  V30 5557 O 534.042 4.4823 -3.50825 0
M  V30 5558 N 535.244 5.48593 -1.89806 0
M  V30 5559 H 538.009 1.47795 -2.60723 0
M  V30 5560 H 535.57 0.66858 -1.4745 0
M  V30 5561 H 537.562 3.75666 -1.50523 0
M  V30 5562 H 536.132 3.04218 -0.719036 0
M  V30 5563 H 535.352 2.40662 -3.12211 0
M  V30 5564 H 536.64 3.46334 -3.72734 0
M  V30 5565 H 536.038 5.50791 -1.2902 0
M  V30 5566 H 534.595 6.24752 -1.85819 0
M  V30 5567 N 538.028 1.39524 0.732853 0
M  V30 5568 C 539.276 1.36594 1.48951 0
M  V30 5569 C 539.597 -0.0367507 1.94965 0
M  V30 5570 O 538.867 -0.988391 1.69138 0
M  V30 5571 H 537.447 0.502673 0.552566 0
M  V30 5572 H 540.109 1.74411 0.869869 0
M  V30 5573 H 539.205 2.03 2.3706 0
M  V30 5574 N 539.506 -0.963266 1.24736 0
M  V30 5575 C 540.783 -1.68248 0.9976 0
M  V30 5576 C 541.163 -2.05599 -0.478776 0
M  V30 5577 O 540.511 -1.7626 -1.45412 0
M  V30 5578 C 540.721 -2.91118 1.92487 0
M  V30 5579 C 542.069 -3.63261 2.19833 0
M  V30 5580 O 543.093 -3.01184 1.90176 0
M  V30 5581 O 541.952 -4.75019 2.7022 0
M  V30 5582 H 539.046 -0.735744 0.377637 0
M  V30 5583 H 541.592 -1.01696 1.35853 0
M  V30 5584 H 540.364 -2.60242 2.92215 0
M  V30 5585 H 539.987 -3.65402 1.56738 0
M  V30 5586 N 540.985 -1.06182 -1.16461 0
M  V30 5587 C 541.895 -0.682671 -2.24448 0
M  V30 5588 C 542.911 0.30078 -1.71381 0
M  V30 5589 O 544.087 0.150376 -2.00838 0
M  V30 5590 C 541.152 -0.0737202 -3.46622 0
M  V30 5591 C 540.213 -1.10889 -4.14731 0
M  V30 5592 C 539.446 -0.528908 -5.31073 0
M  V30 5593 O 539.669 0.65868 -5.66584 0
M  V30 5594 O 538.603 -1.26805 -5.88391 0
M  V30 5595 H 542.429 -1.58291 -2.59187 0
M  V30 5596 H 540.014 -0.834013 -1.23954 0
M  V30 5597 H 541.896 0.264192 -4.20571 0
M  V30 5598 H 540.571 0.800015 -3.13658 0
M  V30 5599 H 539.478 -1.49896 -3.42756 0
M  V30 5600 H 540.811 -1.95412 -4.51747 0
M  V30 5601 N 542.463 1.3308 -0.844243 0
M  V30 5602 C 543.373 2.32876 -0.283922 0
M  V30 5603 C 544.389 1.63589 0.592846 0
M  V30 5604 O 545.565 1.95205 0.495693 0
M  V30 5605 C 542.63 3.42667 0.527283 0
M  V30 5606 C 541.691 4.27664 -0.374394 0
M  V30 5607 C 540.924 5.32212 0.39819 0
M  V30 5608 O 541.147 5.46635 1.62932 0
M  V30 5609 O 540.081 6.01458 -0.2306 0
M  V30 5610 H 543.907 2.82671 -1.11045 0
M  V30 5611 H 541.492 1.36518 -0.606903 0
M  V30 5612 H 543.374 4.09652 0.988078 0
M  V30 5613 H 542.049 2.95079 1.33078 0
M  V30 5614 H 540.956 3.63526 -0.883144 0
M  V30 5615 H 542.289 4.78749 -1.1428 0
M  V30 5616 N 543.941 0.601185 1.45683 0
M  V30 5617 C 545.187 0.0940202 2.02582 0
M  V30 5618 C 545.52 -1.26972 1.46941 0
M  V30 5619 O 544.795 -1.83613 0.641612 0
M  V30 5620 C 545.078 0.0481715 3.60068 0
M  V30 5621 C 544.931 1.44212 4.26055 0
M  V30 5622 C 546.25 -0.642975 4.35378 0
M  V30 5623 H 543.369 0.0356404 0.736138 0
M  V30 5624 H 546.011 0.771929 1.73612 0
M  V30 5625 H 544.161 -0.529128 3.8488 0
M  V30 5626 H 545.833 2.06601 4.12449 0
M  V30 5627 H 544.076 2.00465 3.84703 0
M  V30 5628 H 544.747 1.36234 5.34925 0
M  V30 5629 H 547.223 -0.152351 4.15821 0
M  V30 5630 H 546.099 -0.644141 5.45107 0
M  V30 5631 H 546.36 -1.70785 4.0778 0
M  V30 5632 N 545.419 -1.53889 0.339982 0
M  V30 5633 C 546.349 -2.27843 -0.510856 0
M  V30 5634 C 547.33 -1.29267 -1.10563 0
M  V30 5635 O 548.515 -1.58104 -1.12768 0
M  V30 5636 C 545.645 -3.04857 -1.66372 0
M  V30 5637 C 544.599 -4.10907 -1.19746 0
M  V30 5638 C 543.925 -4.75855 -2.43857 0
M  V30 5639 C 545.225 -5.21435 -0.300501 0
M  V30 5640 H 546.919 -2.99212 0.106067 0
M  V30 5641 H 544.465 -1.43904 0.0524533 0
M  V30 5642 H 546.418 -3.5533 -2.26537 0
M  V30 5643 H 545.142 -2.31133 -2.30749 0
M  V30 5644 H 543.801 -3.61342 -0.618654 0
M  V30 5645 H 543.449 -3.9873 -3.06633 0
M  V30 5646 H 543.149 -5.47502 -2.13343 0
M  V30 5647 H 544.673 -5.2911 -3.04754 0
M  V30 5648 H 546.087 -5.67565 -0.80889 0
M  V30 5649 H 544.484 -6.00036 -0.0874076 0
M  V30 5650 H 545.554 -4.80328 0.664321 0
M  V30 5651 N 546.897 -0.0685191 -1.57451 0
M  V30 5652 C 548.313 0.288101 -1.56978 0
M  V30 5653 C 548.513 1.70262 -1.07765 0
M  V30 5654 O 547.569 2.4135 -0.742054 0
M  V30 5655 C 548.882 0.100745 -3.00531 0
M  V30 5656 C 550.43 0.170531 -3.12535 0
M  V30 5657 C 550.905 0.0114944 -4.57999 0
M  V30 5658 N 552.396 0.0672065 -4.63151 0
M  V30 5659 C 553.131 -0.0314813 -5.73391 0
M  V30 5660 N 552.627 -0.183503 -6.92557 0
M  V30 5661 N 554.42 0.0253489 -5.62094 0
M  V30 5662 H 546.571 -0.993026 -1.87757 0
M  V30 5663 H 548.834 -0.386981 -0.865419 0
M  V30 5664 H 548.54 -0.875197 -3.40636 0
M  V30 5665 H 548.414 0.854457 -3.67395 0
M  V30 5666 H 550.801 1.13696 -2.72318 0
M  V30 5667 H 550.882 -0.614229 -2.48316 0
M  V30 5668 H 550.526 -0.951684 -4.98904 0
M  V30 5669 H 550.456 0.815617 -5.20245 0
M  V30 5670 H 552.947 0.183246 -3.77455 0
M  V30 5671 H 553.26 -0.251041 -7.72392 0
M  V30 5672 H 551.605 -0.218822 -6.94655 0
M  V30 5673 H 554.796 0.142794 -4.67882 0
M  V30 5674 H 554.969 -0.0550166 -6.47977 0
M  V30 5675 N 548.375 1.56261 0.205012 0
M  V30 5676 C 549.791 1.49623 0.555433 0
M  V30 5677 C 549.991 0.766719 1.86343 0
M  V30 5678 O 549.047 0.313158 2.50551 0
M  V30 5679 C 550.36 2.94253 0.619347 0
M  V30 5680 C 551.908 3.04868 0.708855 0
M  V30 5681 C 552.383 4.50888 0.803969 0
M  V30 5682 N 553.874 4.54999 0.867758 0
M  V30 5683 C 554.609 5.65284 0.96135 0
M  V30 5684 N 554.105 6.85282 1.01786 0
M  V30 5685 N 555.898 5.53174 0.997771 0
M  V30 5686 H 548.049 2.0211 -0.653094 0
M  V30 5687 H 550.312 0.919333 -0.231366 0
M  V30 5688 H 550.018 3.50643 -0.272458 0
M  V30 5689 H 549.892 3.47063 1.47741 0
M  V30 5690 H 552.279 2.48532 1.5911 0
M  V30 5691 H 552.36 2.55199 -0.175205 0
M  V30 5692 H 552.004 5.07846 -0.0738798 0
M  V30 5693 H 551.934 4.98279 1.70369 0
M  V30 5694 H 554.425 3.68588 0.833735 0
M  V30 5695 H 554.738 7.65081 1.08951 0
M  V30 5696 H 553.083 6.8796 0.986706 0
M  V30 5697 H 556.274 4.5835 0.950392 0
M  V30 5698 H 556.447 6.39151 1.06725 0
M  V30 5699 N 549.853 -0.472356 1.50355 0
M  V30 5700 C 551.083 -1.24603 1.64796 0
M  V30 5701 C 551.491 -1.86297 0.330156 0
M  V30 5702 O 550.834 -1.69934 -0.697728 0
M  V30 5703 C 550.896 -2.39578 2.68035 0
M  V30 5704 C 550.56 -1.98531 4.11624 0
M  V30 5705 C 551.557 -1.50856 4.97532 0
M  V30 5706 C 549.242 -2.0729 4.57532 0
M  V30 5707 C 551.236 -1.12481 6.27397 0
M  V30 5708 C 548.923 -1.68527 5.87403 0
M  V30 5709 C 549.921 -1.212 6.7216 0
M  V30 5710 O 549.609 -0.829728 7.99607 0
M  V30 5711 H 549.341 -0.383035 0.55701 0
M  V30 5712 H 551.895 -0.570392 1.97321 0
M  V30 5713 H 550.125 -3.10309 2.30749 0
M  V30 5714 H 551.814 -3.01544 2.71709 0
M  V30 5715 H 552.58 -1.43511 4.63281 0
M  V30 5716 H 548.459 -2.43076 3.91708 0
M  V30 5717 H 552.003 -0.754698 6.93506 0
M  V30 5718 H 547.9 -1.7553 6.21176 0
M  V30 5719 H 548.668 -0.958689 8.12866 0
M  V30 5720 N 551.331 -1.39911 -0.725443 0
M  V30 5721 C 552.261 -1.42138 -1.85254 0
M  V30 5722 C 553.242 -0.283513 -1.67721 0
M  V30 5723 O 554.427 -0.490717 -1.87898 0
M  V30 5724 C 551.557 -1.27354 -3.23107 0
M  V30 5725 C 550.511 -2.3864 -3.55296 0
M  V30 5726 C 549.837 -2.08939 -4.92188 0
M  V30 5727 C 551.137 -3.8097 -3.57295 0
M  V30 5728 H 552.831 -2.36461 -1.83648 0
M  V30 5729 H 550.377 -1.13817 -0.882138 0
M  V30 5730 H 552.33 -1.2753 -4.01639 0
M  V30 5731 H 551.054 -0.295025 -3.25265 0
M  V30 5732 H 549.713 -2.37696 -2.79099 0
M  V30 5733 H 549.361 -1.09502 -4.90936 0
M  V30 5734 H 549.061 -2.83491 -5.14691 0
M  V30 5735 H 550.585 -2.10781 -5.73065 0
M  V30 5736 H 551.999 -3.8379 -4.25885 0
M  V30 5737 H 550.396 -4.5496 -3.9132 0
M  V30 5738 H 551.466 -4.11261 -2.5689 0
M  V30 5739 N 552.809 0.956637 -1.25245 0
M  V30 5740 C 553.757 2.0743 -1.0524 0
M  V30 5741 C 554.751 1.69392 0.0160725 0
M  V30 5742 O 555.957 1.7946 -0.139382 0
M  V30 5743 H 552.332 0.678921 -0.323373 0
M  V30 5744 H 554.303 2.2146 -1.99995 0
M  V30 5745 C 553.052 3.40872 -0.685702 0
M  V30 5746 H 552.375 3.70607 -1.49968 0
M  V30 5747 H 553.815 4.19939 -0.585415 0
M  V30 5748 C 552.274 3.31367 0.608082 0
M  V30 5749 O 552.804 3.66214 1.65076 0
M  V30 5750 N 551.01 2.84486 0.592955 0
M  V30 5751 H 550.557 2.56326 -0.25592 0
M  V30 5752 H 550.515 2.78509 1.45877 0
M  V30 5753 N 554.287 1.06798 1.15896 0
M  V30 5754 C 555.703 0.792423 1.38538 0
M  V30 5755 C 555.903 -0.60592 1.92174 0
M  V30 5756 O 554.959 -1.36561 2.12385 0
M  V30 5757 C 556.272 1.86157 2.36149 0
M  V30 5758 C 557.82 1.88567 2.49823 0
M  V30 5759 C 558.295 2.9455 3.5072 0
M  V30 5760 N 559.786 2.93616 3.58251 0
M  V30 5761 C 560.521 3.72267 4.36125 0
M  V30 5762 N 560.017 4.60751 5.17379 0
M  V30 5763 N 561.81 3.60637 4.31158 0
M  V30 5764 H 553.961 1.96993 0.794198 0
M  V30 5765 H 556.224 0.853942 0.411688 0
M  V30 5766 H 555.93 2.86603 2.03843 0
M  V30 5767 H 555.804 1.71692 3.3586 0
M  V30 5768 H 558.191 0.887765 2.8143 0
M  V30 5769 H 558.272 2.0711 1.5013 0
M  V30 5770 H 557.916 3.94537 3.19849 0
M  V30 5771 H 557.846 2.73255 4.50155 0
M  V30 5772 H 560.337 2.29472 3.00252 0
M  V30 5773 H 560.65 5.17408 5.74028 0
M  V30 5774 H 558.995 4.64803 5.16704 0
M  V30 5775 H 562.186 2.90892 3.66742 0
M  V30 5776 H 562.359 4.22176 4.91601 0
M  V30 5777 N 555.766 -1.3263 0.851289 0
M  V30 5778 C 556.696 -2.31449 0.308771 0
M  V30 5779 C 557.677 -1.59531 -0.590255 0
M  V30 5780 O 558.862 -1.87351 -0.511205 0
M  V30 5781 C 555.992 -3.43586 -0.506548 0
M  V30 5782 C 554.946 -4.26963 0.297753 0
M  V30 5783 C 554.272 -5.30831 -0.642094 0
M  V30 5784 C 555.572 -4.99643 1.52166 0
M  V30 5785 H 557.266 -2.77074 1.13447 0
M  V30 5786 H 554.812 -1.33207 0.546971 0
M  V30 5787 H 556.765 -4.11754 -0.896474 0
M  V30 5788 H 555.489 -2.96681 -1.36558 0
M  V30 5789 H 554.148 -3.60437 0.669391 0
M  V30 5790 H 553.796 -4.8018 -1.49788 0
M  V30 5791 H 553.496 -5.87501 -0.107968 0
M  V30 5792 H 555.02 -6.01862 -1.02927 0
M  V30 5793 H 556.434 -5.6051 1.20421 0
M  V30 5794 H 554.831 -5.66022 1.99347 0
M  V30 5795 H 555.901 -4.27701 2.28474 0
M  V30 5796 N 557.244 -0.608902 -1.45362 0
M  V30 5797 C 558.176 0.147318 -2.28726 0
M  V30 5798 C 559.189 0.830468 -1.40025 0
M  V30 5799 O 560.378 0.695636 -1.64387 0
M  V30 5800 C 557.478 1.22968 -3.15804 0
M  V30 5801 C 556.651 0.633391 -4.3279 0
M  V30 5802 C 555.71 1.60682 -5.01067 0
M  V30 5803 O 554.736 1.13261 -5.57818 0
M  V30 5804 N 555.938 2.94123 -5.00472 0
M  V30 5805 H 558.703 -0.568014 -2.94268 0
M  V30 5806 H 556.264 -0.448479 -1.55564 0
M  V30 5807 H 558.256 1.88072 -3.58345 0
M  V30 5808 H 556.826 1.84752 -2.52162 0
M  V30 5809 H 556.046 -0.195762 -3.93714 0
M  V30 5810 H 557.334 0.215255 -5.08344 0
M  V30 5811 H 556.732 3.3525 -4.55657 0
M  V30 5812 H 555.289 3.54646 -5.46872 0
M  V30 5813 N 558.722 1.53707 -0.348139 0
M  V30 5814 C 559.654 2.22725 0.540946 0
M  V30 5815 C 560.667 1.2354 1.06027 0
M  V30 5816 O 561.856 1.49867 0.96964 0
M  V30 5817 C 558.956 2.89756 1.75768 0
M  V30 5818 C 558.129 4.15297 1.37285 0
M  V30 5819 C 557.188 4.65697 2.44976 0
M  V30 5820 O 556.214 5.29798 2.08092 0
M  V30 5821 N 557.416 4.42017 3.763 0
M  V30 5822 H 560.181 2.99658 -0.0501592 0
M  V30 5823 H 557.742 1.60979 -0.17248 0
M  V30 5824 H 559.734 3.20388 2.47252 0
M  V30 5825 H 558.304 2.16382 2.25605 0
M  V30 5826 H 557.524 3.9116 0.488584 0
M  V30 5827 H 558.812 4.96948 1.09179 0
M  V30 5828 H 558.21 3.9076 4.09051 0
M  V30 5829 H 556.767 4.77242 4.4394 0
M  V30 5830 N 560.2 0.0768682 1.57412 0
M  V30 5831 C 561.449 -0.590679 1.92857 0
M  V30 5832 C 561.762 -1.70461 0.959293 0
M  V30 5833 O 562.968 -2.43207 1.20675 0
M  V30 5834 C 561.424 -1.10204 3.42612 0
M  V30 5835 C 561.032 -0.0188447 4.47996 0
M  V30 5836 C 562.776 -1.74336 3.87049 0
M  V30 5837 C 560.683 -0.544536 5.88888 0
M  V30 5838 H 559.613 -0.224411 0.71983 0
M  V30 5839 H 562.264 0.149924 1.82887 0
M  V30 5840 H 560.646 -1.89577 3.47673 0
M  V30 5841 H 561.82 0.755936 4.54557 0
M  V30 5842 H 560.135 0.526555 4.13057 0
M  V30 5843 H 562.732 -2.14708 4.89699 0
M  V30 5844 H 563.075 -2.60537 3.24694 0
M  V30 5845 H 563.608 -1.01577 3.84613 0
M  V30 5846 H 560.347 0.280426 6.549 0
M  V30 5847 H 559.867 -1.28673 5.85836 0
M  V30 5848 H 561.546 -1.01933 6.3892 0
M  V30 5849 N 561.678 -1.56367 -0.196722 0
M  V30 5850 C 563.094 -1.49916 -0.54749 0
M  V30 5851 C 563.294 -0.77659 -1.85934 0
M  V30 5852 O 562.35 -0.32644 -2.50381 0
M  V30 5853 C 563.663 -2.94577 -0.603734 0
M  V30 5854 C 565.211 -3.05239 -0.692677 0
M  V30 5855 C 565.686 -4.51308 -0.780046 0
M  V30 5856 N 567.177 -4.55453 -0.843616 0
M  V30 5857 C 567.912 -5.65786 -0.931358 0
M  V30 5858 N 567.408 -6.85812 -0.981503 0
M  V30 5859 N 569.201 -5.53695 -0.968421 0
M  V30 5860 H 561.352 -2.01761 0.663803 0
M  V30 5861 H 563.615 -0.918094 0.236238 0
M  V30 5862 H 563.321 -3.50494 0.29105 0
M  V30 5863 H 563.195 -3.47841 -1.45898 0
M  V30 5864 H 565.582 -2.49372 -1.57789 0
M  V30 5865 H 565.663 -2.55103 0.188736 0
M  V30 5866 H 565.307 -5.078 0.100811 0
M  V30 5867 H 565.237 -4.99176 -1.67724 0
M  V30 5868 H 567.728 -3.69025 -0.814176 0
M  V30 5869 H 568.041 -7.65648 -1.04892 0
M  V30 5870 H 566.386 -6.88474 -0.950208 0
M  V30 5871 H 569.577 -4.58848 -0.926072 0
M  V30 5872 H 569.75 -6.39708 -1.03334 0
M  V30 5873 N 563.156 0.464375 -1.50603 0
M  V30 5874 C 564.433 1.22549 -1.5245 0
M  V30 5875 C 564.813 2.09327 -0.273035 0
M  V30 5876 O 564.161 2.16074 0.743242 0
M  V30 5877 C 564.371 2.05074 -2.82393 0
M  V30 5878 C 565.719 2.63036 -3.33313 0
M  V30 5879 O 566.743 2.1531 -2.8376 0
M  V30 5880 O 565.602 3.5001 -4.19709 0
M  V30 5881 H 562.696 0.556471 -0.611775 0
M  V30 5882 H 565.242 0.475648 -1.62898 0
M  V30 5883 H 564.014 1.41169 -3.64948 0
M  V30 5884 H 563.637 2.87179 -2.7498 0
M  V30 5885 N 564.634 1.40294 0.718013 0
M  V30 5886 C 565.862 1.4175 1.50714 0
M  V30 5887 C 566.277 0.0165366 1.88793 0
M  V30 5888 O 565.634 -0.958942 1.55276 0
M  V30 5889 C 565.685 2.30598 2.784 0
M  V30 5890 O 565.406 3.6524 2.41932 0
M  V30 5891 C 566.907 2.4062 3.72313 0
M  V30 5892 H 564.127 0.483565 0.465194 0
M  V30 5893 H 566.671 1.84316 0.885889 0
M  V30 5894 H 564.826 1.91401 3.36815 0
M  V30 5895 H 565.24 4.12402 3.24076 0
M  V30 5896 H 566.714 3.07001 4.58753 0
M  V30 5897 H 567.191 1.4305 4.15251 0
M  V30 5898 H 567.797 2.80359 3.19811 0
M  V30 5899 N 566.112 -0.949982 1.2575 0
M  V30 5900 C 567.042 -2.06483 1.09028 0
M  V30 5901 C 568.023 -1.701 -0.00201532 0
M  V30 5902 O 569.208 -1.93469 0.168383 0
M  V30 5903 C 566.338 -3.39899 0.71316 0
M  V30 5904 C 565.292 -3.90309 1.75621 0
M  V30 5905 C 564.618 -5.20274 1.23365 0
M  V30 5906 C 565.918 -4.16169 3.15596 0
M  V30 5907 H 567.612 -2.20731 2.02283 0
M  V30 5908 H 565.158 -1.06066 0.973964 0
M  V30 5909 H 567.111 -4.17346 0.58309 0
M  V30 5910 H 565.835 -3.25602 -0.255091 0
M  V30 5911 H 564.494 -3.15035 1.8748 0
M  V30 5912 H 564.142 -5.02351 0.255491 0
M  V30 5913 H 563.842 -5.54971 1.93082 0
M  V30 5914 H 565.366 -6.00314 1.11607 0
M  V30 5915 H 566.78 -4.84259 3.06864 0
M  V30 5916 H 565.177 -4.62131 3.82825 0
M  V30 5917 H 566.247 -3.22273 3.6231 0
M  V30 5918 N 567.59 -1.07411 -1.15328 0
M  V30 5919 C 568.5 -0.706438 -2.23711 0
M  V30 5920 C 569.516 0.282586 -1.7169 0
M  V30 5921 O 570.692 0.129066 -2.00986 0
M  V30 5922 C 567.757 -0.11048 -3.46524 0
M  V30 5923 C 566.818 -1.15282 -4.13532 0
M  V30 5924 C 566.051 -0.585205 -5.30482 0
M  V30 5925 O 566.274 0.598549 -5.67251 0
M  V30 5926 O 565.208 -1.33039 -5.87013 0
M  V30 5927 H 569.034 -1.61031 -2.57493 0
M  V30 5928 H 566.619 -0.847113 -1.23062 0
M  V30 5929 H 568.501 0.21957 -4.20828 0
M  V30 5930 H 567.176 0.766703 -3.14489 0
M  V30 5931 H 566.083 -1.53523 -3.41147 0
M  V30 5932 H 567.416 -2.00192 -4.49649 0
M  V30 5933 N 569.068 1.32177 -0.85831 0
M  V30 5934 C 570.314 1.97417 -0.46417 0
M  V30 5935 C 570.647 1.67746 0.978514 0
M  V30 5936 O 569.922 0.967654 1.68721 0
M  V30 5937 C 570.205 3.53069 -0.708094 0
M  V30 5938 C 570.058 3.92357 -2.19946 0
M  V30 5939 C 571.377 4.39783 -0.166881 0
M  V30 5940 H 568.496 0.717097 -0.17012 0
M  V30 5941 H 571.138 1.56499 -1.07741 0
M  V30 5942 H 569.288 3.88054 -0.186128 0
M  V30 5943 H 570.96 3.67533 -2.78779 0
M  V30 5944 H 569.203 3.41384 -2.67656 0
M  V30 5945 H 569.874 5.00841 -2.32082 0
M  V30 5946 H 572.35 4.11556 -0.613285 0
M  V30 5947 H 571.226 5.47671 -0.367093 0
M  V30 5948 H 571.487 4.32196 0.930559 0
M  V30 5949 N 570.547 0.616602 1.45037 0
M  V30 5950 C 571.772 0.120192 2.07051 0
M  V30 5951 C 572.197 -1.19008 1.45666 0
M  V30 5952 O 571.555 -1.7267 0.552692 0
M  V30 5953 C 571.603 0.00354901 3.606 0
M  V30 5954 O 570.707 -1.04431 3.98958 0
M  V30 5955 H 570.048 0.0781599 0.659384 0
M  V30 5956 H 572.578 0.849167 1.86146 0
M  V30 5957 H 572.588 -0.191754 4.07549 0
M  V30 5958 H 571.263 0.960239 4.04663 0
M  V30 5959 H 569.84 -0.824749 3.63665 0
M  V30 5960 N 572.025 -1.5352 0.356285 0
M  V30 5961 C 572.935 -2.29151 -0.502712 0
M  V30 5962 C 573.951 -1.34753 -1.1008 0
M  V30 5963 O 575.127 -1.67803 -1.11374 0
M  V30 5964 C 572.192 -3.05911 -1.63154 0
M  V30 5965 C 571.253 -4.15958 -1.06194 0
M  V30 5966 C 570.486 -4.8905 -2.13696 0
M  V30 5967 O 570.709 -4.61919 -3.34645 0
M  V30 5968 O 569.643 -5.75202 -1.77275 0
M  V30 5969 H 573.469 -3.03492 0.112466 0
M  V30 5970 H 571.054 -1.4891 0.120942 0
M  V30 5971 H 572.936 -3.53874 -2.28804 0
M  V30 5972 H 571.611 -2.34415 -2.23229 0
M  V30 5973 H 570.518 -3.7227 -0.369603 0
M  V30 5974 H 571.851 -4.89593 -0.505872 0
M  V30 5975 N 573.503 -0.0852151 -1.57369 0
M  V30 5976 C 574.75 0.580806 -1.93992 0
M  V30 5977 C 575.078 1.68801 -0.966252 0
M  V30 5978 O 574.333 1.95694 0.0158649 0
M  V30 5979 C 574.632 1.18482 -3.3719 0
M  V30 5980 C 574.298 0.2024 -4.50446 0
M  V30 5981 C 572.96 -0.0678318 -4.81152 0
M  V30 5982 C 575.312 -0.46895 -5.19086 0
M  V30 5983 C 572.64 -1.01627 -5.77831 0
M  V30 5984 C 574.992 -1.4058 -6.16782 0
M  V30 5985 C 573.656 -1.68436 -6.45899 0
M  V30 5986 H 572.926 0.212532 -0.709867 0
M  V30 5987 H 575.573 -0.158947 -1.90839 0
M  V30 5988 H 573.878 2.0006 -3.36873 0
M  V30 5989 H 575.575 1.70767 -3.62822 0
M  V30 5990 H 572.165 0.423208 -4.26505 0
M  V30 5991 H 576.349 -0.273307 -4.95547 0
M  V30 5992 H 571.605 -1.2392 -5.9871 0
M  V30 5993 H 575.779 -1.93188 -6.69068 0
M  V30 5994 H 573.406 -2.42088 -7.20623 0
M  V30 5995 N 574.981 1.5647 0.188427 0
M  V30 5996 C 576.228 1.81013 0.907779 0
M  V30 5997 C 576.556 0.65953 1.82977 0
M  V30 5998 O 575.811 -0.354308 1.92466 0
M  V30 5999 C 576.11 3.11596 1.7505 0
M  V30 6000 C 575.776 4.40145 0.978922 0
M  V30 6001 C 574.438 4.75066 0.765912 0
M  V30 6002 C 576.79 5.19369 0.436498 0
M  V30 6003 C 574.118 5.867 -0.00089868 0
M  V30 6004 C 576.47 6.31805 -0.317136 0
M  V30 6005 C 575.134 6.65303 -0.541103 0
M  V30 6006 H 574.404 0.662373 0.33218 0
M  V30 6007 H 577.051 1.9071 0.173732 0
M  V30 6008 H 575.356 2.97165 2.55343 0
M  V30 6009 H 577.053 3.27793 2.30983 0
M  V30 6010 H 573.643 4.12745 1.15497 0
M  V30 6011 H 577.827 4.92799 0.588449 0
M  V30 6012 H 573.083 6.11122 -0.184329 0
M  V30 6013 H 577.257 6.92406 -0.744788 0
M  V30 6014 H 574.884 7.51646 -1.13718 0
M  V30 6015 N 576.459 -0.456382 1.50847 0
M  V30 6016 C 577.875 -0.791345 1.386 0
M  V30 6017 C 578.075 -1.9633 0.453498 0
M  V30 6018 O 577.131 -2.52308 -0.0984353 0
M  V30 6019 C 578.444 -1.08959 2.80265 0
M  V30 6020 C 579.992 -1.19517 2.89283 0
M  V30 6021 C 580.467 -1.52647 4.31814 0
M  V30 6022 N 581.958 -1.59609 4.34832 0
M  V30 6023 C 582.693 -1.86777 5.42127 0
M  V30 6024 N 582.189 -2.11866 6.59609 0
M  V30 6025 N 583.982 -1.88402 5.29586 0
M  V30 6026 H 576.133 0.315746 2.1004 0
M  V30 6027 H 578.396 0.0787916 0.94472 0
M  V30 6028 H 578.102 -0.301355 3.50407 0
M  V30 6029 H 577.976 -2.02211 3.18419 0
M  V30 6030 H 580.363 -1.97406 2.19351 0
M  V30 6031 H 580.444 -0.242111 2.54652 0
M  V30 6032 H 580.088 -0.752922 5.02288 0
M  V30 6033 H 580.018 -2.49127 4.63943 0
M  V30 6034 H 582.509 -1.42201 3.50125 0
M  V30 6035 H 582.822 -2.31912 7.37182 0
M  V30 6036 H 581.167 -2.09228 6.62758 0
M  V30 6037 H 584.358 -1.68307 4.36795 0
M  V30 6038 H 584.531 -2.09238 6.13289 0
M  V30 6039 N 577.937 -1.40673 -0.710563 0
M  V30 6040 C 579.353 -1.22813 -1.01928 0
M  V30 6041 C 579.553 -0.10687 -2.01216 0
M  V30 6042 O 578.609 0.533614 -2.46797 0
M  V30 6043 C 579.922 -2.57178 -1.5582 0
M  V30 6044 C 581.47 -2.64233 -1.67779 0
M  V30 6045 C 581.945 -3.98879 -2.25076 0
M  V30 6046 N 583.436 -4.00647 -2.32456 0
M  V30 6047 C 584.171 -5.01621 -2.77784 0
M  V30 6048 N 583.667 -6.12989 -3.22826 0
M  V30 6049 N 585.46 -4.88988 -2.77213 0
M  V30 6050 H 577.611 -2.12335 -0.05253 0
M  V30 6051 H 579.874 -0.9441 -0.085898 0
M  V30 6052 H 579.58 -3.39903 -0.903249 0
M  V30 6053 H 579.454 -2.78618 -2.54267 0
M  V30 6054 H 581.841 -1.81876 -2.3239 0
M  V30 6055 H 581.922 -2.46619 -0.679178 0
M  V30 6056 H 581.566 -4.81678 -1.61086 0
M  V30 6057 H 581.496 -4.13826 -3.25661 0
M  V30 6058 H 583.987 -3.20231 -2.0065 0
M  V30 6059 H 584.3 -6.85921 -3.55995 0
M  V30 6060 H 582.645 -6.16547 -3.20773 0
M  V30 6061 H 585.836 -4.01075 -2.41363 0
M  V30 6062 H 586.009 -5.67822 -3.12221 0
M  V30 6063 N 579.415 0.9433 -1.26252 0
M  V30 6064 C 580.365 2.02746 -1.04297 0
M  V30 6065 C 581.349 1.60882 0.0239435 0
M  V30 6066 O 582.541 1.75947 -0.192757 0
M  V30 6067 C 579.67 3.36585 -0.6757 0
M  V30 6068 C 578.756 3.84939 -1.77996 0
M  V30 6069 N 579.147 4.05966 -3.01704 0
M  V30 6070 C 577.445 4.13833 -1.66308 0
M  V30 6071 C 578.146 4.45987 -3.73458 0
M  V30 6072 N 577.122 4.52569 -3.01135 0
M  V30 6073 H 580.924 2.17012 -1.98199 0
M  V30 6074 H 578.438 1.12898 -1.16738 0
M  V30 6075 H 580.435 4.13896 -0.499571 0
M  V30 6076 H 579.095 3.2369 0.255863 0
M  V30 6077 H 580.106 3.92716 -3.37631 0
M  V30 6078 H 576.783 4.09739 -0.801267 0
M  V30 6079 H 578.173 4.70465 -4.79701 0
M  V30 6080 N 580.893 1.08022 1.14757 0
M  V30 6081 C 581.803 0.718292 2.23333 0
M  V30 6082 C 582.819 -0.273477 1.71837 0
M  V30 6083 O 583.995 -0.118406 2.01052 0
M  V30 6084 C 581.06 0.128855 3.4646 0
M  V30 6085 C 580.121 1.17473 4.12915 0
M  V30 6086 C 579.354 0.61333 5.30164 0
M  V30 6087 O 579.577 -0.568458 5.6756 0
M  V30 6088 O 578.511 1.3615 5.86299 0
M  V30 6089 H 582.337 1.62394 2.56636 0
M  V30 6090 H 579.922 0.853628 1.22611 0
M  V30 6091 H 581.804 -0.197249 4.20938 0
M  V30 6092 H 580.479 -0.750014 3.14891 0
M  V30 6093 H 579.386 1.5533 3.40328 0
M  V30 6094 H 580.719 2.02574 4.48581 0
M  V30 6095 N 582.371 -1.3172 0.865308 0
M  V30 6096 C 583.617 -1.97168 0.474633 0
M  V30 6097 C 583.95 -1.68263 -0.969604 0
M  V30 6098 O 583.225 -0.976588 -1.68205 0
M  V30 6099 C 583.508 -3.52689 0.726808 0
M  V30 6100 C 583.361 -3.91185 2.22024 0
M  V30 6101 C 584.68 -4.39689 0.190201 0
M  V30 6102 H 581.799 -0.716185 0.17392 0
M  V30 6103 H 584.441 -1.55925 1.08569 0
M  V30 6104 H 582.591 -3.8795 0.206705 0
M  V30 6105 H 584.263 -3.66049 2.80724 0
M  V30 6106 H 582.506 -3.3996 2.69462 0
M  V30 6107 H 583.177 -4.99604 2.34735 0
M  V30 6108 H 585.653 -4.11225 0.635103 0
M  V30 6109 H 584.529 -5.47469 0.396132 0
M  V30 6110 H 584.79 -4.32683 -0.907625 0
M  V30 6111 N 583.85 -0.624285 -1.44708 0
M  V30 6112 C 585.099 -0.123539 -2.01321 0
M  V30 6113 C 585.412 1.25966 -1.49639 0
M  V30 6114 O 586.618 1.85405 -1.98336 0
M  V30 6115 C 585.074 -0.170124 -3.59498 0
M  V30 6116 C 584.682 -1.55421 -4.20176 0
M  V30 6117 C 586.426 0.274513 -4.23611 0
M  V30 6118 C 584.332 -1.55628 -5.70556 0
M  V30 6119 H 583.263 -0.0424183 -0.752806 0
M  V30 6120 H 585.913 -0.782076 -1.65999 0
M  V30 6121 H 584.296 0.555385 -3.92086 0
M  V30 6122 H 585.47 -2.30276 -3.99136 0
M  V30 6123 H 583.784 -1.94235 -3.68323 0
M  V30 6124 H 586.382 0.292402 -5.339 0
M  V30 6125 H 586.725 1.3005 -3.95465 0
M  V30 6126 H 587.258 -0.398275 -3.95801 0
M  V30 6127 H 583.997 -2.56041 -6.03426 0
M  V30 6128 H 583.517 -0.850563 -5.93739 0
M  V30 6129 H 585.196 -1.28721 -6.34066 0
M  V30 6130 N 585.328 1.53329 -0.364422 0
M  V30 6131 C 586.576 2.00842 0.225189 0
M  V30 6132 C 586.897 1.25345 1.49378 0
M  V30 6133 O 586.167 0.366396 1.92443 0
M  V30 6134 H 584.747 0.742009 0.0862027 0
M  V30 6135 H 587.409 1.8863 -0.490389 0
M  V30 6136 H 586.505 3.08795 0.452987 0
M  V30 6137 N 586.806 0.0935595 1.57322 0
M  V30 6138 C 588.031 -0.582324 1.99057 0
M  V30 6139 C 588.456 -1.61025 0.972242 0
M  V30 6140 O 587.814 -1.81202 -0.0594622 0
M  V30 6141 C 587.862 -1.20799 3.39765 0
M  V30 6142 O 586.966 -2.32382 3.40694 0
M  V30 6143 H 586.307 -0.147884 0.647323 0
M  V30 6144 H 588.837 0.174516 2.03854 0
M  V30 6145 H 588.847 -1.54966 3.77425 0
M  V30 6146 H 587.522 -0.454914 4.13405 0
M  V30 6147 H 586.099 -1.99845 3.14827 0
M  V30 6148 N 588.284 -1.56567 -0.180126 0
M  V30 6149 C 589.509 -1.85975 -0.918041 0
M  V30 6150 C 589.934 -0.678888 -1.75422 0
M  V30 6151 O 589.292 0.372168 -1.77439 0
M  V30 6152 C 589.34 -3.13731 -1.77779 0
M  V30 6153 O 588.444 -2.95335 -2.87838 0
M  V30 6154 H 587.785 -0.61196 -0.257683 0
M  V30 6155 H 590.315 -2.03798 -0.180923 0
M  V30 6156 H 590.325 -3.4491 -2.17948 0
M  V30 6157 H 589 -3.99293 -1.16352 0
M  V30 6158 H 587.577 -2.7549 -2.51316 0
M  V30 6159 N 589.762 0.448376 -1.51087 0
M  V30 6160 C 590.692 1.55102 -1.74544 0
M  V30 6161 C 591.673 1.59357 -0.594932 0
M  V30 6162 O 592.858 1.75261 -0.836491 0
M  V30 6163 C 589.988 2.93268 -1.86041 0
M  V30 6164 C 588.942 3.03877 -3.01402 0
M  V30 6165 C 588.268 4.43914 -2.98068 0
M  V30 6166 C 589.568 2.7898 -4.41551 0
M  V30 6167 H 591.262 1.35724 -2.66869 0
M  V30 6168 H 588.808 0.651498 -1.28419 0
M  V30 6169 H 590.761 3.70356 -2.01034 0
M  V30 6170 H 589.485 3.13853 -0.903548 0
M  V30 6171 H 588.144 2.29227 -2.86096 0
M  V30 6172 H 587.792 4.6145 -2.00182 0
M  V30 6173 H 587.492 4.51944 -3.75527 0
M  V30 6174 H 589.016 5.22991 -3.1514 0
M  V30 6175 H 590.43 3.45805 -4.57265 0
M  V30 6176 H 588.827 2.98431 -5.20633 0
M  V30 6177 H 589.897 1.74663 -4.5235 0
M  V30 6178 N 591.24 1.41047 0.703093 0
M  V30 6179 C 592.17 1.45067 1.82969 0
M  V30 6180 C 593.151 0.31016 1.67248 0
M  V30 6181 O 594.336 0.520548 1.87093 0
M  V30 6182 C 591.466 1.32478 3.2104 0
M  V30 6183 C 590.42 2.44262 3.51454 0
M  V30 6184 C 589.746 2.16742 4.88801 0
M  V30 6185 C 591.046 3.86606 3.51189 0
M  V30 6186 H 592.74 2.39353 1.79863 0
M  V30 6187 H 590.286 1.15206 0.863919 0
M  V30 6188 H 592.239 1.33904 3.99559 0
M  V30 6189 H 590.963 0.346735 3.24754 0
M  V30 6190 H 589.622 2.42107 2.75282 0
M  V30 6191 H 589.27 1.17299 4.89132 0
M  V30 6192 H 588.97 2.91643 5.10116 0
M  V30 6193 H 590.494 2.19872 5.69639 0
M  V30 6194 H 591.908 3.90517 4.19725 0
M  V30 6195 H 590.305 4.61128 3.84033 0
M  V30 6196 H 591.375 4.15296 2.50315 0
M  V30 6197 N 592.718 -0.936591 1.26751 0
M  V30 6198 C 593.965 -1.68331 1.12566 0
M  V30 6199 C 594.293 -1.91677 -0.330168 0
M  V30 6200 O 593.548 -1.49859 -1.2586 0
M  V30 6201 C 593.847 -3.06099 1.84494 0
M  V30 6202 C 593.513 -3.02493 3.34378 0
M  V30 6203 C 592.175 -3.01217 3.75262 0
M  V30 6204 C 594.527 -2.94453 4.30055 0
M  V30 6205 C 591.855 -2.89672 5.10203 0
M  V30 6206 C 594.207 -2.84449 5.65041 0
M  V30 6207 C 592.871 -2.81518 6.0523 0
M  V30 6208 H 592.141 -0.615965 0.411907 0
M  V30 6209 H 594.788 -1.09292 1.5725 0
M  V30 6210 H 593.093 -3.6879 1.32292 0
M  V30 6211 H 594.79 -3.62733 1.70955 0
M  V30 6212 H 591.38 -3.04269 3.01858 0
M  V30 6213 H 595.564 -2.94544 3.99447 0
M  V30 6214 H 590.82 -2.85783 5.40498 0
M  V30 6215 H 594.994 -2.77192 6.38856 0
M  V30 6216 H 592.621 -2.72329 7.09747 0
M  V30 6217 N 594.196 -1.08629 -1.14182 0
M  V30 6218 C 595.442 -0.818556 -1.85546 0
M  V30 6219 C 595.775 0.654076 -1.82854 0
M  V30 6220 O 595.05 1.48099 -1.26083 0
M  V30 6221 C 595.333 -1.34397 -3.3408 0
M  V30 6222 C 595.186 -2.8821 -3.45333 0
M  V30 6223 C 596.505 -0.971069 -4.29253 0
M  V30 6224 H 593.624 -0.298821 -0.673702 0
M  V30 6225 H 596.266 -1.34629 -1.34071 0
M  V30 6226 H 594.416 -0.895064 -3.78049 0
M  V30 6227 H 596.088 -3.41488 -3.10134 0
M  V30 6228 H 594.331 -3.25756 -2.86471 0
M  V30 6229 H 595.002 -3.20047 -4.49749 0
M  V30 6230 H 597.478 -1.35809 -3.93313 0
M  V30 6231 H 596.354 -1.36586 -5.31635 0
M  V30 6232 H 596.615 0.121659 -4.41933 0
M  V30 6233 N 595.674 1.31259 -0.872281 0
M  V30 6234 C 596.624 2.26 -0.301295 0
M  V30 6235 C 597.608 1.50729 0.562991 0
M  V30 6236 O 598.8 1.72198 0.40949 0
M  V30 6237 C 595.929 3.39724 0.494227 0
M  V30 6238 C 595.015 4.22363 -0.383432 0
M  V30 6239 N 595.406 4.83724 -1.47799 0
M  V30 6240 C 593.704 4.45652 -0.176278 0
M  V30 6241 C 594.405 5.45523 -2.01939 0
M  V30 6242 N 593.381 5.27428 -1.31608 0
M  V30 6243 H 597.183 2.70981 -1.13782 0
M  V30 6244 H 594.697 1.45552 -0.720294 0
M  V30 6245 H 596.694 4.06626 0.919828 0
M  V30 6246 H 595.354 2.96286 1.32834 0
M  V30 6247 H 596.365 4.83313 -1.8609 0
M  V30 6248 H 593.042 4.12845 0.621698 0
M  V30 6249 H 594.432 6.04268 -2.93786 0
M  V30 6250 N 597.152 0.631951 1.44375 0
M  V30 6251 C 598.429 0.067646 1.95483 0
M  V30 6252 C 598.809 -1.40683 1.57389 0
M  V30 6253 O 598.157 -2.12167 0.848375 0
M  V30 6254 C 598.367 0.291392 3.47781 0
M  V30 6255 C 599.715 0.185028 4.24197 0
M  V30 6256 O 600.739 0.222803 3.55503 0
M  V30 6257 O 599.598 0.0906642 5.46425 0
M  V30 6258 H 596.692 -0.0218379 0.826712 0
M  V30 6259 H 599.238 0.703711 1.54421 0
M  V30 6260 H 598.01 1.31449 3.68561 0
M  V30 6261 H 597.633 -0.378772 3.95792 0
M  V30 6262 N 598.631 -1.53133 0.372548 0
M  V30 6263 C 599.581 -2.22733 -0.487218 0
M  V30 6264 C 600.565 -1.22506 -1.04312 0
M  V30 6265 O 601.757 -1.47923 -0.972005 0
M  V30 6266 C 598.886 -3.02524 -1.62278 0
M  V30 6267 C 597.972 -4.10133 -1.07943 0
M  V30 6268 N 598.363 -5.05133 -0.259629 0
M  V30 6269 C 596.661 -4.24964 -1.35356 0
M  V30 6270 C 597.362 -5.81687 0.0386656 0
M  V30 6271 N 596.338 -5.40699 -0.560827 0
M  V30 6272 H 600.14 -2.93538 0.145853 0
M  V30 6273 H 597.654 -1.61389 0.180938 0
M  V30 6274 H 599.651 -3.50909 -2.25096 0
M  V30 6275 H 598.311 -2.33252 -2.25884 0
M  V30 6276 H 599.322 -5.178 0.101746 0
M  V30 6277 H 595.999 -3.66919 -1.9919 0
M  V30 6278 H 597.389 -6.68224 0.701841 0
M  V30 6279 N 600.109 -0.101901 -1.5727 0
M  V30 6280 C 601.349 0.563489 -1.96479 0
M  V30 6281 C 601.713 1.64926 -0.983021 0
M  V30 6282 O 602.914 2.37234 -1.26386 0
M  V30 6283 C 601.185 1.09809 -3.40113 0
M  V30 6284 S 602.744 1.7744 -4.01323 0
M  V30 6285 H 599.562 0.183675 -0.686866 0
M  V30 6286 H 602.164 -0.182922 -1.94642 0
M  V30 6287 H 600.868 0.296447 -4.09328 0
M  V30 6288 H 600.399 1.88018 -3.45562 0
M  V30 6289 H 602.414 3.0591 -3.90683 0
M  V30 6290 N 601.587 1.56661 0.17182 0
M  V30 6291 C 602.537 1.92781 1.21736 0
M  V30 6292 C 603.521 0.796065 1.39827 0
M  V30 6293 O 604.713 1.05924 1.41806 0
M  V30 6294 C 601.842 2.29079 2.55691 0
M  V30 6295 C 600.928 3.48765 2.41296 0
M  V30 6296 N 601.319 4.66022 1.96614 0
M  V30 6297 C 599.617 3.53362 2.72124 0
M  V30 6298 C 600.318 5.48159 1.94669 0
M  V30 6299 N 599.294 4.89189 2.37054 0
M  V30 6300 H 603.096 2.80926 0.863592 0
M  V30 6301 H 600.61 1.57889 0.380096 0
M  V30 6302 H 602.607 2.5315 3.31241 0
M  V30 6303 H 601.267 1.42272 2.91871 0
M  V30 6304 H 602.278 4.9025 1.66959 0
M  V30 6305 H 598.955 2.77033 3.12345 0
M  V30 6306 H 600.345 6.52121 1.61826 0
M  V30 6307 N 603.065 -0.440357 1.51323 0
M  V30 6308 C 604.481 -0.7766 1.39431 0
M  V30 6309 C 604.681 -1.95838 0.474296 0
M  V30 6310 O 603.737 -2.52398 -0.0716692 0
M  V30 6311 C 605.05 -1.05981 2.81405 0
M  V30 6312 C 606.598 -1.16442 2.90534 0
M  V30 6313 C 607.073 -1.48058 4.33408 0
M  V30 6314 N 608.564 -1.54988 4.36501 0
M  V30 6315 C 609.299 -1.81017 5.44078 0
M  V30 6316 N 608.795 -2.04858 6.61819 0
M  V30 6317 N 610.588 -1.82774 5.31554 0
M  V30 6318 H 602.739 0.338006 2.09693 0
M  V30 6319 H 605.002 0.0888072 0.943831 0
M  V30 6320 H 604.708 -0.264173 3.50706 0
M  V30 6321 H 604.582 -1.98822 3.20546 0
M  V30 6322 H 606.969 -1.95068 2.21432 0
M  V30 6323 H 607.05 -0.215088 2.54894 0
M  V30 6324 H 606.694 -0.699605 5.03059 0
M  V30 6325 H 606.624 -2.44192 4.66559 0
M  V30 6326 H 609.115 -1.38479 3.51613 0
M  V30 6327 H 609.428 -2.2408 7.396 0
M  V30 6328 H 607.773 -2.02187 6.6494 0
M  V30 6329 H 610.964 -1.63665 4.38556 0
M  V30 6330 H 611.137 -2.02722 6.15474 0
M  V30 6331 N 604.543 -1.41418 -0.695603 0
M  V30 6332 C 605.506 -1.42988 -1.79129 0
M  V30 6333 C 606.506 -0.320514 -1.57573 0
M  V30 6334 O 607.696 -0.58039 -1.64247 0
M  V30 6335 C 604.828 -1.24122 -3.175 0
M  V30 6336 H 606.021 -2.40526 -1.7913 0
M  V30 6337 H 603.574 -1.2756 -0.903225 0
M  V30 6338 H 604.309 -0.274253 -3.23138 0
M  V30 6339 H 604.094 -2.045 -3.34547 0
M  V30 6340 H 605.584 -1.28056 -3.97481 0
M  V30 6341 N 606.021 0.929856 -1.27246 0
M  V30 6342 C 607.269 1.674 -1.13233 0
M  V30 6343 C 607.59 1.92311 0.322744 0
M  V30 6344 O 606.86 1.52784 1.22612 0
M  V30 6345 H 605.44 0.620411 -0.416052 0
M  V30 6346 H 608.102 1.11663 -1.59741 0
M  V30 6347 H 607.198 2.64308 -1.65975 0
M  V30 6348 N 607.499 1.09233 1.13605 0
M  V30 6349 C 608.745 0.828385 1.8511 0
M  V30 6350 C 609.078 -0.64437 1.83198 0
M  V30 6351 O 608.353 -1.47428 1.26867 0
M  V30 6352 C 608.636 1.36167 3.33363 0
M  V30 6353 C 608.489 2.90038 3.438 0
M  V30 6354 C 609.808 0.993819 4.28732 0
M  V30 6355 H 606.927 0.30239 0.672108 0
M  V30 6356 H 609.569 1.35339 1.33355 0
M  V30 6357 H 607.719 0.9151 3.77569 0
M  V30 6358 H 609.391 3.43128 3.08319 0
M  V30 6359 H 607.634 3.27271 2.84739 0
M  V30 6360 H 608.305 3.22428 4.48045 0
M  V30 6361 H 610.781 1.37893 3.92587 0
M  V30 6362 H 609.657 1.39403 5.30903 0
M  V30 6363 H 609.918 -0.0982206 4.41991 0
M  V30 6364 N 608.977 -1.30795 0.87923 0
M  V30 6365 C 610.223 -1.97035 0.50487 0
M  V30 6366 C 610.578 -1.68182 -0.934484 0
M  V30 6367 O 609.871 -0.972953 -1.65058 0
M  V30 6368 C 610.065 -3.50287 0.709476 0
M  V30 6369 C 609.894 -3.94035 2.16717 0
M  V30 6370 C 608.664 -4.1992 2.81061 0
M  V30 6371 C 610.862 -4.07288 3.1404 0
M  V30 6372 N 608.844 -4.50088 4.17486 0
M  V30 6373 C 610.215 -4.41273 4.35521 0
M  V30 6374 C 612.27 -3.89696 3.09906 0
M  V30 6375 C 610.973 -4.59501 5.534 0
M  V30 6376 C 612.999 -4.09122 4.27052 0
M  V30 6377 C 612.361 -4.43447 5.47297 0
M  V30 6378 H 608.46 -0.746181 0.233962 0
M  V30 6379 H 611.044 -1.5814 1.13577 0
M  V30 6380 H 609.215 -3.8825 0.108108 0
M  V30 6381 H 610.947 -4.03567 0.302585 0
M  V30 6382 H 607.702 -4.12906 2.3196 0
M  V30 6383 H 608.126 -4.69316 4.87926 0
M  V30 6384 H 612.768 -3.62239 2.18043 0
M  V30 6385 H 610.486 -4.85802 6.45773 0
M  V30 6386 H 614.072 -3.96985 4.25316 0
M  V30 6387 H 612.952 -4.58171 6.36435 0
M  V30 6388 N 610.455 -0.639598 -1.44038 0
M  V30 6389 C 611.385 0.0469443 -2.33453 0
M  V30 6390 C 612.366 0.82609 -1.48694 0
M  V30 6391 O 613.551 0.790285 -1.77393 0
M  V30 6392 C 610.681 1.02338 -3.3188 0
M  V30 6393 C 609.635 0.355284 -4.26523 0
M  V30 6394 C 608.961 1.44221 -5.14883 0
M  V30 6395 C 610.261 -0.743798 -5.16977 0
M  V30 6396 H 611.955 -0.699735 -2.91108 0
M  V30 6397 H 609.501 -0.337946 -1.39978 0
M  V30 6398 H 611.454 1.51247 -3.93322 0
M  V30 6399 H 610.178 1.80105 -2.72451 0
M  V30 6400 H 608.837 -0.113239 -3.66425 0
M  V30 6401 H 608.485 2.21097 -4.51802 0
M  V30 6402 H 608.185 1.00052 -5.79019 0
M  V30 6403 H 609.709 1.93295 -5.79197 0
M  V30 6404 H 611.123 -0.337444 -5.72306 0
M  V30 6405 H 609.52 -1.10914 -5.89761 0
M  V30 6406 H 610.59 -1.60745 -4.57481 0
M  V30 6407 N 611.933 1.52934 -0.380664 0
M  V30 6408 C 613.182 2.00651 0.205477 0
M  V30 6409 C 613.495 1.27164 1.48623 0
M  V30 6410 O 614.701 1.65547 2.15189 0
M  V30 6411 C 613.157 3.57479 0.416726 0
M  V30 6412 C 612.765 4.39857 -0.850268 0
M  V30 6413 C 614.509 4.13509 0.959702 0
M  V30 6414 C 612.416 5.88269 -0.607773 0
M  V30 6415 H 611.346 0.749684 0.0805614 0
M  V30 6416 H 613.997 1.76508 -0.501732 0
M  V30 6417 H 612.379 3.77836 1.18557 0
M  V30 6418 H 613.553 4.31269 -1.62307 0
M  V30 6419 H 611.868 3.95005 -1.31756 0
M  V30 6420 H 614.465 5.22039 1.15669 0
M  V30 6421 H 614.808 3.69054 1.92626 0
M  V30 6422 H 615.341 3.9701 0.250645 0
M  V30 6423 H 612.08 6.3703 -1.54509 0
M  V30 6424 H 611.6 5.99667 0.126247 0
M  V30 6425 H 613.279 6.46558 -0.239014 0
M  V30 6426 N 613.412 0.11024 1.57214 0
M  V30 6427 C 614.689 -0.592956 1.86396 0
M  V30 6428 C 615.069 -1.85379 1.00985 0
M  V30 6429 O 614.417 -2.28337 0.0863592 0
M  V30 6430 C 614.627 -0.893816 3.3736 0
M  V30 6431 C 615.975 -1.25069 4.05762 0
M  V30 6432 O 616.999 -0.984356 3.42329 0
M  V30 6433 O 615.858 -1.75017 5.17718 0
M  V30 6434 H 612.952 -0.29828 0.771335 0
M  V30 6435 H 615.498 0.144083 1.69087 0
M  V30 6436 H 614.27 2.6031e-05 3.913 0
M  V30 6437 H 613.893 -1.68631 3.60068 0
M  V30 6438 N 614.89 -1.56749 -0.16351 0
M  V30 6439 C 616.137 -1.82434 -0.878866 0
M  V30 6440 C 616.465 -0.688557 -1.81904 0
M  V30 6441 O 615.72 0.323644 -1.93005 0
M  V30 6442 C 616.019 -3.14342 -1.70071 0
M  V30 6443 C 615.685 -4.41647 -0.908775 0
M  V30 6444 C 614.347 -4.76224 -0.690236 0
M  V30 6445 C 616.699 -5.19998 -0.353815 0
M  V30 6446 C 614.027 -5.86624 0.0942374 0
M  V30 6447 C 616.379 -6.3122 0.41761 0
M  V30 6448 C 615.043 -6.64358 0.646879 0
M  V30 6449 H 614.313 -0.667574 -0.3216 0
M  V30 6450 H 616.96 -1.90963 -0.14337 0
M  V30 6451 H 615.265 -3.0119 -2.50583 0
M  V30 6452 H 616.962 -3.31426 -2.25738 0
M  V30 6453 H 613.552 -4.1453 -1.08916 0
M  V30 6454 H 617.736 -4.93673 -0.509975 0
M  V30 6455 H 612.992 -6.10751 0.281529 0
M  V30 6456 H 617.166 -6.91133 0.854849 0
M  V30 6457 H 614.793 -7.49742 1.25662 0
M  V30 6458 N 616.368 0.432326 -1.51554 0
M  V30 6459 C 617.616 1.17901 -1.64146 0
M  V30 6460 C 617.937 1.91604 -0.362367 0
M  V30 6461 O 617.207 1.85764 0.621968 0
M  V30 6462 H 615.787 0.438206 -0.604966 0
M  V30 6463 H 618.449 0.495172 -1.88505 0
M  V30 6464 H 617.545 1.90584 -2.47152 0
M  V30 6465 N 617.846 1.41785 0.688094 0
M  V30 6466 C 618.793 1.44221 1.80191 0
M  V30 6467 C 619.763 0.295688 1.63447 0
M  V30 6468 O 620.948 0.49783 1.84191 0
M  V30 6469 C 618.088 1.33743 3.1813 0
M  V30 6470 C 617.201 2.58325 3.46254 0
M  V30 6471 C 616.336 2.40086 4.73848 0
M  V30 6472 C 615.375 3.60107 4.94964 0
M  V30 6473 N 614.512 3.40892 6.13789 0
M  V30 6474 H 619.352 2.39411 1.77444 0
M  V30 6475 H 616.889 1.18876 0.866423 0
M  V30 6476 H 618.847 1.25669 3.97823 0
M  V30 6477 H 617.477 0.42157 3.20035 0
M  V30 6478 H 616.529 2.7682 2.60912 0
M  V30 6479 H 617.841 3.4758 3.57756 0
M  V30 6480 H 616.995 2.29522 5.61609 0
M  V30 6481 H 615.734 1.483 4.64606 0
M  V30 6482 H 614.739 3.71118 4.05649 0
M  V30 6483 H 615.964 4.52857 5.06061 0
M  V30 6484 H 613.91 2.51812 6.05745 0
M  V30 6485 H 613.827 4.23727 6.26092 0
M  V30 6486 H 615.095 3.34114 7.04264 0
M  V30 6487 N 619.324 -0.923095 1.27737 0
M  V30 6488 C 620.552 -1.70525 1.17171 0
M  V30 6489 C 620.967 -1.86847 -0.270881 0
M  V30 6490 O 620.324 -1.38879 -1.18401 0
M  V30 6491 C 620.375 -3.10242 1.85559 0
M  V30 6492 O 620.096 -2.94683 3.24182 0
M  V30 6493 C 621.597 -4.04586 1.81176 0
M  V30 6494 H 618.817 -0.533347 0.407163 0
M  V30 6495 H 621.361 -1.15599 1.68692 0
M  V30 6496 H 619.516 -3.62014 1.3793 0
M  V30 6497 H 619.93 -3.83045 3.58297 0
M  V30 6498 H 621.404 -5.00119 2.33633 0
M  V30 6499 H 621.881 -4.3218 0.782099 0
M  V30 6500 H 622.487 -3.58741 2.2844 0
M  V30 6501 N 620.802 -1.09834 -1.13024 0
M  V30 6502 C 622.03 -0.858902 -1.8823 0
M  V30 6503 C 622.445 0.590164 -1.79339 0
M  V30 6504 O 621.802 1.4065 -1.16292 0
M  V30 6505 C 621.853 -1.29066 -3.37675 0
M  V30 6506 O 621.574 -2.6829 -3.46341 0
M  V30 6507 C 623.075 -1.08421 -4.29837 0
M  V30 6508 H 620.295 -0.308713 -0.595766 0
M  V30 6509 H 622.839 -1.4614 -1.4305 0
M  V30 6510 H 620.994 -0.731961 -3.80422 0
M  V30 6511 H 621.408 -2.86598 -4.39274 0
M  V30 6512 H 622.882 -1.43553 -5.33007 0
M  V30 6513 H 623.359 -0.0223315 -4.39194 0
M  V30 6514 H 623.965 -1.62907 -3.92863 0
M  V30 6515 N 622.28 1.30327 -0.886154 0
M  V30 6516 C 623.691 1.78243 -0.555554 0
M  V30 6517 C 624.042 1.72849 0.928314 0
M  V30 6518 O 623.167 1.30607 1.72542 0
M  V30 6519 C 623.762 3.23654 -1.00168 0
M  V30 6520 C 622.321 3.69401 -0.722471 0
M  V30 6521 C 621.468 2.50753 -1.18399 0
M  V30 6522 H 624.419 1.1718 -1.07026 0
M  V30 6523 H 624.44 3.79056 -0.331152 0
M  V30 6524 H 623.952 3.27548 -2.08169 0
M  V30 6525 H 622.053 3.70995 0.345496 0
M  V30 6526 H 622.166 4.60818 -1.31085 0
M  V30 6527 H 620.53 2.47452 -0.603303 0
M  V30 6528 H 621.313 2.57383 -2.27176 0
M  V30 6529 N 623.758 0.647228 1.43697 0
M  V30 6530 C 624.688 -0.0345631 2.33474 0
M  V30 6531 C 625.669 -0.818193 1.4913 0
M  V30 6532 O 626.854 -0.780867 1.77809 0
M  V30 6533 C 623.984 -1.00576 3.32418 0
M  V30 6534 C 622.938 -0.33266 4.26705 0
M  V30 6535 C 622.264 -1.41489 5.1564 0
M  V30 6536 C 623.564 0.771204 5.16575 0
M  V30 6537 H 625.258 0.715163 2.90733 0
M  V30 6538 H 622.804 0.345364 1.39797 0
M  V30 6539 H 624.757 -1.49159 3.94119 0
M  V30 6540 H 623.481 -1.78657 2.73403 0
M  V30 6541 H 622.14 0.13267 3.6636 0
M  V30 6542 H 621.788 -2.18698 4.52968 0
M  V30 6543 H 621.488 -0.969799 5.79542 0
M  V30 6544 H 623.012 -1.9022 5.80214 0
M  V30 6545 H 624.426 0.36779 5.72119 0
M  V30 6546 H 622.823 1.1404 5.89165 0
M  V30 6547 H 623.893 1.63169 4.56622 0
M  V30 6548 N 625.236 -1.5273 0.388769 0
M  V30 6549 C 626.647 -1.86505 -0.0853788 0
M  V30 6550 C 626.998 -1.30847 -1.46197 0
M  V30 6551 O 626.123 -0.639609 -2.06732 0
M  V30 6552 C 626.718 -3.38414 -0.161703 0
M  V30 6553 C 625.277 -3.71902 -0.580144 0
M  V30 6554 C 624.424 -2.76095 0.258218 0
M  V30 6555 H 627.375 -1.46647 0.606665 0
M  V30 6556 H 627.396 -3.67638 -0.980936 0
M  V30 6557 H 626.908 -3.78893 0.840333 0
M  V30 6558 H 625.009 -3.36992 -1.58957 0
M  V30 6559 H 625.122 -4.77902 -0.338663 0
M  V30 6560 H 623.486 -2.53195 -0.276432 0
M  V30 6561 H 624.269 -3.19411 1.25822 0
M  V30 6562 N 626.714 -0.118576 -1.57153 0
M  V30 6563 C 627.991 0.583062 -1.86708 0
M  V30 6564 C 628.371 1.84841 -1.01967 0
M  V30 6565 O 627.719 2.28288 -0.0984673 0
M  V30 6566 C 627.929 0.875912 -3.3783 0
M  V30 6567 C 629.277 1.22916 -4.0642 0
M  V30 6568 O 630.301 0.966188 -3.42846 0
M  V30 6569 O 629.16 1.72269 -5.18638 0
M  V30 6570 H 626.254 0.294185 -0.772906 0
M  V30 6571 H 628.8 -0.153048 -1.69008 0
M  V30 6572 H 627.572 -0.0207776 -3.91294 0
M  V30 6573 H 627.195 1.66719 -3.60958 0
M  V30 6574 N 628.193 1.56834 0.155195 0
M  V30 6575 C 629.441 1.82536 0.867462 0
M  V30 6576 C 629.762 0.698168 1.82073 0
M  V30 6577 O 629.032 -0.280807 1.93877 0
M  V30 6578 H 627.612 0.673401 0.323327 0
M  V30 6579 H 630.274 1.94313 0.151156 0
M  V30 6580 H 629.37 2.77171 1.43466 0
M  V30 6581 N 629.671 -0.424282 1.51781 0
M  V30 6582 C 630.603 -1.53457 1.70246 0
M  V30 6583 C 631.616 -1.52004 0.582967 0
M  V30 6584 O 632.805 -1.56544 0.857683 0
M  V30 6585 C 629.905 -2.92368 1.71389 0
M  V30 6586 C 629.078 -3.1818 3.00133 0
M  V30 6587 C 628.137 -4.36884 2.9329 0
M  V30 6588 O 627.163 -4.34901 3.67219 0
M  V30 6589 N 628.365 -5.4117 2.10036 0
M  V30 6590 H 631.13 -1.38017 2.66029 0
M  V30 6591 H 628.691 -0.613394 1.4983 0
M  V30 6592 H 630.683 -3.6982 1.64362 0
M  V30 6593 H 629.253 -3.0134 0.831449 0
M  V30 6594 H 628.473 -2.28908 3.20928 0
M  V30 6595 H 629.761 -3.32261 3.85331 0
M  V30 6596 H 629.159 -5.45623 1.49373 0
M  V30 6597 H 627.716 -6.17425 2.08878 0
M  V30 6598 N 631.149 -1.42148 -0.680565 0
M  V30 6599 C 632.398 -1.41604 -1.43636 0
M  V30 6600 C 632.711 -0.0337887 -1.95571 0
M  V30 6601 O 633.917 0.0942588 -2.71336 0
M  V30 6602 C 632.373 -2.49056 -2.59806 0
M  V30 6603 C 631.981 -3.9326 -2.14594 0
M  V30 6604 C 633.725 -2.5767 -3.37352 0
M  V30 6605 C 631.632 -4.92232 -3.27813 0
M  V30 6606 H 630.562 -0.526656 -0.539583 0
M  V30 6607 H 633.213 -1.68033 -0.737369 0
M  V30 6608 H 631.595 -2.15782 -3.32045 0
M  V30 6609 H 632.769 -4.35858 -1.49546 0
M  V30 6610 H 631.084 -3.88443 -1.50002 0
M  V30 6611 H 633.681 -3.28794 -4.21662 0
M  V30 6612 H 634.024 -1.61837 -3.83555 0
M  V30 6613 H 634.557 -2.90109 -2.72179 0
M  V30 6614 H 631.296 -5.89522 -2.86607 0
M  V30 6615 H 630.816 -4.5427 -3.91661 0
M  V30 6616 H 632.495 -5.13684 -3.93367 0
M  V30 6617 N 632.627 0.916307 -1.28225 0
M  V30 6618 C 633.557 2.0352 -1.14464 0
M  V30 6619 C 634.538 1.70045 -0.0430844 0
M  V30 6620 O 635.723 1.92954 -0.219619 0
M  V30 6621 C 632.853 3.37889 -0.803027 0
M  V30 6622 C 631.807 3.85516 -1.85908 0
M  V30 6623 C 631.133 5.1682 -1.37116 0
M  V30 6624 C 632.433 4.07655 -3.26519 0
M  V30 6625 H 634.127 2.1529 -2.08064 0
M  V30 6626 H 631.673 1.03446 -1.00174 0
M  V30 6627 H 633.626 4.15654 -0.693537 0
M  V30 6628 H 632.35 3.26164 0.168674 0
M  V30 6629 H 631.009 3.09953 -1.95767 0
M  V30 6630 H 630.657 5.01497 -0.38859 0
M  V30 6631 H 630.357 5.49657 -2.07728 0
M  V30 6632 H 631.881 5.97143 -1.27484 0
M  V30 6633 H 633.295 4.75953 -3.19596 0
M  V30 6634 H 631.692 4.51818 -3.94943 0
M  V30 6635 H 632.762 3.12553 -3.70727 0
M  V30 6636 N 634.105 1.10431 1.1244 0
M  V30 6637 C 635.382 0.758797 1.80282 0
M  V30 6638 C 635.762 -0.754727 1.97147 0
M  V30 6639 O 635.11 -1.68094 1.54779 0
M  V30 6640 C 635.32 1.50982 3.14651 0
M  V30 6641 C 636.668 1.68232 3.8985 0
M  V30 6642 O 637.692 1.47319 3.24308 0
M  V30 6643 O 636.551 2.02905 5.07437 0
M  V30 6644 H 633.645 0.273756 0.780376 0
M  V30 6645 H 636.191 1.20713 1.19275 0
M  V30 6646 H 634.963 2.53989 2.97666 0
M  V30 6647 H 634.586 1.05435 3.83366 0
M  V30 6648 N 635.583 -1.29855 0.893053 0
M  V30 6649 C 636.533 -2.25493 0.337211 0
M  V30 6650 C 637.517 -1.51606 -0.53894 0
M  V30 6651 O 638.709 -1.72828 -0.382043 0
M  V30 6652 C 635.838 -3.40467 -0.440117 0
M  V30 6653 C 634.924 -4.217 0.450578 0
M  V30 6654 N 635.315 -4.81312 1.55476 0
M  V30 6655 C 633.613 -4.45315 0.247154 0
M  V30 6656 C 634.314 -5.42241 2.10593 0
M  V30 6657 N 633.29 -5.25267 1.39982 0
M  V30 6658 H 637.092 -2.69137 1.18079 0
M  V30 6659 H 634.606 -1.44388 0.743359 0
M  V30 6660 H 636.603 -4.08038 -0.855021 0
M  V30 6661 H 635.263 -2.98361 -1.28104 0
M  V30 6662 H 636.274 -4.80291 1.93755 0
M  V30 6663 H 632.951 -4.13782 -0.555939 0
M  V30 6664 H 634.341 -5.99517 3.03362 0
M  V30 6665 N 637.061 -0.65484 -1.43351 0
M  V30 6666 C 638.477 -0.32255 -1.56307 0
M  V30 6667 C 638.677 1.17324 -1.63821 0
M  V30 6668 O 637.733 1.95813 -1.59417 0
M  V30 6669 C 639.046 -1.03533 -2.82314 0
M  V30 6670 C 640.594 -1.01574 -2.9606 0
M  V30 6671 C 641.069 -1.70945 -4.24902 0
M  V30 6672 N 642.56 -1.67716 -4.3177 0
M  V30 6673 C 643.295 -2.18265 -5.30234 0
M  V30 6674 N 642.791 -2.7711 -6.34966 0
M  V30 6675 N 644.584 -2.08756 -5.21898 0
M  V30 6676 H 636.735 -1.62549 -1.36717 0
M  V30 6677 H 638.998 -0.683676 -0.656727 0
M  V30 6678 H 638.704 -2.09045 -2.8283 0
M  V30 6679 H 638.578 -0.587913 -3.7259 0
M  V30 6680 H 640.965 0.0309834 -2.95084 0
M  V30 6681 H 641.046 -1.50186 -2.07069 0
M  V30 6682 H 640.69 -2.75574 -4.26639 0
M  V30 6683 H 640.62 -1.19797 -5.12793 0
M  V30 6684 H 643.111 -1.24777 -3.56706 0
M  V30 6685 H 643.424 -3.13353 -7.06421 0
M  V30 6686 H 641.769 -2.81171 -6.35585 0
M  V30 6687 H 644.96 -1.62488 -4.38994 0
M  V30 6688 H 645.133 -2.48459 -5.98475 0
M  V30 6689 N 638.539 1.52521 -0.396863 0
M  V30 6690 C 639.955 1.5953 -0.0471659 0
M  V30 6691 C 640.155 1.41044 1.43906 0
M  V30 6692 O 639.211 1.23122 2.20448 0
M  V30 6693 C 640.524 2.95972 -0.531113 0
M  V30 6694 C 642.072 3.09172 -0.488024 0
M  V30 6695 C 642.547 4.48075 -0.948281 0
M  V30 6696 N 644.038 4.54281 -0.9046 0
M  V30 6697 C 644.773 5.60007 -1.23205 0
M  V30 6698 N 644.269 6.73343 -1.63036 0
M  V30 6699 N 646.062 5.50151 -1.15282 0
M  V30 6700 H 638.213 1.62786 -1.36435 0
M  V30 6701 H 640.476 0.76514 -0.559701 0
M  V30 6702 H 640.182 3.14741 -1.56942 0
M  V30 6703 H 640.056 3.77143 0.0657922 0
M  V30 6704 H 642.443 2.90095 0.541211 0
M  V30 6705 H 642.524 2.29937 -1.12083 0
M  V30 6706 H 642.168 4.67894 -1.97578 0
M  V30 6707 H 642.098 5.25788 -0.292412 0
M  V30 6708 H 644.589 3.72918 -0.6116 0
M  V30 6709 H 644.902 7.49992 -1.86365 0
M  V30 6710 H 643.247 6.74655 -1.66929 0
M  V30 6711 H 646.438 4.6049 -0.840602 0
M  V30 6712 H 646.611 6.32444 -1.41133 0
M  V30 6713 N 640.017 0.126909 1.57088 0
M  V30 6714 C 641.428 -0.397201 1.82426 0
M  V30 6715 C 641.779 -1.66084 1.04453 0
M  V30 6716 O 640.904 -2.14534 0.283552 0
M  V30 6717 C 641.499 -0.727411 3.30899 0
M  V30 6718 C 640.058 -1.19612 3.56889 0
M  V30 6719 C 639.205 -0.20885 2.76512 0
M  V30 6720 H 642.156 0.351924 1.54749 0
M  V30 6721 H 642.177 -1.58407 3.45959 0
M  V30 6722 H 641.689 0.19247 3.87622 0
M  V30 6723 H 639.79 -2.13263 3.05532 0
M  V30 6724 H 639.903 -1.13598 4.65438 0
M  V30 6725 H 638.267 -0.697479 2.44964 0
M  V30 6726 H 639.05 0.704267 3.35998 0
M  V30 6727 N 641.495 -1.56914 -0.146875 0
M  V30 6728 C 642.741 -1.84515 -0.855914 0
M  V30 6729 C 643.096 -0.710909 -1.78784 0
M  V30 6730 O 642.389 0.291123 -1.89375 0
M  V30 6731 C 642.583 -3.16128 -1.66727 0
M  V30 6732 C 642.412 -4.42246 -0.815405 0
M  V30 6733 C 641.182 -5.03006 -0.480976 0
M  V30 6734 C 643.38 -5.14094 -0.145684 0
M  V30 6735 N 641.362 -6.12695 0.384476 0
M  V30 6736 C 642.733 -6.17282 0.579902 0
M  V30 6737 C 644.788 -4.97856 -0.0663705 0
M  V30 6738 C 643.491 -7.0599 1.37731 0
M  V30 6739 C 645.517 -5.87028 0.71778 0
M  V30 6740 C 644.879 -6.89698 1.43165 0
M  V30 6741 H 640.978 -0.725829 -0.291026 0
M  V30 6742 H 643.562 -1.94322 -0.121279 0
M  V30 6743 H 641.733 -3.07468 -2.37315 0
M  V30 6744 H 643.465 -3.31635 -2.31949 0
M  V30 6745 H 640.22 -4.66504 -0.816789 0
M  V30 6746 H 640.644 -6.72158 0.80823 0
M  V30 6747 H 645.286 -4.18465 -0.603929 0
M  V30 6748 H 643.004 -7.84809 1.92613 0
M  V30 6749 H 646.59 -5.76532 0.781141 0
M  V30 6750 H 645.47 -7.57505 2.02868 0
M  V30 6751 N 642.974 0.416227 -1.52004 0
M  V30 6752 C 643.884 1.53147 -1.77717 0
M  V30 6753 C 644.9 1.609 -0.662368 0
M  V30 6754 O 646.076 1.77747 -0.946991 0
M  V30 6755 C 643.141 2.88948 -1.91598 0
M  V30 6756 C 642.202 2.9114 -3.15493 0
M  V30 6757 C 641.435 4.20464 -3.28703 0
M  V30 6758 O 641.658 5.13981 -2.47345 0
M  V30 6759 O 640.592 4.29368 -4.21813 0
M  V30 6760 H 644.418 1.34357 -2.72363 0
M  V30 6761 H 642.003 0.601373 -1.36762 0
M  V30 6762 H 643.885 3.69505 -2.02593 0
M  V30 6763 H 642.56 3.07821 -1.00141 0
M  V30 6764 H 641.467 2.09461 -3.09962 0
M  V30 6765 H 642.8 2.77216 -4.06709 0
M  V30 6766 N 644.452 1.42507 0.673017 0
M  V30 6767 C 645.362 1.4853 1.81593 0
M  V30 6768 C 646.378 0.373907 1.69935 0
M  V30 6769 O 647.554 0.625078 1.91454 0
M  V30 6770 C 644.619 1.387 3.17747 0
M  V30 6771 C 643.68 2.60346 3.41348 0
M  V30 6772 C 642.913 2.50975 4.71007 0
M  V30 6773 O 643.136 1.54659 5.49033 0
M  V30 6774 O 642.07 3.41138 4.95892 0
M  V30 6775 H 645.896 2.45001 1.79467 0
M  V30 6776 H 643.481 1.2429 0.82899 0
M  V30 6777 H 645.363 1.35586 3.98992 0
M  V30 6778 H 644.038 0.453555 3.20507 0
M  V30 6779 H 642.945 2.69034 2.59945 0
M  V30 6780 H 644.278 3.52595 3.43421 0
M  V30 6781 N 645.93 -0.909495 1.28709 0
M  V30 6782 C 647.178 -1.65577 1.15882 0
M  V30 6783 C 647.499 -1.928 -0.292108 0
M  V30 6784 O 646.769 -1.54716 -1.20166 0
M  V30 6785 H 645.349 -0.613714 0.425869 0
M  V30 6786 H 648.011 -1.09108 1.61498 0
M  V30 6787 H 647.107 -2.61634 1.70159 0
M  V30 6788 N 647.408 -1.11026 -1.11852 0
M  V30 6789 C 648.356 -0.759643 -2.19846 0
M  V30 6790 C 649.35 0.246964 -1.6759 0
M  V30 6791 O 650.556 0.106693 -1.79684 0
M  V30 6792 H 646.931 -0.22775 -0.716683 0
M  V30 6793 H 648.902 -1.6792 -2.46669 0
M  V30 6794 C 647.651 -0.214364 -3.47039 0
M  V30 6795 H 646.974 -0.980175 -3.87599 0
M  V30 6796 H 648.414 -0.00717047 -4.23999 0
M  V30 6797 C 646.873 1.05436 -3.19976 0
M  V30 6798 O 647.403 2.13483 -3.40276 0
M  V30 6799 N 645.609 0.975436 -2.7374 0
M  V30 6800 H 645.156 0.0960853 -2.57421 0
M  V30 6801 H 645.114 1.82501 -2.5601 0
M  V30 6802 N 648.886 1.2938 -0.899927 0
M  V30 6803 C 650.302 1.48052 -0.596059 0
M  V30 6804 C 650.502 1.82114 0.862372 0
M  V30 6805 O 649.558 1.91774 1.64253 0
M  V30 6806 C 650.871 2.59332 -1.52208 0
M  V30 6807 C 652.419 2.73208 -1.5273 0
M  V30 6808 C 652.894 3.87617 -2.43961 0
M  V30 6809 N 654.385 3.9495 -2.42009 0
M  V30 6810 C 655.12 4.82824 -3.09303 0
M  V30 6811 N 654.616 5.75387 -3.85877 0
M  V30 6812 N 656.409 4.76317 -2.98459 0
M  V30 6813 H 648.56 1.05546 -1.8432 0
M  V30 6814 H 650.823 0.524314 -0.78981 0
M  V30 6815 H 650.529 2.41029 -2.56121 0
M  V30 6816 H 650.403 3.56139 -1.24278 0
M  V30 6817 H 652.79 2.90908 -0.495614 0
M  V30 6818 H 652.871 1.76975 -1.84698 0
M  V30 6819 H 652.515 3.70672 -3.47224 0
M  V30 6820 H 652.445 4.83218 -2.09303 0
M  V30 6821 H 654.936 3.28744 -1.86375 0
M  V30 6822 H 655.249 6.39235 -4.34279 0
M  V30 6823 H 653.594 5.75272 -3.89984 0
M  V30 6824 H 656.785 4.0299 -2.38152 0
M  V30 6825 H 656.958 5.44589 -3.51179 0
M  V30 6826 N 650.364 0.662433 1.43002 0
M  V30 6827 C 651.274 -0.0239199 2.34588 0
M  V30 6828 C 652.29 -0.802255 1.54402 0
M  V30 6829 O 653.466 -0.747401 1.87018 0
M  V30 6830 C 650.531 -0.972098 3.32793 0
M  V30 6831 C 649.592 -0.189673 4.28881 0
M  V30 6832 C 648.825 -1.09269 5.22395 0
M  V30 6833 O 649.048 -2.33209 5.20547 0
M  V30 6834 O 647.982 -0.560136 5.99288 0
M  V30 6835 H 651.808 0.730171 2.94792 0
M  V30 6836 H 649.393 0.422635 1.43297 0
M  V30 6837 H 651.275 -1.51676 3.93157 0
M  V30 6838 H 649.95 -1.70626 2.75079 0
M  V30 6839 H 648.857 0.398794 3.71968 0
M  V30 6840 H 650.19 0.50511 4.89601 0
M  V30 6841 N 651.842 -1.52309 0.404946 0
M  V30 6842 C 653.119 -1.94237 -0.230544 0
M  V30 6843 C 653.499 -1.34154 -1.6299 0
M  V30 6844 O 652.847 -0.515713 -2.22604 0
M  V30 6845 C 653.057 -3.48166 -0.241106 0
M  V30 6846 C 654.405 -4.22074 -0.462488 0
M  V30 6847 O 655.429 -3.54754 -0.320644 0
M  V30 6848 O 654.288 -5.41443 -0.741708 0
M  V30 6849 H 651.382 -0.813766 -0.147358 0
M  V30 6850 H 653.928 -1.6333 0.460587 0
M  V30 6851 H 652.7 -3.84269 0.738467 0
M  V30 6852 H 652.323 -3.85422 -0.97651 0
M  V30 6853 N 653.32 -0.135238 -1.57019 0
M  V30 6854 C 654.568 0.51777 -1.95355 0
M  V30 6855 C 654.889 1.6617 -1.02042 0
M  V30 6856 O 654.159 1.95738 -0.0797343 0
M  V30 6857 H 652.739 0.194264 -0.721298 0
M  V30 6858 H 655.401 -0.207983 -1.93787 0
M  V30 6859 H 654.497 0.901675 -2.98791 0
M  V30 6860 N 654.798 1.5699 0.138552 0
M  V30 6861 C 656.028 1.87704 0.863184 0
M  V30 6862 C 656.436 0.722411 1.74865 0
M  V30 6863 O 655.779 -0.316636 1.80951 0
M  V30 6864 C 655.841 3.13219 1.76449 0
M  V30 6865 C 655.505 4.44648 1.05532 0
M  V30 6866 C 656.502 5.18318 0.405252 0
M  V30 6867 C 654.187 4.91367 1.04231 0
M  V30 6868 C 656.181 6.36916 -0.24835 0
M  V30 6869 C 653.868 6.09887 0.384904 0
M  V30 6870 C 654.866 6.82508 -0.259292 0
M  V30 6871 O 654.554 7.98775 -0.906258 0
M  V30 6872 H 654.286 0.626255 0.254521 0
M  V30 6873 H 656.84 2.04966 0.133472 0
M  V30 6874 H 655.07 2.91988 2.53535 0
M  V30 6875 H 656.759 3.30111 2.36181 0
M  V30 6876 H 657.525 4.83289 0.407053 0
M  V30 6877 H 653.404 4.34759 1.53315 0
M  V30 6878 H 656.948 6.93538 -0.751755 0
M  V30 6879 H 652.845 6.44376 0.380799 0
M  V30 6880 H 653.613 8.14494 -0.80877 0
M  V30 6881 N 656.276 -0.40816 1.52223 0
M  V30 6882 C 657.206 -1.5042 1.78595 0
M  V30 6883 C 658.187 -1.57723 0.636974 0
M  V30 6884 O 659.372 -1.72982 0.882664 0
M  V30 6885 C 656.502 -2.88232 1.93751 0
M  V30 6886 C 655.456 -2.95779 3.09352 0
M  V30 6887 C 654.782 -4.35855 3.09732 0
M  V30 6888 C 656.082 -2.67175 4.48793 0
M  V30 6889 H 657.776 -1.28601 2.70374 0
M  V30 6890 H 655.322 -0.617221 1.30101 0
M  V30 6891 H 657.275 -3.64895 2.10783 0
M  V30 6892 H 655.999 -3.11347 0.986443 0
M  V30 6893 H 654.658 -2.21561 2.92072 0
M  V30 6894 H 654.306 -4.55981 2.12346 0
M  V30 6895 H 654.006 -4.41829 3.87377 0
M  V30 6896 H 655.53 -5.14451 3.28895 0
M  V30 6897 H 656.944 -3.3356 4.66273 0
M  V30 6898 H 655.341 -2.84523 5.28362 0
M  V30 6899 H 656.411 -1.62609 4.56822 0
M  V30 6900 N 657.755 -1.42862 -0.66545 0
M  V30 6901 C 658.685 -1.49867 -1.79059 0
M  V30 6902 C 659.666 -0.354394 -1.66367 0
M  V30 6903 O 660.851 -0.569969 -1.85647 0
M  V30 6904 C 657.981 -1.40943 -3.17415 0
M  V30 6905 C 656.935 -2.53495 -3.44854 0
M  V30 6906 C 656.261 -2.29626 -4.82883 0
M  V30 6907 C 657.561 -3.95781 -3.40815 0
M  V30 6908 H 659.255 -2.44037 -1.73453 0
M  V30 6909 H 656.801 -1.17456 -0.833071 0
M  V30 6910 H 658.754 -1.4445 -3.95869 0
M  V30 6911 H 657.478 -0.432716 -3.23721 0
M  V30 6912 H 656.137 -2.4932 -2.68766 0
M  V30 6913 H 655.785 -1.30226 -4.8585 0
M  V30 6914 H 655.485 -3.05065 -5.02204 0
M  V30 6915 H 657.009 -2.34897 -5.63609 0
M  V30 6916 H 658.423 -4.01508 -4.09224 0
M  V30 6917 H 656.82 -4.71148 -3.71672 0
M  V30 6918 H 657.89 -4.21786 -2.39216 0
M  V30 6919 N 659.233 0.902656 -1.29189 0
M  V30 6920 C 660.481 1.6496 -1.16758 0
M  V30 6921 C 660.802 1.92952 0.28188 0
M  V30 6922 O 660.072 1.55351 1.19344 0
M  V30 6923 H 658.652 0.611447 -0.429118 0
M  V30 6924 H 661.314 1.0825 -1.62074 0
M  V30 6925 H 660.41 2.60728 -1.71544 0
M  V30 6926 N 660.711 1.11618 1.11262 0
M  V30 6927 C 661.641 0.79846 2.19424 0
M  V30 6928 C 662.622 -0.234003 1.68483 0
M  V30 6929 O 663.807 -0.0970704 1.93957 0
M  V30 6930 C 660.937 0.242892 3.4645 0
M  V30 6931 C 659.891 1.20744 4.10615 0
M  V30 6932 C 659.217 0.512494 5.32238 0
M  V30 6933 C 660.517 2.55884 4.55325 0
M  V30 6934 H 662.211 1.70286 2.46258 0
M  V30 6935 H 659.757 0.820195 1.18359 0
M  V30 6936 H 661.71 0.00840447 4.21399 0
M  V30 6937 H 660.434 -0.696811 3.1908 0
M  V30 6938 H 659.093 1.42759 3.37662 0
M  V30 6939 H 658.741 -0.432075 5.01141 0
M  V30 6940 H 658.441 1.15583 5.7612 0
M  V30 6941 H 659.965 0.286842 6.09926 0
M  V30 6942 H 661.379 2.37946 5.21588 0
M  V30 6943 H 659.776 3.16216 5.10027 0
M  V30 6944 H 660.846 3.14968 3.68678 0
M  V30 6945 N 662.189 -1.289 0.906776 0
M  V30 6946 C 663.466 -1.90221 0.455537 0
M  V30 6947 C 663.846 -1.82251 -1.06527 0
M  V30 6948 O 663.194 -1.25385 -1.91026 0
M  V30 6949 C 663.404 -3.35015 0.97806 0
M  V30 6950 C 664.752 -4.12018 1.02598 0
M  V30 6951 O 665.776 -3.43947 0.926218 0
M  V30 6952 O 664.635 -5.33677 1.17689 0
M  V30 6953 H 661.729 -0.814505 0.143214 0
M  V30 6954 H 664.275 -1.37317 0.997104 0
M  V30 6955 H 663.047 -3.35006 2.02204 0
M  V30 6956 H 662.67 -3.95408 0.416914 0
M  V30 6957 N 663.667 -0.670007 -1.42649 0
M  V30 6958 C 664.615 0.0230106 -2.32589 0
M  V30 6959 C 665.609 0.795585 -1.49555 0
M  V30 6960 O 666.815 0.70409 -1.65658 0
M  V30 6961 H 663.19 0.0262342 -0.751542 0
M  V30 6962 H 665.161 -0.753009 -2.88743 0
M  V30 6963 C 663.91 0.963872 -3.34073 0
M  V30 6964 H 663.233 0.378813 -3.98001 0
M  V30 6965 H 664.673 1.41755 -3.99602 0
M  V30 6966 C 663.132 2.06797 -2.65964 0
M  V30 6967 O 663.662 3.15383 -2.48789 0
M  V30 6968 N 661.868 1.83831 -2.25066 0
M  V30 6969 H 661.415 0.955235 -2.39234 0
M  V30 6970 H 661.373 2.57895 -1.79827 0
M  V30 6971 N 665.145 1.52092 -0.413018 0
M  V30 6972 C 666.075 2.30021 0.401567 0
M  V30 6973 C 667.056 1.34395 1.04269 0
M  V30 6974 O 668.241 1.63304 1.05097 0
M  V30 6975 C 665.371 3.12447 1.51638 0
M  V30 6976 C 664.325 4.16153 1.00005 0
M  V30 6977 C 663.651 4.86948 2.20875 0
M  V30 6978 C 664.951 5.22275 0.0513757 0
M  V30 6979 H 666.645 2.98365 -0.248704 0
M  V30 6980 H 664.191 1.4349 -0.121052 0
M  V30 6981 H 666.144 3.65733 2.09326 0
M  V30 6982 H 664.868 2.41879 2.19458 0
M  V30 6983 H 663.527 3.63882 0.445549 0
M  V30 6984 H 663.175 4.12905 2.8726 0
M  V30 6985 H 662.875 5.57057 1.86978 0
M  V30 6986 H 664.399 5.43048 2.79162 0
M  V30 6987 H 665.813 5.70778 0.537176 0
M  V30 6988 H 664.21 5.9977 -0.198977 0
M  V30 6989 H 665.28 4.76611 -0.892736 0
M  V30 6990 N 666.623 0.143563 1.56945 0
M  V30 6991 C 667.872 -0.50835 1.95189 0
M  V30 6992 C 668.185 -1.66239 1.03073 0
M  V30 6993 O 669.391 -2.3787 1.30882 0
M  V30 6994 C 667.847 -0.955735 3.46978 0
M  V30 6995 C 667.455 0.171183 4.47673 0
M  V30 6996 C 669.199 -1.57763 3.94095 0
M  V30 6997 C 667.106 -0.294279 5.90667 0
M  V30 6998 H 666.036 -0.193679 0.728701 0
M  V30 6999 H 668.687 0.227357 1.82086 0
M  V30 7000 H 667.069 -1.7466 3.55401 0
M  V30 7001 H 668.243 0.948049 4.50942 0
M  V30 7002 H 666.558 0.701273 4.10452 0
M  V30 7003 H 669.155 -1.93745 4.98364 0
M  V30 7004 H 669.498 -2.46531 3.35452 0
M  V30 7005 H 670.031 -0.851728 3.88575 0
M  V30 7006 H 666.77 0.557939 6.53121 0
M  V30 7007 H 666.29 -1.0371 5.90766 0
M  V30 7008 H 667.969 -0.747426 6.42668 0
M  V30 7009 N 668.101 -1.57061 -0.130224 0
M  V30 7010 C 669.349 -1.83893 -0.838313 0
M  V30 7011 C 669.67 -0.727046 -1.80939 0
M  V30 7012 O 668.94 0.249927 -1.94299 0
M  V30 7013 H 667.52 -0.67846 -0.312573 0
M  V30 7014 H 670.182 -1.94529 -0.120224 0
M  V30 7015 H 669.278 -2.79419 -1.39038 0
M  V30 7016 N 669.579 0.400081 -1.52437 0
M  V30 7017 C 670.828 1.14332 -1.66166 0
M  V30 7018 C 671.141 1.91419 -0.402253 0
M  V30 7019 O 672.347 2.6824 -0.419487 0
M  V30 7020 C 670.803 2.08137 -2.9361 0
M  V30 7021 C 670.411 1.36524 -4.26691 0
M  V30 7022 C 672.155 2.82664 -3.16703 0
M  V30 7023 C 670.062 2.29031 -5.45251 0
M  V30 7024 H 668.992 0.430499 -0.61902 0
M  V30 7025 H 671.643 0.407017 -1.78929 0
M  V30 7026 H 670.025 2.85358 -2.74567 0
M  V30 7027 H 671.199 0.646061 -4.56249 0
M  V30 7028 H 669.514 0.74002 -4.09771 0
M  V30 7029 H 672.111 3.52037 -4.0246 0
M  V30 7030 H 672.454 3.46122 -2.31312 0
M  V30 7031 H 672.987 2.12541 -3.36261 0
M  V30 7032 H 669.726 1.70206 -6.33017 0
M  V30 7033 H 669.246 2.98896 -5.2002 0
M  V30 7034 H 670.925 2.89359 -5.78689 0
M  V30 7035 N 671.057 1.43213 0.657864 0
M  V30 7036 C 671.987 1.50815 1.78262 0
M  V30 7037 C 672.968 0.363211 1.66177 0
M  V30 7038 O 674.153 0.579806 1.85343 0
M  V30 7039 C 671.283 1.42625 3.16663 0
M  V30 7040 C 670.237 2.5532 3.43505 0
M  V30 7041 C 669.563 2.32184 4.81658 0
M  V30 7042 C 670.863 3.97583 3.38711 0
M  V30 7043 H 672.557 2.44954 1.72157 0
M  V30 7044 H 670.103 1.17896 0.82683 0
M  V30 7045 H 672.056 1.46548 3.95097 0
M  V30 7046 H 670.78 0.449877 3.23487 0
M  V30 7047 H 669.439 2.50742 2.6744 0
M  V30 7048 H 669.087 1.32801 4.85153 0
M  V30 7049 H 668.787 3.07724 5.00579 0
M  V30 7050 H 670.311 2.37883 5.62356 0
M  V30 7051 H 671.725 4.03673 4.07089 0
M  V30 7052 H 670.122 4.73112 3.69168 0
M  V30 7053 H 671.192 4.23049 2.36976 0
M  V30 7054 N 672.536 -0.895792 1.29666 0
M  V30 7055 C 673.499 -1.98189 1.15124 0
M  V30 7056 C 674.499 -1.60572 0.0855717 0
M  V30 7057 O 675.689 -1.70991 0.332826 0
M  V30 7058 C 672.821 -3.32289 0.761372 0
M  V30 7059 H 674.014 -2.12518 2.11603 0
M  V30 7060 H 671.567 -1.0808 1.12908 0
M  V30 7061 H 672.302 -3.23662 -0.203393 0
M  V30 7062 H 672.087 -3.60958 1.53139 0
M  V30 7063 H 673.577 -4.1198 0.682792 0
M  V30 7064 N 674.014 -1.12206 -1.10668 0
M  V30 7065 C 675.239 -0.898938 -1.86906 0
M  V30 7066 C 675.664 0.546346 -1.79991 0
M  V30 7067 O 675.022 1.38655 -1.1681 0
M  V30 7068 C 675.07 -1.37529 -3.33344 0
M  V30 7069 O 674.174 -0.55218 -4.08687 0
M  V30 7070 H 673.515 -0.323163 -0.580053 0
M  V30 7071 H 676.045 -1.49355 -1.39837 0
M  V30 7072 H 676.055 -1.3733 -3.84193 0
M  V30 7073 H 674.73 -2.42767 -3.37693 0
M  V30 7074 H 673.307 -0.620947 -3.67694 0
M  V30 7075 N 675.492 1.28418 -0.913599 0
M  V30 7076 C 676.422 2.29713 -0.418847 0
M  V30 7077 C 677.403 1.62165 0.513469 0
M  V30 7078 O 678.588 1.89576 0.421235 0
M  V30 7079 C 675.718 3.45612 0.342042 0
M  V30 7080 C 674.672 4.25056 -0.501123 0
M  V30 7081 C 673.998 5.3329 0.388097 0
M  V30 7082 C 675.298 4.91814 -1.75831 0
M  V30 7083 H 676.992 2.71346 -1.26538 0
M  V30 7084 H 674.538 1.30446 -0.609903 0
M  V30 7085 H 676.491 4.15562 0.699 0
M  V30 7086 H 675.215 3.02858 1.22248 0
M  V30 7087 H 673.874 3.56833 -0.840598 0
M  V30 7088 H 673.522 4.8678 1.26707 0
M  V30 7089 H 673.222 5.87347 -0.172459 0
M  V30 7090 H 674.746 6.06088 0.74094 0
M  V30 7091 H 676.16 5.54126 -1.47026 0
M  V30 7092 H 674.557 5.55866 -2.26126 0
M  V30 7093 H 675.627 4.16313 -2.4862 0
M  V30 7094 N 676.97 0.677563 1.42291 0
M  V30 7095 C 677.933 0.0101085 2.29198 0
M  V30 7096 C 678.933 -0.726219 1.43467 0
M  V30 7097 O 680.123 -0.563807 1.64824 0
M  V30 7098 C 677.255 -0.996316 3.26016 0
M  V30 7099 H 678.448 0.775071 2.89711 0
M  V30 7100 H 676.001 0.440065 1.49977 0
M  V30 7101 H 676.736 -1.78967 2.70446 0
M  V30 7102 H 676.521 -0.471687 3.89253 0
M  V30 7103 H 678.011 -1.46167 3.91184 0
M  V30 7104 N 678.448 -1.51871 0.421078 0
M  V30 7105 C 679.358 -2.31077 -0.405069 0
M  V30 7106 C 680.374 -1.39301 -1.04265 0
M  V30 7107 O 681.55 -1.72376 -1.04157 0
M  V30 7108 C 678.615 -3.12556 -1.50032 0
M  V30 7109 C 677.676 -4.20088 -0.884559 0
M  V30 7110 C 676.909 -4.97673 -1.92762 0
M  V30 7111 O 677.132 -4.75696 -3.14753 0
M  V30 7112 O 676.066 -5.82203 -1.52719 0
M  V30 7113 H 679.892 -3.02742 0.241086 0
M  V30 7114 H 677.477 -1.48263 0.183991 0
M  V30 7115 H 679.359 -3.6326 -2.13589 0
M  V30 7116 H 678.034 -2.43672 -2.13086 0
M  V30 7117 H 676.941 -3.73502 -0.211379 0
M  V30 7118 H 678.274 -4.91298 -0.297763 0
M  V30 7119 N 679.926 -0.151884 -1.56866 0
M  V30 7120 C 681.342 0.204486 -1.58285 0
M  V30 7121 C 681.542 1.6431 -1.16639 0
M  V30 7122 O 680.598 2.37077 -0.868946 0
M  V30 7123 C 681.911 -0.0587019 -3.00643 0
M  V30 7124 C 683.459 0.00462303 -3.13 0
M  V30 7125 C 683.934 -0.231297 -4.57416 0
M  V30 7126 N 685.425 -0.178394 -4.62856 0
M  V30 7127 C 686.16 -0.335379 -5.72418 0
M  V30 7128 N 685.656 -0.550355 -6.90611 0
M  V30 7129 N 687.449 -0.272641 -5.61438 0
M  V30 7130 H 679.6 -1.09116 -1.82229 0
M  V30 7131 H 681.863 -0.432311 -0.843689 0
M  V30 7132 H 681.569 -1.05453 -3.35518 0
M  V30 7133 H 681.443 0.658508 -3.71407 0
M  V30 7134 H 683.83 0.991009 -2.77962 0
M  V30 7135 H 683.911 -0.744992 -2.44711 0
M  V30 7136 H 683.555 -1.2148 -4.93158 0
M  V30 7137 H 683.485 0.5387 -5.23837 0
M  V30 7138 H 685.976 -0.0170923 -3.77896 0
M  V30 7139 H 686.289 -0.660116 -7.69976 0
M  V30 7140 H 684.634 -0.586736 -6.92519 0
M  V30 7141 H 687.825 -0.105421 -4.67981 0
M  V30 7142 H 687.998 -0.398418 -6.46774 0
M  V30 7143 O 681.443 1.61494 -0.0134355 0
M  V30 7144 H 682.134 1.84128 0.601368 0
M  V30 END ATOM
M  V30 BEGIN BOND
M  V30 END BOND
M  V30 END CTAB
M  END
$$$$
