drugbank_target|P23743 Diacylglycerol kinase alpha (DB00163)
 OpenBabel12092120093D

  0  0  0     0  0            999 V3000
M  V30 BEGIN CTAB
M  V30 COUNTS 11586 11714 0 0 0
M  V30 BEGIN ATOM
M  V30 1 H -0.908 1.98254 -0.117106 0
M  V30 2 N 0 1.576 0 0
M  V30 3 C 0.933 2.03868 1.02534 0
M  V30 4 C 1.911 0.928543 1.3348 0
M  V30 5 O 3.095 1.19667 1.45644 0
M  V30 6 C 0.222 2.43627 2.35294 0
M  V30 7 C -0.732 3.65373 2.2001 0
M  V30 8 S 0.101 5.13292 1.52614 0
M  V30 9 C 1.257 5.56322 2.86805 0
M  V30 10 H 1.49 2.90518 0.631377 0
M  V30 11 H -0.977 1.52953 0.210867 0
M  V30 12 H 0.981 2.67203 3.11629 0
M  V30 13 H -0.358 1.57376 2.7183 0
M  V30 14 H -1.165 3.90944 3.18086 0
M  V30 15 H -1.563 3.418 1.51819 0
M  V30 16 H 0.729 5.58782 3.83104 0
M  V30 17 H 1.672 6.56266 2.65933 0
M  V30 18 H 2.08 4.83886 2.90714 0
M  V30 19 N 1.4781 -0.272755 1.55222 0
M  V30 20 C 2.4411 -1.32041 1.87344 0
M  V30 21 C 3.4411 -1.42342 0.74803 0
M  V30 22 O 4.6311 -1.41488 1.0162 0
M  V30 23 C 1.7631 -2.70173 2.07893 0
M  V30 24 H 2.9561 -1.04789 2.80997 0
M  V30 25 H 0.5091 -0.51083 1.47717 0
M  V30 26 H 1.2441 -3.02605 1.16622 0
M  V30 27 H 1.0291 -2.64082 2.89833 0
M  V30 28 H 2.5191 -3.45869 2.34017 0
M  V30 29 N 2.9562 -1.48159 -0.537278 0
M  V30 30 C 3.9032 -1.62138 -1.64256 0
M  V30 31 C 4.8732 -0.463668 -1.59497 0
M  V30 32 O 6.0582 -0.686241 -1.78032 0
M  V30 33 C 3.1982 -1.66028 -3.02537 0
M  V30 34 C 2.3112 -2.92855 -3.17585 0
M  V30 35 C 1.4462 -2.87952 -4.46382 0
M  V30 36 C 0.4852 -4.09516 -4.54932 0
M  V30 37 N -0.3778 -4.02733 -5.75109 0
M  V30 38 H 4.4622 -2.56529 -1.51647 0
M  V30 39 H 1.9992 -1.27224 -0.738414 0
M  V30 40 H 3.9572 -1.66265 -3.82638 0
M  V30 41 H 2.5872 -0.751331 -3.13934 0
M  V30 42 H 1.6392 -3.02395 -2.30784 0
M  V30 43 H 2.9512 -3.82822 -3.19764 0
M  V30 44 H 2.1052 -2.8655 -5.34765 0
M  V30 45 H 0.8442 -1.95702 -4.46712 0
M  V30 46 H -0.1508 -4.11201 -3.64957 0
M  V30 47 H 1.0742 -5.02917 -4.56346 0
M  V30 48 H -0.9798 -3.13299 -5.76351 0
M  V30 49 H -1.0628 -4.86397 -5.78752 0
M  V30 50 H 0.2052 -4.05379 -6.65799 0
M  V30 51 N 4.4343 0.785586 -1.36625 0
M  V30 52 C 5.3443 1.92964 -1.33425 0
M  V30 53 C 6.3603 1.72394 -0.235851 0
M  V30 54 O 7.5363 1.95866 -0.468878 0
M  V30 55 C 4.6013 3.27884 -1.12662 0
M  V30 56 C 3.6623 3.61204 -2.32013 0
M  V30 57 C 2.8953 4.89687 -2.12231 0
M  V30 58 O 3.1183 5.59704 -1.09945 0
M  V30 59 O 2.0523 5.21752 -3.00098 0
M  V30 60 H 5.8783 1.98613 -2.29753 0
M  V30 61 H 3.4633 0.926384 -1.17211 0
M  V30 62 H 5.3453 4.08614 -1.03016 0
M  V30 63 H 4.0203 3.23118 -0.193991 0
M  V30 64 H 2.9273 2.80765 -2.47228 0
M  V30 65 H 4.2603 3.70698 -3.23796 0
M  V30 66 N 5.9124 1.20967 1.01018 0
M  V30 67 C 7.3284 0.965905 1.27053 0
M  V30 68 C 7.5284 -0.350785 1.98423 0
M  V30 69 O 6.5844 -1.07773 2.28344 0
M  V30 70 C 7.8974 2.15294 2.09926 0
M  V30 71 C 9.4454 2.19463 2.23171 0
M  V30 72 C 9.9204 3.3767 3.09424 0
M  V30 73 N 11.4114 3.37724 3.17012 0
M  V30 74 C 12.1464 4.25837 3.83993 0
M  V30 75 N 11.6424 5.24138 4.53047 0
M  V30 76 N 13.4354 4.1366 3.80581 0
M  V30 77 H 5.5864 2.0565 0.531194 0
M  V30 78 H 7.8494 0.90024 0.297106 0
M  V30 79 H 7.5554 3.10684 1.64828 0
M  V30 80 H 7.4294 2.13923 3.10672 0
M  V30 81 H 9.8164 1.24632 2.6749 0
M  V30 82 H 9.8974 2.2488 1.21912 0
M  V30 83 H 9.5414 4.32791 2.65808 0
M  V30 84 H 9.4714 3.29491 4.10784 0
M  V30 85 H 11.9624 2.6658 2.6785 0
M  V30 86 H 12.2754 5.87684 5.01844 0
M  V30 87 H 10.6204 5.28068 4.5185 0
M  V30 88 H 13.8114 3.36127 3.25785 0
M  V30 89 H 13.9844 4.82538 4.32505 0
M  V30 90 N 7.3905 -1.2043 1.01659 0
M  V30 91 C 8.6385 -1.89423 0.704522 0
M  V30 92 C 8.9595 -1.79231 -0.768197 0
M  V30 93 O 8.2295 -1.1947 -1.55254 0
M  V30 94 H 6.8095 -0.701178 0.257602 0
M  V30 95 H 9.4715 -1.4626 1.28818 0
M  V30 96 H 8.5675 -2.96052 0.987916 0
M  V30 97 N 8.8686 -0.792821 -1.36206 0
M  V30 98 C 9.7986 -0.207853 -2.32573 0
M  V30 99 C 10.7796 0.659055 -1.56813 0
M  V30 100 O 11.9646 0.592176 -1.84951 0
M  V30 101 C 9.0946 0.655449 -3.41059 0
M  V30 102 C 8.0486 -0.111842 -4.27854 0
M  V30 103 C 7.3746 0.872274 -5.27537 0
M  V30 104 C 8.6746 -1.30299 -5.05786 0
M  V30 105 H 10.3686 -1.01294 -2.81744 0
M  V30 106 H 7.9146 -0.48854 -1.3546 0
M  V30 107 H 9.8676 1.07464 -4.07467 0
M  V30 108 H 8.5916 1.49328 -2.90463 0
M  V30 109 H 7.2506 -0.512053 -3.63006 0
M  V30 110 H 6.8986 1.70523 -4.73214 0
M  V30 111 H 6.5986 0.363291 -5.86476 0
M  V30 112 H 8.1226 1.28996 -5.96818 0
M  V30 113 H 9.5366 -0.959379 -5.65216 0
M  V30 114 H 7.9336 -1.7455 -5.74154 0
M  V30 115 H 9.0036 -2.09663 -4.37229 0
M  V30 116 N 10.3467 1.47872 -0.545128 0
M  V30 117 C 11.5957 2.01695 -0.0145033 0
M  V30 118 C 11.9087 1.42609 1.33873 0
M  V30 119 O 13.1147 1.88021 1.95858 0
M  V30 120 C 11.5707 3.59892 0.0245068 0
M  V30 121 C 11.1787 4.27966 -1.32475 0
M  V30 122 C 12.9227 4.21507 0.50316 0
M  V30 123 C 10.8297 5.78136 -1.2455 0
M  V30 124 H 9.7597 0.753998 -0.00165172 0
M  V30 125 H 12.4107 1.69985 -0.691175 0
M  V30 126 H 10.7927 3.88509 0.766575 0
M  V30 127 H 11.9667 4.11003 -2.08357 0
M  V30 128 H 10.2817 3.78286 -1.74036 0
M  V30 129 H 12.8787 5.31538 0.580656 0
M  V30 130 H 13.2217 3.87855 1.51243 0
M  V30 131 H 13.7547 3.97376 -0.183681 0
M  V30 132 H 10.4937 6.16388 -2.23039 0
M  V30 133 H 10.0137 5.97469 -0.528282 0
M  V30 134 H 11.6927 6.40099 -0.942488 0
M  V30 135 N 11.8248 0.280983 1.55075 0
M  V30 136 C 13.0498 -0.340154 2.04592 0
M  V30 137 C 13.4748 -1.48246 1.15779 0
M  V30 138 O 12.8328 -1.80614 0.15761 0
M  V30 139 C 12.8808 -0.793104 3.5177 0
M  V30 140 O 11.9848 -1.89981 3.66034 0
M  V30 141 H 11.3258 -0.0694289 0.66036 0
M  V30 142 H 13.8558 0.416993 2.00306 0
M  V30 143 H 13.8658 -1.08729 3.93245 0
M  V30 144 H 12.5408 0.0426163 4.15878 0
M  V30 145 H 11.1178 -1.60771 3.36463 0
M  V30 146 N 13.3029 -1.57598 0.00835791 0
M  V30 147 C 14.7139 -1.7892 -0.53333 0
M  V30 148 C 15.0649 -0.916609 -1.73473 0
M  V30 149 O 14.1899 -0.121336 -2.1606 0
M  V30 150 C 14.7849 -3.24488 -0.974313 0
M  V30 151 C 13.3439 -3.46878 -1.46125 0
M  V30 152 C 12.4909 -2.74157 -0.416302 0
M  V30 153 H 15.4419 -1.56958 0.234495 0
M  V30 154 H 15.4629 -3.3306 -1.83988 0
M  V30 155 H 14.9749 -3.87972 -0.099718 0
M  V30 156 H 13.0759 -2.8862 -2.35646 0
M  V30 157 H 13.1889 -4.55572 -1.48295 0
M  V30 158 H 11.5529 -2.39022 -0.87981 0
M  V30 159 H 12.3359 -3.40345 0.44947 0
M  V30 160 N 14.781 0.264519 -1.55364 0
M  V30 161 C 16.006 1.01726 -1.80739 0
M  V30 162 C 16.431 1.78836 -0.583044 0
M  V30 163 O 15.789 1.75167 0.467566 0
M  V30 164 C 15.837 1.94482 -3.03659 0
M  V30 165 O 14.941 3.03386 -2.7934 0
M  V30 166 H 14.282 0.290395 -0.597132 0
M  V30 167 H 16.812 0.290854 -2.02522 0
M  V30 168 H 16.822 2.36278 -3.32621 0
M  V30 169 H 15.497 1.37772 -3.92418 0
M  V30 170 H 14.074 2.65844 -2.61498 0
M  V30 171 N 16.2591 1.48442 0.529413 0
M  V30 172 C 17.5361 1.46978 1.29062 0
M  V30 173 C 17.9161 0.181769 2.10316 0
M  V30 174 O 17.2641 -0.836481 2.12639 0
M  V30 175 C 17.4741 2.7321 2.17157 0
M  V30 176 C 18.8221 3.21562 2.77278 0
M  V30 177 O 19.8461 2.74131 2.27444 0
M  V30 178 O 18.7051 4.04094 3.67927 0
M  V30 179 H 15.7991 0.587003 0.582543 0
M  V30 180 H 18.3451 1.60676 0.546021 0
M  V30 181 H 17.1171 3.58465 1.56903 0
M  V30 182 H 16.7401 2.62235 2.98862 0
M  V30 183 N 17.7372 -0.778329 1.37039 0
M  V30 184 C 18.9842 -1.53665 1.31884 0
M  V30 185 C 19.3122 -1.9425 -0.0986303 0
M  V30 186 O 18.5672 -1.63832 -1.07041 0
M  V30 187 C 18.8662 -2.81845 2.19768 0
M  V30 188 C 18.5322 -2.60345 3.68146 0
M  V30 189 C 17.1942 -2.5419 4.08584 0
M  V30 190 C 19.5462 -2.40923 4.62175 0
M  V30 191 C 16.8742 -2.26594 5.41177 0
M  V30 192 C 19.2262 -2.14852 5.94997 0
M  V30 193 C 17.8902 -2.07137 6.34547 0
M  V30 194 H 17.1602 -0.562299 0.482598 0
M  V30 195 H 19.8072 -0.897069 1.69189 0
M  V30 196 H 18.1122 -3.50328 1.75436 0
M  V30 197 H 19.8092 -3.39692 2.13097 0
M  V30 198 H 16.3992 -2.65996 3.36072 0
M  V30 199 H 20.5832 -2.44673 4.31797 0
M  V30 200 H 15.8392 -2.19111 5.70789 0
M  V30 201 H 20.0132 -1.98822 6.67415 0
M  V30 202 H 17.6402 -1.85518 7.37216 0
M  V30 203 N 19.2153 -1.21501 -1.00376 0
M  V30 204 C 20.1783 -0.976927 -2.07337 0
M  V30 205 C 21.1783 0.0525322 -1.60714 0
M  V30 206 O 22.3683 -0.184869 -1.73216 0
M  V30 207 C 19.5003 -0.473423 -3.37597 0
M  V30 208 H 20.6933 -1.92587 -2.29892 0
M  V30 209 H 18.2463 -1.03217 -1.17371 0
M  V30 210 H 18.9813 0.480379 -3.20722 0
M  V30 211 H 18.7663 -1.216 -3.72768 0
M  V30 212 H 20.2563 -0.32675 -4.1632 0
M  V30 213 N 20.6934 1.19889 -1.02296 0
M  V30 214 C 21.6254 2.22334 -0.556787 0
M  V30 215 C 22.6384 1.58674 0.364199 0
M  V30 216 O 23.8274 1.77768 0.161533 0
M  V30 217 C 20.9274 3.38257 0.208694 0
M  V30 218 C 20.1004 4.31504 -0.71577 0
M  V30 219 C 19.1594 5.262 0.00325597 0
M  V30 220 O 18.1854 5.65798 -0.621357 0
M  V30 221 N 19.3874 5.66303 1.27599 0
M  V30 222 H 22.1524 2.62957 -1.43784 0
M  V30 223 H 19.7134 1.34495 -0.901261 0
M  V30 224 H 21.7054 3.98616 0.699111 0
M  V30 225 H 20.2754 2.96472 0.991102 0
M  V30 226 H 19.4954 3.69016 -1.38638 0
M  V30 227 H 20.7834 4.9072 -1.34428 0
M  V30 228 H 20.1814 5.36155 1.80429 0
M  V30 229 H 18.7384 6.28942 1.71102 0
M  V30 230 N 22.1715 0.800033 1.35784 0
M  V30 231 C 23.1015 0.220184 2.3246 0
M  V30 232 C 24.0825 -0.65073 1.57161 0
M  V30 233 O 25.2675 -0.582359 1.85263 0
M  V30 234 C 22.3975 -0.637353 3.41402 0
M  V30 235 C 21.3515 0.134531 4.27789 0
M  V30 236 C 20.6775 -0.844285 5.27992 0
M  V30 237 C 21.9775 1.32979 5.05088 0
M  V30 238 H 23.6715 1.02787 2.81203 0
M  V30 239 H 21.2175 0.495717 1.35199 0
M  V30 240 H 23.1705 -1.05302 4.08031 0
M  V30 241 H 21.8945 -1.47785 2.91251 0
M  V30 242 H 20.5535 0.531296 3.6273 0
M  V30 243 H 20.2015 -1.68011 4.74111 0
M  V30 244 H 19.9015 -0.332184 5.8666 0
M  V30 245 H 21.4255 -1.2583 5.97494 0
M  V30 246 H 22.8395 0.98934 5.64699 0
M  V30 247 H 21.2365 1.77593 5.7322 0
M  V30 248 H 22.3065 2.11978 4.36111 0
M  V30 249 N 23.6496 -1.47581 0.552962 0
M  V30 250 C 24.5816 -2.27997 -0.234533 0
M  V30 251 C 25.5946 -1.36753 -0.883321 0
M  V30 252 O 26.7836 -1.61612 -0.757889 0
M  V30 253 C 23.8836 -3.10879 -1.34935 0
M  V30 254 C 23.0566 -4.30056 -0.798158 0
M  V30 255 C 22.1156 -4.94567 -1.79694 0
M  V30 256 O 21.1416 -5.53087 -1.34474 0
M  V30 257 N 22.3436 -4.88878 -3.13015 0
M  V30 258 H 25.1086 -2.96222 0.455255 0
M  V30 259 H 22.6696 -1.57163 0.388761 0
M  V30 260 H 24.6616 -3.50903 -2.01616 0
M  V30 261 H 23.2316 -2.44924 -1.94244 0
M  V30 262 H 22.4516 -3.94174 0.0453079 0
M  V30 263 H 23.7396 -5.07152 -0.409173 0
M  V30 264 H 23.1376 -4.42526 -3.52402 0
M  V30 265 H 21.6946 -5.32934 -3.75266 0
M  V30 266 N 25.1277 -0.289203 -1.54924 0
M  V30 267 C 26.0747 0.592115 -2.23075 0
M  V30 268 C 27.0447 1.13881 -1.20915 0
M  V30 269 O 28.2297 1.18551 -1.495 0
M  V30 270 C 25.3697 1.76376 -2.96623 0
M  V30 271 C 24.4827 1.24959 -4.13533 0
M  V30 272 C 23.6177 2.38416 -4.74691 0
M  V30 273 C 22.6567 1.84072 -5.83767 0
M  V30 274 N 21.7937 2.91057 -6.38929 0
M  V30 275 H 26.6337 0.00432038 -2.98 0
M  V30 276 H 24.1707 -0.00963529 -1.47097 0
M  V30 277 H 26.1287 2.45268 -3.3749 0
M  V30 278 H 24.7587 2.32337 -2.24097 0
M  V30 279 H 23.8107 0.453307 -3.77689 0
M  V30 280 H 25.1227 0.811662 -4.92152 0
M  V30 281 H 24.2767 3.15276 -5.18349 0
M  V30 282 H 23.0157 2.8553 -3.95378 0
M  V30 283 H 22.0207 1.05697 -5.39545 0
M  V30 284 H 23.2457 1.37877 -6.64956 0
M  V30 285 H 21.1917 3.37526 -5.62505 0
M  V30 286 H 21.1087 2.51724 -7.12861 0
M  V30 287 H 22.3767 3.6785 -6.87246 0
M  V30 288 N 26.6058 1.57591 -0.0167156 0
M  V30 289 C 27.8358 1.95292 0.674149 0
M  V30 290 C 28.2438 0.891097 1.66901 0
M  V30 291 O 27.5868 -0.136908 1.83189 0
M  V30 292 C 27.6488 3.29072 1.44747 0
M  V30 293 C 27.3128 4.52879 0.612331 0
M  V30 294 C 28.3098 5.1979 -0.107126 0
M  V30 295 C 25.9948 4.99242 0.553381 0
M  V30 296 C 27.9888 6.31375 -0.874339 0
M  V30 297 C 25.6758 6.10713 -0.217546 0
M  V30 298 C 26.6738 6.76637 -0.930123 0
M  V30 299 O 26.3618 7.85969 -1.68844 0
M  V30 300 H 26.0938 0.648275 0.191615 0
M  V30 301 H 28.6478 2.05284 -0.0690148 0
M  V30 302 H 26.8778 3.15535 2.2355 0
M  V30 303 H 28.5668 3.51764 2.02526 0
M  V30 304 H 29.3328 4.84948 -0.0708392 0
M  V30 305 H 25.2118 4.47744 1.09757 0
M  V30 306 H 28.7558 6.82764 -1.43106 0
M  V30 307 H 24.6528 6.44994 -0.255593 0
M  V30 308 H 25.4208 8.02571 -1.6069 0
M  V30 309 N 28.0839 -0.256276 1.55502 0
M  V30 310 C 29.0169 -1.34321 1.84481 0
M  V30 311 C 29.9949 -1.46802 0.699131 0
M  V30 312 O 31.1789 -1.63165 0.943904 0
M  V30 313 C 28.3059 -2.71779 2.02123 0
M  V30 314 C 27.3519 -2.76496 3.24734 0
M  V30 315 S 28.1849 -2.3405 4.81644 0
M  V30 316 C 29.3409 -3.73452 5.02279 0
M  V30 317 H 29.5739 -1.09539 2.76385 0
M  V30 318 H 27.1069 -0.45678 1.47489 0
M  V30 319 H 29.0649 -3.50932 2.12972 0
M  V30 320 H 27.7259 -2.93803 1.11078 0
M  V30 321 H 26.9189 -3.77424 3.34016 0
M  V30 322 H 26.5209 -2.05379 3.12563 0
M  V30 323 H 28.8129 -4.6887 4.89047 0
M  V30 324 H 29.7559 -3.6911 6.04287 0
M  V30 325 H 30.1639 -3.6553 4.30172 0
M  V30 326 N 29.562 -1.4872 -0.521534 0
M  V30 327 C 30.472 -1.66569 -1.65203 0
M  V30 328 C 31.488 -0.548197 -1.65139 0
M  V30 329 O 32.664 -0.820339 -1.83936 0
M  V30 330 C 29.729 -1.70917 -3.01642 0
M  V30 331 C 28.79 -2.94356 -3.12495 0
M  V30 332 C 28.023 -2.98487 -4.42426 0
M  V30 333 O 28.246 -2.10786 -5.30024 0
M  V30 334 O 27.18 -3.90746 -4.57822 0
M  V30 335 H 31.006 -2.62298 -1.5308 0
M  V30 336 H 28.591 -1.3222 -0.695565 0
M  V30 337 H 30.473 -1.7625 -3.82771 0
M  V30 338 H 29.148 -0.783633 -3.14071 0
M  V30 339 H 28.055 -2.94552 -2.3063 0
M  V30 340 H 29.388 -3.86322 -3.04986 0
M  V30 341 N 31.0401 0.771051 -1.3745 0
M  V30 342 C 32.2701 1.55789 -1.35696 0
M  V30 343 C 32.6781 1.89107 0.0594523 0
M  V30 344 O 32.0211 1.51984 1.03183 0
M  V30 345 C 32.0831 2.89515 -2.13123 0
M  V30 346 C 31.7471 2.78829 -3.62082 0
M  V30 347 C 32.7441 2.49812 -4.5595 0
M  V30 348 C 30.4291 2.9683 -4.05213 0
M  V30 349 C 32.4231 2.38923 -5.90927 0
M  V30 350 C 30.1101 2.85562 -5.40276 0
M  V30 351 C 31.1081 2.56649 -6.32946 0
M  V30 352 O 30.7961 2.45408 -7.65526 0
M  V30 353 H 30.5281 0.489257 -0.466481 0
M  V30 354 H 33.0821 0.963446 -1.81403 0
M  V30 355 H 31.3121 3.51081 -1.62107 0
M  V30 356 H 33.0011 3.50915 -2.03994 0
M  V30 357 H 33.7671 2.3559 -4.23937 0
M  V30 358 H 29.6461 3.18335 -3.33442 0
M  V30 359 H 33.1901 2.16277 -6.63227 0
M  V30 360 H 29.0871 2.99351 -5.71891 0
M  V30 361 H 29.8551 2.60753 -7.75855 0
M  V30 362 N 32.5182 1.22032 0.997298 0
M  V30 363 C 33.7432 1.06921 1.77715 0
M  V30 364 C 34.1682 -0.376226 1.84299 0
M  V30 365 O 33.5262 -1.27165 1.29223 0
M  V30 366 C 33.5742 1.67996 3.19076 0
M  V30 367 O 32.6782 0.930653 4.01762 0
M  V30 368 H 32.0192 0.375814 0.547412 0
M  V30 369 H 34.5492 1.61737 1.25309 0
M  V30 370 H 34.5592 1.72538 3.69723 0
M  V30 371 H 33.2342 2.73182 3.13599 0
M  V30 372 H 31.8112 0.960917 3.60307 0
M  V30 373 N 33.9963 -1.19345 1.0293 0
M  V30 374 C 35.2243 -1.92997 0.745644 0
M  V30 375 C 35.6393 -1.75519 -0.695589 0
M  V30 376 O 34.9963 -1.07737 -1.47306 0
M  V30 377 C 35.0473 -3.44741 1.08792 0
M  V30 378 O 34.7683 -3.61658 2.47256 0
M  V30 379 C 36.2693 -4.35515 0.827129 0
M  V30 380 H 33.4893 -0.613042 0.272801 0
M  V30 381 H 36.0333 -1.51473 1.3739 0
M  V30 382 H 34.1883 -3.84097 0.504832 0
M  V30 383 H 34.6023 -4.55514 2.60015 0
M  V30 384 H 36.0763 -5.40589 1.11658 0
M  V30 385 H 36.5533 -4.38552 -0.238436 0
M  V30 386 H 37.1593 -4.01841 1.39297 0
M  V30 387 N 35.4744 -0.807222 -1.35358 0
M  V30 388 C 36.4214 -0.216037 -2.29787 0
M  V30 389 C 37.3914 0.650278 -1.52842 0
M  V30 390 O 38.5764 0.595227 -1.81278 0
M  V30 391 C 35.7164 0.628893 -3.39321 0
M  V30 392 C 34.8294 -0.257927 -4.31229 0
M  V30 393 C 33.9644 0.595069 -5.27856 0
M  V30 394 C 33.0034 -0.292111 -6.11403 0
M  V30 395 N 32.1404 0.520895 -7.00165 0
M  V30 396 H 36.9804 -1.02671 -2.79755 0
M  V30 397 H 34.5174 -0.517839 -1.37684 0
M  V30 398 H 36.4754 1.13393 -4.01494 0
M  V30 399 H 35.1054 1.40482 -2.90628 0
M  V30 400 H 34.1574 -0.881076 -3.70056 0
M  V30 401 H 35.4694 -0.940759 -4.89848 0
M  V30 402 H 34.6234 1.16522 -5.95405 0
M  V30 403 H 33.3624 1.31146 -4.69736 0
M  V30 404 H 32.3674 -0.874525 -5.428 0
M  V30 405 H 33.5924 -1.00638 -6.71602 0
M  V30 406 H 31.5384 1.22125 -6.44532 0
M  V30 407 H 31.4554 -0.103877 -7.55929 0
M  V30 408 H 32.7234 1.0743 -7.72062 0
M  V30 409 N 36.9525 1.47285 -0.560781 0
M  V30 410 C 37.8995 2.30058 0.18491 0
M  V30 411 C 38.8695 1.39281 0.904986 0
M  V30 412 O 40.0545 1.68241 0.899979 0
M  V30 413 C 37.1945 3.23317 1.20666 0
M  V30 414 C 36.3075 4.29186 0.492285 0
M  V30 415 C 35.4425 5.09592 1.49964 0
M  V30 416 C 34.4815 6.07232 0.770439 0
M  V30 417 N 33.6185 6.80584 1.72479 0
M  V30 418 H 38.4585 2.93302 -0.527048 0
M  V30 419 H 35.9955 1.44568 -0.271738 0
M  V30 420 H 37.9535 3.75811 1.81168 0
M  V30 421 H 36.5835 2.61929 1.88661 0
M  V30 422 H 35.6355 3.7972 -0.227333 0
M  V30 423 H 36.9475 4.98738 -0.0787929 0
M  V30 424 H 36.1015 5.66254 2.17809 0
M  V30 425 H 34.8405 4.3995 2.10464 0
M  V30 426 H 33.8455 5.49745 0.0780846 0
M  V30 427 H 35.0705 6.78884 0.171134 0
M  V30 428 H 33.0165 6.1367 2.3183 0
M  V30 429 H 32.9335 7.46319 1.20596 0
M  V30 430 H 34.2015 7.41818 2.39428 0
M  V30 431 N 38.4306 0.297415 1.54768 0
M  V30 432 C 39.6766 -0.313376 2.00364 0
M  V30 433 C 40.0096 -1.53815 1.18553 0
M  V30 434 O 39.2846 -1.92739 0.261103 0
M  V30 435 C 39.5676 -0.673525 3.53745 0
M  V30 436 C 39.4206 0.560133 4.46299 0
M  V30 437 C 40.7396 -1.50143 4.13697 0
M  V30 438 H 37.8586 -0.112428 0.728374 0
M  V30 439 H 40.5006 0.4088 1.8555 0
M  V30 440 H 38.6506 -1.28881 3.665 0
M  V30 441 H 40.3226 1.19863 4.45455 0
M  V30 442 H 38.5656 1.19405 4.17043 0
M  V30 443 H 39.2366 0.26405 5.51368 0
M  V30 444 H 41.7126 -0.981588 4.04356 0
M  V30 445 H 40.5886 -1.72221 5.21182 0
M  V30 446 H 40.8496 -2.48952 3.65343 0
M  V30 447 N 39.9087 -1.5758 0.0250728 0
M  V30 448 C 41.1337 -1.96337 -0.668317 0
M  V30 449 C 41.5587 -0.901314 -1.651 0
M  V30 450 O 40.9167 0.138187 -1.80773 0
M  V30 451 C 40.9647 -3.34191 -1.35457 0
M  V30 452 O 40.0687 -3.30269 -2.46974 0
M  V30 453 H 39.4097 -0.640281 -0.175887 0
M  V30 454 H 41.9397 -2.0442 0.0857224 0
M  V30 455 H 41.9497 -3.70331 -1.71228 0
M  V30 456 H 40.6247 -4.11036 -0.634218 0
M  V30 457 H 39.2017 -3.05841 -2.13344 0
M  V30 458 N 41.3868 0.248026 -1.55636 0
M  V30 459 C 42.6638 0.998988 -1.68165 0
M  V30 460 C 43.0438 2.03409 -0.564621 0
M  V30 461 O 42.3918 2.24378 0.432076 0
M  V30 462 C 42.6018 1.63334 -3.0842 0
M  V30 463 C 43.9498 2.13562 -3.66983 0
M  V30 464 O 44.9738 1.73277 -3.11213 0
M  V30 465 O 43.8328 2.87526 -4.64749 0
M  V30 466 H 40.9268 0.464933 -0.683935 0
M  V30 467 H 43.4728 0.241902 -1.67967 0
M  V30 468 H 42.2448 0.884583 -3.8117 0
M  V30 469 H 41.8678 2.45666 -3.12624 0
M  V30 470 N 42.8649 1.48995 0.513639 0
M  V30 471 C 44.1109 1.58076 1.27042 0
M  V30 472 C 44.4439 0.261026 1.92438 0
M  V30 473 O 43.7189 -0.734393 1.80103 0
M  V30 474 C 44.0019 2.73091 2.34719 0
M  V30 475 C 43.8549 4.14821 1.73907 0
M  V30 476 C 45.1739 2.83796 3.36375 0
M  V30 477 H 42.2929 0.575391 0.460536 0
M  V30 478 H 44.9349 1.81232 0.570516 0
M  V30 479 H 43.0849 2.53479 2.94416 0
M  V30 480 H 44.7569 4.45917 1.18135 0
M  V30 481 H 42.9999 4.21058 1.0437 0
M  V30 482 H 43.6709 4.91147 2.51949 0
M  V30 483 H 46.1469 3.01611 2.86653 0
M  V30 484 H 45.0229 3.65971 4.09093 0
M  V30 485 H 45.2839 1.92624 3.9793 0
M  V30 486 N 44.343 -0.763751 1.37857 0
M  V30 487 C 45.273 -1.89103 1.36975 0
M  V30 488 C 46.254 -1.68439 0.237152 0
M  V30 489 O 47.439 -1.8918 0.438713 0
M  V30 490 C 44.569 -3.26496 1.18395 0
M  V30 491 C 43.523 -3.61741 2.28751 0
M  V30 492 C 42.849 -4.97762 1.95286 0
M  V30 493 C 44.149 -3.67665 3.70972 0
M  V30 494 H 45.843 -1.90099 2.31307 0
M  V30 495 H 43.389 -0.91319 1.11341 0
M  V30 496 H 45.342 -4.05003 1.16406 0
M  V30 497 H 44.066 -3.25955 0.205215 0
M  V30 498 H 42.725 -2.85547 2.29909 0
M  V30 499 H 42.373 -4.93769 0.959221 0
M  V30 500 H 42.073 -5.22313 2.69189 0
M  V30 501 H 43.597 -5.7866 1.94898 0
M  V30 502 H 45.011 -4.36307 3.719 0
M  V30 503 H 43.408 -4.03718 4.43995 0
M  V30 504 H 44.478 -2.68134 4.0402 0
M  V30 505 N 45.8211 -1.22559 -0.990812 0
M  V30 506 C 46.7681 -0.997519 -2.0813 0
M  V30 507 C 47.7381 0.0814702 -1.659 0
M  V30 508 O 48.9231 -0.0685424 -1.90677 0
M  V30 509 C 46.0631 -0.583615 -3.40129 0
M  V30 510 C 45.1761 -1.7336 -3.9569 0
M  V30 511 C 44.3111 -1.26748 -5.15857 0
M  V30 512 C 43.3501 -2.38888 -5.63559 0
M  V30 513 N 42.4871 -1.93308 -6.74964 0
M  V30 514 H 47.3271 -1.93099 -2.26973 0
M  V30 515 H 44.8641 -0.962114 -1.11273 0
M  V30 516 H 46.8221 -0.324801 -4.15934 0
M  V30 517 H 45.4521 0.312845 -3.2128 0
M  V30 518 H 44.5041 -2.10669 -3.16738 0
M  V30 519 H 45.8161 -2.57704 -4.27071 0
M  V30 520 H 44.9701 -0.966173 -5.98957 0
M  V30 521 H 43.7091 -0.394272 -4.86104 0
M  V30 522 H 42.7141 -2.69805 -4.79046 0
M  V30 523 H 43.9391 -3.26728 -5.95336 0
M  V30 524 H 41.8851 -1.08352 -6.4699 0
M  V30 525 H 41.8021 -2.71217 -7.05675 0
M  V30 526 H 43.0701 -1.66252 -7.61564 0
M  V30 527 N 47.2992 1.18797 -1.03562 0
M  V30 528 C 48.2292 2.24472 -0.643019 0
M  V30 529 C 49.2102 1.66433 0.351283 0
M  V30 530 O 50.3952 1.92803 0.232505 0
M  V30 531 C 47.5252 3.473 4.24935e-05 0
M  V30 532 C 46.4792 4.18055 -0.917257 0
M  V30 533 C 45.8052 5.34519 -0.138941 0
M  V30 534 C 47.1052 4.72109 -2.23407 0
M  V30 535 H 48.7992 2.57566 -1.52643 0
M  V30 536 H 46.3452 1.23806 -0.735394 0
M  V30 537 H 48.2982 4.20426 0.286383 0
M  V30 538 H 47.0222 3.13424 0.918299 0
M  V30 539 H 45.6812 3.46821 -1.1879 0
M  V30 540 H 45.3292 4.96891 0.781562 0
M  V30 541 H 45.0292 5.82794 -0.750005 0
M  V30 542 H 46.5532 6.10438 0.1405 0
M  V30 543 H 47.9672 5.36955 -2.00879 0
M  V30 544 H 46.3642 5.30897 -2.79765 0
M  V30 545 H 47.4342 3.89807 -2.88407 0
M  V30 546 N 48.7773 0.814389 1.34928 0
M  V30 547 C 50.0243 0.398423 1.98542 0
M  V30 548 C 50.3523 -1.03638 1.64589 0
M  V30 549 O 49.6073 -1.73509 0.90516 0
M  V30 550 C 49.9063 0.537781 3.53331 0
M  V30 551 C 49.5723 1.93704 4.07172 0
M  V30 552 C 48.2343 2.31984 4.21589 0
M  V30 553 C 50.5863 2.85213 4.36237 0
M  V30 554 C 47.9143 3.61125 4.62391 0
M  V30 555 C 50.2663 4.13809 4.78482 0
M  V30 556 C 48.9303 4.52077 4.91104 0
M  V30 557 H 48.2003 0.145793 0.726516 0
M  V30 558 H 50.8473 1.03669 1.61012 0
M  V30 559 H 49.1523 -0.183906 3.91368 0
M  V30 560 H 50.8493 0.196588 4.00518 0
M  V30 561 H 47.4393 1.62966 3.96409 0
M  V30 562 H 51.6233 2.56885 4.24645 0
M  V30 563 H 46.8793 3.90612 4.70353 0
M  V30 564 H 51.0533 4.84811 4.99932 0
M  V30 565 H 48.6803 5.52196 5.22478 0
M  V30 566 N 50.2554 -1.46986 0.568584 0
M  V30 567 C 51.1654 -2.33942 -0.17555 0
M  V30 568 C 52.1814 -1.48891 -0.90041 0
M  V30 569 O 53.3574 -1.81794 -0.86676 0
M  V30 570 C 50.4224 -3.25811 -1.18524 0
M  V30 571 C 49.4834 -4.26757 -0.466582 0
M  V30 572 C 48.7164 -5.14236 -1.42817 0
M  V30 573 O 48.9394 -5.04379 -2.66379 0
M  V30 574 O 47.8734 -5.94412 -0.946453 0
M  V30 575 H 51.6994 -2.98896 0.538036 0
M  V30 576 H 49.2844 -1.4573 0.329097 0
M  V30 577 H 51.1664 -3.82527 -1.76779 0
M  V30 578 H 49.8414 -2.63471 -1.88055 0
M  V30 579 H 48.7484 -3.73769 0.157451 0
M  V30 580 H 50.0814 -4.91843 0.187485 0
M  V30 581 N 51.7335 -0.305618 -1.54608 0
M  V30 582 C 53.0105 0.355652 -1.92339 0
M  V30 583 C 53.3905 1.71324 -1.23335 0
M  V30 584 O 52.7385 2.25473 -0.370702 0
M  V30 585 C 52.9485 0.46572 -3.45879 0
M  V30 586 C 54.2965 0.734426 -4.182 0
M  V30 587 O 55.3205 0.54935 -3.51938 0
M  V30 588 O 54.1795 1.09024 -5.35515 0
M  V30 589 H 51.2735 0.199666 -0.802535 0
M  V30 590 H 53.8195 -0.354017 -1.65966 0
M  V30 591 H 52.5915 -0.488461 -3.88239 0
M  V30 592 H 52.2145 1.22367 -3.78301 0
M  V30 593 N 53.2116 1.57565 -0.0334293 0
M  V30 594 C 54.4596 1.91598 0.642999 0
M  V30 595 C 54.7806 0.910847 1.7242 0
M  V30 596 O 54.0506 -0.0469931 1.95844 0
M  V30 597 H 52.6306 0.707228 0.240496 0
M  V30 598 H 55.2926 1.94726 -0.0822488 0
M  V30 599 H 54.3886 2.92336 1.09298 0
M  V30 600 N 54.6897 -0.239769 1.55765 0
M  V30 601 C 55.5997 -1.31831 1.94056 0
M  V30 602 C 56.6157 -1.52275 0.841925 0
M  V30 603 O 57.7917 -1.65759 1.14394 0
M  V30 604 C 54.8567 -2.65156 2.23368 0
M  V30 605 C 53.9177 -2.53173 3.46701 0
M  V30 606 C 53.1507 -3.8014 3.74606 0
M  V30 607 O 53.3737 -4.82343 3.04469 0
M  V30 608 O 52.3077 -3.78344 4.68123 0
M  V30 609 H 56.1337 -1.02347 2.85935 0
M  V30 610 H 53.7187 -0.441123 1.42739 0
M  V30 611 H 55.6007 -3.43929 2.43497 0
M  V30 612 H 54.2757 -2.94358 1.34666 0
M  V30 613 H 53.1827 -1.72662 3.31871 0
M  V30 614 H 54.5157 -2.28915 4.35728 0
M  V30 615 N 56.1678 -1.49265 -0.50573 0
M  V30 616 C 57.1008 -1.60183 -1.62532 0
M  V30 617 C 58.0788 -0.451107 -1.56217 0
M  V30 618 O 59.2628 -0.666016 -1.76342 0
M  V30 619 C 56.3898 -1.55238 -3.01029 0
M  V30 620 C 55.4358 -2.7545 -3.25621 0
M  V30 621 S 56.2688 -4.37174 -3.09256 0
M  V30 622 C 57.4248 -4.34866 -4.50158 0
M  V30 623 H 57.6578 -2.54894 -1.53025 0
M  V30 624 H 55.1908 -1.38098 -0.690535 0
M  V30 625 H 57.1488 -1.53071 -3.80893 0
M  V30 626 H 55.8098 -0.618238 -3.07956 0
M  V30 627 H 55.0028 -2.68197 -4.26716 0
M  V30 628 H 54.6048 -2.75005 -2.53472 0
M  V30 629 H 56.8968 -4.06295 -5.42154 0
M  V30 630 H 57.8398 -5.36223 -4.62462 0
M  V30 631 H 58.2478 -3.65007 -4.30616 0
M  V30 632 N 57.6459 0.756429 -1.3826 0
M  V30 633 C 58.6089 1.85176 -1.35065 0
M  V30 634 C 59.6089 1.58818 -0.251703 0
M  V30 635 O 60.7989 1.66615 -0.508433 0
M  V30 636 C 57.9309 3.22596 -1.10201 0
M  V30 637 H 59.1239 1.89417 -2.3251 0
M  V30 638 H 56.6769 0.95783 -1.23512 0
M  V30 639 H 57.4119 3.24025 -0.133504 0
M  V30 640 H 57.1969 3.43122 -1.89762 0
M  V30 641 H 58.6869 4.02673 -1.10654 0
M  V30 642 N 59.124 1.23083 0.984299 0
M  V30 643 C 60.071 1.00854 2.07598 0
M  V30 644 C 61.041 -0.0726709 1.65941 0
M  V30 645 O 62.226 0.0786535 1.90638 0
M  V30 646 C 59.366 0.601645 3.39815 0
M  V30 647 C 58.479 1.75456 3.94765 0
M  V30 648 C 57.614 1.29482 5.15177 0
M  V30 649 C 56.653 2.41873 5.62284 0
M  V30 650 N 55.79 1.96885 6.73929 0
M  V30 651 H 60.63 1.943 2.25946 0
M  V30 652 H 58.167 0.968001 1.10762 0
M  V30 653 H 60.125 0.346854 4.15756 0
M  V30 654 H 58.755 -0.295803 3.21442 0
M  V30 655 H 57.807 2.12346 3.15616 0
M  V30 656 H 59.119 2.59965 4.25699 0
M  V30 657 H 58.273 0.997923 5.98437 0
M  V30 658 H 57.012 0.420046 4.85888 0
M  V30 659 H 56.017 2.72342 4.77608 0
M  V30 660 H 57.242 3.29881 5.93595 0
M  V30 661 H 55.188 1.11782 6.46406 0
M  V30 662 H 55.105 2.74956 7.04227 0
M  V30 663 H 56.373 1.70289 7.60672 0
M  V30 664 N 60.6021 -1.18246 1.0419 0
M  V30 665 C 61.8321 -1.91916 0.764961 0
M  V30 666 C 62.2401 -1.76485 -0.681898 0
M  V30 667 O 61.5831 -1.09275 -1.47664 0
M  V30 668 C 61.6451 -3.4373 1.05309 0
M  V30 669 C 61.3091 -3.8294 2.4941 0
M  V30 670 C 62.3061 -3.86621 3.47592 0
M  V30 671 C 59.9911 -4.142 2.84155 0
M  V30 672 C 61.9851 -4.21013 4.78568 0
M  V30 673 C 59.6721 -4.48262 4.15337 0
M  V30 674 C 60.6701 -4.51645 5.12353 0
M  V30 675 O 60.3581 -4.84911 6.41183 0
M  V30 676 H 60.0901 -0.61606 0.278292 0
M  V30 677 H 62.6441 -1.50947 1.39299 0
M  V30 678 H 60.8741 -3.84946 0.367933 0
M  V30 679 H 62.5631 -3.9865 0.763752 0
M  V30 680 H 63.3291 -3.62607 3.22089 0
M  V30 681 H 59.2081 -4.10743 2.09311 0
M  V30 682 H 62.7521 -4.23568 5.54289 0
M  V30 683 H 58.6491 -4.71737 4.40607 0
M  V30 684 H 59.4171 -5.02809 6.45852 0
M  V30 685 N 62.0802 -0.821533 -1.34494 0
M  V30 686 C 63.3262 -0.409552 -1.98622 0
M  V30 687 C 63.6592 1.0244 -1.64984 0
M  V30 688 O 62.9342 1.71325 -0.920758 0
M  V30 689 C 63.2172 -0.610458 -3.54888 0
M  V30 690 C 63.0702 -2.09043 -3.98273 0
M  V30 691 C 64.3892 -0.0455379 -4.40076 0
M  V30 692 H 61.5082 -0.15028 -0.721516 0
M  V30 693 H 64.1502 -1.03384 -1.59411 0
M  V30 694 H 62.3002 -0.079044 -3.8842 0
M  V30 695 H 63.9722 -2.68537 -3.75081 0
M  V30 696 H 62.2152 -2.58139 -3.48635 0
M  V30 697 H 62.8862 -2.18182 -5.07051 0
M  V30 698 H 65.3622 -0.499557 -4.1309 0
M  V30 699 H 64.2382 -0.215922 -5.48475 0
M  V30 700 H 64.4992 1.04939 -4.29465 0
M  V30 701 N 63.5583 1.46682 -0.576371 0
M  V30 702 C 64.4903 2.28341 0.198231 0
M  V30 703 C 65.5033 1.38141 0.861453 0
M  V30 704 O 66.6923 1.62797 0.732082 0
M  V30 705 C 63.7923 3.12986 1.29972 0
M  V30 706 C 62.9653 4.31271 0.729639 0
M  V30 707 C 62.0243 4.97363 1.71803 0
M  V30 708 O 61.0503 5.55156 1.25658 0
M  V30 709 N 62.2523 4.93796 3.05198 0
M  V30 710 H 65.0173 2.9546 -0.502324 0
M  V30 711 H 62.5783 1.56525 -0.413715 0
M  V30 712 H 64.5703 3.54066 1.96008 0
M  V30 713 H 63.1403 2.47984 1.90323 0
M  V30 714 H 62.3603 3.94052 -0.108012 0
M  V30 715 H 63.6483 5.07739 0.328438 0
M  V30 716 H 63.0463 4.48077 3.45317 0
M  V30 717 H 61.6033 5.38837 3.6674 0
M  V30 718 N 65.0364 0.313813 1.54444 0
M  V30 719 C 66.2844 -0.291099 1.99993 0
M  V30 720 C 66.6054 -1.53418 1.20366 0
M  V30 721 O 65.8754 -1.93544 0.302927 0
M  V30 722 H 64.4554 -0.110552 0.738774 0
M  V30 723 H 67.1174 0.428106 1.9014 0
M  V30 724 H 66.2134 -0.554268 3.07139 0
M  V30 725 N 66.5145 -1.57545 0.0417849 0
M  V30 726 C 67.7915 -1.83642 -0.673433 0
M  V30 727 C 68.1715 -0.928298 -1.89594 0
M  V30 728 O 67.5195 0.0129955 -2.28496 0
M  V30 729 C 67.7295 -3.33155 -1.03964 0
M  V30 730 C 69.0775 -3.99941 -1.42592 0
M  V30 731 O 70.1015 -3.37725 -1.13226 0
M  V30 732 O 68.9605 -5.09619 -1.9736 0
M  V30 733 H 66.0545 -0.757638 -0.331533 0
M  V30 734 H 68.6005 -1.69554 0.070433 0
M  V30 735 H 67.3725 -3.9093 -0.170098 0
M  V30 736 H 66.9955 -3.52396 -1.84126 0
M  V30 737 N 67.9926 0.231505 -1.5589 0
M  V30 738 C 68.9556 1.27028 -1.90779 0
M  V30 739 C 69.9556 1.40308 -0.785507 0
M  V30 740 O 71.1456 1.38744 -1.05336 0
M  V30 741 C 68.2776 2.64566 -2.14983 0
M  V30 742 H 69.4706 0.973017 -2.83677 0
M  V30 743 H 67.0236 0.471486 -1.49019 0
M  V30 744 H 67.7586 2.99406 -1.24604 0
M  V30 745 H 67.5436 2.56305 -2.96732 0
M  V30 746 H 69.0336 3.39543 -2.43105 0
M  V30 747 N 69.4707 1.49531 0.497807 0
M  V30 748 C 70.7197 1.58426 1.24837 0
M  V30 749 C 71.0327 0.277643 1.93619 0
M  V30 750 O 72.2387 0.24517 2.70391 0
M  V30 751 C 70.6947 2.79538 2.26686 0
M  V30 752 C 70.3027 4.16971 1.63828 0
M  V30 753 C 72.0467 2.97764 3.0255 0
M  V30 754 C 69.9537 5.29301 2.63807 0
M  V30 755 H 68.8837 0.58989 0.469623 0
M  V30 756 H 71.5347 1.75923 0.521857 0
M  V30 757 H 69.9167 2.55542 3.02514 0
M  V30 758 H 71.0907 4.51116 0.939711 0
M  V30 759 H 69.4057 4.04129 1.00342 0
M  V30 760 H 72.0027 3.78856 3.77323 0
M  V30 761 H 72.3457 2.08448 3.60354 0
M  V30 762 H 72.8787 3.21815 2.33838 0
M  V30 763 H 69.6177 6.20687 2.10779 0
M  V30 764 H 69.1377 4.99606 3.31894 0
M  V30 765 H 70.8167 5.58768 3.2617 0
M  V30 766 N 70.9488 -0.749086 1.3866 0
M  V30 767 C 72.1968 -1.50535 1.34847 0
M  V30 768 C 72.5178 -1.94909 -0.0595016 0
M  V30 769 O 71.7878 -1.67973 -1.00806 0
M  V30 770 H 70.3678 -0.558395 0.49619 0
M  V30 771 H 73.0298 -0.890165 1.73384 0
M  V30 772 H 72.1258 -2.39413 2.00219 0
M  V30 773 N 72.4269 -1.23603 -0.977757 0
M  V30 774 C 73.6569 -1.09487 -1.75203 0
M  V30 775 C 74.0649 0.356321 -1.85814 0
M  V30 776 O 73.4079 1.25816 -1.33851 0
M  V30 777 C 73.4699 -1.64905 -3.19447 0
M  V30 778 C 73.1339 -3.13688 -3.32338 0
M  V30 779 C 74.1309 -4.10953 -3.18455 0
M  V30 780 C 71.8159 -3.53449 -3.56902 0
M  V30 781 C 73.8099 -5.45962 -3.28944 0
M  V30 782 C 71.4969 -4.88602 -3.6703 0
M  V30 783 C 72.4949 -5.84668 -3.53062 0
M  V30 784 O 72.1829 -7.17365 -3.62826 0
M  V30 785 H 71.9149 -0.38367 -0.556573 0
M  V30 786 H 74.4689 -1.6398 -1.23693 0
M  V30 787 H 72.6989 -1.04835 -3.72218 0
M  V30 788 H 74.3879 -1.46226 -3.78646 0
M  V30 789 H 75.1539 -3.81577 -2.99372 0
M  V30 790 H 71.0329 -2.79188 -3.66844 0
M  V30 791 H 74.5769 -6.20925 -3.17958 0
M  V30 792 H 70.4739 -5.17653 -3.85623 0
M  V30 793 H 71.2419 -7.2515 -3.79605 0
M  V30 794 N 73.905 1.17692 -1.04816 0
M  V30 795 C 74.815 2.25229 -0.65643 0
M  V30 796 C 75.831 1.71018 0.320761 0
M  V30 797 O 77.007 2.00649 0.173805 0
M  V30 798 C 74.072 3.46684 -0.0332629 0
M  V30 799 C 73.133 4.15997 -1.06042 0
M  V30 800 C 72.366 5.31654 -0.466893 0
M  V30 801 O 72.589 5.65777 0.724758 0
M  V30 802 O 71.523 5.89831 -1.1993 0
M  V30 803 H 75.349 2.61016 -1.55255 0
M  V30 804 H 72.934 1.24919 -0.81949 0
M  V30 805 H 74.816 4.20234 0.313256 0
M  V30 806 H 73.491 3.12703 0.836566 0
M  V30 807 H 72.398 3.44482 -1.45886 0
M  V30 808 H 73.731 4.53996 -1.90127 0
M  V30 809 N 75.3831 0.828654 1.34056 0
M  V30 810 C 76.6311 0.41863 1.97717 0
M  V30 811 C 76.9521 -1.02314 1.66002 0
M  V30 812 O 76.2221 -1.71119 0.953683 0
M  V30 813 H 74.8021 0.151809 0.731412 0
M  V30 814 H 77.4641 1.05936 1.63596 0
M  V30 815 H 76.5601 0.542318 3.07352 0
M  V30 816 N 76.8612 -1.46375 0.584142 0
M  V30 817 C 78.1082 -2.02378 0.0702675 0
M  V30 818 C 78.4362 -1.45545 -1.29023 0
M  V30 819 O 77.6912 -0.610967 -1.85918 0
M  V30 820 C 77.9902 -3.57373 -0.0439342 0
M  V30 821 C 77.6562 -4.33252 1.24915 0
M  V30 822 C 76.3182 -4.53701 1.60341 0
M  V30 823 C 78.6702 -4.7681 2.1048 0
M  V30 824 C 75.9982 -5.1496 2.81128 0
M  V30 825 C 78.3502 -5.39404 3.30494 0
M  V30 826 C 77.0142 -5.5808 3.66201 0
M  V30 827 H 76.2842 -0.740554 0.0257127 0
M  V30 828 H 78.9312 -1.75727 0.761065 0
M  V30 829 H 77.2362 -3.83169 -0.817869 0
M  V30 830 H 78.9332 -3.98384 -0.457318 0
M  V30 831 H 75.5232 -4.17633 0.963364 0
M  V30 832 H 79.7072 -4.60766 1.84414 0
M  V30 833 H 74.9632 -5.27611 3.08928 0
M  V30 834 H 79.1372 -5.72114 3.97063 0
M  V30 835 H 76.7642 -6.05318 4.59885 0
M  V30 836 N 78.3393 -0.321999 -1.54275 0
M  V30 837 C 79.2713 0.578671 -2.21775 0
M  V30 838 C 80.2843 1.08109 -1.21722 0
M  V30 839 O 81.4733 0.994938 -1.482 0
M  V30 840 C 78.5733 1.80661 -2.86731 0
M  V30 841 C 77.7463 1.44314 -4.12907 0
M  V30 842 C 76.8053 2.52845 -4.61472 0
M  V30 843 O 75.8313 2.17054 -5.2619 0
M  V30 844 N 77.0333 3.83748 -4.35566 0
M  V30 845 H 79.7983 0.000709447 -2.997 0
M  V30 846 H 77.3593 -0.145132 -1.61248 0
M  V30 847 H 79.3513 2.52655 -3.16145 0
M  V30 848 H 77.9213 2.29245 -2.12521 0
M  V30 849 H 77.1413 0.554906 -3.90275 0
M  V30 850 H 78.4293 1.17598 -4.95023 0
M  V30 851 H 77.8273 4.15625 -3.83761 0
M  V30 852 H 76.3843 4.51977 -4.69638 0
M  V30 853 N 79.8174 1.5752 -0.0501392 0
M  V30 854 C 80.7494 2.08413 0.95376 0
M  V30 855 C 81.7624 1.01175 1.27544 0
M  V30 856 O 82.9514 1.28744 1.23641 0
M  V30 857 C 80.0514 2.51138 2.27559 0
M  V30 858 C 79.2244 3.817 2.13598 0
M  V30 859 C 78.2834 4.10749 3.28895 0
M  V30 860 O 77.3094 4.80685 3.04845 0
M  V30 861 N 78.5114 3.62579 4.5334 0
M  V30 862 H 81.2764 2.95165 0.519383 0
M  V30 863 H 78.8374 1.61327 0.136127 0
M  V30 864 H 80.8294 2.67648 3.03557 0
M  V30 865 H 79.3994 1.6964 2.62567 0
M  V30 866 H 78.6194 3.74782 1.22197 0
M  V30 867 H 79.9074 4.67201 2.01496 0
M  V30 868 H 79.3054 3.06039 4.75769 0
M  V30 869 H 77.8624 3.84329 5.26436 0
M  V30 870 N 81.2955 -0.223234 1.56011 0
M  V30 871 C 82.5425 -0.947875 1.78946 0
M  V30 872 C 82.8705 -1.844 0.618608 0
M  V30 873 O 82.1255 -1.91629 -0.397093 0
M  V30 874 C 82.4245 -1.81948 3.0762 0
M  V30 875 C 82.0905 -1.07672 4.37856 0
M  V30 876 C 80.7525 -0.871544 4.73242 0
M  V30 877 C 83.1045 -0.552081 5.18268 0
M  V30 878 C 80.4325 -0.129791 5.86556 0
M  V30 879 C 82.7845 0.17632 6.32354 0
M  V30 880 C 81.4485 0.39277 6.66343 0
M  V30 881 H 80.7185 -0.346852 0.654809 0
M  V30 882 H 83.3655 -0.216171 1.90276 0
M  V30 883 H 81.6705 -2.61899 2.91404 0
M  V30 884 H 83.3675 -2.38227 3.22566 0
M  V30 885 H 79.9575 -1.24662 4.1007 0
M  V30 886 H 84.1415 -0.698076 4.91366 0
M  V30 887 H 79.3975 0.048153 6.11381 0
M  V30 888 H 83.5715 0.590367 6.93893 0
M  V30 889 H 81.1985 0.969466 7.53993 0
M  V30 890 N 82.7736 -1.49793 -0.48987 0
M  V30 891 C 83.7036 -1.70201 -1.59856 0
M  V30 892 C 84.6846 -0.55076 -1.60937 0
M  V30 893 O 85.8696 -0.787841 -1.77501 0
M  V30 894 C 82.9996 -1.77882 -2.98287 0
M  V30 895 C 81.9536 -2.92907 -3.12073 0
M  V30 896 C 81.2796 -2.85712 -4.51965 0
M  V30 897 C 82.5796 -4.3369 -2.91051 0
M  V30 898 H 84.2736 -2.63025 -1.43032 0
M  V30 899 H 81.8196 -1.26574 -0.686664 0
M  V30 900 H 83.7726 -1.90744 -3.75759 0
M  V30 901 H 82.4966 -0.816653 -3.16225 0
M  V30 902 H 81.1556 -2.79665 -2.37029 0
M  V30 903 H 80.8036 -1.8738 -4.66795 0
M  V30 904 H 80.5036 -3.62921 -4.62128 0
M  V30 905 H 82.0276 -3.00598 -5.31482 0
M  V30 906 H 83.4416 -4.47555 -3.58284 0
M  V30 907 H 81.8386 -5.12205 -3.12675 0
M  V30 908 H 82.9086 -4.47362 -1.87071 0
M  V30 909 N 84.2517 0.741722 -1.39055 0
M  V30 910 C 85.1987 1.85566 -1.37237 0
M  V30 911 C 86.1687 1.64457 -0.233072 0
M  V30 912 O 87.3537 1.85957 -0.427147 0
M  V30 913 C 84.4937 3.23004 -1.215 0
M  V30 914 C 83.6067 3.55864 -2.44918 0
M  V30 915 C 82.7417 4.82669 -2.21821 0
M  V30 916 C 81.7807 5.08351 -3.40948 0
M  V30 917 N 80.9177 6.26356 -3.17211 0
M  V30 918 H 85.7577 1.86455 -2.32462 0
M  V30 919 H 83.2947 0.911176 -1.15482 0
M  V30 920 H 85.2527 4.02331 -1.10389 0
M  V30 921 H 83.8827 3.21411 -0.29908 0
M  V30 922 H 82.9347 2.7129 -2.66657 0
M  V30 923 H 84.2467 3.70765 -3.33668 0
M  V30 924 H 83.4007 5.69962 -2.07914 0
M  V30 925 H 82.1397 4.69929 -1.30454 0
M  V30 926 H 81.1447 4.19522 -3.55361 0
M  V30 927 H 82.3697 5.22981 -4.33207 0
M  V30 928 H 80.3157 6.14917 -2.28502 0
M  V30 929 H 80.2327 6.41813 -3.99515 0
M  V30 930 H 81.5007 7.16506 -3.06984 0
M  V30 931 N 85.7298 1.2412 0.971189 0
M  V30 932 C 86.9788 1.07284 1.70801 0
M  V30 933 C 87.2918 -0.388902 1.91695 0
M  V30 934 O 88.4978 -0.677379 2.62914 0
M  V30 935 C 86.9538 1.87145 3.07416 0
M  V30 936 C 86.5618 3.37707 2.94377 0
M  V30 937 C 88.3058 1.78828 3.84995 0
M  V30 938 C 86.2128 4.09925 4.26281 0
M  V30 939 H 85.1428 0.397854 0.64049 0
M  V30 940 H 87.7938 1.4817 1.0825 0
M  V30 941 H 86.1758 1.39071 3.70777 0
M  V30 942 H 87.3498 3.93335 2.4005 0
M  V30 943 H 85.6648 3.46938 2.30267 0
M  V30 944 H 88.2618 2.30089 4.82662 0
M  V30 945 H 88.6048 0.75284 4.09436 0
M  V30 946 H 89.1378 2.24563 3.28354 0
M  V30 947 H 85.8768 5.13813 4.07033 0
M  V30 948 H 85.3968 3.59083 4.80437 0
M  V30 949 H 87.0758 4.1673 4.94919 0
M  V30 950 N 87.2079 -1.17134 1.05439 0
M  V30 951 C 88.4379 -1.91094 0.785274 0
M  V30 952 C 88.8459 -1.77198 -0.663142 0
M  V30 953 O 88.1889 -1.10835 -1.46497 0
M  V30 954 C 88.2509 -3.42594 1.08949 0
M  V30 955 C 87.9149 -3.80274 2.53458 0
M  V30 956 C 88.9119 -3.82912 3.51673 0
M  V30 957 C 86.5969 -4.11162 2.88532 0
M  V30 958 C 88.5909 -4.15913 4.83006 0
M  V30 959 C 86.2779 -4.43831 4.20068 0
M  V30 960 C 87.2759 -4.46185 5.17115 0
M  V30 961 O 86.9639 -4.78083 6.46291 0
M  V30 962 H 86.6959 -0.613073 0.284811 0
M  V30 963 H 89.2499 -1.49461 1.40893 0
M  V30 964 H 87.4799 -3.84534 0.408741 0
M  V30 965 H 89.1689 -3.97817 0.805991 0
M  V30 966 H 89.9349 -3.5917 3.25917 0
M  V30 967 H 85.8139 -4.085 2.13656 0
M  V30 968 H 89.3579 -4.17665 5.5875 0
M  V30 969 H 85.2549 -4.67037 4.45586 0
M  V30 970 H 86.0229 -4.9593 6.51149 0
M  V30 971 N 88.686 -0.835752 -1.33615 0
M  V30 972 C 89.616 -0.281739 -2.31794 0
M  V30 973 C 90.597 0.608833 -1.58831 0
M  V30 974 O 91.782 0.533035 -1.86741 0
M  V30 975 C 88.912 0.546612 -3.42971 0
M  V30 976 C 87.866 -0.247904 -4.27281 0
M  V30 977 C 87.192 0.704001 -5.30045 0
M  V30 978 C 88.492 -1.46324 -5.01385 0
M  V30 979 H 90.186 -1.10206 -2.78379 0
M  V30 980 H 87.732 -0.531388 -1.33837 0
M  V30 981 H 89.685 0.944467 -4.1068 0
M  V30 982 H 88.409 1.40011 -2.95067 0
M  V30 983 H 87.068 -0.627281 -3.61194 0
M  V30 984 H 86.716 1.55381 -4.78399 0
M  V30 985 H 86.416 0.176524 -5.87335 0
M  V30 986 H 87.94 1.09944 -6.0062 0
M  V30 987 H 89.354 -1.13871 -5.61877 0
M  V30 988 H 87.751 -1.92728 -5.6831 0
M  V30 989 H 88.821 -2.23467 -4.30338 0
M  V30 990 N 90.1641 1.46063 -0.591896 0
M  V30 991 C 91.0741 2.34192 0.13831 0
M  V30 992 C 92.0901 1.50305 0.876608 0
M  V30 993 O 93.2661 1.8315 0.837728 0
M  V30 994 C 90.3311 3.27656 1.13326 0
M  V30 995 C 89.3921 4.27445 0.39863 0
M  V30 996 C 88.6251 5.16443 1.34618 0
M  V30 997 O 88.8481 5.08553 2.58321 0
M  V30 998 O 87.7821 5.95843 0.851768 0
M  V30 999 H 91.6081 2.98002 -0.58552 0
M  V30 1000 H 89.1931 1.45188 -0.352239 0
M  V30 1001 H 91.0751 3.85291 1.70671 0
M  V30 1002 H 89.7501 2.6643 1.83839 0
M  V30 1003 H 88.6571 3.73471 -0.216895 0
M  V30 1004 H 89.9901 4.91482 -0.265709 0
M  V30 1005 N 91.6422 0.330177 1.54103 0
M  V30 1006 C 92.8882 -0.270806 2.00984 0
M  V30 1007 C 93.2212 -1.51265 1.21789 0
M  V30 1008 O 92.4962 -1.92142 0.301927 0
M  V30 1009 C 92.7792 -0.598339 3.55094 0
M  V30 1010 C 92.6322 0.654674 4.4501 0
M  V30 1011 C 93.9512 -1.41334 4.16789 0
M  V30 1012 H 91.0702 -0.0969531 0.730595 0
M  V30 1013 H 93.7122 0.448066 1.84641 0
M  V30 1014 H 91.8622 -1.21078 3.69151 0
M  V30 1015 H 93.5342 1.29285 4.42813 0
M  V30 1016 H 91.7772 1.28224 4.14416 0
M  V30 1017 H 92.4482 0.380944 5.50684 0
M  V30 1018 H 94.9242 -0.895597 4.06347 0
M  V30 1019 H 93.8002 -1.61127 5.24718 0
M  V30 1020 H 94.0612 -2.41146 3.70541 0
M  V30 1021 N 93.1203 -1.57491 0.0584922 0
M  V30 1022 C 94.3973 -1.84346 -0.653918 0
M  V30 1023 C 94.7773 -0.948355 -1.88599 0
M  V30 1024 O 94.1253 -0.0112403 -2.28497 0
M  V30 1025 C 94.3353 -3.34239 -1.00425 0
M  V30 1026 C 95.6833 -4.01431 -1.38342 0
M  V30 1027 O 96.7073 -3.38907 -1.09637 0
M  V30 1028 O 95.5663 -5.11683 -1.91943 0
M  V30 1029 H 92.6603 -0.761112 -0.323478 0
M  V30 1030 H 95.2063 -1.6947 0.0884125 0
M  V30 1031 H 93.9783 -3.91089 -0.128625 0
M  V30 1032 H 93.6013 -3.54329 -1.80378 0
M  V30 1033 N 94.5984 0.214957 -1.56127 0
M  V30 1034 C 95.5464 1.28601 -1.93816 0
M  V30 1035 C 96.5404 1.48175 -0.821016 0
M  V30 1036 O 97.7464 1.49271 -1.0059 0
M  V30 1037 H 94.1214 0.431302 -0.616022 0
M  V30 1038 H 96.0924 0.940991 -2.83175 0
M  V30 1039 C 94.8414 2.62779 -2.27689 0
M  V30 1040 H 94.1644 2.48527 -3.13168 0
M  V30 1041 H 95.6044 3.36517 -2.57939 0
M  V30 1042 C 94.0634 3.18285 -1.10436 0
M  V30 1043 O 94.5934 4.00002 -0.368945 0
M  V30 1044 N 92.7994 2.7675 -0.886433 0
M  V30 1045 H 92.3464 2.10404 -1.48619 0
M  V30 1046 H 92.3044 3.14229 -0.103656 0
M  V30 1047 N 96.0765 1.50051 0.48192 0
M  V30 1048 C 97.3225 1.60736 1.2366 0
M  V30 1049 C 97.6555 0.301786 1.91841 0
M  V30 1050 O 96.9305 -0.696025 1.8162 0
M  V30 1051 C 97.2135 2.78009 2.28874 0
M  V30 1052 C 97.0665 4.18416 1.65069 0
M  V30 1053 C 98.3855 2.90867 3.30279 0
M  V30 1054 H 95.5045 0.585031 0.448228 0
M  V30 1055 H 98.1465 1.82402 0.531946 0
M  V30 1056 H 96.2965 2.59667 2.88973 0
M  V30 1057 H 97.9685 4.48322 1.0865 0
M  V30 1058 H 96.2115 4.23177 0.954148 0
M  V30 1059 H 96.8825 4.96381 2.41474 0
M  V30 1060 H 99.3585 3.07623 2.80191 0
M  V30 1061 H 98.2345 3.74566 4.01238 0
M  V30 1062 H 98.4955 2.01021 3.93755 0
M  V30 1063 N 97.5546 -0.734337 1.39446 0
M  V30 1064 C 98.9656 -1.31264 1.32766 0
M  V30 1065 C 99.3166 -1.96198 -0.00767497 0
M  V30 1066 O 98.4416 -1.96346 -0.909796 0
M  V30 1067 C 99.0366 -2.38682 2.4045 0
M  V30 1068 C 97.5956 -2.92184 2.37288 0
M  V30 1069 C 96.7426 -1.6576 2.22304 0
M  V30 1070 H 99.6936 -0.531799 1.49525 0
M  V30 1071 H 99.7146 -3.19087 2.07276 0
M  V30 1072 H 99.2266 -1.91392 3.37625 0
M  V30 1073 H 97.3276 -3.43752 1.43754 0
M  V30 1074 H 97.4406 -3.45253 3.3217 0
M  V30 1075 H 95.8046 -1.9012 1.69489 0
M  V30 1076 H 96.5876 -1.20521 3.21449 0
M  V30 1077 N 99.0327 -1.24633 -0.964593 0
M  V30 1078 C 100.449 -1.01239 -1.2338 0
M  V30 1079 C 100.649 0.2769 -1.99588 0
M  V30 1080 O 99.7047 0.992241 -2.32187 0
M  V30 1081 C 101.018 -2.22937 -2.01791 0
M  V30 1082 C 102.566 -2.27594 -2.14872 0
M  V30 1083 C 103.041 -3.48921 -2.96678 0
M  V30 1084 N 104.532 -3.49257 -3.04259 0
M  V30 1085 C 105.267 -4.39795 -3.67924 0
M  V30 1086 N 104.763 -5.40591 -4.33281 0
M  V30 1087 N 106.556 -4.275 -3.64966 0
M  V30 1088 H 98.7067 -2.0748 -0.454502 0
M  V30 1089 H 100.97 -0.910647 -0.26349 0
M  V30 1090 H 100.676 -3.16587 -1.53184 0
M  V30 1091 H 100.55 -2.25306 -3.02518 0
M  V30 1092 H 102.937 -1.34473 -2.6268 0
M  V30 1093 H 103.018 -2.2925 -1.13482 0
M  V30 1094 H 102.662 -4.42359 -2.49562 0
M  V30 1095 H 102.592 -3.4451 -3.98272 0
M  V30 1096 H 105.083 -2.76337 -2.57771 0
M  V30 1097 H 105.396 -6.05904 -4.79687 0
M  V30 1098 H 103.741 -5.44475 -4.3194 0
M  V30 1099 H 106.932 -3.47987 -3.13086 0
M  V30 1100 H 107.105 -4.98258 -4.14298 0
M  V30 1101 N 100.511 1.16574 -1.06058 0
M  V30 1102 C 101.461 2.18854 -0.63929 0
M  V30 1103 C 102.445 1.57505 0.328798 0
M  V30 1104 O 103.637 1.76408 0.144623 0
M  V30 1105 C 100.766 3.43291 -0.0247203 0
M  V30 1106 C 99.8518 4.11722 -1.01716 0
M  V30 1107 N 100.243 4.55841 -2.19186 0
M  V30 1108 C 98.5408 4.37872 -0.847569 0
M  V30 1109 C 99.2418 5.08751 -2.82042 0
M  V30 1110 N 98.2178 5.01489 -2.09784 0
M  V30 1111 H 102.02 2.5068 -1.53417 0
M  V30 1112 H 99.5338 1.32999 -0.931935 0
M  V30 1113 H 101.531 4.15856 0.294915 0
M  V30 1114 H 100.191 3.12954 0.865448 0
M  V30 1115 H 101.202 4.49649 -2.56975 0
M  V30 1116 H 97.8788 4.17499 -0.00918848 0
M  V30 1117 H 99.2688 5.52944 -3.81709 0
M  V30 1118 N 101.989 0.842826 1.3317 0
M  V30 1119 C 102.919 0.294028 2.31641 0
M  V30 1120 C 103.9 -0.600401 1.59151 0
M  V30 1121 O 105.085 -0.523124 1.87022 0
M  V30 1122 C 102.215 -0.528416 3.43257 0
M  V30 1123 C 101.169 0.27056 4.27144 0
M  V30 1124 C 100.495 -0.675881 5.30411 0
M  V30 1125 C 101.795 1.48981 5.00602 0
M  V30 1126 H 103.489 1.11681 2.77791 0
M  V30 1127 H 101.035 0.538478 1.33553 0
M  V30 1128 H 102.988 -0.922674 4.11175 0
M  V30 1129 H 101.712 -1.38445 2.95805 0
M  V30 1130 H 100.371 0.646427 3.60856 0
M  V30 1131 H 100.019 -1.52842 4.79216 0
M  V30 1132 H 99.7189 -0.145374 5.8742 0
M  V30 1133 H 101.243 -1.06757 6.01195 0
M  V30 1134 H 102.657 1.16849 5.61266 0
M  V30 1135 H 101.054 1.95739 5.6728 0
M  V30 1136 H 102.124 2.25746 4.29147 0
M  V30 1137 N 103.467 -1.45747 0.599634 0
M  V30 1138 C 104.692 -2.07178 0.0960198 0
M  V30 1139 C 105.117 -1.44268 -1.207 0
M  V30 1140 O 104.475 -0.532503 -1.73303 0
M  V30 1141 C 104.523 -3.60579 -0.0385348 0
M  V30 1142 O 103.627 -3.97713 -1.0908 0
M  V30 1143 H 102.968 -0.660251 0.0704593 0
M  V30 1144 H 105.498 -1.87124 0.827385 0
M  V30 1145 H 105.508 -4.07298 -0.239304 0
M  V30 1146 H 104.183 -4.05756 0.912947 0
M  V30 1147 H 102.76 -3.62678 -0.867135 0
M  V30 1148 N 104.945 -0.338344 -1.53925 0
M  V30 1149 C 105.875 0.51328 -2.27789 0
M  V30 1150 C 106.856 1.107 -1.29149 0
M  V30 1151 O 108.041 1.12937 -1.57984 0
M  V30 1152 C 105.171 1.66697 -3.04679 0
M  V30 1153 C 104.125 1.20183 -4.1078 0
M  V30 1154 C 103.451 2.44363 -4.75595 0
M  V30 1155 C 104.751 0.30605 -5.21403 0
M  V30 1156 H 106.445 -0.102883 -2.99223 0
M  V30 1157 H 103.991 -0.0509219 -1.4391 0
M  V30 1158 H 105.944 2.26915 -3.55088 0
M  V30 1159 H 104.668 2.30995 -2.30887 0
M  V30 1160 H 103.327 0.622499 -3.61276 0
M  V30 1161 H 102.975 3.07057 -3.98403 0
M  V30 1162 H 102.675 2.13925 -5.47275 0
M  V30 1163 H 104.199 3.05317 -5.28786 0
M  V30 1164 H 105.613 0.814929 -5.67478 0
M  V30 1165 H 104.01 0.0937929 -6.00027 0
M  V30 1166 H 105.08 -0.65921 -4.80398 0
M  V30 1167 N 106.423 1.57458 -0.0668435 0
M  V30 1168 C 107.386 2.11323 0.887422 0
M  V30 1169 C 108.386 1.03618 1.22964 0
M  V30 1170 O 109.576 1.29626 1.16373 0
M  V30 1171 C 106.708 2.61048 2.19242 0
M  V30 1172 H 107.901 2.96942 0.420194 0
M  V30 1173 H 105.454 1.55239 0.181793 0
M  V30 1174 H 106.189 1.78868 2.70512 0
M  V30 1175 H 105.974 3.39769 1.95702 0
M  V30 1176 H 107.464 3.02814 2.87565 0
M  V30 1177 N 107.901 -0.206675 1.56239 0
M  V30 1178 C 108.831 -1.25909 1.96645 0
M  V30 1179 C 109.812 -1.48097 0.836734 0
M  V30 1180 O 110.997 -1.6003 1.10019 0
M  V30 1181 C 108.127 -2.6058 2.29599 0
M  V30 1182 C 107.081 -2.53024 3.452 0
M  V30 1183 C 106.407 -3.91861 3.63798 0
M  V30 1184 C 107.707 -2.06524 4.79734 0
M  V30 1185 H 109.401 -0.923369 2.84806 0
M  V30 1186 H 106.947 -0.442735 1.37025 0
M  V30 1187 H 108.9 -3.34375 2.56459 0
M  V30 1188 H 107.624 -2.95869 1.38307 0
M  V30 1189 H 106.283 -1.81684 3.18412 0
M  V30 1190 H 105.931 -4.24483 2.69857 0
M  V30 1191 H 105.631 -3.87683 4.4156 0
M  V30 1192 H 107.155 -4.67296 3.93022 0
M  V30 1193 H 108.569 -2.70072 5.05702 0
M  V30 1194 H 106.966 -2.13374 5.60885 0
M  V30 1195 H 108.036 -1.01802 4.74093 0
M  V30 1196 N 109.379 -1.50304 -0.473955 0
M  V30 1197 C 110.626 -1.6115 -1.22625 0
M  V30 1198 C 110.954 -0.310517 -1.92005 0
M  V30 1199 O 110.209 0.703419 -1.82621 0
M  V30 1200 C 110.508 -2.73938 -2.29549 0
M  V30 1201 C 110.174 -4.14519 -1.7744 0
M  V30 1202 C 108.836 -4.5277 -1.62949 0
M  V30 1203 C 111.188 -5.02392 -1.3875 0
M  V30 1204 C 108.516 -5.76639 -1.08187 0
M  V30 1205 C 110.868 -6.26805 -0.854309 0
M  V30 1206 C 109.532 -6.63861 -0.696011 0
M  V30 1207 H 108.802 -0.589691 -0.448715 0
M  V30 1208 H 111.449 -1.84228 -0.522705 0
M  V30 1209 H 109.754 -2.44937 -3.05799 0
M  V30 1210 H 111.451 -2.79534 -2.87509 0
M  V30 1211 H 108.041 -3.8434 -1.89685 0
M  V30 1212 H 112.225 -4.73474 -1.4878 0
M  V30 1213 H 107.481 -6.04027 -0.946666 0
M  V30 1214 H 111.655 -6.94258 -0.545843 0
M  V30 1215 H 109.282 -7.59722 -0.26952 0
M  V30 1216 N 110.857 0.726932 -1.39834 0
M  V30 1217 C 111.789 1.85147 -1.35104 0
M  V30 1218 C 112.802 1.60736 -0.258392 0
M  V30 1219 O 113.991 1.70821 -0.517931 0
M  V30 1220 C 111.091 3.21332 -1.07697 0
M  V30 1221 C 110.264 3.73033 -2.28396 0
M  V30 1222 C 109.323 4.87802 -1.97322 0
M  V30 1223 O 108.349 5.01043 -2.70083 0
M  V30 1224 N 109.551 5.72768 -0.944273 0
M  V30 1225 H 112.316 1.89706 -2.32017 0
M  V30 1226 H 109.877 0.908006 -1.3404 0
M  V30 1227 H 111.869 3.95691 -0.849144 0
M  V30 1228 H 110.439 3.11992 -0.194909 0
M  V30 1229 H 109.659 2.89934 -2.6708 0
M  V30 1230 H 110.947 4.0431 -3.08887 0
M  V30 1231 H 110.345 5.64669 -0.341427 0
M  V30 1232 H 108.902 6.4716 -0.776346 0
M  V30 1233 N 112.336 1.25143 0.95797 0
M  V30 1234 C 113.561 1.12521 1.74223 0
M  V30 1235 C 113.986 -0.317402 1.85403 0
M  V30 1236 O 113.344 -1.2299 1.33204 0
M  V30 1237 C 113.392 1.78062 3.1357 0
M  V30 1238 O 112.496 1.058 3.98598 0
M  V30 1239 H 111.837 0.39304 0.535178 0
M  V30 1240 H 114.367 1.65641 1.201 0
M  V30 1241 H 114.377 1.84213 3.64046 0
M  V30 1242 H 113.052 2.83021 3.04749 0
M  V30 1243 H 111.629 1.07506 3.57067 0
M  V30 1244 N 113.814 -1.1601 1.06675 0
M  V30 1245 C 115.061 -1.86633 0.785781 0
M  V30 1246 C 115.389 -1.81929 -0.687896 0
M  V30 1247 O 114.644 -1.23253 -1.52011 0
M  V30 1248 C 114.943 -3.35547 1.23057 0
M  V30 1249 C 114.609 -3.60448 2.70902 0
M  V30 1250 C 113.271 -3.66954 3.11285 0
M  V30 1251 C 115.623 -3.7071 3.66365 0
M  V30 1252 C 112.951 -3.81225 4.45965 0
M  V30 1253 C 115.303 -3.86503 5.00797 0
M  V30 1254 C 113.967 -3.91252 5.40813 0
M  V30 1255 H 113.237 -0.682937 0.287538 0
M  V30 1256 H 115.884 -1.37146 1.33654 0
M  V30 1257 H 114.189 -3.87193 0.59907 0
M  V30 1258 H 115.886 -3.88583 0.990163 0
M  V30 1259 H 112.476 -3.56021 2.38636 0
M  V30 1260 H 116.66 -3.64991 3.36296 0
M  V30 1261 H 111.916 -3.83155 4.76447 0
M  V30 1262 H 116.09 -3.93385 5.74649 0
M  V30 1263 H 113.717 -4.02062 6.45174 0
M  V30 1264 N 115.292 -0.849877 -1.32721 0
M  V30 1265 C 116.202 -0.293791 -2.32753 0
M  V30 1266 C 117.218 0.585906 -1.63839 0
M  V30 1267 O 118.394 0.487413 -1.95413 0
M  V30 1268 C 115.459 0.512752 -3.42887 0
M  V30 1269 C 114.52 -0.39252 -4.27502 0
M  V30 1270 C 113.753 0.375625 -5.32377 0
M  V30 1271 O 113.976 1.60613 -5.4732 0
M  V30 1272 O 112.91 -0.256094 -6.01355 0
M  V30 1273 H 116.736 -1.12242 -2.82197 0
M  V30 1274 H 114.321 -0.612685 -1.36259 0
M  V30 1275 H 116.203 0.970704 -4.10067 0
M  V30 1276 H 114.878 1.31826 -2.95641 0
M  V30 1277 H 113.785 -0.898547 -3.63149 0
M  V30 1278 H 115.118 -1.16309 -4.7826 0
M  V30 1279 N 116.77 1.45427 -0.607355 0
M  V30 1280 C 117.998 2.06614 -0.108814 0
M  V30 1281 C 118.413 1.45204 1.2067 0
M  V30 1282 O 117.77 0.566132 1.73497 0
M  V30 1283 C 117.821 3.61481 0.0375347 0
M  V30 1284 O 117.542 4.20598 -1.22593 0
M  V30 1285 C 119.043 4.39652 0.567561 0
M  V30 1286 H 116.263 0.66747 -0.0687351 0
M  V30 1287 H 118.807 1.86675 -0.835022 0
M  V30 1288 H 116.962 3.80762 0.714068 0
M  V30 1289 H 117.376 5.1377 -1.05547 0
M  V30 1290 H 118.85 5.48518 0.61905 0
M  V30 1291 H 119.327 4.09417 1.58978 0
M  V30 1292 H 119.933 4.25234 -0.0749202 0
M  V30 1293 N 118.248 0.346503 1.53744 0
M  V30 1294 C 119.496 -0.248612 2.00565 0
M  V30 1295 C 119.817 -1.5083 1.23593 0
M  V30 1296 O 119.087 -1.92858 0.343912 0
M  V30 1297 H 117.667 -0.0948564 0.740953 0
M  V30 1298 H 120.329 0.468341 1.89189 0
M  V30 1299 H 119.425 -0.488994 3.08245 0
M  V30 1300 N 119.726 -1.57421 0.075193 0
M  V30 1301 C 120.676 -2.09441 -0.901025 0
M  V30 1302 C 121.66 -1.00486 -1.25663 0
M  V30 1303 O 122.852 -1.2679 -1.23504 0
M  V30 1304 C 119.981 -2.66233 -2.16737 0
M  V30 1305 C 119.067 -3.82198 -1.83808 0
M  V30 1306 N 119.458 -4.91028 -1.21345 0
M  V30 1307 C 117.756 -3.91558 -2.13538 0
M  V30 1308 C 118.457 -5.71852 -1.06585 0
M  V30 1309 N 117.433 -5.20233 -1.57667 0
M  V30 1310 H 121.235 -2.90972 -0.413815 0
M  V30 1311 H 118.749 -1.6189 -0.128601 0
M  V30 1312 H 120.746 -3.01819 -2.87595 0
M  V30 1313 H 119.406 -1.8615 -2.66042 0
M  V30 1314 H 120.417 -5.10323 -0.88268 0
M  V30 1315 H 117.094 -3.22454 -2.65197 0
M  V30 1316 H 118.484 -6.69401 -0.578933 0
M  V30 1317 N 121.204 0.198386 -1.56346 0
M  V30 1318 C 122.444 0.92609 -1.82217 0
M  V30 1319 C 122.808 1.80584 -0.652195 0
M  V30 1320 O 124.009 2.56907 -0.790716 0
M  V30 1321 C 122.28 1.72354 -3.13096 0
M  V30 1322 S 123.839 2.50371 -3.6036 0
M  V30 1323 H 120.657 0.310677 -0.639532 0
M  V30 1324 H 123.259 0.189755 -1.94577 0
M  V30 1325 H 121.963 1.0678 -3.96265 0
M  V30 1326 H 121.494 2.50175 -3.03605 0
M  V30 1327 H 123.509 3.74488 -3.25535 0
M  V30 1328 N 122.682 1.50554 0.465978 0
M  V30 1329 C 123.612 1.72722 1.57128 0
M  V30 1330 C 124.593 0.576294 1.6004 0
M  V30 1331 O 125.778 0.81598 1.76225 0
M  V30 1332 C 122.908 1.82605 2.95419 0
M  V30 1333 C 121.862 2.97835 3.07373 0
M  V30 1334 C 121.188 2.92867 4.47363 0
M  V30 1335 C 122.488 4.38265 2.84114 0
M  V30 1336 H 124.182 2.65267 1.38829 0
M  V30 1337 H 121.728 1.2765 0.666441 0
M  V30 1338 H 123.681 1.96698 3.72677 0
M  V30 1339 H 122.405 0.866858 3.14886 0
M  V30 1340 H 121.064 2.83401 2.3255 0
M  V30 1341 H 120.712 1.94783 4.63755 0
M  V30 1342 H 120.412 3.70227 4.56296 0
M  V30 1343 H 121.936 3.09015 5.26633 0
M  V30 1344 H 123.35 4.53198 3.51118 0
M  V30 1345 H 121.747 5.17115 3.04487 0
M  V30 1346 H 122.817 4.50281 1.7993 0
M  V30 1347 N 124.16 -0.719506 1.40217 0
M  V30 1348 C 125.108 -1.85493 1.40339 0
M  V30 1349 C 126.102 -1.66995 0.284415 0
M  V30 1350 O 127.308 -1.74148 0.455252 0
M  V30 1351 H 123.683 -0.610857 0.438586 0
M  V30 1352 H 125.654 -1.82506 2.36081 0
M  V30 1353 C 124.403 -3.23321 1.27901 0
M  V30 1354 H 123.726 -3.38159 2.1328 0
M  V30 1355 H 125.166 -4.02914 1.32045 0
M  V30 1356 C 123.625 -3.36898 -0.0111355 0
M  V30 1357 O 124.155 -3.89674 -0.975538 0
M  V30 1358 N 122.361 -2.90492 -0.0793393 0
M  V30 1359 H 121.908 -2.47731 0.706183 0
M  V30 1360 H 121.866 -2.99955 -0.942038 0
M  V30 1361 N 125.638 -1.25649 -0.95132 0
M  V30 1362 C 126.548 -1.08073 -2.08224 0
M  V30 1363 C 127.564 -0.0169666 -1.73992 0
M  V30 1364 O 128.74 -0.218593 -2.0021 0
M  V30 1365 C 125.805 -0.704922 -3.39458 0
M  V30 1366 C 124.866 -1.84699 -3.87537 0
M  V30 1367 C 124.099 -1.48902 -5.12508 0
M  V30 1368 O 124.322 -0.386156 -5.69091 0
M  V30 1369 O 123.256 -2.32033 -5.55378 0
M  V30 1370 H 127.082 -2.02924 -2.25954 0
M  V30 1371 H 124.667 -1.04618 -1.06656 0
M  V30 1372 H 126.549 -0.507609 -4.18332 0
M  V30 1373 H 125.224 0.214291 -3.2299 0
M  V30 1374 H 124.131 -2.09919 -3.09653 0
M  V30 1375 H 125.464 -2.74557 -4.08509 0
M  V30 1376 N 127.117 1.15442 -1.07289 0
M  V30 1377 C 128.345 1.90096 -0.81676 0
M  V30 1378 C 128.76 1.7798 0.629966 0
M  V30 1379 O 128.117 1.1313 1.43206 0
M  V30 1380 C 128.168 3.40466 -1.21512 0
M  V30 1381 O 127.889 3.52232 -2.60508 0
M  V30 1382 C 129.39 4.32145 -0.988198 0
M  V30 1383 H 126.61 0.602495 -0.295366 0
M  V30 1384 H 129.154 1.4627 -1.42918 0
M  V30 1385 H 127.309 3.81958 -0.647039 0
M  V30 1386 H 127.723 4.45549 -2.76742 0
M  V30 1387 H 129.197 5.36072 -1.31645 0
M  V30 1388 H 129.674 4.39135 0.0755063 0
M  V30 1389 H 130.28 3.96395 -1.54115 0
M  V30 1390 N 128.595 0.856903 1.32268 0
M  V30 1391 C 129.543 0.291987 2.3076 0
M  V30 1392 C 130.537 -0.585857 1.58947 0
M  V30 1393 O 131.743 -0.47341 1.73663 0
M  V30 1394 H 128.118 0.075721 0.748178 0
M  V30 1395 H 130.089 1.13687 2.75895 0
M  V30 1396 C 128.838 -0.502869 3.44044 0
M  V30 1397 H 128.161 0.163328 3.99466 0
M  V30 1398 H 129.601 -0.863691 4.1511 0
M  V30 1399 C 128.06 -1.68898 2.91505 0
M  V30 1400 O 128.59 -2.78811 2.89184 0
M  V30 1401 N 126.796 -1.51679 2.47875 0
M  V30 1402 H 126.343 -0.622666 2.49961 0
M  V30 1403 H 126.301 -2.31184 2.13076 0
M  V30 1404 N 130.073 -1.45103 0.615059 0
M  V30 1405 C 131.319 -2.02483 0.113347 0
M  V30 1406 C 131.652 -1.48146 -1.25564 0
M  V30 1407 O 130.927 -0.659104 -1.82992 0
M  V30 1408 C 131.21 -3.60005 0.0825278 0
M  V30 1409 C 131.063 -4.2466 1.48271 0
M  V30 1410 C 132.382 -4.35972 -0.601401 0
M  V30 1411 H 129.501 -0.735764 0.0426632 0
M  V30 1412 H 132.143 -1.72868 0.788461 0
M  V30 1413 H 130.293 -3.85367 -0.492378 0
M  V30 1414 H 131.965 -4.10458 2.10527 0
M  V30 1415 H 130.208 -3.82772 2.04127 0
M  V30 1416 H 130.879 -5.336 1.41332 0
M  V30 1417 H 133.355 -4.15947 -0.112666 0
M  V30 1418 H 132.231 -5.45697 -0.592097 0
M  V30 1419 H 132.492 -4.09391 -1.66887 0
M  V30 1420 N 131.551 -0.354651 -1.53558 0
M  V30 1421 C 132.779 0.239515 -2.05509 0
M  V30 1422 C 133.194 1.4333 -1.2289 0
M  V30 1423 O 132.551 1.80538 -0.266899 0
M  V30 1424 C 132.602 0.643719 -3.55723 0
M  V30 1425 O 132.323 -0.502602 -4.35207 0
M  V30 1426 C 133.824 1.29743 -4.23889 0
M  V30 1427 H 131.044 0.0442697 -0.669538 0
M  V30 1428 H 133.588 -0.509856 -1.98042 0
M  V30 1429 H 131.743 1.34302 -3.63376 0
M  V30 1430 H 132.157 -0.178172 -5.24197 0
M  V30 1431 H 133.631 1.53091 -5.30346 0
M  V30 1432 H 134.108 2.25441 -3.76926 0
M  V30 1433 H 134.714 0.639865 -4.20459 0
M  V30 1434 N 133.029 1.57378 -0.0835403 0
M  V30 1435 C 133.976 2.13384 0.879539 0
M  V30 1436 C 134.946 1.04936 1.28754 0
M  V30 1437 O 136.131 1.32662 1.37133 0
M  V30 1438 C 133.271 2.70932 2.13752 0
M  V30 1439 C 132.384 3.93575 1.7811 0
M  V30 1440 C 131.519 4.39326 2.98607 0
M  V30 1441 C 130.558 5.54587 2.59037 0
M  V30 1442 N 129.695 5.95243 3.72331 0
M  V30 1443 H 134.535 2.9537 0.395076 0
M  V30 1444 H 132.072 1.45953 0.183349 0
M  V30 1445 H 134.03 3.02411 2.87408 0
M  V30 1446 H 132.66 1.91693 2.59718 0
M  V30 1447 H 131.712 3.68483 0.94469 0
M  V30 1448 H 133.024 4.77258 1.45005 0
M  V30 1449 H 132.178 4.72528 3.80529 0
M  V30 1450 H 130.917 3.5452 3.34913 0
M  V30 1451 H 129.922 5.21024 1.75539 0
M  V30 1452 H 131.147 6.41133 2.23887 0
M  V30 1453 H 129.093 5.13385 4.08378 0
M  V30 1454 H 129.01 6.73694 3.43034 0
M  V30 1455 H 130.278 6.33072 4.54797 0
M  V30 1456 N 134.507 -0.190092 1.56449 0
M  V30 1457 C 135.784 -0.935886 1.71757 0
M  V30 1458 C 136.164 -2.01173 0.639726 0
M  V30 1459 O 135.512 -2.25827 -0.348502 0
M  V30 1460 C 135.722 -1.51775 3.1427 0
M  V30 1461 C 137.07 -1.99794 3.74656 0
M  V30 1462 O 138.094 -1.61607 3.1743 0
M  V30 1463 O 136.953 -2.70079 4.751 0
M  V30 1464 H 134.047 -0.439229 0.700719 0
M  V30 1465 H 136.593 -0.179395 1.68749 0
M  V30 1466 H 135.365 -0.742505 3.84191 0
M  V30 1467 H 134.988 -2.33894 3.21527 0
M  V30 1468 N 135.985 -1.50799 -0.457987 0
M  V30 1469 C 137.231 -1.62683 -1.21088 0
M  V30 1470 C 137.564 -0.332268 -1.91336 0
M  V30 1471 O 136.839 0.667043 -1.82704 0
M  V30 1472 C 137.122 -2.81615 -2.24422 0
M  V30 1473 C 136.975 -4.20989 -1.58392 0
M  V30 1474 C 138.294 -2.96085 -3.2561 0
M  V30 1475 H 135.413 -0.592087 -0.438864 0
M  V30 1476 H 138.055 -1.83225 -0.50286 0
M  V30 1477 H 136.205 -2.64231 -2.84806 0
M  V30 1478 H 137.877 -4.49994 -1.01504 0
M  V30 1479 H 136.12 -4.24641 -0.886704 0
M  V30 1480 H 136.791 -5.0016 -2.33547 0
M  V30 1481 H 139.267 -3.12042 -2.75262 0
M  V30 1482 H 138.143 -3.80902 -3.95228 0
M  V30 1483 H 138.404 -2.0726 -3.90507 0
M  V30 1484 N 137.463 0.71206 -1.40597 0
M  V30 1485 C 138.709 1.47416 -1.39271 0
M  V30 1486 C 139.042 1.942 0.00388791 0
M  V30 1487 O 138.317 1.68403 0.973179 0
M  V30 1488 C 138.6 2.69774 -2.38525 0
M  V30 1489 C 138.453 2.28861 -3.87224 0
M  V30 1490 C 139.772 3.71939 -2.35264 0
M  V30 1491 H 136.891 0.534713 -0.5072 0
M  V30 1492 H 139.533 0.812375 -1.71757 0
M  V30 1493 H 137.683 3.26238 -2.10953 0
M  V30 1494 H 139.355 1.77852 -4.25636 0
M  V30 1495 H 137.598 1.60824 -4.02887 0
M  V30 1496 H 138.269 3.16584 -4.52193 0
M  V30 1497 H 140.745 3.25113 -2.59694 0
M  V30 1498 H 139.621 4.55186 -3.06753 0
M  V30 1499 H 139.882 4.20484 -1.36549 0
M  V30 1500 N 138.941 1.26152 0.944643 0
M  V30 1501 C 140.181 1.12708 1.70517 0
M  V30 1502 C 140.545 -0.324727 1.89234 0
M  V30 1503 O 141.746 -0.581211 2.62441 0
M  V30 1504 C 140.017 1.8713 3.04495 0
M  V30 1505 S 141.576 1.89698 3.95677 0
M  V30 1506 H 138.394 0.402665 0.585988 0
M  V30 1507 H 140.996 1.59821 1.12594 0
M  V30 1508 H 139.7 2.91833 2.88551 0
M  V30 1509 H 139.231 1.40444 3.67477 0
M  V30 1510 H 141.246 0.981198 4.86402 0
M  V30 1511 N 140.419 -1.14872 1.07899 0
M  V30 1512 C 141.349 -2.2193 0.725887 0
M  V30 1513 C 142.33 -1.67622 -0.28927 0
M  V30 1514 O 143.515 -1.93533 -0.160787 0
M  V30 1515 C 140.645 -3.47061 0.128856 0
M  V30 1516 C 139.599 -4.14363 1.07178 0
M  V30 1517 C 138.925 -5.33636 0.337229 0
M  V30 1518 C 140.225 -4.63492 2.40775 0
M  V30 1519 H 141.919 -2.51724 1.62097 0
M  V30 1520 H 139.465 -1.20991 0.780838 0
M  V30 1521 H 141.418 -4.21199 -0.130147 0
M  V30 1522 H 140.142 -3.16617 -0.80134 0
M  V30 1523 H 138.801 -3.42173 1.3158 0
M  V30 1524 H 138.449 -4.99449 -0.596606 0
M  V30 1525 H 138.149 -5.79609 0.965788 0
M  V30 1526 H 139.673 -6.10539 0.0861567 0
M  V30 1527 H 141.087 -5.2913 2.20669 0
M  V30 1528 H 139.484 -5.20148 2.99276 0
M  V30 1529 H 140.554 -3.78834 3.02676 0
M  V30 1530 N 141.898 -0.863906 -1.31812 0
M  V30 1531 C 142.846 -0.30422 -2.30602 0
M  V30 1532 C 143.84 0.577419 -1.59255 0
M  V30 1533 O 145.046 0.464194 -1.73912 0
M  V30 1534 H 141.421 -0.0796877 -0.747766 0
M  V30 1535 H 143.392 -1.15148 -2.75288 0
M  V30 1536 C 142.141 0.484617 -3.44306 0
M  V30 1537 H 141.464 -0.18451 -3.99374 0
M  V30 1538 H 142.904 0.841664 -4.15562 0
M  V30 1539 C 141.363 1.6735 -2.92396 0
M  V30 1540 O 141.893 2.77273 -2.90659 0
M  V30 1541 N 140.099 1.50362 -2.48676 0
M  V30 1542 H 139.646 0.609402 -2.50288 0
M  V30 1543 H 139.604 2.30051 -2.14299 0
M  V30 1544 N 143.376 1.44774 -0.622745 0
M  V30 1545 C 144.653 1.95522 -0.0551974 0
M  V30 1546 C 145.033 1.5649 1.41683 0
M  V30 1547 O 144.381 0.834848 2.12703 0
M  V30 1548 C 144.591 3.4796 -0.269242 0
M  V30 1549 C 145.939 4.24306 -0.158014 0
M  V30 1550 O 146.963 3.55637 -0.200162 0
M  V30 1551 O 145.822 5.46471 -0.0558693 0
M  V30 1552 H 142.916 0.826556 0.0271015 0
M  V30 1553 H 145.462 1.54866 -0.693864 0
M  V30 1554 H 144.234 3.6939 -1.29099 0
M  V30 1555 H 143.857 3.95543 0.403966 0
M  V30 1556 N 144.854 0.36279 1.53368 0
M  V30 1557 C 146.1 -0.228113 2.01513 0
M  V30 1558 C 146.433 -1.48648 1.2497 0
M  V30 1559 O 145.708 -1.91459 0.342616 0
M  V30 1560 C 145.991 -0.522884 3.56284 0
M  V30 1561 C 145.844 0.74892 4.43521 0
M  V30 1562 C 147.163 -1.32461 4.19693 0
M  V30 1563 H 144.282 -0.0814343 0.732487 0
M  V30 1564 H 146.924 0.48713 1.83649 0
M  V30 1565 H 145.074 -1.1322 3.71636 0
M  V30 1566 H 146.746 1.38648 4.39971 0
M  V30 1567 H 144.989 1.36986 4.11603 0
M  V30 1568 H 145.66 0.497667 5.49752 0
M  V30 1569 H 148.136 -0.809203 4.08156 0
M  V30 1570 H 147.012 -1.49961 5.28018 0
M  V30 1571 H 147.273 -2.33232 3.75573 0
M  V30 1572 N 146.332 -1.57332 0.0918853 0
M  V30 1573 C 147.557 -1.98995 -0.584442 0
M  V30 1574 C 147.982 -0.970528 -1.61128 0
M  V30 1575 O 147.34 0.0613904 -1.81196 0
M  V30 1576 C 147.388 -3.39636 -1.21161 0
M  V30 1577 O 146.492 -3.40447 -2.32744 0
M  V30 1578 H 145.833 -0.647165 -0.148572 0
M  V30 1579 H 148.363 -2.03873 0.172347 0
M  V30 1580 H 148.373 -3.7726 -1.55367 0
M  V30 1581 H 147.048 -4.13356 -0.459313 0
M  V30 1582 H 145.625 -3.14614 -2.0018 0
M  V30 1583 N 147.81 0.181792 -1.56548 0
M  V30 1584 C 149.05 0.906711 -1.83189 0
M  V30 1585 C 149.414 1.79882 -0.671312 0
M  V30 1586 O 150.615 2.56054 -0.81792 0
M  V30 1587 C 148.886 1.69023 -3.14906 0
M  V30 1588 S 150.445 2.46535 -3.62996 0
M  V30 1589 H 147.263 0.303877 -0.642791 0
M  V30 1590 H 149.865 0.169107 -1.94767 0
M  V30 1591 H 148.569 1.02571 -3.97376 0
M  V30 1592 H 148.1 2.46941 -3.06241 0
M  V30 1593 H 150.115 3.71014 -3.29489 0
M  V30 1594 N 149.288 1.51039 0.449983 0
M  V30 1595 C 150.518 1.66627 1.22143 0
M  V30 1596 C 150.926 0.357776 1.85786 0
M  V30 1597 O 150.269 -0.672424 1.70951 0
M  V30 1598 C 150.331 2.71562 2.35573 0
M  V30 1599 C 149.995 4.14526 1.92399 0
M  V30 1600 C 150.992 4.99717 1.43453 0
M  V30 1601 C 148.677 4.60559 2.00475 0
M  V30 1602 C 150.671 6.28998 1.03155 0
M  V30 1603 C 148.358 5.8984 1.59788 0
M  V30 1604 C 149.356 6.73886 1.11208 0
M  V30 1605 O 149.044 8.0075 0.710935 0
M  V30 1606 H 148.776 0.562635 0.374724 0
M  V30 1607 H 151.33 1.98146 0.541036 0
M  V30 1608 H 149.56 2.3533 3.06849 0
M  V30 1609 H 151.249 2.76156 2.97478 0
M  V30 1610 H 152.015 4.65361 1.36618 0
M  V30 1611 H 147.894 3.95273 2.37235 0
M  V30 1612 H 151.438 6.9455 0.651663 0
M  V30 1613 H 147.335 6.23713 1.66289 0
M  V30 1614 H 148.103 8.142 0.837913 0
M  V30 1615 N 150.766 -0.704594 1.40972 0
M  V30 1616 C 152.013 -1.46458 1.39844 0
M  V30 1617 C 152.341 -1.94499 0.00447594 0
M  V30 1618 O 151.596 -1.69275 -0.982057 0
M  V30 1619 C 151.895 -2.698 2.34399 0
M  V30 1620 C 151.561 -2.40464 3.81429 0
M  V30 1621 C 150.223 -2.32174 4.21484 0
M  V30 1622 C 152.575 -2.16086 4.74296 0
M  V30 1623 C 149.903 -1.97589 5.52427 0
M  V30 1624 C 152.255 -1.83011 6.05549 0
M  V30 1625 C 150.919 -1.7321 6.44635 0
M  V30 1626 H 150.189 -0.535927 0.511725 0
M  V30 1627 H 152.836 -0.806124 1.73706 0
M  V30 1628 H 151.141 -3.40536 1.93759 0
M  V30 1629 H 152.838 -3.27919 2.30804 0
M  V30 1630 H 149.428 -2.47808 3.49699 0
M  V30 1631 H 153.612 -2.2144 4.4416 0
M  V30 1632 H 148.868 -1.88547 5.81601 0
M  V30 1633 H 153.042 -1.63164 6.77016 0
M  V30 1634 H 150.669 -1.46179 7.46013 0
M  V30 1635 N 152.244 -1.26651 -0.937939 0
M  V30 1636 C 153.469 -1.15279 -1.72411 0
M  V30 1637 C 153.894 0.287866 -1.85884 0
M  V30 1638 O 153.252 1.20855 -1.35143 0
M  V30 1639 C 153.3 -1.83028 -3.10698 0
M  V30 1640 O 152.404 -1.12128 -3.96864 0
M  V30 1641 H 151.745 -0.401504 -0.528858 0
M  V30 1642 H 154.275 -1.67531 -1.1745 0
M  V30 1643 H 154.285 -1.89981 -3.6107 0
M  V30 1644 H 152.96 -2.87833 -3.00208 0
M  V30 1645 H 151.537 -1.13173 -3.55312 0
M  V30 1646 N 153.722 1.14298 -1.08507 0
M  V30 1647 C 154.652 2.21542 -0.737646 0
M  V30 1648 C 155.633 1.67773 0.280377 0
M  V30 1649 O 156.818 1.93616 0.150521 0
M  V30 1650 C 153.948 3.46988 -0.147259 0
M  V30 1651 C 152.902 4.13789 -1.09374 0
M  V30 1652 C 152.228 5.33449 -0.365524 0
M  V30 1653 C 153.528 4.62208 -2.4323 0
M  V30 1654 H 155.222 2.5086 -1.6343 0
M  V30 1655 H 152.768 1.20576 -0.787243 0
M  V30 1656 H 154.721 4.21262 0.107808 0
M  V30 1657 H 153.445 3.17037 0.784538 0
M  V30 1658 H 152.104 3.4147 -1.33393 0
M  V30 1659 H 151.752 4.99759 0.57011 0
M  V30 1660 H 151.452 5.79088 -0.996512 0
M  V30 1661 H 152.976 6.10485 -0.118534 0
M  V30 1662 H 154.39 5.27952 -2.23472 0
M  V30 1663 H 152.787 5.18553 -3.02031 0
M  V30 1664 H 153.857 3.77224 -3.04681 0
M  V30 1665 N 155.201 0.870884 1.31352 0
M  V30 1666 C 156.131 0.343096 2.30966 0
M  V30 1667 C 157.112 -0.566507 1.60389 0
M  V30 1668 O 158.297 -0.483336 1.88089 0
M  V30 1669 C 155.427 -0.455487 3.443 0
M  V30 1670 C 154.381 0.361103 4.26474 0
M  V30 1671 C 153.707 -0.563221 5.31725 0
M  V30 1672 C 155.007 1.59566 4.97329 0
M  V30 1673 H 156.701 1.17548 2.75359 0
M  V30 1674 H 154.247 0.566686 1.32381 0
M  V30 1675 H 156.2 -0.83525 4.13039 0
M  V30 1676 H 154.924 -1.32139 2.98675 0
M  V30 1677 H 153.583 0.722825 3.59403 0
M  V30 1678 H 153.231 -1.42643 4.82351 0
M  V30 1679 H 152.931 -0.0207409 5.87596 0
M  V30 1680 H 154.455 -0.939808 6.03324 0
M  V30 1681 H 155.869 1.28728 5.58661 0
M  V30 1682 H 154.266 2.07728 5.63 0
M  V30 1683 H 155.336 2.34798 4.24262 0
M  V30 1684 N 156.679 -1.44442 0.630414 0
M  V30 1685 C 157.589 -2.34476 -0.0761693 0
M  V30 1686 C 158.605 -1.52576 -0.836449 0
M  V30 1687 O 159.781 -1.85307 -0.788874 0
M  V30 1688 C 156.846 -3.30545 -1.04599 0
M  V30 1689 C 155.907 -4.28352 -0.28516 0
M  V30 1690 C 155.14 -5.19831 -1.20878 0
M  V30 1691 O 155.363 -5.15223 -2.44747 0
M  V30 1692 O 154.297 -5.97892 -0.693491 0
M  V30 1693 H 158.123 -2.96345 0.664324 0
M  V30 1694 H 155.708 -1.44203 0.39061 0
M  V30 1695 H 157.59 -3.89681 -1.60396 0
M  V30 1696 H 156.265 -2.7121 -1.76711 0
M  V30 1697 H 155.172 -3.72764 0.315837 0
M  V30 1698 H 156.505 -4.90605 0.395924 0
M  V30 1699 N 158.157 -0.370918 -1.53173 0
M  V30 1700 C 159.405 0.216673 -2.00935 0
M  V30 1701 C 159.726 1.48845 -1.25977 0
M  V30 1702 O 158.996 1.92286 -0.374551 0
M  V30 1703 H 157.576 0.0830565 -0.742368 0
M  V30 1704 H 160.238 -0.49838 -1.8842 0
M  V30 1705 H 159.334 0.439893 -3.08984 0
M  V30 1706 N 159.635 1.57281 -0.100228 0
M  V30 1707 C 160.883 1.94153 0.561157 0
M  V30 1708 C 161.204 0.983157 1.68401 0
M  V30 1709 O 160.474 0.0361132 1.95867 0
M  V30 1710 H 159.054 0.716791 0.210283 0
M  V30 1711 H 161.716 1.94202 -0.164765 0
M  V30 1712 H 160.812 2.96709 0.968008 0
M  V30 1713 N 161.113 -0.173488 1.56642 0
M  V30 1714 C 162.529 -0.525174 1.50712 0
M  V30 1715 C 162.729 -1.8476 0.804107 0
M  V30 1716 O 161.785 -2.49869 0.363574 0
M  V30 1717 C 163.098 -0.559937 2.95441 0
M  V30 1718 C 164.646 -0.647288 3.06234 0
M  V30 1719 C 165.121 -0.712963 4.52417 0
M  V30 1720 N 166.612 -0.775911 4.56655 0
M  V30 1721 C 167.347 -0.847264 5.67106 0
M  V30 1722 N 166.843 -0.879585 6.87194 0
M  V30 1723 N 168.636 -0.886117 5.55071 0
M  V30 1724 H 160.787 0.693681 2.00753 0
M  V30 1725 H 163.05 0.249841 0.914485 0
M  V30 1726 H 162.756 0.343049 3.50023 0
M  V30 1727 H 162.63 -1.40718 3.49969 0
M  V30 1728 H 165.017 -1.5407 2.51687 0
M  V30 1729 H 165.098 0.226586 2.54794 0
M  V30 1730 H 164.742 0.176183 5.07594 0
M  V30 1731 H 164.672 -1.60295 5.0161 0
M  V30 1732 H 167.163 -0.759304 3.70193 0
M  V30 1733 H 167.476 -0.935144 7.67121 0
M  V30 1734 H 165.821 -0.847898 6.89808 0
M  V30 1735 H 169.012 -0.857853 4.60172 0
M  V30 1736 H 169.185 -0.938263 6.41171 0
M  V30 1737 N 162.591 -1.51276 -0.441967 0
M  V30 1738 C 164.002 -1.56244 -1.02199 0
M  V30 1739 C 164.353 -0.383149 -1.92422 0
M  V30 1740 O 163.478 0.500613 -2.1053 0
M  V30 1741 C 164.073 -2.83162 -1.86024 0
M  V30 1742 C 162.632 -2.90716 -2.39084 0
M  V30 1743 C 161.779 -2.50858 -1.18175 0
M  V30 1744 H 164.73 -1.5712 -0.223416 0
M  V30 1745 H 164.751 -2.66663 -2.71425 0
M  V30 1746 H 164.263 -3.68974 -1.20331 0
M  V30 1747 H 162.364 -2.09323 -3.08244 0
M  V30 1748 H 162.477 -3.94266 -2.72198 0
M  V30 1749 H 160.841 -2.03951 -1.52565 0
M  V30 1750 H 161.624 -3.3901 -0.541001 0
M  V30 1751 N 164.069 0.697108 -1.41344 0
M  V30 1752 C 164.979 1.84088 -1.45427 0
M  V30 1753 C 165.995 1.70545 -0.34501 0
M  V30 1754 O 167.171 1.92488 -0.592492 0
M  V30 1755 C 164.236 3.20056 -1.33286 0
M  V30 1756 C 163.297 3.45718 -2.54514 0
M  V30 1757 C 162.53 4.75199 -2.42944 0
M  V30 1758 O 162.753 5.51579 -1.45318 0
M  V30 1759 O 161.687 5.0161 -3.32672 0
M  V30 1760 H 165.513 1.836 -2.41919 0
M  V30 1761 H 163.098 0.849966 -1.22866 0
M  V30 1762 H 164.98 4.01236 -1.28794 0
M  V30 1763 H 163.655 3.2123 -0.39909 0
M  V30 1764 H 162.562 2.64474 -2.64583 0
M  V30 1765 H 163.895 3.49356 -3.46715 0
M  V30 1766 N 165.547 1.27147 0.931209 0
M  V30 1767 C 166.824 1.0401 1.65654 0
M  V30 1768 C 167.204 -0.426297 2.06751 0
M  V30 1769 O 166.552 -1.40879 1.79904 0
M  V30 1770 C 166.762 1.99834 2.86125 0
M  V30 1771 C 168.11 2.29007 3.57549 0
M  V30 1772 O 169.134 1.97779 2.96246 0
M  V30 1773 O 167.993 2.82222 4.67989 0
M  V30 1774 H 165.087 0.396239 0.725895 0
M  V30 1775 H 167.633 1.38397 0.982056 0
M  V30 1776 H 166.405 2.98744 2.52721 0
M  V30 1777 H 166.028 1.65987 3.61295 0
M  V30 1778 N 167.025 -1.13721 1.09112 0
M  V30 1779 C 167.972 -2.19031 0.727591 0
M  V30 1780 C 168.942 -1.63555 -0.289656 0
M  V30 1781 O 170.127 -1.90023 -0.172026 0
M  V30 1782 C 167.267 -3.4477 0.15082 0
M  V30 1783 C 166.38 -4.14365 1.22172 0
M  V30 1784 C 165.515 -5.27709 0.608042 0
M  V30 1785 C 164.554 -5.89147 1.66047 0
M  V30 1786 N 163.691 -6.93929 1.06806 0
M  V30 1787 H 168.531 -2.49475 1.62991 0
M  V30 1788 H 166.068 -1.22499 0.81439 0
M  V30 1789 H 168.026 -4.16714 -0.201358 0
M  V30 1790 H 166.656 -3.14787 -0.714783 0
M  V30 1791 H 165.708 -3.40737 1.69122 0
M  V30 1792 H 167.02 -4.56114 2.01895 0
M  V30 1793 H 166.174 -6.06355 0.204523 0
M  V30 1794 H 164.913 -4.872 -0.220769 0
M  V30 1795 H 163.918 -5.09198 2.07357 0
M  V30 1796 H 165.143 -6.31729 2.49189 0
M  V30 1797 H 163.089 -6.55483 0.260476 0
M  V30 1798 H 163.006 -7.34202 1.8023 0
M  V30 1799 H 164.274 -7.76434 0.690644 0
M  V30 1800 N 168.503 -0.877838 -1.30888 0
M  V30 1801 C 169.433 -0.35534 -2.3078 0
M  V30 1802 C 170.414 0.557994 -1.60687 0
M  V30 1803 O 171.599 0.473355 -1.88343 0
M  V30 1804 C 168.729 0.437221 -3.44537 0
M  V30 1805 C 167.683 -0.383715 -4.26276 0
M  V30 1806 C 167.009 0.535014 -5.32017 0
M  V30 1807 C 168.309 -1.62201 -4.96476 0
M  V30 1808 H 170.003 -1.19007 -2.74732 0
M  V30 1809 H 167.549 -0.573698 -1.32078 0
M  V30 1810 H 169.502 0.813334 -4.13477 0
M  V30 1811 H 168.226 1.30553 -2.99372 0
M  V30 1812 H 166.885 -0.741874 -3.59015 0
M  V30 1813 H 166.533 1.40083 -4.831 0
M  V30 1814 H 166.233 -0.0104211 -5.87599 0
M  V30 1815 H 167.757 0.907799 -6.03814 0
M  V30 1816 H 169.171 -1.31689 -5.5797 0
M  V30 1817 H 167.568 -2.10711 -5.61891 0
M  V30 1818 H 168.638 -2.37044 -4.23011 0
M  V30 1819 N 169.982 1.44106 -0.638065 0
M  V30 1820 C 170.892 2.34513 0.0637334 0
M  V30 1821 C 171.908 1.53018 0.828346 0
M  V30 1822 O 173.084 1.85723 0.779036 0
M  V30 1823 C 170.149 3.31095 1.02844 0
M  V30 1824 C 169.21 4.28497 0.26244 0
M  V30 1825 C 168.443 5.20465 1.1812 0
M  V30 1826 O 168.666 5.16514 2.42011 0
M  V30 1827 O 167.6 5.98251 0.661774 0
M  V30 1828 H 171.426 2.95989 -0.68003 0
M  V30 1829 H 169.011 1.43994 -0.398252 0
M  V30 1830 H 170.893 3.90526 1.58327 0
M  V30 1831 H 169.568 2.72144 1.7527 0
M  V30 1832 H 168.475 3.72592 -0.335602 0
M  V30 1833 H 169.808 4.90388 -0.421936 0
M  V30 1834 N 171.46 0.379036 1.52974 0
M  V30 1835 C 172.707 -0.206421 2.01445 0
M  V30 1836 C 173.035 -1.47668 1.26587 0
M  V30 1837 O 172.29 -1.92514 0.351675 0
M  V30 1838 C 172.589 -0.53096 3.53434 0
M  V30 1839 C 172.255 0.646546 4.46241 0
M  V30 1840 C 170.917 0.969604 4.7133 0
M  V30 1841 C 173.269 1.43479 5.01062 0
M  V30 1842 C 170.597 2.08263 5.48492 0
M  V30 1843 C 172.949 2.53834 5.7944 0
M  V30 1844 C 171.613 2.86659 6.02812 0
M  V30 1845 H 170.883 -0.0755349 0.73714 0
M  V30 1846 H 173.53 0.514271 1.84465 0
M  V30 1847 H 171.835 -1.33285 3.68432 0
M  V30 1848 H 173.532 -0.996417 3.88423 0
M  V30 1849 H 170.122 0.384734 4.2687 0
M  V30 1850 H 174.306 1.19844 4.81613 0
M  V30 1851 H 169.562 2.34078 5.64816 0
M  V30 1852 H 173.736 3.15319 6.20924 0
M  V30 1853 H 171.363 3.73026 6.62387 0
M  V30 1854 N 172.938 -1.57226 0.108567 0
M  V30 1855 C 174.166 -1.99179 -0.559954 0
M  V30 1856 C 174.581 -0.988022 -1.60884 0
M  V30 1857 O 173.938 0.0205512 -1.82488 0
M  V30 1858 C 173.989 -3.41159 -1.19552 0
M  V30 1859 O 173.71 -4.37694 -0.188577 0
M  V30 1860 C 175.211 -3.98188 -1.94837 0
M  V30 1861 H 172.431 -0.654228 -0.149088 0
M  V30 1862 H 174.975 -2.03598 0.19183 0
M  V30 1863 H 173.13 -3.37711 -1.89815 0
M  V30 1864 H 173.544 -5.20469 -0.649014 0
M  V30 1865 H 175.018 -4.99644 -2.34648 0
M  V30 1866 H 175.495 -3.3675 -2.81951 0
M  V30 1867 H 176.101 -4.0515 -1.2936 0
M  V30 1868 N 174.416 0.165178 -1.56732 0
M  V30 1869 C 175.663 0.880807 -1.8234 0
M  V30 1870 C 175.991 1.81977 -0.686621 0
M  V30 1871 O 175.246 1.92971 0.325697 0
M  V30 1872 C 175.545 1.70405 -3.1416 0
M  V30 1873 C 175.211 0.913475 -4.4155 0
M  V30 1874 C 173.873 0.695303 -4.7615 0
M  V30 1875 C 176.225 0.359349 -5.1996 0
M  V30 1876 C 173.553 -0.0879947 -5.86634 0
M  V30 1877 C 175.905 -0.410893 -6.31264 0
M  V30 1878 C 174.569 -0.639808 -6.64427 0
M  V30 1879 H 173.839 0.32231 -0.667231 0
M  V30 1880 H 176.486 0.145402 -1.90947 0
M  V30 1881 H 174.791 2.50903 -3.00923 0
M  V30 1882 H 176.488 2.26091 -3.31186 0
M  V30 1883 H 173.078 1.09357 -4.14414 0
M  V30 1884 H 177.262 0.515228 -4.93618 0
M  V30 1885 H 172.518 -0.27503 -6.10781 0
M  V30 1886 H 176.692 -0.847494 -6.91224 0
M  V30 1887 H 174.319 -1.24864 -7.49875 0
M  V30 1888 N 175.894 1.51508 0.433938 0
M  V30 1889 C 176.841 1.73068 1.52696 0
M  V30 1890 C 177.811 0.572441 1.55924 0
M  V30 1891 O 178.996 0.807253 1.72882 0
M  V30 1892 C 176.136 1.86474 2.90381 0
M  V30 1893 C 175.249 3.14037 2.96656 0
M  V30 1894 C 174.384 3.18019 4.25485 0
M  V30 1895 C 173.423 4.39882 4.2564 0
M  V30 1896 N 172.56 4.41394 5.45999 0
M  V30 1897 H 177.4 2.66366 1.33615 0
M  V30 1898 H 174.937 1.32008 0.649018 0
M  V30 1899 H 176.895 1.92229 3.70275 0
M  V30 1900 H 175.525 0.965809 3.08013 0
M  V30 1901 H 174.577 3.17575 2.09404 0
M  V30 1902 H 175.889 4.0394 2.92633 0
M  V30 1903 H 175.043 3.22708 5.13755 0
M  V30 1904 H 173.782 2.2601 4.3217 0
M  V30 1905 H 172.787 4.35366 3.35763 0
M  V30 1906 H 174.012 5.33159 4.20617 0
M  V30 1907 H 171.958 3.52258 5.53399 0
M  V30 1908 H 171.875 5.25111 5.4387 0
M  V30 1909 H 173.143 4.50281 6.36292 0
M  V30 1910 N 177.372 -0.689602 1.41712 0
M  V30 1911 C 178.302 -1.81577 1.46806 0
M  V30 1912 C 179.283 -1.66945 0.326105 0
M  V30 1913 O 180.468 -1.86588 0.538377 0
M  V30 1914 C 177.598 -3.19762 1.35535 0
M  V30 1915 C 176.552 -3.49107 2.47605 0
M  V30 1916 C 175.878 -4.86711 2.21397 0
M  V30 1917 C 177.178 -3.47483 3.89939 0
M  V30 1918 H 178.872 -1.7757 2.41058 0
M  V30 1919 H 176.418 -0.852887 1.16025 0
M  V30 1920 H 178.371 -3.98263 1.3771 0
M  V30 1921 H 177.095 -3.24409 0.377708 0
M  V30 1922 H 175.754 -2.72959 2.44722 0
M  V30 1923 H 175.402 -4.8799 1.21961 0
M  V30 1924 H 175.102 -5.0731 2.96497 0
M  V30 1925 H 176.626 -5.67515 2.25297 0
M  V30 1926 H 178.04 -4.1598 3.94505 0
M  V30 1927 H 176.437 -3.79615 4.64771 0
M  V30 1928 H 177.507 -2.46341 4.17665 0
M  V30 1929 N 178.85 -1.27639 -0.924453 0
M  V30 1930 C 180.08 -1.16819 -1.70402 0
M  V30 1931 C 180.488 0.277191 -1.87158 0
M  V30 1932 O 179.831 1.20025 -1.39067 0
M  V30 1933 C 179.893 -1.78305 -3.12166 0
M  V30 1934 C 179.557 -3.27502 -3.18734 0
M  V30 1935 C 180.554 -4.2409 -3.00738 0
M  V30 1936 C 178.239 -3.68269 -3.4159 0
M  V30 1937 C 180.233 -5.59422 -3.05492 0
M  V30 1938 C 177.92 -5.0373 -3.45977 0
M  V30 1939 C 178.918 -5.99116 -3.27946 0
M  V30 1940 O 178.606 -7.32108 -3.32074 0
M  V30 1941 H 178.338 -0.406931 -0.539799 0
M  V30 1942 H 180.892 -1.69078 -1.16626 0
M  V30 1943 H 179.122 -1.20528 -3.67437 0
M  V30 1944 H 180.811 -1.62154 -3.72103 0
M  V30 1945 H 181.577 -3.93931 -2.82919 0
M  V30 1946 H 177.456 -2.94496 -3.54673 0
M  V30 1947 H 181 -6.33852 -2.91337 0
M  V30 1948 H 176.897 -5.33543 -3.63321 0
M  V30 1949 H 177.665 -7.40598 -3.48507 0
M  V30 1950 N 180.328 1.1314 -1.09713 0
M  V30 1951 C 181.605 1.80762 -0.747302 0
M  V30 1952 C 181.985 1.96663 0.767265 0
M  V30 1953 O 181.333 1.53706 1.69076 0
M  V30 1954 C 181.543 3.15606 -1.48975 0
M  V30 1955 C 182.891 3.90914 -1.65746 0
M  V30 1956 O 183.915 3.25239 -1.45251 0
M  V30 1957 O 182.774 5.08718 -1.9967 0
M  V30 1958 H 179.868 0.782103 -0.268782 0
M  V30 1959 H 182.414 1.20041 -1.19951 0
M  V30 1960 H 181.186 2.99278 -2.52088 0
M  V30 1961 H 180.809 3.84029 -1.02991 0
M  V30 1962 N 181.806 0.884767 1.30421 0
M  V30 1963 C 183.034 0.518044 2.0031 0
M  V30 1964 C 183.449 -0.893408 1.66324 0
M  V30 1965 O 182.806 -1.5875 0.900262 0
M  V30 1966 C 182.857 0.682997 3.54989 0
M  V30 1967 O 182.578 2.03888 3.87764 0
M  V30 1968 C 184.079 0.31924 4.42149 0
M  V30 1969 H 181.299 0.200265 0.640418 0
M  V30 1970 H 183.843 1.19001 1.6631 0
M  V30 1971 H 181.998 0.0584052 3.87356 0
M  V30 1972 H 182.412 2.05735 4.82466 0
M  V30 1973 H 183.886 0.485555 5.4986 0
M  V30 1974 H 184.363 -0.742717 4.32875 0
M  V30 1975 H 184.969 0.920147 4.15227 0
M  V30 1976 N 183.284 -1.43765 0.645699 0
M  V30 1977 C 184.561 -1.9541 0.0862963 0
M  V30 1978 C 184.941 -1.58725 -1.39175 0
M  V30 1979 O 184.289 -0.868581 -2.11348 0
M  V30 1980 C 184.499 -3.47488 0.324565 0
M  V30 1981 C 185.847 -4.24001 0.225497 0
M  V30 1982 O 186.871 -3.55274 0.256715 0
M  V30 1983 O 185.73 -5.46313 0.142801 0
M  V30 1984 H 182.824 -0.826882 -0.0139483 0
M  V30 1985 H 185.37 -1.53743 0.718415 0
M  V30 1986 H 184.142 -3.67289 1.3496 0
M  V30 1987 H 183.765 -3.96135 -0.340987 0
M  V30 1988 N 184.763 -0.387143 -1.52771 0
M  V30 1989 C 186.179 -0.037007 -1.59557 0
M  V30 1990 C 186.379 1.44801 -1.40124 0
M  V30 1991 O 185.435 2.21227 -1.21716 0
M  V30 1992 C 186.748 -0.512256 -2.96305 0
M  V30 1993 C 188.296 -0.468328 -3.09476 0
M  V30 1994 C 188.771 -0.919731 -4.4867 0
M  V30 1995 N 190.262 -0.875656 -4.54848 0
M  V30 1996 C 190.997 -1.19637 -5.6078 0
M  V30 1997 N 190.493 -1.58745 -6.74368 0
M  V30 1998 N 192.286 -1.11776 -5.50874 0
M  V30 1999 H 184.437 -1.35395 -1.63652 0
M  V30 2000 H 186.7 -0.554818 -0.768688 0
M  V30 2001 H 186.406 -1.54935 -3.15734 0
M  V30 2002 H 186.28 0.089805 -3.77093 0
M  V30 2003 H 188.667 0.559671 -2.89744 0
M  V30 2004 H 188.748 -1.10616 -2.30646 0
M  V30 2005 H 188.392 -1.94595 -4.69143 0
M  V30 2006 H 188.322 -0.258927 -5.25963 0
M  V30 2007 H 190.813 -0.587843 -3.733 0
M  V30 2008 H 191.126 -1.81586 -7.51163 0
M  V30 2009 H 189.471 -1.6263 -6.75705 0
M  V30 2010 H 192.662 -0.811264 -4.61016 0
M  V30 2011 H 192.835 -1.37103 -6.3333 0
M  V30 2012 N 186.241 1.57166 -0.116904 0
M  V30 2013 C 187.189 2.16457 0.851418 0
M  V30 2014 C 188.183 1.11323 1.27686 0
M  V30 2015 O 189.389 1.2963 1.24884 0
M  V30 2016 H 185.764 0.69271 0.292672 0
M  V30 2017 H 187.735 2.96605 0.32685 0
M  V30 2018 C 186.484 2.77689 2.09246 0
M  V30 2019 H 185.807 3.58285 1.77402 0
M  V30 2020 H 187.247 3.22716 2.7501 0
M  V30 2021 C 185.706 1.74667 2.88085 0
M  V30 2022 O 186.236 1.19877 3.83396 0
M  V30 2023 N 184.442 1.44656 2.52038 0
M  V30 2024 H 183.989 1.89402 1.74599 0
M  V30 2025 H 183.947 0.759675 3.05084 0
M  V30 2026 N 187.719 -0.156864 1.56817 0
M  V30 2027 C 188.967 -0.869404 1.82444 0
M  V30 2028 C 189.288 -1.82147 0.69623 0
M  V30 2029 O 188.558 -1.93847 -0.28287 0
M  V30 2030 H 187.138 -0.324043 0.673056 0
M  V30 2031 H 189.8 -0.153224 1.94297 0
M  V30 2032 H 188.896 -1.43761 2.77019 0
M  V30 2033 N 189.197 -1.51736 -0.425897 0
M  V30 2034 C 190.446 -1.64201 -1.17136 0
M  V30 2035 C 190.759 -0.369705 -1.92074 0
M  V30 2036 O 191.965 -0.373898 -2.68913 0
M  V30 2037 C 190.421 -2.90035 -2.13091 0
M  V30 2038 C 190.029 -4.24312 -1.43747 0
M  V30 2039 C 191.773 -3.1186 -2.87999 0
M  V30 2040 C 189.68 -5.41285 -2.38253 0
M  V30 2041 H 188.61 -0.611624 -0.440944 0
M  V30 2042 H 191.261 -1.78212 -0.437328 0
M  V30 2043 H 189.643 -2.69684 -2.89977 0
M  V30 2044 H 190.817 -4.55086 -0.723408 0
M  V30 2045 H 189.132 -4.08456 -0.809465 0
M  V30 2046 H 191.729 -3.96427 -3.58817 0
M  V30 2047 H 192.072 -2.25403 -3.49999 0
M  V30 2048 H 192.605 -3.32605 -2.18217 0
M  V30 2049 H 189.344 -6.30037 -1.80925 0
M  V30 2050 H 188.864 -5.14872 -3.0768 0
M  V30 2051 H 190.543 -5.73694 -2.99139 0
M  V30 2052 N 190.675 0.682077 -1.42076 0
M  V30 2053 C 191.605 1.80796 -1.47767 0
M  V30 2054 C 192.586 1.6677 -0.334954 0
M  V30 2055 O 193.771 1.863 -0.548264 0
M  V30 2056 C 190.901 3.19038 -1.37229 0
M  V30 2057 C 189.855 3.47789 -2.49453 0
M  V30 2058 C 189.181 4.8553 -2.23975 0
M  V30 2059 C 190.481 3.45411 -3.91776 0
M  V30 2060 H 192.175 1.7629 -2.41997 0
M  V30 2061 H 189.721 0.846721 -1.16476 0
M  V30 2062 H 191.674 3.97528 -1.39821 0
M  V30 2063 H 190.398 3.24204 -0.394907 0
M  V30 2064 H 189.057 2.71657 -2.46166 0
M  V30 2065 H 188.705 4.87337 -1.24547 0
M  V30 2066 H 188.405 5.0573 -2.99184 0
M  V30 2067 H 189.929 5.66312 -2.28304 0
M  V30 2068 H 191.343 4.13882 -3.96705 0
M  V30 2069 H 189.74 3.77145 -4.66778 0
M  V30 2070 H 190.81 2.44122 -4.18966 0
M  V30 2071 N 192.153 1.28127 0.917671 0
M  V30 2072 C 193.43 1.05761 1.64542 0
M  V30 2073 C 193.81 -0.404344 2.07191 0
M  V30 2074 O 193.158 -1.38963 1.81388 0
M  V30 2075 C 193.368 2.02857 2.83989 0
M  V30 2076 C 194.716 2.32786 3.551 0
M  V30 2077 O 195.74 2.0091 2.94132 0
M  V30 2078 O 194.599 2.87169 4.64969 0
M  V30 2079 H 191.693 0.403916 0.721652 0
M  V30 2080 H 194.239 1.39431 0.967322 0
M  V30 2081 H 193.011 3.01407 2.49538 0
M  V30 2082 H 192.634 1.69809 3.59514 0
M  V30 2083 N 193.631 -1.12557 1.10312 0
M  V30 2084 C 194.856 -1.88405 0.867085 0
M  V30 2085 C 195.281 -1.79038 -0.576817 0
M  V30 2086 O 194.639 -1.14439 -1.40618 0
M  V30 2087 C 194.687 -3.3563 1.31851 0
M  V30 2088 O 193.791 -4.09565 0.482734 0
M  V30 2089 H 193.132 -0.585455 0.313271 0
M  V30 2090 H 195.662 -1.42352 1.4696 0
M  V30 2091 H 195.672 -3.86469 1.3079 0
M  V30 2092 H 194.347 -3.41765 2.37001 0
M  V30 2093 H 192.924 -3.68695 0.558448 0
M  V30 2094 N 195.109 -0.891671 -1.2995 0
M  V30 2095 C 196.334 -0.527932 -2.00568 0
M  V30 2096 C 196.759 0.877969 -1.66353 0
M  V30 2097 O 196.117 1.58301 -0.883762 0
M  V30 2098 C 196.165 -0.717745 -3.53385 0
M  V30 2099 O 195.269 0.233376 -4.11739 0
M  V30 2100 H 194.61 -0.20722 -0.630837 0
M  V30 2101 H 197.14 -1.20105 -1.65638 0
M  V30 2102 H 197.15 -0.619307 -4.03272 0
M  V30 2103 H 195.825 -1.74276 -3.77625 0
M  V30 2104 H 194.402 0.0880706 -3.72796 0
M  V30 2105 N 196.587 1.43421 -0.653314 0
M  V30 2106 C 197.497 2.34568 0.0388565 0
M  V30 2107 C 198.513 1.53888 0.81207 0
M  V30 2108 O 199.689 1.86539 0.759294 0
M  V30 2109 C 196.754 3.32167 0.993269 0
M  V30 2110 C 195.815 4.28751 0.216977 0
M  V30 2111 C 195.048 5.21688 1.12593 0
M  V30 2112 O 195.271 5.19052 2.36519 0
M  V30 2113 O 194.205 5.98919 0.598284 0
M  V30 2114 H 198.031 2.95251 -0.711386 0
M  V30 2115 H 195.616 1.43564 -0.413502 0
M  V30 2116 H 197.498 3.92183 1.54176 0
M  V30 2117 H 196.173 2.73987 1.72374 0
M  V30 2118 H 195.08 3.72215 -0.375101 0
M  V30 2119 H 196.413 4.89913 -0.473924 0
M  V30 2120 N 198.065 0.39524 1.52563 0
M  V30 2121 C 199.311 -0.185318 2.01952 0
M  V30 2122 C 199.644 -1.45964 1.28095 0
M  V30 2123 O 198.919 -1.90689 0.38315 0
M  V30 2124 C 199.202 -0.447193 3.57312 0
M  V30 2125 C 199.055 0.842828 4.41833 0
M  V30 2126 C 200.374 -1.23529 4.22408 0
M  V30 2127 H 197.493 -0.0658788 0.73405 0
M  V30 2128 H 200.135 0.525975 1.82575 0
M  V30 2129 H 198.285 -1.05312 3.73954 0
M  V30 2130 H 199.957 1.4795 4.36931 0
M  V30 2131 H 198.2 1.45686 4.08605 0
M  V30 2132 H 198.871 0.614165 5.48573 0
M  V30 2133 H 201.347 -0.722445 4.0978 0
M  V30 2134 H 200.223 -1.38727 5.3108 0
M  V30 2135 H 200.484 -2.25213 3.80436 0
M  V30 2136 N 199.544 -1.57102 0.125237 0
M  V30 2137 C 200.821 -1.86953 -0.575142 0
M  V30 2138 C 201.201 -1.02749 -1.84407 0
M  V30 2139 O 200.549 -0.108144 -2.28244 0
M  V30 2140 C 200.759 -3.38198 -0.861583 0
M  V30 2141 C 202.107 -4.06937 -1.21192 0
M  V30 2142 O 203.131 -3.43252 -0.951645 0
M  V30 2143 O 201.99 -5.19364 -1.70068 0
M  V30 2144 H 199.084 -0.774147 -0.290906 0
M  V30 2145 H 201.63 -1.68942 0.160211 0
M  V30 2146 H 200.402 -3.91282 0.0373647 0
M  V30 2147 H 200.025 -3.61661 -1.65188 0
M  V30 2148 N 201.022 0.148545 -1.56898 0
M  V30 2149 C 201.969 1.18345 -1.98149 0
M  V30 2150 C 202.939 1.42772 -0.848848 0
M  V30 2151 O 204.124 1.55132 -1.11079 0
M  V30 2152 C 201.264 2.51231 -2.36594 0
M  V30 2153 C 200.377 2.33991 -3.63142 0
M  V30 2154 C 199.512 3.59902 -3.90697 0
M  V30 2155 C 198.551 3.37692 -5.1052 0
M  V30 2156 N 197.688 4.5573 -5.34092 0
M  V30 2157 H 202.528 0.82467 -2.86362 0
M  V30 2158 H 200.065 0.395756 -1.41676 0
M  V30 2159 H 202.023 3.28713 -2.56912 0
M  V30 2160 H 200.653 2.85059 -1.51463 0
M  V30 2161 H 199.705 1.47572 -3.50609 0
M  V30 2162 H 201.017 2.13539 -4.5078 0
M  V30 2163 H 200.171 4.45813 -4.11505 0
M  V30 2164 H 198.91 3.83357 -3.01477 0
M  V30 2165 H 197.915 2.5017 -4.89587 0
M  V30 2166 H 199.14 3.15637 -6.0129 0
M  V30 2167 H 197.086 4.79361 -4.47827 0
M  V30 2168 H 197.003 4.38274 -6.15996 0
M  V30 2169 H 198.271 5.42858 -5.59397 0
M  V30 2170 N 202.5 1.5196 0.417844 0
M  V30 2171 C 203.749 1.6482 1.16264 0
M  V30 2172 C 204.062 0.379886 1.91876 0
M  V30 2173 O 205.268 0.388154 2.68711 0
M  V30 2174 C 203.724 2.91161 2.1155 0
M  V30 2175 C 203.332 4.25068 1.41495 0
M  V30 2176 C 205.076 3.13383 2.86341 0
M  V30 2177 C 202.983 5.42541 2.35379 0
M  V30 2178 H 201.913 0.613954 0.437694 0
M  V30 2179 H 204.564 1.78442 0.427871 0
M  V30 2180 H 202.946 2.71218 2.88543 0
M  V30 2181 H 204.12 4.55463 0.699263 0
M  V30 2182 H 202.435 4.0888 0.787792 0
M  V30 2183 H 205.032 3.98324 3.5671 0
M  V30 2184 H 205.375 2.27256 3.48798 0
M  V30 2185 H 205.908 3.33757 2.1645 0
M  V30 2186 H 202.647 6.30987 1.77582 0
M  V30 2187 H 202.167 5.16497 3.04945 0
M  V30 2188 H 203.846 5.75272 2.96093 0
M  V30 2189 N 203.978 -0.674533 1.42435 0
M  V30 2190 C 205.227 -1.43034 1.42212 0
M  V30 2191 C 205.54 -1.95555 0.0420788 0
M  V30 2192 O 206.746 -2.71374 -0.0827558 0
M  V30 2193 C 205.202 -2.58748 2.50155 0
M  V30 2194 C 204.81 -2.12925 3.94166 0
M  V30 2195 C 206.554 -3.36257 2.59098 0
M  V30 2196 C 204.461 -3.25723 4.93618 0
M  V30 2197 H 203.391 -0.537345 0.528939 0
M  V30 2198 H 206.042 -0.73024 1.68344 0
M  V30 2199 H 204.424 -3.31128 2.17188 0
M  V30 2200 H 205.598 -1.47697 4.36488 0
M  V30 2201 H 203.913 -1.48354 3.89076 0
M  V30 2202 H 206.51 -4.20264 3.30578 0
M  V30 2203 H 206.853 -3.82866 1.63461 0
M  V30 2204 H 207.386 -2.70947 2.9126 0
M  V30 2205 H 204.125 -2.84105 5.90732 0
M  V30 2206 H 203.645 -3.89732 4.55926 0
M  V30 2207 H 205.324 -3.91186 5.15347 0
M  V30 2208 N 205.456 -1.28612 -0.910864 0
M  V30 2209 C 206.386 -1.15326 -2.03032 0
M  V30 2210 C 207.367 -0.0502924 -1.70026 0
M  V30 2211 O 208.552 -0.227797 -1.92859 0
M  V30 2212 C 205.682 -0.817343 -3.37545 0
M  V30 2213 C 204.636 -1.8754 -3.84724 0
M  V30 2214 C 203.962 -1.39305 -5.16235 0
M  V30 2215 C 205.262 -3.28244 -4.06267 0
M  V30 2216 H 206.956 -2.08975 -2.14406 0
M  V30 2217 H 204.502 -1.00612 -1.03021 0
M  V30 2218 H 206.455 -0.711151 -4.15356 0
M  V30 2219 H 205.179 0.154846 -3.26233 0
M  V30 2220 H 203.838 -1.97079 -3.09121 0
M  V30 2221 H 203.486 -0.409846 -5.01328 0
M  V30 2222 H 203.186 -2.10057 -5.48771 0
M  V30 2223 H 204.71 -1.30014 -5.96598 0
M  V30 2224 H 206.124 -3.21611 -4.74594 0
M  V30 2225 H 204.521 -3.96855 -4.5014 0
M  V30 2226 H 205.591 -3.72048 -3.10979 0
M  V30 2227 N 206.934 1.1197 -1.10907 0
M  V30 2228 C 207.866 2.17592 -0.720175 0
M  V30 2229 C 208.879 1.60938 0.245495 0
M  V30 2230 O 210.068 1.78476 0.0292245 0
M  V30 2231 C 207.168 3.38873 -0.0427917 0
M  V30 2232 C 206.341 4.25006 -1.03388 0
M  V30 2233 C 205.4 5.24774 -0.387075 0
M  V30 2234 O 204.426 5.59631 -1.03934 0
M  V30 2235 N 205.628 5.74208 0.852407 0
M  V30 2236 H 208.393 2.51567 -1.62893 0
M  V30 2237 H 205.954 1.27439 -0.998543 0
M  V30 2238 H 207.946 4.02703 0.401501 0
M  V30 2239 H 206.516 3.03007 0.768456 0
M  V30 2240 H 205.736 3.57716 -1.65629 0
M  V30 2241 H 207.024 4.79397 -1.70458 0
M  V30 2242 H 206.422 5.48062 1.40161 0
M  V30 2243 H 204.979 6.39901 1.23977 0
M  V30 2244 N 208.412 0.89855 1.29475 0
M  V30 2245 C 209.345 0.319981 2.25945 0
M  V30 2246 C 210.323 -0.567189 1.52387 0
M  V30 2247 O 211.507 -0.514254 1.8135 0
M  V30 2248 C 208.634 -0.544013 3.34303 0
M  V30 2249 C 207.68 0.275682 4.25608 0
M  V30 2250 S 208.513 1.67272 5.08704 0
M  V30 2251 C 209.669 0.815621 6.20563 0
M  V30 2252 H 209.902 1.13767 2.74671 0
M  V30 2253 H 207.435 0.69882 1.3768 0
M  V30 2254 H 209.393 -1.03673 3.97193 0
M  V30 2255 H 208.054 -1.33593 2.84274 0
M  V30 2256 H 207.247 -0.384263 5.02533 0
M  V30 2257 H 206.849 0.701496 3.67362 0
M  V30 2258 H 209.141 0.0385042 6.77489 0
M  V30 2259 H 210.084 1.55691 6.90772 0
M  V30 2260 H 210.492 0.370516 5.63283 0
M  V30 2261 N 209.89 -1.43072 0.660911 0
M  V30 2262 C 210.823 -2.28074 -0.0758862 0
M  V30 2263 C 211.801 -1.40271 -0.822362 0
M  V30 2264 O 212.985 -1.69713 -0.820352 0
M  V30 2265 C 210.112 -3.19843 -1.11437 0
M  V30 2266 C 209.158 -4.23957 -0.465069 0
M  V30 2267 S 209.991 -5.29978 0.767078 0
M  V30 2268 C 211.147 -6.25314 -0.270682 0
M  V30 2269 H 211.38 -2.90216 0.645139 0
M  V30 2270 H 208.913 -1.47697 0.449995 0
M  V30 2271 H 210.871 -3.73257 -1.70849 0
M  V30 2272 H 209.532 -2.56863 -1.80776 0
M  V30 2273 H 208.725 -4.88299 -1.24819 0
M  V30 2274 H 208.327 -3.73959 0.0551242 0
M  V30 2275 H 210.619 -6.67932 -1.13459 0
M  V30 2276 H 211.562 -7.07293 0.337916 0
M  V30 2277 H 211.97 -5.61195 -0.609937 0
M  V30 2278 N 211.368 -0.403325 -1.52352 0
M  V30 2279 C 212.784 -0.0539281 -1.59509 0
M  V30 2280 C 212.984 1.43307 -1.41652 0
M  V30 2281 O 212.04 2.19924 -1.24056 0
M  V30 2282 C 213.353 -0.543654 -2.95745 0
M  V30 2283 C 214.901 -0.501125 -3.08962 0
M  V30 2284 C 215.376 -0.967267 -4.47669 0
M  V30 2285 N 216.867 -0.923849 -4.53893 0
M  V30 2286 C 217.602 -1.25578 -5.5948 0
M  V30 2287 N 217.098 -1.65889 -6.72646 0
M  V30 2288 N 218.891 -1.17613 -5.49658 0
M  V30 2289 H 211.042 -1.37123 -1.62206 0
M  V30 2290 H 213.305 -0.56294 -0.76276 0
M  V30 2291 H 213.011 -1.58275 -3.14073 0
M  V30 2292 H 212.885 0.0498042 -3.77167 0
M  V30 2293 H 215.272 0.528909 -2.90321 0
M  V30 2294 H 215.353 -1.13056 -2.2946 0
M  V30 2295 H 214.997 -1.9956 -4.67053 0
M  V30 2296 H 214.927 -0.314698 -5.25659 0
M  V30 2297 H 217.418 -0.627403 -3.72655 0
M  V30 2298 H 217.731 -1.89543 -7.49195 0
M  V30 2299 H 216.076 -1.69787 -6.73942 0
M  V30 2300 H 219.267 -0.860115 -4.6013 0
M  V30 2301 H 219.44 -1.43812 -6.3184 0
M  V30 2302 N 212.846 1.57033 -0.133567 0
M  V30 2303 C 214.092 1.95976 0.521649 0
M  V30 2304 C 214.425 1.01779 1.65393 0
M  V30 2305 O 213.7 0.0576581 1.94415 0
M  V30 2306 C 213.983 3.44738 1.04057 0
M  V30 2307 C 213.836 4.49711 -0.0892897 0
M  V30 2308 C 215.155 3.95682 1.92675 0
M  V30 2309 H 212.274 0.712579 0.188149 0
M  V30 2310 H 214.916 1.88813 -0.212076 0
M  V30 2311 H 213.066 3.50973 1.66583 0
M  V30 2312 H 214.738 4.55565 -0.725152 0
M  V30 2313 H 212.981 4.27261 -0.750378 0
M  V30 2314 H 213.652 5.51099 0.315284 0
M  V30 2315 H 216.128 3.91841 1.39998 0
M  V30 2316 H 215.004 5.00262 2.25897 0
M  V30 2317 H 215.265 3.37239 2.85872 0
M  V30 2318 N 214.325 -0.140222 1.56975 0
M  V30 2319 C 215.288 -1.15689 1.97861 0
M  V30 2320 C 216.288 -1.3549 0.865974 0
M  V30 2321 O 217.478 -1.32367 1.13246 0
M  V30 2322 C 214.61 -2.51582 2.30042 0
M  V30 2323 H 215.803 -0.805971 2.88867 0
M  V30 2324 H 213.356 -0.383801 1.51515 0
M  V30 2325 H 214.091 -2.91632 1.41849 0
M  V30 2326 H 213.876 -2.38569 3.11171 0
M  V30 2327 H 215.366 -3.24792 2.62488 0
M  V30 2328 N 215.803 -1.52179 -0.40978 0
M  V30 2329 C 216.713 -1.78364 -1.52392 0
M  V30 2330 C 217.729 -0.669183 -1.60617 0
M  V30 2331 O 218.905 -0.954518 -1.77344 0
M  V30 2332 C 215.97 -1.92822 -2.88133 0
M  V30 2333 C 215.031 -3.16725 -2.898 0
M  V30 2334 C 214.264 -3.30483 -4.19067 0
M  V30 2335 O 214.487 -2.49522 -5.12928 0
M  V30 2336 O 213.421 -4.2363 -4.27576 0
M  V30 2337 H 217.247 -2.72931 -1.33201 0
M  V30 2338 H 214.832 -1.37016 -0.59557 0
M  V30 2339 H 216.714 -2.04157 -3.68643 0
M  V30 2340 H 215.389 -1.01444 -3.07393 0
M  V30 2341 H 214.296 -3.10848 -2.08146 0
M  V30 2342 H 215.629 -4.07881 -2.75489 0
M  V30 2343 N 217.281 0.66697 -1.42791 0
M  V30 2344 C 218.511 1.45294 -1.46878 0
M  V30 2345 C 218.919 1.89027 -0.0809861 0
M  V30 2346 O 218.262 1.59219 0.916246 0
M  V30 2347 C 218.324 2.72908 -2.34012 0
M  V30 2348 C 217.988 2.51203 -3.81767 0
M  V30 2349 C 218.985 2.15302 -4.73224 0
M  V30 2350 C 216.67 2.65954 -4.26115 0
M  V30 2351 C 218.664 1.94431 -6.07022 0
M  V30 2352 C 216.351 2.44699 -5.59969 0
M  V30 2353 C 217.349 2.08992 -6.5024 0
M  V30 2354 O 217.037 1.87948 -7.81621 0
M  V30 2355 H 216.769 0.453306 -0.501487 0
M  V30 2356 H 219.323 0.826232 -1.88049 0
M  V30 2357 H 217.553 3.38089 -1.87703 0
M  V30 2358 H 219.242 3.34816 -2.29462 0
M  V30 2359 H 220.008 2.03495 -4.40244 0
M  V30 2360 H 215.887 2.92724 -3.56137 0
M  V30 2361 H 219.431 1.66484 -6.77443 0
M  V30 2362 H 215.328 2.56105 -5.9252 0
M  V30 2363 H 216.096 2.02483 -7.93059 0
M  V30 2364 N 218.759 1.29093 0.90403 0
M  V30 2365 C 219.689 1.16401 2.02418 0
M  V30 2366 C 220.67 0.0593085 1.69997 0
M  V30 2367 O 221.855 0.238021 1.92736 0
M  V30 2368 C 218.985 0.835233 3.37107 0
M  V30 2369 C 217.939 1.89578 3.83724 0
M  V30 2370 C 217.265 1.42041 5.15489 0
M  V30 2371 C 218.565 3.30394 4.04521 0
M  V30 2372 H 220.259 2.10109 2.13295 0
M  V30 2373 H 217.805 1.01157 1.02486 0
M  V30 2374 H 219.758 0.733169 4.14973 0
M  V30 2375 H 218.482 -0.137543 3.2631 0
M  V30 2376 H 217.141 1.98715 3.08071 0
M  V30 2377 H 216.789 0.436426 5.01103 0
M  V30 2378 H 216.489 2.12964 5.4765 0
M  V30 2379 H 218.013 1.33176 5.959 0
M  V30 2380 H 219.427 3.24123 4.72882 0
M  V30 2381 H 217.824 3.99237 4.48029 0
M  V30 2382 H 218.894 3.73692 3.09002 0
M  V30 2383 N 220.237 -1.11381 1.11499 0
M  V30 2384 C 221.514 -1.7955 0.775965 0
M  V30 2385 C 221.894 -1.97859 -0.73588 0
M  V30 2386 O 221.242 -1.56376 -1.66609 0
M  V30 2387 C 221.452 -3.13196 1.53977 0
M  V30 2388 C 222.8 -3.88227 1.71944 0
M  V30 2389 O 223.824 -3.22887 1.50407 0
M  V30 2390 O 222.683 -5.05477 2.07738 0
M  V30 2391 H 219.777 -0.777728 0.28119 0
M  V30 2392 H 222.323 -1.18118 1.21845 0
M  V30 2393 H 221.095 -2.95229 2.56818 0
M  V30 2394 H 220.718 -3.82342 1.09088 0
M  V30 2395 N 221.715 -0.905404 -1.28997 0
M  V30 2396 C 222.961 -0.544465 -1.95977 0
M  V30 2397 C 223.316 0.90041 -1.70031 0
M  V30 2398 O 222.609 1.63064 -1.00601 0
M  V30 2399 C 222.803 -0.779906 -3.48787 0
M  V30 2400 C 222.632 -2.24612 -3.89589 0
M  V30 2401 C 221.402 -2.89464 -4.14172 0
M  V30 2402 C 223.6 -3.22182 -4.00878 0
M  V30 2403 N 221.582 -4.26469 -4.41585 0
M  V30 2404 C 222.953 -4.44323 -4.32409 0
M  V30 2405 C 225.008 -3.17694 -3.83373 0
M  V30 2406 C 223.711 -5.62546 -4.48258 0
M  V30 2407 C 225.737 -4.35208 -4.00435 0
M  V30 2408 C 225.099 -5.56121 -4.3233 0
M  V30 2409 H 221.198 -0.248948 -0.741316 0
M  V30 2410 H 223.782 -1.1674 -1.5582 0
M  V30 2411 H 221.953 -0.186308 -3.87953 0
M  V30 2412 H 223.685 -0.383833 -4.02876 0
M  V30 2413 H 220.44 -2.40232 -4.08149 0
M  V30 2414 H 220.864 -4.97283 -4.5939 0
M  V30 2415 H 225.506 -2.25297 -3.57773 0
M  V30 2416 H 223.224 -6.55429 -4.72692 0
M  V30 2417 H 226.81 -4.33228 -3.88336 0
M  V30 2418 H 225.69 -6.45537 -4.45255 0
M  V30 2419 N 223.193 1.4272 -0.668489 0
M  V30 2420 C 224.47 1.95248 -0.117373 0
M  V30 2421 C 224.85 1.60919 1.36632 0
M  V30 2422 O 224.198 0.902095 2.09939 0
M  V30 2423 C 224.408 3.46927 -0.379806 0
M  V30 2424 C 225.756 4.23588 -0.292923 0
M  V30 2425 O 226.78 3.5482 -0.313204 0
M  V30 2426 O 225.639 5.46017 -0.229697 0
M  V30 2427 H 222.733 0.827 0.00079152 0
M  V30 2428 H 225.279 1.52581 -0.742783 0
M  V30 2429 H 224.051 3.65096 -1.40786 0
M  V30 2430 H 223.674 3.96627 0.277923 0
M  V30 2431 N 224.671 0.411399 1.52136 0
M  V30 2432 C 225.917 -0.163888 2.02137 0
M  V30 2433 C 226.25 -1.44597 1.29636 0
M  V30 2434 O 225.525 -1.90272 0.403353 0
M  V30 2435 C 225.808 -0.40927 3.57767 0
M  V30 2436 C 225.661 0.889643 4.40914 0
M  V30 2437 C 226.98 -1.19042 4.23694 0
M  V30 2438 H 224.099 -0.0580896 0.734707 0
M  V30 2439 H 226.741 0.54531 1.82007 0
M  V30 2440 H 224.891 -1.0134 3.7505 0
M  V30 2441 H 226.563 1.52575 4.35337 0
M  V30 2442 H 224.806 1.50011 4.07037 0
M  V30 2443 H 225.477 0.672314 5.4789 0
M  V30 2444 H 227.953 -0.678942 4.10524 0
M  V30 2445 H 226.829 -1.33086 5.32522 0
M  V30 2446 H 227.09 -2.21166 3.82803 0
M  V30 2447 N 226.149 -1.5696 0.141893 0
M  V30 2448 C 227.374 -2.00754 -0.520838 0
M  V30 2449 C 227.799 -1.0213 -1.57959 0
M  V30 2450 O 227.157 0.00371324 -1.813 0
M  V30 2451 C 227.205 -3.43318 -1.10294 0
M  V30 2452 O 226.309 -3.47679 -2.21795 0
M  V30 2453 H 225.65 -0.651564 -0.127908 0
M  V30 2454 H 228.18 -2.03221 0.23712 0
M  V30 2455 H 228.19 -3.82012 -1.43287 0
M  V30 2456 H 226.865 -4.14608 -0.327574 0
M  V30 2457 H 225.442 -3.20824 -1.9007 0
M  V30 2458 N 227.627 0.131896 -1.57047 0
M  V30 2459 C 228.537 1.1815 -2.02676 0
M  V30 2460 C 229.553 1.46113 -0.944824 0
M  V30 2461 O 230.729 1.57485 -1.25541 0
M  V30 2462 C 227.794 2.49139 -2.41103 0
M  V30 2463 C 226.855 2.28688 -3.63318 0
M  V30 2464 C 226.088 3.53431 -3.99903 0
M  V30 2465 O 226.311 4.60223 -3.36973 0
M  V30 2466 O 225.245 3.45198 -4.93074 0
M  V30 2467 H 229.071 0.824069 -2.92306 0
M  V30 2468 H 226.656 0.341745 -1.45439 0
M  V30 2469 H 228.538 3.26338 -2.66611 0
M  V30 2470 H 227.213 2.84382 -1.54624 0
M  V30 2471 H 226.12 1.4939 -3.42977 0
M  V30 2472 H 227.453 1.98355 -4.50462 0
M  V30 2473 N 229.106 1.52395 0.401703 0
M  V30 2474 C 230.036 1.79231 1.49661 0
M  V30 2475 C 231.017 0.643654 1.57452 0
M  V30 2476 O 232.202 0.889989 1.72606 0
M  V30 2477 C 229.332 1.94971 2.87409 0
M  V30 2478 C 228.286 3.10604 2.94465 0
M  V30 2479 C 227.612 3.11577 4.34538 0
M  V30 2480 C 228.912 4.49921 2.6527 0
M  V30 2481 H 230.606 2.70917 1.27454 0
M  V30 2482 H 228.152 1.30362 0.6117 0
M  V30 2483 H 230.105 2.12328 3.63999 0
M  V30 2484 H 228.829 0.999632 3.10926 0
M  V30 2485 H 227.488 2.93009 2.20321 0
M  V30 2486 H 227.136 2.14277 4.55076 0
M  V30 2487 H 226.836 3.89247 4.40183 0
M  V30 2488 H 228.36 3.31073 5.13053 0
M  V30 2489 H 229.774 4.67683 3.31581 0
M  V30 2490 H 228.171 5.29564 2.82281 0
M  V30 2491 H 229.241 4.57507 1.60671 0
M  V30 2492 N 230.584 -0.659388 1.43143 0
M  V30 2493 C 232 -0.974337 1.26407 0
M  V30 2494 C 232.2 -2.007 0.179341 0
M  V30 2495 O 231.256 -2.4856 -0.444295 0
M  V30 2496 C 232.569 -1.46447 2.62628 0
M  V30 2497 C 234.117 -1.58144 2.7011 0
M  V30 2498 C 234.592 -2.1055 4.06734 0
M  V30 2499 N 236.083 -2.17861 4.08767 0
M  V30 2500 C 236.818 -2.59519 5.1131 0
M  V30 2501 N 236.314 -3.00518 6.24228 0
M  V30 2502 N 238.107 -2.59404 4.98664 0
M  V30 2503 H 230.258 0.0240528 2.12386 0
M  V30 2504 H 232.521 -0.0518065 0.946583 0
M  V30 2505 H 232.227 -0.780123 3.42939 0
M  V30 2506 H 232.101 -2.44058 2.87603 0
M  V30 2507 H 234.488 -2.25682 1.90136 0
M  V30 2508 H 234.569 -0.589828 2.48907 0
M  V30 2509 H 234.213 -1.43616 4.87172 0
M  V30 2510 H 234.143 -3.10531 4.25298 0
M  V30 2511 H 236.634 -1.88975 3.27257 0
M  V30 2512 H 236.947 -3.31036 6.98309 0
M  V30 2513 H 235.292 -2.98337 6.2771 0
M  V30 2514 H 238.483 -2.26747 4.09516 0
M  V30 2515 H 238.656 -2.91548 5.78709 0
M  V30 2516 N 232.062 -1.29571 -0.897171 0
M  V30 2517 C 233.473 -1.15964 -1.46319 0
M  V30 2518 C 233.824 0.244267 -1.94674 0
M  V30 2519 O 232.949 1.13998 -1.83939 0
M  V30 2520 C 233.544 -2.09906 -2.65942 0
M  V30 2521 C 232.103 -2.00314 -3.18671 0
M  V30 2522 C 231.25 -2.00687 -1.91363 0
M  V30 2523 H 234.201 -1.42019 -0.708268 0
M  V30 2524 H 234.222 -1.67276 -3.41759 0
M  V30 2525 H 233.734 -3.12075 -2.30718 0
M  V30 2526 H 231.835 -1.01242 -3.58582 0
M  V30 2527 H 231.948 -2.88102 -3.82798 0
M  V30 2528 H 230.312 -1.45319 -2.09175 0
M  V30 2529 H 231.095 -3.04566 -1.58413 0
M  V30 2530 N 233.54 1.10788 -1.12088 0
M  V30 2531 C 234.789 1.82036 -0.868659 0
M  V30 2532 C 235.102 1.85929 0.607426 0
M  V30 2533 O 236.308 2.53346 0.97613 0
M  V30 2534 C 234.764 3.26951 -1.50435 0
M  V30 2535 C 234.372 3.31367 -3.01496 0
M  V30 2536 C 236.116 4.03053 -1.33225 0
M  V30 2537 C 234.023 4.7072 -3.58017 0
M  V30 2538 H 232.953 0.682108 -0.321318 0
M  V30 2539 H 235.604 1.24618 -1.34694 0
M  V30 2540 H 233.986 3.84343 -0.953735 0
M  V30 2541 H 235.16 2.83819 -3.6302 0
M  V30 2542 H 233.475 2.6875 -3.18061 0
M  V30 2543 H 236.072 5.05981 -1.72878 0
M  V30 2544 H 236.415 4.15387 -0.275529 0
M  V30 2545 H 236.948 3.52066 -1.85188 0
M  V30 2546 H 233.687 4.63585 -4.63432 0
M  V30 2547 H 233.207 5.1865 -3.01268 0
M  V30 2548 H 234.886 5.39685 -3.56859 0
M  V30 2549 N 235.018 0.912232 1.28515 0
M  V30 2550 C 235.948 0.416403 2.29757 0
M  V30 2551 C 236.929 -0.515194 1.6211 0
M  V30 2552 O 238.114 -0.423253 1.89532 0
M  V30 2553 C 235.244 -0.34572 3.45575 0
M  V30 2554 C 234.198 0.496599 4.25109 0
M  V30 2555 C 233.524 -0.393771 5.33248 0
M  V30 2556 C 234.824 1.75307 4.92001 0
M  V30 2557 H 236.518 1.26249 2.7148 0
M  V30 2558 H 234.064 0.608515 1.30511 0
M  V30 2559 H 236.017 -0.703422 4.15488 0
M  V30 2560 H 234.741 -1.2257 3.02728 0
M  V30 2561 H 233.4 0.8368 3.56922 0
M  V30 2562 H 233.048 -1.27225 4.86644 0
M  V30 2563 H 232.748 0.166209 5.87365 0
M  V30 2564 H 234.272 -0.747389 6.06009 0
M  V30 2565 H 235.686 1.46437 5.54283 0
M  V30 2566 H 234.083 2.25534 5.56106 0
M  V30 2567 H 235.153 2.48176 4.16577 0
M  V30 2568 N 236.496 -1.42363 0.676048 0
M  V30 2569 C 237.428 -2.29164 -0.0404605 0
M  V30 2570 C 238.441 -1.43747 -0.764245 0
M  V30 2571 O 239.63 -1.67453 -0.618195 0
M  V30 2572 C 236.73 -3.21196 -1.08103 0
M  V30 2573 C 235.903 -4.35273 -0.430812 0
M  V30 2574 C 234.962 -5.08017 -1.37133 0
M  V30 2575 O 233.988 -5.62494 -0.87116 0
M  V30 2576 N 235.19 -5.13647 -2.70456 0
M  V30 2577 H 237.955 -2.91298 0.704667 0
M  V30 2578 H 235.516 -1.53303 0.520559 0
M  V30 2579 H 237.508 -3.66728 -1.71152 0
M  V30 2580 H 236.078 -2.60505 -1.72788 0
M  V30 2581 H 235.298 -3.92372 0.379209 0
M  V30 2582 H 236.586 -5.08795 0.0221132 0
M  V30 2583 H 235.984 -4.708 -3.1363 0
M  V30 2584 H 234.541 -5.62821 -3.28749 0
M  V30 2585 N 237.974 -0.419461 -1.51915 0
M  V30 2586 C 238.884 0.407528 -2.31033 0
M  V30 2587 C 239.9 1.04413 -1.3919 0
M  V30 2588 O 241.076 1.0434 -1.72265 0
M  V30 2589 C 238.141 1.50365 -3.12396 0
M  V30 2590 C 237.202 0.889029 -4.19994 0
M  V30 2591 C 236.435 1.93291 -4.97468 0
M  V30 2592 O 236.658 3.15259 -4.75361 0
M  V30 2593 O 235.592 1.53339 -5.8204 0
M  V30 2594 H 239.418 -0.237865 -3.02767 0
M  V30 2595 H 237.003 -0.182413 -1.48282 0
M  V30 2596 H 238.885 2.13975 -3.63032 0
M  V30 2597 H 237.56 2.13345 -2.43445 0
M  V30 2598 H 236.467 0.215353 -3.7348 0
M  V30 2599 H 237.8 0.302991 -4.91267 0
M  V30 2600 N 239.452 1.56882 -0.150215 0
M  V30 2601 C 240.385 2.12712 0.826358 0
M  V30 2602 C 241.363 1.05154 1.24022 0
M  V30 2603 O 242.547 1.33004 1.33575 0
M  V30 2604 C 239.674 2.64945 2.11002 0
M  V30 2605 C 238.72 3.8468 1.84183 0
M  V30 2606 S 239.553 5.25502 1.02995 0
M  V30 2607 C 240.709 5.81125 2.32474 0
M  V30 2608 H 240.942 2.95214 0.351598 0
M  V30 2609 H 238.475 1.54267 0.0641211 0
M  V30 2610 H 240.433 2.95689 2.84742 0
M  V30 2611 H 239.094 1.82568 2.55593 0
M  V30 2612 H 238.287 4.19482 2.79375 0
M  V30 2613 H 237.889 3.54714 1.1855 0
M  V30 2614 H 240.181 5.92753 3.281 0
M  V30 2615 H 241.124 6.78625 2.02171 0
M  V30 2616 H 241.532 5.09392 2.43269 0
M  V30 2617 N 240.93 -0.123565 1.57115 0
M  V30 2618 C 241.863 -1.18202 1.95201 0
M  V30 2619 C 242.841 -1.40349 0.821031 0
M  V30 2620 O 244.025 -1.54578 1.07879 0
M  V30 2621 C 241.152 -2.53671 2.24429 0
M  V30 2622 C 240.198 -2.4798 3.46999 0
M  V30 2623 S 241.031 -1.92389 4.99747 0
M  V30 2624 C 242.187 -3.2954 5.32123 0
M  V30 2625 H 242.42 -0.857212 2.84674 0
M  V30 2626 H 239.953 -0.33014 1.50829 0
M  V30 2627 H 241.911 -3.3162 2.41947 0
M  V30 2628 H 240.572 -2.83332 1.35579 0
M  V30 2629 H 239.765 -3.47758 3.64801 0
M  V30 2630 H 239.367 -1.7815 3.28844 0
M  V30 2631 H 241.659 -4.25736 5.27025 0
M  V30 2632 H 242.602 -3.16569 6.33395 0
M  V30 2633 H 243.01 -3.27758 4.59603 0
M  V30 2634 N 242.408 -1.52605 -0.393616 0
M  V30 2635 C 243.355 -1.77055 -1.48054 0
M  V30 2636 C 244.325 -0.61358 -1.54352 0
M  V30 2637 O 245.51 -0.852806 -1.70681 0
M  V30 2638 C 242.65 -1.94108 -2.85335 0
M  V30 2639 C 241.763 -3.21792 -2.88226 0
M  V30 2640 C 240.898 -3.29188 -4.16904 0
M  V30 2641 C 239.937 -4.51013 -4.13828 0
M  V30 2642 N 239.074 -4.55716 -5.34105 0
M  V30 2643 H 243.914 -2.69815 -1.26506 0
M  V30 2644 H 241.451 -1.33683 -0.61379 0
M  V30 2645 H 243.409 -2.01979 -3.65049 0
M  V30 2646 H 242.039 -1.04713 -3.05344 0
M  V30 2647 H 241.091 -3.23015 -2.00911 0
M  V30 2648 H 242.403 -4.11557 -2.8182 0
M  V30 2649 H 241.557 -3.36216 -5.05018 0
M  V30 2650 H 240.296 -2.37389 -4.26026 0
M  V30 2651 H 239.301 -4.44115 -3.24102 0
M  V30 2652 H 240.526 -5.44123 -4.06333 0
M  V30 2653 H 238.472 -3.66807 -5.43865 0
M  V30 2654 H 238.389 -5.39346 -5.29756 0
M  V30 2655 H 239.657 -4.66993 -6.2413 0
M  V30 2656 N 243.887 0.651787 -1.4349 0
M  V30 2657 C 244.797 1.79368 -1.5121 0
M  V30 2658 C 245.813 1.69361 -0.399093 0
M  V30 2659 O 246.989 1.90505 -0.653431 0
M  V30 2660 C 244.054 3.15653 -1.43401 0
M  V30 2661 C 243.115 3.37446 -2.65384 0
M  V30 2662 C 242.348 4.67229 -2.57939 0
M  V30 2663 O 242.571 5.46676 -1.62792 0
M  V30 2664 O 241.505 4.90773 -3.48462 0
M  V30 2665 H 245.331 1.7581 -2.47638 0
M  V30 2666 H 242.916 0.810447 -1.25507 0
M  V30 2667 H 244.798 3.96935 -1.41494 0
M  V30 2668 H 243.473 3.19798 -0.501085 0
M  V30 2669 H 242.38 2.55923 -2.72863 0
M  V30 2670 H 243.713 3.38148 -3.57654 0
M  V30 2671 N 245.365 1.30045 0.890287 0
M  V30 2672 C 246.614 1.17929 1.63633 0
M  V30 2673 C 246.927 -0.266204 1.9378 0
M  V30 2674 O 248.133 -0.508804 2.6669 0
M  V30 2675 C 246.589 2.06317 2.94892 0
M  V30 2676 C 246.197 3.55745 2.72305 0
M  V30 2677 C 247.941 2.0295 3.72843 0
M  V30 2678 C 245.848 4.36205 3.99348 0
M  V30 2679 H 244.778 0.437782 0.613892 0
M  V30 2680 H 247.429 1.54754 0.986075 0
M  V30 2681 H 245.811 1.6237 3.61182 0
M  V30 2682 H 246.985 4.07805 2.1455 0
M  V30 2683 H 245.3 3.6088 2.07737 0
M  V30 2684 H 247.897 2.60319 4.67053 0
M  V30 2685 H 248.24 1.0117 4.0382 0
M  V30 2686 H 248.773 2.4499 3.13408 0
M  V30 2687 H 245.512 5.38659 3.73533 0
M  V30 2688 H 245.032 3.8891 4.56628 0
M  V30 2689 H 246.711 4.47362 4.67415 0
M  V30 2690 N 246.843 -1.10192 1.12674 0
M  V30 2691 C 248.12 -1.78717 0.794965 0
M  V30 2692 C 248.5 -1.98628 -0.714853 0
M  V30 2693 O 247.848 -1.58135 -1.64941 0
M  V30 2694 C 248.058 -3.11546 1.5729 0
M  V30 2695 C 249.406 -3.86382 1.76052 0
M  V30 2696 O 250.43 -3.21274 1.53823 0
M  V30 2697 O 249.289 -5.03246 2.13087 0
M  V30 2698 H 246.383 -0.774702 0.289423 0
M  V30 2699 H 248.929 -1.16819 1.23091 0
M  V30 2700 H 247.701 -2.92489 2.59935 0
M  V30 2701 H 247.324 -3.81164 1.13137 0
M  V30 2702 N 248.321 -0.919034 -1.28029 0
M  V30 2703 C 249.551 -0.570143 -1.98577 0
M  V30 2704 C 249.959 0.854172 -1.68821 0
M  V30 2705 O 249.302 1.57807 -0.940351 0
M  V30 2706 C 249.364 -0.705734 -3.52505 0
M  V30 2707 C 249.028 -2.10057 -4.05863 0
M  V30 2708 C 250.025 -3.07385 -4.19298 0
M  V30 2709 C 247.71 -2.41517 -4.40426 0
M  V30 2710 C 249.704 -4.34287 -4.66555 0
M  V30 2711 C 247.391 -3.68657 -4.87376 0
M  V30 2712 C 248.389 -4.64856 -5.00398 0
M  V30 2713 O 248.077 -5.89735 -5.46322 0
M  V30 2714 H 247.809 -0.215592 -0.6407 0
M  V30 2715 H 250.363 -1.23583 -1.64062 0
M  V30 2716 H 248.593 0.0170414 -3.86696 0
M  V30 2717 H 250.282 -0.363172 -4.04272 0
M  V30 2718 H 251.048 -2.84398 -3.92865 0
M  V30 2719 H 246.927 -1.67389 -4.29537 0
M  V30 2720 H 250.471 -5.09377 -4.76635 0
M  V30 2721 H 246.368 -3.91466 -5.13249 0
M  V30 2722 H 247.136 -5.92599 -5.64596 0
M  V30 2723 N 249.799 1.42003 -0.683588 0
M  V30 2724 C 251.076 1.95112 -0.138075 0
M  V30 2725 C 251.456 1.62359 1.34918 0
M  V30 2726 O 250.804 0.924311 2.08971 0
M  V30 2727 C 251.014 3.46505 -0.416581 0
M  V30 2728 C 252.362 4.23254 -0.337834 0
M  V30 2729 O 253.386 3.54468 -0.35082 0
M  V30 2730 O 252.245 5.45743 -0.287596 0
M  V30 2731 H 249.339 0.826961 -0.00797996 0
M  V30 2732 H 251.885 1.51784 -0.758924 0
M  V30 2733 H 250.657 3.63582 -1.4465 0
M  V30 2734 H 250.28 3.969 0.235839 0
M  V30 2735 N 251.277 0.427512 1.51691 0
M  V30 2736 C 252.525 -0.141948 2.01601 0
M  V30 2737 C 252.846 -1.44067 1.31414 0
M  V30 2738 O 252.116 -1.90763 0.445658 0
M  V30 2739 H 250.696 -0.0554468 0.744939 0
M  V30 2740 H 253.358 0.567968 1.86441 0
M  V30 2741 H 252.454 -0.324913 3.10404 0
M  V30 2742 N 252.755 -1.56801 0.158532 0
M  V30 2743 C 253.98 -2.01295 -0.499516 0
M  V30 2744 C 254.405 -1.03799 -1.56867 0
M  V30 2745 O 253.763 -0.0155162 -1.81293 0
M  V30 2746 C 253.811 -3.44469 -1.06647 0
M  V30 2747 O 252.915 -3.50012 -2.18095 0
M  V30 2748 H 252.256 -0.652884 -0.12099 0
M  V30 2749 H 254.786 -2.02958 0.258661 0
M  V30 2750 H 254.796 -3.8351 -1.39227 0
M  V30 2751 H 253.471 -4.14932 -0.283581 0
M  V30 2752 H 252.048 -3.22822 -1.86656 0
M  V30 2753 N 254.233 0.115231 -1.57178 0
M  V30 2754 C 255.481 0.820727 -1.84685 0
M  V30 2755 C 255.802 1.80237 -0.744279 0
M  V30 2756 O 255.072 1.94529 0.231375 0
M  V30 2757 H 253.652 0.306084 -0.681411 0
M  V30 2758 H 256.314 0.101656 -1.94635 0
M  V30 2759 H 255.41 1.36366 -2.80733 0
M  V30 2760 N 255.711 1.52812 0.385517 0
M  V30 2761 C 256.936 1.72207 1.15583 0
M  V30 2762 C 257.361 0.441034 1.82857 0
M  V30 2763 O 256.719 -0.603465 1.70962 0
M  V30 2764 C 256.767 2.87476 2.17692 0
M  V30 2765 O 255.871 2.54693 3.24354 0
M  V30 2766 H 255.212 0.572526 0.336319 0
M  V30 2767 H 257.742 1.99618 0.448744 0
M  V30 2768 H 257.752 3.13072 2.6163 0
M  V30 2769 H 256.427 3.80408 1.68115 0
M  V30 2770 H 255.004 2.3985 2.85529 0
M  V30 2771 N 257.189 -0.644168 1.43834 0
M  V30 2772 C 258.435 -1.40603 1.46146 0
M  V30 2773 C 258.768 -1.93997 0.0887717 0
M  V30 2774 O 258.043 -1.72854 -0.891724 0
M  V30 2775 C 258.326 -2.58086 2.51124 0
M  V30 2776 C 258.179 -2.10126 3.97702 0
M  V30 2777 C 259.498 -3.60291 2.52742 0
M  V30 2778 H 256.617 -0.509905 0.532134 0
M  V30 2779 H 259.259 -0.729502 1.75437 0
M  V30 2780 H 257.409 -3.15801 2.26278 0
M  V30 2781 H 259.081 -1.57342 4.33637 0
M  V30 2782 H 257.324 -1.41419 4.10101 0
M  V30 2783 H 257.995 -2.94649 4.66783 0
M  V30 2784 H 260.471 -3.12352 2.7491 0
M  V30 2785 H 259.347 -4.40032 3.28121 0
M  V30 2786 H 259.608 -4.1349 1.56455 0
M  V30 2787 N 258.668 -1.30515 -0.883378 0
M  V30 2788 C 259.893 -1.22487 -1.67367 0
M  V30 2789 C 260.318 0.208767 -1.86938 0
M  V30 2790 O 259.676 1.15015 -1.40148 0
M  V30 2791 C 259.724 -1.96041 -3.02655 0
M  V30 2792 O 258.828 -1.28859 -3.91751 0
M  V30 2793 H 258.169 -0.423573 -0.511353 0
M  V30 2794 H 260.699 -1.72362 -1.10239 0
M  V30 2795 H 260.709 -2.05124 -3.52687 0
M  V30 2796 H 259.384 -3.00307 -2.8773 0
M  V30 2797 H 257.961 -1.28141 -3.50192 0
M  V30 2798 N 260.146 1.09593 -1.13257 0
M  V30 2799 C 261.078 2.16015 -0.766167 0
M  V30 2800 C 262.091 1.61423 0.211303 0
M  V30 2801 O 263.28 1.78498 -0.00863946 0
M  V30 2802 C 260.38 3.38706 -0.114662 0
M  V30 2803 C 259.553 4.22717 -1.12379 0
M  V30 2804 C 258.612 5.23835 -0.498301 0
M  V30 2805 O 257.638 5.573 -1.15781 0
M  V30 2806 N 258.84 5.75886 0.730417 0
M  V30 2807 H 261.605 2.48055 -1.68193 0
M  V30 2808 H 259.166 1.25292 -1.02535 0
M  V30 2809 H 261.158 4.03464 0.315991 0
M  V30 2810 H 259.728 3.04569 0.704011 0
M  V30 2811 H 258.948 3.54122 -1.73179 0
M  V30 2812 H 260.236 4.75673 -1.80589 0
M  V30 2813 H 259.634 5.50911 1.28504 0
M  V30 2814 H 258.191 6.42387 1.10376 0
M  V30 2815 N 261.624 0.925811 1.2754 0
M  V30 2816 C 262.587 0.428129 2.25166 0
M  V30 2817 C 263.587 -0.452261 1.54309 0
M  V30 2818 O 264.777 -0.253608 1.72344 0
M  V30 2819 C 261.909 -0.384749 3.38722 0
M  V30 2820 H 263.102 1.29066 2.70706 0
M  V30 2821 H 260.655 0.706323 1.3943 0
M  V30 2822 H 261.39 -1.26618 2.98561 0
M  V30 2823 H 261.175 0.246454 3.91325 0
M  V30 2824 H 262.665 -0.723389 4.11287 0
M  V30 2825 N 263.102 -1.41638 0.69111 0
M  V30 2826 C 264.012 -2.34588 0.0233487 0
M  V30 2827 C 265.028 -1.55987 -0.770984 0
M  V30 2828 O 266.204 -1.88486 -0.709569 0
M  V30 2829 C 263.269 -3.34684 -0.904851 0
M  V30 2830 C 262.33 -4.29176 -0.103225 0
M  V30 2831 C 261.563 -5.2449 -0.987216 0
M  V30 2832 O 261.786 -5.2514 -2.22674 0
M  V30 2833 O 260.72 -6.00295 -0.439281 0
M  V30 2834 H 264.546 -2.93261 0.789416 0
M  V30 2835 H 262.131 -1.42417 0.45142 0
M  V30 2836 H 264.013 -3.96133 -1.43724 0
M  V30 2837 H 262.688 -2.78461 -1.65049 0
M  V30 2838 H 261.595 -3.71089 0.473655 0
M  V30 2839 H 262.928 -4.88484 0.60365 0
M  V30 2840 N 264.58 -0.43555 -1.51462 0
M  V30 2841 C 265.826 0.123979 -2.03022 0
M  V30 2842 C 266.181 1.4054 -1.31401 0
M  V30 2843 O 265.474 1.86948 -0.419634 0
M  V30 2844 C 265.668 0.39942 -3.55161 0
M  V30 2845 C 265.497 -0.853754 -4.41521 0
M  V30 2846 C 264.267 -1.38675 -4.85898 0
M  V30 2847 C 266.465 -1.73939 -4.83994 0
M  V30 2848 N 264.447 -2.59265 -5.56466 0
M  V30 2849 C 265.818 -2.79135 -5.5361 0
M  V30 2850 C 267.873 -1.75402 -4.65981 0
M  V30 2851 C 266.576 -3.85737 -6.07124 0
M  V30 2852 C 268.602 -2.80938 -5.20411 0
M  V30 2853 C 267.964 -3.84854 -5.89972 0
M  V30 2854 H 264.063 0.00624887 -0.781975 0
M  V30 2855 H 266.647 -0.59582 -1.85359 0
M  V30 2856 H 264.818 1.08825 -3.72843 0
M  V30 2857 H 266.55 0.95015 -3.93388 0
M  V30 2858 H 263.305 -0.94094 -4.64159 0
M  V30 2859 H 263.729 -3.2041 -5.96378 0
M  V30 2860 H 268.371 -0.963926 -4.11665 0
M  V30 2861 H 266.089 -4.65586 -6.60496 0
M  V30 2862 H 269.675 -2.8301 -5.08327 0
M  V30 2863 H 268.555 -4.65176 -6.31333 0
M  V30 2864 N 266.058 1.56714 -0.166846 0
M  V30 2865 C 267.304 1.97039 0.479962 0
M  V30 2866 C 267.637 1.05264 1.63197 0
M  V30 2867 O 266.912 0.0988833 1.94248 0
M  V30 2868 C 267.195 3.46867 0.967212 0
M  V30 2869 C 267.048 4.49421 -0.18466 0
M  V30 2870 C 268.367 3.9968 1.84238 0
M  V30 2871 H 265.486 0.71641 0.172992 0
M  V30 2872 H 268.128 1.8832 -0.252079 0
M  V30 2873 H 266.278 3.54428 1.59101 0
M  V30 2874 H 267.95 4.53924 -0.821621 0
M  V30 2875 H 266.193 4.25573 -0.840837 0
M  V30 2876 H 266.864 5.51644 0.198317 0
M  V30 2877 H 269.34 3.94723 1.31655 0
M  V30 2878 H 268.216 5.04941 2.15234 0
M  V30 2879 H 268.477 3.43226 2.78654 0
M  V30 2880 N 267.536 -0.106894 1.57237 0
M  V30 2881 C 268.952 -0.46078 1.52804 0
M  V30 2882 C 269.152 -1.81184 0.881746 0
M  V30 2883 O 268.208 -2.48102 0.469224 0
M  V30 2884 C 269.521 -0.434127 2.9755 0
M  V30 2885 C 271.069 -0.516821 3.08704 0
M  V30 2886 C 271.544 -0.520436 4.55033 0
M  V30 2887 N 273.035 -0.58153 4.59535 0
M  V30 2888 C 273.77 -0.605973 5.70189 0
M  V30 2889 N 273.266 -0.587331 6.90306 0
M  V30 2890 N 275.059 -0.649895 5.5833 0
M  V30 2891 H 267.21 0.778203 1.9763 0
M  V30 2892 H 269.473 0.288403 0.903066 0
M  V30 2893 H 269.179 0.491197 3.48253 0
M  V30 2894 H 269.053 -1.25748 3.55622 0
M  V30 2895 H 271.44 -1.43256 2.57995 0
M  V30 2896 H 271.521 0.334449 2.53604 0
M  V30 2897 H 271.165 0.391313 5.0639 0
M  V30 2898 H 271.095 -1.38876 5.07958 0
M  V30 2899 H 273.586 -0.60161 3.73081 0
M  V30 2900 H 273.899 -0.60894 7.70397 0
M  V30 2901 H 272.244 -0.554564 6.92784 0
M  V30 2902 H 275.435 -0.661907 4.63397 0
M  V30 2903 H 275.608 -0.665476 6.44574 0
M  V30 2904 N 269.014 -1.53014 -0.377408 0
M  V30 2905 C 269.977 -1.77957 -1.44444 0
M  V30 2906 C 270.977 -0.649763 -1.47087 0
M  V30 2907 O 272.167 -0.917897 -1.48055 0
M  V30 2908 C 269.299 -1.89089 -2.83651 0
M  V30 2909 H 270.492 -2.73243 -1.23606 0
M  V30 2910 H 268.045 -1.43912 -0.609844 0
M  V30 2911 H 268.78 -0.958293 -3.09818 0
M  V30 2912 H 268.565 -2.71254 -2.83132 0
M  V30 2913 H 270.055 -2.1002 -3.60945 0
M  V30 2914 N 270.492 0.636531 -1.44174 0
M  V30 2915 C 271.74 1.39343 -1.46383 0
M  V30 2916 C 272.061 1.94766 -0.0955715 0
M  V30 2917 O 271.331 1.75452 0.871395 0
M  V30 2918 H 269.911 0.517199 -0.538994 0
M  V30 2919 H 272.573 0.74957 -1.7991 0
M  V30 2920 H 271.669 2.22746 -2.18611 0
M  V30 2921 N 271.97 1.30982 0.876444 0
M  V30 2922 C 272.933 1.18054 1.96459 0
M  V30 2923 C 273.933 0.109399 1.60427 0
M  V30 2924 O 275.123 0.358173 1.70478 0
M  V30 2925 C 272.255 0.810616 3.31122 0
M  V30 2926 H 273.448 2.14735 2.09354 0
M  V30 2927 H 271.001 1.145 1.06392 0
M  V30 2928 H 271.736 -0.155322 3.23928 0
M  V30 2929 H 271.521 1.58481 3.58645 0
M  V30 2930 H 273.011 0.743876 4.10921 0
M  V30 2931 N 273.449 -1.08991 1.13837 0
M  V30 2932 C 274.677 -1.85011 0.926202 0
M  V30 2933 C 275.092 -1.8135 -0.525127 0
M  V30 2934 O 274.449 -1.21287 -1.36366 0
M  V30 2935 C 274.5 -3.32802 1.41155 0
M  V30 2936 O 274.221 -3.36444 2.80601 0
M  V30 2937 C 275.722 -4.25649 1.23847 0
M  V30 2938 H 272.942 -0.584249 0.32999 0
M  V30 2939 H 275.486 -1.37688 1.51202 0
M  V30 2940 H 273.641 -3.77536 0.868631 0
M  V30 2941 H 274.055 -4.28657 3.02248 0
M  V30 2942 H 275.529 -5.27485 1.62675 0
M  V30 2943 H 276.006 -4.38828 0.18065 0
M  V30 2944 H 276.612 -3.86735 1.76964 0
M  V30 2945 N 274.927 -0.932562 -1.27047 0
M  V30 2946 C 276.155 -0.592031 -1.98249 0
M  V30 2947 C 276.57 0.831062 -1.69525 0
M  V30 2948 O 275.927 1.55299 -0.958561 0
M  V30 2949 C 275.978 -0.814279 -3.5221 0
M  V30 2950 O 275.699 -2.18139 -3.7993 0
M  V30 2951 C 277.2 -0.483121 -4.4066 0
M  V30 2952 H 274.42 -0.223896 -0.632544 0
M  V30 2953 H 276.964 -1.25091 -1.61779 0
M  V30 2954 H 275.119 -0.20213 -3.86872 0
M  V30 2955 H 275.533 -2.235 -4.74498 0
M  V30 2956 H 277.007 -0.689298 -5.47679 0
M  V30 2957 H 277.484 0.581546 -4.35333 0
M  V30 2958 H 278.09 -1.07362 -4.11526 0
M  V30 2959 N 276.405 1.4127 -0.698611 0
M  V30 2960 C 277.651 2.01478 -0.231207 0
M  V30 2961 C 277.984 1.55215 1.16713 0
M  V30 2962 O 277.259 0.764672 1.78838 0
M  V30 2963 C 277.542 3.58912 -0.292281 0
M  V30 2964 C 277.395 4.15293 -1.72778 0
M  V30 2965 C 278.714 4.38736 0.346194 0
M  V30 2966 H 275.833 0.732025 -0.0854878 0
M  V30 2967 H 278.475 1.67977 -0.887906 0
M  V30 2968 H 276.625 3.87582 0.26686 0
M  V30 2969 H 278.297 3.97486 -2.341 0
M  V30 2970 H 276.54 3.7022 -2.26096 0
M  V30 2971 H 277.211 5.24452 -1.72202 0
M  V30 2972 H 279.687 4.15897 -0.130035 0
M  V30 2973 H 278.563 5.48221 0.272932 0
M  V30 2974 H 278.824 4.18425 1.42734 0
M  V30 2975 N 277.883 0.443576 1.51229 0
M  V30 2976 C 279.294 -0.0180867 1.86691 0
M  V30 2977 C 279.645 -1.41384 1.36033 0
M  V30 2978 O 278.77 -2.04291 0.713722 0
M  V30 2979 C 279.365 -0.039597 3.38777 0
M  V30 2980 C 277.924 -0.445692 3.73752 0
M  V30 2981 C 277.071 0.357584 2.74985 0
M  V30 2982 H 280.022 0.659138 1.44364 0
M  V30 2983 H 280.043 -0.847761 3.70936 0
M  V30 2984 H 279.555 0.976382 3.75617 0
M  V30 2985 H 277.656 -1.46704 3.42503 0
M  V30 2986 H 277.769 -0.166155 4.78812 0
M  V30 2987 H 276.133 -0.184973 2.54027 0
M  V30 2988 H 276.916 1.37256 3.14668 0
M  V30 2989 N 279.361 -1.56624 0.175154 0
M  V30 2990 C 280.291 -2.21155 -0.749195 0
M  V30 2991 C 281.272 -1.16836 -1.23626 0
M  V30 2992 O 282.457 -1.45277 -1.28873 0
M  V30 2993 C 279.587 -2.8553 -1.97711 0
M  V30 2994 C 278.541 -3.95921 -1.62575 0
M  V30 2995 C 277.867 -4.47365 -2.92864 0
M  V30 2996 C 279.167 -5.15323 -0.850838 0
M  V30 2997 H 280.861 -2.98653 -0.211295 0
M  V30 2998 H 278.407 -1.43651 -0.100188 0
M  V30 2999 H 280.36 -3.2935 -2.62881 0
M  V30 3000 H 279.084 -2.05406 -2.53921 0
M  V30 3001 H 277.743 -3.52762 -0.997719 0
M  V30 3002 H 277.391 -3.64027 -3.47122 0
M  V30 3003 H 277.091 -5.21839 -2.70106 0
M  V30 3004 H 278.615 -4.93873 -3.59056 0
M  V30 3005 H 280.029 -5.55812 -1.40521 0
M  V30 3006 H 278.426 -5.95739 -0.722154 0
M  V30 3007 H 279.496 -4.84661 0.152082 0
M  V30 3008 N 280.839 0.0985539 -1.57292 0
M  V30 3009 C 281.769 1.12064 -2.04851 0
M  V30 3010 C 282.75 1.41981 -0.936767 0
M  V30 3011 O 283.935 1.52071 -1.20781 0
M  V30 3012 C 281.065 2.44144 -2.47004 0
M  V30 3013 C 280.019 2.28643 -3.6181 0
M  V30 3014 C 279.345 3.65869 -3.89929 0
M  V30 3015 C 280.645 1.72986 -4.92822 0
M  V30 3016 H 282.339 0.724979 -2.9049 0
M  V30 3017 H 279.885 0.34729 -1.39749 0
M  V30 3018 H 281.838 3.15914 -2.78884 0
M  V30 3019 H 280.562 2.85639 -1.5836 0
M  V30 3020 H 279.221 1.59318 -3.30172 0
M  V30 3021 H 278.869 4.04885 -2.98458 0
M  V30 3022 H 278.569 3.56344 -4.67218 0
M  V30 3023 H 280.093 4.39112 -4.2428 0
M  V30 3024 H 281.507 2.34593 -5.23105 0
M  V30 3025 H 279.904 1.74229 -5.74251 0
M  V30 3026 H 280.974 0.689007 -4.7998 0
M  V30 3027 N 282.317 1.53212 0.369288 0
M  V30 3028 C 283.563 1.69466 1.11397 0
M  V30 3029 C 283.896 0.443257 1.89074 0
M  V30 3030 O 283.171 -0.559386 1.86282 0
M  V30 3031 C 283.454 2.9422 2.07621 0
M  V30 3032 C 283.307 4.29508 1.33577 0
M  V30 3033 C 284.626 3.14565 3.07794 0
M  V30 3034 H 281.745 0.616667 0.403597 0
M  V30 3035 H 284.387 1.85845 0.395179 0
M  V30 3036 H 282.537 2.80387 2.68916 0
M  V30 3037 H 284.209 4.55147 0.750955 0
M  V30 3038 H 282.452 4.29088 0.637618 0
M  V30 3039 H 283.123 5.12926 2.03989 0
M  V30 3040 H 285.599 3.2756 2.56601 0
M  V30 3041 H 284.475 4.03297 3.72348 0
M  V30 3042 H 284.736 2.29675 3.77759 0
M  V30 3043 N 283.795 -0.628877 1.44509 0
M  V30 3044 C 284.725 -1.75187 1.54376 0
M  V30 3045 C 285.706 -1.65411 0.396618 0
M  V30 3046 O 286.891 -1.84137 0.617031 0
M  V30 3047 C 284.021 -3.13725 1.48976 0
M  V30 3048 C 282.975 -3.38291 2.62189 0
M  V30 3049 C 282.301 -4.76883 2.41841 0
M  V30 3050 C 283.601 -3.30632 4.04326 0
M  V30 3051 H 285.295 -1.67187 2.48373 0
M  V30 3052 H 282.841 -0.802909 1.19538 0
M  V30 3053 H 284.794 -3.92064 1.54478 0
M  V30 3054 H 283.518 -3.22515 0.514961 0
M  V30 3055 H 282.177 -2.62334 2.56079 0
M  V30 3056 H 281.825 -4.82378 1.42548 0
M  V30 3057 H 281.525 -4.94278 3.17747 0
M  V30 3058 H 283.049 -5.57449 2.49165 0
M  V30 3059 H 284.463 -3.98873 4.11793 0
M  V30 3060 H 282.86 -3.59561 4.80454 0
M  V30 3061 H 283.93 -2.28404 4.27738 0
M  V30 3062 N 285.273 -1.31445 -0.869486 0
M  V30 3063 C 286.203 -1.21727 -1.99261 0
M  V30 3064 C 287.184 -0.104359 -1.6978 0
M  V30 3065 O 288.369 -0.289038 -1.92037 0
M  V30 3066 C 285.499 -0.924317 -3.34774 0
M  V30 3067 C 284.453 -1.99685 -3.78563 0
M  V30 3068 C 283.779 -1.55658 -5.11541 0
M  V30 3069 C 285.079 -3.41003 -3.95619 0
M  V30 3070 H 286.773 -2.1569 -2.07649 0
M  V30 3071 H 284.319 -1.03839 -0.997675 0
M  V30 3072 H 286.272 -0.842934 -4.12883 0
M  V30 3073 H 284.996 0.0509793 -3.2656 0
M  V30 3074 H 283.655 -2.06813 -3.02694 0
M  V30 3075 H 283.303 -0.569132 -4.9977 0
M  V30 3076 H 283.003 -2.27409 -5.41811 0
M  V30 3077 H 284.527 -1.48928 -5.92159 0
M  V30 3078 H 285.941 -3.36547 -4.64122 0
M  V30 3079 H 284.338 -4.10975 -4.37286 0
M  V30 3080 H 285.408 -3.81754 -2.98985 0
M  V30 3081 N 286.751 1.08385 -1.14413 0
M  V30 3082 C 287.999 1.80419 -0.910679 0
M  V30 3083 C 288.32 1.86658 0.564243 0
M  V30 3084 O 287.59 1.35985 1.41014 0
M  V30 3085 H 286.17 0.668204 -0.333934 0
M  V30 3086 H 288.832 1.31037 -1.44275 0
M  V30 3087 H 287.928 2.83238 -1.31082 0
M  V30 3088 N 288.23 0.939286 1.26551 0
M  V30 3089 C 289.16 0.465044 2.28822 0
M  V30 3090 C 290.141 -0.480692 1.63167 0
M  V30 3091 O 291.326 -0.382955 1.90387 0
M  V30 3092 C 288.456 -0.27234 3.46231 0
M  V30 3093 C 287.41 0.58666 4.2396 0
M  V30 3094 C 286.736 -0.280573 5.33963 0
M  V30 3095 C 288.036 1.85704 4.88171 0
M  V30 3096 H 289.73 1.31979 2.68741 0
M  V30 3097 H 287.276 0.636061 1.29191 0
M  V30 3098 H 289.229 -0.615133 4.16886 0
M  V30 3099 H 287.953 -1.16121 3.0526 0
M  V30 3100 H 286.612 0.91232 3.55067 0
M  V30 3101 H 286.26 -1.16874 4.89234 0
M  V30 3102 H 285.96 0.29076 5.8688 0
M  V30 3103 H 287.484 -0.618678 6.07458 0
M  V30 3104 H 288.898 1.58161 5.51052 0
M  V30 3105 H 287.295 2.37279 5.51197 0
M  V30 3106 H 288.365 2.56957 4.11219 0
M  V30 3107 N 289.708 -1.40897 0.706093 0
M  V30 3108 C 290.618 -2.3455 0.0482286 0
M  V30 3109 C 291.634 -1.56796 -0.754396 0
M  V30 3110 O 292.81 -1.89228 -0.689538 0
M  V30 3111 C 289.875 -3.35625 -0.869303 0
M  V30 3112 C 288.936 -4.29261 -0.0576994 0
M  V30 3113 C 288.169 -5.25508 -0.931531 0
M  V30 3114 O 288.392 -5.27472 -2.17092 0
M  V30 3115 O 287.326 -6.00727 -0.375587 0
M  V30 3116 H 291.152 -2.92407 0.820476 0
M  V30 3117 H 288.737 -1.4193 0.4665 0
M  V30 3118 H 290.619 -3.97635 -1.39514 0
M  V30 3119 H 289.294 -2.80196 -1.62086 0
M  V30 3120 H 288.201 -3.70566 0.512988 0
M  V30 3121 H 289.534 -4.87817 0.655426 0
M  V30 3122 N 291.186 -0.45159 -1.50991 0
M  V30 3123 C 292.119 0.398179 -2.24699 0
M  V30 3124 C 293.097 1.01276 -1.27208 0
M  V30 3125 O 294.281 1.05247 -1.56382 0
M  V30 3126 C 291.408 1.55618 -3.00833 0
M  V30 3127 C 290.454 1.0609 -4.13095 0
M  V30 3128 S 291.287 -0.00865136 -5.35499 0
M  V30 3129 C 292.443 1.15369 -6.15175 0
M  V30 3130 H 292.676 -0.227555 -2.96428 0
M  V30 3131 H 290.209 -0.236251 -1.52582 0
M  V30 3132 H 292.167 2.21997 -3.45293 0
M  V30 3133 H 290.828 2.15337 -2.28667 0
M  V30 3134 H 290.021 1.92726 -4.65696 0
M  V30 3135 H 289.623 0.47513 -3.7097 0
M  V30 3136 H 291.915 2.06925 -6.45126 0
M  V30 3137 H 292.858 0.667344 -7.04948 0
M  V30 3138 H 293.266 1.3987 -5.46897 0
M  V30 3139 N 292.664 1.56529 -0.183458 0
M  V30 3140 C 293.892 2.01623 0.464285 0
M  V30 3141 C 294.307 1.06366 1.55986 0
M  V30 3142 O 293.664 0.0665398 1.82379 0
M  V30 3143 C 293.715 3.46475 1.03139 0
M  V30 3144 O 293.436 4.38095 -0.0204675 0
M  V30 3145 C 294.937 4.0703 1.75617 0
M  V30 3146 H 292.157 0.660596 0.117704 0
M  V30 3147 H 294.701 2.02451 -0.288751 0
M  V30 3148 H 292.856 3.46383 1.73486 0
M  V30 3149 H 293.27 5.22973 0.399952 0
M  V30 3150 H 294.744 5.10271 2.10542 0
M  V30 3151 H 295.221 3.49819 2.65563 0
M  V30 3152 H 295.827 4.1086 1.09882 0
M  V30 3153 N 294.142 -0.090211 1.57342 0
M  V30 3154 C 295.072 -1.10976 2.05443 0
M  V30 3155 C 296.053 -1.41482 0.944284 0
M  V30 3156 O 297.238 -1.51428 1.21586 0
M  V30 3157 C 294.368 -2.42831 2.48295 0
M  V30 3158 C 293.322 -2.26721 3.63018 0
M  V30 3159 C 292.648 -3.63796 3.91863 0
M  V30 3160 C 293.948 -1.7037 4.93732 0
M  V30 3161 H 295.642 -0.709564 2.9087 0
M  V30 3162 H 293.188 -0.339874 1.39932 0
M  V30 3163 H 295.141 -3.14431 2.80555 0
M  V30 3164 H 293.865 -2.84795 1.59873 0
M  V30 3165 H 292.524 -1.57565 3.31012 0
M  V30 3166 H 292.172 -4.03297 3.00601 0
M  V30 3167 H 291.872 -3.53861 4.69101 0
M  V30 3168 H 293.396 -4.36855 4.26603 0
M  V30 3169 H 294.81 -2.31816 5.24342 0
M  V30 3170 H 293.207 -1.71181 5.75167 0
M  V30 3171 H 294.277 -0.663542 4.80339 0
M  V30 3172 N 295.62 -1.53406 -0.361157 0
M  V30 3173 C 296.567 -1.80156 -1.44265 0
M  V30 3174 C 297.537 -0.646183 -1.53015 0
M  V30 3175 O 298.722 -0.888818 -1.68833 0
M  V30 3176 C 295.862 -2.00116 -2.81154 0
M  V30 3177 C 294.975 -3.27833 -2.81335 0
M  V30 3178 C 294.11 -3.37957 -4.09828 0
M  V30 3179 C 293.149 -4.59689 -4.04168 0
M  V30 3180 N 292.286 -4.66942 -5.24318 0
M  V30 3181 H 297.126 -2.72438 -1.20754 0
M  V30 3182 H 294.663 -1.34954 -0.585296 0
M  V30 3183 H 296.621 -2.09677 -3.60682 0
M  V30 3184 H 295.251 -1.11167 -3.03054 0
M  V30 3185 H 294.303 -3.27204 -1.94014 0
M  V30 3186 H 295.615 -4.17442 -2.73027 0
M  V30 3187 H 294.769 -3.46853 -4.97773 0
M  V30 3188 H 293.508 -2.46372 -4.20894 0
M  V30 3189 H 292.513 -4.50889 -3.14609 0
M  V30 3190 H 293.738 -5.5262 -3.947 0
M  V30 3191 H 291.684 -3.7826 -5.35962 0
M  V30 3192 H 291.601 -5.50462 -5.18197 0
M  V30 3193 H 292.869 -4.80127 -6.14084 0
M  V30 3194 N 297.098 0.621204 -1.44841 0
M  V30 3195 C 298.375 1.38 -1.38619 0
M  V30 3196 C 298.755 2.11041 -0.0498935 0
M  V30 3197 O 298.103 2.06992 0.967816 0
M  V30 3198 C 298.313 2.33817 -2.59096 0
M  V30 3199 C 299.661 2.96844 -3.03593 0
M  V30 3200 O 300.685 2.44141 -2.59371 0
M  V30 3201 O 299.544 3.92476 -3.80296 0
M  V30 3202 H 296.638 0.61811 -0.549426 0
M  V30 3203 H 299.184 0.645429 -1.56947 0
M  V30 3204 H 297.956 1.79012 -3.47952 0
M  V30 3205 H 297.579 3.14676 -2.43032 0
M  V30 3206 N 298.576 1.31904 0.862503 0
M  V30 3207 C 299.853 1.12644 1.59908 0
M  V30 3208 C 300.233 -0.316104 2.0872 0
M  V30 3209 O 299.581 -1.31145 1.87118 0
M  V30 3210 C 299.791 2.1472 2.7513 0
M  V30 3211 C 301.139 2.47637 3.44907 0
M  V30 3212 O 302.163 2.13205 2.85346 0
M  V30 3213 O 301.022 3.06632 4.52371 0
M  V30 3214 H 298.116 0.43416 0.703871 0
M  V30 3215 H 300.662 1.43408 0.907314 0
M  V30 3216 H 299.434 3.1172 2.3653 0
M  V30 3217 H 299.057 1.84905 3.51989 0
M  V30 3218 N 300.054 -1.07777 1.14986 0
M  V30 3219 C 301.302 -1.79934 0.920235 0
M  V30 3220 C 301.623 -1.86955 -0.554336 0
M  V30 3221 O 300.893 -1.36731 -1.40291 0
M  V30 3222 H 299.473 -0.666424 0.337473 0
M  V30 3223 H 302.135 -1.3027 1.44968 0
M  V30 3224 H 301.231 -2.82539 1.32583 0
M  V30 3225 N 301.532 -0.945985 -1.26051 0
M  V30 3226 C 302.464 -0.416662 -2.25381 0
M  V30 3227 C 303.477 0.462712 -1.56086 0
M  V30 3228 O 304.666 0.272383 -1.7641 0
M  V30 3229 C 301.766 0.419812 -3.3629 0
M  V30 3230 C 300.939 -0.444531 -4.35135 0
M  V30 3231 C 299.998 0.332305 -5.2515 0
M  V30 3232 O 299.024 -0.266324 -5.68577 0
M  V30 3233 N 300.226 1.62763 -5.57215 0
M  V30 3234 H 302.991 -1.27059 -2.71433 0
M  V30 3235 H 300.552 -0.815392 -1.39868 0
M  V30 3236 H 302.544 0.947013 -3.93464 0
M  V30 3237 H 301.114 1.17456 -2.89694 0
M  V30 3238 H 300.334 -1.15291 -3.76964 0
M  V30 3239 H 301.622 -1.03478 -4.98166 0
M  V30 3240 H 301.02 2.13603 -5.23823 0
M  V30 3241 H 299.577 2.10097 -6.17011 0
M  V30 3242 N 303.011 1.40521 -0.713556 0
M  V30 3243 C 303.961 2.27971 -0.036165 0
M  V30 3244 C 304.945 1.43151 0.734623 0
M  V30 3245 O 306.137 1.66261 0.607158 0
M  V30 3246 C 303.266 3.31661 0.886331 0
M  V30 3247 C 302.352 4.23955 0.110836 0
M  V30 3248 N 302.743 4.97641 -0.904847 0
M  V30 3249 C 301.041 4.44674 0.343692 0
M  V30 3250 C 301.742 5.65322 -1.37064 0
M  V30 3251 N 300.718 5.39162 -0.693168 0
M  V30 3252 H 304.52 2.82384 -0.814645 0
M  V30 3253 H 302.034 1.52948 -0.545963 0
M  V30 3254 H 304.031 3.93154 1.38692 0
M  V30 3255 H 302.691 2.78808 1.66421 0
M  V30 3256 H 303.702 5.01689 -1.28563 0
M  V30 3257 H 300.379 4.02801 1.09805 0
M  V30 3258 H 301.769 6.34359 -2.21447 0
M  V30 3259 N 304.489 0.459591 1.5075 0
M  V30 3260 C 305.422 -0.386257 2.24907 0
M  V30 3261 C 306.4 -1.006 1.27744 0
M  V30 3262 O 307.584 -1.04416 1.56938 0
M  V30 3263 C 304.711 -1.54021 3.01654 0
M  V30 3264 C 303.757 -1.03898 4.13651 0
M  V30 3265 S 304.59 0.0370501 5.35487 0
M  V30 3266 C 305.746 -1.12105 6.15779 0
M  V30 3267 H 305.979 0.243272 2.96303 0
M  V30 3268 H 303.512 0.244339 1.52454 0
M  V30 3269 H 305.47 -2.20163 3.46466 0
M  V30 3270 H 304.131 -2.14121 2.29806 0
M  V30 3271 H 303.324 -1.90254 4.66711 0
M  V30 3272 H 302.926 -0.45545 3.71216 0
M  V30 3273 H 305.218 -2.03501 6.46215 0
M  V30 3274 H 306.161 -0.62995 7.05292 0
M  V30 3275 H 306.569 -1.36967 5.47631 0
M  V30 3276 N 305.967 -1.56429 0.191757 0
M  V30 3277 C 307.213 -1.98541 -0.441943 0
M  V30 3278 C 307.568 -1.07646 -1.59468 0
M  V30 3279 O 306.861 -0.120191 -1.91223 0
M  V30 3280 C 307.055 -3.44449 -0.953384 0
M  V30 3281 C 306.884 -4.49456 0.148262 0
M  V30 3282 C 305.654 -5.01668 0.604781 0
M  V30 3283 C 307.852 -5.05336 0.95602 0
M  V30 3284 N 305.834 -5.90334 1.6846 0
M  V30 3285 C 307.205 -5.9064 1.88531 0
M  V30 3286 C 309.26 -4.87779 0.998811 0
M  V30 3287 C 307.963 -6.60264 2.85383 0
M  V30 3288 C 309.989 -5.58139 1.95537 0
M  V30 3289 C 309.351 -6.43187 2.8721 0
M  V30 3290 H 305.45 -0.771247 -0.129236 0
M  V30 3291 H 308.034 -1.92426 0.296682 0
M  V30 3292 H 306.205 -3.5107 -1.66146 0
M  V30 3293 H 307.937 -3.73533 -1.55741 0
M  V30 3294 H 304.692 -4.73183 0.198736 0
M  V30 3295 H 305.116 -6.39371 2.22561 0
M  V30 3296 H 309.758 -4.21705 0.304048 0
M  V30 3297 H 307.476 -7.25538 3.55837 0
M  V30 3298 H 311.062 -5.46532 1.99484 0
M  V30 3299 H 309.942 -6.96674 3.60022 0
M  V30 3300 N 307.445 0.0818655 -1.57387 0
M  V30 3301 C 308.861 0.436412 -1.53517 0
M  V30 3302 C 309.061 1.79758 -0.910459 0
M  V30 3303 O 308.117 2.47324 -0.508636 0
M  V30 3304 C 309.43 0.386734 -2.98203 0
M  V30 3305 C 310.978 0.467644 -3.09487 0
M  V30 3306 C 311.453 0.447978 -4.55804 0
M  V30 3307 N 312.944 0.508348 -4.60402 0
M  V30 3308 C 313.679 0.515184 -5.71081 0
M  V30 3309 N 313.175 0.477435 -6.91153 0
M  V30 3310 N 314.968 0.560988 -5.59294 0
M  V30 3311 H 307.119 -0.809546 -1.96367 0
M  V30 3312 H 309.382 -0.302733 -0.898363 0
M  V30 3313 H 309.088 -0.546539 -3.47427 0
M  V30 3314 H 308.962 1.20075 -3.57578 0
M  V30 3315 H 311.349 1.39134 -2.60242 0
M  V30 3316 H 311.43 -0.374753 -2.5304 0
M  V30 3317 H 311.074 -0.471826 -5.05704 0
M  V30 3318 H 311.004 1.30777 -5.10103 0
M  V30 3319 H 313.495 0.54218 -3.7399 0
M  V30 3320 H 313.808 0.486299 -7.71268 0
M  V30 3321 H 312.153 0.444278 -6.93579 0
M  V30 3322 H 315.344 0.5881 -4.64391 0
M  V30 3323 H 315.517 0.562846 -6.45551 0
M  V30 3324 N 308.923 1.53595 0.353017 0
M  V30 3325 C 310.334 1.61937 0.929153 0
M  V30 3326 C 310.685 0.494686 1.89861 0
M  V30 3327 O 309.81 -0.377017 2.1309 0
M  V30 3328 C 310.405 2.93526 1.69199 0
M  V30 3329 C 308.964 3.04161 2.21727 0
M  V30 3330 C 308.111 2.57322 1.03348 0
M  V30 3331 H 311.062 1.58155 0.131431 0
M  V30 3332 H 311.083 2.82034 2.55416 0
M  V30 3333 H 310.595 3.75362 0.986144 0
M  V30 3334 H 308.696 2.26938 2.95516 0
M  V30 3335 H 308.809 4.09465 2.48748 0
M  V30 3336 H 307.173 2.12499 1.40414 0
M  V30 3337 H 307.956 3.41588 0.342428 0
M  V30 3338 N 310.401 -0.613514 1.45168 0
M  V30 3339 C 311.348 -1.72456 1.53387 0
M  V30 3340 C 312.318 -1.6169 0.380191 0
M  V30 3341 O 313.503 -1.81356 0.592836 0
M  V30 3342 C 310.643 -3.10753 1.50088 0
M  V30 3343 C 309.756 -3.32368 2.75963 0
M  V30 3344 C 308.891 -4.60737 2.64376 0
M  V30 3345 C 307.93 -4.7559 3.85332 0
M  V30 3346 N 307.067 -5.95253 3.72315 0
M  V30 3347 H 311.907 -1.64768 2.48305 0
M  V30 3348 H 309.444 -0.803503 1.23216 0
M  V30 3349 H 311.402 -3.90758 1.46164 0
M  V30 3350 H 310.032 -3.17413 0.587243 0
M  V30 3351 H 309.084 -2.4618 2.89999 0
M  V30 3352 H 310.396 -3.39218 3.65695 0
M  V30 3353 H 309.55 -5.48928 2.58385 0
M  V30 3354 H 308.289 -4.56275 1.72233 0
M  V30 3355 H 307.294 -3.85824 3.91688 0
M  V30 3356 H 308.519 -4.81854 4.78533 0
M  V30 3357 H 306.465 -5.91847 2.82937 0
M  V30 3358 H 306.382 -6.03236 4.55677 0
M  V30 3359 H 307.65 -6.85958 3.70246 0
M  V30 3360 N 311.879 -1.3236 -0.855495 0
M  V30 3361 C 313.295 -1.11332 -1.14356 0
M  V30 3362 C 313.495 0.106751 -2.01217 0
M  V30 3363 O 312.551 0.791891 -2.39761 0
M  V30 3364 C 313.864 -2.39237 -1.82171 0
M  V30 3365 C 315.412 -2.44986 -1.9481 0
M  V30 3366 C 315.887 -3.7281 -2.66039 0
M  V30 3367 N 317.378 -3.73787 -2.73565 0
M  V30 3368 C 318.113 -4.69394 -3.29327 0
M  V30 3369 N 317.609 -5.75367 -3.85907 0
M  V30 3370 N 319.402 -4.56893 -3.27423 0
M  V30 3371 H 311.553 -2.10586 -0.277027 0
M  V30 3372 H 313.816 -0.929701 -0.185364 0
M  V30 3373 H 313.522 -3.28431 -1.25802 0
M  V30 3374 H 313.396 -2.50134 -2.82335 0
M  V30 3375 H 315.783 -1.56252 -2.50338 0
M  V30 3376 H 315.864 -2.38043 -0.936448 0
M  V30 3377 H 315.508 -4.61918 -2.11174 0
M  V30 3378 H 315.438 -3.77024 -3.67642 0
M  V30 3379 H 317.929 -2.97189 -2.33424 0
M  V30 3380 H 318.242 -6.44378 -4.26611 0
M  V30 3381 H 316.587 -5.79123 -3.84242 0
M  V30 3382 H 319.778 -3.73269 -2.82467 0
M  V30 3383 H 319.951 -5.31577 -3.7058 0
M  V30 3384 N 313.357 1.07166 -1.15556 0
M  V30 3385 C 314.604 1.79798 -0.931604 0
M  V30 3386 C 314.932 1.8682 0.54115 0
M  V30 3387 O 314.187 1.34942 1.41736 0
M  V30 3388 C 314.486 3.24707 -1.49332 0
M  V30 3389 C 314.152 3.37781 -2.98688 0
M  V30 3390 C 312.814 3.41057 -3.39461 0
M  V30 3391 C 315.166 3.40424 -3.94665 0
M  V30 3392 C 312.494 3.4458 -4.74849 0
M  V30 3393 C 314.846 3.45485 -5.29927 0
M  V30 3394 C 313.51 3.47039 -5.70193 0
M  V30 3395 H 312.78 0.657928 -0.340898 0
M  V30 3396 H 315.427 1.26091 -1.44129 0
M  V30 3397 H 313.732 3.81208 -0.904859 0
M  V30 3398 H 315.429 3.79486 -1.29582 0
M  V30 3399 H 312.019 3.35932 -2.66172 0
M  V30 3400 H 316.203 3.37113 -3.64237 0
M  V30 3401 H 311.459 3.44083 -5.05388 0
M  V30 3402 H 315.633 3.46476 -6.04092 0
M  V30 3403 H 313.26 3.49522 -6.75084 0
M  V30 3404 N 314.835 0.952656 1.25548 0
M  V30 3405 C 316.246 0.647392 1.75116 0
M  V30 3406 C 316.597 -0.837274 1.77438 0
M  V30 3407 O 315.722 -1.65525 1.39393 0
M  V30 3408 C 316.317 1.16845 3.18014 0
M  V30 3409 C 314.876 0.913382 3.6515 0
M  V30 3410 C 314.023 1.31265 2.44264 0
M  V30 3411 H 316.974 1.12968 1.11462 0
M  V30 3412 H 316.995 0.527606 3.76824 0
M  V30 3413 H 316.507 2.24902 3.16292 0
M  V30 3414 H 314.608 -0.152316 3.72289 0
M  V30 3415 H 314.721 1.54845 4.53387 0
M  V30 3416 H 313.085 0.731028 2.43984 0
M  V30 3417 H 313.868 2.40239 2.45234 0
M  V30 3418 N 316.313 -1.40141 0.720998 0
M  V30 3419 C 317.729 -1.54632 0.395113 0
M  V30 3420 C 317.929 -1.69115 -1.09555 0
M  V30 3421 O 316.985 -1.68377 -1.88163 0
M  V30 3422 C 318.298 -2.77177 1.1659 0
M  V30 3423 C 319.846 -2.91 1.15274 0
M  V30 3424 C 320.321 -4.16465 1.90579 0
M  V30 3425 N 321.812 -4.23476 1.87675 0
M  V30 3426 C 322.547 -5.19475 2.42762 0
M  V30 3427 N 322.043 -6.21348 3.06428 0
M  V30 3428 N 323.836 -5.11592 2.32874 0
M  V30 3429 H 315.987 -1.28986 1.68749 0
M  V30 3430 H 318.25 -0.62412 0.713567 0
M  V30 3431 H 317.956 -2.72771 2.22011 0
M  V30 3432 H 317.83 -3.69442 0.76108 0
M  V30 3433 H 320.217 -2.94907 0.106702 0
M  V30 3434 H 320.298 -1.99838 1.59682 0
M  V30 3435 H 319.942 -4.1332 2.95176 0
M  V30 3436 H 319.872 -5.06646 1.43587 0
M  V30 3437 H 322.363 -3.50497 1.41281 0
M  V30 3438 H 322.676 -6.91034 3.45965 0
M  V30 3439 H 321.021 -6.21777 3.10514 0
M  V30 3440 H 324.212 -4.30936 1.82789 0
M  V30 3441 H 324.385 -5.86233 2.76106 0
M  V30 3442 N 317.792 -0.46758 -1.50504 0
M  V30 3443 C 319.203 -0.0116166 -1.86696 0
M  V30 3444 C 319.554 1.39202 -1.38265 0
M  V30 3445 O 318.679 2.0313 -0.746132 0
M  V30 3446 C 319.274 -0.0143044 -3.38797 0
M  V30 3447 C 317.833 0.386175 -3.74414 0
M  V30 3448 C 316.98 -0.401287 -2.74381 0
M  V30 3449 H 319.931 -0.682022 -1.43297 0
M  V30 3450 H 319.952 0.788641 -3.72237 0
M  V30 3451 H 319.464 -1.03602 -3.74016 0
M  V30 3452 H 317.565 1.41237 -3.44794 0
M  V30 3453 H 317.678 0.0899596 -4.79016 0
M  V30 3454 H 316.042 0.144536 -2.5429 0
M  V30 3455 H 316.825 -1.42244 -3.12444 0
M  V30 3456 N 319.27 1.56325 -0.20005 0
M  V30 3457 C 320.516 1.98012 0.438059 0
M  V30 3458 C 320.849 1.08702 1.60927 0
M  V30 3459 O 320.124 0.140064 1.93995 0
M  V30 3460 C 320.407 3.48841 0.893419 0
M  V30 3461 C 320.26 4.48928 -0.279947 0
M  V30 3462 C 321.579 4.03498 1.75719 0
M  V30 3463 H 318.698 0.719918 0.157757 0
M  V30 3464 H 321.34 1.87743 -0.291968 0
M  V30 3465 H 319.49 3.57723 1.51547 0
M  V30 3466 H 321.162 4.52079 -0.91772 0
M  V30 3467 H 319.405 4.23694 -0.930919 0
M  V30 3468 H 320.076 5.5194 0.0812601 0
M  V30 3469 H 322.552 3.97427 1.23253 0
M  V30 3470 H 321.428 5.09393 2.04476 0
M  V30 3471 H 321.689 3.4906 2.71311 0
M  V30 3472 N 320.748 -0.0735177 1.57428 0
M  V30 3473 C 321.978 -0.78483 1.91112 0
M  V30 3474 C 322.386 -1.71729 0.7941 0
M  V30 3475 O 321.729 -1.82105 -0.241542 0
M  V30 3476 C 321.791 -1.63346 3.20247 0
M  V30 3477 C 321.455 -0.870557 4.48632 0
M  V30 3478 C 322.452 -0.19058 5.19551 0
M  V30 3479 C 320.137 -0.838242 4.95256 0
M  V30 3480 C 322.131 0.511503 6.35344 0
M  V30 3481 C 319.818 -0.132386 6.10957 0
M  V30 3482 C 320.816 0.541288 6.80852 0
M  V30 3483 O 320.504 1.23578 7.94345 0
M  V30 3484 H 320.236 -0.228408 0.636244 0
M  V30 3485 H 322.79 -0.0486039 2.05342 0
M  V30 3486 H 321.02 -2.41245 3.02222 0
M  V30 3487 H 322.709 -2.22329 3.39595 0
M  V30 3488 H 323.475 -0.206864 4.84559 0
M  V30 3489 H 319.354 -1.35206 4.40727 0
M  V30 3490 H 322.898 1.03789 6.89836 0
M  V30 3491 H 318.795 -0.114023 6.45399 0
M  V30 3492 H 319.563 1.14487 8.10454 0
M  V30 3493 N 322.226 -1.5378 -0.344866 0
M  V30 3494 C 323.466 -1.72677 -1.09371 0
M  V30 3495 C 323.83 -0.479084 -1.85927 0
M  V30 3496 O 325.031 -0.54505 -2.63216 0
M  V30 3497 C 323.302 -2.95457 -2.01097 0
M  V30 3498 S 324.861 -3.35158 -2.83222 0
M  V30 3499 H 321.679 -0.607402 -0.369573 0
M  V30 3500 H 324.281 -1.91922 -0.372307 0
M  V30 3501 H 322.985 -3.84437 -1.43655 0
M  V30 3502 H 322.516 -2.78673 -2.77678 0
M  V30 3503 H 324.531 -2.88789 -4.03504 0
M  V30 3504 N 323.704 0.605807 -1.45491 0
M  V30 3505 C 324.652 1.73754 -1.54636 0
M  V30 3506 C 325.646 1.64207 -0.416219 0
M  V30 3507 O 326.852 1.69979 -0.592199 0
M  V30 3508 H 323.227 0.574073 -0.485741 0
M  V30 3509 H 325.198 1.63169 -2.49837 0
M  V30 3510 C 323.947 3.12135 -1.53189 0
M  V30 3511 H 323.27 3.20141 -2.39478 0
M  V30 3512 H 324.71 3.91147 -1.63645 0
M  V30 3513 C 323.169 3.35921 -0.256616 0
M  V30 3514 O 323.699 3.96194 0.662798 0
M  V30 3515 N 321.905 2.90204 -0.151751 0
M  V30 3516 H 321.452 2.41336 -0.90081 0
M  V30 3517 H 321.41 3.06492 0.700699 0
M  V30 3518 N 325.182 1.32811 0.848464 0
M  V30 3519 C 326.112 1.24882 1.97299 0
M  V30 3520 C 327.093 0.131357 1.69592 0
M  V30 3521 O 328.278 0.319553 1.91553 0
M  V30 3522 C 325.408 0.97746 3.33261 0
M  V30 3523 C 324.362 2.05682 3.75338 0
M  V30 3524 C 323.688 1.63777 5.09 0
M  V30 3525 C 324.988 3.47254 3.90144 0
M  V30 3526 H 326.682 2.18966 2.04191 0
M  V30 3527 H 324.228 1.05413 0.981029 0
M  V30 3528 H 326.181 0.908513 4.1149 0
M  V30 3529 H 324.905 0.000980011 3.266 0
M  V30 3530 H 323.564 2.11603 2.99366 0
M  V30 3531 H 323.212 0.648569 4.98801 0
M  V30 3532 H 322.912 2.36 5.38124 0
M  V30 3533 H 324.436 1.5833 5.89715 0
M  V30 3534 H 325.85 3.43888 4.58709 0
M  V30 3535 H 324.247 4.1788 4.30693 0
M  V30 3536 H 325.317 3.86462 2.92874 0
M  V30 3537 N 326.66 -1.06551 1.16123 0
M  V30 3538 C 327.9 -1.80889 0.951766 0
M  V30 3539 C 328.264 -1.85062 -0.511465 0
M  V30 3540 O 329.465 -2.55353 -0.83954 0
M  V30 3541 C 327.736 -3.21609 1.55893 0
M  V30 3542 S 329.295 -4.12593 1.49373 0
M  V30 3543 H 326.113 -0.623156 0.342341 0
M  V30 3544 H 328.715 -1.27943 1.47821 0
M  V30 3545 H 327.419 -3.16165 2.61664 0
M  V30 3546 H 326.95 -3.79631 1.0317 0
M  V30 3547 H 328.965 -4.93753 0.492196 0
M  V30 3548 N 328.138 -0.959301 -1.25041 0
M  V30 3549 C 329.048 -0.489994 -2.29426 0
M  V30 3550 C 330.064 0.444944 -1.68215 0
M  V30 3551 O 331.24 0.320046 -1.98841 0
M  V30 3552 C 328.305 0.220309 -3.45999 0
M  V30 3553 C 327.366 -0.753418 -4.22637 0
M  V30 3554 C 326.599 -0.076918 -5.33645 0
M  V30 3555 O 326.822 1.13649 -5.58963 0
M  V30 3556 O 325.756 -0.764824 -5.97021 0
M  V30 3557 H 329.582 -1.35755 -2.71669 0
M  V30 3558 H 327.167 -0.725961 -1.30576 0
M  V30 3559 H 329.049 0.619677 -4.16819 0
M  V30 3560 H 327.724 1.06296 -3.0575 0
M  V30 3561 H 326.631 -1.20308 -3.54227 0
M  V30 3562 H 327.964 -1.56423 -4.66683 0
M  V30 3563 N 329.616 1.39756 -0.72842 0
M  V30 3564 C 330.841 2.05472 -0.282159 0
M  V30 3565 C 331.266 1.54549 1.07221 0
M  V30 3566 O 330.624 0.686372 1.67805 0
M  V30 3567 C 330.672 3.59462 -0.286264 0
M  V30 3568 O 329.776 4.05918 0.728298 0
M  V30 3569 H 329.117 0.651226 -0.129618 0
M  V30 3570 H 331.647 1.78915 -0.992499 0
M  V30 3571 H 331.657 4.07798 -0.128373 0
M  V30 3572 H 330.332 3.95889 -1.27456 0
M  V30 3573 H 328.909 3.69012 0.537081 0
M  V30 3574 N 331.094 0.475555 1.50254 0
M  V30 3575 C 332.319 -0.0777042 2.07254 0
M  V30 3576 C 332.744 -1.3235 1.3366 0
M  V30 3577 O 332.102 -1.77152 0.385597 0
M  V30 3578 C 332.15 -0.340169 3.58992 0
M  V30 3579 O 331.254 -1.41982 3.87188 0
M  V30 3580 H 330.595 0.0149556 0.663832 0
M  V30 3581 H 333.125 0.667878 1.93392 0
M  V30 3582 H 333.135 -0.579332 4.03866 0
M  V30 3583 H 331.81 0.570167 4.11973 0
M  V30 3584 H 330.387 -1.16762 3.54148 0
M  V30 3585 N 332.573 -1.56217 0.208337 0
M  V30 3586 C 333.822 -1.97124 -0.427204 0
M  V30 3587 C 334.135 -1.09859 -1.61835 0
M  V30 3588 O 335.341 -1.40606 -2.32255 0
M  V30 3589 C 333.797 -3.50633 -0.811442 0
M  V30 3590 C 333.405 -4.46582 0.35615 0
M  V30 3591 C 335.149 -4.00282 -1.41332 0
M  V30 3592 C 333.056 -5.91379 -0.0497852 0
M  V30 3593 H 331.986 -0.736086 -0.163381 0
M  V30 3594 H 334.637 -1.8099 0.302456 0
M  V30 3595 H 333.019 -3.62319 -1.59815 0
M  V30 3596 H 334.193 -4.46636 1.1337 0
M  V30 3597 H 332.508 -4.07202 0.870396 0
M  V30 3598 H 335.105 -5.0595 -1.72972 0
M  V30 3599 H 335.448 -3.45359 -2.32449 0
M  V30 3600 H 335.981 -3.91764 -0.690323 0
M  V30 3601 H 332.72 -6.50255 0.827529 0
M  V30 3602 H 332.24 -5.94549 -0.791926 0
M  V30 3603 H 333.919 -6.45209 -0.481042 0
M  V30 3604 N 334.051 0.0651679 -1.57465 0
M  V30 3605 C 335.299 0.761555 -1.87202 0
M  V30 3606 C 335.62 1.77778 -0.801243 0
M  V30 3607 O 334.89 1.95166 0.16937 0
M  V30 3608 H 333.47 0.284251 -0.690804 0
M  V30 3609 H 336.132 0.0396827 -1.9486 0
M  V30 3610 H 335.228 1.27365 -2.84929 0
M  V30 3611 N 335.529 1.53961 0.336706 0
M  V30 3612 C 336.459 1.85417 1.41925 0
M  V30 3613 C 337.44 0.709856 1.5458 0
M  V30 3614 O 338.625 0.962396 1.68676 0
M  V30 3615 C 335.755 2.06985 2.78881 0
M  V30 3616 C 334.709 3.22813 2.81026 0
M  V30 3617 C 334.035 3.29727 4.20932 0
M  V30 3618 C 335.335 4.60767 2.45949 0
M  V30 3619 H 337.029 2.76079 1.15848 0
M  V30 3620 H 334.575 1.32839 0.555859 0
M  V30 3621 H 336.528 2.27575 3.54665 0
M  V30 3622 H 335.252 1.13061 3.06406 0
M  V30 3623 H 333.911 3.0209 2.07695 0
M  V30 3624 H 333.559 2.33385 4.45579 0
M  V30 3625 H 333.259 4.07566 4.23277 0
M  V30 3626 H 334.783 3.52536 4.98549 0
M  V30 3627 H 336.197 4.81325 3.11446 0
M  V30 3628 H 334.594 5.4106 2.59566 0
M  V30 3629 H 335.664 4.6391 1.41122 0
M  V30 3630 N 337.007 -0.598083 1.45811 0
M  V30 3631 C 338.255 -1.35413 1.50026 0
M  V30 3632 C 338.576 -1.94444 0.147177 0
M  V30 3633 O 337.846 -1.77701 -0.824571 0
M  V30 3634 H 336.426 -0.502727 0.552517 0
M  V30 3635 H 339.088 -0.701606 1.81834 0
M  V30 3636 H 338.184 -2.16871 2.2444 0
M  V30 3637 N 338.485 -1.33259 -0.841409 0
M  V30 3638 C 339.432 -1.23302 -1.95103 0
M  V30 3639 C 340.402 -0.112204 -1.65721 0
M  V30 3640 O 341.587 -0.290038 -1.88583 0
M  V30 3641 C 338.727 -0.975583 -3.31023 0
M  V30 3642 C 337.84 -2.18243 -3.72819 0
M  V30 3643 C 336.975 -1.85936 -4.97595 0
M  V30 3644 C 336.014 -3.02866 -5.3192 0
M  V30 3645 N 335.151 -2.70565 -6.47873 0
M  V30 3646 H 339.991 -2.18207 -2.02952 0
M  V30 3647 H 337.528 -1.0851 -0.993173 0
M  V30 3648 H 339.486 -0.80677 -4.09325 0
M  V30 3649 H 338.116 -0.0632755 -3.22738 0
M  V30 3650 H 337.168 -2.46107 -2.90061 0
M  V30 3651 H 338.48 -3.05666 -3.94169 0
M  V30 3652 H 337.634 -1.65684 -5.83638 0
M  V30 3653 H 336.373 -0.957452 -4.78209 0
M  V30 3654 H 335.378 -3.23736 -4.44382 0
M  V30 3655 H 336.603 -3.93809 -5.53255 0
M  V30 3656 H 334.549 -1.8293 -6.29978 0
M  V30 3657 H 334.466 -3.51519 -6.69306 0
M  V30 3658 H 335.734 -2.53774 -7.37034 0
M  V30 3659 N 339.963 1.05934 -1.16686 0
M  V30 3660 C 340.895 2.13468 -0.834503 0
M  V30 3661 C 341.908 1.62013 0.15984 0
M  V30 3662 O 343.097 1.7838 -0.0654228 0
M  V30 3663 C 340.197 3.3817 -0.222361 0
M  V30 3664 C 339.37 4.18928 -1.25771 0
M  V30 3665 C 338.429 5.21985 -0.664703 0
M  V30 3666 O 337.455 5.53334 -1.33453 0
M  V30 3667 N 338.657 5.77919 0.546834 0
M  V30 3668 H 341.422 2.42578 -1.75999 0
M  V30 3669 H 338.983 1.21967 -1.06469 0
M  V30 3670 H 340.975 4.04266 0.187472 0
M  V30 3671 H 339.545 3.06655 0.606758 0
M  V30 3672 H 338.765 3.48433 -1.84358 0
M  V30 3673 H 340.053 4.69687 -1.95631 0
M  V30 3674 H 339.451 5.54721 1.10912 0
M  V30 3675 H 338.008 6.45573 0.898829 0
M  V30 3676 N 341.441 0.965919 1.2453 0
M  V30 3677 C 342.689 0.625593 1.92174 0
M  V30 3678 C 343.01 -0.841652 1.75901 0
M  V30 3679 O 342.28 -1.60061 1.12948 0
M  V30 3680 H 340.86 0.228388 0.71123 0
M  V30 3681 H 343.522 1.2266 1.51461 0
M  V30 3682 H 342.618 0.864653 2.99884 0
M  V30 3683 N 342.919 -1.39368 0.735821 0
M  V30 3684 C 343.849 -2.33234 0.111506 0
M  V30 3685 C 344.83 -1.53954 -0.723334 0
M  V30 3686 O 346.015 -1.82344 -0.668147 0
M  V30 3687 C 343.145 -3.38057 -0.795917 0
M  V30 3688 C 342.099 -4.2795 -0.065172 0
M  V30 3689 C 341.425 -5.23479 -1.08967 0
M  V30 3690 C 342.725 -5.10741 1.09273 0
M  V30 3691 H 344.419 -2.85692 0.895571 0
M  V30 3692 H 341.965 -1.37364 0.432109 0
M  V30 3693 H 343.918 -4.02675 -1.24221 0
M  V30 3694 H 342.642 -2.8404 -1.61211 0
M  V30 3695 H 341.301 -3.64813 0.361511 0
M  V30 3696 H 340.949 -4.65758 -1.89944 0
M  V30 3697 H 340.649 -5.84472 -0.605489 0
M  V30 3698 H 342.173 -5.90974 -1.53565 0
M  V30 3699 H 343.587 -5.68699 0.724841 0
M  V30 3700 H 341.984 -5.8088 1.50659 0
M  V30 3701 H 343.054 -4.45525 1.91404 0
M  V30 3702 N 344.397 -0.483516 -1.5 0
M  V30 3703 C 345.622 0.0667119 -2.07293 0
M  V30 3704 C 346.047 1.3164 -1.3436 0
M  V30 3705 O 345.405 1.76945 -0.394987 0
M  V30 3706 C 345.453 0.321126 -3.59167 0
M  V30 3707 O 344.557 1.39927 -3.87936 0
M  V30 3708 H 343.898 -0.0184758 -0.663743 0
M  V30 3709 H 346.428 -0.678125 -1.93035 0
M  V30 3710 H 346.438 0.557906 -4.04168 0
M  V30 3711 H 345.113 -0.592007 -4.11665 0
M  V30 3712 H 343.69 1.14882 -3.54763 0
M  V30 3713 N 345.875 1.56104 -0.216619 0
M  V30 3714 C 347.115 2.00074 0.418322 0
M  V30 3715 C 347.479 1.10098 1.57297 0
M  V30 3716 O 348.68 1.43393 2.27359 0
M  V30 3717 C 346.951 3.47231 0.846477 0
M  V30 3718 S 348.51 4.13223 1.47622 0
M  V30 3719 H 345.328 0.698457 0.132962 0
M  V30 3720 H 347.93 1.92784 -0.324748 0
M  V30 3721 H 346.634 4.104 -0.0036319 0
M  V30 3722 H 346.165 3.58384 1.62248 0
M  V30 3723 H 348.18 4.12005 2.76526 0
M  V30 3724 N 347.353 -0.0568162 1.57498 0
M  V30 3725 C 348.301 -1.08452 2.05769 0
M  V30 3726 C 349.295 -1.39164 0.965903 0
M  V30 3727 O 350.501 -1.38395 1.15095 0
M  V30 3728 H 346.876 -0.367148 0.656282 0
M  V30 3729 H 348.847 -0.651368 2.91204 0
M  V30 3730 C 347.596 -2.38543 2.52968 0
M  V30 3731 H 346.919 -2.15765 3.36579 0
M  V30 3732 H 348.359 -3.08863 2.90481 0
M  V30 3733 C 346.818 -3.05562 1.41893 0
M  V30 3734 O 347.348 -3.94262 0.769442 0
M  V30 3735 N 345.554 -2.6643 1.16032 0
M  V30 3736 H 345.101 -1.94387 1.6903 0
M  V30 3737 H 345.059 -3.11593 0.419219 0
M  V30 3738 N 348.832 -1.54138 -0.328536 0
M  V30 3739 C 349.762 -1.86167 -1.40939 0
M  V30 3740 C 350.743 -0.718044 -1.54202 0
M  V30 3741 O 351.928 -0.971328 -1.68163 0
M  V30 3742 C 349.058 -2.08461 -2.77779 0
M  V30 3743 C 348.012 -3.24299 -2.7931 0
M  V30 3744 C 347.338 -3.31955 -4.19178 0
M  V30 3745 C 348.638 -4.62065 -2.43502 0
M  V30 3746 H 350.332 -2.76689 -1.14383 0
M  V30 3747 H 347.878 -1.33132 -0.548806 0
M  V30 3748 H 349.831 -2.29453 -3.53454 0
M  V30 3749 H 348.555 -1.14684 -3.05802 0
M  V30 3750 H 347.214 -3.03187 -2.0609 0
M  V30 3751 H 346.862 -2.35745 -4.44335 0
M  V30 3752 H 346.562 -4.09805 -4.2111 0
M  V30 3753 H 348.086 -3.55175 -4.96672 0
M  V30 3754 H 349.5 -4.8297 -3.08889 0
M  V30 3755 H 347.897 -5.42429 -2.56693 0
M  V30 3756 H 348.967 -4.64652 -1.38659 0
M  V30 3757 N 350.31 0.590341 -1.46126 0
M  V30 3758 C 351.55 1.35995 -1.52593 0
M  V30 3759 C 351.914 1.91243 -0.170368 0
M  V30 3760 O 353.115 2.68576 -0.109775 0
M  V30 3761 C 351.386 2.46465 -2.58823 0
M  V30 3762 S 352.945 3.33953 -2.84641 0
M  V30 3763 H 349.763 0.463425 -0.53922 0
M  V30 3764 H 352.365 0.67944 -1.83314 0
M  V30 3765 H 351.069 2.04256 -3.5596 0
M  V30 3766 H 350.6 3.19297 -2.2981 0
M  V30 3767 H 352.615 4.45094 -2.19331 0
M  V30 3768 N 351.788 1.33704 0.83433 0
M  V30 3769 C 352.735 1.24335 1.94447 0
M  V30 3770 C 353.705 0.120991 1.65659 0
M  V30 3771 O 354.89 0.300035 1.88426 0
M  V30 3772 C 352.03 0.993124 3.30501 0
M  V30 3773 C 351.143 2.20217 3.71657 0
M  V30 3774 C 350.278 1.88572 4.96602 0
M  V30 3775 C 349.317 3.05683 5.30306 0
M  V30 3776 N 348.454 2.73997 6.46429 0
M  V30 3777 H 353.294 2.1928 2.01792 0
M  V30 3778 H 350.831 1.09035 0.987404 0
M  V30 3779 H 352.789 0.828467 4.08892 0
M  V30 3780 H 351.419 0.0803902 3.227 0
M  V30 3781 H 350.471 2.47642 2.88752 0
M  V30 3782 H 351.783 3.07752 3.92543 0
M  V30 3783 H 350.937 1.68776 5.82752 0
M  V30 3784 H 349.676 0.982799 4.77695 0
M  V30 3785 H 348.681 3.26088 4.42659 0
M  V30 3786 H 349.906 3.96737 5.51159 0
M  V30 3787 H 347.852 1.86268 6.28999 0
M  V30 3788 H 347.769 3.55064 6.67432 0
M  V30 3789 H 349.037 2.57679 7.35678 0
M  V30 3790 N 353.266 -1.05314 1.17247 0
M  V30 3791 C 354.496 -1.81707 0.983166 0
M  V30 3792 C 354.904 -1.83222 -0.471822 0
M  V30 3793 O 354.247 -1.25721 -1.3394 0
M  V30 3794 C 354.309 -3.29134 1.44606 0
M  V30 3795 C 353.973 -3.51304 2.92292 0
M  V30 3796 C 354.97 -3.4353 3.90235 0
M  V30 3797 C 352.655 -3.78306 3.30439 0
M  V30 3798 C 354.649 -3.62442 5.24323 0
M  V30 3799 C 352.336 -3.96866 4.64694 0
M  V30 3800 C 353.334 -3.88933 5.61445 0
M  V30 3801 O 353.022 -4.06976 6.93272 0
M  V30 3802 H 352.754 -0.579476 0.348114 0
M  V30 3803 H 355.308 -1.33705 1.55924 0
M  V30 3804 H 353.538 -3.78046 0.813537 0
M  V30 3805 H 355.227 -3.87049 1.22262 0
M  V30 3806 H 355.993 -3.22648 3.62109 0
M  V30 3807 H 351.872 -3.83585 2.55702 0
M  V30 3808 H 355.416 -3.56165 5.99827 0
M  V30 3809 H 351.313 -4.1724 4.92525 0
M  V30 3810 H 352.081 -4.24209 6.99992 0
M  V30 3811 N 354.744 -0.972509 -1.24016 0
M  V30 3812 C 355.972 -0.654803 -1.96265 0
M  V30 3813 C 356.387 0.776708 -1.72083 0
M  V30 3814 O 355.744 1.52171 -1.00748 0
M  V30 3815 C 355.795 -0.92592 -3.49441 0
M  V30 3816 O 355.516 -2.30116 -3.72798 0
M  V30 3817 C 357.017 -0.623068 -4.38899 0
M  V30 3818 H 354.237 -0.243907 -0.6251 0
M  V30 3819 H 356.781 -1.30175 -1.57717 0
M  V30 3820 H 354.936 -0.325108 -3.86033 0
M  V30 3821 H 355.35 -2.38483 -4.67147 0
M  V30 3822 H 356.824 -0.863189 -5.45209 0
M  V30 3823 H 357.301 0.442754 -4.36963 0
M  V30 3824 H 357.907 -1.204 -4.07902 0
M  V30 3825 N 356.222 1.38976 -0.743202 0
M  V30 3826 C 357.468 2.0064 -0.295189 0
M  V30 3827 C 357.801 1.5885 1.11716 0
M  V30 3828 O 357.076 0.821181 1.76315 0
M  V30 3829 C 357.359 3.578 -0.406318 0
M  V30 3830 C 357.212 4.09586 -1.85903 0
M  V30 3831 C 358.531 4.39616 0.206439 0
M  V30 3832 H 355.65 0.728935 -0.108733 0
M  V30 3833 H 358.292 1.65067 -0.940897 0
M  V30 3834 H 356.442 3.88235 0.143419 0
M  V30 3835 H 358.114 3.89837 -2.46627 0
M  V30 3836 H 356.357 3.6284 -2.3776 0
M  V30 3837 H 357.028 5.18708 -1.888 0
M  V30 3838 H 359.504 4.15273 -0.262283 0
M  V30 3839 H 358.38 5.48812 0.0983819 0
M  V30 3840 H 358.641 4.22754 1.2935 0
M  V30 3841 N 357.7 0.491464 1.49741 0
M  V30 3842 C 358.65 -0.311086 2.25868 0
M  V30 3843 C 359.634 -0.943857 1.30308 0
M  V30 3844 O 360.826 -0.853035 1.55088 0
M  V30 3845 C 357.955 -1.38059 3.14316 0
M  V30 3846 C 357.041 -0.754541 4.17334 0
M  V30 3847 N 357.432 0.137216 5.05614 0
M  V30 3848 C 355.73 -1.01621 4.34269 0
M  V30 3849 C 356.431 0.494614 5.79593 0
M  V30 3850 N 355.407 -0.135169 5.43432 0
M  V30 3851 H 359.209 0.37555 2.91491 0
M  V30 3852 H 356.723 0.306917 1.59473 0
M  V30 3853 H 358.72 -1.96891 3.67477 0
M  V30 3854 H 357.38 -2.06901 2.50244 0
M  V30 3855 H 358.391 0.50741 5.15408 0
M  V30 3856 H 355.068 -1.69808 3.81407 0
M  V30 3857 H 356.458 1.2236 6.60665 0
M  V30 3858 N 359.178 -1.55987 0.224894 0
M  V30 3859 C 360.455 -1.90232 -0.455083 0
M  V30 3860 C 360.835 -1.14269 -1.77499 0
M  V30 3861 O 360.183 -0.253079 -2.27094 0
M  V30 3862 C 360.393 -3.42993 -0.644758 0
M  V30 3863 C 361.741 -4.13821 -0.950669 0
M  V30 3864 O 362.765 -3.4861 -0.731423 0
M  V30 3865 O 361.624 -5.29128 -1.36695 0
M  V30 3866 H 358.718 -0.79108 -0.241084 0
M  V30 3867 H 361.264 -1.67581 0.267327 0
M  V30 3868 H 360.036 -3.90252 0.28613 0
M  V30 3869 H 359.659 -3.71434 -1.41853 0
M  V30 3870 N 360.656 0.0484629 -1.57525 0
M  V30 3871 C 361.588 1.08222 -2.02041 0
M  V30 3872 C 362.601 1.33621 -0.930012 0
M  V30 3873 O 363.79 1.3145 -1.20761 0
M  V30 3874 C 360.89 2.42818 -2.36416 0
M  V30 3875 C 360.063 2.37049 -3.67596 0
M  V30 3876 C 359.122 3.53937 -3.89378 0
M  V30 3877 O 358.148 3.34308 -4.60681 0
M  V30 3878 N 359.35 4.75126 -3.3352 0
M  V30 3879 H 362.115 0.702946 -2.9134 0
M  V30 3880 H 359.676 0.236745 -1.6016 0
M  V30 3881 H 361.668 3.197 -2.48141 0
M  V30 3882 H 360.238 2.72661 -1.52888 0
M  V30 3883 H 359.458 1.45395 -3.66407 0
M  V30 3884 H 360.746 2.30318 -4.53686 0
M  V30 3885 H 360.144 4.93976 -2.75688 0
M  V30 3886 H 358.701 5.49439 -3.50656 0
M  V30 3887 N 362.134 1.5431 0.320358 0
M  V30 3888 C 363.374 1.74395 1.0661 0
M  V30 3889 C 363.738 0.508602 1.85141 0
M  V30 3890 O 364.939 0.586856 2.62316 0
M  V30 3891 C 363.21 2.98619 1.96371 0
M  V30 3892 S 364.769 3.39621 2.77854 0
M  V30 3893 H 361.587 0.613204 0.359863 0
M  V30 3894 H 364.189 1.9249 0.341727 0
M  V30 3895 H 362.893 3.86673 1.3752 0
M  V30 3896 H 362.424 2.83055 2.73209 0
M  V30 3897 H 364.439 2.95172 3.98858 0
M  V30 3898 N 363.613 -0.582584 1.46437 0
M  V30 3899 C 364.576 -1.67366 1.56592 0
M  V30 3900 C 365.576 -1.54575 0.443072 0
M  V30 3901 O 366.766 -1.59191 0.707381 0
M  V30 3902 C 363.898 -3.06791 1.48634 0
M  V30 3903 H 365.091 -1.5972 2.5383 0
M  V30 3904 H 362.644 -0.800432 1.34249 0
M  V30 3905 H 363.379 -3.19993 0.526763 0
M  V30 3906 H 363.164 -3.17484 2.30101 0
M  V30 3907 H 364.654 -3.86218 1.58826 0
M  V30 3908 N 365.091 -1.34144 -0.827227 0
M  V30 3909 C 366.024 -1.19707 -1.94282 0
M  V30 3910 C 367.002 -0.0897256 -1.62352 0
M  V30 3911 O 368.186 -0.254095 -1.8678 0
M  V30 3912 C 365.313 -0.838646 -3.28153 0
M  V30 3913 C 364.359 -1.95514 -3.79047 0
M  V30 3914 S 365.192 -3.56793 -3.99323 0
M  V30 3915 C 366.348 -3.22983 -5.36127 0
M  V30 3916 H 366.581 -2.1414 -2.06231 0
M  V30 3917 H 364.114 -1.19121 -0.982321 0
M  V30 3918 H 366.072 -0.638637 -4.05502 0
M  V30 3919 H 364.733 0.0872776 -3.13979 0
M  V30 3920 H 363.926 -1.658 -4.75948 0
M  V30 3921 H 363.528 -2.11241 -3.08631 0
M  V30 3922 H 365.82 -2.74531 -6.19386 0
M  V30 3923 H 366.763 -4.19008 -5.70822 0
M  V30 3924 H 367.171 -2.59276 -5.01434 0
M  V30 3925 N 366.569 1.04691 -1.17803 0
M  V30 3926 C 367.516 2.12557 -0.899343 0
M  V30 3927 C 368.486 1.65339 0.158771 0
M  V30 3928 O 369.671 1.90789 0.0204797 0
M  V30 3929 C 366.811 3.42481 -0.424315 0
M  V30 3930 C 365.924 4.03346 -1.54713 0
M  V30 3931 C 365.059 5.21208 -1.02546 0
M  V30 3932 C 364.098 5.74089 -2.12339 0
M  V30 3933 N 363.235 6.83247 -1.61612 0
M  V30 3934 H 368.075 2.35734 -1.823 0
M  V30 3935 H 365.612 1.1564 -0.909159 0
M  V30 3936 H 367.57 4.16996 -0.130421 0
M  V30 3937 H 366.2 3.19471 0.462377 0
M  V30 3938 H 365.252 3.2622 -1.95664 0
M  V30 3939 H 366.564 4.38628 -2.37501 0
M  V30 3940 H 365.718 6.02812 -0.685718 0
M  V30 3941 H 364.457 4.87414 -0.167084 0
M  V30 3942 H 363.462 4.91111 -2.47165 0
M  V30 3943 H 364.687 6.0993 -2.98601 0
M  V30 3944 H 362.633 6.5134 -0.780533 0
M  V30 3945 H 362.55 7.17559 -2.38003 0
M  V30 3946 H 363.818 7.68491 -1.30545 0
M  V30 3947 N 368.047 0.979072 1.23499 0
M  V30 3948 C 369.01 0.523244 2.23147 0
M  V30 3949 C 370.01 -0.386406 1.56088 0
M  V30 3950 O 371.2 -0.180283 1.73265 0
M  V30 3951 C 368.332 -0.240739 3.40049 0
M  V30 3952 H 369.525 1.40432 2.64989 0
M  V30 3953 H 367.078 0.764824 1.36309 0
M  V30 3954 H 367.813 -1.13841 3.03662 0
M  V30 3955 H 367.598 0.412207 3.89927 0
M  V30 3956 H 369.088 -0.548297 4.13985 0
M  V30 3957 N 369.525 -1.3858 0.750561 0
M  V30 3958 C 370.455 -2.33102 0.136237 0
M  V30 3959 C 371.436 -1.54713 -0.706965 0
M  V30 3960 O 372.621 -1.83043 -0.648769 0
M  V30 3961 C 369.751 -3.38882 -0.760017 0
M  V30 3962 C 368.705 -4.27995 -0.0197785 0
M  V30 3963 C 368.031 -5.24605 -1.03408 0
M  V30 3964 C 369.331 -5.09554 1.14684 0
M  V30 3965 H 371.025 -2.84726 0.925822 0
M  V30 3966 H 368.571 -1.36898 0.446654 0
M  V30 3967 H 370.524 -4.0397 -1.19943 0
M  V30 3968 H 369.248 -2.85734 -1.58189 0
M  V30 3969 H 367.907 -3.64409 0.400184 0
M  V30 3970 H 367.555 -4.67746 -1.84994 0
M  V30 3971 H 367.255 -5.85081 -0.543464 0
M  V30 3972 H 368.779 -5.9257 -1.47288 0
M  V30 3973 H 370.193 -5.67899 0.785118 0
M  V30 3974 H 368.59 -5.7925 1.56812 0
M  V30 3975 H 369.66 -4.4347 1.96118 0
M  V30 3976 N 371.003 -0.499398 -1.49478 0
M  V30 3977 C 372.414 -0.051215 -1.8663 0
M  V30 3978 C 372.765 1.36238 -1.41186 0
M  V30 3979 O 371.89 2.01502 -0.789051 0
M  V30 3980 C 372.485 -0.0861651 -3.3869 0
M  V30 3981 C 371.044 0.30667 -3.75149 0
M  V30 3982 C 370.191 -0.459397 -2.73468 0
M  V30 3983 H 373.142 -0.712264 -1.41818 0
M  V30 3984 H 373.163 0.709507 -3.73826 0
M  V30 3985 H 372.675 -1.11512 -3.71735 0
M  V30 3986 H 370.776 1.33892 -3.47712 0
M  V30 3987 H 370.889 -0.0116669 -4.79099 0
M  V30 3988 H 369.253 0.0905645 -2.54539 0
M  V30 3989 H 370.036 -1.4884 -3.09357 0
M  V30 3990 N 372.481 1.55866 -0.233164 0
M  V30 3991 C 373.721 2.00506 0.397078 0
M  V30 3992 C 374.085 1.1176 1.56121 0
M  V30 3993 O 375.286 1.45796 2.25825 0
M  V30 3994 C 373.557 3.4811 0.809601 0
M  V30 3995 S 375.116 4.14765 1.43231 0
M  V30 3996 H 371.934 0.699828 0.125547 0
M  V30 3997 H 374.536 1.92429 -0.345177 0
M  V30 3998 H 373.24 4.10373 -0.0471601 0
M  V30 3999 H 372.771 3.60085 1.58438 0
M  V30 4000 H 374.786 4.14914 2.7214 0
M  V30 4001 N 373.959 -0.0401083 1.57549 0
M  V30 4002 C 374.869 -1.06133 2.0922 0
M  V30 4003 C 375.885 -1.40356 1.0284 0
M  V30 4004 O 377.061 -1.49897 1.34509 0
M  V30 4005 C 374.126 -2.34658 2.55218 0
M  V30 4006 C 373.187 -2.07117 3.76033 0
M  V30 4007 C 372.42 -3.29514 4.19829 0
M  V30 4008 O 372.643 -4.39794 3.63232 0
M  V30 4009 O 371.577 -3.15863 5.12362 0
M  V30 4010 H 375.403 -0.652244 2.96613 0
M  V30 4011 H 372.988 -0.256368 1.47184 0
M  V30 4012 H 374.87 -3.10239 2.85184 0
M  V30 4013 H 373.545 -2.74883 1.70941 0
M  V30 4014 H 372.452 -1.29139 3.51104 0
M  V30 4015 H 373.785 -1.71754 4.61261 0
M  V30 4016 N 375.437 -1.54477 -0.31217 0
M  V30 4017 C 376.683 -1.73483 -1.0503 0
M  V30 4018 C 377.016 -0.513125 -1.87298 0
M  V30 4019 O 376.291 0.489864 -1.8823 0
M  V30 4020 C 376.574 -3.01723 -1.96558 0
M  V30 4021 C 376.427 -4.3417 -1.17545 0
M  V30 4022 C 377.746 -3.25772 -2.95907 0
M  V30 4023 H 374.865 -0.631222 -0.380432 0
M  V30 4024 H 377.507 -1.87184 -0.325932 0
M  V30 4025 H 375.657 -2.90174 -2.58324 0
M  V30 4026 H 377.329 -4.5762 -0.581513 0
M  V30 4027 H 375.572 -4.31159 -0.477925 0
M  V30 4028 H 376.243 -5.20143 -1.84811 0
M  V30 4029 H 378.719 -3.36857 -2.44267 0
M  V30 4030 H 377.595 -4.16838 -3.57123 0
M  V30 4031 H 377.856 -2.43537 -3.68974 0
M  V30 4032 N 376.915 0.57481 -1.46744 0
M  V30 4033 C 378.14 1.36341 -1.56288 0
M  V30 4034 C 378.565 1.86954 -0.207347 0
M  V30 4035 O 377.923 1.62006 0.813871 0
M  V30 4036 C 377.971 2.52147 -2.57787 0
M  V30 4037 O 377.075 3.53834 -2.11838 0
M  V30 4038 H 376.416 0.405713 -0.525636 0
M  V30 4039 H 378.946 0.696453 -1.92382 0
M  V30 4040 H 378.956 2.98958 -2.77648 0
M  V30 4041 H 377.631 2.14663 -3.5622 0
M  V30 4042 H 376.208 3.1345 -2.01999 0
M  V30 4043 N 378.394 1.34581 0.820102 0
M  V30 4044 C 379.622 1.3018 1.60813 0
M  V30 4045 C 380.037 -0.123551 1.88395 0
M  V30 4046 O 379.394 -1.07148 1.47735 0
M  V30 4047 C 379.445 2.09312 2.94739 0
M  V30 4048 O 379.166 3.46288 2.68358 0
M  V30 4049 C 380.667 2.1234 3.89136 0
M  V30 4050 H 377.887 0.447726 0.499782 0
M  V30 4051 H 380.431 1.77237 1.02017 0
M  V30 4052 H 378.586 1.65889 3.50085 0
M  V30 4053 H 379 3.87227 3.53774 0
M  V30 4054 H 380.474 2.72126 4.80262 0
M  V30 4055 H 380.951 1.11854 4.24718 0
M  V30 4056 H 381.557 2.55864 3.39726 0
M  V30 4057 N 379.872 -1.04064 1.18357 0
M  V30 4058 C 381.102 -1.80654 1.00238 0
M  V30 4059 C 381.51 -1.83713 -0.452362 0
M  V30 4060 O 380.853 -1.27135 -1.32599 0
M  V30 4061 C 380.915 -3.27582 1.48088 0
M  V30 4062 C 380.579 -3.48184 2.96002 0
M  V30 4063 C 381.576 -3.39372 3.93856 0
M  V30 4064 C 379.261 -3.7478 3.34433 0
M  V30 4065 C 381.255 -3.5686 5.28138 0
M  V30 4066 C 378.942 -3.91915 4.68877 0
M  V30 4067 C 379.94 -3.82956 5.65539 0
M  V30 4068 O 379.628 -3.996 6.97549 0
M  V30 4069 H 379.36 -0.575751 0.354241 0
M  V30 4070 H 381.914 -1.32044 1.57333 0
M  V30 4071 H 380.144 -3.77161 0.853588 0
M  V30 4072 H 381.833 -3.8573 1.2636 0
M  V30 4073 H 382.599 -3.18789 3.65511 0
M  V30 4074 H 378.478 -3.80852 2.59756 0
M  V30 4075 H 382.022 -3.49783 6.03571 0
M  V30 4076 H 377.919 -4.11992 4.96923 0
M  V30 4077 H 378.687 -4.1676 7.04452 0
M  V30 4078 N 381.35 -0.985608 -1.22978 0
M  V30 4079 C 382.313 -0.535071 -2.22867 0
M  V30 4080 C 383.313 0.378123 -1.56291 0
M  V30 4081 O 384.503 0.171092 -1.73358 0
M  V30 4082 C 381.635 0.222702 -3.40172 0
M  V30 4083 H 382.828 -1.41835 -2.6424 0
M  V30 4084 H 380.381 -0.772042 -1.35901 0
M  V30 4085 H 381.116 1.12229 -3.04262 0
M  V30 4086 H 380.901 -0.43288 -3.89703 0
M  V30 4087 H 382.391 0.526335 -4.1427 0
M  V30 4088 N 382.828 1.3818 -0.7579 0
M  V30 4089 C 383.775 2.30416 -0.133057 0
M  V30 4090 C 384.745 1.50398 0.704957 0
M  V30 4091 O 385.93 1.79014 0.660192 0
M  V30 4092 C 383.07 3.36834 0.750813 0
M  V30 4093 C 382.183 4.31879 -0.102297 0
M  V30 4094 C 381.318 5.25368 0.784979 0
M  V30 4095 C 380.357 6.12058 -0.0715046 0
M  V30 4096 N 379.494 6.97832 0.772972 0
M  V30 4097 H 384.334 2.83274 -0.925186 0
M  V30 4098 H 381.871 1.39461 -0.467866 0
M  V30 4099 H 383.829 3.97145 1.27794 0
M  V30 4100 H 382.459 2.85374 1.50868 0
M  V30 4101 H 381.511 3.72991 -0.747095 0
M  V30 4102 H 382.823 4.92921 -0.763552 0
M  V30 4103 H 381.977 5.90818 1.37911 0
M  V30 4104 H 380.716 4.64703 1.47996 0
M  V30 4105 H 379.721 5.456 -0.678272 0
M  V30 4106 H 380.946 6.74793 -0.763606 0
M  V30 4107 H 378.892 6.3971 1.45282 0
M  V30 4108 H 378.809 7.55812 0.168709 0
M  V30 4109 H 380.077 7.67687 1.35194 0
M  V30 4110 N 384.306 0.507319 1.49211 0
M  V30 4111 C 385.531 -0.033725 2.07373 0
M  V30 4112 C 385.956 -1.29485 1.36437 0
M  V30 4113 O 385.314 -1.76294 0.423087 0
M  V30 4114 C 385.362 -0.263945 3.59633 0
M  V30 4115 O 384.466 -1.33737 3.90113 0
M  V30 4116 H 383.807 0.0290331 0.663365 0
M  V30 4117 H 386.337 0.708749 1.91932 0
M  V30 4118 H 386.347 -0.493536 4.05004 0
M  V30 4119 H 385.022 0.657424 4.10671 0
M  V30 4120 H 383.599 -1.09224 3.56545 0
M  V30 4121 N 385.784 -1.5574 0.241426 0
M  V30 4122 C 387.2 -1.59196 -0.113548 0
M  V30 4123 C 387.4 -1.25852 -1.57364 0
M  V30 4124 O 386.456 -1.00322 -2.31715 0
M  V30 4125 C 387.769 -2.99814 0.230695 0
M  V30 4126 C 389.317 -3.12513 0.174547 0
M  V30 4127 C 389.792 -4.55342 0.492744 0
M  V30 4128 N 391.283 -4.61076 0.443043 0
M  V30 4129 C 392.018 -5.6956 0.662484 0
M  V30 4130 N 391.514 -6.86328 0.944761 0
M  V30 4131 N 393.307 -5.58957 0.593564 0
M  V30 4132 H 385.458 -1.75685 1.19368 0
M  V30 4133 H 387.721 -0.81756 0.479896 0
M  V30 4134 H 387.427 -3.28932 1.24485 0
M  V30 4135 H 387.301 -3.74568 -0.444833 0
M  V30 4136 H 389.688 -2.83179 -0.830277 0
M  V30 4137 H 389.769 -2.40045 0.883845 0
M  V30 4138 H 389.413 -4.85396 1.4951 0
M  V30 4139 H 389.343 -5.26062 -0.23797 0
M  V30 4140 H 391.834 -3.77179 0.233374 0
M  V30 4141 H 392.147 -7.64935 1.09977 0
M  V30 4142 H 390.492 -6.88025 0.982175 0
M  V30 4143 H 393.683 -4.66611 0.373123 0
M  V30 4144 H 393.856 -6.43433 0.767981 0
M  V30 4145 N 387.262 0.0317525 -1.57568 0
M  V30 4146 C 388.209 1.0332 -2.06382 0
M  V30 4147 C 389.179 1.36082 -0.952414 0
M  V30 4148 O 390.364 1.46466 -1.2228 0
M  V30 4149 C 387.504 2.32989 -2.54578 0
M  V30 4150 C 386.617 2.0641 -3.79498 0
M  V30 4151 C 385.752 3.2993 -4.16317 0
M  V30 4152 C 384.791 2.98893 -5.34162 0
M  V30 4153 N 383.928 4.14857 -5.66426 0
M  V30 4154 H 388.768 0.609982 -2.9169 0
M  V30 4155 H 386.305 0.289573 -1.44222 0
M  V30 4156 H 388.263 3.0875 -2.80587 0
M  V30 4157 H 386.893 2.73039 -1.7219 0
M  V30 4158 H 385.945 1.21158 -3.6059 0
M  V30 4159 H 387.257 1.79513 -4.65378 0
M  V30 4160 H 386.411 4.1406 -4.4344 0
M  V30 4161 H 385.15 3.59938 -3.29083 0
M  V30 4162 H 384.155 2.13164 -5.06795 0
M  V30 4163 H 385.38 2.70165 -6.23047 0
M  V30 4164 H 383.326 4.44821 -4.82151 0
M  V30 4165 H 383.243 3.91374 -6.4681 0
M  V30 4166 H 384.511 4.99868 -5.98124 0
M  V30 4167 N 388.74 1.54641 0.303973 0
M  V30 4168 C 390.017 1.64455 1.05896 0
M  V30 4169 C 390.397 0.490923 2.05312 0
M  V30 4170 O 389.745 -0.512685 2.22674 0
M  V30 4171 C 389.955 3.02331 1.74347 0
M  V30 4172 C 391.303 3.59045 2.26653 0
M  V30 4173 O 392.327 3.04764 1.84384 0
M  V30 4174 O 391.186 4.54081 3.04093 0
M  V30 4175 H 388.28 0.666729 0.489287 0
M  V30 4176 H 390.826 1.66986 0.302298 0
M  V30 4177 H 389.598 3.77734 1.02142 0
M  V30 4178 H 389.221 3.03565 2.56777 0
M  V30 4179 N 390.218 -0.567019 1.47046 0
M  V30 4180 C 391.467 -1.32091 1.5243 0
M  V30 4181 C 391.78 -1.94704 0.187021 0
M  V30 4182 O 392.986 -2.7124 0.118771 0
M  V30 4183 C 391.442 -2.39479 2.68659 0
M  V30 4184 C 391.05 -1.831 4.08874 0
M  V30 4185 C 392.794 -3.16111 2.83327 0
M  V30 4186 C 390.701 -2.8821 5.16419 0
M  V30 4187 H 389.631 -0.496629 0.56734 0
M  V30 4188 H 392.282 -0.603354 1.73297 0
M  V30 4189 H 390.664 -3.14105 2.41152 0
M  V30 4190 H 391.838 -1.14913 4.46242 0
M  V30 4191 H 390.153 -1.19085 3.99008 0
M  V30 4192 H 392.75 -3.94585 3.60842 0
M  V30 4193 H 393.093 -3.69686 1.91411 0
M  V30 4194 H 393.626 -2.48595 3.10556 0
M  V30 4195 H 390.365 -2.39504 6.10179 0
M  V30 4196 H 389.885 -3.54839 4.8358 0
M  V30 4197 H 391.564 -3.51881 5.42945 0
M  V30 4198 N 391.696 -1.35014 -0.812953 0
M  V30 4199 C 392.944 -1.27678 -1.56661 0
M  V30 4200 C 393.265 0.150359 -1.94419 0
M  V30 4201 O 392.535 1.08532 -1.63088 0
M  V30 4202 H 391.115 -0.469602 -0.580933 0
M  V30 4203 H 393.777 -1.69043 -0.970076 0
M  V30 4204 H 392.873 -1.88833 -2.48492 0
M  V30 4205 N 393.175 1.03435 -1.18907 0
M  V30 4206 C 394.421 1.77005 -0.989798 0
M  V30 4207 C 394.754 1.88205 0.478816 0
M  V30 4208 O 394.029 1.39481 1.35556 0
M  V30 4209 C 394.312 3.19925 -1.65287 0
M  V30 4210 C 394.165 3.1663 -3.19477 0
M  V30 4211 C 395.484 4.18189 -1.37134 0
M  V30 4212 H 392.603 0.642538 -0.360991 0
M  V30 4213 H 395.245 1.20784 -1.46667 0
M  V30 4214 H 393.395 3.67929 -1.24741 0
M  V30 4215 H 395.067 2.76567 -3.692 0
M  V30 4216 H 393.31 2.54491 -3.51307 0
M  V30 4217 H 393.981 4.1758 -3.61013 0
M  V30 4218 H 396.457 3.78761 -1.72276 0
M  V30 4219 H 395.333 5.16394 -1.86087 0
M  V30 4220 H 395.594 4.41112 -0.295424 0
M  V30 4221 N 394.653 0.992116 1.22453 0
M  V30 4222 C 395.585 0.500024 2.23679 0
M  V30 4223 C 396.598 -0.404463 1.57696 0
M  V30 4224 O 397.787 -0.206722 1.77299 0
M  V30 4225 C 394.887 -0.294711 3.37616 0
M  V30 4226 C 394.06 0.605723 4.33186 0
M  V30 4227 C 393.119 -0.13717 5.26021 0
M  V30 4228 O 392.145 0.477164 5.67196 0
M  V30 4229 N 393.347 -1.4197 5.62872 0
M  V30 4230 H 396.112 1.37045 2.66531 0
M  V30 4231 H 393.673 0.866741 1.36745 0
M  V30 4232 H 395.665 -0.800329 3.96707 0
M  V30 4233 H 394.235 -1.06623 2.93854 0
M  V30 4234 H 393.455 1.29202 3.72425 0
M  V30 4235 H 394.743 1.21896 4.93983 0
M  V30 4236 H 394.141 -1.94015 5.31389 0
M  V30 4237 H 392.698 -1.87052 6.24383 0
M  V30 4238 N 396.131 -1.37776 0.765217 0
M  V30 4239 C 397.356 -2.04651 0.336537 0
M  V30 4240 C 397.781 -1.57337 -1.03086 0
M  V30 4241 O 397.139 -0.730621 -1.65927 0
M  V30 4242 C 397.187 -3.58577 0.381468 0
M  V30 4243 O 396.291 -4.07706 -0.62042 0
M  V30 4244 H 395.632 -0.64756 0.146838 0
M  V30 4245 H 398.162 -1.76221 1.03959 0
M  V30 4246 H 398.172 -4.07314 0.236448 0
M  V30 4247 H 396.847 -3.9237 1.37907 0
M  V30 4248 H 395.424 -3.70306 -0.439056 0
M  V30 4249 N 397.609 -0.515225 -1.4894 0
M  V30 4250 C 398.559 0.275113 -2.26334 0
M  V30 4251 C 399.543 0.923007 -1.31793 0
M  V30 4252 O 400.735 0.828254 -1.56426 0
M  V30 4253 C 397.864 1.33041 -3.16473 0
M  V30 4254 C 396.95 0.688051 -4.18481 0
M  V30 4255 N 397.341 -0.217638 -5.05332 0
M  V30 4256 C 395.639 0.94699 -4.3583 0
M  V30 4257 C 396.34 -0.58676 -5.78733 0
M  V30 4258 N 395.316 0.0486966 -5.43578 0
M  V30 4259 H 399.118 -0.421876 -2.90856 0
M  V30 4260 H 396.632 -0.332249 -1.58965 0
M  V30 4261 H 398.629 1.9102 -3.70563 0
M  V30 4262 H 397.289 2.02894 -2.53504 0
M  V30 4263 H 398.3 -0.589343 -5.14536 0
M  V30 4264 H 394.977 1.63719 -3.8406 0
M  V30 4265 H 396.367 -1.32855 -6.58634 0
M  V30 4266 N 399.087 1.5561 -0.249682 0
M  V30 4267 C 400.333 1.99306 0.374841 0
M  V30 4268 C 400.666 1.13767 1.57387 0
M  V30 4269 O 399.941 0.201711 1.93451 0
M  V30 4270 C 400.224 3.51507 0.781986 0
M  V30 4271 C 400.077 4.4781 -0.422629 0
M  V30 4272 C 401.396 4.08884 1.62793 0
M  V30 4273 H 398.515 0.724572 0.134773 0
M  V30 4274 H 401.157 1.86719 -0.351549 0
M  V30 4275 H 399.307 3.62363 1.4009 0
M  V30 4276 H 400.979 4.48931 -1.06108 0
M  V30 4277 H 399.222 4.20518 -1.06524 0
M  V30 4278 H 399.893 5.51919 -0.0943766 0
M  V30 4279 H 402.369 4.01147 1.10547 0
M  V30 4280 H 401.245 5.1564 1.88166 0
M  V30 4281 H 401.506 3.57515 2.60068 0
M  V30 4282 N 400.565 -0.0233959 1.57583 0
M  V30 4283 C 401.811 -0.708611 1.90657 0
M  V30 4284 C 402.166 -1.7266 0.848895 0
M  V30 4285 O 401.459 -1.91075 -0.141749 0
M  V30 4286 C 401.653 -1.41428 3.28227 0
M  V30 4287 C 401.482 -0.466155 4.47277 0
M  V30 4288 C 400.252 -0.085117 5.05228 0
M  V30 4289 C 402.45 0.257836 5.13653 0
M  V30 4290 N 400.432 0.863672 6.07794 0
M  V30 4291 C 401.803 1.06209 6.10835 0
M  V30 4292 C 403.858 0.324174 4.96844 0
M  V30 4293 C 402.561 1.9266 6.93018 0
M  V30 4294 C 404.587 1.17583 5.79593 0
M  V30 4295 C 403.949 1.96799 6.7635 0
M  V30 4296 H 400.048 -0.233222 0.746412 0
M  V30 4297 H 402.632 0.0314512 1.94675 0
M  V30 4298 H 400.803 -2.12477 3.25128 0
M  V30 4299 H 402.535 -2.05233 3.488 0
M  V30 4300 H 399.29 -0.448516 4.71471 0
M  V30 4301 H 399.714 1.33274 6.63752 0
M  V30 4302 H 404.356 -0.273975 4.21911 0
M  V30 4303 H 402.074 2.53552 7.67292 0
M  V30 4304 H 405.66 1.23076 5.68633 0
M  V30 4305 H 404.54 2.61635 7.39268 0
M  V30 4306 N 402.043 -1.548 -0.295768 0
M  V30 4307 C 403.289 -1.74588 -1.03184 0
M  V30 4308 C 403.622 -0.532962 -1.86744 0
M  V30 4309 O 402.897 0.469872 -1.88739 0
M  V30 4310 C 403.18 -3.03791 -1.93347 0
M  V30 4311 C 403.033 -4.35392 -1.12933 0
M  V30 4312 C 404.352 -3.28892 -2.92435 0
M  V30 4313 H 401.471 -0.635221 -0.373715 0
M  V30 4314 H 404.113 -1.87519 -0.30606 0
M  V30 4315 H 402.263 -2.92898 -2.55232 0
M  V30 4316 H 403.935 -4.58211 -0.532943 0
M  V30 4317 H 402.178 -4.31642 -0.432168 0
M  V30 4318 H 402.849 -5.22074 -1.79284 0
M  V30 4319 H 405.325 -3.39429 -2.4068 0
M  V30 4320 H 404.201 -4.20603 -3.52682 0
M  V30 4321 H 404.462 -2.47437 -3.6637 0
M  V30 4322 N 403.521 0.559213 -1.47345 0
M  V30 4323 C 404.937 0.884943 -1.32819 0
M  V30 4324 C 405.137 1.98988 -0.317173 0
M  V30 4325 O 404.193 2.51031 0.272011 0
M  V30 4326 C 405.506 1.28007 -2.72093 0
M  V30 4327 C 407.054 1.39161 -2.80363 0
M  V30 4328 C 407.529 1.82031 -4.20272 0
M  V30 4329 N 409.02 1.89185 -4.22804 0
M  V30 4330 C 409.755 2.2368 -5.27973 0
M  V30 4331 N 409.251 2.56802 -6.43447 0
M  V30 4332 N 411.044 2.24436 -5.15349 0
M  V30 4333 H 403.195 -0.170304 -2.11716 0
M  V30 4334 H 405.458 -0.0135247 -0.947904 0
M  V30 4335 H 405.164 0.542027 -3.47498 0
M  V30 4336 H 405.038 2.23665 -3.03733 0
M  V30 4337 H 407.425 2.12048 -2.05231 0
M  V30 4338 H 407.506 0.41696 -2.52379 0
M  V30 4339 H 407.15 1.09715 -4.95908 0
M  V30 4340 H 407.08 2.80495 -4.45679 0
M  V30 4341 H 409.571 1.65982 -3.39497 0
M  V30 4342 H 409.884 2.82144 -7.19454 0
M  V30 4343 H 408.229 2.54387 -6.46771 0
M  V30 4344 H 411.42 1.97998 -4.24163 0
M  V30 4345 H 411.593 2.50989 -5.97418 0
M  V30 4346 N 404.999 1.35443 0.805782 0
M  V30 4347 C 406.247 1.28507 1.55982 0
M  V30 4348 C 406.568 -0.140046 1.94496 0
M  V30 4349 O 405.838 -1.07666 1.63661 0
M  V30 4350 H 404.418 0.472676 0.578434 0
M  V30 4351 H 407.08 1.69555 0.961098 0
M  V30 4352 H 406.176 1.90148 2.47488 0
M  V30 4353 N 406.477 -1.02803 1.19454 0
M  V30 4354 C 407.725 -1.75869 0.995722 0
M  V30 4355 C 408.046 -1.89138 -0.474543 0
M  V30 4356 O 407.316 -1.42558 -1.34366 0
M  V30 4357 H 405.896 -0.651511 0.365435 0
M  V30 4358 H 408.558 -1.24004 1.50363 0
M  V30 4359 H 407.654 -2.76661 1.44447 0
M  V30 4360 N 407.956 -0.998596 -1.21925 0
M  V30 4361 C 409.196 -0.685948 -1.92546 0
M  V30 4362 C 409.56 0.768441 -1.75952 0
M  V30 4363 O 410.761 1.19277 -2.40887 0
M  V30 4364 C 409.032 -1.08767 -3.40448 0
M  V30 4365 S 410.591 -0.894251 -4.29591 0
M  V30 4366 H 407.409 -0.250622 -0.665364 0
M  V30 4367 H 410.011 -1.28207 -1.47591 0
M  V30 4368 H 408.715 -2.14242 -3.50041 0
M  V30 4369 H 408.246 -0.48357 -3.90417 0
M  V30 4370 H 410.261 0.212149 -4.95746 0
M  V30 4371 N 409.434 1.37368 -0.772513 0
M  V30 4372 C 410.344 2.34053 -0.160081 0
M  V30 4373 C 411.36 1.60216 0.678728 0
M  V30 4374 O 412.536 1.92303 0.59847 0
M  V30 4375 C 409.601 3.3939 0.708182 0
M  V30 4376 C 408.662 4.29048 -0.147172 0
M  V30 4377 C 407.895 5.29354 0.679744 0
M  V30 4378 O 408.118 5.3723 1.91678 0
M  V30 4379 O 407.052 6.01835 0.0885444 0
M  V30 4380 H 410.878 2.88159 -0.959053 0
M  V30 4381 H 408.463 1.39543 -0.533685 0
M  V30 4382 H 410.345 4.03839 1.20384 0
M  V30 4383 H 409.02 2.8761 1.48533 0
M  V30 4384 H 407.927 3.67697 -0.689205 0
M  V30 4385 H 409.26 4.84134 -0.887423 0
M  V30 4386 N 410.912 0.523116 1.48665 0
M  V30 4387 C 412.137 -0.0117284 2.07397 0
M  V30 4388 C 412.562 -1.28031 1.37803 0
M  V30 4389 O 411.92 -1.75836 0.441762 0
M  V30 4390 C 411.968 -0.225786 3.59892 0
M  V30 4391 O 411.072 -1.29592 3.91509 0
M  V30 4392 H 410.413 0.0360673 0.66302 0
M  V30 4393 H 412.943 0.729066 1.9117 0
M  V30 4394 H 412.953 -0.450552 4.05505 0
M  V30 4395 H 411.628 0.700944 4.09951 0
M  V30 4396 H 410.205 -1.05436 3.57684 0
M  V30 4397 N 412.39 -1.55475 0.257931 0
M  V30 4398 C 413.638 -1.98813 -0.363009 0
M  V30 4399 C 413.959 -1.14757 -1.57657 0
M  V30 4400 O 413.229 -0.232956 -1.9451 0
M  V30 4401 H 411.809 -0.734308 -0.137113 0
M  V30 4402 H 414.471 -1.9156 0.359281 0
M  V30 4403 H 413.567 -3.04941 -0.664634 0
M  V30 4404 N 413.868 0.0150385 -1.57593 0
M  V30 4405 C 415.284 0.370907 -1.5523 0
M  V30 4406 C 415.484 1.75735 -0.985882 0
M  V30 4407 O 414.54 2.44944 -0.613077 0
M  V30 4408 C 415.853 0.259908 -2.99575 0
M  V30 4409 C 417.401 0.335959 -3.11192 0
M  V30 4410 C 417.876 0.254253 -4.57294 0
M  V30 4411 N 419.367 0.312618 -4.62144 0
M  V30 4412 C 420.102 0.272505 -5.72752 0
M  V30 4413 N 419.598 0.183864 -6.92556 0
M  V30 4414 N 421.391 0.323267 -5.6117 0
M  V30 4415 H 413.542 -0.892104 -1.92757 0
M  V30 4416 H 415.805 -0.340563 -0.884715 0
M  V30 4417 H 415.511 -0.693403 -3.44797 0
M  V30 4418 H 415.385 1.048 -3.62349 0
M  V30 4419 H 417.772 1.27971 -2.65909 0
M  V30 4420 H 417.853 -0.481739 -2.51223 0
M  V30 4421 H 417.497 -0.685887 -5.03247 0
M  V30 4422 H 417.427 1.09024 -5.15191 0
M  V30 4423 H 419.918 0.38307 -3.75953 0
M  V30 4424 H 420.231 0.15874 -7.72637 0
M  V30 4425 H 418.576 0.149708 -6.94839 0
M  V30 4426 H 421.767 0.390607 -4.66467 0
M  V30 4427 H 421.94 0.288539 -6.47357 0
M  V30 4428 N 415.346 1.54954 0.287554 0
M  V30 4429 C 416.586 1.76617 1.02887 0
M  V30 4430 C 416.95 0.547759 1.84021 0
M  V30 4431 O 418.151 0.642365 2.61012 0
M  V30 4432 C 416.422 3.02717 1.89993 0
M  V30 4433 S 417.981 3.45438 2.70588 0
M  V30 4434 H 414.799 0.6207 0.346775 0
M  V30 4435 H 417.401 1.93172 0.30082 0
M  V30 4436 H 416.105 3.89503 1.29287 0
M  V30 4437 H 415.636 2.88787 2.67144 0
M  V30 4438 H 417.651 3.03566 3.92508 0
M  V30 4439 N 416.824 -0.551391 1.4764 0
M  V30 4440 C 418.101 -1.31229 1.45046 0
M  V30 4441 C 418.481 -2.10563 0.150527 0
M  V30 4442 O 417.829 -2.11374 -0.867956 0
M  V30 4443 C 418.039 -2.21189 2.69956 0
M  V30 4444 C 419.387 -2.82021 3.1741 0
M  V30 4445 O 420.411 -2.31488 2.70724 0
M  V30 4446 O 419.27 -3.73885 3.98588 0
M  V30 4447 H 416.364 -0.591193 0.578291 0
M  V30 4448 H 418.91 -0.569813 1.59847 0
M  V30 4449 H 417.682 -1.62207 3.56096 0
M  V30 4450 H 417.305 -3.02722 2.57769 0
M  V30 4451 N 418.302 -1.35869 -0.798587 0
M  V30 4452 C 419.718 -1.16082 -1.09532 0
M  V30 4453 C 419.918 0.0213124 -2.01489 0
M  V30 4454 O 418.974 0.689488 -2.42904 0
M  V30 4455 C 420.287 -2.46748 -1.7186 0
M  V30 4456 C 421.835 -2.53028 -1.84244 0
M  V30 4457 C 422.31 -3.83758 -2.49988 0
M  V30 4458 N 423.801 -3.85053 -2.57465 0
M  V30 4459 C 424.536 -4.8294 -3.09122 0
M  V30 4460 N 424.032 -5.91217 -3.61157 0
M  V30 4461 N 425.825 -4.70369 -3.0775 0
M  V30 4462 H 417.976 -2.11571 -0.187461 0
M  V30 4463 H 420.239 -0.936726 -0.145765 0
M  V30 4464 H 419.945 -3.33471 -1.11759 0
M  V30 4465 H 419.819 -2.61883 -2.71472 0
M  V30 4466 H 422.206 -1.66729 -2.43486 0
M  V30 4467 H 422.287 -2.418 -0.834643 0
M  V30 4468 H 421.931 -4.70459 -1.91393 0
M  V30 4469 H 421.861 -3.92278 -3.5132 0
M  V30 4470 H 424.352 -3.06822 -2.20609 0
M  V30 4471 H 424.665 -6.61892 -3.98896 0
M  V30 4472 H 423.01 -5.94899 -3.59333 0
M  V30 4473 H 426.201 -3.84914 -2.66381 0
M  V30 4474 H 426.374 -5.46816 -3.47701 0
M  V30 4475 N 419.78 1.02168 -1.19998 0
M  V30 4476 C 421.02 1.77232 -1.01825 0
M  V30 4477 C 421.384 1.86833 0.442428 0
M  V30 4478 O 422.585 2.58293 0.744189 0
M  V30 4479 C 420.856 3.15601 -1.67722 0
M  V30 4480 S 422.415 4.06765 -1.64584 0
M  V30 4481 H 419.233 0.610021 -0.365233 0
M  V30 4482 H 421.835 1.22368 -1.52467 0
M  V30 4483 H 420.539 3.06235 -2.73218 0
M  V30 4484 H 420.07 3.7554 -1.17189 0
M  V30 4485 H 422.085 4.91586 -0.67511 0
M  V30 4486 N 421.258 1.00505 1.21394 0
M  V30 4487 C 422.19 0.52372 2.23136 0
M  V30 4488 C 423.203 -0.387714 1.58116 0
M  V30 4489 O 424.392 -0.187905 1.77508 0
M  V30 4490 C 421.492 -0.258885 3.3791 0
M  V30 4491 C 420.665 0.651634 4.32519 0
M  V30 4492 C 419.724 -0.0813705 5.26137 0
M  V30 4493 O 418.75 0.537295 5.66658 0
M  V30 4494 N 419.952 -1.35992 5.64346 0
M  V30 4495 H 422.717 1.39865 2.65062 0
M  V30 4496 H 420.278 0.881196 1.35818 0
M  V30 4497 H 422.27 -0.758208 3.97534 0
M  V30 4498 H 420.84 -1.035 2.94968 0
M  V30 4499 H 420.06 1.33145 3.71034 0
M  V30 4500 H 421.348 1.27129 4.92662 0
M  V30 4501 H 420.746 -1.88368 5.33417 0
M  V30 4502 H 419.303 -1.8042 6.26332 0
M  V30 4503 N 422.737 -1.36956 0.779787 0
M  V30 4504 C 423.684 -2.30175 0.169697 0
M  V30 4505 C 424.654 -1.51501 -0.68094 0
M  V30 4506 O 425.839 -1.80042 -0.631629 0
M  V30 4507 C 422.979 -3.37985 -0.697131 0
M  V30 4508 C 422.092 -4.31661 0.170992 0
M  V30 4509 C 421.227 -5.2655 -0.701298 0
M  V30 4510 C 420.266 -6.11867 0.168869 0
M  V30 4511 N 419.403 -6.98973 -0.661855 0
M  V30 4512 H 424.243 -2.81767 0.970135 0
M  V30 4513 H 421.78 -1.38699 0.489994 0
M  V30 4514 H 423.738 -3.99128 -1.2146 0
M  V30 4515 H 422.368 -2.87739 -1.46309 0
M  V30 4516 H 421.42 -3.71756 0.80634 0
M  V30 4517 H 422.732 -4.91644 0.841875 0
M  V30 4518 H 421.886 -5.92937 -1.28494 0
M  V30 4519 H 420.625 -4.66998 -1.40584 0
M  V30 4520 H 419.63 -5.44452 0.764986 0
M  V30 4521 H 420.855 -6.73493 0.870863 0
M  V30 4522 H 418.801 -6.41941 -1.35086 0
M  V30 4523 H 418.718 -7.55984 -0.0484447 0
M  V30 4524 H 419.986 -7.6974 -1.22963 0
M  V30 4525 N 424.215 -0.530993 -1.48385 0
M  V30 4526 C 425.162 0.231223 -2.29639 0
M  V30 4527 C 426.132 0.932864 -1.37429 0
M  V30 4528 O 427.317 0.933692 -1.66394 0
M  V30 4529 C 424.457 1.27155 -3.2082 0
M  V30 4530 C 423.57 0.578655 -4.28107 0
M  V30 4531 C 422.705 1.602 -5.06467 0
M  V30 4532 C 421.744 0.892625 -6.05556 0
M  V30 4533 N 420.881 1.86157 -6.76971 0
M  V30 4534 H 425.721 -0.467848 -2.94305 0
M  V30 4535 H 423.258 -0.242556 -1.45086 0
M  V30 4536 H 425.216 1.88703 -3.72085 0
M  V30 4537 H 423.846 1.939 -2.58075 0
M  V30 4538 H 422.898 -0.150782 -3.80101 0
M  V30 4539 H 424.21 0.0217065 -4.98795 0
M  V30 4540 H 423.364 2.29173 -5.61751 0
M  V30 4541 H 422.103 2.19285 -4.35621 0
M  V30 4542 H 421.108 0.188829 -5.49476 0
M  V30 4543 H 422.333 0.307878 -6.78402 0
M  V30 4544 H 420.279 2.44147 -6.08875 0
M  V30 4545 H 420.196 1.35608 -7.43738 0
M  V30 4546 H 421.464 2.54325 -7.36844 0
M  V30 4547 N 425.693 1.55336 -0.266172 0
M  V30 4548 C 426.942 1.98574 0.353749 0
M  V30 4549 C 427.255 1.15789 1.57646 0
M  V30 4550 O 428.461 1.49129 2.26876 0
M  V30 4551 C 426.917 3.53403 0.680747 0
M  V30 4552 C 426.525 4.44953 -0.52165 0
M  V30 4553 C 428.269 4.05251 1.26379 0
M  V30 4554 C 426.176 5.91156 -0.169736 0
M  V30 4555 H 425.106 0.741643 0.135949 0
M  V30 4556 H 427.757 1.79743 -0.369421 0
M  V30 4557 H 426.139 3.68001 1.46257 0
M  V30 4558 H 427.313 4.42121 -1.29869 0
M  V30 4559 H 425.628 4.03691 -1.02093 0
M  V30 4560 H 428.225 5.12021 1.54074 0
M  V30 4561 H 428.568 3.53749 2.19471 0
M  V30 4562 H 429.101 3.94057 0.544447 0
M  V30 4563 H 425.84 6.46736 -1.0683 0
M  V30 4564 H 425.36 5.97079 0.570717 0
M  V30 4565 H 427.039 6.4655 0.241245 0
M  V30 4566 N 427.171 -0.0066808 1.57599 0
M  V30 4567 C 428.587 -0.36267 1.55425 0
M  V30 4568 C 428.787 -1.75209 0.995187 0
M  V30 4569 O 427.843 -2.44616 0.626058 0
M  V30 4570 C 429.156 -0.244017 2.99708 0
M  V30 4571 C 430.704 -0.319451 3.11366 0
M  V30 4572 C 431.179 -0.229998 4.57422 0
M  V30 4573 N 432.67 -0.288105 4.62303 0
M  V30 4574 C 433.405 -0.242127 5.72889 0
M  V30 4575 N 432.901 -0.147133 6.92644 0
M  V30 4576 N 434.694 -0.293502 5.61333 0
M  V30 4577 H 426.845 0.902314 1.92281 0
M  V30 4578 H 429.108 0.34525 0.882896 0
M  V30 4579 H 428.814 0.711678 3.44424 0
M  V30 4580 H 428.688 -1.02877 3.629 0
M  V30 4581 H 431.075 -1.26559 2.66584 0
M  V30 4582 H 431.156 0.495055 2.50964 0
M  V30 4583 H 430.8 0.712566 5.02877 0
M  V30 4584 H 430.73 -1.0629 5.15761 0
M  V30 4585 H 433.221 -0.363126 3.76151 0
M  V30 4586 H 433.534 -0.117763 7.7271 0
M  V30 4587 H 431.879 -0.112857 6.94908 0
M  V30 4588 H 435.07 -0.365864 4.66668 0
M  V30 4589 H 435.243 -0.254204 6.47501 0
M  V30 4590 N 428.649 -1.55105 -0.279332 0
M  V30 4591 C 429.898 -1.74618 -1.00952 0
M  V30 4592 C 430.211 -0.551096 -1.87676 0
M  V30 4593 O 431.417 -0.628507 -2.64125 0
M  V30 4594 C 429.873 -3.09025 -1.84476 0
M  V30 4595 C 429.481 -4.36081 -1.0265 0
M  V30 4596 C 431.225 -3.37891 -2.56963 0
M  V30 4597 C 429.132 -5.6153 -1.85576 0
M  V30 4598 H 428.062 -0.650868 -0.38064 0
M  V30 4599 H 430.713 -1.81569 -0.265475 0
M  V30 4600 H 429.095 -2.96095 -2.62952 0
M  V30 4601 H 430.269 -4.59909 -0.286354 0
M  V30 4602 H 428.584 -4.14312 -0.416464 0
M  V30 4603 H 431.181 -4.28822 -3.19399 0
M  V30 4604 H 431.524 -2.57737 -3.26921 0
M  V30 4605 H 432.057 -3.5189 -1.85522 0
M  V30 4606 H 428.796 -6.44413 -1.2005 0
M  V30 4607 H 428.316 -5.41854 -2.57204 0
M  V30 4608 H 429.995 -5.99594 -2.43096 0
M  V30 4609 N 430.127 0.543554 -1.4793 0
M  V30 4610 C 431.357 1.32324 -1.58663 0
M  V30 4611 C 431.765 1.8766 -0.240896 0
M  V30 4612 O 431.108 1.66411 0.778011 0
M  V30 4613 C 431.17 2.52094 -2.56299 0
M  V30 4614 C 430.834 2.17944 -4.01683 0
M  V30 4615 C 431.831 1.74422 -4.89768 0
M  V30 4616 C 429.516 2.28884 -4.47121 0
M  V30 4617 C 431.51 1.42287 -6.21316 0
M  V30 4618 C 429.197 1.96361 -5.78693 0
M  V30 4619 C 430.195 1.53132 -6.65612 0
M  V30 4620 O 429.883 1.21029 -7.94737 0
M  V30 4621 H 429.615 0.409174 -0.538101 0
M  V30 4622 H 432.169 0.663887 -1.94375 0
M  V30 4623 H 430.399 3.20965 -2.15681 0
M  V30 4624 H 432.088 3.14165 -2.57012 0
M  V30 4625 H 432.854 1.65452 -4.55907 0
M  V30 4626 H 428.733 2.61488 -3.79664 0
M  V30 4627 H 432.277 1.08472 -6.89115 0
M  V30 4628 H 428.174 2.04967 -6.12094 0
M  V30 4629 H 428.942 1.34543 -8.07366 0
M  V30 4630 N 431.605 1.3629 0.791371 0
M  V30 4631 C 432.555 1.26988 1.89362 0
M  V30 4632 C 433.539 0.161795 1.60084 0
M  V30 4633 O 434.731 0.394426 1.72549 0
M  V30 4634 C 431.86 1.05944 3.26544 0
M  V30 4635 C 430.946 2.21211 3.61838 0
M  V30 4636 N 431.337 3.46518 3.68455 0
M  V30 4637 C 429.635 2.12933 3.91887 0
M  V30 4638 C 430.336 4.2241 3.99931 0
M  V30 4639 N 429.312 3.51329 4.14812 0
M  V30 4640 H 433.114 2.21908 1.92702 0
M  V30 4641 H 430.628 1.28982 0.986787 0
M  V30 4642 H 432.625 0.973666 4.05371 0
M  V30 4643 H 431.285 0.119223 3.24481 0
M  V30 4644 H 432.296 3.80677 3.51148 0
M  V30 4645 H 428.973 1.26855 3.97761 0
M  V30 4646 H 430.363 5.30767 4.1199 0
M  V30 4647 N 433.083 -1.0153 1.20538 0
M  V30 4648 C 434.308 -1.79283 1.04271 0
M  V30 4649 C 434.733 -1.8372 -0.403544 0
M  V30 4650 O 434.091 -1.27321 -1.2907 0
M  V30 4651 C 434.139 -3.21535 1.63241 0
M  V30 4652 O 433.243 -4.03099 0.870908 0
M  V30 4653 H 432.584 -0.55293 0.367647 0
M  V30 4654 H 435.114 -1.27696 1.59859 0
M  V30 4655 H 435.124 -3.72243 1.6703 0
M  V30 4656 H 433.799 -3.1762 2.68497 0
M  V30 4657 H 432.376 -3.61693 0.907323 0
M  V30 4658 N 434.561 -1.01147 -1.20859 0
M  V30 4659 C 435.491 -0.597663 -2.25722 0
M  V30 4660 C 436.472 0.384744 -1.65692 0
M  V30 4661 O 437.657 0.271303 -1.92296 0
M  V30 4662 C 434.787 0.0700149 -3.47229 0
M  V30 4663 C 433.741 -0.832843 -4.19819 0
M  V30 4664 C 433.067 -0.0312202 -5.34691 0
M  V30 4665 C 434.367 -2.1385 -4.76514 0
M  V30 4666 H 436.061 -1.47423 -2.60589 0
M  V30 4667 H 433.607 -0.710301 -1.25263 0
M  V30 4668 H 435.56 0.37103 -4.19763 0
M  V30 4669 H 434.284 0.981259 -3.11511 0
M  V30 4670 H 432.943 -1.11778 -3.49144 0
M  V30 4671 H 432.591 0.881515 -4.95215 0
M  V30 4672 H 432.291 -0.632434 -5.84187 0
M  V30 4673 H 433.815 0.26346 -6.10031 0
M  V30 4674 H 435.229 -1.9002 -5.40893 0
M  V30 4675 H 433.626 -2.69012 -5.36426 0
M  V30 4676 H 434.696 -2.80495 -3.95538 0
M  V30 4677 N 436.039 1.36541 -0.78704 0
M  V30 4678 C 437.267 2.03561 -0.370199 0
M  V30 4679 C 437.682 1.59347 1.01263 0
M  V30 4680 O 437.039 0.781781 1.64907 0
M  V30 4681 C 437.09 3.59033 -0.421614 0
M  V30 4682 O 436.811 4.01634 -1.7499 0
M  V30 4683 C 438.312 4.433 0.00489763 0
M  V30 4684 H 435.532 0.653346 -0.152904 0
M  V30 4685 H 438.076 1.74566 -1.06522 0
M  V30 4686 H 436.231 3.86746 0.224971 0
M  V30 4687 H 436.645 4.96217 -1.69909 0
M  V30 4688 H 438.119 5.51939 -0.0822184 0
M  V30 4689 H 438.596 4.26285 1.05723 0
M  V30 4690 H 439.202 4.20843 -0.614085 0
M  V30 4691 N 437.518 0.538854 1.48102 0
M  V30 4692 C 438.766 0.00798599 2.02098 0
M  V30 4693 C 439.087 -1.33922 1.41739 0
M  V30 4694 O 438.357 -1.86932 0.585934 0
M  V30 4695 H 436.937 -3.62179e-05 0.747 0
M  V30 4696 H 439.599 0.7047 1.81714 0
M  V30 4697 H 438.695 -0.0937672 3.11959 0
M  V30 4698 N 438.996 -1.55193 0.274407 0
M  V30 4699 C 439.926 -2.25471 -0.607032 0
M  V30 4700 C 440.907 -1.24461 -1.15946 0
M  V30 4701 O 442.092 -1.53179 -1.19373 0
M  V30 4702 C 439.222 -2.97526 -1.79153 0
M  V30 4703 C 438.176 -4.05459 -1.37067 0
M  V30 4704 C 437.502 -4.65084 -2.6382 0
M  V30 4705 C 438.802 -5.19691 -0.521389 0
M  V30 4706 H 440.496 -2.99393 -0.0209343 0
M  V30 4707 H 438.042 -1.43997 -0.00862866 0
M  V30 4708 H 439.995 -3.45402 -2.41404 0
M  V30 4709 H 438.719 -2.21138 -2.40344 0
M  V30 4710 H 437.378 -3.58393 -0.771355 0
M  V30 4711 H 437.026 -3.85365 -3.23268 0
M  V30 4712 H 436.726 -5.37961 -2.36372 0
M  V30 4713 H 438.25 -5.15708 -3.26921 0
M  V30 4714 H 439.664 -5.63623 -1.04889 0
M  V30 4715 H 438.061 -5.99126 -0.341825 0
M  V30 4716 H 439.131 -4.82713 0.46 0
M  V30 4717 N 440.474 -0.00167713 -1.576 0
M  V30 4718 C 441.424 0.997744 -2.0501 0
M  V30 4719 C 442.408 1.30214 -0.94515 0
M  V30 4720 O 443.6 1.29284 -1.20891 0
M  V30 4721 C 440.729 2.2892 -2.55833 0
M  V30 4722 C 439.815 2.01437 -3.73208 0
M  V30 4723 N 440.206 1.44119 -4.84833 0
M  V30 4724 C 438.504 2.31571 -3.8117 0
M  V30 4725 C 439.205 1.33145 -5.66257 0
M  V30 4726 N 438.181 1.81763 -5.12312 0
M  V30 4727 H 441.983 0.549098 -2.88725 0
M  V30 4728 H 439.497 0.20398 -1.61114 0
M  V30 4729 H 441.494 3.01361 -2.88075 0
M  V30 4730 H 440.154 2.74436 -1.73537 0
M  V30 4731 H 441.165 1.11978 -5.0565 0
M  V30 4732 H 437.842 2.7995 -3.09732 0
M  V30 4733 H 439.232 0.890567 -6.65972 0
M  V30 4734 N 441.952 1.55251 0.271103 0
M  V30 4735 C 443.192 1.77698 1.01008 0
M  V30 4736 C 443.556 0.567246 1.83429 0
M  V30 4737 O 444.757 0.670013 2.60316 0
M  V30 4738 C 443.028 3.04715 1.86772 0
M  V30 4739 S 444.587 3.48289 2.66909 0
M  V30 4740 H 441.405 0.624343 0.340172 0
M  V30 4741 H 444.007 1.9348 0.280315 0
M  V30 4742 H 442.711 3.90853 1.25149 0
M  V30 4743 H 442.242 2.91604 2.64066 0
M  V30 4744 H 444.257 3.07712 3.89266 0
M  V30 4745 N 443.43 -0.535701 1.48216 0
M  V30 4746 C 444.676 -1.29375 1.56173 0
M  V30 4747 C 445.009 -1.92804 0.232429 0
M  V30 4748 O 444.284 -1.78992 -0.761048 0
M  V30 4749 C 444.567 -2.38747 2.69577 0
M  V30 4750 C 444.42 -1.80046 4.12193 0
M  V30 4751 C 445.739 -3.40551 2.78771 0
M  V30 4752 H 442.858 -0.469027 0.568491 0
M  V30 4753 H 445.5 -0.597358 1.80365 0
M  V30 4754 H 443.65 -2.98147 2.4908 0
M  V30 4755 H 445.322 -1.24742 4.44114 0
M  V30 4756 H 443.565 -1.10609 4.19462 0
M  V30 4757 H 444.236 -2.59212 4.87353 0
M  V30 4758 H 446.712 -2.91099 2.97322 0
M  V30 4759 H 445.588 -4.1448 3.59857 0
M  V30 4760 H 445.849 -4.00746 1.86696 0
M  V30 4761 N 444.908 -1.36708 -0.784132 0
M  V30 4762 C 446.154 -1.32433 -1.54379 0
M  V30 4763 C 446.509 0.0941816 -1.92169 0
M  V30 4764 O 445.802 1.04997 -1.60269 0
M  V30 4765 C 445.996 -2.18571 -2.82774 0
M  V30 4766 C 445.825 -3.68656 -2.57533 0
M  V30 4767 C 444.595 -4.37813 -2.52286 0
M  V30 4768 C 446.793 -4.61802 -2.2637 0
M  V30 4769 N 444.775 -5.7351 -2.18997 0
M  V30 4770 C 446.146 -5.85785 -2.03115 0
M  V30 4771 C 448.201 -4.50313 -2.12421 0
M  V30 4772 C 446.904 -6.99569 -1.67321 0
M  V30 4773 C 448.93 -5.63969 -1.78026 0
M  V30 4774 C 448.292 -6.86994 -1.55622 0
M  V30 4775 H 444.391 -0.539886 -0.565727 0
M  V30 4776 H 446.975 -1.71812 -0.915908 0
M  V30 4777 H 445.146 -1.81429 -3.43421 0
M  V30 4778 H 446.878 -2.05646 -3.48557 0
M  V30 4779 H 443.633 -3.90674 -2.67714 0
M  V30 4780 H 444.057 -6.45189 -2.05084 0
M  V30 4781 H 448.699 -3.55781 -2.28429 0
M  V30 4782 H 446.417 -7.94047 -1.5005 0
M  V30 4783 H 450.003 -5.57044 -1.67909 0
M  V30 4784 H 448.883 -7.7345 -1.294 0
M  V30 4785 N 446.386 1.0089 -1.21074 0
M  V30 4786 C 447.626 1.76142 -1.03699 0
M  V30 4787 C 447.99 1.87292 0.422587 0
M  V30 4788 O 449.191 2.59068 0.716752 0
M  V30 4789 C 447.462 3.13805 -1.7106 0
M  V30 4790 S 449.021 4.04996 -1.68889 0
M  V30 4791 H 445.839 0.606113 -0.371683 0
M  V30 4792 H 448.441 1.20744 -1.53756 0
M  V30 4793 H 447.145 3.0332 -2.76451 0
M  V30 4794 H 446.676 3.74276 -1.21166 0
M  V30 4795 H 448.691 4.90842 -0.727211 0
M  V30 4796 N 447.864 1.01787 1.20321 0
M  V30 4797 C 448.814 0.559976 2.21016 0
M  V30 4798 C 449.798 -0.385366 1.56217 0
M  V30 4799 O 450.99 -0.208126 1.75772 0
M  V30 4800 C 448.119 -0.0990553 3.43157 0
M  V30 4801 C 447.205 0.86807 4.15121 0
M  V30 4802 N 447.596 2.0261 4.63447 0
M  V30 4803 C 445.894 0.689162 4.40643 0
M  V30 4804 C 446.595 2.63518 5.18588 0
M  V30 4805 N 445.571 1.91569 5.08726 0
M  V30 4806 H 449.373 1.44281 2.56048 0
M  V30 4807 H 446.887 0.883381 1.36272 0
M  V30 4808 H 448.884 -0.444643 4.14522 0
M  V30 4809 H 447.544 -0.977709 3.0963 0
M  V30 4810 H 448.555 2.40598 4.58621 0
M  V30 4811 H 445.232 -0.14133 4.17261 0
M  V30 4812 H 446.622 3.61527 5.66346 0
M  V30 4813 N 449.342 -1.36122 0.79427 0
M  V30 4814 C 450.272 -2.32551 0.210328 0
M  V30 4815 C 451.253 -1.56884 -0.657386 0
M  V30 4816 O 452.438 -1.85014 -0.590207 0
M  V30 4817 C 449.568 -3.41128 -0.651819 0
M  V30 4818 C 448.522 -4.27842 0.116395 0
M  V30 4819 C 447.848 -5.2763 -0.86666 0
M  V30 4820 C 449.148 -5.05647 1.30837 0
M  V30 4821 H 450.842 -2.81636 1.01594 0
M  V30 4822 H 448.388 -1.35407 0.489981 0
M  V30 4823 H 450.341 -4.07581 -1.07031 0
M  V30 4824 H 449.065 -2.90622 -1.49019 0
M  V30 4825 H 447.724 -3.62952 0.515915 0
M  V30 4826 H 447.372 -4.73395 -1.70019 0
M  V30 4827 H 447.072 -5.86514 -0.35705 0
M  V30 4828 H 448.596 -5.96955 -1.28361 0
M  V30 4829 H 450.01 -5.65113 0.965393 0
M  V30 4830 H 448.407 -5.73967 1.75161 0
M  V30 4831 H 449.477 -4.37006 2.10128 0
M  V30 4832 N 450.82 -0.546701 -1.47814 0
M  V30 4833 C 451.73 0.21026 -2.33656 0
M  V30 4834 C 452.746 0.922413 -1.47538 0
M  V30 4835 O 453.922 0.893652 -1.80488 0
M  V30 4836 C 450.987 1.23348 -3.24016 0
M  V30 4837 C 450.048 0.529883 -4.26017 0
M  V30 4838 C 449.281 1.50435 -5.12059 0
M  V30 4839 O 449.504 2.73837 -5.00369 0
M  V30 4840 O 448.438 1.03459 -5.92942 0
M  V30 4841 H 452.264 -0.493605 -2.99662 0
M  V30 4842 H 449.849 -0.307427 -1.46203 0
M  V30 4843 H 451.731 1.82438 -3.79861 0
M  V30 4844 H 450.406 1.91945 -2.60651 0
M  V30 4845 H 449.313 -0.101948 -3.73961 0
M  V30 4846 H 450.646 -0.11445 -4.92067 0
M  V30 4847 N 452.299 1.55045 -0.282633 0
M  V30 4848 C 453.548 1.98938 0.332667 0
M  V30 4849 C 453.861 1.17455 1.56409 0
M  V30 4850 O 455.067 1.51527 2.25282 0
M  V30 4851 C 453.523 3.54105 0.643226 0
M  V30 4852 C 453.131 4.44374 -0.568814 0
M  V30 4853 C 454.875 4.06569 1.22074 0
M  V30 4854 C 452.782 5.90943 -0.232426 0
M  V30 4855 H 451.712 0.743043 0.128075 0
M  V30 4856 H 454.363 1.79341 -0.388464 0
M  V30 4857 H 452.745 3.69532 1.42346 0
M  V30 4858 H 453.919 4.40718 -1.34551 0
M  V30 4859 H 452.234 4.02585 -1.06369 0
M  V30 4860 H 454.831 5.13626 1.48635 0
M  V30 4861 H 455.174 3.56057 2.15707 0
M  V30 4862 H 455.707 3.94612 0.502621 0
M  V30 4863 H 452.446 6.45567 -1.13683 0
M  V30 4864 H 451.966 5.9765 0.507357 0
M  V30 4865 H 453.645 6.4677 0.172657 0
M  V30 4866 N 453.777 0.010035 1.57597 0
M  V30 4867 C 454.727 -0.986858 2.05536 0
M  V30 4868 C 455.711 -1.29711 0.952042 0
M  V30 4869 O 456.903 -1.28641 1.21575 0
M  V30 4870 C 454.032 -2.2756 2.57043 0
M  V30 4871 C 453.118 -1.99455 3.74271 0
M  V30 4872 N 453.509 -1.41546 4.85591 0
M  V30 4873 C 451.807 -2.29547 3.82393 0
M  V30 4874 C 452.508 -1.3014 5.66956 0
M  V30 4875 N 451.484 -1.79044 5.13268 0
M  V30 4876 H 455.286 -0.533778 2.89012 0
M  V30 4877 H 452.8 -0.195432 1.6122 0
M  V30 4878 H 454.797 -2.99829 2.89669 0
M  V30 4879 H 453.457 -2.73512 1.7499 0
M  V30 4880 H 454.468 -1.09294 5.06236 0
M  V30 4881 H 451.145 -2.78304 3.11213 0
M  V30 4882 H 452.535 -0.855237 6.66435 0
M  V30 4883 N 455.255 -1.55392 -0.262866 0
M  V30 4884 C 456.532 -1.67204 -1.01499 0
M  V30 4885 C 456.912 -0.545186 -2.03939 0
M  V30 4886 O 456.26 0.453467 -2.23955 0
M  V30 4887 C 456.47 -3.06847 -1.6627 0
M  V30 4888 C 457.818 -3.64928 -2.17054 0
M  V30 4889 O 458.842 -3.09545 -1.76239 0
M  V30 4890 O 457.701 -4.61984 -2.91947 0
M  V30 4891 H 454.795 -0.679467 -0.471438 0
M  V30 4892 H 457.341 -1.67729 -0.257918 0
M  V30 4893 H 456.113 -3.80309 -0.920915 0
M  V30 4894 H 455.736 -3.10266 -2.48638 0
M  V30 4895 N 456.733 0.527833 -1.48498 0
M  V30 4896 C 458.01 1.28905 -1.47115 0
M  V30 4897 C 458.39 2.10297 -0.184007 0
M  V30 4898 O 457.738 2.12728 0.834218 0
M  V30 4899 C 457.948 2.16866 -2.73441 0
M  V30 4900 C 459.296 2.76936 -3.21857 0
M  V30 4901 O 460.32 2.27152 -2.74373 0
M  V30 4902 O 459.179 3.67496 -4.04486 0
M  V30 4903 H 456.273 0.581918 -0.587623 0
M  V30 4904 H 458.819 0.544311 -1.60734 0
M  V30 4905 H 457.591 1.56521 -3.58632 0
M  V30 4906 H 457.214 2.98583 -2.62553 0
M  V30 4907 N 458.211 1.37122 0.776871 0
M  V30 4908 C 459.451 1.33441 1.54831 0
M  V30 4909 C 459.815 -0.0818963 1.91825 0
M  V30 4910 O 461.016 -0.24338 2.67696 0
M  V30 4911 C 459.287 2.24267 2.78279 0
M  V30 4912 S 460.846 2.38389 3.68397 0
M  V30 4913 H 457.664 0.473791 0.530135 0
M  V30 4914 H 460.266 1.7282 0.913968 0
M  V30 4915 H 458.97 3.261 2.49173 0
M  V30 4916 H 458.501 1.85953 3.46677 0
M  V30 4917 H 460.516 1.59068 4.70013 0
M  V30 4918 N 459.689 -1.00246 1.21608 0
M  V30 4919 C 460.619 -2.10921 1.00172 0
M  V30 4920 C 461.6 -1.69938 -0.0741587 0
M  V30 4921 O 462.785 -1.94009 0.0861753 0
M  V30 4922 C 459.915 -3.42618 0.568355 0
M  V30 4923 C 458.869 -3.97407 1.58909 0
M  V30 4924 C 458.195 -5.25038 1.01187 0
M  V30 4925 C 459.495 -4.2918 2.97661 0
M  V30 4926 H 461.189 -2.29112 1.92739 0
M  V30 4927 H 458.735 -1.10101 0.928102 0
M  V30 4928 H 460.688 -4.19444 0.405555 0
M  V30 4929 H 459.412 -3.24227 -0.392961 0
M  V30 4930 H 458.071 -3.22703 1.73949 0
M  V30 4931 H 457.719 -5.02982 0.0421965 0
M  V30 4932 H 457.419 -5.62661 1.6937 0
M  V30 4933 H 458.943 -6.04507 0.860448 0
M  V30 4934 H 460.357 -4.96839 2.86049 0
M  V30 4935 H 458.754 -4.77952 3.6288 0
M  V30 4936 H 459.824 -3.3735 3.48315 0
M  V30 4937 N 461.167 -1.02423 -1.1978 0
M  V30 4938 C 462.099 -0.559152 -2.22275 0
M  V30 4939 C 463.112 0.36251 -1.58713 0
M  V30 4940 O 464.301 0.159641 -1.77785 0
M  V30 4941 C 461.401 0.205094 -3.38279 0
M  V30 4942 C 460.574 -0.720361 -4.31427 0
M  V30 4943 C 459.633 -0.00234368 -5.262 0
M  V30 4944 O 458.659 -0.627378 -5.65732 0
M  V30 4945 N 459.861 1.26996 -5.66438 0
M  V30 4946 H 462.626 -1.44064 -2.62804 0
M  V30 4947 H 460.187 -0.902692 -1.34399 0
M  V30 4948 H 462.179 0.694868 -3.9869 0
M  V30 4949 H 460.749 0.987947 -2.96578 0
M  V30 4950 H 459.969 -1.39031 -3.68869 0
M  V30 4951 H 461.257 -1.3495 -4.90577 0
M  V30 4952 H 460.655 1.79858 -5.36347 0
M  V30 4953 H 459.212 1.70432 -6.29123 0
M  V30 4954 N 462.645 1.35699 -0.801477 0
M  V30 4955 C 463.608 2.28199 -0.213994 0
M  V30 4956 C 464.608 1.49359 0.595691 0
M  V30 4957 O 465.798 1.69186 0.414921 0
M  V30 4958 C 462.93 3.33587 0.702297 0
M  V30 4959 H 464.123 2.81666 -1.02976 0
M  V30 4960 H 461.676 1.45467 -0.571759 0
M  V30 4961 H 462.411 2.85297 1.54195 0
M  V30 4962 H 462.196 3.91906 0.123484 0
M  V30 4963 H 463.686 4.02638 1.10783 0
M  V30 4964 N 464.123 0.554532 1.47522 0
M  V30 4965 C 465.369 0.0295227 2.02779 0
M  V30 4966 C 465.702 -1.31582 1.42828 0
M  V30 4967 O 464.977 -1.85561 0.582872 0
M  V30 4968 C 465.26 -0.0664057 3.60039 0
M  V30 4969 C 465.113 1.30585 4.30427 0
M  V30 4970 C 466.432 -0.781162 4.33112 0
M  V30 4971 H 463.551 0.0122027 0.736899 0
M  V30 4972 H 466.193 0.716305 1.7598 0
M  V30 4973 H 464.343 -0.651307 3.83002 0
M  V30 4974 H 466.015 1.93374 4.18813 0
M  V30 4975 H 464.258 1.88125 3.90886 0
M  V30 4976 H 464.929 1.19147 5.38988 0
M  V30 4977 H 467.405 -0.284565 4.15126 0
M  V30 4978 H 466.281 -0.817237 5.42782 0
M  V30 4979 H 466.542 -1.83672 4.0214 0
M  V30 4980 N 465.601 -1.54893 0.290851 0
M  V30 4981 C 466.849 -1.99538 -0.320756 0
M  V30 4982 C 467.17 -1.18075 -1.55188 0
M  V30 4983 O 466.44 -0.274162 -1.93972 0
M  V30 4984 H 465.02 -0.737052 -0.121507 0
M  V30 4985 H 467.682 -1.90755 0.399832 0
M  V30 4986 H 466.778 -3.06282 -0.599802 0
M  V30 4987 N 467.08 -0.0183926 -1.57589 0
M  V30 4988 C 468.03 0.975944 -2.06057 0
M  V30 4989 C 469.014 1.29204 -0.958908 0
M  V30 4990 O 470.206 1.27995 -1.22255 0
M  V30 4991 C 467.335 2.26194 -2.58247 0
M  V30 4992 C 466.421 1.97467 -3.75323 0
M  V30 4993 N 466.812 1.38968 -4.86335 0
M  V30 4994 C 465.11 2.27515 -3.83605 0
M  V30 4995 C 465.811 1.27131 -5.67638 0
M  V30 4996 N 464.787 1.76319 -5.14211 0
M  V30 4997 H 468.589 0.518444 -2.89291 0
M  V30 4998 H 466.103 0.18688 -1.61321 0
M  V30 4999 H 468.1 2.98289 -2.91255 0
M  V30 5000 H 466.76 2.7258 -1.76438 0
M  V30 5001 H 467.771 1.06608 -5.06809 0
M  V30 5002 H 464.448 2.76649 -3.12684 0
M  V30 5003 H 465.838 0.819882 -6.66879 0
M  V30 5004 N 468.558 1.5553 0.254621 0
M  V30 5005 C 469.468 1.92789 1.33677 0
M  V30 5006 C 470.484 0.827356 1.53071 0
M  V30 5007 O 471.66 1.12807 1.66843 0
M  V30 5008 C 468.725 2.20827 2.67275 0
M  V30 5009 C 467.786 3.4427 2.5647 0
M  V30 5010 C 467.019 3.70961 3.83697 0
M  V30 5011 O 467.242 2.99852 4.85227 0
M  V30 5012 O 466.176 4.64491 3.82794 0
M  V30 5013 H 470.002 2.84945 1.05071 0
M  V30 5014 H 467.587 1.42312 0.454723 0
M  V30 5015 H 469.469 2.40204 3.46237 0
M  V30 5016 H 468.144 1.31851 2.9563 0
M  V30 5017 H 467.051 3.30209 1.75821 0
M  V30 5018 H 468.384 4.33524 2.33062 0
M  V30 5019 N 470.036 -0.519951 1.48776 0
M  V30 5020 C 471.276 -1.2856 1.58908 0
M  V30 5021 C 471.64 -1.90212 0.261418 0
M  V30 5022 O 472.841 -2.67746 0.237791 0
M  V30 5023 C 471.112 -2.33836 2.70288 0
M  V30 5024 S 472.671 -3.19992 3.0025 0
M  V30 5025 H 469.489 -0.43717 0.560717 0
M  V30 5026 H 472.091 -0.591205 1.86346 0
M  V30 5027 H 470.795 -1.87041 3.653 0
M  V30 5028 H 470.326 -3.07969 2.44783 0
M  V30 5029 H 472.341 -4.34122 2.40317 0
M  V30 5030 N 471.514 -1.37532 -0.769588 0
M  V30 5031 C 472.791 -1.23392 -1.51768 0
M  V30 5032 C 473.171 0.17157 -2.10402 0
M  V30 5033 O 472.519 1.17943 -1.95708 0
M  V30 5034 C 472.729 -2.33163 -2.59685 0
M  V30 5035 C 474.077 -2.70809 -3.27028 0
M  V30 5036 O 475.101 -2.32355 -2.69981 0
M  V30 5037 O 473.96 -3.37066 -4.30173 0
M  V30 5038 H 471.054 -0.481617 -0.67229 0
M  V30 5039 H 473.6 -1.49318 -0.806368 0
M  V30 5040 H 472.372 -3.27273 -2.14494 0
M  V30 5041 H 471.995 -2.08713 -3.38415 0
M  V30 5042 N 472.992 0.995999 -1.22138 0
M  V30 5043 C 474.232 1.75032 -1.05561 0
M  V30 5044 C 474.596 1.87729 0.402698 0
M  V30 5045 O 475.797 2.59813 0.689234 0
M  V30 5046 C 474.068 3.11973 -1.74379 0
M  V30 5047 S 475.627 4.03182 -1.73175 0
M  V30 5048 H 472.445 0.602137 -0.37809 0
M  V30 5049 H 475.047 1.19107 -1.55028 0
M  V30 5050 H 473.751 3.00371 -2.79652 0
M  V30 5051 H 473.282 3.7297 -1.25128 0
M  V30 5052 H 475.297 4.90043 -0.77923 0
M  V30 5053 N 474.47 1.03057 1.19235 0
M  V30 5054 C 475.718 0.726581 1.88587 0
M  V30 5055 C 476.039 -0.747227 1.80115 0
M  V30 5056 O 475.309 -1.53849 1.21274 0
M  V30 5057 H 473.889 0.265768 0.698124 0
M  V30 5058 H 476.551 1.30516 1.44746 0
M  V30 5059 H 475.647 1.0224 2.94879 0
M  V30 5060 N 475.948 -1.35272 0.808662 0
M  V30 5061 C 476.878 -2.32315 0.234981 0
M  V30 5062 C 477.859 -1.57572 -0.64071 0
M  V30 5063 O 479.044 -1.8563 -0.570551 0
M  V30 5064 C 476.174 -3.41801 -0.615601 0
M  V30 5065 C 475.128 -4.27694 0.161767 0
M  V30 5066 C 474.454 -5.28519 -0.810649 0
M  V30 5067 C 475.754 -5.04231 1.36193 0
M  V30 5068 H 477.448 -2.80543 1.04575 0
M  V30 5069 H 474.994 -1.3488 0.504315 0
M  V30 5070 H 476.947 -4.08693 -1.02702 0
M  V30 5071 H 475.671 -2.92186 -1.45928 0
M  V30 5072 H 474.33 -3.62384 0.554382 0
M  V30 5073 H 473.978 -4.75171 -1.64988 0
M  V30 5074 H 473.678 -5.8686 -0.294822 0
M  V30 5075 H 475.202 -5.98283 -1.22023 0
M  V30 5076 H 476.616 -5.64058 1.02528 0
M  V30 5077 H 475.013 -5.72077 1.81239 0
M  V30 5078 H 476.083 -4.34753 2.14751 0
M  V30 5079 N 477.426 -0.562348 -1.47226 0
M  V30 5080 C 478.356 0.170627 -2.32876 0
M  V30 5081 C 479.337 0.903748 -1.44106 0
M  V30 5082 O 480.522 0.883206 -1.72954 0
M  V30 5083 C 477.652 1.19786 -3.25989 0
M  V30 5084 C 476.606 0.580875 -4.2404 0
M  V30 5085 C 475.932 1.71311 -5.06514 0
M  V30 5086 C 477.232 -0.468714 -5.20193 0
M  V30 5087 H 478.926 -0.544441 -2.94408 0
M  V30 5088 H 476.472 -0.263271 -1.41573 0
M  V30 5089 H 478.425 1.71884 -3.84752 0
M  V30 5090 H 477.149 1.94294 -2.62521 0
M  V30 5091 H 475.808 0.0811538 -3.6651 0
M  V30 5092 H 475.456 2.44736 -4.39447 0
M  V30 5093 H 475.156 1.30604 -5.72902 0
M  V30 5094 H 476.68 2.23725 -5.68137 0
M  V30 5095 H 478.094 -0.0336028 -5.7329 0
M  V30 5096 H 476.491 -0.794957 -5.94811 0
M  V30 5097 H 477.561 -1.36269 -4.65359 0
M  V30 5098 N 478.904 1.54736 -0.299062 0
M  V30 5099 C 480.32 1.59507 0.0543849 0
M  V30 5100 C 480.52 1.31606 1.52585 0
M  V30 5101 O 479.576 1.08853 2.27832 0
M  V30 5102 C 480.889 2.98751 -0.34181 0
M  V30 5103 C 482.437 3.1165 -0.290414 0
M  V30 5104 C 482.912 4.53199 -0.661402 0
M  V30 5105 N 484.403 4.59114 -0.613863 0
M  V30 5106 C 485.138 5.66709 -0.873417 0
M  V30 5107 N 484.634 6.82349 -1.19884 0
M  V30 5108 N 486.427 5.56369 -0.800608 0
M  V30 5109 H 478.578 1.71133 -1.25806 0
M  V30 5110 H 480.841 0.799186 -0.509908 0
M  V30 5111 H 480.547 3.24085 -1.36608 0
M  V30 5112 H 480.421 3.75961 0.305508 0
M  V30 5113 H 482.808 2.86066 0.724605 0
M  V30 5114 H 482.889 2.366 -0.972327 0
M  V30 5115 H 482.533 4.79513 -1.67422 0
M  V30 5116 H 482.463 5.26583 0.0425612 0
M  V30 5117 H 484.954 3.76053 -0.3732 0
M  V30 5118 H 485.267 7.60326 -1.38291 0
M  V30 5119 H 483.612 6.83906 -1.23685 0
M  V30 5120 H 486.803 4.64904 -0.546045 0
M  V30 5121 H 486.976 6.40139 -1.00626 0
M  V30 5122 N 480.382 0.0267497 1.57577 0
M  V30 5123 C 481.659 -0.690926 1.82991 0
M  V30 5124 C 482.039 -1.90471 0.910164 0
M  V30 5125 O 481.387 -2.28474 -0.0347985 0
M  V30 5126 C 481.597 -1.07139 3.32148 0
M  V30 5127 C 482.945 -1.46402 3.98562 0
M  V30 5128 O 483.969 -1.16443 3.36629 0
M  V30 5129 O 482.828 -2.02214 5.07712 0
M  V30 5130 H 479.922 -0.338747 0.75444 0
M  V30 5131 H 482.468 0.0542506 1.69613 0
M  V30 5132 H 481.24 -0.207394 3.9075 0
M  V30 5133 H 480.863 -1.87481 3.50623 0
M  V30 5134 N 481.861 -1.55662 -0.24637 0
M  V30 5135 C 482.811 -1.86753 -1.30795 0
M  V30 5136 C 483.795 -0.728445 -1.43466 0
M  V30 5137 O 484.987 -0.99038 -1.46699 0
M  V30 5138 C 482.116 -2.16618 -2.66329 0
M  V30 5139 C 481.202 -3.36855 -2.57661 0
M  V30 5140 N 481.593 -4.56111 -2.18624 0
M  V30 5141 C 479.891 -3.39976 -2.88673 0
M  V30 5142 C 480.592 -5.38247 -2.20601 0
M  V30 5143 N 479.568 -4.77322 -2.60124 0
M  V30 5144 H 483.37 -2.76486 -0.996642 0
M  V30 5145 H 480.884 -1.55896 -0.454994 0
M  V30 5146 H 482.881 -2.37057 -3.42942 0
M  V30 5147 H 481.541 -1.28185 -2.98327 0
M  V30 5148 H 482.552 -4.81726 -1.9016 0
M  V30 5149 H 479.229 -2.61815 -3.25206 0
M  V30 5150 H 480.619 -6.43657 -1.92756 0
M  V30 5151 N 483.339 0.512053 -1.4905 0
M  V30 5152 C 484.588 1.26343 -1.57227 0
M  V30 5153 C 484.901 1.93876 -0.259155 0
M  V30 5154 O 486.107 2.70612 -0.219358 0
M  V30 5155 C 484.563 2.29343 -2.77362 0
M  V30 5156 C 484.171 1.67799 -4.15388 0
M  V30 5157 C 485.915 3.05378 -2.94864 0
M  V30 5158 C 483.822 2.68845 -5.2676 0
M  V30 5159 H 482.752 0.475231 -0.585382 0
M  V30 5160 H 485.403 0.53862 -1.75417 0
M  V30 5161 H 483.785 3.04938 -2.52643 0
M  V30 5162 H 484.959 0.982715 -4.50199 0
M  V30 5163 H 483.274 1.04194 -4.03153 0
M  V30 5164 H 485.871 3.80921 -3.75238 0
M  V30 5165 H 486.214 3.62327 -2.05 0
M  V30 5166 H 486.747 2.36898 -3.19569 0
M  V30 5167 H 483.486 2.16692 -6.18647 0
M  V30 5168 H 483.006 3.36647 -4.96416 0
M  V30 5169 H 484.685 3.31487 -5.5563 0
M  V30 5170 N 484.817 1.37938 0.762283 0
M  V30 5171 C 485.747 1.37176 1.88958 0
M  V30 5172 C 486.728 0.238945 1.68413 0
M  V30 5173 O 487.913 0.440726 1.89133 0
M  V30 5174 C 485.043 1.18742 3.2637 0
M  V30 5175 C 483.997 2.29136 3.61498 0
M  V30 5176 C 483.323 1.95816 4.97554 0
M  V30 5177 C 484.623 3.71363 3.6727 0
M  V30 5178 H 486.317 2.31509 1.89853 0
M  V30 5179 H 483.863 1.11438 0.912005 0
M  V30 5180 H 485.816 1.16837 4.04879 0
M  V30 5181 H 484.54 0.208683 3.25933 0
M  V30 5182 H 483.199 2.30213 2.85303 0
M  V30 5183 H 482.847 0.964475 4.93667 0
M  V30 5184 H 482.547 2.69745 5.22026 0
M  V30 5185 H 484.071 1.95513 5.78452 0
M  V30 5186 H 485.485 3.72364 4.35911 0
M  V30 5187 H 483.882 4.44425 4.03245 0
M  V30 5188 H 484.952 4.04305 2.67704 0
M  V30 5189 N 486.295 -0.989507 1.22664 0
M  V30 5190 C 487.706 -1.54406 1.04955 0
M  V30 5191 C 488.057 -1.92366 -0.385951 0
M  V30 5192 O 487.182 -1.75111 -1.27142 0
M  V30 5193 C 487.777 -2.80578 1.89899 0
M  V30 5194 C 486.336 -3.32464 1.76478 0
M  V30 5195 C 485.483 -2.05524 1.86159 0
M  V30 5196 H 488.434 -0.810211 1.3646 0
M  V30 5197 H 488.455 -3.53075 1.4184 0
M  V30 5198 H 487.967 -2.52918 2.94371 0
M  V30 5199 H 486.068 -3.65024 0.747528 0
M  V30 5200 H 486.181 -4.02838 2.59342 0
M  V30 5201 H 484.545 -2.19241 1.29636 0
M  V30 5202 H 485.328 -1.80258 2.92168 0
M  V30 5203 N 487.773 -1.03688 -1.18687 0
M  V30 5204 C 489.184 -0.766488 -1.70241 0
M  V30 5205 C 489.535 0.713052 -1.82784 0
M  V30 5206 O 488.66 1.55529 -1.50465 0
M  V30 5207 C 489.255 -1.38475 -3.09209 0
M  V30 5208 C 487.814 -1.16276 -3.5799 0
M  V30 5209 C 486.961 -1.4778 -2.34641 0
M  V30 5210 H 489.912 -1.20378 -1.03415 0
M  V30 5211 H 489.933 -0.785939 -3.72295 0
M  V30 5212 H 489.445 -2.46157 -3.00048 0
M  V30 5213 H 487.546 -0.104508 -3.72453 0
M  V30 5214 H 487.659 -1.8571 -4.41643 0
M  V30 5215 H 486.023 -0.897366 -2.38368 0
M  V30 5216 H 486.806 -2.56562 -2.28102 0
M  V30 5217 N 489.251 1.34841 -0.815825 0
M  V30 5218 C 490.476 2.03261 -0.41226 0
M  V30 5219 C 490.901 1.61055 0.971751 0
M  V30 5220 O 490.259 0.7917 1.63101 0
M  V30 5221 C 490.307 3.56914 -0.514289 0
M  V30 5222 O 489.411 4.09728 0.468675 0
M  V30 5223 H 488.752 0.641664 -0.170771 0
M  V30 5224 H 491.282 1.72241 -1.10427 0
M  V30 5225 H 491.292 4.06156 -0.387457 0
M  V30 5226 H 489.967 3.86982 -1.52375 0
M  V30 5227 H 488.544 3.71681 0.301316 0
M  V30 5228 N 490.729 0.570148 1.46925 0
M  V30 5229 C 491.954 0.0542592 2.07329 0
M  V30 5230 C 492.379 -1.23582 1.41806 0
M  V30 5231 O 491.737 -1.74341 0.497479 0
M  V30 5232 C 491.785 -0.111175 3.60429 0
M  V30 5233 O 490.889 -1.17071 3.95434 0
M  V30 5234 H 490.23 0.0571425 0.661537 0
M  V30 5235 H 492.76 0.789516 1.88753 0
M  V30 5236 H 492.77 -0.321315 4.06733 0
M  V30 5237 H 491.445 0.831012 4.07513 0
M  V30 5238 H 490.022 -0.940029 3.60857 0
M  V30 5239 N 492.207 -1.54576 0.307264 0
M  V30 5240 C 493.456 -1.99442 -0.300976 0
M  V30 5241 C 493.769 -1.19928 -1.5452 0
M  V30 5242 O 494.975 -1.55092 -2.22842 0
M  V30 5243 C 493.431 -3.55084 -0.586809 0
M  V30 5244 C 493.039 -4.43413 0.639438 0
M  V30 5245 C 494.783 -4.0846 -1.1559 0
M  V30 5246 C 492.69 -5.90499 0.326411 0
M  V30 5247 H 491.62 -0.744986 -0.116238 0
M  V30 5248 H 494.271 -1.787 0.416947 0
M  V30 5249 H 492.653 -3.71749 -1.36449 0
M  V30 5250 H 493.827 -4.38522 1.41545 0
M  V30 5251 H 492.142 -4.00842 1.1276 0
M  V30 5252 H 494.739 -5.15926 -1.40445 0
M  V30 5253 H 495.082 -3.59443 -2.10015 0
M  V30 5254 H 495.615 -3.95362 -0.439778 0
M  V30 5255 H 492.354 -6.43676 1.23939 0
M  V30 5256 H 491.874 -5.98382 -0.412212 0
M  V30 5257 H 493.553 -6.46962 -0.0697393 0
M  V30 5258 N 493.685 -0.035106 -1.57561 0
M  V30 5259 C 494.915 0.651312 -1.96065 0
M  V30 5260 C 495.323 1.6585 -0.910514 0
M  V30 5261 O 494.666 1.83336 0.11552 0
M  V30 5262 C 494.728 1.40897 -3.30739 0
M  V30 5263 C 494.392 0.559436 -4.53563 0
M  V30 5264 C 495.389 -0.16778 -5.19629 0
M  V30 5265 C 493.074 0.495079 -4.99854 0
M  V30 5266 C 495.068 -0.947963 -6.30311 0
M  V30 5267 C 492.755 -0.288804 -6.10417 0
M  V30 5268 C 493.753 -1.00903 -6.75505 0
M  V30 5269 O 493.441 -1.78005 -7.83945 0
M  V30 5270 H 493.173 0.184036 -0.650467 0
M  V30 5271 H 495.727 -0.0929677 -2.05189 0
M  V30 5272 H 493.957 2.19852 -3.18123 0
M  V30 5273 H 495.646 1.98407 -3.54104 0
M  V30 5274 H 496.412 -0.12743 -4.84833 0
M  V30 5275 H 492.291 1.04524 -4.48994 0
M  V30 5276 H 495.835 -1.51064 -6.81047 0
M  V30 5277 H 491.732 -0.33085 -6.44652 0
M  V30 5278 H 492.5 -1.70046 -8.00641 0
M  V30 5279 N 495.163 1.55791 0.238111 0
M  V30 5280 C 496.574 1.68383 0.806472 0
M  V30 5281 C 496.925 0.634157 1.85669 0
M  V30 5282 O 496.05 -0.217913 2.153 0
M  V30 5283 C 496.645 3.05268 1.46959 0
M  V30 5284 C 495.204 3.1977 1.98555 0
M  V30 5285 C 494.351 2.64279 0.839763 0
M  V30 5286 H 497.302 1.58694 0.0137535 0
M  V30 5287 H 497.323 3.00203 2.33792 0
M  V30 5288 H 496.835 3.81643 0.704993 0
M  V30 5289 H 494.936 2.48234 2.77868 0
M  V30 5290 H 495.049 4.26788 2.17689 0
M  V30 5291 H 493.413 2.22329 1.24265 0
M  V30 5292 H 494.196 3.43187 0.0881032 0
M  V30 5293 N 496.642 -0.504142 1.49319 0
M  V30 5294 C 497.867 -1.28729 1.62615 0
M  V30 5295 C 498.292 -1.85752 0.296309 0
M  V30 5296 O 497.65 -1.65704 -0.735649 0
M  V30 5297 C 497.698 -2.39561 2.69524 0
M  V30 5298 O 496.802 -3.43324 2.28478 0
M  V30 5299 H 496.143 -0.380172 0.544395 0
M  V30 5300 H 498.673 -0.603872 1.95485 0
M  V30 5301 H 498.683 -2.8537 2.91595 0
M  V30 5302 H 497.358 -1.97423 3.66056 0
M  V30 5303 H 495.935 -3.03455 2.16725 0
M  V30 5304 N 498.12 -1.38341 -0.754957 0
M  V30 5305 C 499.366 -1.34672 -1.51628 0
M  V30 5306 C 499.699 0.0636036 -1.94096 0
M  V30 5307 O 498.974 1.0245 -1.6533 0
M  V30 5308 C 499.257 -2.30116 -2.76981 0
M  V30 5309 C 499.11 -3.80003 -2.4066 0
M  V30 5310 C 500.429 -2.23715 -3.78998 0
M  V30 5311 H 497.548 -0.490517 -0.550056 0
M  V30 5312 H 500.19 -1.69178 -0.864807 0
M  V30 5313 H 498.34 -2.00821 -3.3257 0
M  V30 5314 H 500.012 -4.19966 -1.90856 0
M  V30 5315 H 498.255 -3.97751 -1.73137 0
M  V30 5316 H 498.926 -4.42244 -3.30339 0
M  V30 5317 H 501.402 -2.49574 -3.32945 0
M  V30 5318 H 500.278 -2.9261 -4.64403 0
M  V30 5319 H 500.539 -1.23554 -4.24484 0
M  V30 5320 N 499.598 0.982988 -1.23187 0
M  V30 5321 C 500.528 2.09301 -1.03515 0
M  V30 5322 C 501.509 1.70035 0.0471136 0
M  V30 5323 O 502.694 1.93847 -0.117029 0
M  V30 5324 C 499.824 3.4167 -0.622791 0
M  V30 5325 C 498.778 3.94828 -1.65211 0
M  V30 5326 C 498.104 5.23362 -1.09527 0
M  V30 5327 C 499.404 4.2439 -3.04451 0
M  V30 5328 H 501.098 2.26016 -1.96359 0
M  V30 5329 H 498.644 1.08611 -0.945501 0
M  V30 5330 H 500.597 4.18746 -0.472233 0
M  V30 5331 H 499.321 3.24811 0.341329 0
M  V30 5332 H 497.98 3.19895 -1.79061 0
M  V30 5333 H 497.628 5.02852 -0.122211 0
M  V30 5334 H 497.328 5.59895 -1.783 0
M  V30 5335 H 498.852 6.03062 -0.956511 0
M  V30 5336 H 500.266 4.92225 -2.93917 0
M  V30 5337 H 498.663 4.72118 -3.70438 0
M  V30 5338 H 499.733 3.31765 -3.53638 0
M  V30 5339 N 501.076 1.04316 1.18135 0
M  V30 5340 C 502.039 0.640794 2.2006 0
M  V30 5341 C 503.039 -0.303124 1.57917 0
M  V30 5342 O 504.229 -0.0881855 1.73977 0
M  V30 5343 C 501.361 -0.060148 3.40847 0
M  V30 5344 H 502.554 1.54281 2.57172 0
M  V30 5345 H 500.107 0.836004 1.32063 0
M  V30 5346 H 500.842 -0.975845 3.0927 0
M  V30 5347 H 500.627 0.618319 3.87194 0
M  V30 5348 H 502.117 -0.328082 4.16309 0
M  V30 5349 N 502.554 -1.34406 0.822964 0
M  V30 5350 C 503.779 -2.0304 0.423034 0
M  V30 5351 C 504.204 -1.61568 -0.963196 0
M  V30 5352 O 503.562 -0.800339 -1.62678 0
M  V30 5353 C 503.61 -3.56636 0.53321 0
M  V30 5354 O 502.714 -4.09971 -0.446939 0
M  V30 5355 H 502.055 -0.64075 0.174171 0
M  V30 5356 H 504.585 -1.71653 1.11339 0
M  V30 5357 H 504.595 -4.05945 0.408991 0
M  V30 5358 H 503.27 -3.86168 1.54425 0
M  V30 5359 H 501.847 -3.71835 -0.281601 0
M  V30 5360 N 504.032 -0.577932 -1.46621 0
M  V30 5361 C 505.28 -0.061566 -2.02006 0
M  V30 5362 C 505.601 1.30117 -1.4524 0
M  V30 5363 O 504.871 1.85313 -0.63529 0
M  V30 5364 H 503.451 -0.0197692 -0.746738 0
M  V30 5365 H 506.113 -0.752631 -1.79782 0
M  V30 5366 H 505.209 0.0110238 -3.12098 0
M  V30 5367 N 505.51 1.54411 -0.315457 0
M  V30 5368 C 506.921 1.85885 0.174265 0
M  V30 5369 C 507.272 1.23723 1.52273 0
M  V30 5370 O 506.397 0.540246 2.09548 0
M  V30 5371 C 506.992 3.37257 0.322981 0
M  V30 5372 C 505.551 3.68711 0.756922 0
M  V30 5373 C 504.698 2.77013 -0.126195 0
M  V30 5374 H 507.649 1.49374 -0.536007 0
M  V30 5375 H 507.67 3.62539 1.15522 0
M  V30 5376 H 507.182 3.82471 -0.658602 0
M  V30 5377 H 505.283 3.29024 1.74854 0
M  V30 5378 H 505.396 4.75741 0.566291 0
M  V30 5379 H 503.76 2.51588 0.39692 0
M  V30 5380 H 504.543 3.25051 -1.1044 0
M  V30 5381 N 506.988 0.0434614 1.5754 0
M  V30 5382 C 508.265 -0.671479 1.83713 0
M  V30 5383 C 508.645 -1.89495 0.930315 0
M  V30 5384 O 507.993 -2.28498 -0.0105639 0
M  V30 5385 C 508.203 -1.0361 3.33266 0
M  V30 5386 C 509.551 -1.42167 4.00092 0
M  V30 5387 O 510.575 -1.12866 3.37846 0
M  V30 5388 O 509.434 -1.96817 5.09829 0
M  V30 5389 H 506.528 -0.330726 0.75799 0
M  V30 5390 H 509.074 0.0722373 1.69546 0
M  V30 5391 H 507.846 -0.165938 3.90948 0
M  V30 5392 H 507.469 -1.83751 3.52592 0
M  V30 5393 N 508.466 -1.55915 -0.229846 0
M  V30 5394 C 509.882 -1.48721 -0.579166 0
M  V30 5395 C 510.082 -0.736976 -1.87539 0
M  V30 5396 O 509.138 -0.273258 -2.51017 0
M  V30 5397 C 510.451 -2.9323 -0.666082 0
M  V30 5398 C 511.999 -3.03701 -0.757267 0
M  V30 5399 C 512.474 -4.49552 -0.8756 0
M  V30 5400 N 513.965 -4.53561 -0.940035 0
M  V30 5401 C 514.7 -5.63683 -1.05116 0
M  V30 5402 N 514.196 -6.83576 -1.12675 0
M  V30 5403 N 515.989 -5.51516 -1.08565 0
M  V30 5404 H 508.14 -2.03123 0.620857 0
M  V30 5405 H 510.403 -0.922898 0.21671 0
M  V30 5406 H 510.109 -3.51032 0.21664 0
M  V30 5407 H 509.983 -3.44668 -1.53243 0
M  V30 5408 H 512.37 -2.45969 -1.63043 0
M  V30 5409 H 512.451 -2.55446 0.134583 0
M  V30 5410 H 512.095 -5.079 -0.00692351 0
M  V30 5411 H 512.025 -4.95506 -1.78274 0
M  V30 5412 H 514.516 -3.67215 -0.892269 0
M  V30 5413 H 514.829 -7.63251 -1.21109 0
M  V30 5414 H 513.174 -6.86303 -1.09603 0
M  V30 5415 H 516.365 -4.5678 -1.02319 0
M  V30 5416 H 516.538 -6.37372 -1.1688 0
M  V30 5417 N 509.944 0.496216 -1.49584 0
M  V30 5418 C 510.891 1.59722 -1.66606 0
M  V30 5419 C 511.861 1.58158 -0.507477 0
M  V30 5420 O 513.046 1.76072 -0.735076 0
M  V30 5421 C 510.186 2.97844 -1.74308 0
M  V30 5422 C 509.299 3.09388 -3.01502 0
M  V30 5423 C 508.434 4.38271 -3.00153 0
M  V30 5424 C 507.473 4.43466 -4.21906 0
M  V30 5425 N 506.61 5.63784 -4.1844 0
M  V30 5426 H 511.45 1.44515 -2.60613 0
M  V30 5427 H 508.987 0.703048 -1.29212 0
M  V30 5428 H 510.945 3.77907 -1.76754 0
M  V30 5429 H 509.575 3.11743 -0.837619 0
M  V30 5430 H 508.627 2.22357 -3.08645 0
M  V30 5431 H 509.939 3.09085 -3.91494 0
M  V30 5432 H 509.093 5.2666 -3.01188 0
M  V30 5433 H 507.832 4.41146 -2.07947 0
M  V30 5434 H 506.837 3.53478 -4.21109 0
M  V30 5435 H 508.062 4.42303 -5.1531 0
M  V30 5436 H 506.008 5.67491 -3.29074 0
M  V30 5437 H 505.925 5.65118 -5.02173 0
M  V30 5438 H 507.193 6.54367 -4.23585 0
M  V30 5439 N 511.423 1.38739 0.74761 0
M  V30 5440 C 512.371 1.36573 1.88283 0
M  V30 5441 C 513.365 0.250712 1.67534 0
M  V30 5442 O 514.571 0.420073 1.7503 0
M  V30 5443 H 510.946 0.42619 0.619569 0
M  V30 5444 H 512.917 2.32356 1.87226 0
M  V30 5445 C 511.666 1.21361 3.25832 0
M  V30 5446 H 510.989 2.06424 3.42388 0
M  V30 5447 H 512.429 1.23901 4.05493 0
M  V30 5448 C 510.888 -0.0790099 3.36807 0
M  V30 5449 O 511.418 -1.05385 3.8763 0
M  V30 5450 N 509.624 -0.13785 2.90273 0
M  V30 5451 H 509.171 0.656128 2.49104 0
M  V30 5452 H 509.129 -1.00228 2.97996 0
M  V30 5453 N 512.901 -0.976442 1.23707 0
M  V30 5454 C 514.126 -1.75875 1.09922 0
M  V30 5455 C 514.551 -1.84911 -0.34489 0
M  V30 5456 O 513.909 -1.31363 -1.24954 0
M  V30 5457 C 513.957 -3.16179 1.73388 0
M  V30 5458 O 513.061 -4.00124 0.99871 0
M  V30 5459 H 512.402 -0.540954 0.385052 0
M  V30 5460 H 514.932 -1.22546 1.6384 0
M  V30 5461 H 514.942 -3.66741 1.78788 0
M  V30 5462 H 513.617 -3.08917 2.78466 0
M  V30 5463 H 512.194 -3.58624 1.02193 0
M  V30 5464 N 514.379 -1.04941 -1.1758 0
M  V30 5465 C 515.326 -0.648155 -2.21512 0
M  V30 5466 C 516.296 0.348431 -1.62404 0
M  V30 5467 O 517.481 0.240419 -1.89279 0
M  V30 5468 C 514.621 -0.0264291 -3.4509 0
M  V30 5469 C 513.734 -1.07154 -4.185 0
M  V30 5470 C 512.869 -0.417403 -5.29558 0
M  V30 5471 C 511.908 -1.447 -5.94751 0
M  V30 5472 N 511.045 -0.817203 -6.97328 0
M  V30 5473 H 515.885 -1.53891 -2.55189 0
M  V30 5474 H 513.422 -0.769699 -1.25356 0
M  V30 5475 H 515.38 0.351456 -4.15717 0
M  V30 5476 H 514.01 0.827802 -3.12005 0
M  V30 5477 H 513.062 -1.56728 -3.46613 0
M  V30 5478 H 514.374 -1.8532 -4.63096 0
M  V30 5479 H 513.528 0.0142061 -6.06698 0
M  V30 5480 H 512.267 0.396265 -4.86087 0
M  V30 5481 H 511.272 -1.88865 -5.16343 0
M  V30 5482 H 512.497 -2.26252 -6.40302 0
M  V30 5483 H 510.443 -0.0239995 -6.55996 0
M  V30 5484 H 510.36 -1.53644 -7.40223 0
M  V30 5485 H 511.628 -0.410283 -7.7842 0
M  V30 5486 N 515.857 1.33968 -0.830081 0
M  V30 5487 C 517.085 2.0228 -0.434773 0
M  V30 5488 C 517.5 1.62487 0.961419 0
M  V30 5489 O 516.857 0.833849 1.62337 0
M  V30 5490 C 516.908 3.5751 -0.535625 0
M  V30 5491 O 516.629 3.95864 -1.87679 0
M  V30 5492 C 518.13 4.43091 -0.136137 0
M  V30 5493 H 515.35 0.648151 -0.173613 0
M  V30 5494 H 517.894 1.71089 -1.12022 0
M  V30 5495 H 516.049 3.87266 0.101817 0
M  V30 5496 H 516.463 4.9056 -1.85609 0
M  V30 5497 H 517.937 5.51398 -0.257772 0
M  V30 5498 H 518.414 4.29433 0.921076 0
M  V30 5499 H 519.02 4.18677 -0.747662 0
M  V30 5500 N 517.335 0.585699 1.46312 0
M  V30 5501 C 518.56 0.0762461 2.0726 0
M  V30 5502 C 518.985 -1.22071 1.43109 0
M  V30 5503 O 518.343 -1.73804 0.515942 0
M  V30 5504 C 518.391 -0.0729404 3.60526 0
M  V30 5505 O 517.495 -1.1287 3.96654 0
M  V30 5506 H 516.836 0.0641558 0.660893 0
M  V30 5507 H 519.366 0.809492 1.87905 0
M  V30 5508 H 519.376 -0.278158 4.07051 0
M  V30 5509 H 518.051 0.874188 4.06609 0
M  V30 5510 H 516.628 -0.901703 3.61834 0
M  V30 5511 N 518.813 -1.54241 0.323641 0
M  V30 5512 C 519.745 -2.21836 -0.576311 0
M  V30 5513 C 520.758 -1.21837 -1.07979 0
M  V30 5514 O 521.947 -1.48306 -0.99336 0
M  V30 5515 C 519.047 -2.86923 -1.80356 0
M  V30 5516 C 518.22 -4.1306 -1.43875 0
M  V30 5517 C 517.279 -4.6174 -2.52353 0
M  V30 5518 O 516.305 -5.26421 -2.16494 0
M  V30 5519 N 517.507 -4.35974 -3.83284 0
M  V30 5520 H 520.272 -2.997 0.00247987 0
M  V30 5521 H 517.833 -1.61233 0.146848 0
M  V30 5522 H 519.825 -3.16414 -2.52318 0
M  V30 5523 H 518.395 -2.12765 -2.29019 0
M  V30 5524 H 517.615 -3.90334 -0.550752 0
M  V30 5525 H 518.903 -4.95148 -1.17071 0
M  V30 5526 H 518.301 -3.84203 -4.15216 0
M  V30 5527 H 516.858 -4.70119 -4.51477 0
M  V30 5528 N 520.291 -0.0518155 -1.57515 0
M  V30 5529 C 521.238 0.922352 -2.11569 0
M  V30 5530 C 522.208 1.30842 -1.02321 0
M  V30 5531 O 523.393 1.39778 -1.29872 0
M  V30 5532 C 520.533 2.19167 -2.6657 0
M  V30 5533 C 519.646 1.86003 -3.89906 0
M  V30 5534 C 518.781 3.07398 -4.33221 0
M  V30 5535 C 517.82 2.70158 -5.49255 0
M  V30 5536 N 516.957 3.84248 -5.8762 0
M  V30 5537 H 521.797 0.454506 -2.94514 0
M  V30 5538 H 519.334 0.212718 -1.45554 0
M  V30 5539 H 521.292 2.93443 -2.96559 0
M  V30 5540 H 519.922 2.63528 -1.86421 0
M  V30 5541 H 518.974 1.01874 -3.66505 0
M  V30 5542 H 520.286 1.54592 -4.74239 0
M  V30 5543 H 519.44 3.89972 -4.64765 0
M  V30 5544 H 518.179 3.41988 -3.477 0
M  V30 5545 H 517.184 1.86001 -5.17382 0
M  V30 5546 H 518.409 2.36759 -6.36492 0
M  V30 5547 H 516.355 4.18638 -5.05053 0
M  V30 5548 H 516.272 3.56538 -6.66646 0
M  V30 5549 H 517.54 4.6746 -6.2378 0
M  V30 5550 N 521.769 1.56035 0.221574 0
M  V30 5551 C 522.997 1.8313 0.962864 0
M  V30 5552 C 523.412 0.630934 1.77946 0
M  V30 5553 O 522.769 -0.400519 1.78051 0
M  V30 5554 C 522.82 3.08742 1.88045 0
M  V30 5555 O 522.541 4.24147 1.09686 0
M  V30 5556 C 524.042 3.48824 2.73563 0
M  V30 5557 H 521.262 0.608775 0.282194 0
M  V30 5558 H 523.806 2.03124 0.23681 0
M  V30 5559 H 521.961 2.90723 2.56045 0
M  V30 5560 H 522.375 4.95505 1.71974 0
M  V30 5561 H 523.849 4.39752 3.3365 0
M  V30 5562 H 524.326 2.70575 3.45956 0
M  V30 5563 H 524.932 3.69282 2.10976 0
M  V30 5564 N 523.247 -0.488276 1.49845 0
M  V30 5565 C 524.18 -1.60651 1.62069 0
M  V30 5566 C 525.158 -1.5568 0.469308 0
M  V30 5567 O 526.342 -1.75553 0.686551 0
M  V30 5568 C 523.469 -2.99197 1.58741 0
M  V30 5569 C 522.515 -3.22385 2.79232 0
M  V30 5570 S 523.348 -3.04133 4.40753 0
M  V30 5571 C 524.504 -4.45052 4.4009 0
M  V30 5572 H 524.737 -1.50039 2.56662 0
M  V30 5573 H 522.27 -0.674371 1.38894 0
M  V30 5574 H 524.228 -3.79081 1.57506 0
M  V30 5575 H 522.889 -3.07213 0.654136 0
M  V30 5576 H 522.082 -4.23557 2.73159 0
M  V30 5577 H 521.684 -2.50245 2.77945 0
M  V30 5578 H 523.976 -5.37375 4.12594 0
M  V30 5579 H 524.919 -4.56172 5.41583 0
M  V30 5580 H 525.327 -4.26327 3.70008 0
M  V30 5581 N 524.725 -1.39134 -0.740242 0
M  V30 5582 C 526.002 -1.26584 -1.49117 0
M  V30 5583 C 526.382 0.126902 -2.10718 0
M  V30 5584 O 525.73 1.13765 -1.98166 0
M  V30 5585 C 525.94 -2.38619 -2.54681 0
M  V30 5586 C 527.288 -2.77685 -3.21211 0
M  V30 5587 O 528.312 -2.38029 -2.64991 0
M  V30 5588 O 527.171 -3.46115 -4.22926 0
M  V30 5589 H 524.265 -0.495769 -0.661923 0
M  V30 5590 H 526.811 -1.50995 -0.774514 0
M  V30 5591 H 525.583 -3.3175 -2.07504 0
M  V30 5592 H 525.206 -2.15845 -3.33911 0
M  V30 5593 N 526.204 0.969867 -1.24223 0
M  V30 5594 C 527.481 1.68774 -0.988664 0
M  V30 5595 C 527.861 2.05342 0.489673 0
M  V30 5596 O 527.209 1.75486 1.46345 0
M  V30 5597 C 527.419 2.92135 -1.90941 0
M  V30 5598 C 528.767 3.64422 -2.17903 0
M  V30 5599 O 529.791 3.02188 -1.88576 0
M  V30 5600 O 528.65 4.76446 -2.67697 0
M  V30 5601 H 525.744 0.737736 -0.37373 0
M  V30 5602 H 528.29 1.02415 -1.35312 0
M  V30 5603 H 527.062 2.61788 -2.90831 0
M  V30 5604 H 526.685 3.66228 -1.54798 0
M  V30 5605 N 527.682 1.05563 1.17022 0
M  V30 5606 C 528.612 0.681026 2.23348 0
M  V30 5607 C 529.593 -0.322983 1.67005 0
M  V30 5608 O 530.778 -0.199746 1.9317 0
M  V30 5609 C 527.908 0.0589053 3.4725 0
M  V30 5610 C 526.862 0.988082 4.16438 0
M  V30 5611 C 526.188 0.229646 5.34207 0
M  V30 5612 C 527.488 2.31388 4.68249 0
M  V30 5613 H 529.182 1.56993 2.54938 0
M  V30 5614 H 526.728 0.756302 1.2254 0
M  V30 5615 H 528.681 -0.214982 4.20851 0
M  V30 5616 H 527.405 -0.864968 3.14938 0
M  V30 5617 H 526.064 1.24659 3.44754 0
M  V30 5618 H 525.712 -0.697111 4.98146 0
M  V30 5619 H 525.412 0.848815 5.81437 0
M  V30 5620 H 526.936 -0.0368694 6.10589 0
M  V30 5621 H 528.35 2.09964 5.33468 0
M  V30 5622 H 526.747 2.88736 5.26072 0
M  V30 5623 H 527.817 2.94982 3.84855 0
M  V30 5624 N 529.16 -1.33526 0.837174 0
M  V30 5625 C 530.108 -2.31168 0.257698 0
M  V30 5626 C 531.102 -1.5806 -0.609388 0
M  V30 5627 O 532.308 -1.72941 -0.499139 0
M  V30 5628 H 528.683 -0.74922 0.0646058 0
M  V30 5629 H 530.654 -2.77552 1.09578 0
M  V30 5630 C 529.403 -3.4326 -0.553887 0
M  V30 5631 H 528.726 -3.99665 0.104008 0
M  V30 5632 H 530.166 -4.13782 -0.925219 0
M  V30 5633 C 528.625 -2.88965 -1.73207 0
M  V30 5634 O 529.155 -2.85013 -2.83073 0
M  V30 5635 N 527.361 -2.45596 -1.55342 0
M  V30 5636 H 526.908 -2.49009 -0.659705 0
M  V30 5637 H 526.866 -2.0962 -2.34322 0
M  V30 5638 N 530.638 -0.59345 -1.46 0
M  V30 5639 C 531.568 0.121192 -2.33185 0
M  V30 5640 C 532.549 0.872977 -1.4599 0
M  V30 5641 O 533.734 0.846321 -1.74789 0
M  V30 5642 C 530.864 1.12844 -3.28456 0
M  V30 5643 C 529.818 0.4908 -4.25177 0
M  V30 5644 C 529.144 1.60529 -5.10034 0
M  V30 5645 C 530.444 -0.578949 -5.19081 0
M  V30 5646 H 532.138 -0.606767 -2.93187 0
M  V30 5647 H 529.684 -0.293242 -1.40983 0
M  V30 5648 H 531.637 1.63684 -3.88311 0
M  V30 5649 H 530.361 1.88681 -2.66584 0
M  V30 5650 H 529.02 0.00339328 -3.666 0
M  V30 5651 H 528.668 2.35359 -4.44539 0
M  V30 5652 H 528.368 1.18422 -5.75543 0
M  V30 5653 H 529.892 2.11623 -5.72755 0
M  V30 5654 H 531.306 -0.155199 -5.7309 0
M  V30 5655 H 529.703 -0.920947 -5.92991 0
M  V30 5656 H 530.773 -1.46109 -4.62364 0
M  V30 5657 N 532.116 1.54067 -0.331816 0
M  V30 5658 C 533.341 2.05599 0.272705 0
M  V30 5659 C 533.766 1.2059 1.44359 0
M  V30 5660 O 533.124 0.216907 1.79998 0
M  V30 5661 C 533.172 3.54188 0.677021 0
M  V30 5662 O 532.276 3.72082 1.77844 0
M  V30 5663 H 531.617 0.662286 0.0476801 0
M  V30 5664 H 534.147 1.98826 -0.482624 0
M  V30 5665 H 534.157 3.96608 0.957415 0
M  V30 5666 H 532.832 4.15513 -0.179325 0
M  V30 5667 H 531.409 3.41566 1.49622 0
M  V30 5668 N 533.594 0.0601682 1.57485 0
M  V30 5669 C 534.822 -0.620937 1.97363 0
M  V30 5670 C 535.237 -1.63846 0.938082 0
M  V30 5671 O 534.594 -1.82339 -0.0766578 0
M  V30 5672 C 534.645 -1.29987 3.37321 0
M  V30 5673 O 534.366 -0.323081 4.36907 0
M  V30 5674 C 535.867 -2.06989 3.92008 0
M  V30 5675 H 533.087 -0.169135 0.649334 0
M  V30 5676 H 535.631 0.129132 2.04092 0
M  V30 5677 H 533.786 -2.0011 3.31715 0
M  V30 5678 H 534.2 -0.808754 5.18227 0
M  V30 5679 H 535.674 -2.49901 4.92192 0
M  V30 5680 H 536.151 -2.92173 3.2792 0
M  V30 5681 H 536.757 -1.41757 4.0098 0
M  V30 5682 N 535.072 -1.5615 -0.213296 0
M  V30 5683 C 536.297 -1.83986 -0.957282 0
M  V30 5684 C 536.722 -0.641526 -1.76822 0
M  V30 5685 O 536.08 0.409722 -1.7661 0
M  V30 5686 C 536.128 -3.09889 -1.84393 0
M  V30 5687 O 535.232 -2.89163 -2.94038 0
M  V30 5688 H 534.573 -0.606357 -0.270605 0
M  V30 5689 H 537.103 -2.03369 -0.224111 0
M  V30 5690 H 537.113 -3.40209 -2.25215 0
M  V30 5691 H 535.788 -3.96735 -1.24795 0
M  V30 5692 H 534.365 -2.70097 -2.57103 0
M  V30 5693 N 536.55 0.480323 -1.50102 0
M  V30 5694 C 537.46 1.60547 -1.71061 0
M  V30 5695 C 538.476 1.63564 -0.593529 0
M  V30 5696 O 539.652 1.81604 -0.870751 0
M  V30 5697 C 536.717 2.96814 -1.79171 0
M  V30 5698 C 535.778 3.04259 -3.02861 0
M  V30 5699 C 535.011 4.34027 -3.10574 0
M  V30 5700 O 535.234 5.24009 -2.25323 0
M  V30 5701 O 534.168 4.46873 -4.03223 0
M  V30 5702 H 537.994 1.45788 -2.6642 0
M  V30 5703 H 535.579 0.658838 -1.34088 0
M  V30 5704 H 537.461 3.77765 -1.86738 0
M  V30 5705 H 536.136 3.11791 -0.869947 0
M  V30 5706 H 535.043 2.22419 -3.008 0
M  V30 5707 H 536.376 2.94216 -3.94586 0
M  V30 5708 N 538.028 1.39524 0.732853 0
M  V30 5709 C 538.991 1.38189 1.82857 0
M  V30 5710 C 539.991 0.278624 1.58368 0
M  V30 5711 O 541.181 0.536639 1.65728 0
M  V30 5712 C 538.313 1.15661 3.2068 0
M  V30 5713 H 539.506 2.35692 1.85444 0
M  V30 5714 H 537.059 1.2512 0.936728 0
M  V30 5715 H 537.794 0.188482 3.23752 0
M  V30 5716 H 537.579 1.95559 3.39852 0
M  V30 5717 H 539.069 1.17472 4.00737 0
M  V30 5718 N 539.506 -0.963266 1.24736 0
M  V30 5719 C 540.436 -2.07628 1.06832 0
M  V30 5720 C 541.417 -1.70088 -0.0200566 0
M  V30 5721 O 542.602 -1.93636 0.147854 0
M  V30 5722 C 539.732 -3.40636 0.677069 0
M  V30 5723 C 538.686 -3.9215 1.71471 0
M  V30 5724 C 538.012 -5.21553 1.1784 0
M  V30 5725 C 539.312 -4.19493 3.11164 0
M  V30 5726 H 541.006 -2.22864 1.9993 0
M  V30 5727 H 538.552 -1.07093 0.96266 0
M  V30 5728 H 540.505 -4.17941 0.538792 0
M  V30 5729 H 539.229 -3.25313 -0.289612 0
M  V30 5730 H 537.888 -3.17005 1.84128 0
M  V30 5731 H 537.536 -5.02593 0.202195 0
M  V30 5732 H 537.236 -5.56988 1.87185 0
M  V30 5733 H 538.76 -6.01463 1.05233 0
M  V30 5734 H 540.174 -4.87487 3.01711 0
M  V30 5735 H 538.571 -4.66165 3.77902 0
M  V30 5736 H 539.641 -3.26097 3.58871 0
M  V30 5737 N 540.985 -1.06182 -1.16461 0
M  V30 5738 C 542.401 -0.785065 -1.38956 0
M  V30 5739 C 542.601 0.616103 -1.9185 0
M  V30 5740 O 541.657 1.37686 -2.11657 0
M  V30 5741 C 542.97 -1.84902 -2.37132 0
M  V30 5742 C 544.518 -1.8724 -2.50819 0
M  V30 5743 C 544.993 -2.92686 -3.52277 0
M  V30 5744 N 546.484 -2.91712 -3.59803 0
M  V30 5745 C 547.219 -3.69949 -4.38093 0
M  V30 5746 N 546.715 -4.58 -5.19815 0
M  V30 5747 N 548.508 -3.58346 -4.33064 0
M  V30 5748 H 540.659 -1.96569 -0.804634 0
M  V30 5749 H 542.922 -0.851747 -0.416211 0
M  V30 5750 H 542.628 -2.85518 -2.0536 0
M  V30 5751 H 542.502 -1.69908 -3.36766 0
M  V30 5752 H 544.889 -0.872827 -2.81897 0
M  V30 5753 H 544.97 -2.06311 -1.51226 0
M  V30 5754 H 544.614 -3.92835 -3.21937 0
M  V30 5755 H 544.544 -2.70864 -4.51598 0
M  V30 5756 H 547.035 -2.27876 -3.01464 0
M  V30 5757 H 547.348 -5.14357 -5.76764 0
M  V30 5758 H 545.693 -4.62056 -5.19162 0
M  V30 5759 H 548.884 -2.88943 -3.68279 0
M  V30 5760 H 549.057 -4.19563 -4.93833 0
M  V30 5761 N 542.463 1.3308 -0.844243 0
M  V30 5762 C 543.712 1.96868 -0.438833 0
M  V30 5763 C 544.025 1.67599 1.00846 0
M  V30 5764 O 545.231 2.25043 1.51881 0
M  V30 5765 C 543.687 3.5234 -0.73377 0
M  V30 5766 C 543.295 3.90481 -2.1961 0
M  V30 5767 C 545.039 4.22653 -0.395574 0
M  V30 5768 C 542.946 5.38954 -2.43481 0
M  V30 5769 H 541.876 0.736749 -0.160364 0
M  V30 5770 H 544.527 1.51623 -1.03358 0
M  V30 5771 H 542.909 3.95941 -0.068589 0
M  V30 5772 H 544.083 3.57922 -2.90221 0
M  V30 5773 H 542.398 3.33165 -2.4978 0
M  V30 5774 H 544.995 5.31848 -0.551477 0
M  V30 5775 H 545.338 4.11004 0.661921 0
M  V30 5776 H 545.871 3.84601 -1.01621 0
M  V30 5777 H 542.61 5.55612 -3.47816 0
M  V30 5778 H 542.13 5.72954 -1.77437 0
M  V30 5779 H 543.809 6.05907 -2.26905 0
M  V30 5780 N 543.941 0.601185 1.45683 0
M  V30 5781 C 545.218 0.0261659 1.95582 0
M  V30 5782 C 545.598 -1.4399 1.5437 0
M  V30 5783 O 544.946 -2.13919 0.80318 0
M  V30 5784 C 545.156 0.217557 3.48321 0
M  V30 5785 C 546.504 0.0950076 4.24494 0
M  V30 5786 O 547.528 0.147345 3.55895 0
M  V30 5787 O 546.387 -0.025261 5.46494 0
M  V30 5788 H 543.481 -0.0393688 0.826062 0
M  V30 5789 H 546.027 0.670798 1.55879 0
M  V30 5790 H 544.799 1.23601 3.71266 0
M  V30 5791 H 544.422 -0.46264 3.94899 0
M  V30 5792 N 545.419 -1.53889 0.339982 0
M  V30 5793 C 546.83 -1.86139 -0.144671 0
M  V30 5794 C 547.181 -1.2613 -1.50285 0
M  V30 5795 O 546.306 -0.573515 -2.08662 0
M  V30 5796 C 546.901 -3.37728 -0.269285 0
M  V30 5797 C 545.46 -3.69868 -0.698168 0
M  V30 5798 C 544.607 -2.76777 0.170249 0
M  V30 5799 H 547.558 -1.48503 0.559704 0
M  V30 5800 H 547.579 -3.64331 -1.0974 0
M  V30 5801 H 547.091 -3.81375 0.719366 0
M  V30 5802 H 545.192 -3.31764 -1.69597 0
M  V30 5803 H 545.305 -4.76582 -0.490533 0
M  V30 5804 H 543.669 -2.52188 -0.356844 0
M  V30 5805 H 544.452 -3.23253 1.15597 0
M  V30 5806 N 546.897 -0.0685191 -1.57451 0
M  V30 5807 C 548.143 0.602239 -1.93652 0
M  V30 5808 C 548.476 1.6946 -0.948526 0
M  V30 5809 O 547.751 1.94487 0.022782 0
M  V30 5810 C 548.034 1.18223 -3.4014 0
M  V30 5811 C 547.887 0.0967431 -4.49696 0
M  V30 5812 C 549.206 2.08872 -3.87377 0
M  V30 5813 H 546.325 0.217453 -0.70419 0
M  V30 5814 H 548.967 -0.133821 -1.89528 0
M  V30 5815 H 547.117 1.80953 -3.43785 0
M  V30 5816 H 548.789 -0.536155 -4.58174 0
M  V30 5817 H 547.032 -0.573063 -4.29998 0
M  V30 5818 H 547.703 0.542894 -5.49324 0
M  V30 5819 H 550.179 1.56081 -3.85717 0
M  V30 5820 H 549.055 2.46389 -4.90493 0
M  V30 5821 H 549.316 2.99572 -3.25129 0
M  V30 5822 N 548.375 1.56261 0.205012 0
M  V30 5823 C 549.786 1.70056 0.770574 0
M  V30 5824 C 550.137 0.673398 1.84282 0
M  V30 5825 O 549.262 -0.172196 2.15714 0
M  V30 5826 C 549.857 3.08316 1.40451 0
M  V30 5827 C 548.416 3.2391 1.91727 0
M  V30 5828 C 547.563 2.66001 0.783516 0
M  V30 5829 H 550.514 1.58688 -0.019911 0
M  V30 5830 H 550.535 3.05094 2.27371 0
M  V30 5831 H 550.047 3.83053 0.623882 0
M  V30 5832 H 548.148 2.54072 2.7254 0
M  V30 5833 H 548.261 4.3131 2.08588 0
M  V30 5834 H 546.625 2.24915 1.19521 0
M  V30 5835 H 547.408 3.43297 0.0152883 0
M  V30 5836 N 549.853 -0.472356 1.50355 0
M  V30 5837 C 550.801 -1.59126 1.69651 0
M  V30 5838 C 551.795 -1.59793 0.56237 0
M  V30 5839 O 553.001 -1.63957 0.742832 0
M  V30 5840 H 549.376 -0.528008 0.535454 0
M  V30 5841 H 551.347 -1.40013 2.63513 0
M  V30 5842 C 550.096 -2.97075 1.8067 0
M  V30 5843 H 549.419 -2.9728 2.67329 0
M  V30 5844 H 550.859 -3.74825 1.98197 0
M  V30 5845 C 549.318 -3.32247 0.558016 0
M  V30 5846 O 549.848 -4.00553 -0.303399 0
M  V30 5847 N 548.054 -2.87659 0.412415 0
M  V30 5848 H 547.601 -2.32246 1.11443 0
M  V30 5849 H 547.559 -3.11556 -0.421908 0
M  V30 5850 N 551.331 -1.39911 -0.725443 0
M  V30 5851 C 552.559 -1.40949 -1.51463 0
M  V30 5852 C 552.974 -0.0065242 -1.88799 0
M  V30 5853 O 552.331 0.967163 -1.54765 0
M  V30 5854 C 552.382 -2.29119 -2.79619 0
M  V30 5855 O 552.103 -3.63952 -2.43866 0
M  V30 5856 C 553.604 -2.38642 -3.73584 0
M  V30 5857 H 550.824 -0.481091 -0.467752 0
M  V30 5858 H 553.368 -1.83843 -0.895651 0
M  V30 5859 H 551.523 -1.89612 -3.37826 0
M  V30 5860 H 551.937 -4.10677 -3.26258 0
M  V30 5861 H 553.411 -3.04563 -4.60375 0
M  V30 5862 H 553.888 -1.40846 -4.16004 0
M  V30 5863 H 554.494 -2.78659 -3.21293 0
M  V30 5864 N 552.809 0.956637 -1.25245 0
M  V30 5865 C 553.759 2.03841 -1.02141 0
M  V30 5866 C 554.743 1.60848 0.0410058 0
M  V30 5867 O 555.935 1.76142 -0.174084 0
M  V30 5868 C 553.064 3.37282 -0.639963 0
M  V30 5869 C 552.15 3.86805 -1.73903 0
M  V30 5870 N 552.541 4.09143 -2.97381 0
M  V30 5871 C 550.839 4.15574 -1.61909 0
M  V30 5872 C 551.54 4.49923 -3.68707 0
M  V30 5873 N 550.516 4.55737 -2.96318 0
M  V30 5874 H 554.318 2.19102 -1.95886 0
M  V30 5875 H 551.832 1.1413 -1.15534 0
M  V30 5876 H 553.829 4.14403 -0.455643 0
M  V30 5877 H 552.489 3.23401 0.29018 0
M  V30 5878 H 553.5 3.96275 -3.33447 0
M  V30 5879 H 550.177 4.10566 -0.757764 0
M  V30 5880 H 551.567 4.75526 -4.74684 0
M  V30 5881 N 554.287 1.06798 1.15896 0
M  V30 5882 C 555.698 0.811355 1.68149 0
M  V30 5883 C 556.049 -0.664339 1.8461 0
M  V30 5884 O 555.174 -1.51485 1.54535 0
M  V30 5885 C 555.769 1.46624 3.05429 0
M  V30 5886 C 554.328 1.25726 3.54781 0
M  V30 5887 C 553.475 1.53949 2.3064 0
M  V30 5888 H 556.426 1.23078 1.00187 0
M  V30 5889 H 556.447 0.88437 3.7008 0
M  V30 5890 H 555.959 2.54025 2.93416 0
M  V30 5891 H 554.06 0.20322 3.72045 0
M  V30 5892 H 554.173 1.97354 4.36564 0
M  V30 5893 H 552.537 0.96025 2.35905 0
M  V30 5894 H 553.32 2.6252 2.2122 0
M  V30 5895 N 555.766 -1.3263 0.851289 0
M  V30 5896 C 556.696 -2.31449 0.308771 0
M  V30 5897 C 557.677 -1.59531 -0.590255 0
M  V30 5898 O 558.862 -1.87351 -0.511205 0
M  V30 5899 C 555.992 -3.43586 -0.506548 0
M  V30 5900 C 554.946 -4.26963 0.297753 0
M  V30 5901 C 554.272 -5.30831 -0.642094 0
M  V30 5902 C 555.572 -4.99643 1.52166 0
M  V30 5903 H 557.266 -2.77074 1.13447 0
M  V30 5904 H 554.812 -1.33207 0.546971 0
M  V30 5905 H 556.765 -4.11754 -0.896474 0
M  V30 5906 H 555.489 -2.96681 -1.36558 0
M  V30 5907 H 554.148 -3.60437 0.669391 0
M  V30 5908 H 553.796 -4.8018 -1.49788 0
M  V30 5909 H 553.496 -5.87501 -0.107968 0
M  V30 5910 H 555.02 -6.01862 -1.02927 0
M  V30 5911 H 556.434 -5.6051 1.20421 0
M  V30 5912 H 554.831 -5.66022 1.99347 0
M  V30 5913 H 555.901 -4.27701 2.28474 0
M  V30 5914 N 557.244 -0.608902 -1.45362 0
M  V30 5915 C 558.174 0.0964526 -2.33301 0
M  V30 5916 C 559.155 0.857444 -1.46908 0
M  V30 5917 O 560.34 0.827735 -1.75676 0
M  V30 5918 C 557.47 1.09354 -3.29635 0
M  V30 5919 C 556.424 0.445676 -4.25673 0
M  V30 5920 C 555.75 1.5511 -5.11708 0
M  V30 5921 C 557.05 -0.633972 -5.18438 0
M  V30 5922 H 558.744 -0.637829 -2.92527 0
M  V30 5923 H 556.29 -0.308178 -1.40664 0
M  V30 5924 H 558.243 1.59556 -3.90025 0
M  V30 5925 H 556.967 1.85843 -2.6857 0
M  V30 5926 H 555.626 -0.0354897 -3.66583 0
M  V30 5927 H 555.274 2.30631 -4.4701 0
M  V30 5928 H 554.974 1.12311 -5.76767 0
M  V30 5929 H 556.498 2.05537 -5.74967 0
M  V30 5930 H 557.912 -0.215974 -5.72893 0
M  V30 5931 H 556.309 -0.983789 -5.91981 0
M  V30 5932 H 557.379 -1.51005 -4.60788 0
M  V30 5933 N 558.722 1.53707 -0.348139 0
M  V30 5934 C 559.968 2.01286 0.247332 0
M  V30 5935 C 560.301 1.23546 1.49834 0
M  V30 5936 O 559.576 0.324331 1.91777 0
M  V30 5937 C 559.859 3.55768 0.556858 0
M  V30 5938 C 559.712 4.44216 -0.706564 0
M  V30 5939 C 561.031 4.1841 1.3646 0
M  V30 5940 H 558.15 0.731677 0.0884201 0
M  V30 5941 H 560.792 1.84106 -0.469584 0
M  V30 5942 H 558.942 3.70539 1.16761 0
M  V30 5943 H 560.614 4.41274 -1.34444 0
M  V30 5944 H 558.857 4.12892 -1.33052 0
M  V30 5945 H 559.528 5.50202 -0.445186 0
M  V30 5946 H 562.004 4.07365 0.848113 0
M  V30 5947 H 560.88 5.26563 1.54992 0
M  V30 5948 H 561.141 3.7333 2.36805 0
M  V30 5949 N 560.2 0.0768682 1.57412 0
M  V30 5950 C 561.447 -0.591085 1.93681 0
M  V30 5951 C 561.775 -1.69311 0.957286 0
M  V30 5952 O 561.03 -1.95682 -0.0262428 0
M  V30 5953 C 561.329 -1.20268 3.36557 0
M  V30 5954 C 560.995 -0.226286 4.50332 0
M  V30 5955 C 559.657 0.0423142 4.81181 0
M  V30 5956 C 562.009 0.441415 5.19327 0
M  V30 5957 C 559.337 0.985616 5.78362 0
M  V30 5958 C 561.689 1.37307 6.17519 0
M  V30 5959 C 560.353 1.65009 6.46783 0
M  V30 5960 H 559.623 -0.216293 0.70873 0
M  V30 5961 H 562.27 0.148824 1.90921 0
M  V30 5962 H 560.575 -2.01844 3.35807 0
M  V30 5963 H 562.272 -1.72688 3.61911 0
M  V30 5964 H 558.862 -0.445821 4.26275 0
M  V30 5965 H 563.046 0.247023 4.95685 0
M  V30 5966 H 558.302 1.20743 5.99359 0
M  V30 5967 H 562.476 1.89637 6.70083 0
M  V30 5968 H 560.103 2.38263 7.21897 0
M  V30 5969 N 561.678 -1.56367 -0.196722 0
M  V30 5970 C 562.924 -1.80796 -0.918725 0
M  V30 5971 C 563.257 -0.650645 -1.82976 0
M  V30 5972 O 562.532 0.348889 -1.91345 0
M  V30 5973 C 562.815 -3.15472 -1.73636 0
M  V30 5974 C 562.668 -4.41693 -0.85015 0
M  V30 5975 C 563.987 -3.46824 -2.70927 0
M  V30 5976 H 561.106 -0.657702 -0.332561 0
M  V30 5977 H 563.748 -1.89086 -0.186186 0
M  V30 5978 H 561.898 -3.08536 -2.36088 0
M  V30 5979 H 563.57 -4.60673 -0.240459 0
M  V30 5980 H 561.813 -4.33517 -0.156785 0
M  V30 5981 H 562.484 -5.32419 -1.45719 0
M  V30 5982 H 564.96 -3.54049 -2.18607 0
M  V30 5983 H 563.836 -4.4218 -3.25219 0
M  V30 5984 H 564.097 -2.70236 -3.49893 0
M  V30 5985 N 563.156 0.464375 -1.50603 0
M  V30 5986 C 564.104 1.58224 -1.70493 0
M  V30 5987 C 565.098 1.59492 -0.570836 0
M  V30 5988 O 566.304 1.63561 -0.751517 0
M  V30 5989 H 562.679 0.525161 -0.538247 0
M  V30 5990 H 564.65 1.38613 -2.64252 0
M  V30 5991 C 563.399 2.96113 -1.82243 0
M  V30 5992 H 562.722 2.95858 -2.68901 0
M  V30 5993 H 564.162 3.73769 -2.00182 0
M  V30 5994 C 562.621 3.31946 -0.575628 0
M  V30 5995 O 563.151 4.00708 0.282152 0
M  V30 5996 N 561.357 2.87436 -0.427665 0
M  V30 5997 H 560.904 2.31652 -1.12674 0
M  V30 5998 H 560.862 3.11776 0.405379 0
M  V30 5999 N 564.634 1.40294 0.718013 0
M  V30 6000 C 566.045 1.34289 1.29705 0
M  V30 6001 C 566.396 0.0152228 1.96194 0
M  V30 6002 O 565.521 -0.88682 1.97394 0
M  V30 6003 C 566.116 2.43219 2.3586 0
M  V30 6004 C 564.675 2.40682 2.89394 0
M  V30 6005 C 563.822 2.24223 1.63154 0
M  V30 6006 H 566.773 1.50135 0.514312 0
M  V30 6007 H 566.794 2.10986 3.16647 0
M  V30 6008 H 566.306 3.39836 1.87439 0
M  V30 6009 H 564.407 1.47756 3.42051 0
M  V30 6010 H 564.52 3.36177 3.41353 0
M  V30 6011 H 562.884 1.71696 1.88129 0
M  V30 6012 H 563.667 3.22834 1.16761 0
M  V30 6013 N 566.112 -0.949982 1.2575 0
M  V30 6014 C 567.059 -2.04738 1.06541 0
M  V30 6015 C 568.029 -1.66078 -0.0268818 0
M  V30 6016 O 569.214 -1.90348 0.131196 0
M  V30 6017 C 566.354 -3.38027 0.695127 0
M  V30 6018 C 565.467 -3.89776 1.86276 0
M  V30 6019 C 564.602 -5.11411 1.4364 0
M  V30 6020 C 563.641 -5.554 2.57287 0
M  V30 6021 N 562.778 -6.68244 2.15395 0
M  V30 6022 H 567.618 -2.20502 2.00457 0
M  V30 6023 H 565.155 -1.0805 0.998178 0
M  V30 6024 H 567.113 -4.14641 0.461375 0
M  V30 6025 H 565.743 -3.22135 -0.207046 0
M  V30 6026 H 564.795 -3.0964 2.20969 0
M  V30 6027 H 566.107 -4.18368 2.71606 0
M  V30 6028 H 565.261 -5.95457 1.16257 0
M  V30 6029 H 564 -4.84545 0.553879 0
M  V30 6030 H 563.005 -4.69916 2.85409 0
M  V30 6031 H 564.23 -5.84272 3.46125 0
M  V30 6032 H 562.176 -6.43078 1.29565 0
M  V30 6033 H 562.093 -6.96377 2.94272 0
M  V30 6034 H 563.361 -7.55687 1.91201 0
M  V30 6035 N 567.59 -1.07411 -1.15328 0
M  V30 6036 C 568.815 -0.818856 -1.90551 0
M  V30 6037 C 569.24 0.622194 -1.77512 0
M  V30 6038 O 568.598 1.43484 -1.10824 0
M  V30 6039 C 568.646 -1.23267 -3.38877 0
M  V30 6040 O 567.75 -0.378345 -4.10661 0
M  V30 6041 H 567.091 -0.29827 -0.593238 0
M  V30 6042 H 569.621 -1.43289 -1.46046 0
M  V30 6043 H 569.631 -1.20912 -3.89672 0
M  V30 6044 H 568.306 -2.28226 -3.47686 0
M  V30 6045 H 566.883 -0.464437 -3.69996 0
M  V30 6046 N 569.068 1.32177 -0.85831 0
M  V30 6047 C 570.316 1.96735 -0.462568 0
M  V30 6048 C 570.637 1.6824 0.985911 0
M  V30 6049 O 569.907 0.991564 1.68952 0
M  V30 6050 H 568.487 0.727849 -0.168064 0
M  V30 6051 H 571.149 1.61195 -1.09554 0
M  V30 6052 H 570.245 3.06068 -0.610647 0
M  V30 6053 N 570.547 0.616602 1.45037 0
M  V30 6054 C 571.795 0.115103 2.01772 0
M  V30 6055 C 572.116 -1.2622 1.48639 0
M  V30 6056 O 571.386 -1.83563 0.684199 0
M  V30 6057 H 569.966 0.0395607 0.745952 0
M  V30 6058 H 572.628 0.800032 1.77723 0
M  V30 6059 H 571.724 0.0717274 3.12018 0
M  V30 6060 N 572.025 -1.5352 0.356285 0
M  V30 6061 C 572.972 -2.25439 -0.494569 0
M  V30 6062 C 573.942 -1.25752 -1.08516 0
M  V30 6063 O 575.127 -1.54513 -1.1194 0
M  V30 6064 C 572.267 -3.04011 -1.63313 0
M  V30 6065 C 571.38 -4.18574 -1.06862 0
M  V30 6066 C 570.515 -4.84607 -2.17552 0
M  V30 6067 C 569.554 -5.91218 -1.58518 0
M  V30 6068 N 568.691 -6.50979 -2.63003 0
M  V30 6069 H 573.531 -2.97737 0.125244 0
M  V30 6070 H 571.068 -1.46916 0.0735789 0
M  V30 6071 H 573.026 -3.47834 -2.30363 0
M  V30 6072 H 571.656 -2.33986 -2.22374 0
M  V30 6073 H 570.708 -3.79303 -0.288672 0
M  V30 6074 H 572.02 -4.95215 -0.596924 0
M  V30 6075 H 571.174 -5.31566 -2.92442 0
M  V30 6076 H 569.913 -4.07418 -2.6807 0
M  V30 6077 H 568.918 -5.4363 -0.821391 0
M  V30 6078 H 570.143 -6.70322 -1.08836 0
M  V30 6079 H 568.089 -5.76648 -3.12751 0
M  V30 6080 H 568.006 -7.23131 -2.20493 0
M  V30 6081 H 569.274 -7.02589 -3.37623 0
M  V30 6082 N 573.503 -0.0852151 -1.57369 0
M  V30 6083 C 574.435 0.907099 -2.10486 0
M  V30 6084 C 575.448 1.25259 -1.03991 0
M  V30 6085 O 576.637 1.20743 -1.31467 0
M  V30 6086 C 573.737 2.21908 -2.56145 0
M  V30 6087 C 572.91 2.05042 -3.86363 0
M  V30 6088 C 571.969 3.19664 -4.17973 0
M  V30 6089 O 570.995 2.94062 -4.87356 0
M  V30 6090 N 572.197 4.45151 -3.72587 0
M  V30 6091 H 574.962 0.453505 -2.96249 0
M  V30 6092 H 572.523 0.100157 -1.6159 0
M  V30 6093 H 574.515 2.97519 -2.74343 0
M  V30 6094 H 573.085 2.58723 -1.75446 0
M  V30 6095 H 572.305 1.13819 -3.77411 0
M  V30 6096 H 573.593 1.91039 -4.71574 0
M  V30 6097 H 572.991 4.68834 -3.16561 0
M  V30 6098 H 571.548 5.17744 -3.9596 0
M  V30 6099 N 574.981 1.5647 0.188427 0
M  V30 6100 C 576.229 1.80655 0.905986 0
M  V30 6101 C 576.55 0.659391 1.83513 0
M  V30 6102 O 575.82 -0.321868 1.93238 0
M  V30 6103 H 574.4 0.666391 0.337538 0
M  V30 6104 H 577.062 1.93949 0.192339 0
M  V30 6105 H 576.158 2.74066 1.49313 0
M  V30 6106 N 576.459 -0.456382 1.50847 0
M  V30 6107 C 577.391 -1.57033 1.66953 0
M  V30 6108 C 578.404 -1.53207 0.550593 0
M  V30 6109 O 579.593 -1.58328 0.824285 0
M  V30 6110 C 576.693 -2.95937 1.65149 0
M  V30 6111 C 575.866 -3.24475 2.93317 0
M  V30 6112 C 574.925 -4.43007 2.83957 0
M  V30 6113 O 573.951 -4.42592 3.57912 0
M  V30 6114 N 575.153 -5.45503 1.9851 0
M  V30 6115 H 577.918 -1.43629 2.63042 0
M  V30 6116 H 575.479 -0.645037 1.48495 0
M  V30 6117 H 577.471 -3.73224 1.56481 0
M  V30 6118 H 576.041 -3.03036 0.767343 0
M  V30 6119 H 575.261 -2.35664 3.16 0
M  V30 6120 H 576.549 -3.4036 3.78196 0
M  V30 6121 H 575.947 -5.48668 1.37766 0
M  V30 6122 H 574.504 -6.21716 1.95735 0
M  V30 6123 N 577.937 -1.40673 -0.710563 0
M  V30 6124 C 579.353 -1.22813 -1.01928 0
M  V30 6125 C 579.553 -0.10687 -2.01216 0
M  V30 6126 O 578.609 0.533614 -2.46797 0
M  V30 6127 C 579.922 -2.57178 -1.5582 0
M  V30 6128 C 581.47 -2.64233 -1.67779 0
M  V30 6129 C 581.945 -3.98879 -2.25076 0
M  V30 6130 N 583.436 -4.00647 -2.32456 0
M  V30 6131 C 584.171 -5.01621 -2.77784 0
M  V30 6132 N 583.667 -6.12989 -3.22826 0
M  V30 6133 N 585.46 -4.88988 -2.77213 0
M  V30 6134 H 577.611 -2.12335 -0.05253 0
M  V30 6135 H 579.874 -0.9441 -0.085898 0
M  V30 6136 H 579.58 -3.39903 -0.903249 0
M  V30 6137 H 579.454 -2.78618 -2.54267 0
M  V30 6138 H 581.841 -1.81876 -2.3239 0
M  V30 6139 H 581.922 -2.46619 -0.679178 0
M  V30 6140 H 581.566 -4.81678 -1.61086 0
M  V30 6141 H 581.496 -4.13826 -3.25661 0
M  V30 6142 H 583.987 -3.20231 -2.0065 0
M  V30 6143 H 584.3 -6.85921 -3.55995 0
M  V30 6144 H 582.645 -6.16547 -3.20773 0
M  V30 6145 H 585.836 -4.01075 -2.41363 0
M  V30 6146 H 586.009 -5.67822 -3.12221 0
M  V30 6147 N 579.415 0.9433 -1.26252 0
M  V30 6148 C 580.661 1.69175 -1.11837 0
M  V30 6149 C 580.994 1.91238 0.337891 0
M  V30 6150 O 580.269 1.49152 1.24836 0
M  V30 6151 C 580.552 3.06783 -1.88563 0
M  V30 6152 C 580.405 2.9206 -3.42083 0
M  V30 6153 C 581.724 4.06865 -1.67776 0
M  V30 6154 H 578.843 0.61399 -0.407658 0
M  V30 6155 H 581.485 1.09572 -1.55222 0
M  V30 6156 H 579.635 3.57663 -1.51689 0
M  V30 6157 H 581.307 2.48419 -3.88698 0
M  V30 6158 H 579.55 2.27731 -3.69217 0
M  V30 6159 H 580.221 3.89651 -3.90994 0
M  V30 6160 H 582.697 3.64939 -1.99897 0
M  V30 6161 H 581.573 5.01168 -2.23879 0
M  V30 6162 H 581.834 4.37705 -0.621816 0
M  V30 6163 N 580.893 1.08022 1.14757 0
M  V30 6164 C 581.823 0.728248 2.21853 0
M  V30 6165 C 582.804 -0.287486 1.67653 0
M  V30 6166 O 583.989 -0.158727 1.9355 0
M  V30 6167 C 581.119 0.132549 3.47047 0
M  V30 6168 C 580.073 1.07619 4.14249 0
M  V30 6169 C 579.399 0.342907 5.33599 0
M  V30 6170 C 580.699 2.41268 4.63235 0
M  V30 6171 H 582.393 1.62365 2.51551 0
M  V30 6172 H 579.939 0.782125 1.20908 0
M  V30 6173 H 581.892 -0.125665 4.21213 0
M  V30 6174 H 580.616 -0.797971 3.16702 0
M  V30 6175 H 579.275 1.31944 3.42033 0
M  V30 6176 H 578.923 -0.59129 4.99513 0
M  V30 6177 H 578.623 0.971955 5.79506 0
M  V30 6178 H 580.147 0.0926538 6.1053 0
M  V30 6179 H 581.561 2.21232 5.28894 0
M  V30 6180 H 579.958 2.9983 5.19829 0
M  V30 6181 H 581.028 3.03079 3.78512 0
M  V30 6182 N 582.371 -1.3172 0.865308 0
M  V30 6183 C 583.617 -1.97559 0.483944 0
M  V30 6184 C 583.972 -1.67181 -0.95227 0
M  V30 6185 O 583.265 -0.955392 -1.66081 0
M  V30 6186 C 583.459 -3.5102 0.672283 0
M  V30 6187 C 583.288 -3.96312 2.12525 0
M  V30 6188 C 582.058 -4.22877 2.76591 0
M  V30 6189 C 584.256 -4.10596 3.09702 0
M  V30 6190 N 582.238 -4.5449 4.12689 0
M  V30 6191 C 583.609 -4.45867 4.30816 0
M  V30 6192 C 585.664 -3.92961 3.05755 0
M  V30 6193 C 584.367 -4.65344 5.48495 0
M  V30 6194 C 586.393 -4.13628 4.22688 0
M  V30 6195 C 585.755 -4.49227 5.42563 0
M  V30 6196 H 581.854 -0.74862 0.226035 0
M  V30 6197 H 584.438 -1.59336 1.11893 0
M  V30 6198 H 582.609 -3.88342 0.0669224 0
M  V30 6199 H 584.341 -4.03865 0.259765 0
M  V30 6200 H 581.096 -4.15343 2.27567 0
M  V30 6201 H 581.52 -4.74464 4.82921 0
M  V30 6202 H 586.162 -3.64531 2.14188 0
M  V30 6203 H 583.88 -4.92624 6.40584 0
M  V30 6204 H 587.466 -4.01474 4.21082 0
M  V30 6205 H 586.346 -4.64895 6.31539 0
M  V30 6206 N 583.85 -0.624285 -1.44708 0
M  V30 6207 C 584.797 0.0847135 -2.30644 0
M  V30 6208 C 585.767 0.843575 -1.43084 0
M  V30 6209 O 586.952 0.825982 -1.71995 0
M  V30 6210 C 584.091 1.06495 -3.28257 0
M  V30 6211 C 583.205 0.305224 -4.3092 0
M  V30 6212 C 582.34 1.27667 -5.1563 0
M  V30 6213 C 581.379 0.505706 -6.10007 0
M  V30 6214 N 580.516 1.42727 -6.8744 0
M  V30 6215 H 585.356 -0.654068 -2.90733 0
M  V30 6216 H 582.893 -0.334334 -1.4325 0
M  V30 6217 H 584.851 1.64658 -3.83332 0
M  V30 6218 H 583.481 1.77094 -2.69884 0
M  V30 6219 H 582.533 -0.392207 -3.78373 0
M  V30 6220 H 583.845 -0.295553 -4.97924 0
M  V30 6221 H 582.999 1.92984 -5.75189 0
M  V30 6222 H 581.738 1.91137 -4.48685 0
M  V30 6223 H 580.743 -0.160999 -5.49564 0
M  V30 6224 H 581.968 -0.124183 -6.78986 0
M  V30 6225 H 579.913 2.04931 -6.23169 0
M  V30 6226 H 579.831 0.880345 -7.50857 0
M  V30 6227 H 581.099 2.0695 -7.51526 0
M  V30 6228 N 585.328 1.53329 -0.364422 0
M  V30 6229 C 586.575 2.01239 0.225634 0
M  V30 6230 C 586.903 1.25172 1.48869 0
M  V30 6231 O 586.158 0.333289 1.92841 0
M  V30 6232 C 586.457 3.52911 0.564661 0
M  V30 6233 C 586.123 4.46837 -0.603936 0
M  V30 6234 C 584.785 4.72234 -0.924585 0
M  V30 6235 C 587.137 5.02409 -1.38691 0
M  V30 6236 C 584.465 5.50454 -2.0302 0
M  V30 6237 C 586.817 5.81836 -2.48293 0
M  V30 6238 C 585.481 6.0552 -2.80894 0
M  V30 6239 H 584.751 0.736386 0.0825654 0
M  V30 6240 H 587.398 1.84948 -0.496645 0
M  V30 6241 H 585.703 3.67144 1.36794 0
M  V30 6242 H 587.4 3.87455 1.03344 0
M  V30 6243 H 583.99 4.27217 -0.343983 0
M  V30 6244 H 588.174 4.82735 -1.15243 0
M  V30 6245 H 583.43 5.67024 -2.28678 0
M  V30 6246 H 587.604 6.23905 -3.0938 0
M  V30 6247 H 585.231 6.65916 -3.66688 0
M  V30 6248 N 586.806 0.0935595 1.57322 0
M  V30 6249 C 587.738 -0.895923 2.10964 0
M  V30 6250 C 588.751 -1.24705 1.04654 0
M  V30 6251 O 589.94 -1.20044 1.32105 0
M  V30 6252 C 587.04 -2.20546 2.57318 0
M  V30 6253 C 586.213 -2.0299 3.87445 0
M  V30 6254 C 585.272 -3.17443 4.19662 0
M  V30 6255 O 584.298 -2.91474 4.88909 0
M  V30 6256 N 585.5 -4.43168 3.74943 0
M  V30 6257 H 588.265 -0.437788 2.96485 0
M  V30 6258 H 585.826 -0.0915863 1.61641 0
M  V30 6259 H 587.818 -2.9606 2.75917 0
M  V30 6260 H 586.388 -2.57789 1.76816 0
M  V30 6261 H 585.608 -1.11815 3.78009 0
M  V30 6262 H 586.896 -1.88535 4.7258 0
M  V30 6263 H 586.294 -4.67149 3.19043 0
M  V30 6264 H 584.851 -5.15637 3.987 0
M  V30 6265 N 588.284 -1.56567 -0.180126 0
M  V30 6266 C 589.514 -1.85349 -0.912647 0
M  V30 6267 C 589.922 -0.675795 -1.76719 0
M  V30 6268 O 589.265 0.3645 -1.80047 0
M  V30 6269 C 589.327 -3.08431 -1.84691 0
M  V30 6270 C 588.991 -4.41694 -1.17284 0
M  V30 6271 C 589.988 -5.17062 -0.542532 0
M  V30 6272 C 587.673 -4.8843 -1.17223 0
M  V30 6273 C 589.667 -6.37351 0.0793953 0
M  V30 6274 C 587.354 -6.08652 -0.54647 0
M  V30 6275 C 588.352 -6.82955 0.0782458 0
M  V30 6276 O 588.04 -8.00897 0.694158 0
M  V30 6277 H 587.772 -0.619286 -0.271036 0
M  V30 6278 H 590.326 -2.0454 -0.187768 0
M  V30 6279 H 588.556 -2.85163 -2.61188 0
M  V30 6280 H 590.245 -3.23733 -2.44851 0
M  V30 6281 H 591.011 -4.8204 -0.535045 0
M  V30 6282 H 586.89 -4.30542 -1.64788 0
M  V30 6283 H 590.434 -6.95287 0.567612 0
M  V30 6284 H 586.331 -6.4314 -0.55151 0
M  V30 6285 H 587.099 -8.16352 0.592537 0
M  V30 6286 N 589.762 0.448376 -1.51087 0
M  V30 6287 C 591.011 1.19561 -1.62444 0
M  V30 6288 C 591.324 1.92602 -0.341151 0
M  V30 6289 O 592.53 2.69439 -0.333936 0
M  V30 6290 C 590.986 2.17373 -2.8684 0
M  V30 6291 C 590.594 1.5003 -4.22131 0
M  V30 6292 C 592.338 2.92597 -3.0755 0
M  V30 6293 C 590.245 2.46262 -5.37689 0
M  V30 6294 H 589.175 0.449975 -0.605011 0
M  V30 6295 H 591.826 0.463735 -1.77544 0
M  V30 6296 H 590.208 2.93948 -2.65349 0
M  V30 6297 H 591.382 0.790886 -4.53962 0
M  V30 6298 H 589.697 0.870011 -4.0721 0
M  V30 6299 H 592.294 3.64663 -3.91056 0
M  V30 6300 H 592.637 3.53306 -2.20183 0
M  V30 6301 H 593.17 2.23131 -3.29329 0
M  V30 6302 H 589.909 1.90258 -6.27281 0
M  V30 6303 H 589.429 3.15289 -5.10248 0
M  V30 6304 H 591.108 3.07623 -5.6919 0
M  V30 6305 N 591.24 1.41047 0.703093 0
M  V30 6306 C 592.17 1.45067 1.82969 0
M  V30 6307 C 593.151 0.31016 1.67248 0
M  V30 6308 O 594.336 0.520548 1.87093 0
M  V30 6309 C 591.466 1.32478 3.2104 0
M  V30 6310 C 590.42 2.44262 3.51454 0
M  V30 6311 C 589.746 2.16742 4.88801 0
M  V30 6312 C 591.046 3.86606 3.51189 0
M  V30 6313 H 592.74 2.39353 1.79863 0
M  V30 6314 H 590.286 1.15206 0.863919 0
M  V30 6315 H 592.239 1.33904 3.99559 0
M  V30 6316 H 590.963 0.346735 3.24754 0
M  V30 6317 H 589.622 2.42107 2.75282 0
M  V30 6318 H 589.27 1.17299 4.89132 0
M  V30 6319 H 588.97 2.91643 5.10116 0
M  V30 6320 H 590.494 2.19872 5.69639 0
M  V30 6321 H 591.908 3.90517 4.19725 0
M  V30 6322 H 590.305 4.61128 3.84033 0
M  V30 6323 H 591.375 4.15296 2.50315 0
M  V30 6324 N 592.718 -0.936591 1.26751 0
M  V30 6325 C 593.666 -2.0573 1.08527 0
M  V30 6326 C 594.66 -1.69397 0.0108784 0
M  V30 6327 O 595.866 -1.79215 0.167915 0
M  V30 6328 H 592.241 -0.673691 0.334133 0
M  V30 6329 H 594.212 -2.1825 2.03493 0
M  V30 6330 C 592.961 -3.39738 0.739845 0
M  V30 6331 H 592.284 -3.68174 1.55845 0
M  V30 6332 H 593.724 -4.18955 0.652149 0
M  V30 6333 C 592.183 -3.32292 -0.555288 0
M  V30 6334 O 592.713 -3.68794 -1.59229 0
M  V30 6335 N 590.919 -2.85394 -0.54762 0
M  V30 6336 H 590.466 -2.55886 0.296667 0
M  V30 6337 H 590.424 -2.80795 -1.41427 0
M  V30 6338 N 594.196 -1.08629 -1.14182 0
M  V30 6339 C 595.607 -0.838003 -1.66836 0
M  V30 6340 C 595.958 0.634885 -1.85644 0
M  V30 6341 O 595.083 1.49008 -1.56926 0
M  V30 6342 C 595.678 -1.51465 -3.03058 0
M  V30 6343 C 594.237 -1.31355 -3.52736 0
M  V30 6344 C 593.384 -1.57599 -2.28162 0
M  V30 6345 H 596.335 -1.24656 -0.982165 0
M  V30 6346 H 596.356 -0.943134 -3.68626 0
M  V30 6347 H 595.868 -2.58661 -2.89337 0
M  V30 6348 H 593.969 -0.262384 -3.71675 0
M  V30 6349 H 594.082 -2.04275 -4.33369 0
M  V30 6350 H 592.446 -0.997659 -2.34348 0
M  V30 6351 H 593.229 -2.66006 -2.17015 0
M  V30 6352 N 595.674 1.31259 -0.872281 0
M  V30 6353 C 597.09 1.49283 -0.564521 0
M  V30 6354 C 597.29 1.80243 0.900807 0
M  V30 6355 O 596.346 1.88246 1.68284 0
M  V30 6356 C 597.659 2.62503 -1.46673 0
M  V30 6357 C 599.207 2.76386 -1.46901 0
M  V30 6358 C 599.682 3.92705 -2.35684 0
M  V30 6359 N 601.173 3.99995 -2.33577 0
M  V30 6360 C 601.908 4.89276 -2.98992 0
M  V30 6361 N 601.404 5.83443 -3.73585 0
M  V30 6362 N 603.197 4.82541 -2.88289 0
M  V30 6363 H 595.348 1.09432 -1.82039 0
M  V30 6364 H 597.611 0.540949 -0.77851 0
M  V30 6365 H 597.317 2.46407 -2.50951 0
M  V30 6366 H 597.191 3.58695 -1.16696 0
M  V30 6367 H 599.578 2.91894 -0.433796 0
M  V30 6368 H 599.659 1.80853 -1.80903 0
M  V30 6369 H 599.303 3.77954 -3.39283 0
M  V30 6370 H 599.233 4.87549 -1.99006 0
M  V30 6371 H 601.724 3.32624 -1.7936 0
M  V30 6372 H 602.037 6.48303 -4.20622 0
M  V30 6373 H 600.382 5.83415 -3.77694 0
M  V30 6374 H 603.573 4.07951 -2.2955 0
M  V30 6375 H 603.746 5.51916 -3.39549 0
M  V30 6376 N 597.152 0.631951 1.44375 0
M  V30 6377 C 598.084 -0.110911 2.28931 0
M  V30 6378 C 599.097 -0.808086 1.41329 0
M  V30 6379 O 600.286 -0.669396 1.65473 0
M  V30 6380 C 597.386 -1.17928 3.1772 0
M  V30 6381 C 596.559 -0.564458 4.33743 0
M  V30 6382 C 595.618 -1.5269 5.0356 0
M  V30 6383 O 594.644 -1.04372 5.59549 0
M  V30 6384 N 595.846 -2.86123 5.05088 0
M  V30 6385 H 598.611 0.614758 2.93327 0
M  V30 6386 H 596.172 0.473171 1.54831 0
M  V30 6387 H 598.164 -1.82348 3.61291 0
M  V30 6388 H 596.734 -1.80717 2.55069 0
M  V30 6389 H 595.954 0.258373 3.93352 0
M  V30 6390 H 597.242 -0.134355 5.08623 0
M  V30 6391 H 596.64 -3.27959 4.60933 0
M  V30 6392 H 595.197 -3.45901 5.52445 0
M  V30 6393 N 598.631 -1.53133 0.372548 0
M  V30 6394 C 599.877 -2.01654 -0.215277 0
M  V30 6395 C 600.21 -1.25914 -1.47849 0
M  V30 6396 O 599.485 -0.3548 -1.91237 0
M  V30 6397 C 599.768 -3.56609 -0.500187 0
M  V30 6398 C 599.621 -4.43036 0.777145 0
M  V30 6399 C 600.94 -4.20528 -1.29786 0
M  V30 6400 H 598.059 -0.732991 -0.0767686 0
M  V30 6401 H 600.701 -1.83335 0.498814 0
M  V30 6402 H 598.851 -3.7235 -1.10852 0
M  V30 6403 H 600.523 -4.39079 1.41447 0
M  V30 6404 H 598.766 -4.10723 1.39604 0
M  V30 6405 H 599.437 -5.49424 0.532662 0
M  V30 6406 H 601.913 -4.08663 -0.783198 0
M  V30 6407 H 600.789 -5.28962 -1.46596 0
M  V30 6408 H 601.05 -3.77051 -2.30836 0
M  V30 6409 N 600.109 -0.101901 -1.5727 0
M  V30 6410 C 601.356 0.560197 -1.94597 0
M  V30 6411 C 601.684 1.67767 -0.984101 0
M  V30 6412 O 600.939 1.95699 -0.00489193 0
M  V30 6413 C 601.238 1.14898 -3.38427 0
M  V30 6414 C 600.904 0.154613 -4.50635 0
M  V30 6415 C 599.566 -0.118861 -4.81053 0
M  V30 6416 C 601.918 -0.523979 -5.18559 0
M  V30 6417 C 599.246 -1.0775 -5.76721 0
M  V30 6418 C 601.598 -1.47114 -6.15256 0
M  V30 6419 C 600.262 -1.75278 -6.44076 0
M  V30 6420 H 599.532 0.204991 -0.712081 0
M  V30 6421 H 602.179 -0.17918 -1.9066 0
M  V30 6422 H 600.484 1.96476 -3.38976 0
M  V30 6423 H 602.181 1.66909 -3.64613 0
M  V30 6424 H 598.771 0.377948 -4.2693 0
M  V30 6425 H 602.955 -0.325851 -4.95229 0
M  V30 6426 H 598.211 -1.30263 -5.97362 0
M  V30 6427 H 602.385 -2.00274 -6.66981 0
M  V30 6428 H 600.012 -2.49717 -7.18015 0
M  V30 6429 N 601.587 1.56661 0.17182 0
M  V30 6430 C 602.535 1.97289 1.23207 0
M  V30 6431 C 603.529 0.861566 1.45854 0
M  V30 6432 O 604.735 1.04668 1.4644 0
M  V30 6433 H 601.11 0.627681 0.41415 0
M  V30 6434 H 603.081 2.85662 0.862542 0
M  V30 6435 C 601.83 2.34849 2.564 0
M  V30 6436 H 601.153 3.19903 2.39797 0
M  V30 6437 H 602.593 2.67121 3.29276 0
M  V30 6438 C 601.052 1.19172 3.15119 0
M  V30 6439 O 601.582 0.479113 3.98833 0
M  V30 6440 N 599.788 0.962415 2.74201 0
M  V30 6441 H 599.335 1.54365 2.06226 0
M  V30 6442 H 599.293 0.190272 3.13824 0
M  V30 6443 N 603.065 -0.440357 1.51323 0
M  V30 6444 C 603.995 -1.54174 1.75364 0
M  V30 6445 C 604.976 -1.59039 0.603375 0
M  V30 6446 O 606.161 -1.74815 0.845774 0
M  V30 6447 C 603.291 -2.92277 1.87593 0
M  V30 6448 C 602.245 -3.02274 3.03009 0
M  V30 6449 C 601.571 -4.42327 3.00418 0
M  V30 6450 C 602.871 -2.76634 4.43024 0
M  V30 6451 H 604.565 -1.34307 2.67585 0
M  V30 6452 H 602.111 -0.644678 1.28763 0
M  V30 6453 H 604.064 -3.69284 2.02995 0
M  V30 6454 H 602.788 -3.13369 0.920179 0
M  V30 6455 H 601.447 -2.27706 2.87307 0
M  V30 6456 H 601.095 -4.60382 2.02626 0
M  V30 6457 H 600.795 -4.49946 3.77918 0
M  V30 6458 H 602.319 -5.21312 3.17909 0
M  V30 6459 H 603.733 -3.43376 4.59093 0
M  V30 6460 H 602.13 -2.95666 5.22208 0
M  V30 6461 H 603.2 -1.72262 4.5327 0
M  V30 6462 N 604.543 -1.41418 -0.695603 0
M  V30 6463 C 605.473 -1.46035 -1.82197 0
M  V30 6464 C 606.454 -0.319025 -1.67082 0
M  V30 6465 O 607.639 -0.530462 -1.86815 0
M  V30 6466 C 604.769 -1.34179 -3.20333 0
M  V30 6467 C 603.723 -2.46123 -3.50154 0
M  V30 6468 C 603.049 -2.19332 -4.87645 0
M  V30 6469 C 604.349 -3.88463 -3.49133 0
M  V30 6470 H 606.043 -2.40303 -1.78591 0
M  V30 6471 H 603.589 -1.15663 -0.857797 0
M  V30 6472 H 605.542 -1.36021 -3.98844 0
M  V30 6473 H 604.266 -0.363952 -3.24566 0
M  V30 6474 H 602.925 -2.43563 -2.73994 0
M  V30 6475 H 602.573 -1.19891 -4.88503 0
M  V30 6476 H 602.273 -2.94344 -5.08562 0
M  V30 6477 H 603.797 -2.22889 -5.68465 0
M  V30 6478 H 605.211 -3.92738 -4.17648 0
M  V30 6479 H 603.608 -4.63158 -3.81582 0
M  V30 6480 H 604.678 -4.16617 -2.48109 0
M  V30 6481 N 606.021 0.929856 -1.27246 0
M  V30 6482 C 606.968 2.03017 -1.09785 0
M  V30 6483 C 607.938 1.661 0.000456744 0
M  V30 6484 O 609.123 1.90116 -0.161462 0
M  V30 6485 C 606.263 3.36878 -0.748816 0
M  V30 6486 C 605.376 3.86763 -1.92453 0
M  V30 6487 C 604.511 5.09061 -1.51758 0
M  V30 6488 C 603.55 5.51237 -2.66091 0
M  V30 6489 N 602.687 6.64732 -2.25999 0
M  V30 6490 H 607.527 2.17285 -2.03939 0
M  V30 6491 H 605.064 1.06448 -1.01524 0
M  V30 6492 H 607.022 4.13855 -0.527283 0
M  V30 6493 H 605.652 3.22424 0.155771 0
M  V30 6494 H 604.704 3.06086 -2.25867 0
M  V30 6495 H 606.016 4.13994 -2.78227 0
M  V30 6496 H 605.17 5.93532 -1.25716 0
M  V30 6497 H 603.909 4.83602 -0.630896 0
M  V30 6498 H 602.914 4.65316 -2.92849 0
M  V30 6499 H 604.139 5.78692 -3.55377 0
M  V30 6500 H 602.085 6.40935 -1.3978 0
M  V30 6501 H 602.002 6.91607 -3.05313 0
M  V30 6502 H 603.27 7.52549 -2.03199 0
M  V30 6503 N 607.499 1.09233 1.13605 0
M  V30 6504 C 608.776 0.739633 1.81077 0
M  V30 6505 C 609.156 -0.775595 1.96336 0
M  V30 6506 O 608.504 -1.69726 1.52988 0
M  V30 6507 C 608.714 1.47636 3.16235 0
M  V30 6508 C 610.062 1.64087 3.91613 0
M  V30 6509 O 611.086 1.43871 3.25852 0
M  V30 6510 O 609.945 1.97511 5.0956 0
M  V30 6511 H 607.039 0.265464 0.783236 0
M  V30 6512 H 609.585 1.19441 1.20549 0
M  V30 6513 H 608.357 2.50818 3.00344 0
M  V30 6514 H 607.98 1.01362 3.84462 0
M  V30 6515 N 608.977 -1.30795 0.87923 0
M  V30 6516 C 610.225 -1.95974 0.493809 0
M  V30 6517 C 610.546 -1.69787 -0.959021 0
M  V30 6518 O 609.816 -1.01832 -1.67353 0
M  V30 6519 H 608.396 -0.725083 0.179622 0
M  V30 6520 H 611.058 -1.59432 1.12105 0
M  V30 6521 H 610.154 -3.05058 0.659263 0
M  V30 6522 N 610.455 -0.639598 -1.44038 0
M  V30 6523 C 611.866 -0.228866 -1.85292 0
M  V30 6524 C 612.217 1.22161 -1.53529 0
M  V30 6525 O 611.342 1.93064 -0.977518 0
M  V30 6526 C 611.937 -0.408592 -3.36327 0
M  V30 6527 C 610.496 -0.0522953 -3.76364 0
M  V30 6528 C 609.643 -0.717959 -2.67844 0
M  V30 6529 H 612.594 -0.844194 -1.34384 0
M  V30 6530 H 612.615 0.349968 -3.78887 0
M  V30 6531 H 612.127 -1.46435 -3.59414 0
M  V30 6532 H 610.228 1.0014 -3.58891 0
M  V30 6533 H 610.341 -0.468261 -4.76806 0
M  V30 6534 H 608.705 -0.152459 -2.54243 0
M  V30 6535 H 609.488 -1.77648 -2.93762 0
M  V30 6536 N 611.933 1.52934 -0.380664 0
M  V30 6537 C 612.843 2.29921 0.466192 0
M  V30 6538 C 613.859 1.36488 1.07922 0
M  V30 6539 O 615.035 1.69553 1.0869 0
M  V30 6540 C 612.1 3.08468 1.58266 0
M  V30 6541 C 611.161 4.17595 0.995627 0
M  V30 6542 C 610.394 4.92387 2.05889 0
M  V30 6543 O 610.617 4.67184 3.27254 0
M  V30 6544 O 609.551 5.77949 1.68102 0
M  V30 6545 H 613.377 3.03274 -0.160735 0
M  V30 6546 H 610.962 1.48698 -0.144617 0
M  V30 6547 H 612.844 3.57469 2.23145 0
M  V30 6548 H 611.519 2.37937 2.19471 0
M  V30 6549 H 610.426 3.72811 0.310332 0
M  V30 6550 H 611.759 4.90336 0.427918 0
M  V30 6551 N 613.412 0.11024 1.57214 0
M  V30 6552 C 614.661 -0.549638 1.94067 0
M  V30 6553 C 614.974 -1.68388 0.995234 0
M  V30 6554 O 616.18 -2.40593 1.25807 0
M  V30 6555 C 614.636 -1.02912 3.44873 0
M  V30 6556 C 614.244 0.0761861 4.47935 0
M  V30 6557 C 615.988 -1.66087 3.9066 0
M  V30 6558 C 613.895 -0.419502 5.8991 0
M  V30 6559 H 612.825 -0.209092 0.724428 0
M  V30 6560 H 615.476 0.188683 1.82527 0
M  V30 6561 H 613.858 -1.82159 3.51616 0
M  V30 6562 H 615.032 0.852185 4.52851 0
M  V30 6563 H 613.347 0.614052 4.11847 0
M  V30 6564 H 615.944 -2.04272 4.94143 0
M  V30 6565 H 616.287 -2.53591 3.30148 0
M  V30 6566 H 616.82 -0.933959 3.86681 0
M  V30 6567 H 613.559 0.419277 6.54158 0
M  V30 6568 H 613.079 -1.16217 5.88433 0
M  V30 6569 H 614.758 -0.883577 6.40938 0
M  V30 6570 N 614.89 -1.56749 -0.16351 0
M  V30 6571 C 616.138 -1.82074 -0.87713 0
M  V30 6572 C 616.459 -0.688503 -1.82441 0
M  V30 6573 O 615.729 0.291085 -1.93725 0
M  V30 6574 H 614.309 -0.671677 -0.326893 0
M  V30 6575 H 616.971 -1.9423 -0.161459 0
M  V30 6576 H 616.067 -2.76407 -1.44934 0
M  V30 6577 N 616.368 0.432326 -1.51554 0
M  V30 6578 C 617.298 1.53242 -1.76179 0
M  V30 6579 C 618.279 1.58717 -0.611801 0
M  V30 6580 O 619.464 1.74364 -0.855033 0
M  V30 6581 C 616.594 2.91278 -1.89141 0
M  V30 6582 C 615.548 3.00663 -3.04608 0
M  V30 6583 C 614.874 4.40728 -3.02759 0
M  V30 6584 C 616.174 2.74281 -4.44485 0
M  V30 6585 H 617.868 1.32886 -2.68294 0
M  V30 6586 H 615.414 0.637841 -1.29103 0
M  V30 6587 H 617.367 3.68203 -2.04951 0
M  V30 6588 H 616.091 3.12877 -0.936785 0
M  V30 6589 H 614.75 2.26179 -2.88511 0
M  V30 6590 H 614.398 4.59301 -2.05065 0
M  V30 6591 H 614.098 4.47936 -3.80299 0
M  V30 6592 H 615.622 5.19619 -3.20669 0
M  V30 6593 H 617.036 3.40936 -4.60907 0
M  V30 6594 H 615.433 2.92893 -5.23769 0
M  V30 6595 H 616.503 1.69856 -4.54177 0
M  V30 6596 N 617.846 1.41785 0.688094 0
M  V30 6597 C 619.262 1.24419 0.999608 0
M  V30 6598 C 619.462 0.138868 2.01021 0
M  V30 6599 O 618.518 -0.494283 2.47615 0
M  V30 6600 C 619.831 2.59625 1.51709 0
M  V30 6601 C 621.379 2.66869 1.63554 0
M  V30 6602 C 621.854 4.0241 2.18702 0
M  V30 6603 N 623.345 4.04295 2.26053 0
M  V30 6604 C 624.08 5.05977 2.69768 0
M  V30 6605 N 623.576 6.18047 3.13033 0
M  V30 6606 N 625.369 4.93336 2.69398 0
M  V30 6607 H 617.52 2.12392 0.0187427 0
M  V30 6608 H 619.783 0.945347 0.0708673 0
M  V30 6609 H 619.489 3.41297 0.849059 0
M  V30 6610 H 619.363 2.82628 2.49803 0
M  V30 6611 H 621.75 1.8555 2.29467 0
M  V30 6612 H 621.831 2.47668 0.639857 0
M  V30 6613 H 621.475 4.8418 1.53402 0
M  V30 6614 H 621.405 4.18955 3.19037 0
M  V30 6615 H 623.896 3.23383 1.9553 0
M  V30 6616 H 624.209 6.91498 3.45038 0
M  V30 6617 H 622.554 6.21572 3.10923 0
M  V30 6618 H 625.745 4.04865 2.34952 0
M  V30 6619 H 625.918 5.72717 3.03148 0
M  V30 6620 N 619.324 -0.923095 1.27737 0
M  V30 6621 C 620.254 -2.04124 1.13383 0
M  V30 6622 C 621.235 -1.70066 0.0340658 0
M  V30 6623 O 622.42 -1.93068 0.209383 0
M  V30 6624 C 619.55 -3.3831 0.785097 0
M  V30 6625 C 618.504 -3.86496 1.8386 0
M  V30 6626 C 617.83 -5.1754 1.34373 0
M  V30 6627 C 619.13 -4.09381 3.24353 0
M  V30 6628 H 620.824 -2.1639 2.06919 0
M  V30 6629 H 618.37 -1.03976 0.996243 0
M  V30 6630 H 620.323 -4.16016 0.671485 0
M  V30 6631 H 619.047 -3.2607 -0.185969 0
M  V30 6632 H 617.706 -3.10987 1.9412 0
M  V30 6633 H 617.354 -5.01696 0.361989 0
M  V30 6634 H 617.054 -5.50751 2.04811 0
M  V30 6635 H 618.578 -5.97811 1.24315 0
M  V30 6636 H 619.992 -4.77641 3.17067 0
M  V30 6637 H 618.389 -4.53906 3.92542 0
M  V30 6638 H 619.459 -3.14515 3.69064 0
M  V30 6639 N 620.802 -1.09834 -1.13024 0
M  V30 6640 C 622.049 -0.83695 -1.84395 0
M  V30 6641 C 622.377 0.637463 -1.83757 0
M  V30 6642 O 621.632 1.48554 -1.27398 0
M  V30 6643 C 621.931 -1.32263 -3.32026 0
M  V30 6644 C 621.597 -2.80739 -3.52841 0
M  V30 6645 C 620.259 -3.21286 -3.5823 0
M  V30 6646 C 622.611 -3.76449 -3.60466 0
M  V30 6647 C 619.939 -4.56308 -3.68781 0
M  V30 6648 C 622.291 -5.11266 -3.72546 0
M  V30 6649 C 620.955 -5.51397 -3.76189 0
M  V30 6650 H 620.225 -0.306262 -0.674748 0
M  V30 6651 H 622.872 -1.37385 -1.33408 0
M  V30 6652 H 621.177 -0.705618 -3.85394 0
M  V30 6653 H 622.874 -1.09695 -3.85705 0
M  V30 6654 H 619.464 -2.48363 -3.49305 0
M  V30 6655 H 623.648 -3.46234 -3.55578 0
M  V30 6656 H 618.904 -4.86832 -3.69871 0
M  V30 6657 H 623.078 -5.85279 -3.77388 0
M  V30 6658 H 620.705 -6.56017 -3.84117 0
M  V30 6659 N 622.28 1.30327 -0.886154 0
M  V30 6660 C 623.227 2.28099 -0.352069 0
M  V30 6661 C 624.197 1.56433 0.558397 0
M  V30 6662 O 625.382 1.84492 0.486561 0
M  V30 6663 C 622.522 3.42456 0.426346 0
M  V30 6664 C 621.635 4.28938 -0.513472 0
M  V30 6665 C 620.77 5.30458 0.280657 0
M  V30 6666 C 619.809 6.0859 -0.654556 0
M  V30 6667 N 618.946 7.02022 0.104322 0
M  V30 6668 H 623.786 2.73166 -1.19097 0
M  V30 6669 H 621.323 1.34367 -0.598662 0
M  V30 6670 H 623.281 4.07518 0.893587 0
M  V30 6671 H 621.911 2.98455 1.22981 0
M  V30 6672 H 620.963 3.64173 -1.09921 0
M  V30 6673 H 622.275 4.83399 -1.2299 0
M  V30 6674 H 621.429 6.01273 0.8097 0
M  V30 6675 H 620.168 4.76693 1.03029 0
M  V30 6676 H 619.173 5.36651 -1.19522 0
M  V30 6677 H 620.398 6.64443 -1.4033 0
M  V30 6678 H 618.344 6.50645 0.836472 0
M  V30 6679 H 618.261 7.53979 -0.552453 0
M  V30 6680 H 619.529 7.77077 0.614069 0
M  V30 6681 N 623.758 0.647228 1.43697 0
M  V30 6682 C 625.035 0.0883758 1.954 0
M  V30 6683 C 625.415 -1.39006 1.58873 0
M  V30 6684 O 624.763 -2.11255 0.87083 0
M  V30 6685 C 624.973 0.328263 3.47453 0
M  V30 6686 C 626.321 0.230009 4.23977 0
M  V30 6687 O 627.345 0.260496 3.55246 0
M  V30 6688 O 626.204 0.148615 5.46298 0
M  V30 6689 H 623.298 -0.0130683 0.826897 0
M  V30 6690 H 625.844 0.72005 1.53666 0
M  V30 6691 H 624.616 1.3535 3.67146 0
M  V30 6692 H 624.239 -0.336772 3.96171 0
M  V30 6693 N 625.236 -1.5273 0.388769 0
M  V30 6694 C 626.482 -2.01871 -0.193877 0
M  V30 6695 C 626.815 -1.27475 -1.46505 0
M  V30 6696 O 626.09 -0.375063 -1.90849 0
M  V30 6697 C 626.373 -3.5712 -0.462336 0
M  V30 6698 C 626.226 -4.42186 0.824091 0
M  V30 6699 C 627.545 -4.21881 -1.25319 0
M  V30 6700 H 624.664 -0.733764 -0.0689899 0
M  V30 6701 H 627.306 -1.82796 0.518231 0
M  V30 6702 H 625.456 -3.73504 -1.06896 0
M  V30 6703 H 627.128 -4.37554 1.46096 0
M  V30 6704 H 625.371 -4.09219 1.43952 0
M  V30 6705 H 626.042 -5.48828 0.590905 0
M  V30 6706 H 628.518 -4.0947 -0.73981 0
M  V30 6707 H 627.394 -5.30487 -1.40977 0
M  V30 6708 H 627.655 -3.79478 -2.26824 0
M  V30 6709 N 626.714 -0.118576 -1.57153 0
M  V30 6710 C 628.125 0.40687 -1.82213 0
M  V30 6711 C 628.476 1.66636 -1.03571 0
M  V30 6712 O 627.601 2.14682 -0.272171 0
M  V30 6713 C 628.196 0.744949 -3.30509 0
M  V30 6714 C 626.755 1.21503 -3.5625 0
M  V30 6715 C 625.902 0.223511 -2.76398 0
M  V30 6716 H 628.853 -0.343712 -1.54933 0
M  V30 6717 H 628.874 1.6024 -3.45114 0
M  V30 6718 H 628.386 -0.171911 -3.87719 0
M  V30 6719 H 626.487 2.1488 -3.04396 0
M  V30 6720 H 626.6 1.16065 -4.64829 0
M  V30 6721 H 624.964 0.71046 -2.44591 0
M  V30 6722 H 625.747 -0.686439 -3.36367 0
M  V30 6723 N 628.193 1.56834 0.155195 0
M  V30 6724 C 629.47 1.73799 0.897395 0
M  V30 6725 C 629.85 0.684379 1.99698 0
M  V30 6726 O 629.198 -0.298111 2.26547 0
M  V30 6727 C 629.408 3.17572 1.44737 0
M  V30 6728 C 630.756 3.79014 1.91399 0
M  V30 6729 O 631.78 3.20951 1.54496 0
M  V30 6730 O 630.639 4.80998 2.59429 0
M  V30 6731 H 627.733 0.710329 0.423511 0
M  V30 6732 H 630.279 1.69107 0.141761 0
M  V30 6733 H 629.051 3.85749 0.656741 0
M  V30 6734 H 628.674 3.26657 2.26674 0
M  V30 6735 N 629.671 -0.424282 1.51781 0
M  V30 6736 C 630.896 -1.19928 1.6921 0
M  V30 6737 C 631.321 -1.8392 0.394355 0
M  V30 6738 O 630.679 -1.69371 -0.646778 0
M  V30 6739 C 630.727 -2.24937 2.81843 0
M  V30 6740 O 629.831 -3.3073 2.46356 0
M  V30 6741 H 629.172 -0.35078 0.563781 0
M  V30 6742 H 631.702 -0.499401 1.98412 0
M  V30 6743 H 631.712 -2.69512 3.06312 0
M  V30 6744 H 630.387 -1.77742 3.76006 0
M  V30 6745 H 628.964 -2.9154 2.32505 0
M  V30 6746 N 631.149 -1.42148 -0.680565 0
M  V30 6747 C 632.565 -1.24947 -0.992995 0
M  V30 6748 C 632.765 -0.149527 -2.00944 0
M  V30 6749 O 631.821 0.481145 -2.47873 0
M  V30 6750 C 633.134 -2.60426 -1.5033 0
M  V30 6751 C 634.682 -2.67733 -1.62137 0
M  V30 6752 C 635.157 -4.03564 -2.16565 0
M  V30 6753 N 636.648 -4.05488 -2.23905 0
M  V30 6754 C 637.383 -5.07401 -2.67081 0
M  V30 6755 N 636.879 -6.19698 -3.09751 0
M  V30 6756 N 638.672 -4.94758 -2.66778 0
M  V30 6757 H 630.823 -2.12399 -0.0074788 0
M  V30 6758 H 633.086 -0.94571 -0.0658529 0
M  V30 6759 H 632.792 -3.41743 -0.830947 0
M  V30 6760 H 632.666 -2.83949 -2.483 0
M  V30 6761 H 635.053 -1.86765 -2.2848 0
M  V30 6762 H 635.134 -2.48004 -0.626713 0
M  V30 6763 H 634.778 -4.84987 -1.50833 0
M  V30 6764 H 634.708 -4.20641 -3.1681 0
M  V30 6765 H 637.199 -3.24415 -1.93812 0
M  V30 6766 H 637.512 -6.93318 -3.41365 0
M  V30 6767 H 635.857 -6.23212 -3.07623 0
M  V30 6768 H 639.048 -4.06105 -2.32801 0
M  V30 6769 H 639.221 -5.74317 -3.00107 0
M  V30 6770 N 632.627 0.916307 -1.28225 0
M  V30 6771 C 633.876 1.65975 -1.14608 0
M  V30 6772 C 634.189 1.93204 0.305191 0
M  V30 6773 O 635.395 2.65611 0.562432 0
M  V30 6774 C 633.851 2.98989 -2.00333 0
M  V30 6775 C 633.459 2.79417 -3.50186 0
M  V30 6776 C 635.203 3.76856 -1.95397 0
M  V30 6777 C 633.11 4.08056 -4.28071 0
M  V30 6778 H 632.04 0.622587 -0.425324 0
M  V30 6779 H 634.691 1.01705 -1.52736 0
M  V30 6780 H 633.073 3.6438 -1.5506 0
M  V30 6781 H 634.247 2.22723 -4.034 0
M  V30 6782 H 632.562 2.14966 -3.56621 0
M  V30 6783 H 635.159 4.72203 -2.50856 0
M  V30 6784 H 635.502 4.05776 -0.930137 0
M  V30 6785 H 636.035 3.1828 -2.38626 0
M  V30 6786 H 632.774 3.8431 -5.31024 0
M  V30 6787 H 632.294 4.64371 -3.79631 0
M  V30 6788 H 633.973 4.76333 -4.37854 0
M  V30 6789 N 634.105 1.10431 1.1244 0
M  V30 6790 C 635.035 0.775143 2.20258 0
M  V30 6791 C 636.016 -0.25186 1.68225 0
M  V30 6792 O 637.201 -0.117637 1.93843 0
M  V30 6793 C 634.331 0.206133 3.46688 0
M  V30 6794 C 633.285 1.16382 4.11873 0
M  V30 6795 C 632.611 0.456014 5.32752 0
M  V30 6796 C 633.911 2.5104 4.58013 0
M  V30 6797 H 635.605 1.67665 2.4805 0
M  V30 6798 H 633.151 0.807595 1.19222 0
M  V30 6799 H 635.104 -0.036291 4.21384 0
M  V30 6800 H 633.828 -0.730614 3.18323 0
M  V30 6801 H 632.487 1.39169 3.39157 0
M  V30 6802 H 632.135 -0.485203 5.00654 0
M  V30 6803 H 631.835 1.09466 5.77314 0
M  V30 6804 H 633.359 0.222135 6.10196 0
M  V30 6805 H 634.773 2.32401 5.24083 0
M  V30 6806 H 633.17 3.10789 5.13352 0
M  V30 6807 H 634.24 3.11039 3.71998 0
M  V30 6808 N 635.583 -1.29855 0.893053 0
M  V30 6809 C 636.829 -1.96116 0.516349 0
M  V30 6810 C 637.162 -1.70281 -0.933695 0
M  V30 6811 O 636.437 -1.01205 -1.66096 0
M  V30 6812 C 636.72 -3.51068 0.801455 0
M  V30 6813 C 636.573 -3.86387 2.30272 0
M  V30 6814 C 637.892 -4.39186 0.283423 0
M  V30 6815 H 635.011 -0.712335 0.189072 0
M  V30 6816 H 637.653 -1.53587 1.11852 0
M  V30 6817 H 635.803 -3.87424 0.288949 0
M  V30 6818 H 637.475 -3.60012 2.88425 0
M  V30 6819 H 635.718 -3.34167 2.76613 0
M  V30 6820 H 636.389 -4.94512 2.45279 0
M  V30 6821 H 638.865 -4.09785 0.722187 0
M  V30 6822 H 637.741 -5.46505 0.512169 0
M  V30 6823 H 638.002 -4.34511 -0.815643 0
M  V30 6824 N 637.061 -0.65484 -1.43351 0
M  V30 6825 C 638.301 -0.172514 -2.03671 0
M  V30 6826 C 638.665 1.19154 -1.50553 0
M  V30 6827 O 639.866 1.76737 -2.02528 0
M  V30 6828 C 638.137 -0.183982 -3.56926 0
M  V30 6829 S 639.696 0.230262 -4.38195 0
M  V30 6830 H 636.514 -0.0727503 -0.707268 0
M  V30 6831 H 639.116 -0.863537 -1.75395 0
M  V30 6832 H 637.82 -1.17945 -3.93087 0
M  V30 6833 H 637.351 0.527527 -3.89847 0
M  V30 6834 H 639.366 1.46874 -4.73965 0
M  V30 6835 N 638.539 1.52521 -0.396863 0
M  V30 6836 C 639.787 2.01274 0.182536 0
M  V30 6837 C 640.108 1.28485 1.46685 0
M  V30 6838 O 639.378 0.407134 1.91623 0
M  V30 6839 H 637.958 0.743671 0.0704442 0
M  V30 6840 H 640.62 1.87547 -0.530289 0
M  V30 6841 H 639.716 3.09687 0.387385 0
M  V30 6842 N 640.017 0.126909 1.57088 0
M  V30 6843 C 641.265 -0.528123 1.95078 0
M  V30 6844 C 641.586 -1.66708 1.0116 0
M  V30 6845 O 640.856 -1.95777 0.0693527 0
M  V30 6846 H 639.436 -0.198087 0.720257 0
M  V30 6847 H 642.098 0.197703 1.93895 0
M  V30 6848 H 641.194 -0.917507 2.98309 0
M  V30 6849 N 641.495 -1.56914 -0.146875 0
M  V30 6850 C 642.772 -1.74273 -0.888165 0
M  V30 6851 C 643.152 -0.69496 -1.99333 0
M  V30 6852 O 642.5 0.286093 -2.26702 0
M  V30 6853 C 642.71 -3.18336 -1.43051 0
M  V30 6854 C 644.058 -3.80024 -1.89387 0
M  V30 6855 O 645.082 -3.21765 -1.52792 0
M  V30 6856 O 643.941 -4.82367 -2.56874 0
M  V30 6857 H 641.035 -0.712565 -0.419738 0
M  V30 6858 H 643.581 -1.6918 -0.132791 0
M  V30 6859 H 642.353 -3.86092 -0.636274 0
M  V30 6860 H 641.976 -3.27854 -2.24938 0
M  V30 6861 N 642.974 0.416227 -1.52004 0
M  V30 6862 C 644.222 1.16153 -1.65387 0
M  V30 6863 C 644.543 1.91208 -0.382669 0
M  V30 6864 O 643.813 1.86413 0.602231 0
M  V30 6865 H 642.393 0.431765 -0.60958 0
M  V30 6866 H 645.055 0.475151 -1.89019 0
M  V30 6867 H 644.151 1.87952 -2.4916 0
M  V30 6868 N 644.452 1.42507 0.673017 0
M  V30 6869 C 645.68 1.46473 1.46128 0
M  V30 6870 C 646.095 0.0765912 1.88645 0
M  V30 6871 O 645.452 -0.909057 1.58248 0
M  V30 6872 C 645.503 2.39339 2.70923 0
M  V30 6873 O 645.224 3.72752 2.3019 0
M  V30 6874 C 646.725 2.52343 3.64469 0
M  V30 6875 H 643.945 0.49812 0.449575 0
M  V30 6876 H 646.489 1.87041 0.826802 0
M  V30 6877 H 644.644 2.02019 3.30556 0
M  V30 6878 H 645.058 4.22503 3.10791 0
M  V30 6879 H 646.532 3.2144 4.48754 0
M  V30 6880 H 647.009 1.56189 4.1049 0
M  V30 6881 H 647.615 2.90392 3.10729 0
M  V30 6882 N 645.93 -0.909495 1.28709 0
M  V30 6883 C 647.176 -1.66151 1.16283 0
M  V30 6884 C 647.509 -1.92067 -0.287069 0
M  V30 6885 O 646.784 -1.52409 -1.20837 0
M  V30 6886 C 647.067 -3.01676 1.9663 0
M  V30 6887 C 646.92 -2.82888 3.49707 0
M  V30 6888 C 648.239 -4.02274 1.78504 0
M  V30 6889 H 645.358 -0.602966 0.423793 0
M  V30 6890 H 648 -1.05418 1.58073 0
M  V30 6891 H 646.15 -3.53515 1.61119 0
M  V30 6892 H 647.822 -2.38026 3.95147 0
M  V30 6893 H 646.065 -2.17862 3.75125 0
M  V30 6894 H 646.736 -3.79147 4.01187 0
M  V30 6895 H 649.212 -3.59511 2.09503 0
M  V30 6896 H 648.088 -4.95056 2.37088 0
M  V30 6897 H 648.349 -4.35903 0.737647 0
M  V30 6898 N 647.408 -1.11026 -1.11852 0
M  V30 6899 C 648.656 -0.854769 -1.83134 0
M  V30 6900 C 648.977 0.621375 -1.84835 0
M  V30 6901 O 648.247 1.45129 -1.31584 0
M  V30 6902 H 646.827 -0.313229 -0.678157 0
M  V30 6903 H 649.489 -1.40178 -1.35411 0
M  V30 6904 H 648.585 -1.22311 -2.87135 0
M  V30 6905 N 648.886 1.2938 -0.899927 0
M  V30 6906 C 650.132 1.96206 -0.536153 0
M  V30 6907 C 650.487 1.69647 0.90761 0
M  V30 6908 O 649.78 0.999089 1.63489 0
M  V30 6909 C 649.974 3.49114 -0.765113 0
M  V30 6910 C 649.803 3.90538 -2.22958 0
M  V30 6911 C 648.573 4.15395 -2.87706 0
M  V30 6912 C 650.771 4.0224 -3.20479 0
M  V30 6913 N 648.753 4.43389 -4.24593 0
M  V30 6914 C 650.124 4.34288 -4.42486 0
M  V30 6915 C 652.179 3.84716 -3.16066 0
M  V30 6916 C 650.882 4.50638 -5.6064 0
M  V30 6917 C 652.908 4.02276 -4.33507 0
M  V30 6918 C 652.27 4.34684 -5.54283 0
M  V30 6919 H 648.369 0.742364 -0.245804 0
M  V30 6920 H 650.953 1.56314 -1.16078 0
M  V30 6921 H 649.124 3.88028 -0.169861 0
M  V30 6922 H 650.856 4.03035 -0.366751 0
M  V30 6923 H 647.611 4.09164 -2.385 0
M  V30 6924 H 648.035 4.61494 -4.95331 0
M  V30 6925 H 652.677 3.58724 -2.23778 0
M  V30 6926 H 650.395 4.75467 -6.5342 0
M  V30 6927 H 653.981 3.90169 -4.31578 0
M  V30 6928 H 652.861 4.47988 -6.43643 0
M  V30 6929 N 650.364 0.662433 1.43002 0
M  V30 6930 C 651.613 0.176873 2.00923 0
M  V30 6931 C 651.926 -1.21954 1.52927 0
M  V30 6932 O 653.132 -1.80081 2.03182 0
M  V30 6933 C 651.588 0.265379 3.5892 0
M  V30 6934 C 651.196 1.66507 4.15908 0
M  V30 6935 C 652.94 -0.162103 4.2419 0
M  V30 6936 C 650.847 1.707 5.66229 0
M  V30 6937 H 649.777 0.0623627 0.751417 0
M  V30 6938 H 652.428 0.825813 1.63868 0
M  V30 6939 H 650.81 -0.451235 3.93421 0
M  V30 6940 H 651.984 2.40777 3.92891 0
M  V30 6941 H 650.299 2.03932 3.63044 0
M  V30 6942 H 652.896 -0.150745 5.34487 0
M  V30 6943 H 653.239 -1.19519 3.98774 0
M  V30 6944 H 653.772 0.503075 3.94606 0
M  V30 6945 H 650.511 2.7195 5.96426 0
M  V30 6946 H 650.031 1.00768 5.91275 0
M  V30 6947 H 651.71 1.45487 6.3043 0
M  V30 6948 N 651.842 -1.52309 0.404946 0
M  V30 6949 C 652.772 -2.29805 -0.41376 0
M  V30 6950 C 653.753 -1.3384 -1.0498 0
M  V30 6951 O 654.938 -1.62745 -1.05961 0
M  V30 6952 C 652.068 -3.11639 -1.53292 0
M  V30 6953 C 651.022 -4.15616 -1.02211 0
M  V30 6954 C 650.348 -4.8577 -2.23455 0
M  V30 6955 C 651.648 -5.2224 -0.0790725 0
M  V30 6956 H 653.342 -2.98493 0.232878 0
M  V30 6957 H 650.888 -1.43552 0.113441 0
M  V30 6958 H 652.841 -3.64618 -2.11262 0
M  V30 6959 H 651.565 -2.40712 -2.20738 0
M  V30 6960 H 650.224 -3.63641 -0.46484 0
M  V30 6961 H 649.872 -4.11376 -2.89445 0
M  V30 6962 H 649.572 -5.56058 -1.89929 0
M  V30 6963 H 651.096 -5.4156 -2.82038 0
M  V30 6964 H 652.51 -5.70485 -0.567438 0
M  V30 6965 H 650.907 -5.99867 0.167167 0
M  V30 6966 H 651.977 -4.77078 0.867447 0
M  V30 6967 N 653.32 -0.135238 -1.57019 0
M  V30 6968 C 654.23 0.822226 -2.19719 0
M  V30 6969 C 655.246 1.28057 -1.17802 0
M  V30 6970 O 656.422 1.3402 -1.50335 0
M  V30 6971 C 653.487 2.0484 -2.79717 0
M  V30 6972 C 652.548 1.64042 -3.96723 0
M  V30 6973 C 651.781 2.80814 -4.53849 0
M  V30 6974 O 652.004 3.967 -4.0986 0
M  V30 6975 O 650.938 2.56963 -5.44292 0
M  V30 6976 H 654.764 0.318552 -3.02025 0
M  V30 6977 H 652.349 0.0912021 -1.49121 0
M  V30 6978 H 654.231 2.76622 -3.17897 0
M  V30 6979 H 652.906 2.54182 -2.00432 0
M  V30 6980 H 651.813 0.893182 -3.63281 0
M  V30 6981 H 653.146 1.19426 -4.77492 0
M  V30 6982 N 654.798 1.5699 0.138552 0
M  V30 6983 C 656.026 1.87976 0.864437 0
M  V30 6984 C 656.441 0.724372 1.74351 0
M  V30 6985 O 655.798 -0.305575 1.79924 0
M  V30 6986 C 655.849 3.18276 1.71414 0
M  V30 6987 O 655.57 4.29365 0.870487 0
M  V30 6988 C 657.071 3.62834 2.54688 0
M  V30 6989 H 654.291 0.622878 0.249528 0
M  V30 6990 H 656.835 2.04094 0.128805 0
M  V30 6991 H 654.99 3.03886 2.40274 0
M  V30 6992 H 655.404 5.03924 1.45466 0
M  V30 6993 H 656.878 4.5682 3.0987 0
M  V30 6994 H 657.355 2.88533 3.31127 0
M  V30 6995 H 657.961 3.79946 1.91105 0
M  V30 6996 N 656.276 -0.40816 1.52223 0
M  V30 6997 C 657.525 -1.15212 1.65557 0
M  V30 6998 C 657.838 -1.9163 0.392096 0
M  V30 6999 O 659.044 -2.68458 0.405256 0
M  V30 7000 C 657.5 -2.09691 2.92502 0
M  V30 7001 C 657.108 -1.38785 4.25961 0
M  V30 7002 C 658.852 -2.8434 3.152 0
M  V30 7003 C 656.759 -2.31919 5.44029 0
M  V30 7004 H 655.689 -0.433776 0.616729 0
M  V30 7005 H 658.34 -0.4165 1.78711 0
M  V30 7006 H 656.722 -2.8681 2.7305 0
M  V30 7007 H 657.896 -0.670248 4.55899 0
M  V30 7008 H 656.211 -0.761741 4.09373 0
M  V30 7009 H 658.808 -3.54166 4.00587 0
M  V30 7010 H 659.151 -3.47344 2.29473 0
M  V30 7011 H 659.684 -2.14321 3.35129 0
M  V30 7012 H 656.423 -1.7356 6.32105 0
M  V30 7013 H 655.943 -3.0165 5.18428 0
M  V30 7014 H 657.622 -2.92424 5.77146 0
M  V30 7015 N 657.755 -1.42862 -0.66545 0
M  V30 7016 C 659.032 -1.3431 -1.42197 0
M  V30 7017 C 659.412 0.0150265 -2.11095 0
M  V30 7018 O 658.76 1.03101 -2.03918 0
M  V30 7019 C 658.97 -2.51783 -2.41674 0
M  V30 7020 C 660.318 -2.94321 -3.0604 0
M  V30 7021 O 661.342 -2.51741 -2.52001 0
M  V30 7022 O 660.201 -3.68047 -4.03985 0
M  V30 7023 H 657.295 -0.530159 -0.634713 0
M  V30 7024 H 659.841 -1.54888 -0.693386 0
M  V30 7025 H 658.613 -3.42282 -1.89627 0
M  V30 7026 H 658.236 -2.33241 -3.22001 0
M  V30 7027 N 659.233 0.902656 -1.29189 0
M  V30 7028 C 660.18 2.00643 -1.14066 0
M  V30 7029 C 661.15 1.66064 -0.0347756 0
M  V30 7030 O 662.335 1.8973 -0.201752 0
M  V30 7031 C 659.475 3.35214 -0.820104 0
M  V30 7032 C 658.588 3.82594 -2.00614 0
M  V30 7033 C 657.723 5.05727 -1.62522 0
M  V30 7034 C 656.762 5.45469 -2.77724 0
M  V30 7035 N 655.899 6.59789 -2.40048 0
M  V30 7036 H 660.739 2.1291 -2.08502 0
M  V30 7037 H 658.276 1.04271 -1.03759 0
M  V30 7038 H 660.234 4.12643 -0.614949 0
M  V30 7039 H 658.864 3.22682 0.0873452 0
M  V30 7040 H 657.916 3.01226 -2.32308 0
M  V30 7041 H 659.228 4.07999 -2.86946 0
M  V30 7042 H 658.382 5.90732 -1.38277 0
M  V30 7043 H 657.121 4.82155 -0.733333 0
M  V30 7044 H 656.126 4.59 -3.02653 0
M  V30 7045 H 657.351 5.71024 -3.67572 0
M  V30 7046 H 655.297 6.37826 -1.53343 0
M  V30 7047 H 655.214 6.84975 -3.19914 0
M  V30 7048 H 656.482 7.4807 -2.19116 0
M  V30 7049 N 660.711 1.11618 1.11262 0
M  V30 7050 C 661.674 0.779447 2.15539 0
M  V30 7051 C 662.674 -0.202081 1.59525 0
M  V30 7052 O 663.864 0.0226356 1.74185 0
M  V30 7053 C 660.996 0.15674 3.40539 0
M  V30 7054 H 662.189 1.70324 2.4684 0
M  V30 7055 H 659.742 0.918298 1.26479 0
M  V30 7056 H 660.477 -0.777186 3.1485 0
M  V30 7057 H 660.262 0.863308 3.82478 0
M  V30 7058 H 661.752 -0.062661 4.17553 0
M  V30 7059 N 662.189 -1.289 0.906776 0
M  V30 7060 C 663.137 -2.29477 0.379873 0
M  V30 7061 C 664.131 -1.61068 -0.524747 0
M  V30 7062 O 665.337 -1.75344 -0.406765 0
M  V30 7063 H 661.712 -0.744742 0.10423 0
M  V30 7064 H 663.683 -2.71353 1.24137 0
M  V30 7065 C 662.432 -3.45713 -0.371154 0
M  V30 7066 H 661.755 -3.98551 0.315716 0
M  V30 7067 H 663.195 -4.18105 -0.704581 0
M  V30 7068 C 661.654 -2.9774 -1.57646 0
M  V30 7069 O 662.184 -2.99618 -2.67567 0
M  V30 7070 N 660.39 -2.53485 -1.42105 0
M  V30 7071 H 659.937 -2.52156 -0.526783 0
M  V30 7072 H 659.895 -2.21747 -2.22881 0
M  V30 7073 N 663.667 -0.670007 -1.42649 0
M  V30 7074 C 664.597 -0.00258501 -2.335 0
M  V30 7075 C 665.578 0.794364 -1.50412 0
M  V30 7076 O 666.763 0.75248 -1.79029 0
M  V30 7077 C 663.893 0.952748 -3.33976 0
M  V30 7078 C 662.847 0.264733 -4.2718 0
M  V30 7079 C 662.173 1.33267 -5.17826 0
M  V30 7080 C 663.473 -0.853289 -5.15283 0
M  V30 7081 H 665.167 -0.761326 -2.89559 0
M  V30 7082 H 662.713 -0.367561 -1.3923 0
M  V30 7083 H 664.666 1.4287 -3.96442 0
M  V30 7084 H 663.39 1.74285 -2.7621 0
M  V30 7085 H 662.049 -0.190938 -3.66102 0
M  V30 7086 H 661.697 2.11464 -4.5639 0
M  V30 7087 H 661.397 0.877476 -5.81011 0
M  V30 7088 H 662.921 1.80965 -5.83167 0
M  V30 7089 H 664.335 -0.458763 -5.71462 0
M  V30 7090 H 662.732 -1.23398 -5.87276 0
M  V30 7091 H 663.802 -1.70412 -4.53969 0
M  V30 7092 N 665.145 1.52092 -0.413018 0
M  V30 7093 C 666.556 1.86617 0.0556967 0
M  V30 7094 C 666.907 1.33156 1.44097 0
M  V30 7095 O 666.032 0.672417 2.05688 0
M  V30 7096 C 666.627 3.38628 0.107844 0
M  V30 7097 C 665.186 3.72778 0.520904 0
M  V30 7098 C 664.333 2.75649 -0.302109 0
M  V30 7099 H 667.284 1.45663 -0.629919 0
M  V30 7100 H 667.305 3.69152 0.922324 0
M  V30 7101 H 666.817 3.77508 -0.900506 0
M  V30 7102 H 664.918 3.39478 1.53575 0
M  V30 7103 H 665.031 4.7838 0.262591 0
M  V30 7104 H 663.395 2.53603 0.236115 0
M  V30 7105 H 664.178 3.17369 -1.30888 0
M  V30 7106 N 666.623 0.143563 1.56945 0
M  V30 7107 C 667.869 -0.50916 1.96304 0
M  V30 7108 C 668.202 -1.64741 1.0283 0
M  V30 7109 O 667.477 -1.94374 0.0700361 0
M  V30 7110 C 667.76 -1.0186 3.45393 0
M  V30 7111 C 667.613 0.117923 4.49645 0
M  V30 7112 C 668.932 -1.90151 3.96901 0
M  V30 7113 H 666.051 -0.183608 0.713763 0
M  V30 7114 H 668.693 0.224095 1.88674 0
M  V30 7115 H 666.843 -1.64345 3.52027 0
M  V30 7116 H 668.515 0.754145 4.55094 0
M  V30 7117 H 666.758 0.777568 4.26774 0
M  V30 7118 H 667.429 -0.280187 5.51288 0
M  V30 7119 H 669.905 -1.375 3.92725 0
M  V30 7120 H 668.781 -2.22707 5.0169 0
M  V30 7121 H 669.042 -2.83718 3.39052 0
M  V30 7122 N 668.101 -1.57061 -0.130224 0
M  V30 7123 C 669.031 -2.02552 -1.16168 0
M  V30 7124 C 670.012 -0.907971 -1.4384 0
M  V30 7125 O 671.197 -1.17693 -1.54473 0
M  V30 7126 C 668.327 -2.42035 -2.49071 0
M  V30 7127 C 667.281 -3.5713 -2.35886 0
M  V30 7128 C 666.607 -3.82478 -3.7365 0
M  V30 7129 C 667.907 -4.89236 -1.8288 0
M  V30 7130 H 669.601 -2.8897 -0.783359 0
M  V30 7131 H 667.147 -1.39021 -0.375376 0
M  V30 7132 H 669.1 -2.72462 -3.21469 0
M  V30 7133 H 667.824 -1.52573 -2.88771 0
M  V30 7134 H 666.483 -3.26895 -1.65938 0
M  V30 7135 H 666.131 -2.9024 -4.10816 0
M  V30 7136 H 665.831 -4.59944 -3.65685 0
M  V30 7137 H 667.355 -4.15347 -4.47571 0
M  V30 7138 H 668.769 -5.18272 -2.45085 0
M  V30 7139 H 667.166 -5.70624 -1.85763 0
M  V30 7140 H 668.236 -4.78494 -0.785571 0
M  V30 7141 N 669.579 0.400081 -1.52437 0
M  V30 7142 C 670.99 0.97851 -1.59003 0
M  V30 7143 C 671.341 1.91293 -0.436068 0
M  V30 7144 O 670.466 2.1183 0.442365 0
M  V30 7145 C 671.061 1.78145 -2.88184 0
M  V30 7146 C 669.62 2.30976 -2.97199 0
M  V30 7147 C 668.767 1.11212 -2.54022 0
M  V30 7148 H 671.718 0.180002 -1.57676 0
M  V30 7149 H 671.739 2.63968 -2.74046 0
M  V30 7150 H 671.251 1.1011 -3.72152 0
M  V30 7151 H 669.352 3.02355 -2.17744 0
M  V30 7152 H 669.465 2.61221 -4.01622 0
M  V30 7153 H 667.829 1.46882 -2.08081 0
M  V30 7154 H 668.612 0.447307 -3.40373 0
M  V30 7155 N 671.057 1.43213 0.657864 0
M  V30 7156 C 672.468 1.39669 1.23893 0
M  V30 7157 C 672.819 0.0984217 1.95953 0
M  V30 7158 O 671.944 -0.8023 2.00978 0
M  V30 7159 C 672.539 2.53004 2.25332 0
M  V30 7160 C 671.098 2.5274 2.78926 0
M  V30 7161 C 670.245 2.30941 1.53497 0
M  V30 7162 H 673.196 1.52181 0.450172 0
M  V30 7163 H 673.217 2.24226 3.07413 0
M  V30 7164 H 672.729 3.4748 1.72856 0
M  V30 7165 H 670.83 1.6213 3.35477 0
M  V30 7166 H 670.943 3.50352 3.26787 0
M  V30 7167 H 669.307 1.7952 1.80678 0
M  V30 7168 H 670.09 3.27496 1.02963 0
M  V30 7169 N 672.536 -0.895792 1.29666 0
M  V30 7170 C 673.782 -1.64908 1.18039 0
M  V30 7171 C 674.115 -1.9236 -0.266682 0
M  V30 7172 O 673.39 -1.53682 -1.19214 0
M  V30 7173 C 673.673 -2.99574 1.99819 0
M  V30 7174 C 673.526 -2.79163 3.52687 0
M  V30 7175 C 674.845 -4.00358 1.82761 0
M  V30 7176 H 671.964 -0.598437 0.430165 0
M  V30 7177 H 674.606 -1.03736 1.59182 0
M  V30 7178 H 672.756 -3.51786 1.64859 0
M  V30 7179 H 674.428 -2.33821 3.9765 0
M  V30 7180 H 672.671 -2.13871 3.77414 0
M  V30 7181 H 673.342 -3.74871 4.05186 0
M  V30 7182 H 675.818 -3.57268 2.13304 0
M  V30 7183 H 674.694 -4.92514 2.42325 0
M  V30 7184 H 674.955 -4.35096 0.783839 0
M  V30 7185 N 674.014 -1.12206 -1.10668 0
M  V30 7186 C 674.977 -0.790867 -2.15123 0
M  V30 7187 C 675.977 0.193618 -1.5963 0
M  V30 7188 O 677.167 -0.0318728 -1.74171 0
M  V30 7189 C 674.299 -0.174797 -3.40452 0
M  V30 7190 H 675.492 -1.7163 -2.45933 0
M  V30 7191 H 673.045 -0.924993 -1.2599 0
M  V30 7192 H 673.78 0.760478 -3.15257 0
M  V30 7193 H 673.565 -0.88358 -3.82015 0
M  V30 7194 H 675.055 0.0405162 -4.1758 0
M  V30 7195 N 675.492 1.28418 -0.913599 0
M  V30 7196 C 676.738 1.9527 -0.547484 0
M  V30 7197 C 677.071 1.71745 0.906486 0
M  V30 7198 O 676.346 1.03834 1.64465 0
M  V30 7199 C 676.629 3.49748 -0.857205 0
M  V30 7200 C 676.482 3.82675 -2.3639 0
M  V30 7201 C 677.801 4.3868 -0.353258 0
M  V30 7202 H 674.92 0.709236 -0.200381 0
M  V30 7203 H 677.562 1.51789 -1.14281 0
M  V30 7204 H 675.712 3.86915 -0.350548 0
M  V30 7205 H 677.384 3.55378 -2.94116 0
M  V30 7206 H 675.627 3.29724 -2.81894 0
M  V30 7207 H 676.298 4.90547 -2.53115 0
M  V30 7208 H 678.774 4.08584 -0.787288 0
M  V30 7209 H 677.65 5.45621 -0.599049 0
M  V30 7210 H 677.911 4.35753 0.746413 0
M  V30 7211 N 676.97 0.677563 1.42291 0
M  V30 7212 C 677.9 0.014968 2.33495 0
M  V30 7213 C 678.881 -0.786376 1.50831 0
M  V30 7214 O 680.066 -0.742975 1.79426 0
M  V30 7215 C 677.196 -0.935023 3.34477 0
M  V30 7216 C 676.15 -0.242074 4.27315 0
M  V30 7217 C 675.476 -1.30519 5.18526 0
M  V30 7218 C 676.776 0.880604 5.14823 0
M  V30 7219 H 678.47 0.776671 2.89151 0
M  V30 7220 H 676.016 0.37494 1.39033 0
M  V30 7221 H 677.969 -1.40766 3.97194 0
M  V30 7222 H 676.693 -1.72818 2.77131 0
M  V30 7223 H 675.352 0.210351 3.65996 0
M  V30 7224 H 675 -2.09041 4.57505 0
M  V30 7225 H 674.7 -0.846652 5.81468 0
M  V30 7226 H 676.224 -1.7787 5.84119 0
M  V30 7227 H 677.638 0.489062 5.7121 0
M  V30 7228 H 676.035 1.26511 5.86613 0
M  V30 7229 H 677.105 1.72818 4.53059 0
M  V30 7230 N 678.448 -1.51871 0.421078 0
M  V30 7231 C 679.859 -1.86644 -0.0457991 0
M  V30 7232 C 680.21 -1.33919 -1.43388 0
M  V30 7233 O 679.335 -0.683316 -2.05328 0
M  V30 7234 C 679.93 -3.38681 -0.0898844 0
M  V30 7235 C 678.489 -3.73049 -0.501127 0
M  V30 7236 C 677.636 -2.75485 0.316723 0
M  V30 7237 H 680.587 -1.45327 0.637635 0
M  V30 7238 H 680.608 -3.69636 -0.902734 0
M  V30 7239 H 680.12 -3.77025 0.920513 0
M  V30 7240 H 678.221 -3.40288 -1.51773 0
M  V30 7241 H 678.334 -4.78512 -0.237217 0
M  V30 7242 H 676.698 -2.53725 -0.222663 0
M  V30 7243 H 677.481 -3.16671 1.32569 0
M  V30 7244 N 679.926 -0.151884 -1.56866 0
M  V30 7245 C 680.856 0.781943 -2.20018 0
M  V30 7246 C 681.837 1.25347 -1.14987 0
M  V30 7247 O 683.022 1.31015 -1.43348 0
M  V30 7248 C 680.152 2.01928 -2.82564 0
M  V30 7249 C 679.106 1.68434 -3.93464 0
M  V30 7250 C 678.432 2.99472 -4.42968 0
M  V30 7251 C 679.732 0.927244 -5.14003 0
M  V30 7252 H 681.426 0.255607 -2.98307 0
M  V30 7253 H 678.972 0.121502 -1.43486 0
M  V30 7254 H 680.925 2.67741 -3.25411 0
M  V30 7255 H 679.649 2.56943 -2.01614 0
M  V30 7256 H 678.308 1.04998 -3.51242 0
M  V30 7257 H 677.956 3.52488 -3.58834 0
M  V30 7258 H 677.656 2.77823 -5.17772 0
M  V30 7259 H 679.18 3.66348 -4.88489 0
M  V30 7260 H 680.594 1.48756 -5.53665 0
M  V30 7261 H 678.991 0.810513 -5.94601 0
M  V30 7262 H 680.061 -0.0801163 -4.84834 0
M  V30 7263 N 681.404 1.57128 0.121893 0
M  V30 7264 C 682.652 1.84335 0.828548 0
M  V30 7265 C 682.973 0.736632 1.80551 0
M  V30 7266 O 682.243 -0.23962 1.94429 0
M  V30 7267 H 680.823 0.680108 0.30897 0
M  V30 7268 H 683.485 1.9459 0.109906 0
M  V30 7269 H 682.581 2.80152 1.37554 0
M  V30 7270 N 682.882 -0.391992 1.52647 0
M  V30 7271 C 684.11 -1.1586 1.71418 0
M  V30 7272 C 684.525 -1.8381 0.431216 0
M  V30 7273 O 683.882 -1.7256 -0.594085 0
M  V30 7274 C 683.933 -2.20888 2.86165 0
M  V30 7275 O 683.654 -1.5571 4.09495 0
M  V30 7276 C 685.155 -3.103 3.1659 0
M  V30 7277 H 682.375 -0.347494 0.574011 0
M  V30 7278 H 684.919 -0.458972 1.99283 0
M  V30 7279 H 683.074 -2.86492 2.6077 0
M  V30 7280 H 683.488 -2.25474 4.73563 0
M  V30 7281 H 684.962 -3.8003 4.00351 0
M  V30 7282 H 685.439 -3.73639 2.30848 0
M  V30 7283 H 686.045 -2.50345 3.43813 0
M  V30 7284 N 684.36 -1.4356 -0.65026 0
M  V30 7285 C 685.608 -1.45046 -1.40734 0
M  V30 7286 C 685.929 -0.0769822 -1.94848 0
M  V30 7287 O 685.199 0.888098 -1.74613 0
M  V30 7288 H 683.779 -0.534034 -0.522318 0
M  V30 7289 H 686.441 -1.79186 -0.766703 0
M  V30 7290 H 685.537 -2.16476 -2.24822 0
M  V30 7291 N 685.838 0.888903 -1.30139 0
M  V30 7292 C 686.786 2.0156 -1.16088 0
M  V30 7293 C 687.78 1.69239 -0.0737413 0
M  V30 7294 O 688.986 1.78468 -0.234313 0
M  V30 7295 H 685.361 0.660825 -0.358907 0
M  V30 7296 H 687.332 2.10547 -2.11453 0
M  V30 7297 C 686.081 3.36758 -0.865426 0
M  V30 7298 H 685.404 3.62137 -1.69402 0
M  V30 7299 H 686.844 4.16246 -0.807192 0
M  V30 7300 C 685.303 3.34124 0.431577 0
M  V30 7301 O 685.833 3.7445 1.45431 0
M  V30 7302 N 684.039 2.87229 0.441321 0
M  V30 7303 H 683.586 2.54609 -0.391433 0
M  V30 7304 H 683.544 2.8585 1.30909 0
M  V30 7305 N 687.317 1.12792 1.10072 0
M  V30 7306 C 688.594 0.796867 1.78632 0
M  V30 7307 C 688.974 -0.712739 1.98704 0
M  V30 7308 O 688.322 -1.64773 1.5831 0
M  V30 7309 C 688.532 1.57622 3.11378 0
M  V30 7310 C 689.88 1.76463 3.86194 0
M  V30 7311 O 690.904 1.54165 3.2111 0
M  V30 7312 O 689.763 2.13623 5.03018 0
M  V30 7313 H 686.857 0.290248 0.774394 0
M  V30 7314 H 689.403 1.23215 1.16688 0
M  V30 7315 H 688.175 2.60246 2.92212 0
M  V30 7316 H 687.798 1.13543 3.81043 0
M  V30 7317 N 688.795 -1.27931 0.920396 0
M  V30 7318 C 689.725 -2.29487 0.431024 0
M  V30 7319 C 690.706 -1.62435 -0.504861 0
M  V30 7320 O 691.891 -1.89797 -0.411176 0
M  V30 7321 C 689.021 -3.45788 -0.323709 0
M  V30 7322 C 687.975 -4.24784 0.523658 0
M  V30 7323 C 687.301 -5.33488 -0.359809 0
M  V30 7324 C 688.601 -4.90874 1.78437 0
M  V30 7325 H 690.295 -2.70671 1.27975 0
M  V30 7326 H 687.841 -1.30121 0.616813 0
M  V30 7327 H 689.794 -4.15927 -0.676952 0
M  V30 7328 H 688.518 -3.03502 -1.2064 0
M  V30 7329 H 687.177 -3.56382 0.85951 0
M  V30 7330 H 686.825 -4.87445 -1.24124 0
M  V30 7331 H 686.525 -5.87247 0.203605 0
M  V30 7332 H 688.049 -6.06472 -0.708787 0
M  V30 7333 H 689.463 -5.53339 1.49963 0
M  V30 7334 H 687.86 -5.54659 2.29071 0
M  V30 7335 H 688.93 -4.14988 2.50824 0
M  V30 7336 N 690.273 -0.685099 -1.4193 0
M  V30 7337 C 691.236 -0.0222632 -2.29189 0
M  V30 7338 C 692.236 0.7186 -1.4385 0
M  V30 7339 O 693.426 0.555058 -1.6512 0
M  V30 7340 C 690.558 0.979013 -3.2654 0
M  V30 7341 H 691.751 -0.790424 -2.89296 0
M  V30 7342 H 689.304 -0.448012 -1.49742 0
M  V30 7343 H 690.039 1.77531 -2.71392 0
M  V30 7344 H 689.824 0.451037 -3.89497 0
M  V30 7345 H 691.314 1.44091 -3.91954 0
M  V30 7346 N 691.751 1.51645 -0.429126 0
M  V30 7347 C 693.167 1.59394 -0.080994 0
M  V30 7348 C 693.367 1.44064 1.40882 0
M  V30 7349 O 692.423 1.27771 2.17786 0
M  V30 7350 C 693.736 2.94779 -0.593773 0
M  V30 7351 C 695.284 3.08067 -0.553494 0
M  V30 7352 C 695.759 4.45963 -1.04311 0
M  V30 7353 N 697.25 4.5226 -1.00076 0
M  V30 7354 C 697.985 5.57268 -1.35056 0
M  V30 7355 N 697.481 6.69734 -1.77282 0
M  V30 7356 N 699.274 5.47582 -1.26925 0
M  V30 7357 H 691.425 1.59856 -1.39857 0
M  V30 7358 H 693.688 0.753095 -0.575805 0
M  V30 7359 H 693.394 3.11342 -1.63583 0
M  V30 7360 H 693.268 3.77197 -0.0142202 0
M  V30 7361 H 695.655 2.91177 0.479556 0
M  V30 7362 H 695.736 2.27508 -1.16935 0
M  V30 7363 H 695.38 4.63598 -2.07459 0
M  V30 7364 H 695.31 5.25049 -0.403873 0
M  V30 7365 H 697.801 3.71537 -0.690564 0
M  V30 7366 H 698.114 7.4587 -2.02232 0
M  V30 7367 H 696.459 6.70963 -1.81202 0
M  V30 7368 H 699.65 4.58604 -0.93809 0
M  V30 7369 H 699.823 6.29308 -1.54516 0
M  V30 7370 N 693.229 0.160201 1.56784 0
M  V30 7371 C 694.469 -0.490179 1.98435 0
M  V30 7372 C 694.833 -1.61164 1.04355 0
M  V30 7373 O 696.034 -2.3238 1.35103 0
M  V30 7374 C 694.305 -0.971106 3.43954 0
M  V30 7375 S 695.864 -1.62423 4.07632 0
M  V30 7376 H 692.682 -0.158056 0.693209 0
M  V30 7377 H 695.284 0.255036 1.93829 0
M  V30 7378 H 693.988 -0.144323 4.10146 0
M  V30 7379 H 693.519 -1.75063 3.52302 0
M  V30 7380 H 695.534 -2.91199 4.01768 0
M  V30 7381 N 694.707 -1.5719 -0.113559 0
M  V30 7382 C 695.637 -2.03772 -1.14013 0
M  V30 7383 C 696.618 -0.923176 -1.42869 0
M  V30 7384 O 697.803 -1.19325 -1.53216 0
M  V30 7385 C 694.933 -2.44663 -2.4649 0
M  V30 7386 C 693.887 -3.59612 -2.32085 0
M  V30 7387 C 693.213 -3.8642 -3.69573 0
M  V30 7388 C 694.513 -4.91149 -1.7768 0
M  V30 7389 H 696.207 -2.89785 -0.752665 0
M  V30 7390 H 693.753 -1.39412 -0.360609 0
M  V30 7391 H 695.706 -2.75857 -3.18561 0
M  V30 7392 H 694.43 -1.55628 -2.87137 0
M  V30 7393 H 693.089 -3.28636 -1.62461 0
M  V30 7394 H 692.737 -2.94581 -4.07715 0
M  V30 7395 H 692.437 -4.63797 -3.60786 0
M  V30 7396 H 693.961 -4.2007 -4.4314 0
M  V30 7397 H 695.375 -5.20843 -2.39574 0
M  V30 7398 H 693.772 -5.72562 -1.79701 0
M  V30 7399 H 694.842 -4.79301 -0.734776 0
M  V30 7400 N 696.185 0.383891 -1.52853 0
M  V30 7401 C 697.601 0.724316 -1.42218 0
M  V30 7402 C 697.801 1.93943 -0.546654 0
M  V30 7403 O 696.857 2.5249 -0.0220562 0
M  V30 7404 C 698.17 0.954635 -2.85144 0
M  V30 7405 C 699.718 1.05579 -2.94656 0
M  V30 7406 C 700.193 1.3187 -4.38605 0
M  V30 7407 N 701.684 1.38681 -4.41952 0
M  V30 7408 C 702.419 1.60699 -5.50421 0
M  V30 7409 N 701.915 1.80154 -6.68967 0
M  V30 7410 N 703.708 1.6292 -5.37972 0
M  V30 7411 H 695.859 -0.4156 -2.08294 0
M  V30 7412 H 698.122 -0.123776 -0.939885 0
M  V30 7413 H 697.828 0.133829 -3.51445 0
M  V30 7414 H 697.702 1.86788 -3.27704 0
M  V30 7415 H 700.089 1.86716 -2.2852 0
M  V30 7416 H 700.17 0.120338 -2.55517 0
M  V30 7417 H 699.814 0.512416 -5.05309 0
M  V30 7418 H 699.744 2.26708 -4.75301 0
M  V30 7419 H 702.235 1.25334 -3.56511 0
M  V30 7420 H 702.548 1.96476 -7.47407 0
M  V30 7421 H 700.893 1.77368 -6.71986 0
M  V30 7422 H 704.084 1.47276 -4.44328 0
M  V30 7423 H 704.257 1.79739 -6.22574 0
M  V30 7424 N 697.663 1.43903 0.642637 0
M  V30 7425 C 698.909 1.47291 1.40275 0
M  V30 7426 C 699.264 0.0996024 1.92142 0
M  V30 7427 O 698.557 -0.883423 1.70018 0
M  V30 7428 C 698.751 2.45907 2.59354 0
M  V30 7429 C 698.58 3.92691 2.19143 0
M  V30 7430 C 697.35 4.6097 2.06966 0
M  V30 7431 C 699.548 4.82231 1.78768 0
M  V30 7432 N 697.53 5.9263 1.60196 0
M  V30 7433 C 698.901 6.03246 1.43159 0
M  V30 7434 C 700.956 4.69397 1.66045 0
M  V30 7435 C 699.659 7.12851 0.961014 0
M  V30 7436 C 701.685 5.79016 1.20392 0
M  V30 7437 C 701.047 6.99164 0.857271 0
M  V30 7438 H 697.146 0.594055 0.50855 0
M  V30 7439 H 699.73 1.80153 0.738434 0
M  V30 7440 H 697.901 2.15054 3.23429 0
M  V30 7441 H 699.633 2.39665 3.26102 0
M  V30 7442 H 696.388 4.15622 2.27058 0
M  V30 7443 H 696.812 6.62547 1.39143 0
M  V30 7444 H 701.454 3.76954 1.91482 0
M  V30 7445 H 699.172 8.05113 0.694148 0
M  V30 7446 H 702.758 5.71109 1.11023 0
M  V30 7447 H 701.638 7.82544 0.509408 0
M  V30 7448 N 699.141 -0.881989 1.30609 0
M  V30 7449 C 700.389 -1.63082 1.19368 0
M  V30 7450 C 700.71 -1.93376 -0.251147 0
M  V30 7451 O 699.98 -1.5723 -1.16857 0
M  V30 7452 H 698.56 -0.604542 0.438791 0
M  V30 7453 H 701.222 -1.05658 1.63776 0
M  V30 7454 H 700.318 -2.57966 1.7567 0
M  V30 7455 N 700.619 -1.13374 -1.09472 0
M  V30 7456 C 701.867 -0.893422 -1.8128 0
M  V30 7457 C 702.188 0.582029 -1.86111 0
M  V30 7458 O 701.458 1.42305 -1.34633 0
M  V30 7459 H 700.038 -0.327543 -0.67136 0
M  V30 7460 H 702.7 -1.43018 -1.32408 0
M  V30 7461 H 701.796 -1.28374 -2.84476 0
M  V30 7462 N 702.098 1.27442 -0.927168 0
M  V30 7463 C 703.346 1.94007 -0.566203 0
M  V30 7464 C 703.667 1.7323 0.895345 0
M  V30 7465 O 702.937 1.07973 1.63459 0
M  V30 7466 H 701.517 0.717917 -0.206409 0
M  V30 7467 H 704.179 1.55161 -1.17945 0
M  V30 7468 H 703.275 3.02401 -0.772028 0
M  V30 7469 N 703.576 0.692616 1.41565 0
M  V30 7470 C 704.806 0.230943 2.05305 0
M  V30 7471 C 705.214 -1.12379 1.52209 0
M  V30 7472 O 704.557 -1.71281 0.663968 0
M  V30 7473 C 704.619 0.107894 3.59338 0
M  V30 7474 C 704.283 1.39419 4.35214 0
M  V30 7475 C 705.28 2.33143 4.64694 0
M  V30 7476 C 702.965 1.64674 4.74539 0
M  V30 7477 C 704.959 3.50385 5.32456 0
M  V30 7478 C 702.646 2.82202 5.42038 0
M  V30 7479 C 703.644 3.74881 5.70923 0
M  V30 7480 O 703.332 4.90351 6.37033 0
M  V30 7481 H 703.064 0.105708 0.667684 0
M  V30 7482 H 705.618 0.94488 1.82376 0
M  V30 7483 H 703.848 -0.661785 3.80995 0
M  V30 7484 H 705.537 -0.316213 4.04666 0
M  V30 7485 H 706.303 2.14887 4.34797 0
M  V30 7486 H 702.182 0.934007 4.51439 0
M  V30 7487 H 705.726 4.22743 5.54918 0
M  V30 7488 H 701.623 3.00376 5.71353 0
M  V30 7489 H 702.391 4.90128 6.55528 0
M  V30 7490 N 705.054 -1.51416 0.437162 0
M  V30 7491 C 705.964 -2.31493 -0.380537 0
M  V30 7492 C 706.98 -1.40399 -1.02782 0
M  V30 7493 O 708.156 -1.73471 -1.02323 0
M  V30 7494 C 705.221 -3.1413 -1.46709 0
M  V30 7495 C 704.282 -4.21003 -0.839953 0
M  V30 7496 C 703.515 -4.9969 -1.87473 0
M  V30 7497 O 703.738 -4.79008 -3.09689 0
M  V30 7498 O 702.672 -5.8379 -1.46536 0
M  V30 7499 H 706.498 -3.02469 0.273183 0
M  V30 7500 H 704.083 -1.48059 0.199706 0
M  V30 7501 H 705.965 -3.65505 -2.09724 0
M  V30 7502 H 704.64 -2.45919 -2.10489 0
M  V30 7503 H 703.547 -3.73706 -0.171752 0
M  V30 7504 H 704.88 -4.91587 -0.245638 0
M  V30 7505 N 706.532 -0.168513 -1.56696 0
M  V30 7506 C 707.78 0.476216 -1.96409 0
M  V30 7507 C 708.101 1.63968 -1.05544 0
M  V30 7508 O 707.371 1.95525 -0.121235 0
M  V30 7509 H 705.951 0.178921 -0.725256 0
M  V30 7510 H 708.613 -0.249042 -1.93302 0
M  V30 7511 H 707.709 0.838094 -3.00637 0
M  V30 7512 N 708.01 1.57248 0.105221 0
M  V30 7513 C 708.942 1.98008 1.15436 0
M  V30 7514 C 709.955 0.881236 1.36887 0
M  V30 7515 O 711.144 1.15943 1.35718 0
M  V30 7516 C 708.244 2.27509 2.51183 0
M  V30 7517 C 707.417 3.58811 2.50147 0
M  V30 7518 C 706.476 3.76365 3.67745 0
M  V30 7519 O 705.502 4.48329 3.50699 0
M  V30 7520 N 706.704 3.16174 4.86841 0
M  V30 7521 H 709.469 2.88616 0.807519 0
M  V30 7522 H 707.03 1.59202 0.29433 0
M  V30 7523 H 709.022 2.36455 3.28438 0
M  V30 7524 H 707.592 1.42959 2.77995 0
M  V30 7525 H 706.812 3.60927 1.5851 0
M  V30 7526 H 708.1 4.45088 2.46524 0
M  V30 7527 H 707.498 2.57701 5.03594 0
M  V30 7528 H 706.055 3.30621 5.61723 0
M  V30 7529 N 709.488 -0.375779 1.53054 0
M  V30 7530 C 710.436 -1.48015 1.79428 0
M  V30 7531 C 711.43 -1.55893 0.662854 0
M  V30 7532 O 712.636 -1.58901 0.845599 0
M  V30 7533 H 709.011 -0.492887 0.56795 0
M  V30 7534 H 710.982 -1.22971 2.71884 0
M  V30 7535 C 709.731 -2.84984 1.99197 0
M  V30 7536 H 709.054 -2.79677 2.85693 0
M  V30 7537 H 710.494 -3.61462 2.21633 0
M  V30 7538 C 708.953 -3.28025 0.768183 0
M  V30 7539 O 709.483 -4.01671 -0.0480482 0
M  V30 7540 N 707.689 -2.84454 0.594521 0
M  V30 7541 H 707.236 -2.24688 1.25988 0
M  V30 7542 H 707.194 -3.13609 -0.222916 0
M  V30 7543 N 710.966 -1.44241 -0.634997 0
M  V30 7544 C 711.896 -1.53632 -1.7584 0
M  V30 7545 C 712.877 -0.389603 -1.65578 0
M  V30 7546 O 714.062 -0.609219 -1.84397 0
M  V30 7547 C 711.192 -1.47644 -3.14354 0
M  V30 7548 C 710.146 -2.60752 -3.394 0
M  V30 7549 C 709.472 -2.39817 -4.77904 0
M  V30 7550 C 710.772 -4.02921 -3.32343 0
M  V30 7551 H 712.466 -2.47662 -1.68238 0
M  V30 7552 H 710.012 -1.19197 -0.807969 0
M  V30 7553 H 711.965 -1.52815 -3.92716 0
M  V30 7554 H 710.689 -0.501284 -3.2273 0
M  V30 7555 H 709.348 -2.54965 -2.63417 0
M  V30 7556 H 708.996 -1.40502 -4.82978 0
M  V30 7557 H 708.696 -3.15649 -4.9562 0
M  V30 7558 H 710.22 -2.46799 -5.585 0
M  V30 7559 H 711.634 -4.10098 -4.00615 0
M  V30 7560 H 710.031 -4.78925 -3.61595 0
M  V30 7561 H 711.101 -4.26766 -2.30215 0
M  V30 7562 N 712.444 0.87505 -1.31075 0
M  V30 7563 C 713.407 1.96333 -1.18263 0
M  V30 7564 C 714.407 1.60416 -0.111106 0
M  V30 7565 O 715.597 1.7044 -0.359987 0
M  V30 7566 C 712.729 3.31036 -0.81414 0
M  V30 7567 H 713.922 2.09125 -2.14958 0
M  V30 7568 H 711.475 1.06271 -1.14614 0
M  V30 7569 H 712.21 3.23944 0.151875 0
M  V30 7570 H 711.995 3.58476 -1.58862 0
M  V30 7571 H 713.485 4.10842 -0.748249 0
M  V30 7572 N 713.922 1.13953 1.08869 0
M  V30 7573 C 714.869 0.82213 2.15661 0
M  V30 7574 C 715.839 -0.218274 1.6466 0
M  V30 7575 O 717.024 -0.0892475 1.90591 0
M  V30 7576 C 714.164 0.300572 3.43789 0
M  V30 7577 C 713.277 1.40071 4.08661 0
M  V30 7578 C 712.412 0.836897 5.24566 0
M  V30 7579 C 711.451 1.91504 5.81371 0
M  V30 7580 N 710.588 1.36875 6.88629 0
M  V30 7581 H 715.428 1.73683 2.42153 0
M  V30 7582 H 712.965 0.866879 1.18843 0
M  V30 7583 H 714.923 -0.0199943 4.17195 0
M  V30 7584 H 713.553 -0.577248 3.17597 0
M  V30 7585 H 712.605 1.83776 3.33062 0
M  V30 7586 H 713.917 2.21534 4.46905 0
M  V30 7587 H 713.071 0.467953 6.04893 0
M  V30 7588 H 711.81 -0.00874207 4.87699 0
M  V30 7589 H 710.815 2.29299 4.99702 0
M  V30 7590 H 712.04 2.76419 6.20298 0
M  V30 7591 H 709.986 0.545211 6.5373 0
M  V30 7592 H 709.903 2.1198 7.25672 0
M  V30 7593 H 711.171 1.02756 7.72698 0
M  V30 7594 N 715.4 -1.26948 0.933913 0
M  V30 7595 C 716.649 -1.93378 0.573409 0
M  V30 7596 C 716.962 -1.74148 -0.890614 0
M  V30 7597 O 718.168 -2.34971 -1.36017 0
M  V30 7598 C 716.624 -3.46449 0.974747 0
M  V30 7599 C 716.232 -3.74425 2.45988 0
M  V30 7600 C 717.976 -4.18924 0.685791 0
M  V30 7601 C 715.883 -5.209 2.8003 0
M  V30 7602 H 714.813 -0.723952 0.210736 0
M  V30 7603 H 717.464 -1.44143 1.13557 0
M  V30 7604 H 715.846 -3.94528 0.341181 0
M  V30 7605 H 717.02 -3.37079 3.14188 0
M  V30 7606 H 715.335 -3.15167 2.72138 0
M  V30 7607 H 717.932 -5.26786 0.916546 0
M  V30 7608 H 718.275 -4.14587 -0.377217 0
M  V30 7609 H 718.808 -3.76687 1.27874 0
M  V30 7610 H 715.547 -5.30332 3.85264 0
M  V30 7611 H 715.067 -5.59369 2.16485 0
M  V30 7612 H 716.746 -5.88837 2.68105 0
M  V30 7613 N 716.879 -0.700114 -1.41195 0
M  V30 7614 C 717.809 -0.0521132 -2.33442 0
M  V30 7615 C 718.79 0.76228 -1.52063 0
M  V30 7616 O 719.975 0.714336 -1.80585 0
M  V30 7617 C 717.105 0.881693 -3.35922 0
M  V30 7618 C 716.059 0.174062 -4.27646 0
M  V30 7619 C 715.385 1.22254 -5.20536 0
M  V30 7620 C 716.685 -0.962396 -5.13357 0
M  V30 7621 H 718.379 -0.822574 -2.87879 0
M  V30 7622 H 715.925 -0.397011 -1.38419 0
M  V30 7623 H 717.878 1.34429 -3.99383 0
M  V30 7624 H 716.602 1.68387 -2.79845 0
M  V30 7625 H 715.261 -0.268551 -3.65615 0
M  V30 7626 H 714.909 2.01736 -4.60773 0
M  V30 7627 H 714.609 0.754038 -5.82742 0
M  V30 7628 H 716.133 1.68555 -5.86874 0
M  V30 7629 H 717.547 -0.579875 -5.7036 0
M  V30 7630 H 715.944 -1.35828 -5.84526 0
M  V30 7631 H 717.014 -1.80003 -4.50252 0
M  V30 7632 N 718.357 1.51182 -0.445186 0
M  V30 7633 C 719.304 2.27939 0.362291 0
M  V30 7634 C 720.274 1.31864 1.01 0
M  V30 7635 O 721.459 1.60776 1.02741 0
M  V30 7636 C 718.599 3.13016 1.45311 0
M  V30 7637 C 717.712 4.24093 0.822757 0
M  V30 7638 C 716.847 4.96467 1.88928 0
M  V30 7639 C 715.886 5.99454 1.23778 0
M  V30 7640 N 715.023 6.65206 2.24602 0
M  V30 7641 H 719.863 2.965 -0.29862 0
M  V30 7642 H 717.4 1.46237 -0.15911 0
M  V30 7643 H 719.358 3.60673 2.09692 0
M  V30 7644 H 717.988 2.46553 2.08354 0
M  V30 7645 H 717.04 3.80341 0.0670364 0
M  V30 7646 H 718.352 4.97853 0.307184 0
M  V30 7647 H 717.506 5.47712 2.60953 0
M  V30 7648 H 716.245 4.22355 2.4386 0
M  V30 7649 H 715.25 5.47494 0.503042 0
M  V30 7650 H 716.475 6.75527 0.695694 0
M  V30 7651 H 714.421 5.93901 2.78599 0
M  V30 7652 H 714.338 7.34756 1.77958 0
M  V30 7653 H 715.606 7.21078 2.96085 0
M  V30 7654 N 719.835 0.176821 1.56605 0
M  V30 7655 C 721.112 -0.513365 1.88743 0
M  V30 7656 C 721.492 -1.80929 1.08757 0
M  V30 7657 O 720.84 -2.27765 0.183127 0
M  V30 7658 C 721.05 -0.749925 3.40848 0
M  V30 7659 C 722.398 -1.07747 4.10701 0
M  V30 7660 O 723.422 -0.838277 3.46196 0
M  V30 7661 O 722.281 -1.52901 5.24675 0
M  V30 7662 H 719.375 -0.265296 0.783292 0
M  V30 7663 H 721.921 0.215669 1.68324 0
M  V30 7664 H 720.693 0.16599 3.90948 0
M  V30 7665 H 720.316 -1.53208 3.66897 0
M  V30 7666 N 721.313 -1.57302 -0.09688 0
M  V30 7667 C 722.243 -2.0497 -1.11846 0
M  V30 7668 C 723.224 -0.938278 -1.41882 0
M  V30 7669 O 724.409 -1.20943 -1.51942 0
M  V30 7670 C 721.539 -2.47264 -2.43881 0
M  V30 7671 C 720.493 -3.62053 -2.28257 0
M  V30 7672 C 719.819 -3.90318 -3.65453 0
M  V30 7673 C 721.119 -4.93005 -1.72461 0
M  V30 7674 H 722.813 -2.90567 -0.721888 0
M  V30 7675 H 720.359 -1.39786 -0.345803 0
M  V30 7676 H 722.312 -2.7922 -3.15617 0
M  V30 7677 H 721.036 -1.58664 -2.8547 0
M  V30 7678 H 719.695 -3.30341 -1.58967 0
M  V30 7679 H 719.343 -2.98889 -4.04567 0
M  V30 7680 H 719.043 -4.67597 -3.55846 0
M  V30 7681 H 720.567 -4.24747 -4.3866 0
M  V30 7682 H 721.981 -5.23354 -2.34036 0
M  V30 7683 H 720.378 -5.74436 -1.73618 0
M  V30 7684 H 721.448 -4.80053 -0.683898 0
M  V30 7685 N 722.791 0.367657 -1.53252 0
M  V30 7686 C 723.701 1.47415 -1.82499 0
M  V30 7687 C 724.717 1.58711 -0.713222 0
M  V30 7688 O 725.893 1.74644 -1.00306 0
M  V30 7689 C 722.958 2.82706 -2.00694 0
M  V30 7690 C 722.019 2.80955 -3.24596 0
M  V30 7691 C 721.252 4.09793 -3.41914 0
M  V30 7692 O 721.475 5.05852 -2.63572 0
M  V30 7693 O 720.409 4.15731 -4.3526 0
M  V30 7694 H 724.235 1.25624 -2.765 0
M  V30 7695 H 721.82 0.557559 -1.38606 0
M  V30 7696 H 723.702 3.62873 -2.14246 0
M  V30 7697 H 722.377 3.04479 -1.09883 0
M  V30 7698 H 721.284 1.99494 -3.16469 0
M  V30 7699 H 722.617 2.64136 -4.15323 0
M  V30 7700 N 724.269 1.44576 0.627338 0
M  V30 7701 C 725.202 1.46206 1.75212 0
M  V30 7702 C 726.18 0.320483 1.5941 0
M  V30 7703 O 727.364 0.518028 1.81242 0
M  V30 7704 C 724.491 1.29834 3.12827 0
M  V30 7705 C 723.537 2.47603 3.47268 0
M  V30 7706 S 724.37 4.10125 3.44322 0
M  V30 7707 C 725.526 3.96183 4.84551 0
M  V30 7708 H 725.759 2.41378 1.73563 0
M  V30 7709 H 723.292 1.3192 0.802283 0
M  V30 7710 H 725.25 1.21075 3.92239 0
M  V30 7711 H 723.911 0.361662 3.12011 0
M  V30 7712 H 723.104 2.3202 4.47418 0
M  V30 7713 H 722.706 2.53121 2.75329 0
M  V30 7714 H 724.998 3.60107 5.73872 0
M  V30 7715 H 725.941 4.96176 5.05188 0
M  V30 7716 H 726.349 3.28177 4.59304 0
M  V30 7717 N 725.747 -0.868086 1.31537 0
M  V30 7718 C 726.972 -1.65926 1.24432 0
M  V30 7719 C 727.397 -1.87169 -0.186936 0
M  V30 7720 O 726.755 -1.4148 -1.13371 0
M  V30 7721 C 726.803 -3.00347 1.9956 0
M  V30 7722 O 725.907 -3.90221 1.33422 0
M  V30 7723 H 725.248 -0.506375 0.429512 0
M  V30 7724 H 727.778 -1.0822 1.73637 0
M  V30 7725 H 727.788 -3.50269 2.09226 0
M  V30 7726 H 726.463 -2.84205 3.03645 0
M  V30 7727 H 725.04 -3.48672 1.32219 0
M  V30 7728 N 727.225 -1.14528 -1.08264 0
M  V30 7729 C 728.172 -0.833556 -2.15222 0
M  V30 7730 C 729.142 0.209539 -1.64773 0
M  V30 7731 O 730.327 0.0791388 -1.90636 0
M  V30 7732 C 727.467 -0.318799 -3.43624 0
M  V30 7733 C 726.58 -1.42237 -4.07913 0
M  V30 7734 C 725.715 -0.864704 -5.24115 0
M  V30 7735 C 724.754 -1.94585 -5.80347 0
M  V30 7736 N 723.891 -1.40525 -6.87893 0
M  V30 7737 H 728.731 -1.74965 -2.41228 0
M  V30 7738 H 726.268 -0.873169 -1.18381 0
M  V30 7739 H 728.226 -0.00213088 -4.172 0
M  V30 7740 H 726.856 0.560397 -3.17898 0
M  V30 7741 H 725.908 -1.8554 -3.32083 0
M  V30 7742 H 727.22 -2.23901 -4.45724 0
M  V30 7743 H 726.374 -0.500025 -6.04636 0
M  V30 7744 H 725.113 -0.0171219 -4.87697 0
M  V30 7745 H 724.118 -2.31946 -4.98479 0
M  V30 7746 H 725.343 -2.79704 -6.18823 0
M  V30 7747 H 723.289 -0.579873 -6.53432 0
M  V30 7748 H 723.206 -2.15825 -7.24538 0
M  V30 7749 H 724.474 -1.06852 -7.72142 0
M  V30 7750 N 728.703 1.26451 -0.940633 0
M  V30 7751 C 729.949 1.94065 -0.58878 0
M  V30 7752 C 730.282 1.7363 0.869853 0
M  V30 7753 O 729.557 1.073 1.62225 0
M  V30 7754 C 729.84 3.47852 -0.931199 0
M  V30 7755 C 729.693 3.77575 -2.44453 0
M  V30 7756 C 731.012 4.37832 -0.446229 0
M  V30 7757 H 728.131 0.704827 -0.21538 0
M  V30 7758 H 730.773 1.4933 -1.17475 0
M  V30 7759 H 728.923 3.86085 -0.432539 0
M  V30 7760 H 730.595 3.49059 -3.01588 0
M  V30 7761 H 728.838 3.23671 -2.88825 0
M  V30 7762 H 729.509 4.85068 -2.63464 0
M  V30 7763 H 731.985 4.06822 -0.873778 0
M  V30 7764 H 730.861 5.44228 -0.714648 0
M  V30 7765 H 731.122 4.37239 0.653815 0
M  V30 7766 N 730.181 0.707592 1.40822 0
M  V30 7767 C 731.427 0.244031 2.01326 0
M  V30 7768 C 731.76 -1.15722 1.55955 0
M  V30 7769 O 731.035 -1.78347 0.776044 0
M  V30 7770 C 731.318 0.315128 3.58718 0
M  V30 7771 C 731.171 1.75419 4.14184 0
M  V30 7772 C 732.49 -0.318251 4.38948 0
M  V30 7773 H 729.609 0.0901471 0.731466 0
M  V30 7774 H 732.251 0.898584 1.67408 0
M  V30 7775 H 730.401 -0.242176 3.87744 0
M  V30 7776 H 732.073 2.36626 3.95987 0
M  V30 7777 H 730.316 2.28449 3.68773 0
M  V30 7778 H 730.987 1.75538 5.23345 0
M  V30 7779 H 733.463 0.156514 4.15806 0
M  V30 7780 H 732.339 -0.238019 5.48384 0
M  V30 7781 H 732.6 -1.40067 4.19325 0
M  V30 7782 N 731.66 -1.50943 0.453197 0
M  V30 7783 C 732.61 -2.25003 -0.368467 0
M  V30 7784 C 733.594 -1.27864 -0.976714 0
M  V30 7785 O 734.786 -1.52867 -0.892228 0
M  V30 7786 C 731.915 -3.10701 -1.46014 0
M  V30 7787 C 731.001 -4.15278 -0.860506 0
M  V30 7788 N 731.392 -5.05799 0.00849611 0
M  V30 7789 C 729.69 -4.31542 -1.1264 0
M  V30 7790 C 730.391 -5.80664 0.346951 0
M  V30 7791 N 729.367 -5.42912 -0.273426 0
M  V30 7792 H 733.169 -2.92352 0.301246 0
M  V30 7793 H 730.683 -1.60203 0.266233 0
M  V30 7794 H 732.68 -3.62348 -2.06179 0
M  V30 7795 H 731.34 -2.44898 -2.13202 0
M  V30 7796 H 732.351 -5.16533 0.376077 0
M  V30 7797 H 729.028 -3.76962 -1.7946 0
M  V30 7798 H 730.418 -6.63565 1.05507 0
M  V30 7799 N 733.138 -0.185124 -1.56509 0
M  V30 7800 C 734.071 0.77877 -2.145 0
M  V30 7801 C 735.049 1.21649 -1.07891 0
M  V30 7802 O 736.233 1.30579 -1.35946 0
M  V30 7803 C 733.36 2.05048 -2.69579 0
M  V30 7804 C 732.406 1.75569 -3.88687 0
M  V30 7805 S 733.239 0.912642 -5.27666 0
M  V30 7806 C 734.395 2.19471 -5.8616 0
M  V30 7807 H 734.628 0.285751 -2.95924 0
M  V30 7808 H 732.161 0.0297417 -1.54371 0
M  V30 7809 H 734.119 2.78085 -3.01958 0
M  V30 7810 H 732.78 2.51462 -1.88216 0
M  V30 7811 H 731.973 2.69962 -4.25601 0
M  V30 7812 H 731.575 1.10619 -3.57267 0
M  V30 7813 H 733.867 3.14815 -5.99915 0
M  V30 7814 H 734.81 1.87005 -6.8296 0
M  V30 7815 H 735.218 2.31862 -5.14685 0
M  V30 7816 N 734.616 1.57351 0.0885366 0
M  V30 7817 C 735.893 1.77449 0.822873 0
M  V30 7818 C 736.273 0.768463 1.96616 0
M  V30 7819 O 735.621 -0.201757 2.27608 0
M  V30 7820 C 735.831 3.23425 1.31137 0
M  V30 7821 C 737.179 3.86791 1.75152 0
M  V30 7822 O 738.203 3.27215 1.40745 0
M  V30 7823 O 737.062 4.91568 2.38794 0
M  V30 7824 H 734.156 0.727653 0.393002 0
M  V30 7825 H 736.702 1.69556 0.0699095 0
M  V30 7826 H 735.474 3.88188 0.49254 0
M  V30 7827 H 735.097 3.35977 2.12615 0
M  V30 7828 N 736.094 -0.359525 1.53444 0
M  V30 7829 C 737.51 -0.701599 1.43352 0
M  V30 7830 C 737.71 -1.93049 0.577439 0
M  V30 7831 O 736.766 -2.52423 0.0622224 0
M  V30 7832 C 738.079 -0.90915 2.86627 0
M  V30 7833 C 739.627 -1.00878 2.96298 0
M  V30 7834 C 740.102 -1.24876 4.40647 0
M  V30 7835 N 741.593 -1.31632 4.44103 0
M  V30 7836 C 742.328 -1.51922 5.52908 0
M  V30 7837 N 741.824 -1.69489 6.71748 0
M  V30 7838 N 743.617 -1.54341 5.40496 0
M  V30 7839 H 735.768 0.448685 2.07607 0
M  V30 7840 H 738.031 0.138713 0.937797 0
M  V30 7841 H 737.737 -0.0778997 3.51614 0
M  V30 7842 H 737.611 -1.81551 3.30634 0
M  V30 7843 H 739.998 -1.83057 2.31461 0
M  V30 7844 H 740.079 -0.0796721 2.55676 0
M  V30 7845 H 739.723 -0.431961 5.0606 0
M  V30 7846 H 739.653 -2.19118 4.78848 0
M  V30 7847 H 742.144 -1.19646 3.5846 0
M  V30 7848 H 742.457 -1.84561 7.50438 0
M  V30 7849 H 740.802 -1.66655 6.74723 0
M  V30 7850 H 743.993 -1.40188 4.46615 0
M  V30 7851 H 744.166 -1.69812 6.25354 0
M  V30 7852 N 737.572 -1.44907 -0.619662 0
M  V30 7853 C 738.818 -1.49504 -1.37914 0
M  V30 7854 C 739.173 -0.130158 -1.91959 0
M  V30 7855 O 738.466 0.856263 -1.71402 0
M  V30 7856 C 738.66 -2.50002 -2.55409 0
M  V30 7857 C 738.489 -3.96128 -2.12867 0
M  V30 7858 C 737.259 -4.64204 -1.99606 0
M  V30 7859 C 739.457 -4.85014 -1.71074 0
M  V30 7860 N 737.439 -5.95104 -1.50748 0
M  V30 7861 C 738.81 -6.05447 -1.33544 0
M  V30 7862 C 740.865 -4.71979 -1.58557 0
M  V30 7863 C 739.568 -7.1429 -0.847484 0
M  V30 7864 C 741.594 -5.80858 -1.11165 0
M  V30 7865 C 740.956 -7.00439 -0.745932 0
M  V30 7866 H 737.055 -0.60207 -0.499034 0
M  V30 7867 H 739.639 -1.81305 -0.70968 0
M  V30 7868 H 737.81 -2.20172 -3.19967 0
M  V30 7869 H 739.542 -2.44823 -3.22248 0
M  V30 7870 H 736.297 -4.19182 -2.20417 0
M  V30 7871 H 736.721 -6.64676 -1.28585 0
M  V30 7872 H 741.363 -3.79953 -1.85461 0
M  V30 7873 H 739.081 -8.06116 -0.565974 0
M  V30 7874 H 742.667 -5.72803 -1.01923 0
M  V30 7875 H 741.547 -7.83255 -0.384848 0
M  V30 7876 N 739.05 0.861098 -1.31996 0
M  V30 7877 C 740.275 1.65264 -1.2531 0
M  V30 7878 C 740.7 1.87265 0.177007 0
M  V30 7879 O 740.058 1.4208 1.12619 0
M  V30 7880 C 740.106 2.99284 -2.0115 0
M  V30 7881 O 739.21 3.89508 -1.3549 0
M  V30 7882 H 738.551 0.50409 -0.432192 0
M  V30 7883 H 741.081 1.07297 -1.74208 0
M  V30 7884 H 741.091 3.49154 -2.11081 0
M  V30 7885 H 739.766 2.82591 -3.05148 0
M  V30 7886 H 738.343 3.47966 -1.34066 0
M  V30 7887 N 740.528 1.15101 1.07655 0
M  V30 7888 C 741.774 0.925343 1.80458 0
M  V30 7889 C 742.107 -0.546354 1.86356 0
M  V30 7890 O 741.382 -1.40496 1.34503 0
M  V30 7891 C 741.665 1.53646 3.25676 0
M  V30 7892 C 741.518 3.07854 3.27942 0
M  V30 7893 C 742.837 1.21968 4.22861 0
M  V30 7894 H 739.956 0.337592 0.655134 0
M  V30 7895 H 742.598 1.42217 1.25993 0
M  V30 7896 H 740.748 1.11395 3.72187 0
M  V30 7897 H 742.42 3.58989 2.89697 0
M  V30 7898 H 740.663 3.41904 2.66991 0
M  V30 7899 H 741.334 3.45725 4.30324 0
M  V30 7900 H 743.81 1.5851 3.84726 0
M  V30 7901 H 742.686 1.67349 5.22767 0
M  V30 7902 H 742.947 0.136207 4.4189 0
M  V30 7903 N 742.006 -1.2595 0.947325 0
M  V30 7904 C 742.916 -2.29883 0.468079 0
M  V30 7905 C 743.932 -1.67783 -0.460975 0
M  V30 7906 O 745.108 -1.98526 -0.339006 0
M  V30 7907 C 742.173 -3.45773 -0.253315 0
M  V30 7908 C 741.234 -4.23337 0.713054 0
M  V30 7909 C 740.467 -5.33694 0.025993 0
M  V30 7910 O 740.69 -5.57853 -1.18978 0
M  V30 7911 O 739.624 -5.97724 0.70782 0
M  V30 7912 H 743.45 -2.72952 1.33156 0
M  V30 7913 H 741.035 -1.31263 0.713468 0
M  V30 7914 H 742.917 -4.16209 -0.659423 0
M  V30 7915 H 741.592 -3.04721 -1.09209 0
M  V30 7916 H 740.499 -3.55359 1.16923 0
M  V30 7917 H 741.832 -4.68154 1.51963 0
M  V30 7918 N 743.484 -0.715051 -1.40445 0
M  V30 7919 C 744.73 -0.254705 -2.01194 0
M  V30 7920 C 745.063 1.14894 -1.56567 0
M  V30 7921 O 744.338 1.77933 -0.785491 0
M  V30 7922 C 744.621 -0.334148 -3.58546 0
M  V30 7923 C 744.474 -1.77613 -4.13248 0
M  V30 7924 C 745.793 0.294968 -4.3911 0
M  V30 7925 H 742.912 -0.094025 -0.730978 0
M  V30 7926 H 745.554 -0.907449 -1.66929 0
M  V30 7927 H 743.704 0.221609 -3.87867 0
M  V30 7928 H 745.376 -2.38723 -3.94727 0
M  V30 7929 H 743.619 -2.30402 -3.67556 0
M  V30 7930 H 744.29 -1.78311 -5.22407 0
M  V30 7931 H 746.766 -0.178563 -4.15717 0
M  V30 7932 H 745.642 0.208934 -5.48502 0
M  V30 7933 H 745.903 1.37841 -4.20062 0
M  V30 7934 N 744.962 1.50701 -0.461195 0
M  V30 7935 C 746.211 2.01458 0.0988277 0
M  V30 7936 C 746.524 1.34863 1.41673 0
M  V30 7937 O 747.73 1.76721 2.06111 0
M  V30 7938 C 746.186 3.59186 0.226648 0
M  V30 7939 C 745.794 4.34732 -1.08223 0
M  V30 7940 C 747.538 4.18015 0.73916 0
M  V30 7941 C 745.445 5.8422 -0.918747 0
M  V30 7942 H 744.375 0.7529 0.040709 0
M  V30 7943 H 747.026 1.736 -0.594589 0
M  V30 7944 H 745.408 3.83589 0.983621 0
M  V30 7945 H 746.582 4.22059 -1.84939 0
M  V30 7946 H 744.897 3.87466 -1.52509 0
M  V30 7947 H 747.494 5.27436 0.878347 0
M  V30 7948 H 747.837 3.78746 1.72793 0
M  V30 7949 H 748.37 3.9778 0.0398469 0
M  V30 7950 H 745.109 6.27944 -1.88059 0
M  V30 7951 H 744.629 5.99493 -0.191801 0
M  V30 7952 H 746.308 6.44382 -0.581405 0
M  V30 7953 N 746.441 0.193421 1.56409 0
M  V30 7954 C 747.852 -0.319471 1.83946 0
M  V30 7955 C 748.203 -1.61505 1.11403 0
M  V30 7956 O 747.328 -2.13139 0.374289 0
M  V30 7957 C 747.923 -0.586411 3.33686 0
M  V30 7958 C 746.482 -1.04368 3.61641 0
M  V30 7959 C 745.629 -0.0913834 2.77149 0
M  V30 7960 H 748.58 0.417242 1.53117 0
M  V30 7961 H 748.601 -1.43591 3.52366 0
M  V30 7962 H 748.113 0.356701 3.86457 0
M  V30 7963 H 746.214 -2.00113 3.14302 0
M  V30 7964 H 746.327 -0.937549 4.69837 0
M  V30 7965 H 744.691 -0.592954 2.47702 0
M  V30 7966 H 745.474 0.846142 3.32709 0
M  V30 7967 N 747.919 -1.57396 -0.0801906 0
M  V30 7968 C 748.851 -1.9982 -1.12271 0
M  V30 7969 C 749.864 -0.902902 -1.35468 0
M  V30 7970 O 751.053 -1.18088 -1.33856 0
M  V30 7971 C 748.153 -2.31476 -2.47532 0
M  V30 7972 C 747.326 -3.62745 -2.44407 0
M  V30 7973 C 746.385 -3.82168 -3.6171 0
M  V30 7974 O 745.411 -4.53852 -3.43522 0
M  V30 7975 N 746.613 -3.2388 -4.81749 0
M  V30 7976 H 749.378 -2.89864 -0.761501 0
M  V30 7977 H 746.939 -1.5965 -0.268965 0
M  V30 7978 H 748.931 -2.4165 -3.24634 0
M  V30 7979 H 747.501 -1.47364 -2.75686 0
M  V30 7980 H 746.721 -3.63403 -1.52747 0
M  V30 7981 H 748.009 -4.48954 -2.39412 0
M  V30 7982 H 747.407 -2.6568 -4.9943 0
M  V30 7983 H 745.964 -3.39515 -5.56392 0
M  V30 7984 N 749.397 0.351382 -1.53633 0
M  V30 7985 C 750.329 1.45159 -1.77374 0
M  V30 7986 C 751.342 1.4905 -0.654826 0
M  V30 7987 O 752.531 1.52274 -0.931396 0
M  V30 7988 C 749.631 2.83858 -1.85143 0
M  V30 7989 C 748.804 3.03498 -3.14972 0
M  V30 7990 C 747.863 4.22393 -3.138 0
M  V30 7991 O 746.889 4.16885 -3.87551 0
M  V30 7992 N 748.091 5.30533 -2.35617 0
M  V30 7993 H 750.856 1.25167 -2.72311 0
M  V30 7994 H 748.417 0.54121 -1.52586 0
M  V30 7995 H 750.409 3.61557 -1.8182 0
M  V30 7996 H 748.979 2.9703 -0.974275 0
M  V30 7997 H 748.199 2.13336 -3.31484 0
M  V30 7998 H 749.487 3.13498 -4.00745 0
M  V30 7999 H 748.885 5.37875 -1.75235 0
M  V30 8000 H 747.442 6.06756 -2.38098 0
M  V30 8001 N 750.875 1.45233 0.611969 0
M  V30 8002 C 752.103 1.52539 1.39784 0
M  V30 8003 C 752.518 0.156533 1.8815 0
M  V30 8004 O 751.875 -0.84112 1.61961 0
M  V30 8005 C 751.926 2.50614 2.60528 0
M  V30 8006 O 751.647 3.8218 2.14173 0
M  V30 8007 C 753.148 2.67574 3.53439 0
M  V30 8008 H 750.368 0.51674 0.428043 0
M  V30 8009 H 752.912 1.90379 0.746727 0
M  V30 8010 H 751.067 2.15858 3.2169 0
M  V30 8011 H 751.481 4.35305 2.92592 0
M  V30 8012 H 752.955 3.40184 4.34717 0
M  V30 8013 H 753.432 1.73458 4.03496 0
M  V30 8014 H 754.038 3.0331 2.98133 0
M  V30 8015 N 752.353 -0.854086 1.3245 0
M  V30 8016 C 753.263 -1.99503 1.23434 0
M  V30 8017 C 754.279 -1.73371 0.147828 0
M  V30 8018 O 755.455 -1.97998 0.368609 0
M  V30 8019 C 752.52 -3.33192 0.958328 0
M  V30 8020 C 751.581 -3.72542 2.13333 0
M  V30 8021 C 750.814 -4.99852 1.8704 0
M  V30 8022 O 751.037 -5.64573 0.813239 0
M  V30 8023 O 749.971 -5.36345 2.73161 0
M  V30 8024 H 753.797 -2.10046 2.1935 0
M  V30 8025 H 751.382 -0.984823 1.12346 0
M  V30 8026 H 753.264 -4.13327 0.820918 0
M  V30 8027 H 751.939 -3.23687 0.0293299 0
M  V30 8028 H 750.846 -2.92981 2.32622 0
M  V30 8029 H 752.179 -3.86694 3.04514 0
M  V30 8030 N 753.831 -1.1567 -1.07043 0
M  V30 8031 C 754.741 -0.870435 -2.17855 0
M  V30 8032 C 755.757 0.154452 -1.73313 0
M  V30 8033 O 756.933 -0.0203759 -2.0139 0
M  V30 8034 C 753.998 -0.367219 -3.4475 0
M  V30 8035 C 753.059 -1.45639 -4.03841 0
M  V30 8036 C 752.292 -0.977092 -5.2468 0
M  V30 8037 O 752.515 0.176127 -5.70128 0
M  V30 8038 O 751.449 -1.76215 -5.75527 0
M  V30 8039 H 755.275 -1.79687 -2.44839 0
M  V30 8040 H 752.86 -0.936064 -1.1644 0
M  V30 8041 H 754.742 -0.0931947 -4.21297 0
M  V30 8042 H 753.417 0.53131 -3.1931 0
M  V30 8043 H 752.324 -1.78406 -3.28819 0
M  V30 8044 H 753.657 -2.32995 -4.3356 0
M  V30 8045 N 755.309 1.25446 -0.953992 0
M  V30 8046 C 756.256 2.25912 -0.472485 0
M  V30 8047 C 757.226 1.59173 0.47469 0
M  V30 8048 O 758.411 1.86812 0.388082 0
M  V30 8049 C 755.551 3.44235 0.244218 0
M  V30 8050 C 754.664 4.25613 -0.740121 0
M  V30 8051 C 753.799 5.312 -0.000922267 0
M  V30 8052 C 752.838 6.04265 -0.976236 0
M  V30 8053 N 751.975 7.01589 -0.267952 0
M  V30 8054 H 756.815 2.66469 -1.3341 0
M  V30 8055 H 754.352 1.31005 -0.669045 0
M  V30 8056 H 756.31 4.11682 0.676314 0
M  V30 8057 H 754.94 3.04554 1.06988 0
M  V30 8058 H 753.992 3.57834 -1.2907 0
M  V30 8059 H 755.304 4.762 -1.48441 0
M  V30 8060 H 754.458 6.04719 0.48984 0
M  V30 8061 H 753.197 4.81484 0.776159 0
M  V30 8062 H 752.202 5.29561 -1.478 0
M  V30 8063 H 753.427 6.5607 -1.75354 0
M  V30 8064 H 751.373 6.54164 0.490403 0
M  V30 8065 H 751.29 7.4999 -0.951344 0
M  V30 8066 H 752.558 7.7924 0.201294 0
M  V30 8067 N 756.787 0.722489 1.40064 0
M  V30 8068 C 758.012 0.273446 2.05589 0
M  V30 8069 C 758.437 -1.07875 1.54093 0
M  V30 8070 O 757.795 -1.68095 0.679252 0
M  V30 8071 C 757.843 0.271023 3.5958 0
M  V30 8072 O 756.947 -0.745499 4.05606 0
M  V30 8073 H 756.288 0.126856 0.65177 0
M  V30 8074 H 758.818 0.984906 1.79334 0
M  V30 8075 H 758.828 0.111084 4.07849 0
M  V30 8076 H 757.503 1.25776 3.96425 0
M  V30 8077 H 756.08 -0.552719 3.68781 0
M  V30 8078 N 758.265 -1.50454 0.469181 0
M  V30 8079 C 759.542 -1.9504 -0.147955 0
M  V30 8080 C 759.922 -1.40946 -1.57154 0
M  V30 8081 O 759.27 -0.609663 -2.20217 0
M  V30 8082 C 759.48 -3.48875 -0.0932198 0
M  V30 8083 C 760.828 -4.23655 -0.283056 0
M  V30 8084 O 761.852 -3.55795 -0.169892 0
M  V30 8085 O 760.711 -5.44102 -0.511396 0
M  V30 8086 H 757.805 -0.819283 -0.11271 0
M  V30 8087 H 760.351 -1.6123 0.529446 0
M  V30 8088 H 759.123 -3.80791 0.900784 0
M  V30 8089 H 758.746 -3.89217 -0.812161 0
M  V30 8090 N 759.743 -0.201713 -1.56304 0
M  V30 8091 C 761.154 0.309711 -1.84113 0
M  V30 8092 C 761.505 1.60912 -1.12258 0
M  V30 8093 O 760.63 2.12937 -0.385587 0
M  V30 8094 C 761.225 0.568706 -3.33993 0
M  V30 8095 C 759.784 1.02448 -3.6219 0
M  V30 8096 C 758.931 0.0766842 -2.77194 0
M  V30 8097 H 761.882 -0.425356 -1.52893 0
M  V30 8098 H 761.903 1.41721 -3.53122 0
M  V30 8099 H 761.415 -0.37719 -3.86263 0
M  V30 8100 H 759.516 1.98443 -3.15359 0
M  V30 8101 H 759.629 0.912619 -4.70328 0
M  V30 8102 H 757.993 0.579809 -2.48013 0
M  V30 8103 H 758.776 -0.863774 -3.32256 0
M  V30 8104 N 761.222 1.57436 0.0718424 0
M  V30 8105 C 762.468 1.87525 0.772149 0
M  V30 8106 C 762.801 0.79399 1.77227 0
M  V30 8107 O 762.076 -0.195733 1.93513 0
M  V30 8108 C 762.359 3.28272 1.48018 0
M  V30 8109 C 762.212 4.47052 0.49647 0
M  V30 8110 C 763.531 3.67256 2.42509 0
M  V30 8111 H 760.65 0.682049 0.279245 0
M  V30 8112 H 763.292 1.89967 0.03534 0
M  V30 8113 H 761.442 3.26321 2.10824 0
M  V30 8114 H 763.114 4.61127 -0.126375 0
M  V30 8115 H 761.357 4.33392 -0.188205 0
M  V30 8116 H 762.028 5.42315 1.02949 0
M  V30 8117 H 764.504 3.70301 1.89781 0
M  V30 8118 H 763.38 4.66626 2.89053 0
M  V30 8119 H 763.641 2.97186 3.27312 0
M  V30 8120 N 762.7 -0.34323 1.53817 0
M  V30 8121 C 764.111 -0.918823 1.62525 0
M  V30 8122 C 764.462 -1.89542 0.506765 0
M  V30 8123 O 763.587 -2.13326 -0.363441 0
M  V30 8124 C 764.182 -1.67326 2.94597 0
M  V30 8125 C 762.741 -2.19786 3.05567 0
M  V30 8126 C 761.888 -1.01708 2.57974 0
M  V30 8127 H 764.839 -0.121358 1.58235 0
M  V30 8128 H 764.86 -2.53615 2.83654 0
M  V30 8129 H 764.372 -0.962223 3.75983 0
M  V30 8130 H 762.473 -2.94065 2.28816 0
M  V30 8131 H 762.586 -2.46135 4.1104 0
M  V30 8132 H 760.95 -1.39058 2.13389 0
M  V30 8133 H 761.733 -0.320671 3.41799 0
M  V30 8134 N 764.178 -1.45556 -0.604258 0
M  V30 8135 C 765.425 -1.49746 -1.36317 0
M  V30 8136 C 765.753 -0.140516 -1.93992 0
M  V30 8137 O 765.008 0.861244 -1.7573 0
M  V30 8138 C 765.307 -2.52697 -2.52743 0
M  V30 8139 C 764.973 -3.97315 -2.13195 0
M  V30 8140 C 763.635 -4.36692 -2.02123 0
M  V30 8141 C 765.987 -4.88249 -1.8238 0
M  V30 8142 C 763.315 -5.64895 -1.58463 0
M  V30 8143 C 765.667 -6.16867 -1.40205 0
M  V30 8144 C 764.331 -6.55172 -1.27694 0
M  V30 8145 H 763.601 -0.54796 -0.49882 0
M  V30 8146 H 766.248 -1.7892 -0.682643 0
M  V30 8147 H 764.553 -2.17105 -3.26148 0
M  V30 8148 H 766.25 -2.53176 -3.10971 0
M  V30 8149 H 762.84 -3.66176 -2.22739 0
M  V30 8150 H 767.024 -4.58561 -1.89829 0
M  V30 8151 H 762.28 -5.93365 -1.47402 0
M  V30 8152 H 766.454 -6.86771 -1.15408 0
M  V30 8153 H 764.081 -7.54411 -0.936375 0
M  V30 8154 N 765.656 0.84705 -1.32902 0
M  V30 8155 C 766.588 1.96308 -1.18304 0
M  V30 8156 C 767.601 1.62386 -0.116082 0
M  V30 8157 O 768.79 1.74713 -0.365751 0
M  V30 8158 C 765.89 3.29556 -0.790305 0
M  V30 8159 C 765.063 3.91668 -1.94717 0
M  V30 8160 C 764.122 5.0326 -1.53674 0
M  V30 8161 O 763.148 5.22847 -2.24989 0
M  V30 8162 N 764.35 5.78852 -0.437075 0
M  V30 8163 H 767.115 2.09369 -2.14441 0
M  V30 8164 H 764.676 1.02233 -1.25539 0
M  V30 8165 H 766.668 4.01624 -0.49799 0
M  V30 8166 H 765.238 3.12497 0.0801286 0
M  V30 8167 H 764.458 3.12292 -2.40557 0
M  V30 8168 H 765.746 4.299 -2.72146 0
M  V30 8169 H 765.144 5.65484 0.156316 0
M  V30 8170 H 763.701 6.51479 -0.204399 0
M  V30 8171 N 767.134 1.16236 1.06428 0
M  V30 8172 C 768.383 0.937523 1.78587 0
M  V30 8173 C 768.696 -0.536 1.88113 0
M  V30 8174 O 769.902 -0.878697 2.56887 0
M  V30 8175 C 768.358 1.62808 3.2097 0
M  V30 8176 C 767.966 3.13927 3.19615 0
M  V30 8177 C 769.71 1.48515 3.97673 0
M  V30 8178 C 767.617 3.75727 4.56709 0
M  V30 8179 H 766.547 0.347125 0.669343 0
M  V30 8180 H 769.198 1.39353 1.19385 0
M  V30 8181 H 767.58 1.09977 3.80422 0
M  V30 8182 H 768.754 3.7359 2.69753 0
M  V30 8183 H 767.069 3.28089 2.56411 0
M  V30 8184 H 769.666 1.92069 4.99013 0
M  V30 8185 H 770.009 0.433913 4.14032 0
M  V30 8186 H 770.542 1.98494 3.44739 0
M  V30 8187 H 767.281 4.80793 4.45554 0
M  V30 8188 H 766.801 3.20849 5.0677 0
M  V30 8189 H 768.48 3.77203 5.25668 0
M  V30 8190 N 768.612 -1.24939 0.960631 0
M  V30 8191 C 769.861 -1.92118 0.614298 0
M  V30 8192 C 770.174 -1.75998 -0.853474 0
M  V30 8193 O 771.38 -2.37804 -1.31003 0
M  V30 8194 C 769.836 -3.44303 1.04801 0
M  V30 8195 C 769.444 -3.69123 2.53875 0
M  V30 8196 C 771.188 -4.17375 0.774497 0
M  V30 8197 C 769.095 -5.14843 2.91016 0
M  V30 8198 H 768.025 -0.719319 0.226045 0
M  V30 8199 H 770.676 -1.41701 1.16589 0
M  V30 8200 H 769.058 -3.93715 0.42479 0
M  V30 8201 H 770.232 -3.30339 3.21267 0
M  V30 8202 H 768.547 -3.09323 2.78762 0
M  V30 8203 H 771.144 -5.24723 1.02808 0
M  V30 8204 H 771.487 -4.15294 -0.289192 0
M  V30 8205 H 772.02 -3.7389 1.35835 0
M  V30 8206 H 768.759 -5.2204 3.96427 0
M  V30 8207 H 768.279 -5.54652 2.28302 0
M  V30 8208 H 769.958 -5.83017 2.80535 0
M  V30 8209 N 770.09 -0.729906 -1.39679 0
M  V30 8210 C 771.038 -0.0756589 -2.32477 0
M  V30 8211 C 772.032 0.731438 -1.52795 0
M  V30 8212 O 773.238 0.633195 -1.68495 0
M  V30 8213 H 769.613 -0.00566492 -0.751979 0
M  V30 8214 H 771.584 -0.874797 -2.85289 0
M  V30 8215 C 770.333 0.821313 -3.37861 0
M  V30 8216 H 769.656 0.209666 -3.9925 0
M  V30 8217 H 771.096 1.24679 -4.05254 0
M  V30 8218 C 769.555 1.9533 -2.74495 0
M  V30 8219 O 770.085 3.04548 -2.61942 0
M  V30 8220 N 768.291 1.74119 -2.3266 0
M  V30 8221 H 767.838 0.852908 -2.4307 0
M  V30 8222 H 767.796 2.50036 -1.90603 0
M  V30 8223 N 771.568 1.50203 -0.477153 0
M  V30 8224 C 772.516 2.30278 0.327826 0
M  V30 8225 C 773.51 1.37831 0.984839 0
M  V30 8226 O 774.716 1.54994 0.915251 0
M  V30 8227 H 771.091 0.741612 0.124564 0
M  V30 8228 H 773.062 2.96124 -0.367853 0
M  V30 8229 C 771.811 3.18548 1.39365 0
M  V30 8230 H 771.134 3.89596 0.897475 0
M  V30 8231 H 772.574 3.77561 1.92934 0
M  V30 8232 C 771.033 2.36548 2.39889 0
M  V30 8233 O 771.563 2.05282 3.45286 0
M  V30 8234 N 769.769 1.99015 2.11758 0
M  V30 8235 H 769.316 2.24641 1.26071 0
M  V30 8236 H 769.274 1.44454 2.7925 0
M  V30 8237 N 773.046 0.209999 1.56195 0
M  V30 8238 C 774.276 -0.429373 2.02089 0
M  V30 8239 C 774.684 -1.54703 1.0892 0
M  V30 8240 O 774.027 -1.83485 0.0889535 0
M  V30 8241 C 774.089 -1.03266 3.44349 0
M  V30 8242 C 773.753 -0.0518873 4.56971 0
M  V30 8243 C 774.75 0.744249 5.14545 0
M  V30 8244 C 772.435 0.0635185 5.0226 0
M  V30 8245 C 774.429 1.64261 6.15871 0
M  V30 8246 C 772.116 0.965423 6.03426 0
M  V30 8247 C 773.114 1.75352 6.60106 0
M  V30 8248 O 772.802 2.64029 7.59305 0
M  V30 8249 H 772.534 -0.110604 0.66689 0
M  V30 8250 H 775.088 0.320436 2.02885 0
M  V30 8251 H 773.318 -1.83134 3.40586 0
M  V30 8252 H 775.007 -1.57823 3.73961 0
M  V30 8253 H 775.773 0.665476 4.80413 0
M  V30 8254 H 771.652 -0.539762 4.57829 0
M  V30 8255 H 775.196 2.25819 6.60039 0
M  V30 8256 H 771.093 1.04526 6.36981 0
M  V30 8257 H 771.861 2.57974 7.76783 0
M  V30 8258 N 774.524 -1.57472 -0.0634922 0
M  V30 8259 C 775.771 -1.87654 -0.761066 0
M  V30 8260 C 776.099 -0.802847 -1.77157 0
M  V30 8261 O 775.354 0.200244 -1.94673 0
M  V30 8262 C 775.653 -3.24521 -1.49736 0
M  V30 8263 C 775.319 -4.46532 -0.626065 0
M  V30 8264 C 773.981 -4.7965 -0.385978 0
M  V30 8265 C 776.333 -5.21195 -0.0224001 0
M  V30 8266 C 773.661 -5.84837 0.467118 0
M  V30 8267 C 776.013 -6.27286 0.818198 0
M  V30 8268 C 774.677 -6.58899 1.06808 0
M  V30 8269 H 773.947 -0.686675 -0.278494 0
M  V30 8270 H 776.594 -1.91488 -0.0216348 0
M  V30 8271 H 774.899 -3.16516 -2.30921 0
M  V30 8272 H 776.596 -3.45111 -2.04204 0
M  V30 8273 H 773.186 -4.20618 -0.823325 0
M  V30 8274 H 777.37 -4.95917 -0.194985 0
M  V30 8275 H 772.626 -6.07725 0.669375 0
M  V30 8276 H 776.8 -6.84298 1.29265 0
M  V30 8277 H 774.427 -7.40233 1.73088 0
M  V30 8278 N 776.003 0.335068 -1.53997 0
M  V30 8279 C 777.228 1.09859 -1.75914 0
M  V30 8280 C 777.653 1.81308 -0.500915 0
M  V30 8281 O 777.011 1.72854 0.54693 0
M  V30 8282 C 777.059 2.08122 -2.94478 0
M  V30 8283 O 776.163 3.15805 -2.65219 0
M  V30 8284 H 775.504 0.317313 -0.583274 0
M  V30 8285 H 778.034 0.382872 -2.00986 0
M  V30 8286 H 778.044 2.51195 -3.21504 0
M  V30 8287 H 776.719 1.55517 -3.8573 0
M  V30 8288 H 775.296 2.77489 -2.49107 0
M  V30 8289 N 777.481 1.45874 0.596531 0
M  V30 8290 C 778.73 1.49737 1.35135 0
M  V30 8291 C 779.043 0.147755 1.95041 0
M  V30 8292 O 780.249 0.0640984 2.71424 0
M  V30 8293 C 778.705 2.6378 2.44843 0
M  V30 8294 C 778.313 4.05102 1.91301 0
M  V30 8295 C 780.057 2.769 3.21755 0
M  V30 8296 C 777.964 5.10508 2.98557 0
M  V30 8297 H 776.894 0.557219 0.507959 0
M  V30 8298 H 779.545 1.72046 0.638147 0
M  V30 8299 H 777.927 2.34774 3.189 0
M  V30 8300 H 779.101 4.43836 1.2388 0
M  V30 8301 H 777.416 3.96528 1.271 0
M  V30 8302 H 780.013 3.52819 4.01775 0
M  V30 8303 H 780.356 1.83924 3.73467 0
M  V30 8304 H 780.889 3.05485 2.54802 0
M  V30 8305 H 777.628 6.0523 2.51749 0
M  V30 8306 H 777.148 4.76332 3.6451 0
M  V30 8307 H 778.827 5.35745 3.62748 0
M  V30 8308 N 778.959 -0.83999 1.33349 0
M  V30 8309 C 780.207 -1.59202 1.24496 0
M  V30 8310 C 780.528 -1.94077 -0.189499 0
M  V30 8311 O 779.798 -1.60868 -1.11796 0
M  V30 8312 H 778.378 -0.590276 0.457802 0
M  V30 8313 H 781.04 -1.00394 1.67054 0
M  V30 8314 H 780.136 -2.52247 1.83788 0
M  V30 8315 N 780.437 -1.16799 -1.0581 0
M  V30 8316 C 781.683 -0.953935 -1.78963 0
M  V30 8317 C 782.016 0.516638 -1.87202 0
M  V30 8318 O 781.291 1.38338 -1.36721 0
M  V30 8319 C 781.574 -1.58808 -3.23191 0
M  V30 8320 C 781.427 -3.13032 -3.23003 0
M  V30 8321 C 782.746 -1.2868 -4.20867 0
M  V30 8322 H 779.865 -0.347972 -0.64968 0
M  V30 8323 H 782.507 -1.44204 -1.23715 0
M  V30 8324 H 780.657 -1.17303 -3.70368 0
M  V30 8325 H 782.329 -3.63553 -2.83949 0
M  V30 8326 H 780.572 -3.46108 -2.61518 0
M  V30 8327 H 781.243 -3.52527 -4.24769 0
M  V30 8328 H 783.719 -1.6461 -3.82155 0
M  V30 8329 H 782.595 -1.75645 -5.20038 0
M  V30 8330 H 782.856 -0.206491 -4.41618 0
M  V30 8331 N 781.915 1.24427 -0.967243 0
M  V30 8332 C 783.192 1.87831 -0.545776 0
M  V30 8333 C 783.572 1.87126 0.977099 0
M  V30 8334 O 782.92 1.34357 1.84826 0
M  V30 8335 C 783.13 3.29967 -1.13679 0
M  V30 8336 C 784.478 4.06654 -1.22139 0
M  V30 8337 O 785.502 3.39136 -1.08926 0
M  V30 8338 O 784.361 5.27455 -1.43017 0
M  V30 8339 H 781.455 0.806745 -0.181912 0
M  V30 8340 H 784.001 1.32403 -1.06148 0
M  V30 8341 H 782.773 3.24977 -2.17958 0
M  V30 8342 H 782.396 3.92969 -0.605093 0
M  V30 8343 N 783.393 0.737304 1.3929 0
M  V30 8344 C 784.356 0.10731 2.28949 0
M  V30 8345 C 785.356 -0.664716 1.46418 0
M  V30 8346 O 786.546 -0.493392 1.67067 0
M  V30 8347 C 783.678 -0.857145 3.29948 0
M  V30 8348 H 784.871 0.89725 2.86163 0
M  V30 8349 H 782.424 0.503279 1.47976 0
M  V30 8350 H 783.159 -1.67336 2.77794 0
M  V30 8351 H 782.944 -0.306167 3.90903 0
M  V30 8352 H 784.434 -1.29444 3.97031 0
M  V30 8353 N 784.871 -1.49948 0.485112 0
M  V30 8354 C 786.096 -2.073 -0.0645059 0
M  V30 8355 C 786.521 -1.345 -1.31497 0
M  V30 8356 O 785.879 -0.39687 -1.76903 0
M  V30 8357 C 785.927 -3.59201 -0.317304 0
M  V30 8358 O 785.031 -3.88085 -1.39514 0
M  V30 8359 H 784.372 -0.663723 0.0191822 0
M  V30 8360 H 786.902 -1.92963 0.680179 0
M  V30 8361 H 786.912 -4.04227 -0.553604 0
M  V30 8362 H 785.587 -4.11602 0.596387 0
M  V30 8363 H 784.164 -3.54885 -1.14504 0
M  V30 8364 N 786.349 -0.21828 -1.56081 0
M  V30 8365 C 787.598 0.414644 -1.97392 0
M  V30 8366 C 787.911 1.61132 -1.10887 0
M  V30 8367 O 789.117 2.31355 -1.42082 0
M  V30 8368 C 787.573 0.789099 -3.51143 0
M  V30 8369 C 787.181 -0.384578 -4.46346 0
M  V30 8370 C 788.925 1.38781 -4.01173 0
M  V30 8371 C 786.832 0.0121288 -5.91399 0
M  V30 8372 H 785.762 0.158691 -0.737111 0
M  V30 8373 H 788.413 -0.313974 -1.80794 0
M  V30 8374 H 786.795 1.57505 -3.6333 0
M  V30 8375 H 787.969 -1.16212 -4.45905 0
M  V30 8376 H 786.284 -0.896306 -4.06639 0
M  V30 8377 H 788.881 1.69746 -5.07041 0
M  V30 8378 H 789.224 2.30245 -3.46833 0
M  V30 8379 H 789.757 0.665364 -3.92196 0
M  V30 8380 H 786.496 -0.868917 -6.49715 0
M  V30 8381 H 786.016 0.754053 -5.95041 0
M  V30 8382 H 787.695 0.439949 -6.45502 0
M  V30 8383 N 787.827 1.57504 0.0551401 0
M  V30 8384 C 788.79 2.03826 1.04821 0
M  V30 8385 C 789.79 0.937968 1.30609 0
M  V30 8386 O 790.98 1.20237 1.2605 0
M  V30 8387 C 788.112 2.43309 2.38775 0
M  V30 8388 H 789.305 2.92802 0.6486 0
M  V30 8389 H 786.858 1.53368 0.301315 0
M  V30 8390 H 787.593 1.5741 2.83536 0
M  V30 8391 H 787.378 3.23615 2.21395 0
M  V30 8392 H 788.868 2.79666 3.10124 0
M  V30 8393 N 789.305 -0.326896 1.54172 0
M  V30 8394 C 790.255 -1.40319 1.79707 0
M  V30 8395 C 791.239 -1.47056 0.652938 0
M  V30 8396 O 792.431 -1.51645 0.91284 0
M  V30 8397 C 789.56 -2.77222 2.02491 0
M  V30 8398 C 788.646 -2.74811 3.23016 0
M  V30 8399 N 789.037 -2.42022 4.44138 0
M  V30 8400 C 787.335 -3.05943 3.24522 0
M  V30 8401 C 788.036 -2.48263 5.26061 0
M  V30 8402 N 787.012 -2.84567 4.63166 0
M  V30 8403 H 790.814 -1.13892 2.70935 0
M  V30 8404 H 788.328 -0.53536 1.53322 0
M  V30 8405 H 790.325 -3.54793 2.18923 0
M  V30 8406 H 788.985 -3.04582 1.12515 0
M  V30 8407 H 789.996 -2.14926 4.71197 0
M  V30 8408 H 786.673 -3.38367 2.44569 0
M  V30 8409 H 788.063 -2.2593 6.32776 0
M  V30 8410 N 790.784 -1.46188 -0.588786 0
M  V30 8411 C 792.2 -1.31009 -0.911524 0
M  V30 8412 C 792.4 -0.277017 -1.99587 0
M  V30 8413 O 791.456 0.322532 -2.50432 0
M  V30 8414 C 792.769 -2.69459 -1.33463 0
M  V30 8415 C 794.317 -2.77502 -1.44782 0
M  V30 8416 C 794.792 -4.1652 -1.90461 0
M  V30 8417 N 796.283 -4.18907 -1.97665 0
M  V30 8418 C 797.018 -5.23359 -2.34271 0
M  V30 8419 N 796.514 -6.38143 -2.69714 0
M  V30 8420 N 798.307 -5.10723 -2.34774 0
M  V30 8421 H 790.458 -2.12016 0.127614 0
M  V30 8422 H 792.721 -0.947984 -0.00557599 0
M  V30 8423 H 792.427 -3.46336 -0.611929 0
M  V30 8424 H 792.301 -2.99165 -2.2974 0
M  V30 8425 H 794.688 -2.00917 -2.1614 0
M  V30 8426 H 794.769 -2.51488 -0.467724 0
M  V30 8427 H 794.413 -4.93597 -1.19684 0
M  V30 8428 H 794.343 -4.39937 -2.89418 0
M  V30 8429 H 796.834 -3.36084 -1.72789 0
M  V30 8430 H 797.147 -7.13624 -2.96582 0
M  V30 8431 H 795.492 -6.41514 -2.67366 0
M  V30 8432 H 798.683 -4.20088 -2.06503 0
M  V30 8433 H 798.856 -5.9224 -2.62975 0
M  V30 8434 N 792.262 0.832906 -1.33792 0
M  V30 8435 C 793.509 1.58853 -1.25586 0
M  V30 8436 C 793.837 1.93695 0.176807 0
M  V30 8437 O 793.092 1.59386 1.13554 0
M  V30 8438 C 793.391 2.9047 -2.08235 0
M  V30 8439 C 793.057 2.74965 -3.57358 0
M  V30 8440 C 791.719 2.70444 -3.98012 0
M  V30 8441 C 794.071 2.59347 -4.52093 0
M  V30 8442 C 791.399 2.48212 -5.31608 0
M  V30 8443 C 793.751 2.38649 -5.85858 0
M  V30 8444 C 792.415 2.32533 -6.25687 0
M  V30 8445 H 791.685 0.581285 -0.459553 0
M  V30 8446 H 794.332 0.964501 -1.65438 0
M  V30 8447 H 792.637 3.57111 -1.6118 0
M  V30 8448 H 794.334 3.48001 -1.99239 0
M  V30 8449 H 790.924 2.79319 -3.25083 0
M  V30 8450 H 795.108 2.6187 -4.2159 0
M  V30 8451 H 790.364 2.41929 -5.61498 0
M  V30 8452 H 794.538 2.25549 -6.58863 0
M  V30 8453 H 792.165 2.15067 -7.29143 0
M  V30 8454 N 793.74 1.17359 1.05189 0
M  V30 8455 C 794.69 0.858445 2.11222 0
M  V30 8456 C 795.674 -0.166991 1.60031 0
M  V30 8457 O 796.866 0.0354456 1.76965 0
M  V30 8458 C 793.995 0.373549 3.41262 0
M  V30 8459 C 793.081 1.43041 3.99249 0
M  V30 8460 N 793.472 2.64387 4.312 0
M  V30 8461 C 791.77 1.28828 4.26989 0
M  V30 8462 C 792.471 3.32296 4.77446 0
M  V30 8463 N 791.447 2.59674 4.77567 0
M  V30 8464 H 795.249 1.78104 2.33786 0
M  V30 8465 H 792.763 1.0623 1.22837 0
M  V30 8466 H 794.76 0.129331 4.16699 0
M  V30 8467 H 793.42 -0.542847 3.2013 0
M  V30 8468 H 794.431 3.01351 4.21198 0
M  V30 8469 H 791.108 0.43353 4.15243 0
M  V30 8470 H 792.498 4.35939 5.11279 0
M  V30 8471 N 795.218 -1.23913 0.973828 0
M  V30 8472 C 796.467 -1.91455 0.63464 0
M  V30 8473 C 796.78 -1.76893 -0.834759 0
M  V30 8474 O 797.986 -2.3918 -1.28473 0
M  V30 8475 C 796.442 -3.43172 1.08447 0
M  V30 8476 C 796.05 -3.66409 2.57776 0
M  V30 8477 C 797.794 -4.1653 0.818721 0
M  V30 8478 C 795.701 -5.11728 2.9646 0
M  V30 8479 H 794.631 -0.716881 0.233661 0
M  V30 8480 H 797.282 -1.40457 1.18085 0
M  V30 8481 H 795.664 -3.93242 0.466524 0
M  V30 8482 H 796.838 -3.26913 3.24753 0
M  V30 8483 H 795.153 -3.06349 2.82027 0
M  V30 8484 H 797.75 -5.23603 1.08367 0
M  V30 8485 H 798.093 -4.15578 -0.245128 0
M  V30 8486 H 798.626 -3.72428 1.39793 0
M  V30 8487 H 795.365 -5.17806 4.01941 0
M  V30 8488 H 794.885 -5.52199 2.34172 0
M  V30 8489 H 796.564 -5.80009 2.86703 0
M  V30 8490 N 796.696 -0.74468 -1.38897 0
M  V30 8491 C 797.629 -0.0596441 -2.28122 0
M  V30 8492 C 798.607 0.73764 -1.44906 0
M  V30 8493 O 799.791 0.718155 -1.74284 0
M  V30 8494 C 796.918 0.922533 -3.25894 0
M  V30 8495 C 795.964 0.212566 -4.2597 0
M  V30 8496 S 796.797 -1.08035 -5.24489 0
M  V30 8497 C 797.953 -0.101014 -6.25818 0
M  V30 8498 H 798.186 -0.816289 -2.85874 0
M  V30 8499 H 795.719 -0.536882 -1.44765 0
M  V30 8500 H 797.677 1.4839 -3.82741 0
M  V30 8501 H 796.338 1.65209 -2.67142 0
M  V30 8502 H 795.531 0.956106 -4.94848 0
M  V30 8503 H 795.133 -0.277029 -3.72973 0
M  V30 8504 H 797.425 0.736072 -6.7349 0
M  V30 8505 H 798.368 -0.757206 -7.0404 0
M  V30 8506 H 798.776 0.275706 -5.63826 0
M  V30 8507 N 798.174 1.49689 -0.493057 0
M  V30 8508 C 799.59 1.58907 -0.148526 0
M  V30 8509 C 799.79 1.4991 1.34645 0
M  V30 8510 O 798.846 1.36893 2.12171 0
M  V30 8511 C 800.159 2.91996 -0.718265 0
M  V30 8512 C 801.707 3.05443 -0.683658 0
M  V30 8513 C 802.182 4.41138 -1.23132 0
M  V30 8514 N 803.673 4.47608 -1.19167 0
M  V30 8515 C 804.408 5.51038 -1.5857 0
M  V30 8516 N 803.904 6.61612 -2.05528 0
M  V30 8517 N 805.697 5.41706 -1.50036 0
M  V30 8518 H 797.848 1.5378 -1.46511 0
M  V30 8519 H 800.111 0.727996 -0.607228 0
M  V30 8520 H 799.817 3.04123 -1.7664 0
M  V30 8521 H 799.691 3.76798 -0.17419 0
M  V30 8522 H 802.078 2.92949 0.355626 0
M  V30 8523 H 802.159 2.22344 -1.26479 0
M  V30 8524 H 801.803 4.54382 -2.26935 0
M  V30 8525 H 801.733 5.22864 -0.626201 0
M  V30 8526 H 804.224 3.68274 -0.847524 0
M  V30 8527 H 804.537 7.36622 -2.33685 0
M  V30 8528 H 802.882 6.62674 -2.09497 0
M  V30 8529 H 806.073 4.54212 -1.13176 0
M  V30 8530 H 806.246 6.22188 -1.81068 0
M  V30 8531 N 799.652 0.226554 1.55963 0
M  V30 8532 C 800.562 -0.692725 2.24139 0
M  V30 8533 C 801.578 -1.20971 1.25068 0
M  V30 8534 O 802.754 -1.25027 1.57893 0
M  V30 8535 C 799.819 -1.88183 2.91184 0
M  V30 8536 C 798.88 -1.40633 4.05612 0
M  V30 8537 C 798.113 -2.53875 4.6945 0
M  V30 8538 O 798.336 -3.72129 4.32292 0
M  V30 8539 O 797.27 -2.24792 5.58348 0
M  V30 8540 H 801.096 -0.141921 3.03368 0
M  V30 8541 H 798.681 -0.0041049 1.49399 0
M  V30 8542 H 800.563 -2.57617 3.33484 0
M  V30 8543 H 799.238 -2.42064 2.14911 0
M  V30 8544 H 798.145 -0.67986 3.67871 0
M  V30 8545 H 799.478 -0.913838 4.83642 0
M  V30 8546 N 801.13 -1.57531 -0.0467866 0
M  V30 8547 C 802.077 -2.05387 -1.05285 0
M  V30 8548 C 803.047 -0.939385 -1.36985 0
M  V30 8549 O 804.232 -1.20877 -1.47626 0
M  V30 8550 C 801.372 -2.52343 -2.35408 0
M  V30 8551 C 800.485 -3.77512 -2.10022 0
M  V30 8552 C 799.62 -4.1315 -3.33887 0
M  V30 8553 C 798.659 -5.31286 -3.03976 0
M  V30 8554 N 797.796 -5.62441 -4.20243 0
M  V30 8555 H 802.636 -2.91095 -0.637788 0
M  V30 8556 H 800.173 -1.43939 -0.303322 0
M  V30 8557 H 802.131 -2.77628 -3.11413 0
M  V30 8558 H 800.761 -1.69577 -2.7467 0
M  V30 8559 H 799.813 -3.59417 -1.24594 0
M  V30 8560 H 801.125 -4.63644 -1.83945 0
M  V30 8561 H 800.279 -4.39469 -4.18273 0
M  V30 8562 H 799.018 -3.25634 -3.63062 0
M  V30 8563 H 798.023 -5.04738 -2.17991 0
M  V30 8564 H 799.248 -6.20441 -2.76098 0
M  V30 8565 H 797.194 -4.77885 -4.49402 0
M  V30 8566 H 797.111 -6.43046 -3.97528 0
M  V30 8567 H 798.379 -5.93327 -5.05553 0
M  V30 8568 N 802.608 0.318715 -1.54344 0
M  V30 8569 C 803.838 1.07394 -1.76494 0
M  V30 8570 C 804.246 1.82031 -0.515881 0
M  V30 8571 O 803.589 1.7609 0.52325 0
M  V30 8572 C 803.651 2.11401 -2.90775 0
M  V30 8573 C 803.315 1.56118 -4.29507 0
M  V30 8574 C 804.312 1.00043 -5.10184 0
M  V30 8575 C 801.997 1.60215 -4.76063 0
M  V30 8576 C 803.991 0.487993 -6.35529 0
M  V30 8577 C 801.678 1.08584 -6.01376 0
M  V30 8578 C 802.676 0.529714 -6.80943 0
M  V30 8579 O 802.364 0.0211823 -8.03897 0
M  V30 8580 H 802.096 0.325061 -0.592715 0
M  V30 8581 H 804.65 0.36901 -2.02058 0
M  V30 8582 H 802.88 2.85524 -2.60793 0
M  V30 8583 H 804.569 2.72683 -3.00664 0
M  V30 8584 H 805.335 0.961811 -4.75367 0
M  V30 8585 H 801.214 2.02441 -4.14172 0
M  V30 8586 H 804.758 0.0532608 -6.9758 0
M  V30 8587 H 800.655 1.12155 -6.35682 0
M  V30 8588 H 801.423 0.136151 -8.18387 0
M  V30 8589 N 804.086 1.46499 0.581025 0
M  V30 8590 C 805.497 1.4604 1.16315 0
M  V30 8591 C 805.848 0.202154 1.95156 0
M  V30 8592 O 804.973 -0.694638 2.04948 0
M  V30 8593 C 805.568 2.64593 2.11604 0
M  V30 8594 C 804.127 2.6717 2.65136 0
M  V30 8595 C 803.274 2.38753 1.4104 0
M  V30 8596 H 806.225 1.54354 0.368871 0
M  V30 8597 H 806.246 2.40207 2.95095 0
M  V30 8598 H 805.758 3.56154 1.54194 0
M  V30 8599 H 803.859 1.79685 3.26411 0
M  V30 8600 H 803.972 3.67182 3.07757 0
M  V30 8601 H 802.336 1.88845 1.70908 0
M  V30 8602 H 803.119 3.32493 0.854588 0
M  V30 8603 N 805.565 -0.825799 1.34232 0
M  V30 8604 C 806.475 -1.9684 1.27638 0
M  V30 8605 C 807.491 -1.73018 0.184569 0
M  V30 8606 O 808.667 -1.97172 0.410525 0
M  V30 8607 C 805.732 -3.31084 1.02879 0
M  V30 8608 C 804.793 -3.67933 2.21188 0
M  V30 8609 C 804.026 -4.95772 1.976 0
M  V30 8610 O 804.249 -5.62721 0.93281 0
M  V30 8611 O 803.183 -5.30431 2.84477 0
M  V30 8612 H 807.009 -2.05346 2.23756 0
M  V30 8613 H 804.594 -0.960772 1.1441 0
M  V30 8614 H 806.476 -4.11492 0.908406 0
M  V30 8615 H 805.151 -3.23552 0.0979821 0
M  V30 8616 H 804.058 -2.87981 2.38784 0
M  V30 8617 H 805.391 -3.80147 3.12648 0
M  V30 8618 N 807.043 -1.17915 -1.04565 0
M  V30 8619 C 807.99 -0.901605 -2.12461 0
M  V30 8620 C 808.96 0.157011 -1.65356 0
M  V30 8621 O 810.145 0.0184494 -1.90791 0
M  V30 8622 C 807.285 -0.42796 -3.42436 0
M  V30 8623 C 806.398 -1.55142 -4.03181 0
M  V30 8624 C 805.533 -1.03101 -5.21098 0
M  V30 8625 C 804.572 -2.1295 -5.73863 0
M  V30 8626 N 803.709 -1.62339 -6.83074 0
M  V30 8627 H 808.549 -1.82551 -2.3554 0
M  V30 8628 H 806.086 -0.910389 -1.15544 0
M  V30 8629 H 808.044 -0.134859 -4.16982 0
M  V30 8630 H 806.674 0.458977 -3.1952 0
M  V30 8631 H 805.726 -1.96011 -3.26012 0
M  V30 8632 H 807.038 -2.37968 -4.38375 0
M  V30 8633 H 806.192 -0.692132 -6.02739 0
M  V30 8634 H 804.931 -0.17227 -4.87396 0
M  V30 8635 H 803.936 -2.47687 -4.90847 0
M  V30 8636 H 805.161 -2.9925 -6.09611 0
M  V30 8637 H 803.107 -0.787464 -6.51256 0
M  V30 8638 H 803.024 -2.38767 -7.17305 0
M  V30 8639 H 804.292 -1.31363 -7.68351 0
M  V30 8640 N 808.521 1.23394 -0.980386 0
M  V30 8641 C 809.768 1.91809 -0.649261 0
M  V30 8642 C 810.096 1.765 0.817197 0
M  V30 8643 O 809.351 1.11979 1.60497 0
M  V30 8644 C 809.65 3.43542 -0.985588 0
M  V30 8645 C 809.316 3.79031 -2.44225 0
M  V30 8646 C 807.978 3.88429 -2.84035 0
M  V30 8647 C 810.33 3.96145 -3.38702 0
M  V30 8648 C 807.658 4.12368 -4.17336 0
M  V30 8649 C 810.01 4.21583 -4.71646 0
M  V30 8650 C 808.674 4.29203 -5.11215 0
M  V30 8651 H 807.944 0.70188 -0.237581 0
M  V30 8652 H 810.591 1.4642 -1.23424 0
M  V30 8653 H 808.896 3.90503 -0.318521 0
M  V30 8654 H 810.593 3.94708 -0.707596 0
M  V30 8655 H 807.183 3.7229 -2.12362 0
M  V30 8656 H 811.367 3.88274 -3.09123 0
M  V30 8657 H 806.623 4.1649 -4.47601 0
M  V30 8658 H 810.797 4.33769 -5.4481 0
M  V30 8659 H 808.424 4.47505 -6.14527 0
M  V30 8660 N 809.999 0.752036 1.385 0
M  V30 8661 C 810.947 0.112634 2.32327 0
M  V30 8662 C 811.941 -0.707037 1.53939 0
M  V30 8663 O 813.147 -0.606309 1.69481 0
M  V30 8664 H 809.522 0.0176275 0.751793 0
M  V30 8665 H 811.493 0.920074 2.83861 0
M  V30 8666 C 810.242 -0.767458 3.39124 0
M  V30 8667 H 809.565 -0.146122 3.99533 0
M  V30 8668 H 811.005 -1.18216 4.07187 0
M  V30 8669 C 809.464 -1.90938 2.77568 0
M  V30 8670 O 809.994 -3.00342 2.66754 0
M  V30 8671 N 808.2 -1.70396 2.35401 0
M  V30 8672 H 807.747 -0.81413 2.44397 0
M  V30 8673 H 807.705 -2.46972 1.94557 0
M  V30 8674 N 811.477 -1.49425 0.500989 0
M  V30 8675 C 812.702 -2.07356 -0.0425154 0
M  V30 8676 C 813.127 -1.35887 -1.30063 0
M  V30 8677 O 812.485 -0.41561 -1.76472 0
M  V30 8678 C 812.533 -3.59518 -0.279188 0
M  V30 8679 O 811.637 -3.89542 -1.3539 0
M  V30 8680 H 810.978 -0.663482 0.0262207 0
M  V30 8681 H 813.508 -1.92231 0.700607 0
M  V30 8682 H 813.518 -4.04791 -0.5107 0
M  V30 8683 H 812.193 -4.10946 0.640009 0
M  V30 8684 H 810.77 -3.56079 -1.10734 0
M  V30 8685 N 812.955 -0.234822 -1.55841 0
M  V30 8686 C 814.371 0.120295 -1.59146 0
M  V30 8687 C 814.571 1.57896 -1.25184 0
M  V30 8688 O 813.627 2.32138 -0.993393 0
M  V30 8689 C 814.94 -0.217984 -2.99909 0
M  V30 8690 C 816.488 -0.161298 -3.12584 0
M  V30 8691 C 816.963 -0.473438 -4.55546 0
M  V30 8692 N 818.454 -0.423494 -4.6126 0
M  V30 8693 C 819.189 -0.638334 -5.69836 0
M  V30 8694 N 818.685 -0.915659 -6.86722 0
M  V30 8695 N 820.478 -0.569864 -5.59204 0
M  V30 8696 H 812.629 -1.18622 -1.76189 0
M  V30 8697 H 814.892 -0.476426 -0.819587 0
M  V30 8698 H 814.598 -1.2309 -3.29457 0
M  V30 8699 H 814.472 0.460707 -3.74376 0
M  V30 8700 H 816.859 0.842274 -2.82825 0
M  V30 8701 H 816.94 -0.873661 -2.40418 0
M  V30 8702 H 816.584 -1.47451 -4.86025 0
M  V30 8703 H 816.514 0.260268 -5.25956 0
M  V30 8704 H 819.005 -0.217383 -3.77274 0
M  V30 8705 H 819.318 -1.06734 -7.65394 0
M  V30 8706 H 817.663 -0.953 -6.88435 0
M  V30 8707 H 820.854 -0.35334 -4.66765 0
M  V30 8708 H 821.027 -0.740698 -6.43753 0
M  V30 8709 N 814.433 1.57553 0.0384317 0
M  V30 8710 C 815.366 2.01307 1.07475 0
M  V30 8711 C 816.344 0.895717 1.35704 0
M  V30 8712 O 817.528 1.16079 1.48519 0
M  V30 8713 C 814.655 2.37817 2.41165 0
M  V30 8714 C 813.701 3.599 2.28855 0
M  V30 8715 S 814.534 5.09418 1.65086 0
M  V30 8716 C 815.69 5.49162 3.00286 0
M  V30 8717 H 815.923 2.88892 0.702034 0
M  V30 8718 H 813.456 1.52394 0.248103 0
M  V30 8719 H 815.414 2.59524 3.18053 0
M  V30 8720 H 814.075 1.507 2.75587 0
M  V30 8721 H 813.268 3.83071 3.27525 0
M  V30 8722 H 812.87 3.37996 1.60109 0
M  V30 8723 H 815.162 5.49274 3.96617 0
M  V30 8724 H 816.105 6.49586 2.81858 0
M  V30 8725 H 816.513 4.76653 3.02427 0
M  V30 8726 N 815.911 -0.310526 1.54511 0
M  V30 8727 C 816.858 -1.38264 1.84802 0
M  V30 8728 C 817.828 -1.50808 0.696141 0
M  V30 8729 O 819.013 -1.6582 0.943846 0
M  V30 8730 C 816.153 -2.74422 2.09252 0
M  V30 8731 C 815.266 -2.70405 3.36906 0
M  V30 8732 C 814.401 -3.98495 3.51248 0
M  V30 8733 C 813.44 -3.88836 4.72729 0
M  V30 8734 N 812.577 -5.08683 4.83928 0
M  V30 8735 H 817.417 -1.11732 2.76261 0
M  V30 8736 H 814.954 -0.540609 1.36806 0
M  V30 8737 H 816.912 -3.53593 2.21422 0
M  V30 8738 H 815.542 -2.99235 1.2107 0
M  V30 8739 H 814.594 -1.83151 3.33406 0
M  V30 8740 H 815.906 -2.59155 4.26193 0
M  V30 8741 H 815.06 -4.861 3.63031 0
M  V30 8742 H 813.799 -4.12567 2.60077 0
M  V30 8743 H 812.804 -2.99615 4.60989 0
M  V30 8744 H 814.029 -3.76318 5.65298 0
M  V30 8745 H 811.975 -5.23236 3.95677 0
M  V30 8746 H 811.892 -4.99819 5.67201 0
M  V30 8747 H 813.16 -5.97966 5.00057 0
M  V30 8748 N 817.389 -1.46805 -0.573248 0
M  V30 8749 C 818.337 -1.58468 -1.70267 0
M  V30 8750 C 819.331 -0.452694 -1.63239 0
M  V30 8751 O 820.537 -0.629915 -1.68618 0
M  V30 8752 H 816.912 -0.498408 -0.56311 0
M  V30 8753 H 818.883 -2.5341 -1.57563 0
M  V30 8754 C 817.632 -1.60104 -3.08645 0
M  V30 8755 H 816.955 -2.4655 -3.14727 0
M  V30 8756 H 818.395 -1.72318 -3.87405 0
M  V30 8757 C 816.854 -0.33138 -3.35266 0
M  V30 8758 O 817.384 0.57438 -3.97572 0
M  V30 8759 N 815.59 -0.216358 -2.89793 0
M  V30 8760 H 815.137 -0.954345 -2.3927 0
M  V30 8761 H 815.095 0.632253 -3.07977 0
M  V30 8762 N 818.867 0.818669 -1.34668 0
M  V30 8763 C 819.814 1.92983 -1.26595 0
M  V30 8764 C 820.784 1.65506 -0.140315 0
M  V30 8765 O 821.969 1.88063 -0.322005 0
M  V30 8766 C 819.109 3.2932 -1.03163 0
M  V30 8767 C 818.222 3.69061 -2.24539 0
M  V30 8768 C 817.357 4.94368 -1.94355 0
M  V30 8769 C 816.396 5.26702 -3.11851 0
M  V30 8770 N 815.533 6.43187 -2.81522 0
M  V30 8771 H 820.373 1.99219 -2.2162 0
M  V30 8772 H 817.91 0.974612 -1.1018 0
M  V30 8773 H 819.868 4.07897 -0.87613 0
M  V30 8774 H 818.498 3.22584 -0.118045 0
M  V30 8775 H 817.55 2.85842 -2.50995 0
M  V30 8776 H 818.862 3.88924 -3.12313 0
M  V30 8777 H 818.016 5.80742 -1.75566 0
M  V30 8778 H 816.755 4.76515 -1.03848 0
M  V30 8779 H 815.76 4.38823 -3.31231 0
M  V30 8780 H 816.985 5.46492 -4.03142 0
M  V30 8781 H 814.931 6.26783 -1.93596 0
M  V30 8782 H 814.848 6.63243 -3.62829 0
M  V30 8783 H 816.116 7.32621 -2.66247 0
M  V30 8784 N 820.346 1.18468 1.03938 0
M  V30 8785 C 821.276 0.936389 2.13902 0
M  V30 8786 C 822.257 -0.126381 1.6963 0
M  V30 8787 O 823.442 0.0264757 1.94182 0
M  V30 8788 C 820.572 0.462729 3.44204 0
M  V30 8789 C 819.526 1.46613 4.02105 0
M  V30 8790 C 818.852 0.84994 5.27902 0
M  V30 8791 C 820.152 2.84323 4.3813 0
M  V30 8792 H 821.846 1.85602 2.3493 0
M  V30 8793 H 819.392 0.893806 1.12903 0
M  V30 8794 H 821.345 0.276382 4.20493 0
M  V30 8795 H 820.069 -0.492477 3.22866 0
M  V30 8796 H 818.728 1.63944 3.27899 0
M  V30 8797 H 818.376 -0.112493 5.02874 0
M  V30 8798 H 818.076 1.51988 5.67603 0
M  V30 8799 H 819.6 0.674152 6.06867 0
M  V30 8800 H 821.014 2.70636 5.054 0
M  V30 8801 H 819.411 3.48012 4.88884 0
M  V30 8802 H 820.481 3.37776 3.47901 0
M  V30 8803 N 821.824 -1.22873 0.986916 0
M  V30 8804 C 823.07 -1.92047 0.670042 0
M  V30 8805 C 823.425 -1.75497 -0.788587 0
M  V30 8806 O 822.718 -1.10934 -1.56218 0
M  V30 8807 C 822.912 -3.43014 1.00379 0
M  V30 8808 C 822.741 -3.74251 2.49332 0
M  V30 8809 C 821.511 -3.94589 3.15638 0
M  V30 8810 C 823.709 -3.79208 3.47428 0
M  V30 8811 N 821.691 -4.13086 4.54129 0
M  V30 8812 C 823.062 -4.02775 4.71352 0
M  V30 8813 C 825.117 -3.62029 3.41818 0
M  V30 8814 C 823.82 -4.10946 5.90352 0
M  V30 8815 C 825.846 -3.71457 4.60189 0
M  V30 8816 C 825.208 -3.95468 5.82911 0
M  V30 8817 H 821.307 -0.723668 0.29636 0
M  V30 8818 H 823.891 -1.47946 1.26571 0
M  V30 8819 H 822.062 -3.85936 0.436762 0
M  V30 8820 H 823.794 -3.99551 0.643522 0
M  V30 8821 H 820.549 -3.91762 2.66119 0
M  V30 8822 H 820.973 -4.26275 5.25945 0
M  V30 8823 H 825.615 -3.42457 2.47958 0
M  V30 8824 H 823.333 -4.29324 6.84621 0
M  V30 8825 H 826.919 -3.59511 4.57431 0
M  V30 8826 H 825.799 -4.02584 6.72975 0
M  V30 8827 N 823.302 -0.75937 -1.38099 0
M  V30 8828 C 824.532 -0.328634 -2.0397 0
M  V30 8829 C 824.94 1.04989 -1.57398 0
M  V30 8830 O 824.283 1.67918 -0.744932 0
M  V30 8831 C 824.345 -0.279216 -3.58414 0
M  V30 8832 C 824.009 -1.60025 -4.28067 0
M  V30 8833 C 825.006 -2.55048 -4.53041 0
M  V30 8834 C 822.691 -1.87128 -4.66142 0
M  V30 8835 C 824.685 -3.7539 -5.15132 0
M  V30 8836 C 822.372 -3.07742 -5.27956 0
M  V30 8837 C 823.37 -4.01694 -5.52387 0
M  V30 8838 O 823.058 -5.20186 -6.12912 0
M  V30 8839 H 822.79 -0.137443 -0.66188 0
M  V30 8840 H 825.344 -1.03082 -1.77661 0
M  V30 8841 H 823.574 0.479254 -3.83719 0
M  V30 8842 H 825.263 0.122781 -4.05714 0
M  V30 8843 H 826.029 -2.35387 -4.24049 0
M  V30 8844 H 821.908 -1.14833 -4.46469 0
M  V30 8845 H 825.452 -4.48737 -5.34117 0
M  V30 8846 H 821.349 -3.27294 -5.56371 0
M  V30 8847 H 822.117 -5.20846 -6.31397 0
M  V30 8848 N 824.78 1.49157 -0.508906 0
M  V30 8849 C 826.027 2.02473 0.0327983 0
M  V30 8850 C 826.355 1.38792 1.36261 0
M  V30 8851 O 825.61 0.515576 1.88786 0
M  V30 8852 C 825.909 3.56687 0.225717 0
M  V30 8853 C 825.575 4.39046 -1.02708 0
M  V30 8854 C 824.237 4.61271 -1.37048 0
M  V30 8855 C 826.589 4.86902 -1.85946 0
M  V30 8856 C 823.917 5.28598 -2.54562 0
M  V30 8857 C 826.269 5.55521 -3.0262 0
M  V30 8858 C 824.933 5.7599 -3.3733 0
M  V30 8859 H 824.203 0.740903 0.0120017 0
M  V30 8860 H 826.85 1.79372 -0.670665 0
M  V30 8861 H 825.155 3.78511 1.01177 0
M  V30 8862 H 826.852 3.95541 0.659433 0
M  V30 8863 H 823.442 4.21994 -0.749615 0
M  V30 8864 H 827.626 4.69553 -1.6073 0
M  V30 8865 H 822.882 5.42646 -2.81682 0
M  V30 8866 H 827.056 5.91576 -3.67438 0
M  V30 8867 H 824.683 6.27934 -4.2849 0
M  V30 8868 N 826.258 0.243083 1.55714 0
M  V30 8869 C 827.168 -0.668913 2.24862 0
M  V30 8870 C 828.184 -1.19638 1.26344 0
M  V30 8871 O 829.36 -1.23345 1.5921 0
M  V30 8872 C 826.425 -1.85084 2.93163 0
M  V30 8873 C 825.486 -1.36323 4.07081 0
M  V30 8874 C 824.719 -2.48882 4.72116 0
M  V30 8875 O 824.942 -3.67523 4.36214 0
M  V30 8876 O 823.876 -2.18857 5.60701 0
M  V30 8877 H 827.702 -0.109737 3.03502 0
M  V30 8878 H 825.287 0.0117411 1.49395 0
M  V30 8879 H 827.169 -2.54065 3.36197 0
M  V30 8880 H 825.844 -2.39771 2.17466 0
M  V30 8881 H 824.751 -0.640804 3.68571 0
M  V30 8882 H 826.084 -0.86249 4.84584 0
M  V30 8883 N 827.736 -1.57571 -0.0300757 0
M  V30 8884 C 828.983 -1.89226 -0.721091 0
M  V30 8885 C 829.311 -0.840244 -1.75414 0
M  V30 8886 O 828.566 0.158906 -1.95054 0
M  V30 8887 C 828.865 -3.27624 -1.42818 0
M  V30 8888 C 828.531 -4.4776 -0.531208 0
M  V30 8889 C 827.193 -4.8036 -0.28415 0
M  V30 8890 C 829.545 -5.21125 0.0881582 0
M  V30 8891 C 826.873 -5.83715 0.591065 0
M  V30 8892 C 829.225 -6.2541 0.95107 0
M  V30 8893 C 827.889 -6.56486 1.2076 0
M  V30 8894 H 827.159 -0.692428 -0.263866 0
M  V30 8895 H 829.806 -1.91491 0.0189874 0
M  V30 8896 H 828.111 -3.21343 -2.24155 0
M  V30 8897 H 829.808 -3.49365 -1.96838 0
M  V30 8898 H 826.398 -4.2227 -0.73392 0
M  V30 8899 H 830.582 -4.96219 -0.0897496 0
M  V30 8900 H 825.838 -6.06168 0.798132 0
M  V30 8901 H 830.012 -6.81402 1.43751 0
M  V30 8902 H 827.639 -7.36395 1.88751 0
M  V30 8903 N 829.214 0.302327 -1.54673 0
M  V30 8904 C 830.177 1.35592 -1.8479 0
M  V30 8905 C 831.177 1.43743 -0.72073 0
M  V30 8906 O 832.367 1.43402 -0.989017 0
M  V30 8907 C 829.499 2.74091 -2.02699 0
M  V30 8908 H 830.692 1.10132 -2.78946 0
M  V30 8909 H 828.245 0.538926 -1.46715 0
M  V30 8910 H 828.98 3.04775 -1.10826 0
M  V30 8911 H 828.765 2.69565 -2.8474 0
M  V30 8912 H 830.255 3.50272 -2.27374 0
M  V30 8913 N 830.692 1.47107 0.565454 0
M  V30 8914 C 831.92 1.56909 1.3486 0
M  V30 8915 C 832.335 0.216312 1.87557 0
M  V30 8916 O 831.692 -0.789168 1.64555 0
M  V30 8917 C 831.743 2.58776 2.52423 0
M  V30 8918 O 831.464 3.888 2.01906 0
M  V30 8919 C 832.965 2.78683 3.44747 0
M  V30 8920 H 830.185 0.530096 0.411387 0
M  V30 8921 H 832.729 1.92658 0.685782 0
M  V30 8922 H 830.884 2.25983 3.1466 0
M  V30 8923 H 831.298 4.44393 2.78595 0
M  V30 8924 H 832.772 3.53842 4.23674 0
M  V30 8925 H 833.249 1.86208 3.97773 0
M  V30 8926 H 833.855 3.12641 2.88333 0
M  V30 8927 N 832.17 -0.811516 1.35101 0
M  V30 8928 C 833.395 -1.60499 1.31358 0
M  V30 8929 C 833.82 -1.87793 -0.107383 0
M  V30 8930 O 833.178 -1.46161 -1.07268 0
M  V30 8931 C 833.226 -2.91612 2.12119 0
M  V30 8932 O 832.33 -3.84211 1.49853 0
M  V30 8933 H 831.671 -0.487702 0.450603 0
M  V30 8934 H 834.201 -1.00758 1.7807 0
M  V30 8935 H 834.211 -3.4108 2.23894 0
M  V30 8936 H 832.886 -2.71071 3.15426 0
M  V30 8937 H 831.463 -3.42751 1.46889 0
M  V30 8938 N 833.648 -1.19017 -1.03309 0
M  V30 8939 C 834.558 -0.939303 -2.14975 0
M  V30 8940 C 835.574 0.0992359 -1.73717 0
M  V30 8941 O 836.75 -0.0844362 -2.01223 0
M  V30 8942 C 833.815 -0.476712 -3.43407 0
M  V30 8943 C 832.876 -1.58413 -3.99003 0
M  V30 8944 C 832.109 -1.14352 -5.21305 0
M  V30 8945 O 832.332 -0.00534408 -5.704 0
M  V30 8946 O 831.266 -1.94436 -5.6963 0
M  V30 8947 H 835.092 -1.87386 -2.38998 0
M  V30 8948 H 832.677 -0.972635 -1.13403 0
M  V30 8949 H 834.559 -0.22718 -4.20787 0
M  V30 8950 H 833.234 0.429455 -3.20839 0
M  V30 8951 H 832.141 -1.88777 -3.22977 0
M  V30 8952 H 833.474 -2.4667 -4.25928 0
M  V30 8953 N 835.127 1.22348 -0.993418 0
M  V30 8954 C 836.352 1.95666 -0.687727 0
M  V30 8955 C 836.777 1.72883 0.741161 0
M  V30 8956 O 836.135 1.00837 1.50671 0
M  V30 8957 C 836.183 3.46457 -0.99998 0
M  V30 8958 O 835.287 4.12281 -0.0989386 0
M  V30 8959 H 834.628 0.612102 -0.257346 0
M  V30 8960 H 837.158 1.55428 -1.33054 0
M  V30 8961 H 837.168 3.96976 -0.942035 0
M  V30 8962 H 835.843 3.62365 -2.04118 0
M  V30 8963 H 834.42 3.72295 -0.212413 0
M  V30 8964 N 836.605 0.766683 1.37694 0
M  V30 8965 C 837.854 0.325425 1.99057 0
M  V30 8966 C 838.167 -1.10275 1.61551 0
M  V30 8967 O 839.373 -1.64513 2.1598 0
M  V30 8968 C 837.829 0.530886 3.55963 0
M  V30 8969 C 837.437 1.96899 4.02411 0
M  V30 8970 C 839.181 0.152997 4.24224 0
M  V30 8971 C 837.088 2.12232 5.52007 0
M  V30 8972 H 836.018 0.117929 0.744721 0
M  V30 8973 H 838.669 0.945091 1.5729 0
M  V30 8974 H 837.051 -0.158162 3.95684 0
M  V30 8975 H 838.225 2.69258 3.73948 0
M  V30 8976 H 836.54 2.303 3.46916 0
M  V30 8977 H 839.137 0.24614 5.34133 0
M  V30 8978 H 839.48 -0.896096 4.06541 0
M  V30 8979 H 840.013 0.794398 3.89787 0
M  V30 8980 H 836.752 3.15442 5.7461 0
M  V30 8981 H 836.272 1.4435 5.82171 0
M  V30 8982 H 837.951 1.9185 6.17902 0
M  V30 8983 N 838.083 -1.48885 0.516809 0
M  V30 8984 C 839.33 -2.02488 -0.0220602 0
M  V30 8985 C 839.658 -1.39513 -1.35523 0
M  V30 8986 O 838.913 -0.52558 -1.8851 0
M  V30 8987 C 839.212 -3.56801 -0.206798 0
M  V30 8988 C 838.878 -4.38496 1.05035 0
M  V30 8989 C 837.54 -4.60538 1.39492 0
M  V30 8990 C 839.892 -4.85909 1.88525 0
M  V30 8991 C 837.22 -5.2724 2.57361 0
M  V30 8992 C 839.572 -5.53909 3.05561 0
M  V30 8993 C 838.236 -5.74193 3.4038 0
M  V30 8994 H 837.506 -0.740956 -0.00807238 0
M  V30 8995 H 840.153 -1.79014 0.680168 0
M  V30 8996 H 838.458 -3.79042 -0.991687 0
M  V30 8997 H 840.155 -3.95885 -0.638447 0
M  V30 8998 H 836.745 -4.2159 0.771984 0
M  V30 8999 H 840.929 -4.68694 1.63218 0
M  V30 9000 H 836.185 -5.41145 2.84556 0
M  V30 9001 H 840.359 -5.89619 3.7057 0
M  V30 9002 H 837.986 -6.25652 4.31814 0
M  V30 9003 N 839.561 -0.251338 -1.55583 0
M  V30 9004 C 840.786 0.379136 -2.03905 0
M  V30 9005 C 841.211 1.50428 -1.12929 0
M  V30 9006 O 840.569 1.80882 -0.123114 0
M  V30 9007 C 840.617 0.86009 -3.50193 0
M  V30 9008 O 839.721 1.96932 -3.62342 0
M  V30 9009 H 839.062 0.0820183 -0.658915 0
M  V30 9010 H 841.592 -0.378692 -2.01065 0
M  V30 9011 H 841.602 1.16214 -3.91099 0
M  V30 9012 H 840.277 0.0367559 -4.15884 0
M  V30 9013 H 838.854 1.67163 -3.33333 0
M  V30 9014 N 841.039 1.57585 0.0217189 0
M  V30 9015 C 842.267 1.93871 0.722619 0
M  V30 9016 C 842.682 0.851706 1.68498 0
M  V30 9017 O 842.039 -0.17127 1.81695 0
M  V30 9018 C 842.09 3.30114 1.47333 0
M  V30 9019 O 841.811 4.34639 0.549597 0
M  V30 9020 C 843.312 3.80727 2.27072 0
M  V30 9021 H 840.532 0.639671 0.202637 0
M  V30 9022 H 843.076 2.04487 -0.0229414 0
M  V30 9023 H 841.231 3.20872 2.17071 0
M  V30 9024 H 841.645 5.13326 1.07686 0
M  V30 9025 H 843.119 4.78547 2.75131 0
M  V30 9026 H 843.596 3.12301 3.08812 0
M  V30 9027 H 844.202 3.93075 1.62395 0
M  V30 9028 N 842.517 -0.29412 1.54831 0
M  V30 9029 C 843.757 -1.03635 1.76179 0
M  V30 9030 C 844.121 -1.84251 0.539953 0
M  V30 9031 O 845.322 -2.61282 0.631295 0
M  V30 9032 C 843.593 -1.91275 3.01909 0
M  V30 9033 S 845.152 -2.7205 3.44288 0
M  V30 9034 H 841.97 -0.349403 0.619224 0
M  V30 9035 H 844.572 -0.309006 1.93042 0
M  V30 9036 H 843.276 -1.30937 3.88952 0
M  V30 9037 H 842.807 -2.68365 2.87652 0
M  V30 9038 H 844.822 -3.93791 3.01899 0
M  V30 9039 N 843.995 -1.47404 -0.557645 0
M  V30 9040 C 844.942 -1.59859 -1.66475 0
M  V30 9041 C 845.912 -0.441644 -1.60121 0
M  V30 9042 O 847.097 -0.661641 -1.78961 0
M  V30 9043 C 844.237 -1.61843 -3.04797 0
M  V30 9044 C 843.35 -2.8845 -3.2159 0
M  V30 9045 C 842.485 -2.81773 -4.50308 0
M  V30 9046 C 841.524 -4.03208 -4.60532 0
M  V30 9047 N 840.661 -3.94769 -5.80604 0
M  V30 9048 H 845.501 -2.54415 -1.55168 0
M  V30 9049 H 843.038 -1.26194 -0.755876 0
M  V30 9050 H 844.996 -1.60976 -3.84893 0
M  V30 9051 H 843.626 -0.707997 -3.1494 0
M  V30 9052 H 842.678 -2.99186 -2.34929 0
M  V30 9053 H 843.99 -3.78379 -3.25009 0
M  V30 9054 H 843.144 -2.79153 -5.38663 0
M  V30 9055 H 841.883 -1.89527 -4.49367 0
M  V30 9056 H 840.888 -4.06133 -3.70589 0
M  V30 9057 H 842.113 -4.9658 -4.63233 0
M  V30 9058 H 840.059 -3.05326 -5.80613 0
M  V30 9059 H 839.976 -4.78375 -5.854 0
M  V30 9060 H 841.244 -3.96165 -6.71322 0
M  V30 9061 N 845.473 0.80434 -1.35529 0
M  V30 9062 C 846.42 1.91629 -1.28635 0
M  V30 9063 C 847.39 1.65348 -0.157862 0
M  V30 9064 O 848.575 1.87711 -0.341934 0
M  V30 9065 C 845.715 3.28207 -1.0665 0
M  V30 9066 C 844.828 3.66659 -2.28441 0
M  V30 9067 C 843.963 4.92279 -1.99588 0
M  V30 9068 C 843.002 5.23365 -3.1742 0
M  V30 9069 N 842.139 6.40165 -2.88328 0
M  V30 9070 H 846.979 1.96858 -2.23721 0
M  V30 9071 H 844.516 0.962871 -1.11208 0
M  V30 9072 H 846.474 4.06945 -0.919343 0
M  V30 9073 H 845.104 3.22441 -0.152253 0
M  V30 9074 H 844.156 2.83164 -2.54013 0
M  V30 9075 H 845.468 3.8559 -3.1642 0
M  V30 9076 H 844.622 5.78847 -1.81715 0
M  V30 9077 H 843.361 4.75387 -1.08896 0
M  V30 9078 H 842.366 4.35285 -3.35867 0
M  V30 9079 H 843.591 5.42185 -4.08916 0
M  V30 9080 H 841.537 6.24694 -2.00233 0
M  V30 9081 H 841.454 6.59357 -3.69843 0
M  V30 9082 H 842.722 7.29755 -2.74002 0
M  V30 9083 N 846.951 1.19563 1.02676 0
M  V30 9084 C 847.881 0.959024 2.12897 0
M  V30 9085 C 848.862 -0.108382 1.69754 0
M  V30 9086 O 850.047 0.0470698 1.94143 0
M  V30 9087 C 847.177 0.499211 3.43693 0
M  V30 9088 C 846.131 1.5087 4.00528 0
M  V30 9089 C 845.457 0.905884 5.2697 0
M  V30 9090 C 846.757 2.88954 4.3509 0
M  V30 9091 H 848.451 1.88084 2.32948 0
M  V30 9092 H 845.997 0.905731 1.11949 0
M  V30 9093 H 847.95 0.320965 4.20176 0
M  V30 9094 H 846.674 -0.458205 3.2337 0
M  V30 9095 H 845.333 1.67413 3.26142 0
M  V30 9096 H 844.981 -0.0591506 5.02965 0
M  V30 9097 H 844.681 1.58 5.65959 0
M  V30 9098 H 846.205 0.73848 6.06118 0
M  V30 9099 H 847.619 2.75981 5.02501 0
M  V30 9100 H 846.016 3.53177 4.85166 0
M  V30 9101 H 847.086 3.41447 3.44299 0
M  V30 9102 N 848.429 -1.21819 0.999893 0
M  V30 9103 C 849.339 -2.27691 0.565159 0
M  V30 9104 C 850.355 -1.69587 -0.389398 0
M  V30 9105 O 851.531 -1.99786 -0.254499 0
M  V30 9106 C 848.596 -3.46537 -0.106432 0
M  V30 9107 C 847.657 -4.19932 0.891964 0
M  V30 9108 C 846.89 -5.33103 0.252327 0
M  V30 9109 O 847.113 -5.62398 -0.952103 0
M  V30 9110 O 846.047 -5.94184 0.960698 0
M  V30 9111 H 849.873 -2.67059 1.44613 0
M  V30 9112 H 847.458 -1.28119 0.768499 0
M  V30 9113 H 849.34 -4.18631 -0.482301 0
M  V30 9114 H 848.015 -3.09079 -0.961865 0
M  V30 9115 H 846.922 -3.5008 1.3189 0
M  V30 9116 H 848.255 -4.61287 1.71682 0
M  V30 9117 N 849.908 -0.773975 -1.37286 0
M  V30 9118 C 850.818 -0.162571 -2.34036 0
M  V30 9119 C 851.834 0.677022 -1.60289 0
M  V30 9120 O 853.01 0.596423 -1.92366 0
M  V30 9121 C 850.075 0.70457 -3.39465 0
M  V30 9122 C 849.136 -0.151738 -4.29032 0
M  V30 9123 C 848.369 0.674111 -5.29426 0
M  V30 9124 O 848.592 1.91107 -5.37433 0
M  V30 9125 O 847.526 0.0821398 -6.01844 0
M  V30 9126 H 851.352 -0.962119 -2.88057 0
M  V30 9127 H 848.937 -0.53517 -1.39486 0
M  V30 9128 H 850.819 1.19954 -4.03967 0
M  V30 9129 H 849.494 1.48227 -2.87768 0
M  V30 9130 H 848.401 -0.693118 -3.67623 0
M  V30 9131 H 849.734 -0.892575 -4.84039 0
M  V30 9132 N 851.386 1.48609 -0.524698 0
M  V30 9133 C 852.611 2.07398 0.00952139 0
M  V30 9134 C 853.036 1.37939 1.27884 0
M  V30 9135 O 852.394 0.443633 1.75788 0
M  V30 9136 C 852.442 3.59916 0.221956 0
M  V30 9137 O 851.546 3.91647 1.29175 0
M  V30 9138 H 850.887 0.662981 -0.0367729 0
M  V30 9139 H 853.417 1.91092 -0.7311 0
M  V30 9140 H 853.427 4.05552 0.446236 0
M  V30 9141 H 852.102 4.09876 -0.705306 0
M  V30 9142 H 850.679 3.57796 1.05055 0
M  V30 9143 N 852.864 0.259585 1.55447 0
M  V30 9144 C 853.794 -0.62852 2.24882 0
M  V30 9145 C 854.775 -1.17128 1.23349 0
M  V30 9146 O 855.96 -1.20829 1.52033 0
M  V30 9147 C 853.09 -1.81983 2.95803 0
M  V30 9148 C 852.044 -1.40929 4.04132 0
M  V30 9149 C 851.37 -2.68246 4.62545 0
M  V30 9150 C 852.67 -0.570956 5.1917 0
M  V30 9151 H 854.364 -0.0495021 2.99359 0
M  V30 9152 H 851.91 -0.0223688 1.43983 0
M  V30 9153 H 853.863 -2.44689 3.43082 0
M  V30 9154 H 852.587 -2.42444 2.18835 0
M  V30 9155 H 851.246 -0.805519 3.57641 0
M  V30 9156 H 850.894 -3.26931 3.82263 0
M  V30 9157 H 850.594 -2.41495 5.35681 0
M  V30 9158 H 852.118 -3.31827 5.12565 0
M  V30 9159 H 853.532 -1.10262 5.62597 0
M  V30 9160 H 851.929 -0.398979 5.98772 0
M  V30 9161 H 852.999 0.413918 4.8313 0
M  V30 9162 N 854.342 -1.57594 -0.0133615 0
M  V30 9163 C 855.57 -1.94251 -0.712328 0
M  V30 9164 C 855.985 -0.86063 -1.68043 0
M  V30 9165 O 855.342 0.161632 -1.81783 0
M  V30 9166 C 855.393 -3.30891 -1.45581 0
M  V30 9167 O 855.114 -4.34924 -0.526539 0
M  V30 9168 C 856.615 -3.81926 -2.2505 0
M  V30 9169 H 853.835 -0.640737 -0.199241 0
M  V30 9170 H 856.379 -2.04472 0.0337855 0
M  V30 9171 H 854.534 -3.22019 -2.15366 0
M  V30 9172 H 854.948 -5.1389 -1.04962 0
M  V30 9173 H 856.422 -4.79999 -2.72589 0
M  V30 9174 H 856.899 -3.13934 -3.07152 0
M  V30 9175 H 857.505 -3.93931 -1.60308 0
M  V30 9176 N 855.82 0.285905 -1.54985 0
M  V30 9177 C 857.066 1.02071 -1.75241 0
M  V30 9178 C 857.399 1.864 -0.544842 0
M  V30 9179 O 856.674 1.89034 0.457844 0
M  V30 9180 C 856.957 1.91409 -3.05016 0
M  V30 9181 C 856.81 1.10158 -4.36102 0
M  V30 9182 C 858.129 2.90335 -3.30747 0
M  V30 9183 H 855.248 0.369663 -0.637588 0
M  V30 9184 H 857.89 0.294114 -1.8771 0
M  V30 9185 H 856.04 2.53362 -2.94517 0
M  V30 9186 H 857.712 0.503756 -4.58541 0
M  V30 9187 H 855.955 0.404675 -4.31908 0
M  V30 9188 H 856.626 1.75956 -5.23205 0
M  V30 9189 H 859.102 2.38514 -3.40955 0
M  V30 9190 H 857.978 3.49997 -4.2284 0
M  V30 9191 H 858.239 3.64787 -2.49765 0
M  V30 9192 N 857.298 1.47698 0.54982 0
M  V30 9193 C 858.208 1.63386 1.68351 0
M  V30 9194 C 859.224 0.516583 1.66155 0
M  V30 9195 O 860.4 0.785088 1.85468 0
M  V30 9196 C 857.465 1.6513 3.04849 0
M  V30 9197 C 856.526 2.88338 3.18056 0
M  V30 9198 C 855.759 2.8999 4.48042 0
M  V30 9199 O 855.982 2.00633 5.3395 0
M  V30 9200 O 854.916 3.81938 4.65196 0
M  V30 9201 H 858.742 2.59329 1.58057 0
M  V30 9202 H 856.327 1.30869 0.72067 0
M  V30 9203 H 858.209 1.68913 3.86065 0
M  V30 9204 H 856.884 0.723555 3.1551 0
M  V30 9205 H 855.791 2.90097 2.36209 0
M  V30 9206 H 857.124 3.80431 3.12302 0
M  V30 9207 N 858.776 -0.797141 1.35954 0
M  V30 9208 C 860.025 -1.54983 1.29086 0
M  V30 9209 C 860.338 -1.95167 -0.130003 0
M  V30 9210 O 861.544 -2.69596 -0.32101 0
M  V30 9211 C 860 -2.79738 2.26439 0
M  V30 9212 C 859.608 -2.46753 3.73921 0
M  V30 9213 C 861.352 -3.57733 2.28533 0
M  V30 9214 C 859.259 -3.67858 4.63071 0
M  V30 9215 H 858.189 -0.581766 0.479651 0
M  V30 9216 H 860.84 -0.87541 1.61273 0
M  V30 9217 H 859.222 -3.48939 1.87236 0
M  V30 9218 H 860.396 -1.85499 4.21814 0
M  V30 9219 H 858.711 -1.81985 3.74527 0
M  V30 9220 H 861.308 -4.47699 2.92351 0
M  V30 9221 H 861.651 -3.95754 1.29169 0
M  V30 9222 H 862.184 -2.95504 2.66313 0
M  V30 9223 H 858.923 -3.34939 5.63468 0
M  V30 9224 H 858.443 -4.28305 4.19898 0
M  V30 9225 H 860.122 -4.34977 4.78961 0
M  V30 9226 N 860.254 -1.20106 -1.0204 0
M  V30 9227 C 861.494 -1.02013 -1.77123 0
M  V30 9228 C 861.858 0.440439 -1.8688 0
M  V30 9229 O 863.059 0.74144 -2.58372 0
M  V30 9230 C 861.33 -1.68058 -3.15423 0
M  V30 9231 S 862.889 -1.65016 -4.0659 0
M  V30 9232 H 859.707 -0.365882 -0.609632 0
M  V30 9233 H 862.309 -1.52597 -1.22206 0
M  V30 9234 H 861.013 -2.73544 -3.05944 0
M  V30 9235 H 860.544 -1.17589 -3.75415 0
M  V30 9236 H 862.559 -0.680341 -4.91514 0
M  V30 9237 N 861.732 1.21287 -1.00634 0
M  V30 9238 C 862.98 1.90013 -0.688438 0
M  V30 9239 C 863.301 1.78573 0.783365 0
M  V30 9240 O 862.571 1.1815 1.56261 0
M  V30 9241 H 861.151 0.703336 -0.251648 0
M  V30 9242 H 863.813 1.47346 -1.27574 0
M  V30 9243 H 862.909 2.96879 -0.962781 0
M  V30 9244 N 863.21 0.781244 1.36873 0
M  V30 9245 C 864.157 0.172146 2.30157 0
M  V30 9246 C 865.127 -0.679328 1.51573 0
M  V30 9247 O 866.312 -0.629713 1.80109 0
M  V30 9248 C 863.452 -0.693534 3.38059 0
M  V30 9249 C 862.565 0.175586 4.31643 0
M  V30 9250 C 861.7 -0.695695 5.26625 0
M  V30 9251 C 860.739 0.17538 6.11849 0
M  V30 9252 N 859.876 -0.654416 6.99043 0
M  V30 9253 H 864.716 0.973133 2.81663 0
M  V30 9254 H 862.253 0.491469 1.38647 0
M  V30 9255 H 864.211 -1.21035 3.99257 0
M  V30 9256 H 862.841 -1.46003 2.87894 0
M  V30 9257 H 861.893 0.810295 3.7167 0
M  V30 9258 H 863.205 0.847107 4.91554 0
M  V30 9259 H 862.359 -1.27863 5.93073 0
M  V30 9260 H 861.098 -1.40087 4.67148 0
M  V30 9261 H 860.103 0.77078 5.4437 0
M  V30 9262 H 861.328 0.87803 6.734 0
M  V30 9263 H 859.274 -1.34403 6.42084 0
M  V30 9264 H 859.191 -0.0403998 7.55989 0
M  V30 9265 H 860.459 -1.22144 7.69871 0
M  V30 9266 N 864.689 -1.48329 0.532571 0
M  V30 9267 C 866.1 -1.86469 0.0927749 0
M  V30 9268 C 866.451 -1.44186 -1.3306 0
M  V30 9269 O 865.576 -0.833741 -1.99694 0
M  V30 9270 C 866.171 -3.38414 0.161588 0
M  V30 9271 C 864.73 -3.75739 -0.223028 0
M  V30 9272 C 863.877 -2.72377 0.520199 0
M  V30 9273 H 866.828 -1.40197 0.743678 0
M  V30 9274 H 866.849 -3.75314 -0.626059 0
M  V30 9275 H 866.361 -3.69159 1.19765 0
M  V30 9276 H 864.462 -3.50608 -1.26113 0
M  V30 9277 H 864.575 -4.78954 0.118385 0
M  V30 9278 H 862.939 -2.54678 -0.0338425 0
M  V30 9279 H 863.722 -3.05965 1.55694 0
M  V30 9280 N 866.167 -0.267825 -1.55308 0
M  V30 9281 C 867.097 0.616585 -2.25212 0
M  V30 9282 C 868.078 1.16472 -1.23969 0
M  V30 9283 O 869.263 1.20021 -1.52672 0
M  V30 9284 C 866.393 1.80412 -2.96764 0
M  V30 9285 C 865.347 1.38784 -4.04874 0
M  V30 9286 C 864.673 2.65789 -4.63961 0
M  V30 9287 C 865.973 0.543415 -5.19465 0
M  V30 9288 H 867.667 0.0336257 -2.99381 0
M  V30 9289 H 865.213 0.0147328 -1.43992 0
M  V30 9290 H 867.166 2.42866 -3.44375 0
M  V30 9291 H 865.89 2.4128 -2.20118 0
M  V30 9292 H 864.549 0.786541 -3.58063 0
M  V30 9293 H 864.197 3.24899 -3.83992 0
M  V30 9294 H 863.897 2.38651 -5.36954 0
M  V30 9295 H 865.421 3.29104 -5.14318 0
M  V30 9296 H 866.835 1.07277 -5.63174 0
M  V30 9297 H 865.232 0.367219 -5.98975 0
M  V30 9298 H 866.302 -0.439534 -4.82904 0
M  V30 9299 N 867.645 1.57599 0.00500368 0
M  V30 9300 C 868.922 1.81561 0.727654 0
M  V30 9301 C 869.302 0.871604 1.92266 0
M  V30 9302 O 868.65 -0.0808232 2.28357 0
M  V30 9303 C 868.86 3.29922 1.13809 0
M  V30 9304 C 870.208 3.95531 1.54403 0
M  V30 9305 O 871.232 3.34215 1.23202 0
M  V30 9306 O 870.091 5.03535 2.12402 0
M  V30 9307 H 867.185 0.747462 0.353878 0
M  V30 9308 H 869.731 1.69688 -0.0200667 0
M  V30 9309 H 868.503 3.90253 0.286078 0
M  V30 9310 H 868.126 3.46775 1.94507 0
M  V30 9311 N 869.123 -0.277682 1.55134 0
M  V30 9312 C 870.053 -1.34742 1.90701 0
M  V30 9313 C 871.034 -1.51757 0.768354 0
M  V30 9314 O 872.219 -1.64879 1.02609 0
M  V30 9315 C 869.349 -2.70775 2.17481 0
M  V30 9316 C 868.303 -2.68497 3.33307 0
M  V30 9317 C 867.629 -4.08037 3.45557 0
M  V30 9318 C 868.929 -2.28178 4.69821 0
M  V30 9319 H 870.623 -1.05224 2.803 0
M  V30 9320 H 868.169 -0.504738 1.34864 0
M  V30 9321 H 870.122 -3.45719 2.40949 0
M  V30 9322 H 868.846 -3.01867 1.24676 0
M  V30 9323 H 867.505 -1.9601 3.09799 0
M  V30 9324 H 867.153 -4.36344 2.50226 0
M  V30 9325 H 866.853 -4.07409 4.23429 0
M  V30 9326 H 868.377 -4.84726 3.71312 0
M  V30 9327 H 869.791 -2.92843 4.92865 0
M  V30 9328 H 868.188 -2.3872 5.50575 0
M  V30 9329 H 869.258 -1.23308 4.6896 0
M  V30 9330 N 870.601 -1.47988 -0.541979 0
M  V30 9331 C 871.826 -1.59286 -1.32826 0
M  V30 9332 C 872.251 -0.24894 -1.86445 0
M  V30 9333 O 871.609 0.777581 -1.63778 0
M  V30 9334 C 871.657 -2.6334 -2.46343 0
M  V30 9335 O 870.761 -2.19667 -3.49028 0
M  V30 9336 H 870.102 -0.534543 -0.393903 0
M  V30 9337 H 872.632 -1.93885 -0.653427 0
M  V30 9338 H 872.642 -2.84238 -2.92699 0
M  V30 9339 H 871.317 -3.60913 -2.06675 0
M  V30 9340 H 869.894 -2.08932 -3.08872 0
M  V30 9341 N 872.079 0.78992 -1.36375 0
M  V30 9342 C 873.027 1.92394 -1.30719 0
M  V30 9343 C 874.021 1.68226 -0.199076 0
M  V30 9344 O 875.227 1.76239 -0.366051 0
M  V30 9345 H 871.602 0.632382 -0.406936 0
M  V30 9346 H 873.573 1.94282 -2.26488 0
M  V30 9347 C 872.322 3.2941 -1.11284 0
M  V30 9348 H 871.645 3.48573 -1.95798 0
M  V30 9349 H 873.085 4.09111 -1.11373 0
M  V30 9350 C 871.544 3.36405 0.182543 0
M  V30 9351 O 872.074 3.84206 1.17255 0
M  V30 9352 N 870.28 2.89712 0.227046 0
M  V30 9353 H 869.827 2.51004 -0.579217 0
M  V30 9354 H 869.785 2.94773 1.09344 0
M  V30 9355 N 873.557 1.20646 1.01402 0
M  V30 9356 C 874.487 0.98155 2.11867 0
M  V30 9357 C 875.468 -0.0903712 1.6986 0
M  V30 9358 O 876.653 0.0676586 1.94082 0
M  V30 9359 C 873.783 0.535636 3.43145 0
M  V30 9360 C 872.737 1.55109 3.98905 0
M  V30 9361 C 872.063 0.961725 5.2598 0
M  V30 9362 C 873.363 2.93552 4.32001 0
M  V30 9363 H 875.057 1.90544 2.3094 0
M  V30 9364 H 872.603 0.917554 1.10982 0
M  V30 9365 H 874.556 0.365512 4.19812 0
M  V30 9366 H 873.28 -0.423882 3.23838 0
M  V30 9367 H 871.939 1.70862 3.24348 0
M  V30 9368 H 871.587 -0.00580108 5.03 0
M  V30 9369 H 871.287 1.63993 5.64252 0
M  V30 9370 H 872.811 0.802726 6.053 0
M  V30 9371 H 874.225 2.81295 4.99546 0
M  V30 9372 H 872.622 3.58303 4.81393 0
M  V30 9373 H 873.692 3.4508 3.40658 0
M  V30 9374 N 875.035 -1.20752 1.01276 0
M  V30 9375 C 876.26 -1.94547 0.718769 0
M  V30 9376 C 876.685 -1.7404 -0.713563 0
M  V30 9377 O 876.043 -1.03221 -1.49047 0
M  V30 9378 C 876.091 -3.44823 1.05497 0
M  V30 9379 O 875.195 -4.12072 0.164516 0
M  V30 9380 H 874.536 -0.607931 0.267051 0
M  V30 9381 H 877.066 -1.53292 1.35509 0
M  V30 9382 H 877.076 -3.95427 1.00507 0
M  V30 9383 H 875.751 -3.59072 2.09858 0
M  V30 9384 H 874.328 -3.71909 0.271615 0
M  V30 9385 N 876.513 -0.788492 -1.36457 0
M  V30 9386 C 877.443 -0.200468 -2.32638 0
M  V30 9387 C 878.424 0.664031 -1.56603 0
M  V30 9388 O 879.609 0.598045 -1.84762 0
M  V30 9389 C 876.739 0.666274 -3.40849 0
M  V30 9390 C 875.693 -0.0982574 -4.27887 0
M  V30 9391 C 875.019 0.889018 -5.27258 0
M  V30 9392 C 876.319 -1.28692 -5.06197 0
M  V30 9393 H 878.013 -1.00399 -2.82065 0
M  V30 9394 H 875.559 -0.484237 -1.35614 0
M  V30 9395 H 877.512 1.08757 -4.07124 0
M  V30 9396 H 876.236 1.50249 -2.89987 0
M  V30 9397 H 874.895 -0.500525 -3.63167 0
M  V30 9398 H 874.543 1.72024 -4.7267 0
M  V30 9399 H 874.243 0.381909 -5.86358 0
M  V30 9400 H 875.767 1.30891 -5.96406 0
M  V30 9401 H 877.181 -0.941429 -5.65517 0
M  V30 9402 H 875.578 -1.72726 -5.74705 0
M  V30 9403 H 876.648 -2.08273 -4.37893 0
M  V30 9404 N 877.991 1.48044 -0.54043 0
M  V30 9405 C 878.901 2.33565 0.220163 0
M  V30 9406 C 879.917 1.47146 0.928659 0
M  V30 9407 O 881.093 1.80107 0.901295 0
M  V30 9408 C 878.158 3.2349 1.2472 0
M  V30 9409 C 877.219 4.25789 0.547938 0
M  V30 9410 C 876.452 5.11417 1.52605 0
M  V30 9411 O 876.675 4.99204 2.75956 0
M  V30 9412 O 875.609 5.92498 1.05972 0
M  V30 9413 H 879.435 2.99868 -0.480898 0
M  V30 9414 H 877.02 1.46332 -0.301226 0
M  V30 9415 H 878.902 3.79084 1.84047 0
M  V30 9416 H 877.577 2.59835 1.93048 0
M  V30 9417 H 876.484 3.74001 -0.0860941 0
M  V30 9418 H 877.817 4.92111 -0.0935896 0
M  V30 9419 N 879.47 0.276058 1.55163 0
M  V30 9420 C 880.718 -0.339782 1.99223 0
M  V30 9421 C 881.039 -1.56307 1.16589 0
M  V30 9422 O 880.309 -1.94225 0.25564 0
M  V30 9423 H 878.889 -0.128534 0.735859 0
M  V30 9424 H 881.551 0.381612 1.91128 0
M  V30 9425 H 880.647 -0.629 3.05696 0
M  V30 9426 N 880.948 -1.576 0.00335426 0
M  V30 9427 C 882.197 -1.89892 -0.680001 0
M  V30 9428 C 882.51 -0.878731 -1.7475 0
M  V30 9429 O 883.716 -1.09199 -2.48572 0
M  V30 9430 C 882.172 -3.37098 -1.26066 0
M  V30 9431 C 881.78 -4.4742 -0.227807 0
M  V30 9432 C 883.524 -3.78495 -1.92202 0
M  V30 9433 C 881.431 -5.85706 -0.81865 0
M  V30 9434 H 880.361 -0.708578 -0.257746 0
M  V30 9435 H 883.012 -1.83387 0.0644472 0
M  V30 9436 H 881.394 -3.38451 -2.05589 0
M  V30 9437 H 882.568 -4.57589 0.54307 0
M  V30 9438 H 880.883 -4.15064 0.333297 0
M  V30 9439 H 883.48 -4.7915 -2.37318 0
M  V30 9440 H 883.823 -3.12187 -2.75399 0
M  V30 9441 H 884.356 -3.79456 -1.19408 0
M  V30 9442 H 881.095 -6.55495 -0.0253787 0
M  V30 9443 H 880.615 -5.79196 -1.55861 0
M  V30 9444 H 882.294 -6.33469 -1.31627 0
M  V30 9445 N 882.426 0.269451 -1.5528 0
M  V30 9446 C 883.389 1.31642 -1.87625 0
M  V30 9447 C 884.389 1.42182 -0.751058 0
M  V30 9448 O 885.579 1.41272 -1.01921 0
M  V30 9449 C 882.711 2.6973 -2.08467 0
M  V30 9450 H 883.904 1.0419 -2.81219 0
M  V30 9451 H 881.457 0.507685 -1.47825 0
M  V30 9452 H 882.192 3.02356 -1.17266 0
M  V30 9453 H 881.977 2.63465 -2.90394 0
M  V30 9454 H 883.467 3.4537 -2.34753 0
M  V30 9455 N 883.904 1.48273 0.534124 0
M  V30 9456 C 885.15 1.56311 1.29208 0
M  V30 9457 C 885.483 0.234481 1.92779 0
M  V30 9458 O 884.758 -0.759143 1.79073 0
M  V30 9459 C 885.041 2.69831 2.3846 0
M  V30 9460 C 884.894 4.12385 1.79608 0
M  V30 9461 C 886.213 2.79133 3.40254 0
M  V30 9462 H 883.332 0.56899 0.468422 0
M  V30 9463 H 885.974 1.80429 0.595438 0
M  V30 9464 H 884.124 2.49397 2.97881 0
M  V30 9465 H 885.796 4.44246 1.24269 0
M  V30 9466 H 884.039 4.19579 1.10162 0
M  V30 9467 H 884.71 4.87629 2.58693 0
M  V30 9468 H 887.186 2.97632 2.90783 0
M  V30 9469 H 886.062 3.60298 4.14097 0
M  V30 9470 H 886.323 1.87122 4.00547 0
M  V30 9471 N 885.382 -0.782676 1.36792 0
M  V30 9472 C 886.312 -1.90973 1.34356 0
M  V30 9473 C 887.293 -1.6875 0.213917 0
M  V30 9474 O 888.478 -1.89766 0.412601 0
M  V30 9475 C 885.608 -3.28097 1.13884 0
M  V30 9476 C 884.562 -3.6486 2.23744 0
M  V30 9477 C 883.888 -5.00406 1.88408 0
M  V30 9478 C 885.188 -3.72742 3.6587 0
M  V30 9479 H 886.882 -1.93268 2.28665 0
M  V30 9480 H 884.428 -0.928447 1.10072 0
M  V30 9481 H 886.381 -4.06569 1.10813 0
M  V30 9482 H 885.105 -3.26206 0.160275 0
M  V30 9483 H 883.764 -2.88689 2.25952 0
M  V30 9484 H 883.412 -4.95044 0.891083 0
M  V30 9485 H 883.112 -5.25973 2.61966 0
M  V30 9486 H 884.636 -5.81291 1.86905 0
M  V30 9487 H 886.05 -4.4139 3.65852 0
M  V30 9488 H 884.447 -4.09798 4.38389 0
M  V30 9489 H 885.517 -2.73676 4.00287 0
M  V30 9490 N 886.86 -1.21182 -1.00761 0
M  V30 9491 C 887.808 -0.965728 -2.11604 0
M  V30 9492 C 888.802 0.0861028 -1.69181 0
M  V30 9493 O 890.008 -0.0650558 -1.79882 0
M  V30 9494 H 886.383 -0.295023 -0.691712 0
M  V30 9495 H 888.354 -1.90667 -2.2954 0
M  V30 9496 C 887.103 -0.544164 -3.43415 0
M  V30 9497 H 886.426 -1.34515 -3.76491 0
M  V30 9498 H 887.866 -0.411268 -4.22001 0
M  V30 9499 C 886.325 0.744583 -3.28569 0
M  V30 9500 O 886.855 1.80078 -3.59075 0
M  V30 9501 N 885.061 0.710083 -2.81791 0
M  V30 9502 H 884.608 -0.14971 -2.57165 0
M  V30 9503 H 884.566 1.57268 -2.72239 0
M  V30 9504 N 888.338 1.20213 -1.01915 0
M  V30 9505 C 889.587 1.88968 -0.705261 0
M  V30 9506 C 889.9 1.79869 0.768531 0
M  V30 9507 O 891.106 2.43783 1.19508 0
M  V30 9508 C 889.562 3.38911 -1.21109 0
M  V30 9509 C 889.17 3.5659 -2.71197 0
M  V30 9510 C 890.914 4.13204 -0.97275 0
M  V30 9511 C 888.821 5.00372 -3.15248 0
M  V30 9512 H 887.751 0.707715 -0.260107 0
M  V30 9513 H 890.402 1.35977 -1.23217 0
M  V30 9514 H 888.784 3.9124 -0.612152 0
M  V30 9515 H 889.958 3.14635 -3.36662 0
M  V30 9516 H 888.273 2.95671 -2.93202 0
M  V30 9517 H 890.87 5.19221 -1.27726 0
M  V30 9518 H 891.213 4.16201 0.09072 0
M  V30 9519 H 891.746 3.66983 -1.5352 0
M  V30 9520 H 888.485 5.02532 -4.20882 0
M  V30 9521 H 888.005 5.43127 -2.54505 0
M  V30 9522 H 889.684 5.68969 -3.08032 0
M  V30 9523 N 889.816 0.795718 1.36037 0
M  V30 9524 C 891.227 0.433379 1.816 0
M  V30 9525 C 891.578 -1.04341 1.66155 0
M  V30 9526 O 890.703 -1.81004 1.18603 0
M  V30 9527 C 891.298 0.77985 3.29703 0
M  V30 9528 C 889.857 0.470256 3.73451 0
M  V30 9529 C 889.004 1.01119 2.58206 0
M  V30 9530 H 891.955 0.988317 1.24169 0
M  V30 9531 H 891.976 0.0732898 3.80429 0
M  V30 9532 H 891.488 1.85473 3.40913 0
M  V30 9533 H 889.589 -0.596332 3.67797 0
M  V30 9534 H 889.702 0.995276 4.68648 0
M  V30 9535 H 888.066 0.434077 2.50974 0
M  V30 9536 H 888.849 2.09196 2.72198 0
M  V30 9537 N 891.294 -1.47756 0.548274 0
M  V30 9538 C 892.519 -2.07387 0.023475 0
M  V30 9539 C 892.944 -1.39956 -1.25674 0
M  V30 9540 O 892.302 -0.471543 -1.7506 0
M  V30 9541 C 892.35 -3.60224 -0.164669 0
M  V30 9542 O 891.454 -3.93653 -1.22928 0
M  V30 9543 H 890.795 -0.662312 0.0473156 0
M  V30 9544 H 893.325 -1.89905 0.761409 0
M  V30 9545 H 893.335 -4.06211 -0.38166 0
M  V30 9546 H 892.01 -4.08702 0.770425 0
M  V30 9547 H 890.587 -3.59422 -0.993495 0
M  V30 9548 N 892.772 -0.284283 -1.55015 0
M  V30 9549 C 893.705 0.640779 -2.19019 0
M  V30 9550 C 894.683 1.14541 -1.15409 0
M  V30 9551 O 895.867 1.21669 -1.43975 0
M  V30 9552 C 892.994 1.87488 -2.82074 0
M  V30 9553 C 892.04 1.50494 -3.99066 0
M  V30 9554 S 892.873 0.575218 -5.32402 0
M  V30 9555 C 894.029 1.81749 -5.98931 0
M  V30 9556 H 894.262 0.0969761 -2.97142 0
M  V30 9557 H 891.795 -0.0684929 -1.54248 0
M  V30 9558 H 893.753 2.58319 -3.19032 0
M  V30 9559 H 892.414 2.38984 -2.03828 0
M  V30 9560 H 891.607 2.42349 -4.41908 0
M  V30 9561 H 891.209 0.876741 -3.63578 0
M  V30 9562 H 893.501 2.76026 -6.18721 0
M  V30 9563 H 894.444 1.43192 -6.93471 0
M  V30 9564 H 894.852 1.98661 -5.28388 0
M  V30 9565 N 894.251 1.57596 -0.0117121 0
M  V30 9566 C 895.201 2.05641 0.98467 0
M  V30 9567 C 896.185 0.953422 1.2961 0
M  V30 9568 O 897.377 1.21712 1.28512 0
M  V30 9569 C 894.506 2.57285 2.27286 0
M  V30 9570 C 893.592 3.74483 1.99057 0
M  V30 9571 N 893.983 4.85741 1.41029 0
M  V30 9572 C 892.281 3.82637 2.2914 0
M  V30 9573 C 892.982 5.67094 1.29536 0
M  V30 9574 N 891.958 5.13459 1.78497 0
M  V30 9575 H 895.76 2.89069 0.530702 0
M  V30 9576 H 893.274 1.6124 0.193717 0
M  V30 9577 H 895.271 2.89988 2.99521 0
M  V30 9578 H 893.931 1.75281 2.73325 0
M  V30 9579 H 894.942 5.06352 1.08756 0
M  V30 9580 H 891.619 3.11509 2.77972 0
M  V30 9581 H 893.009 6.66525 0.848144 0
M  V30 9582 N 895.729 -0.261212 1.5542 0
M  V30 9583 C 896.977 -0.989272 1.76232 0
M  V30 9584 C 897.298 -1.86389 0.573067 0
M  V30 9585 O 896.568 -1.91526 -0.41166 0
M  V30 9586 H 895.148 -0.368256 0.64992 0
M  V30 9587 H 897.81 -0.282603 1.9284 0
M  V30 9588 H 896.906 -1.61935 2.66802 0
M  V30 9589 N 897.207 -1.48554 -0.526253 0
M  V30 9590 C 898.455 -1.56452 -1.27935 0
M  V30 9591 C 898.776 -0.24184 -1.93495 0
M  V30 9592 O 898.046 0.736917 -1.81511 0
M  V30 9593 H 896.626 -0.576379 -0.47518 0
M  V30 9594 H 899.288 -1.85039 -0.612083 0
M  V30 9595 H 898.384 -2.34751 -2.05666 0
M  V30 9596 N 898.685 0.775411 -1.37205 0
M  V30 9597 C 899.91 1.5696 -1.35567 0
M  V30 9598 C 900.335 1.88012 0.0575554 0
M  V30 9599 O 899.693 1.48954 1.03355 0
M  V30 9600 C 899.741 2.85886 -2.19776 0
M  V30 9601 O 898.845 3.80103 -1.59987 0
M  V30 9602 H 898.186 0.475583 -0.463375 0
M  V30 9603 H 900.716 0.96001 -1.80679 0
M  V30 9604 H 900.726 3.35024 -2.32859 0
M  V30 9605 H 899.401 2.62613 -3.22502 0
M  V30 9606 H 897.978 3.38736 -1.55924 0
M  V30 9607 N 900.163 1.21714 1.00117 0
M  V30 9608 C 901.111 0.976937 2.11089 0
M  V30 9609 C 902.105 -0.0771295 1.69224 0
M  V30 9610 O 903.311 0.0745945 1.79845 0
M  V30 9611 H 899.686 0.298687 0.690138 0
M  V30 9612 H 901.657 1.91881 2.28526 0
M  V30 9613 C 900.406 0.562369 3.43122 0
M  V30 9614 H 899.729 1.36509 3.75773 0
M  V30 9615 H 901.169 0.433642 4.21777 0
M  V30 9616 C 899.628 -0.727148 3.28959 0
M  V30 9617 O 900.158 -1.78171 3.60025 0
M  V30 9618 N 898.364 -0.695129 2.82164 0
M  V30 9619 H 897.911 0.163346 2.57082 0
M  V30 9620 H 897.869 -1.55822 2.73069 0
M  V30 9621 N 901.641 -1.19671 1.02551 0
M  V30 9622 C 902.571 -2.25009 0.623965 0
M  V30 9623 C 903.552 -1.66129 -0.36538 0
M  V30 9624 O 904.737 -1.92599 -0.248842 0
M  V30 9625 C 901.867 -3.47287 -0.0294869 0
M  V30 9626 C 900.821 -4.18818 0.881781 0
M  V30 9627 C 900.147 -5.34618 0.0936189 0
M  V30 9628 C 901.447 -4.73986 2.19396 0
M  V30 9629 H 903.141 -2.58851 1.50454 0
M  V30 9630 H 900.687 -1.24425 0.724872 0
M  V30 9631 H 902.64 -4.20168 -0.322016 0
M  V30 9632 H 901.364 -3.12635 -0.944838 0
M  V30 9633 H 900.023 -3.47815 1.15845 0
M  V30 9634 H 899.671 -4.9621 -0.823661 0
M  V30 9635 H 899.371 -5.83409 0.700568 0
M  V30 9636 H 900.895 -6.10297 -0.192249 0
M  V30 9637 H 902.309 -5.38639 1.96319 0
M  V30 9638 H 900.706 -5.3325 2.75254 0
M  V30 9639 H 901.776 -3.92238 2.85092 0
M  V30 9640 N 903.119 -0.802921 -1.35613 0
M  V30 9641 C 904.365 -0.391259 -1.99601 0
M  V30 9642 C 904.72 1.02922 -1.62557 0
M  V30 9643 O 904.013 1.70357 -0.876878 0
M  V30 9644 C 904.207 -0.507806 -3.53774 0
M  V30 9645 C 904.036 -1.93807 -4.05794 0
M  V30 9646 C 902.806 -2.56564 -4.3532 0
M  V30 9647 C 905.004 -2.90211 -4.24596 0
M  V30 9648 N 902.986 -3.91038 -4.73247 0
M  V30 9649 C 904.357 -4.09548 -4.65479 0
M  V30 9650 C 906.412 -2.87091 -4.06796 0
M  V30 9651 C 905.115 -5.26191 -4.90424 0
M  V30 9652 C 907.141 -4.02933 -4.32896 0
M  V30 9653 C 906.503 -5.21017 -4.74047 0
M  V30 9654 H 902.602 -0.190867 -0.758349 0
M  V30 9655 H 905.186 -1.04338 -1.64382 0
M  V30 9656 H 903.357 0.114306 -3.88232 0
M  V30 9657 H 905.089 -0.0710855 -4.04638 0
M  V30 9658 H 901.844 -2.07945 -4.25507 0
M  V30 9659 H 902.268 -4.60262 -4.96475 0
M  V30 9660 H 906.91 -1.96951 -3.74126 0
M  V30 9661 H 904.628 -6.16906 -5.2197 0
M  V30 9662 H 908.214 -4.01895 -4.2068 0
M  V30 9663 H 907.094 -6.09165 -4.93849 0
M  V30 9664 N 904.597 1.47463 -0.556102 0
M  V30 9665 C 905.845 2.02075 -0.0315712 0
M  V30 9666 C 906.166 1.43292 1.32259 0
M  V30 9667 O 905.436 0.60771 1.86236 0
M  V30 9668 H 904.016 0.74695 -0.0086816 0
M  V30 9669 H 906.678 1.80879 -0.725859 0
M  V30 9670 H 905.774 3.12047 0.0573538 0
M  V30 9671 N 906.075 0.2925 1.54862 0
M  V30 9672 C 907.352 -0.371946 1.92031 0
M  V30 9673 C 907.732 -1.72363 1.21878 0
M  V30 9674 O 907.08 -2.25779 0.351573 0
M  V30 9675 C 907.29 -0.495027 3.45471 0
M  V30 9676 C 908.638 -0.769855 4.17562 0
M  V30 9677 O 909.662 -0.579168 3.5146 0
M  V30 9678 O 908.521 -1.13561 5.34571 0
M  V30 9679 H 905.615 -0.206463 0.800813 0
M  V30 9680 H 908.161 0.339933 1.6626 0
M  V30 9681 H 906.933 0.455528 3.88639 0
M  V30 9682 H 906.556 -1.2557 3.7725 0
M  V30 9683 N 907.553 -1.57587 0.0200696 0
M  V30 9684 C 908.781 -1.95718 -0.670964 0
M  V30 9685 C 909.196 -0.896081 -1.6618 0
M  V30 9686 O 908.553 0.123037 -1.82085 0
M  V30 9687 C 908.604 -3.33904 -1.38529 0
M  V30 9688 O 908.325 -4.35943 -0.434167 0
M  V30 9689 C 909.826 -3.86614 -2.16898 0
M  V30 9690 H 907.046 -0.644819 -0.185606 0
M  V30 9691 H 909.59 -2.04354 0.0771495 0
M  V30 9692 H 907.745 -3.26515 -2.08487 0
M  V30 9693 H 908.159 -5.16001 -0.940378 0
M  V30 9694 H 909.633 -4.85673 -2.62346 0
M  V30 9695 H 910.11 -3.20379 -3.00423 0
M  V30 9696 H 910.716 -3.97243 -1.51916 0
M  V30 9697 N 909.032 0.252966 -1.55557 0
M  V30 9698 C 910.448 0.60118 -1.47844 0
M  V30 9699 C 910.648 1.88612 -0.709055 0
M  V30 9700 O 909.704 2.51395 -0.235964 0
M  V30 9701 C 911.017 0.709539 -2.92209 0
M  V30 9702 C 912.565 0.802269 -3.02544 0
M  V30 9703 C 913.04 0.94224 -4.48203 0
M  V30 9704 N 914.531 1.00726 -4.52116 0
M  V30 9705 C 915.266 1.13472 -5.6206 0
M  V30 9706 N 914.762 1.22811 -6.81828 0
M  V30 9707 N 916.555 1.1674 -5.49844 0
M  V30 9708 H 908.706 -0.590635 -2.04023 0
M  V30 9709 H 910.969 -0.202986 -0.926013 0
M  V30 9710 H 910.675 -0.164505 -3.51315 0
M  V30 9711 H 910.549 1.58343 -3.42356 0
M  V30 9712 H 912.936 1.66677 -2.43522 0
M  V30 9713 H 913.017 -0.0966469 -2.55617 0
M  V30 9714 H 912.661 0.0823209 -5.07833 0
M  V30 9715 H 912.591 1.85611 -4.92805 0
M  V30 9716 H 915.082 0.946684 -3.6585 0
M  V30 9717 H 915.395 1.32426 -7.61369 0
M  V30 9718 H 913.74 1.19779 -6.84601 0
M  V30 9719 H 916.931 1.09089 -4.55211 0
M  V30 9720 H 917.104 1.26329 -6.35567 0
M  V30 9721 N 910.51 1.48831 0.518367 0
M  V30 9722 C 911.926 1.35209 0.847979 0
M  V30 9723 C 912.126 0.371927 1.98038 0
M  V30 9724 O 911.182 -0.202681 2.51685 0
M  V30 9725 C 912.495 2.7552 1.20455 0
M  V30 9726 C 914.043 2.84094 1.31377 0
M  V30 9727 C 914.518 4.25132 1.70372 0
M  V30 9728 N 916.009 4.27861 1.77453 0
M  V30 9729 C 916.744 5.3394 2.09035 0
M  V30 9730 N 916.24 6.50285 2.3896 0
M  V30 9731 N 918.033 5.21343 2.10139 0
M  V30 9732 H 910.184 2.11166 -0.228624 0
M  V30 9733 H 912.447 0.94717 -0.0396599 0
M  V30 9734 H 912.153 3.48861 0.445991 0
M  V30 9735 H 912.027 3.09785 2.15204 0
M  V30 9736 H 914.414 2.11001 2.06307 0
M  V30 9737 H 914.495 2.53433 0.347203 0
M  V30 9738 H 914.139 4.98745 0.959975 0
M  V30 9739 H 914.069 4.53245 2.68098 0
M  V30 9740 H 916.56 3.43945 1.56557 0
M  V30 9741 H 916.873 7.26961 2.62196 0
M  V30 9742 H 915.218 6.5354 2.36454 0
M  V30 9743 H 918.409 4.29462 1.86225 0
M  V30 9744 H 918.582 6.04112 2.34419 0
M  V30 9745 N 911.988 -0.768124 1.37614 0
M  V30 9746 C 913.399 -1.34462 1.29525 0
M  V30 9747 C 913.75 -1.96121 -0.0555168 0
M  V30 9748 O 912.875 -1.94069 -0.957406 0
M  V30 9749 C 913.47 -2.44475 2.34558 0
M  V30 9750 C 912.029 -2.97883 2.30093 0
M  V30 9751 C 911.176 -1.71131 2.18196 0
M  V30 9752 H 914.127 -0.568103 1.48183 0
M  V30 9753 H 914.148 -3.24047 1.99434 0
M  V30 9754 H 913.66 -1.99568 3.32858 0
M  V30 9755 H 911.761 -3.47156 1.35328 0
M  V30 9756 H 911.874 -3.53251 3.23652 0
M  V30 9757 H 910.238 -1.94197 1.64802 0
M  V30 9758 H 911.021 -1.28323 3.18415 0
M  V30 9759 N 913.466 -1.22244 -0.994698 0
M  V30 9760 C 914.416 -0.958244 -2.06886 0
M  V30 9761 C 915.4 0.0904481 -1.60646 0
M  V30 9762 O 916.592 -0.119837 -1.76594 0
M  V30 9763 C 913.721 -0.535944 -3.39091 0
M  V30 9764 C 912.807 -1.61927 -3.9197 0
M  V30 9765 N 913.198 -2.84659 -4.18094 0
M  V30 9766 C 911.496 -1.49053 -4.20356 0
M  V30 9767 C 912.197 -3.54697 -4.61048 0
M  V30 9768 N 911.173 -2.82164 -4.64634 0
M  V30 9769 H 914.975 -1.89056 -2.25022 0
M  V30 9770 H 912.489 -1.1197 -1.17629 0
M  V30 9771 H 914.486 -0.327997 -4.15608 0
M  V30 9772 H 913.146 0.38949 -3.22355 0
M  V30 9773 H 914.157 -3.21104 -4.06341 0
M  V30 9774 H 910.834 -0.631154 -4.12702 0
M  V30 9775 H 912.224 -4.59837 -4.89898 0
M  V30 9776 N 914.944 1.19125 -1.03184 0
M  V30 9777 C 916.192 1.8851 -0.728587 0
M  V30 9778 C 916.513 1.80195 0.74531 0
M  V30 9779 O 915.783 1.21437 1.5372 0
M  V30 9780 H 914.363 0.69784 -0.266511 0
M  V30 9781 H 917.025 1.44607 -1.3067 0
M  V30 9782 H 916.121 2.9477 -1.02554 0
M  V30 9783 N 916.422 0.810101 1.35185 0
M  V30 9784 C 917.699 0.315235 1.93043 0
M  V30 9785 C 918.079 -1.19567 1.73974 0
M  V30 9786 O 917.427 -1.99682 1.11083 0
M  V30 9787 C 917.637 0.730492 3.41269 0
M  V30 9788 C 918.985 0.721985 4.18417 0
M  V30 9789 O 920.009 0.672258 3.49799 0
M  V30 9790 O 918.868 0.783535 5.40854 0
M  V30 9791 H 915.962 0.0832774 0.822796 0
M  V30 9792 H 918.508 0.894034 1.4424 0
M  V30 9793 H 917.28 1.77169 3.48894 0
M  V30 9794 H 916.903 0.12669 3.97398 0
M  V30 9795 N 917.9 -1.47166 0.563914 0
M  V30 9796 C 919.149 -2.0166 0.0401871 0
M  V30 9797 C 919.462 -1.44303 -1.32046 0
M  V30 9798 O 920.668 -1.905 -1.93448 0
M  V30 9799 C 919.124 -3.59894 0.0213257 0
M  V30 9800 C 918.732 -4.26244 1.37914 0
M  V30 9801 C 920.476 -4.22114 -0.449442 0
M  V30 9802 C 918.383 -5.76503 1.31902 0
M  V30 9803 H 917.313 -0.753916 0.0112534 0
M  V30 9804 H 919.964 -1.69091 0.712766 0
M  V30 9805 H 918.346 -3.89454 -0.717038 0
M  V30 9806 H 919.52 -4.08317 2.13574 0
M  V30 9807 H 917.835 -3.76039 1.78839 0
M  V30 9808 H 920.432 -5.32234 -0.51292 0
M  V30 9809 H 920.775 -3.89749 -1.46291 0
M  V30 9810 H 921.308 -3.9711 0.23427 0
M  V30 9811 H 918.047 -6.13498 2.3087 0
M  V30 9812 H 917.567 -5.96748 0.604324 0
M  V30 9813 H 919.246 -6.38846 1.02392 0
M  V30 9814 N 919.378 -0.300708 -1.54705 0
M  V30 9815 C 920.608 0.310819 -2.04249 0
M  V30 9816 C 921.016 1.4809 -1.17754 0
M  V30 9817 O 920.359 1.82654 -0.195779 0
M  V30 9818 C 920.421 0.83014 -3.49784 0
M  V30 9819 C 920.085 -0.214628 -4.56496 0
M  V30 9820 C 921.082 -1.04298 -5.09331 0
M  V30 9821 C 918.767 -0.356242 -5.01035 0
M  V30 9822 C 920.761 -1.99889 -6.05246 0
M  V30 9823 C 918.448 -1.3156 -5.96771 0
M  V30 9824 C 919.446 -2.1354 -6.4876 0
M  V30 9825 O 919.134 -3.07849 -7.4262 0
M  V30 9826 H 918.866 0.0715341 -0.672204 0
M  V30 9827 H 921.42 -0.438179 -2.00672 0
M  V30 9828 H 919.65 1.62966 -3.50684 0
M  V30 9829 H 921.339 1.35752 -3.82526 0
M  V30 9830 H 922.105 -0.944439 -4.75716 0
M  V30 9831 H 917.984 0.271916 -4.60197 0
M  V30 9832 H 921.528 -2.63917 -6.45751 0
M  V30 9833 H 917.425 -1.41486 -6.29803 0
M  V30 9834 H 918.193 -3.02824 -7.60421 0
M  V30 9835 N 920.856 1.57574 -0.0284266 0
M  V30 9836 C 922.104 1.91393 0.649079 0
M  V30 9837 C 922.425 0.905368 1.72708 0
M  V30 9838 O 921.695 -0.0532107 1.95828 0
M  V30 9839 H 920.275 0.70646 0.24274 0
M  V30 9840 H 922.937 1.94752 -0.076066 0
M  V30 9841 H 922.033 2.91988 1.10226 0
M  V30 9842 N 922.334 -0.244713 1.55689 0
M  V30 9843 C 923.583 -0.970373 1.76824 0
M  V30 9844 C 923.896 -1.86402 0.592764 0
M  V30 9845 O 925.102 -2.62659 0.687186 0
M  V30 9846 C 923.558 -1.77547 3.13058 0
M  V30 9847 C 923.166 -0.929104 4.3826 0
M  V30 9848 C 924.91 -2.49373 3.43531 0
M  V30 9849 C 922.817 -1.73021 5.65524 0
M  V30 9850 H 921.747 -0.366048 0.659185 0
M  V30 9851 H 924.398 -0.224964 1.82116 0
M  V30 9852 H 922.78 -2.56291 3.01879 0
M  V30 9853 H 923.954 -0.183836 4.60433 0
M  V30 9854 H 922.269 -0.324071 4.15137 0
M  V30 9855 H 924.866 -3.09767 4.35831 0
M  V30 9856 H 925.209 -3.21099 2.64955 0
M  V30 9857 H 925.742 -1.77637 3.55935 0
M  V30 9858 H 922.481 -1.05666 6.46927 0
M  V30 9859 H 922.001 -2.45071 5.47449 0
M  V30 9860 H 923.68 -2.2968 6.0486 0
M  V30 9861 N 923.813 -1.49104 -0.510467 0
M  V30 9862 C 924.761 -1.65547 -1.63392 0
M  V30 9863 C 925.755 -0.521522 -1.61172 0
M  V30 9864 O 926.961 -0.700865 -1.65795 0
M  V30 9865 H 923.336 -0.521843 -0.541464 0
M  V30 9866 H 925.307 -2.59864 -1.46673 0
M  V30 9867 C 924.056 -1.73051 -3.01577 0
M  V30 9868 H 923.379 -2.59676 -3.03987 0
M  V30 9869 H 924.819 -1.88594 -3.79748 0
M  V30 9870 C 923.278 -0.47328 -3.33559 0
M  V30 9871 O 923.808 0.405239 -3.99651 0
M  V30 9872 N 922.014 -0.339074 -2.88615 0
M  V30 9873 H 921.561 -1.05497 -2.35007 0
M  V30 9874 H 921.519 0.501061 -3.10382 0
M  V30 9875 N 925.291 0.760815 -1.38019 0
M  V30 9876 C 926.223 1.88387 -1.30549 0
M  V30 9877 C 927.236 1.61319 -0.219119 0
M  V30 9878 O 928.425 1.72033 -0.476122 0
M  V30 9879 C 925.525 3.23863 -0.998291 0
M  V30 9880 C 924.698 3.78492 -2.19232 0
M  V30 9881 C 923.757 4.92468 -1.85368 0
M  V30 9882 O 922.783 5.0748 -2.57785 0
M  V30 9883 N 923.985 5.74901 -0.804319 0
M  V30 9884 H 926.75 1.95308 -2.27322 0
M  V30 9885 H 924.311 0.940423 -1.31786 0
M  V30 9886 H 926.303 3.97644 -0.7524 0
M  V30 9887 H 924.873 3.12374 -0.11877 0
M  V30 9888 H 924.093 2.96361 -2.5993 0
M  V30 9889 H 925.381 4.11722 -2.98935 0
M  V30 9890 H 924.779 5.65333 -0.203628 0
M  V30 9891 H 923.336 6.48861 -0.618301 0
M  V30 9892 N 926.769 1.22769 0.988202 0
M  V30 9893 C 927.732 1.00325 2.06076 0
M  V30 9894 C 928.732 -0.0320618 1.60768 0
M  V30 9895 O 929.922 0.206912 1.72967 0
M  V30 9896 C 927.054 0.516376 3.36966 0
M  V30 9897 H 928.247 1.95499 2.27421 0
M  V30 9898 H 925.8 1.04704 1.16047 0
M  V30 9899 H 926.535 -0.439498 3.21308 0
M  V30 9900 H 926.32 1.26337 3.71189 0
M  V30 9901 H 927.81 0.37974 4.1587 0
M  V30 9902 N 928.247 -1.18576 1.03814 0
M  V30 9903 C 929.177 -2.24334 0.647795 0
M  V30 9904 C 930.158 -1.66508 -0.34774 0
M  V30 9905 O 931.343 -1.92852 -0.228401 0
M  V30 9906 C 928.473 -3.47299 0.00734922 0
M  V30 9907 C 927.427 -4.17859 0.926152 0
M  V30 9908 C 926.753 -5.34489 0.150317 0
M  V30 9909 C 928.053 -4.71632 2.24411 0
M  V30 9910 H 929.747 -2.57241 1.53191 0
M  V30 9911 H 927.293 -1.23649 0.738028 0
M  V30 9912 H 929.246 -4.20486 -0.277434 0
M  V30 9913 H 927.97 -3.13619 -0.911626 0
M  V30 9914 H 926.629 -3.46567 1.19528 0
M  V30 9915 H 926.277 -4.97056 -0.770985 0
M  V30 9916 H 925.977 -5.82633 0.762407 0
M  V30 9917 H 927.501 -6.10467 -0.127508 0
M  V30 9918 H 928.915 -5.36526 2.02021 0
M  V30 9919 H 927.312 -5.303 2.80894 0
M  V30 9920 H 928.382 -3.89192 2.89236 0
M  V30 9921 N 929.725 -0.817259 -1.34754 0
M  V30 9922 C 930.973 -0.401852 -1.98065 0
M  V30 9923 C 931.294 1.03718 -1.65129 0
M  V30 9924 O 930.564 1.71921 -0.939141 0
M  V30 9925 H 929.144 -0.145603 -0.732672 0
M  V30 9926 H 931.806 -1.04545 -1.64488 0
M  V30 9927 H 930.902 -0.516241 -3.07801 0
M  V30 9928 N 931.203 1.46865 -0.571711 0
M  V30 9929 C 932.166 2.28658 0.157499 0
M  V30 9930 C 933.166 1.37773 0.829172 0
M  V30 9931 O 934.356 1.6026 0.682811 0
M  V30 9932 C 931.488 3.17859 1.23202 0
M  V30 9933 H 932.681 2.94603 -0.561171 0
M  V30 9934 H 930.234 1.52793 -0.329229 0
M  V30 9935 H 930.969 2.56637 1.98262 0
M  V30 9936 H 930.754 3.84762 0.755031 0
M  V30 9937 H 932.244 3.7945 1.74378 0
M  V30 9938 N 932.681 0.308908 1.54543 0
M  V30 9939 C 933.909 -0.300418 2.04707 0
M  V30 9940 C 934.324 -1.46915 1.18581 0
M  V30 9941 O 933.681 -1.81251 0.213186 0
M  V30 9942 C 933.732 -0.749038 3.53655 0
M  V30 9943 O 933.453 0.373181 4.36508 0
M  V30 9944 C 934.954 -1.4227 4.1985 0
M  V30 9945 H 932.174 -0.0641267 0.667929 0
M  V30 9946 H 934.718 0.450839 1.99469 0
M  V30 9947 H 932.873 -1.4503 3.59228 0
M  V30 9948 H 933.287 0.0224752 5.24495 0
M  V30 9949 H 934.761 -1.68768 5.25568 0
M  V30 9950 H 935.238 -2.36531 3.70067 0
M  V30 9951 H 935.844 -0.764404 4.18374 0
M  V30 9952 N 934.159 -1.57557 0.0367827 0
M  V30 9953 C 935.122 -2.09591 -0.927589 0
M  V30 9954 C 936.122 -1.01252 -1.24919 0
M  V30 9955 O 937.312 -1.27382 -1.18825 0
M  V30 9956 C 934.444 -2.56816 -2.24184 0
M  V30 9957 H 935.637 -2.96086 -0.476784 0
M  V30 9958 H 933.19 -1.54864 -0.211385 0
M  V30 9959 H 933.925 -1.73673 -2.73876 0
M  V30 9960 H 933.71 -3.35973 -2.0215 0
M  V30 9961 H 935.2 -2.97271 -2.93291 0
M  V30 9962 N 935.637 0.236453 -1.55816 0
M  V30 9963 C 936.584 1.29289 -1.91188 0
M  V30 9964 C 937.554 1.47315 -0.767301 0
M  V30 9965 O 938.739 1.61128 -1.02189 0
M  V30 9966 C 935.879 2.64126 -2.22107 0
M  V30 9967 C 934.992 2.54022 -3.49423 0
M  V30 9968 C 934.127 3.81282 -3.69861 0
M  V30 9969 C 933.166 3.65839 -4.90743 0
M  V30 9970 N 932.303 4.85014 -5.07647 0
M  V30 9971 H 937.143 0.98424 -2.81277 0
M  V30 9972 H 934.68 0.474722 -1.39229 0
M  V30 9973 H 936.638 3.42626 -2.3804 0
M  V30 9974 H 935.268 2.93118 -1.35209 0
M  V30 9975 H 934.32 1.67036 -3.41765 0
M  V30 9976 H 935.632 2.38525 -4.38072 0
M  V30 9977 H 934.786 4.68226 -3.8581 0
M  V30 9978 H 933.525 3.99688 -2.79465 0
M  V30 9979 H 932.53 2.77279 -4.74759 0
M  V30 9980 H 933.755 3.48918 -5.82609 0
M  V30 9981 H 931.701 5.03762 -4.20191 0
M  V30 9982 H 931.618 4.72188 -5.90402 0
M  V30 9983 H 932.886 5.73427 -5.28017 0
M  V30 9984 N 937.115 1.49373 0.502552 0
M  V30 9985 C 938.361 1.59016 1.25864 0
M  V30 9986 C 938.694 0.27532 1.92238 0
M  V30 9987 O 937.969 -0.720988 1.80643 0
M  V30 9988 C 938.252 2.74828 2.32683 0
M  V30 9989 C 938.105 4.16102 1.7082 0
M  V30 9990 C 939.424 2.86288 3.34256 0
M  V30 9991 H 936.543 0.578798 0.456248 0
M  V30 9992 H 939.185 1.81651 0.557032 0
M  V30 9993 H 937.335 2.5566 2.92524 0
M  V30 9994 H 939.007 4.46782 1.14818 0
M  V30 9995 H 937.25 4.21822 1.01238 0
M  V30 9996 H 937.921 4.93006 2.48292 0
M  V30 9997 H 940.397 3.03733 2.84404 0
M  V30 9998 H 939.273 3.69001 4.06362 0
M  V30 9999 H 939.534 1.95576 3.96488 0
M  V30 10000 N 938.594 -0.753485 1.38421 0
M  V30 10001 C 939.843 -1.50797 1.33952 0
M  V30 10002 C 940.156 -1.95482 -0.0678464 0
M  V30 10003 O 941.362 -2.7048 -0.235078 0
M  V30 10004 C 939.818 -2.72393 2.35224 0
M  V30 10005 C 939.426 -2.34733 3.81582 0
M  V30 10006 C 941.17 -3.50281 2.39798 0
M  V30 10007 C 939.077 -3.52939 4.7454 0
M  V30 10008 H 938.007 -0.566211 0.497916 0
M  V30 10009 H 940.658 -0.823659 1.63976 0
M  V30 10010 H 939.04 -3.42806 1.98243 0
M  V30 10011 H 940.214 -1.71985 4.27502 0
M  V30 10012 H 938.529 -1.69978 3.80127 0
M  V30 10013 H 941.126 -4.38172 3.06447 0
M  V30 10014 H 941.469 -3.91444 1.41695 0
M  V30 10015 H 942.002 -2.86881 2.75579 0
M  V30 10016 H 938.741 -3.16843 5.73839 0
M  V30 10017 H 938.261 -4.1473 4.33312 0
M  V30 10018 H 939.94 -4.19519 4.92557 0
M  V30 10019 N 940.072 -1.23292 -0.981677 0
M  V30 10020 C 941.3 -1.09088 -1.75805 0
M  V30 10021 C 941.715 0.357746 -1.8538 0
M  V30 10022 O 941.072 1.24751 -1.33205 0
M  V30 10023 C 941.123 -1.70885 -3.1856 0
M  V30 10024 O 940.844 -3.10082 -3.09484 0
M  V30 10025 C 942.345 -1.62106 -4.12597 0
M  V30 10026 H 939.565 -0.38184 -0.55176 0
M  V30 10027 H 942.109 -1.63116 -1.23342 0
M  V30 10028 H 940.264 -1.20893 -3.68054 0
M  V30 10029 H 940.678 -3.40039 -3.99342 0
M  V30 10030 H 942.152 -2.10049 -5.10474 0
M  V30 10031 H 942.629 -0.579642 -4.35358 0
M  V30 10032 H 943.235 -2.11457 -3.69007 0
M  V30 10033 N 941.55 1.18024 -1.04442 0
M  V30 10034 C 942.827 1.8398 -0.664125 0
M  V30 10035 C 943.207 1.92961 0.856116 0
M  V30 10036 O 942.555 1.45839 1.75907 0
M  V30 10037 C 942.765 3.22069 -1.34433 0
M  V30 10038 C 944.113 3.98063 -1.47754 0
M  V30 10039 O 945.137 3.31523 -1.30274 0
M  V30 10040 O 943.996 5.17291 -1.76272 0
M  V30 10041 H 941.09 0.793543 -0.23285 0
M  V30 10042 H 943.636 1.25385 -1.14354 0
M  V30 10043 H 942.408 3.10458 -2.38184 0
M  V30 10044 H 942.031 3.88325 -0.853782 0
M  V30 10045 N 943.028 0.824394 1.34319 0
M  V30 10046 C 944.439 0.471802 1.8064 0
M  V30 10047 C 944.79 -1.00793 1.6833 0
M  V30 10048 O 943.915 -1.78447 1.22416 0
M  V30 10049 C 944.51 0.849609 3.27974 0
M  V30 10050 C 943.069 0.549365 3.72369 0
M  V30 10051 C 942.216 1.06573 2.56003 0
M  V30 10052 H 945.167 1.01443 1.22045 0
M  V30 10053 H 945.188 0.153968 3.80188 0
M  V30 10054 H 944.7 1.92663 3.36902 0
M  V30 10055 H 942.801 -0.518182 3.68979 0
M  V30 10056 H 942.914 1.09446 4.66432 0
M  V30 10057 H 941.278 0.487214 2.49997 0
M  V30 10058 H 942.061 2.14923 2.677 0
M  V30 10059 N 944.506 -1.46559 0.579492 0
M  V30 10060 C 945.783 -1.956 -0.00287136 0
M  V30 10061 C 946.163 -1.52215 -1.46266 0
M  V30 10062 O 945.511 -0.771335 -2.15088 0
M  V30 10063 C 945.721 -3.48606 0.165824 0
M  V30 10064 C 947.069 -4.24588 0.0319807 0
M  V30 10065 O 948.093 -3.56075 0.094496 0
M  V30 10066 O 946.952 -5.46396 -0.106386 0
M  V30 10067 H 944.046 -0.825387 -0.0516274 0
M  V30 10068 H 946.592 -1.56858 0.647584 0
M  V30 10069 H 945.364 -3.7306 1.18076 0
M  V30 10070 H 944.987 -3.94169 -0.521212 0
M  V30 10071 N 945.984 -0.3171 -1.54377 0
M  V30 10072 C 947.233 0.288271 -1.99629 0
M  V30 10073 C 947.546 1.53754 -1.2091 0
M  V30 10074 O 948.752 2.2185 -1.56508 0
M  V30 10075 C 947.208 0.564188 -3.5545 0
M  V30 10076 C 946.816 -0.667659 -4.42997 0
M  V30 10077 C 948.56 1.12987 -4.09187 0
M  V30 10078 C 946.467 -0.364003 -5.90279 0
M  V30 10079 H 945.397 0.111492 -0.745711 0
M  V30 10080 H 948.048 -0.428317 -1.78431 0
M  V30 10081 H 946.43 1.34079 -3.72611 0
M  V30 10082 H 947.604 -1.44335 -4.37612 0
M  V30 10083 H 945.919 -1.1531 -4.00116 0
M  V30 10084 H 948.516 1.37157 -5.1681 0
M  V30 10085 H 948.859 2.07722 -3.60773 0
M  V30 10086 H 949.392 0.414595 -3.95634 0
M  V30 10087 H 946.131 -1.28035 -6.42874 0
M  V30 10088 H 945.651 0.374102 -5.98632 0
M  V30 10089 H 947.33 0.0285433 -6.46994 0
M  V30 10090 N 947.462 1.57535 -0.0451378 0
M  V30 10091 C 948.392 2.14208 0.929372 0
M  V30 10092 C 949.373 1.06221 1.32858 0
M  V30 10093 O 950.558 1.34132 1.40436 0
M  V30 10094 C 947.688 2.68217 2.20629 0
M  V30 10095 C 946.642 3.81134 1.94734 0
M  V30 10096 C 945.968 4.21636 3.28828 0
M  V30 10097 C 947.268 5.06531 1.27374 0
M  V30 10098 H 948.962 2.95886 0.457348 0
M  V30 10099 H 946.508 1.42332 0.218544 0
M  V30 10100 H 948.461 3.06502 2.89196 0
M  V30 10101 H 947.185 1.83722 2.70026 0
M  V30 10102 H 945.844 3.43312 1.28579 0
M  V30 10103 H 945.492 3.34099 3.76014 0
M  V30 10104 H 945.192 4.97736 3.12302 0
M  V30 10105 H 946.716 4.62516 3.98637 0
M  V30 10106 H 948.13 5.423 1.85967 0
M  V30 10107 H 946.527 5.87735 1.21194 0
M  V30 10108 H 947.597 4.84261 0.248913 0
M  V30 10109 N 948.94 -0.228186 1.55939 0
M  V30 10110 C 949.887 -1.28274 1.91871 0
M  V30 10111 C 950.857 -1.46906 0.775103 0
M  V30 10112 O 952.042 -1.60583 1.03042 0
M  V30 10113 C 949.182 -2.62945 2.23504 0
M  V30 10114 C 948.295 -2.52166 3.50766 0
M  V30 10115 C 947.43 -3.79316 3.71878 0
M  V30 10116 C 946.469 -3.63231 4.92676 0
M  V30 10117 N 945.606 -4.82315 5.10212 0
M  V30 10118 H 950.446 -0.96931 2.81795 0
M  V30 10119 H 947.983 -0.467331 1.39479 0
M  V30 10120 H 949.941 -3.41359 2.39854 0
M  V30 10121 H 948.571 -2.92397 1.36762 0
M  V30 10122 H 947.623 -1.65221 3.42646 0
M  V30 10123 H 948.935 -2.36199 4.39331 0
M  V30 10124 H 948.089 -4.66173 3.88288 0
M  V30 10125 H 946.828 -3.982 2.81581 0
M  V30 10126 H 945.833 -2.74757 4.76223 0
M  V30 10127 H 947.058 -3.45823 5.84451 0
M  V30 10128 H 945.004 -5.01526 4.22856 0
M  V30 10129 H 944.921 -4.6905 5.92898 0
M  V30 10130 H 946.189 -5.70618 5.31051 0
M  V30 10131 N 950.418 -1.49637 -0.494624 0
M  V30 10132 C 951.646 -1.63164 -1.2722 0
M  V30 10133 C 952.061 -0.305552 -1.86311 0
M  V30 10134 O 951.418 0.709758 -1.68133 0
M  V30 10135 C 951.469 -2.70524 -2.39789 0
M  V30 10136 O 951.19 -3.97991 -1.83126 0
M  V30 10137 C 952.691 -2.94814 -3.31058 0
M  V30 10138 H 949.911 -0.54912 -0.385627 0
M  V30 10139 H 952.455 -1.95711 -0.593081 0
M  V30 10140 H 950.61 -2.40738 -3.03519 0
M  V30 10141 H 951.024 -4.57179 -2.57075 0
M  V30 10142 H 952.498 -3.73653 -4.06309 0
M  V30 10143 H 952.975 -2.04974 -3.88436 0
M  V30 10144 H 953.581 -3.26042 -2.73088 0
M  V30 10145 N 951.896 0.746133 -1.38819 0
M  V30 10146 C 953.136 1.51821 -1.36857 0
M  V30 10147 C 953.5 1.9196 0.0391461 0
M  V30 10148 O 954.701 2.68172 0.183689 0
M  V30 10149 C 952.972 2.73214 -2.3041 0
M  V30 10150 S 954.531 3.62995 -2.46536 0
M  V30 10151 H 951.349 0.51945 -0.485482 0
M  V30 10152 H 953.951 0.875244 -1.74813 0
M  V30 10153 H 952.655 2.41847 -3.31569 0
M  V30 10154 H 952.186 3.42449 -1.9363 0
M  V30 10155 H 954.201 4.66353 -1.69498 0
M  V30 10156 N 953.375 1.23811 0.975125 0
M  V30 10157 C 954.621 1.07495 1.71967 0
M  V30 10158 C 954.954 -0.386451 1.90316 0
M  V30 10159 O 954.229 -1.28591 1.45927 0
M  V30 10160 C 954.512 1.80694 3.11483 0
M  V30 10161 C 954.365 3.3454 3.00671 0
M  V30 10162 C 955.684 1.57367 4.11003 0
M  V30 10163 H 952.803 0.3919 0.624166 0
M  V30 10164 H 955.445 1.52383 1.13487 0
M  V30 10165 H 953.595 1.42538 3.61407 0
M  V30 10166 H 955.267 3.8225 2.5823 0
M  V30 10167 H 953.51 3.63301 2.37054 0
M  V30 10168 H 954.181 3.80951 3.99475 0
M  V30 10169 H 956.657 1.90545 3.69908 0
M  V30 10170 H 955.533 2.11052 5.06703 0
M  V30 10171 H 955.794 0.510221 4.39146 0
M  V30 10172 N 954.853 -1.17469 1.05066 0
M  V30 10173 C 956.264 -1.69334 0.786304 0
M  V30 10174 C 956.615 -1.83604 -0.691671 0
M  V30 10175 O 955.74 -1.52269 -1.53763 0
M  V30 10176 C 956.335 -3.07572 1.42074 0
M  V30 10177 C 954.894 -3.56609 1.20446 0
M  V30 10178 C 954.041 -2.329 1.50508 0
M  V30 10179 H 956.992 -1.02003 1.21577 0
M  V30 10180 H 957.013 -3.71352 0.829334 0
M  V30 10181 H 956.525 -2.97154 2.49642 0
M  V30 10182 H 954.626 -3.72306 0.147968 0
M  V30 10183 H 954.739 -4.39446 1.90852 0
M  V30 10184 H 953.103 -2.37305 0.925124 0
M  V30 10185 H 953.886 -2.25093 2.59207 0
M  V30 10186 N 956.331 -0.831506 -1.3388 0
M  V30 10187 C 957.608 -0.345907 -1.92517 0
M  V30 10188 C 957.988 1.16784 -1.75854 0
M  V30 10189 O 957.336 1.97889 -1.14245 0
M  V30 10190 C 957.546 -0.784692 -3.40064 0
M  V30 10191 C 958.894 -0.78846 -4.17215 0
M  V30 10192 O 959.918 -0.727823 -3.48685 0
M  V30 10193 O 958.777 -0.869481 -5.39539 0
M  V30 10194 H 955.871 -0.0963568 -0.821367 0
M  V30 10195 H 958.417 -0.916868 -1.42799 0
M  V30 10196 H 957.189 -1.82697 -3.46031 0
M  V30 10197 H 956.812 -0.189897 -3.97146 0
M  V30 10198 N 957.809 1.4625 -0.587256 0
M  V30 10199 C 958.739 2.33132 0.131076 0
M  V30 10200 C 959.72 1.45619 0.879158 0
M  V30 10201 O 960.905 1.74428 0.853723 0
M  V30 10202 C 958.035 3.27975 1.14236 0
M  V30 10203 C 956.989 4.24965 0.508819 0
M  V30 10204 C 956.315 5.09349 1.62689 0
M  V30 10205 C 957.615 5.19322 -0.55694 0
M  V30 10206 H 959.309 2.93442 -0.594333 0
M  V30 10207 H 956.855 1.41106 -0.287263 0
M  V30 10208 H 958.808 3.87614 1.65328 0
M  V30 10209 H 957.532 2.65781 1.8981 0
M  V30 10210 H 956.191 3.66595 0.0189337 0
M  V30 10211 H 955.839 4.43537 2.37242 0
M  V30 10212 H 955.539 5.75036 1.20861 0
M  V30 10213 H 957.063 5.71852 2.14049 0
M  V30 10214 H 958.477 5.73151 -0.130903 0
M  V30 10215 H 956.874 5.93376 -0.895801 0
M  V30 10216 H 957.944 4.62979 -1.44148 0
M  V30 10217 N 959.287 0.325282 1.54207 0
M  V30 10218 C 960.512 -0.281418 2.05482 0
M  V30 10219 C 960.937 -1.44869 1.19977 0
M  V30 10220 O 960.295 -1.80088 0.209275 0
M  V30 10221 C 960.343 -0.692029 3.53897 0
M  V30 10222 O 959.447 -1.7942 3.71325 0
M  V30 10223 H 958.788 -0.0504872 0.662078 0
M  V30 10224 H 961.318 0.474191 1.99029 0
M  V30 10225 H 961.328 -0.974219 3.96198 0
M  V30 10226 H 960.003 0.161709 4.15586 0
M  V30 10227 H 958.58 -1.51069 3.40929 0
M  V30 10228 N 960.765 -1.57509 0.0534917 0
M  V30 10229 C 962.042 -1.84137 -0.659767 0
M  V30 10230 C 962.422 -0.942362 -1.88899 0
M  V30 10231 O 961.77 -0.00398566 -2.285 0
M  V30 10232 C 961.98 -3.33919 -1.01486 0
M  V30 10233 C 963.328 -4.00989 -1.39616 0
M  V30 10234 O 964.352 -3.38557 -1.10713 0
M  V30 10235 O 963.211 -5.11071 -1.93567 0
M  V30 10236 H 960.305 -0.760081 -0.325893 0
M  V30 10237 H 962.851 -1.69497 0.0830315 0
M  V30 10238 H 961.623 -3.91046 -0.141041 0
M  V30 10239 H 961.246 -3.53755 -1.81503 0
M  V30 10240 N 962.243 0.219913 -1.56058 0
M  V30 10241 C 963.19 1.27254 -1.92549 0
M  V30 10242 C 964.16 1.46493 -0.782883 0
M  V30 10243 O 965.345 1.60035 -1.03892 0
M  V30 10244 C 962.485 2.61756 -2.24896 0
M  V30 10245 C 961.598 2.50302 -3.52098 0
M  V30 10246 C 960.733 3.77338 -3.73884 0
M  V30 10247 C 959.772 3.60613 -4.94595 0
M  V30 10248 N 958.909 4.79603 -5.12763 0
M  V30 10249 H 963.749 0.954352 -2.82305 0
M  V30 10250 H 961.286 0.459928 -1.39725 0
M  V30 10251 H 963.244 3.40082 -2.4166 0
M  V30 10252 H 961.874 2.91668 -1.38311 0
M  V30 10253 H 960.926 1.63401 -3.43517 0
M  V30 10254 H 962.238 2.33866 -4.40577 0
M  V30 10255 H 961.392 4.64108 -3.90754 0
M  V30 10256 H 960.131 3.96702 -2.83689 0
M  V30 10257 H 959.136 2.72228 -4.77674 0
M  V30 10258 H 960.361 3.42719 -5.86277 0
M  V30 10259 H 958.307 4.99277 -4.2551 0
M  V30 10260 H 958.224 4.65899 -5.95377 0
M  V30 10261 H 959.492 5.67794 -5.34069 0
M  V30 10262 N 963.721 1.49897 0.486681 0
M  V30 10263 C 965.137 1.36977 0.819109 0
M  V30 10264 C 965.337 0.41385 1.97204 0
M  V30 10265 O 964.393 -0.149249 2.52059 0
M  V30 10266 C 965.706 2.78013 1.14584 0
M  V30 10267 C 967.254 2.86816 1.25321 0
M  V30 10268 C 967.729 4.28651 1.61316 0
M  V30 10269 N 969.22 4.31528 1.68337 0
M  V30 10270 C 969.955 5.38254 1.97662 0
M  V30 10271 N 969.451 6.55207 2.25113 0
M  V30 10272 N 971.244 5.25683 1.99033 0
M  V30 10273 H 963.395 2.10634 -0.273364 0
M  V30 10274 H 965.658 0.946116 -0.0597418 0
M  V30 10275 H 965.364 3.49728 0.371892 0
M  V30 10276 H 965.238 3.1428 2.08585 0
M  V30 10277 H 967.625 2.15329 2.01785 0
M  V30 10278 H 967.706 2.54112 0.293368 0
M  V30 10279 H 967.35 5.00669 0.853968 0
M  V30 10280 H 967.28 4.5883 2.58424 0
M  V30 10281 H 969.771 3.47189 1.49226 0
M  V30 10282 H 970.084 7.32359 2.46717 0
M  V30 10283 H 968.429 6.58408 2.22538 0
M  V30 10284 H 971.62 4.33316 1.77074 0
M  V30 10285 H 971.793 6.08949 2.21552 0
M  V30 10286 N 965.199 -0.738761 1.39212 0
M  V30 10287 C 966.129 -1.86602 1.40364 0
M  V30 10288 C 967.11 -1.67984 0.267495 0
M  V30 10289 O 968.295 -1.88358 0.472765 0
M  V30 10290 C 965.425 -3.24308 1.24265 0
M  V30 10291 C 964.379 -3.57557 2.35239 0
M  V30 10292 C 963.705 -4.94159 2.04233 0
M  V30 10293 C 965.005 -3.60914 3.77543 0
M  V30 10294 H 966.699 -1.85896 2.34698 0
M  V30 10295 H 964.245 -0.892959 1.1297 0
M  V30 10296 H 966.198 -4.02838 1.23692 0
M  V30 10297 H 964.922 -3.25531 0.263974 0
M  V30 10298 H 963.581 -2.81354 2.35022 0
M  V30 10299 H 963.229 -4.91959 1.04813 0
M  V30 10300 H 962.929 -5.17373 2.78567 0
M  V30 10301 H 964.453 -5.7505 2.05303 0
M  V30 10302 H 965.867 -4.29528 3.79709 0
M  V30 10303 H 964.264 -3.95644 4.51205 0
M  V30 10304 H 965.334 -2.60803 4.08791 0
M  V30 10305 N 966.677 -1.24326 -0.968545 0
M  V30 10306 C 967.587 -1.05194 -2.09694 0
M  V30 10307 C 968.603 0.00701291 -1.73999 0
M  V30 10308 O 969.779 -0.190981 -2.00492 0
M  V30 10309 C 966.844 -0.658075 -3.40397 0
M  V30 10310 C 965.905 -1.79341 -3.90045 0
M  V30 10311 C 965.138 -1.41824 -5.14511 0
M  V30 10312 O 965.361 -0.307693 -5.69569 0
M  V30 10313 O 964.295 -2.24358 -5.58522 0
M  V30 10314 H 968.121 -1.99791 -2.2873 0
M  V30 10315 H 965.706 -1.03138 -1.08088 0
M  V30 10316 H 967.588 -0.449911 -4.18991 0
M  V30 10317 H 966.263 0.258782 -3.22664 0
M  V30 10318 H 965.17 -2.05632 -3.12516 0
M  V30 10319 H 966.503 -2.68901 -4.12254 0
M  V30 10320 N 968.156 1.1691 -1.05688 0
M  V30 10321 C 969.402 1.8757 -0.771071 0
M  V30 10322 C 969.735 1.8113 0.700399 0
M  V30 10323 O 969.01 1.22273 1.5126 0
M  V30 10324 C 969.293 3.37392 -1.25851 0
M  V30 10325 C 969.146 3.52556 -2.79329 0
M  V30 10326 C 970.465 4.31585 -0.861512 0
M  V30 10327 H 967.584 0.681089 -0.281579 0
M  V30 10328 H 970.226 1.37453 -1.31174 0
M  V30 10329 H 968.376 3.80204 -0.798563 0
M  V30 10330 H 970.048 3.18725 -3.33485 0
M  V30 10331 H 968.291 2.94668 -3.1836 0
M  V30 10332 H 968.962 4.57748 -3.08498 0
M  V30 10333 H 971.438 3.96642 -1.25756 0
M  V30 10334 H 970.314 5.34939 -1.23012 0
M  V30 10335 H 970.575 4.4148 0.234089 0
M  V30 10336 N 969.634 0.838594 1.33437 0
M  V30 10337 C 970.88 0.434813 1.98084 0
M  V30 10338 C 971.213 -1.00331 1.66275 0
M  V30 10339 O 970.488 -1.70139 0.942501 0
M  V30 10340 C 970.771 0.655602 3.54082 0
M  V30 10341 C 970.624 2.14097 3.95578 0
M  V30 10342 C 971.943 0.101576 4.39983 0
M  V30 10343 H 969.062 0.159456 0.719544 0
M  V30 10344 H 971.704 1.05406 1.58081 0
M  V30 10345 H 969.854 0.128501 3.88287 0
M  V30 10346 H 971.526 2.73292 3.71631 0
M  V30 10347 H 969.769 2.62558 3.4532 0
M  V30 10348 H 970.44 2.24621 5.04231 0
M  V30 10349 H 972.916 0.552122 4.12421 0
M  V30 10350 H 971.792 0.28575 5.48156 0
M  V30 10351 H 972.053 -0.994616 4.30767 0
M  V30 10352 N 971.112 -1.45937 0.595003 0
M  V30 10353 C 972.36 -2.01921 0.0851368 0
M  V30 10354 C 972.681 -1.46748 -1.28413 0
M  V30 10355 O 971.951 -0.656873 -1.84559 0
M  V30 10356 H 970.531 -0.746457 0.0284826 0
M  V30 10357 H 973.193 -1.78891 0.773561 0
M  V30 10358 H 972.289 -3.1209 0.0254002 0
M  V30 10359 N 972.59 -0.333456 -1.54032 0
M  V30 10360 C 973.52 0.52051 -2.27625 0
M  V30 10361 C 974.501 1.1111 -1.28797 0
M  V30 10362 O 975.686 1.13438 -1.57625 0
M  V30 10363 C 972.816 1.67663 -3.04149 0
M  V30 10364 C 971.77 1.21487 -4.10396 0
M  V30 10365 C 971.096 2.45872 -4.74817 0
M  V30 10366 C 972.396 0.322603 -5.21303 0
M  V30 10367 H 974.09 -0.0933823 -2.99254 0
M  V30 10368 H 971.636 -0.0463526 -1.43925 0
M  V30 10369 H 973.589 2.28041 -3.54366 0
M  V30 10370 H 972.313 2.31727 -2.30153 0
M  V30 10371 H 970.972 0.633966 -3.61077 0
M  V30 10372 H 970.62 3.0832 -3.97426 0
M  V30 10373 H 970.32 2.15662 -5.46593 0
M  V30 10374 H 971.844 3.06994 -5.27814 0
M  V30 10375 H 973.258 0.832942 -5.67217 0
M  V30 10376 H 971.655 0.112843 -5.99994 0
M  V30 10377 H 972.725 -0.643954 -4.80605 0
M  V30 10378 N 974.068 1.57479 -0.061844 0
M  V30 10379 C 974.978 2.15645 0.923826 0
M  V30 10380 C 975.994 1.117 1.33413 0
M  V30 10381 O 977.17 1.4392 1.40887 0
M  V30 10382 C 974.235 2.69857 2.17665 0
M  V30 10383 C 973.296 3.88638 1.8237 0
M  V30 10384 C 972.529 4.40256 3.01679 0
M  V30 10385 O 972.752 3.90908 4.15388 0
M  V30 10386 O 971.686 5.31713 2.82073 0
M  V30 10387 H 975.512 3.0021 0.459094 0
M  V30 10388 H 973.097 1.48534 0.160665 0
M  V30 10389 H 974.979 3.04647 2.9115 0
M  V30 10390 H 973.654 1.88357 2.63255 0
M  V30 10391 H 972.561 3.58719 1.06167 0
M  V30 10392 H 973.894 4.71401 1.4157 0
M  V30 10393 N 975.546 -0.211634 1.56173 0
M  V30 10394 C 976.794 -0.932704 1.7929 0
M  V30 10395 C 977.115 -1.84472 0.632076 0
M  V30 10396 O 976.385 -1.92739 -0.350519 0
M  V30 10397 H 974.965 -0.347393 0.661307 0
M  V30 10398 H 977.627 -0.22111 1.93642 0
M  V30 10399 H 976.723 -1.53365 2.71819 0
M  V30 10400 N 977.024 -1.50153 -0.478725 0
M  V30 10401 C 977.987 -1.67916 -1.56003 0
M  V30 10402 C 978.987 -0.550111 -1.51097 0
M  V30 10403 O 980.177 -0.817001 -1.53853 0
M  V30 10404 C 977.309 -1.6973 -2.95643 0
M  V30 10405 H 978.502 -2.6438 -1.41573 0
M  V30 10406 H 976.055 -1.39519 -0.704565 0
M  V30 10407 H 976.79 -0.749306 -3.15525 0
M  V30 10408 H 976.575 -2.51745 -3.00611 0
M  V30 10409 H 978.065 -1.85453 -3.74162 0
M  V30 10410 N 978.502 0.731368 -1.39602 0
M  V30 10411 C 979.751 1.48647 -1.36334 0
M  V30 10412 C 980.064 1.95565 0.0367383 0
M  V30 10413 O 981.27 2.7082 0.192017 0
M  V30 10414 C 979.726 2.68616 -2.39528 0
M  V30 10415 C 979.334 2.28632 -3.85268 0
M  V30 10416 C 981.078 3.46422 -2.45341 0
M  V30 10417 C 978.985 3.45345 -4.80095 0
M  V30 10418 H 977.915 0.558218 -0.506861 0
M  V30 10419 H 980.566 0.797467 -1.65266 0
M  V30 10420 H 978.948 3.39609 -2.03671 0
M  V30 10421 H 980.122 1.65162 -4.30184 0
M  V30 10422 H 978.437 1.63909 -3.82783 0
M  V30 10423 H 981.034 4.33241 -3.13379 0
M  V30 10424 H 981.377 3.8914 -1.47904 0
M  V30 10425 H 981.91 2.82461 -2.80108 0
M  V30 10426 H 978.649 3.07674 -5.78807 0
M  V30 10427 H 978.169 4.07784 -4.39855 0
M  V30 10428 H 979.848 4.1163 -4.99169 0
M  V30 10429 N 979.98 1.24838 0.961938 0
M  V30 10430 C 980.89 1.06304 2.09133 0
M  V30 10431 C 981.906 0.00221475 1.74 0
M  V30 10432 O 983.082 0.201611 2.00388 0
M  V30 10433 C 980.147 0.676117 3.40043 0
M  V30 10434 C 979.208 1.81407 3.89089 0
M  V30 10435 C 978.441 1.44551 5.13752 0
M  V30 10436 O 978.664 0.337894 5.69398 0
M  V30 10437 O 977.598 2.27316 5.57325 0
M  V30 10438 H 981.424 2.01001 2.27667 0
M  V30 10439 H 979.009 1.0371 1.07539 0
M  V30 10440 H 980.891 0.472124 4.18747 0
M  V30 10441 H 979.566 -0.241667 3.22797 0
M  V30 10442 H 978.473 2.07286 3.11421 0
M  V30 10443 H 979.806 2.71083 4.10822 0
M  V30 10444 N 981.458 -1.16348 1.06306 0
M  V30 10445 C 982.391 -2.19667 0.618197 0
M  V30 10446 C 983.369 -1.58586 -0.359078 0
M  V30 10447 O 984.553 -1.86585 -0.268023 0
M  V30 10448 C 981.68 -3.3857 -0.0937091 0
M  V30 10449 C 980.726 -4.18139 0.840339 0
M  V30 10450 S 981.559 -4.81879 2.33565 0
M  V30 10451 C 982.715 -6.04161 1.63524 0
M  V30 10452 H 982.948 -2.57063 1.49352 0
M  V30 10453 H 980.481 -1.27141 0.876046 0
M  V30 10454 H 982.439 -4.07465 -0.498227 0
M  V30 10455 H 981.1 -2.9954 -0.94523 0
M  V30 10456 H 980.293 -5.03172 0.288781 0
M  V30 10457 H 979.895 -3.54739 1.18474 0
M  V30 10458 H 982.187 -6.70935 0.940904 0
M  V30 10459 H 983.13 -6.63866 2.46347 0
M  V30 10460 H 983.538 -5.53323 1.11778 0
M  V30 10461 N 982.937 -0.845659 -1.3299 0
M  V30 10462 C 984.185 -0.443774 -1.97168 0
M  V30 10463 C 984.506 1.00192 -1.67292 0
M  V30 10464 O 983.776 1.69891 -0.975397 0
M  V30 10465 H 982.356 -0.161111 -0.729419 0
M  V30 10466 H 985.018 -1.08011 -1.62233 0
M  V30 10467 H 984.114 -0.581414 -3.06637 0
M  V30 10468 N 984.415 1.45619 -0.602734 0
M  V30 10469 C 985.347 2.28662 0.157012 0
M  V30 10470 C 986.36 1.39672 0.836396 0
M  V30 10471 O 987.549 1.64091 0.702599 0
M  V30 10472 C 984.649 3.1528 1.24306 0
M  V30 10473 C 983.822 4.32517 0.651731 0
M  V30 10474 C 982.881 5.00381 1.62804 0
M  V30 10475 O 981.907 5.57333 1.15624 0
M  V30 10476 N 983.109 4.99221 2.96241 0
M  V30 10477 H 985.874 2.94506 -0.555535 0
M  V30 10478 H 983.435 1.55753 -0.441881 0
M  V30 10479 H 985.427 3.57544 1.8959 0
M  V30 10480 H 983.997 2.51376 1.85819 0
M  V30 10481 H 983.217 3.93793 -0.17907 0
M  V30 10482 H 984.505 5.08249 0.236802 0
M  V30 10483 H 983.903 4.54232 3.37179 0
M  V30 10484 H 982.46 5.45364 3.56961 0
M  V30 10485 N 985.893 0.34162 1.53853 0
M  V30 10486 C 987.142 -0.256475 2.00063 0
M  V30 10487 C 987.455 -1.51811 1.23341 0
M  V30 10488 O 988.661 -2.19332 1.60017 0
M  V30 10489 C 987.117 -0.507567 3.56303 0
M  V30 10490 C 986.725 0.738052 4.41879 0
M  V30 10491 C 988.469 -1.06463 4.10933 0
M  V30 10492 C 986.376 0.457865 5.89625 0
M  V30 10493 H 985.306 -0.0996143 0.747391 0
M  V30 10494 H 987.957 0.456649 1.77727 0
M  V30 10495 H 986.339 -1.28134 3.74697 0
M  V30 10496 H 987.513 1.51278 4.3526 0
M  V30 10497 H 985.828 1.21661 3.98231 0
M  V30 10498 H 988.425 -1.28918 5.18926 0
M  V30 10499 H 988.768 -2.01956 3.64032 0
M  V30 10500 H 989.301 -0.351601 3.96243 0
M  V30 10501 H 986.04 1.38247 6.40756 0
M  V30 10502 H 985.56 -0.278818 5.99152 0
M  V30 10503 H 987.239 0.0743914 6.46957 0
M  V30 10504 N 987.371 -1.57444 0.0701946 0
M  V30 10505 C 988.601 -1.97467 -0.607476 0
M  V30 10506 C 989.009 -0.947232 -1.63781 0
M  V30 10507 O 988.352 0.074652 -1.83548 0
M  V30 10508 C 988.414 -3.33795 -1.33495 0
M  V30 10509 C 988.078 -4.54697 -0.458265 0
M  V30 10510 C 989.075 -5.19127 0.283488 0
M  V30 10511 C 986.76 -5.00833 -0.383612 0
M  V30 10512 C 988.754 -6.28043 1.08813 0
M  V30 10513 C 986.441 -6.09622 0.424705 0
M  V30 10514 C 987.439 -6.7309 1.15925 0
M  V30 10515 O 987.127 -7.79785 1.95423 0
M  V30 10516 H 986.859 -0.654405 -0.169501 0
M  V30 10517 H 989.413 -2.04931 0.138651 0
M  V30 10518 H 987.643 -3.22941 -2.12711 0
M  V30 10519 H 989.332 -3.58435 -1.9047 0
M  V30 10520 H 990.098 -4.84428 0.235397 0
M  V30 10521 H 985.977 -4.51211 -0.944968 0
M  V30 10522 H 989.521 -6.77513 1.66197 0
M  V30 10523 H 985.418 -6.43755 0.474366 0
M  V30 10524 H 986.186 -7.96655 1.87838 0
M  V30 10525 N 988.849 0.203349 -1.56283 0
M  V30 10526 C 990.077 0.941426 -1.84241 0
M  V30 10527 C 990.492 1.77197 -0.651658 0
M  V30 10528 O 989.849 1.78506 0.379713 0
M  V30 10529 C 989.9 1.84429 -3.10915 0
M  V30 10530 O 989.621 1.04729 -4.25398 0
M  V30 10531 C 991.122 2.69474 -3.51993 0
M  V30 10532 H 988.342 0.27507 -0.612027 0
M  V30 10533 H 990.886 0.213088 -2.03387 0
M  V30 10534 H 989.041 2.52635 -2.93691 0
M  V30 10535 H 989.455 1.66179 -4.97478 0
M  V30 10536 H 990.929 3.28495 -4.43616 0
M  V30 10537 H 991.406 3.42775 -2.74594 0
M  V30 10538 H 992.012 2.06652 -3.71719 0
M  V30 10539 N 990.327 1.50405 0.470755 0
M  V30 10540 C 991.274 1.69293 1.56871 0
M  V30 10541 C 992.244 0.534248 1.57274 0
M  V30 10542 O 993.429 0.764855 1.74799 0
M  V30 10543 C 990.569 1.79338 2.94842 0
M  V30 10544 C 989.682 3.06709 3.04226 0
M  V30 10545 C 988.817 3.07548 4.33114 0
M  V30 10546 C 987.856 4.29372 4.36241 0
M  V30 10547 N 986.993 4.27949 5.56601 0
M  V30 10548 H 991.833 2.63029 1.40071 0
M  V30 10549 H 989.37 1.30386 0.681016 0
M  V30 10550 H 991.328 1.83143 3.74853 0
M  V30 10551 H 989.958 0.890411 3.10277 0
M  V30 10552 H 989.01 3.12374 2.17086 0
M  V30 10553 H 990.322 3.96684 3.02396 0
M  V30 10554 H 989.476 3.10084 5.21472 0
M  V30 10555 H 988.215 2.15404 4.37553 0
M  V30 10556 H 987.22 4.27048 3.4628 0
M  V30 10557 H 988.445 5.22743 4.33493 0
M  V30 10558 H 986.391 3.38658 5.61824 0
M  V30 10559 H 986.308 5.11692 5.56513 0
M  V30 10560 H 987.576 4.34631 6.47083 0
M  V30 10561 N 991.805 -0.723954 1.39988 0
M  V30 10562 C 992.735 -1.85103 1.42335 0
M  V30 10563 C 993.716 -1.6769 0.285297 0
M  V30 10564 O 994.901 -1.87846 0.492716 0
M  V30 10565 C 992.031 -3.22972 1.27697 0
M  V30 10566 C 990.985 -3.55041 2.39018 0
M  V30 10567 C 990.311 -4.91965 2.09462 0
M  V30 10568 C 991.611 -3.56889 3.8135 0
M  V30 10569 H 993.305 -1.83396 2.36656 0
M  V30 10570 H 990.851 -0.880926 1.13911 0
M  V30 10571 H 992.804 -4.01503 1.27958 0
M  V30 10572 H 991.528 -3.25233 0.298487 0
M  V30 10573 H 990.187 -2.78845 2.37993 0
M  V30 10574 H 989.835 -4.90819 1.10025 0
M  V30 10575 H 989.535 -5.14389 2.84038 0
M  V30 10576 H 991.059 -5.7284 2.11391 0
M  V30 10577 H 992.473 -4.25476 3.84243 0
M  V30 10578 H 990.87 -3.90836 4.55376 0
M  V30 10579 H 991.94 -2.56452 4.11534 0
M  V30 10580 N 993.283 -1.25346 -0.955304 0
M  V30 10581 C 994.23 -1.05672 -2.05188 0
M  V30 10582 C 995.2 0.0339217 -1.66065 0
M  V30 10583 O 996.385 -0.123126 -1.90402 0
M  V30 10584 C 993.525 -0.680791 -3.38318 0
M  V30 10585 C 992.638 -1.84622 -3.90562 0
M  V30 10586 C 991.773 -1.41471 -5.12015 0
M  V30 10587 C 990.812 -2.54931 -5.56486 0
M  V30 10588 N 989.949 -2.1256 -6.69151 0
M  V30 10589 H 994.789 -1.9952 -2.2135 0
M  V30 10590 H 992.326 -0.993588 -1.08472 0
M  V30 10591 H 994.284 -0.443794 -4.14833 0
M  V30 10592 H 992.914 0.2207 -3.22045 0
M  V30 10593 H 991.966 -2.19654 -3.10574 0
M  V30 10594 H 993.278 -2.6983 -4.19515 0
M  V30 10595 H 992.432 -1.13732 -5.95945 0
M  V30 10596 H 991.171 -0.533334 -4.84775 0
M  V30 10597 H 990.176 -2.83415 -4.71122 0
M  V30 10598 H 991.401 -3.43645 -5.85734 0
M  V30 10599 H 989.347 -1.26838 -6.43621 0
M  V30 10600 H 989.264 -2.91317 -6.97618 0
M  V30 10601 H 990.532 -1.87996 -7.5649 0
M  V30 10602 N 994.761 1.15782 -1.06922 0
M  V30 10603 C 995.709 2.22441 -0.679893 0
M  V30 10604 C 996.703 1.66591 0.307221 0
M  V30 10605 O 997.909 1.79182 0.171402 0
M  V30 10606 H 994.284 0.724427 -0.201765 0
M  V30 10607 H 996.255 2.52562 -1.58918 0
M  V30 10608 C 995.004 3.47586 -0.0891142 0
M  V30 10609 H 994.327 3.9088 -0.839805 0
M  V30 10610 H 995.767 4.2375 0.14569 0
M  V30 10611 C 994.226 3.15967 1.16903 0
M  V30 10612 O 994.756 3.32359 2.25611 0
M  V30 10613 N 992.962 2.70046 1.07349 0
M  V30 10614 H 992.509 2.56907 0.188825 0
M  V30 10615 H 992.467 2.49264 1.91611 0
M  V30 10616 N 996.239 0.8527 1.3254 0
M  V30 10617 C 997.202 0.300959 2.27215 0
M  V30 10618 C 998.202 -0.538235 1.51525 0
M  V30 10619 O 999.392 -0.350027 1.70647 0
M  V30 10620 C 996.524 -0.574428 3.36025 0
M  V30 10621 H 997.717 1.13655 2.77529 0
M  V30 10622 H 995.27 0.626878 1.43178 0
M  V30 10623 H 996.005 -1.43191 2.90976 0
M  V30 10624 H 995.79 0.0262265 3.92091 0
M  V30 10625 H 997.28 -0.9533 4.06573 0
M  V30 10626 N 997.718 -1.45297 0.610449 0
M  V30 10627 C 998.966 -2.01819 0.106548 0
M  V30 10628 C 999.287 -1.48102 -1.26849 0
M  V30 10629 O 998.557 -0.676411 -1.83852 0
M  V30 10630 H 997.137 -0.746113 0.0363982 0
M  V30 10631 H 999.799 -1.78061 0.792491 0
M  V30 10632 H 998.895 -3.12045 0.0585 0
M  V30 10633 N 999.196 -0.349774 -1.5367 0
M  V30 10634 C 1000.61 0.00191293 -1.596 0
M  V30 10635 C 1000.81 1.48175 -1.36552 0
M  V30 10636 O 999.868 2.24129 -1.16285 0
M  V30 10637 C 1001.18 -0.439848 -2.97466 0
M  V30 10638 C 1002.73 -0.392721 -3.10526 0
M  V30 10639 C 1003.2 -0.810047 -4.5078 0
M  V30 10640 N 1004.69 -0.764478 -4.56848 0
M  V30 10641 C 1005.43 -1.05927 -5.63531 0
M  V30 10642 N 1004.93 -1.42253 -6.78038 0
M  V30 10643 N 1006.72 -0.983098 -5.53436 0
M  V30 10644 H 998.87 -1.31364 -1.66905 0
M  V30 10645 H 1001.13 -0.535908 -0.781989 0
M  V30 10646 H 1000.84 -1.47189 -3.19419 0
M  V30 10647 H 1000.71 0.181735 -3.76762 0
M  V30 10648 H 1003.1 0.630161 -2.88293 0
M  V30 10649 H 1003.18 -1.04959 -2.33275 0
M  V30 10650 H 1002.82 -1.83097 -4.73749 0
M  V30 10651 H 1002.75 -0.130591 -5.26438 0
M  V30 10652 H 1005.25 -0.496637 -3.74622 0
M  V30 10653 H 1005.56 -1.63215 -7.55368 0
M  V30 10654 H 1003.9 -1.46104 -6.79469 0
M  V30 10655 H 1007.09 -0.698601 -4.62858 0
M  V30 10656 H 1007.27 -1.21618 -6.36485 0
M  V30 10657 N 1000.67 1.57404 -0.0785433 0
M  V30 10658 C 1002.09 1.57158 0.2781 0
M  V30 10659 C 1002.29 1.08847 1.69572 0
M  V30 10660 O 1001.35 0.757407 2.40873 0
M  V30 10661 C 1002.66 3.00589 0.0816067 0
M  V30 10662 C 1004.21 3.12637 0.150627 0
M  V30 10663 C 1004.68 4.57997 -0.0176685 0
M  V30 10664 N 1006.17 4.63185 0.0377145 0
M  V30 10665 C 1006.91 5.7336 -0.0679907 0
M  V30 10666 N 1006.4 6.92426 -0.227598 0
M  V30 10667 N 1008.2 5.62099 -0.0104424 0
M  V30 10668 H 1000.35 1.87121 -1.00496 0
M  V30 10669 H 1002.61 0.862937 -0.392484 0
M  V30 10670 H 1002.32 3.40072 -0.896869 0
M  V30 10671 H 1002.19 3.67931 0.831046 0
M  V30 10672 H 1004.58 2.73037 1.11959 0
M  V30 10673 H 1004.66 2.4792 -0.630028 0
M  V30 10674 H 1004.3 4.98288 -0.983431 0
M  V30 10675 H 1004.23 5.20754 0.782475 0
M  V30 10676 H 1006.72 3.77564 0.159208 0
M  V30 10677 H 1007.04 7.72217 -0.300217 0
M  V30 10678 H 1005.38 6.94502 -0.263049 0
M  V30 10679 H 1008.57 4.67964 0.112999 0
M  V30 10680 H 1008.75 6.47928 -0.0962747 0
M  V30 10681 N 1002.15 -0.195058 1.56388 0
M  V30 10682 C 1003.08 -1.24444 1.97575 0
M  V30 10683 C 1004.06 -1.47471 0.847717 0
M  V30 10684 O 1005.25 -1.59208 1.11205 0
M  V30 10685 C 1002.38 -2.58866 2.31529 0
M  V30 10686 C 1001.33 -2.50451 3.47071 0
M  V30 10687 C 1000.66 -3.89146 3.667 0
M  V30 10688 C 1001.96 -2.02953 4.81256 0
M  V30 10689 H 1003.65 -0.902178 2.85484 0
M  V30 10690 H 1001.2 -0.43254 1.3735 0
M  V30 10691 H 1003.15 -3.3246 2.58936 0
M  V30 10692 H 1001.87 -2.94833 1.40502 0
M  V30 10693 H 1000.53 -1.79313 3.19754 0
M  V30 10694 H 1000.18 -4.22466 2.73004 0
M  V30 10695 H 999.882 -3.84391 4.44429 0
M  V30 10696 H 1001.41 -4.64363 3.96484 0
M  V30 10697 H 1002.82 -2.66306 5.07695 0
M  V30 10698 H 1001.22 -2.092 5.62455 0
M  V30 10699 H 1002.29 -0.982757 4.74837 0
M  V30 10700 N 1003.63 -1.50653 -0.462772 0
M  V30 10701 C 1004.59 -1.69561 -1.54213 0
M  V30 10702 C 1005.59 -0.566106 -1.50505 0
M  V30 10703 O 1006.78 -0.833273 -1.52978 0
M  V30 10704 C 1003.91 -1.72856 -2.93826 0
M  V30 10705 H 1005.11 -2.65867 -1.38761 0
M  V30 10706 H 1002.66 -1.40259 -0.689728 0
M  V30 10707 H 1003.4 -0.78273 -3.14712 0
M  V30 10708 H 1003.18 -2.54919 -2.97924 0
M  V30 10709 H 1004.67 -1.89411 -3.72174 0
M  V30 10710 N 1005.11 0.71652 -1.4037 0
M  V30 10711 C 1006.06 1.8306 -1.40562 0
M  V30 10712 C 1007.03 1.64009 -0.262697 0
M  V30 10713 O 1008.21 1.85157 -0.460619 0
M  V30 10714 C 1005.35 3.2076 -1.27307 0
M  V30 10715 C 1004.46 3.51389 -2.51296 0
M  V30 10716 C 1003.6 4.78589 -2.30491 0
M  V30 10717 C 1002.64 5.02119 -3.50061 0
M  V30 10718 N 1001.77 6.20533 -3.28457 0
M  V30 10719 H 1006.61 1.82231 -2.35788 0
M  V30 10720 H 1004.15 0.890198 -1.17106 0
M  V30 10721 H 1006.11 4.00274 -1.17628 0
M  V30 10722 H 1004.74 3.2082 -0.357005 0
M  V30 10723 H 1003.79 2.66436 -2.71507 0
M  V30 10724 H 1005.1 3.64686 -3.40302 0
M  V30 10725 H 1004.26 5.66119 -2.1816 0
M  V30 10726 H 1003 4.67499 -1.38909 0
M  V30 10727 H 1002 4.13044 -3.6287 0
M  V30 10728 H 1003.23 5.15082 -4.42569 0
M  V30 10729 H 1001.17 6.10695 -2.39556 0
M  V30 10730 H 1001.09 6.34502 -4.11027 0
M  V30 10731 H 1002.36 7.10853 -3.19857 0
M  V30 10732 N 1006.59 1.25851 0.948643 0
M  V30 10733 C 1007.83 1.12166 1.70874 0
M  V30 10734 C 1008.19 -0.330734 1.8913 0
M  V30 10735 O 1009.39 -0.58954 2.62255 0
M  V30 10736 C 1007.66 1.86162 3.05088 0
M  V30 10737 S 1009.22 1.88441 3.96277 0
M  V30 10738 H 1006.04 0.400803 0.587263 0
M  V30 10739 H 1008.64 1.59463 1.13101 0
M  V30 10740 H 1007.35 2.90916 2.89476 0
M  V30 10741 H 1006.88 1.39276 3.67921 0
M  V30 10742 H 1008.89 0.96575 4.86711 0
M  V30 10743 N 1008.06 -1.15214 1.07534 0
M  V30 10744 C 1009.29 -1.90463 0.820883 0
M  V30 10745 C 1009.71 -1.77578 -0.620305 0
M  V30 10746 O 1009.07 -1.10976 -1.43366 0
M  V30 10747 C 1009.12 -3.38746 1.23627 0
M  V30 10748 O 1008.22 -4.1062 0.382715 0
M  V30 10749 H 1007.57 -0.59292 0.298901 0
M  V30 10750 H 1010.1 -1.45893 1.43445 0
M  V30 10751 H 1010.11 -3.89543 1.21327 0
M  V30 10752 H 1008.78 -3.47443 2.28596 0
M  V30 10753 H 1007.36 -3.69947 0.468374 0
M  V30 10754 N 1009.54 -0.859717 -1.32086 0
M  V30 10755 C 1010.45 -0.31108 -2.32528 0
M  V30 10756 C 1011.47 0.573714 -1.6427 0
M  V30 10757 O 1012.64 0.472878 -1.9577 0
M  V30 10758 C 1009.71 0.487256 -3.43259 0
M  V30 10759 C 1008.77 -0.424279 -4.27198 0
M  V30 10760 C 1008 0.336051 -5.32641 0
M  V30 10761 O 1008.23 1.56541 -5.48499 0
M  V30 10762 O 1007.16 -0.300777 -6.01148 0
M  V30 10763 H 1010.99 -1.14336 -2.81355 0
M  V30 10764 H 1008.57 -0.622794 -1.358 0
M  V30 10765 H 1010.45 0.940203 -4.10777 0
M  V30 10766 H 1009.13 1.29626 -2.96612 0
M  V30 10767 H 1008.04 -0.925509 -3.62471 0
M  V30 10768 H 1009.37 -1.1986 -4.77383 0
M  V30 10769 N 1011.02 1.44971 -0.618145 0
M  V30 10770 C 1012.27 2.01372 -0.115004 0
M  V30 10771 C 1012.58 1.49104 1.26599 0
M  V30 10772 O 1013.79 1.97549 1.86244 0
M  V30 10773 C 1012.24 3.59567 -0.154883 0
M  V30 10774 C 1011.85 4.20832 -1.53639 0
M  V30 10775 C 1013.6 4.23491 0.292468 0
M  V30 10776 C 1011.5 5.7121 -1.53208 0
M  V30 10777 H 1010.43 0.752979 -0.0392267 0
M  V30 10778 H 1013.08 1.66329 -0.775032 0
M  V30 10779 H 1011.47 3.91847 0.572001 0
M  V30 10780 H 1012.64 4.00109 -2.28582 0
M  V30 10781 H 1010.96 3.69143 -1.92672 0
M  V30 10782 H 1013.55 5.33771 0.315032 0
M  V30 10783 H 1013.9 3.9491 1.31725 0
M  V30 10784 H 1014.43 3.95967 -0.381493 0
M  V30 10785 H 1011.17 6.04506 -2.53481 0
M  V30 10786 H 1010.69 5.94094 -0.825387 0
M  V30 10787 H 1012.37 6.34606 -1.26032 0
M  V30 10788 N 1012.5 0.357919 1.53482 0
M  V30 10789 C 1013.73 -0.23514 2.05559 0
M  V30 10790 C 1014.14 -1.43068 1.23195 0
M  V30 10791 O 1013.5 -1.80481 0.270741 0
M  V30 10792 C 1013.55 -0.636147 3.55859 0
M  V30 10793 O 1013.27 0.511864 4.35099 0
M  V30 10794 C 1014.77 -1.28841 4.24164 0
M  V30 10795 H 1011.99 -0.0428446 0.669631 0
M  V30 10796 H 1014.54 0.51407 1.97933 0
M  V30 10797 H 1012.69 -1.33528 3.63661 0
M  V30 10798 H 1013.1 0.189328 5.24158 0
M  V30 10799 H 1014.58 -1.51962 5.30671 0
M  V30 10800 H 1015.06 -2.24638 3.77405 0
M  V30 10801 H 1015.66 -0.630914 4.20594 0
M  V30 10802 N 1013.98 -1.5736 0.0868897 0
M  V30 10803 C 1015.22 -1.94054 -0.578741 0
M  V30 10804 C 1015.55 -0.968047 -1.68698 0
M  V30 10805 O 1014.81 0.0137824 -1.95695 0
M  V30 10806 C 1015.11 -3.37316 -1.18123 0
M  V30 10807 C 1014.77 -4.50467 -0.197607 0
M  V30 10808 C 1013.43 -4.81145 0.072952 0
M  V30 10809 C 1015.79 -5.19036 0.474473 0
M  V30 10810 C 1013.11 -5.77723 1.02242 0
M  V30 10811 C 1015.47 -6.16632 1.41236 0
M  V30 10812 C 1014.13 -6.45719 1.69124 0
M  V30 10813 H 1013.4 -0.710093 -0.211776 0
M  V30 10814 H 1016.05 -1.90822 0.160978 0
M  V30 10815 H 1014.35 -3.37085 -1.99701 0
M  V30 10816 H 1016.05 -3.63003 -1.7038 0
M  V30 10817 H 1012.64 -4.2655 -0.418669 0
M  V30 10818 H 1016.82 -4.95518 0.278581 0
M  V30 10819 H 1012.08 -5.98578 1.24557 0
M  V30 10820 H 1016.25 -6.68862 1.939 0
M  V30 10821 H 1013.88 -7.20365 2.42855 0
M  V30 10822 N 1015.45 0.186762 -1.56489 0
M  V30 10823 C 1016.4 1.2357 -1.9161 0
M  V30 10824 C 1017.39 1.4058 -0.782686 0
M  V30 10825 O 1018.58 1.42811 -1.04566 0
M  V30 10826 C 1015.71 2.57865 -2.26628 0
M  V30 10827 C 1014.8 2.44613 -3.46447 0
M  V30 10828 N 1015.19 2.01052 -4.64125 0
M  V30 10829 C 1013.48 2.75483 -3.50749 0
M  V30 10830 C 1014.19 1.99891 -5.46277 0
M  V30 10831 N 1013.16 2.41711 -4.86905 0
M  V30 10832 H 1016.96 0.890359 -2.80089 0
M  V30 10833 H 1014.48 0.395144 -1.57519 0
M  V30 10834 H 1016.47 3.33642 -2.49977 0
M  V30 10835 H 1015.13 2.93215 -1.39481 0
M  V30 10836 H 1016.15 1.7163 -4.88634 0
M  V30 10837 H 1012.82 3.14974 -2.7404 0
M  V30 10838 H 1014.21 1.68042 -6.50547 0
M  V30 10839 N 1016.93 1.50896 0.454776 0
M  V30 10840 C 1018.16 1.6648 1.22849 0
M  V30 10841 C 1018.58 0.354841 1.85435 0
M  V30 10842 O 1017.93 -0.664931 1.69956 0
M  V30 10843 C 1017.98 2.76787 2.32532 0
M  V30 10844 O 1017.7 4.02706 1.72509 0
M  V30 10845 C 1019.21 3.03488 3.23125 0
M  V30 10846 H 1016.43 0.559152 0.370932 0
M  V30 10847 H 1018.97 1.97215 0.540983 0
M  V30 10848 H 1017.12 2.48701 2.9703 0
M  V30 10849 H 1017.54 4.63834 2.44863 0
M  V30 10850 H 1019.01 3.84294 3.9626 0
M  V30 10851 H 1019.49 2.152 3.82865 0
M  V30 10852 H 1020.1 3.33167 2.64347 0
M  V30 10853 N 1018.41 -0.709066 1.40748 0
M  V30 10854 C 1019.64 -1.49808 1.42707 0
M  V30 10855 C 1020.05 -1.88778 0.0285574 0
M  V30 10856 O 1019.41 -1.55883 -0.949035 0
M  V30 10857 C 1019.46 -2.76926 2.32366 0
M  V30 10858 O 1019.18 -2.39602 3.66773 0
M  V30 10859 C 1020.68 -3.70773 2.42986 0
M  V30 10860 H 1017.9 -0.462106 0.486517 0
M  V30 10861 H 1020.45 -0.874135 1.84876 0
M  V30 10862 H 1018.6 -3.3559 1.93541 0
M  V30 10863 H 1019.02 -3.21443 4.14457 0
M  V30 10864 H 1020.49 -4.56789 3.09916 0
M  V30 10865 H 1020.97 -4.14332 1.45691 0
M  V30 10866 H 1021.57 -3.18019 2.8239 0
M  V30 10867 N 1019.89 -1.26353 -0.941956 0
M  V30 10868 C 1020.84 -1.07842 -2.04056 0
M  V30 10869 C 1021.81 0.0163064 -1.66092 0
M  V30 10870 O 1022.99 -0.143313 -1.90261 0
M  V30 10871 C 1020.13 -0.716636 -3.37577 0
M  V30 10872 C 1019.24 -1.88754 -3.88582 0
M  V30 10873 C 1018.38 -1.46893 -5.10486 0
M  V30 10874 C 1017.42 -2.60819 -5.53751 0
M  V30 10875 N 1016.56 -2.19646 -6.66858 0
M  V30 10876 H 1021.4 -2.01856 -2.19221 0
M  V30 10877 H 1018.93 -1.00504 -1.07412 0
M  V30 10878 H 1020.89 -0.487768 -4.14339 0
M  V30 10879 H 1019.52 0.18653 -3.22261 0
M  V30 10880 H 1018.57 -2.22936 -3.08227 0
M  V30 10881 H 1019.88 -2.74264 -4.1663 0
M  V30 10882 H 1019.04 -1.20047 -5.94705 0
M  V30 10883 H 1017.78 -0.584721 -4.84182 0
M  V30 10884 H 1016.78 -2.88396 -4.6809 0
M  V30 10885 H 1018.01 -3.49838 -5.82057 0
M  V30 10886 H 1015.95 -1.33657 -6.4224 0
M  V30 10887 H 1015.87 -2.987 -6.94489 0
M  V30 10888 H 1017.14 -1.96009 -7.54454 0
M  V30 10889 N 1021.37 1.14642 -1.08144 0
M  V30 10890 C 1022.6 1.89484 -0.830864 0
M  V30 10891 C 1023.01 1.78443 0.616722 0
M  V30 10892 O 1022.37 1.14191 1.42361 0
M  V30 10893 C 1022.42 3.39554 -1.24039 0
M  V30 10894 O 1022.14 3.50286 -2.63119 0
M  V30 10895 C 1023.64 4.31399 -1.02029 0
M  V30 10896 H 1020.86 0.600283 -0.299835 0
M  V30 10897 H 1023.4 1.45204 -1.44001 0
M  V30 10898 H 1021.56 3.81467 -0.675407 0
M  V30 10899 H 1021.97 4.43481 -2.80045 0
M  V30 10900 H 1023.45 5.35079 -1.35625 0
M  V30 10901 H 1023.92 4.39179 0.0428697 0
M  V30 10902 H 1024.53 3.95238 -1.57057 0
M  V30 10903 N 1022.85 0.866709 1.31628 0
M  V30 10904 C 1023.78 0.335762 2.31073 0
M  V30 10905 C 1024.76 -0.571597 1.60209 0
M  V30 10906 O 1025.94 -0.489306 1.87935 0
M  V30 10907 C 1023.07 -0.466416 3.44154 0
M  V30 10908 C 1022.03 0.347561 4.26586 0
M  V30 10909 C 1021.35 -0.5801 5.31544 0
M  V30 10910 C 1022.65 1.57986 4.97833 0
M  V30 10911 H 1024.35 1.16673 2.75731 0
M  V30 10912 H 1021.89 0.56248 1.3256 0
M  V30 10913 H 1023.84 -0.84836 4.12772 0
M  V30 10914 H 1022.57 -1.33086 2.98254 0
M  V30 10915 H 1021.23 0.71141 3.59631 0
M  V30 10916 H 1020.88 -1.44174 4.81895 0
M  V30 10917 H 1020.58 -0.0393965 5.87587 0
M  V30 10918 H 1022.1 -0.958958 6.03023 0
M  V30 10919 H 1023.51 1.26954 5.59067 0
M  V30 10920 H 1021.91 2.05939 5.63657 0
M  V30 10921 H 1022.98 2.3345 4.25005 0
M  V30 10922 N 1024.32 -1.44642 0.625825 0
M  V30 10923 C 1025.73 -1.85502 0.211175 0
M  V30 10924 C 1026.09 -1.52356 -1.2362 0
M  V30 10925 O 1025.21 -0.959051 -1.93988 0
M  V30 10926 C 1025.81 -3.36702 0.37648 0
M  V30 10927 C 1024.36 -3.76396 0.0163795 0
M  V30 10928 C 1023.51 -2.68517 0.692368 0
M  V30 10929 H 1026.46 -1.35183 0.831333 0
M  V30 10930 H 1026.48 -3.78536 -0.386106 0
M  V30 10931 H 1026 -3.60795 1.42999 0
M  V30 10932 H 1024.1 -3.57919 -1.0356 0
M  V30 10933 H 1024.21 -4.77231 0.422742 0
M  V30 10934 H 1022.57 -2.54377 0.128191 0
M  V30 10935 H 1023.36 -2.95444 1.74837 0
M  V30 10936 N 1025.8 -0.366053 -1.5329 0
M  V30 10937 C 1026.73 0.523781 -2.22108 0
M  V30 10938 C 1027.71 1.08262 -1.21318 0
M  V30 10939 O 1028.9 1.13866 -1.50222 0
M  V30 10940 C 1026.02 1.72273 -2.91616 0
M  V30 10941 C 1025.07 1.29129 -4.06482 0
M  V30 10942 S 1025.9 0.292195 -5.34702 0
M  V30 10943 C 1027.06 1.49746 -6.07723 0
M  V30 10944 H 1027.29 -0.0606687 -2.97238 0
M  V30 10945 H 1024.82 -0.15016 -1.53668 0
M  V30 10946 H 1026.78 2.41045 -3.32277 0
M  V30 10947 H 1025.44 2.27843 -2.16209 0
M  V30 10948 H 1024.64 2.18583 -4.54134 0
M  V30 10949 H 1024.24 0.682783 -3.67715 0
M  V30 10950 H 1026.53 2.4284 -6.32483 0
M  V30 10951 H 1027.47 1.06232 -7.00086 0
M  V30 10952 H 1027.88 1.70373 -5.38176 0
M  V30 10953 N 1027.28 1.57312 -0.0952337 0
M  V30 10954 C 1028.21 2.11059 0.893678 0
M  V30 10955 C 1029.22 1.04787 1.24594 0
M  V30 10956 O 1030.41 1.32233 1.19903 0
M  V30 10957 C 1027.51 2.57552 2.20272 0
M  V30 10958 C 1026.69 3.87661 2.02578 0
M  V30 10959 C 1025.75 4.2 3.16996 0
M  V30 10960 O 1024.77 4.89219 2.90953 0
M  V30 10961 N 1025.97 3.75414 4.42769 0
M  V30 10962 H 1028.74 2.96532 0.434632 0
M  V30 10963 H 1026.3 1.6165 0.0898661 0
M  V30 10964 H 1028.29 2.76232 2.95766 0
M  V30 10965 H 1026.86 1.7709 2.576 0
M  V30 10966 H 1026.08 3.78128 1.11413 0
M  V30 10967 H 1027.37 4.7278 1.88032 0
M  V30 10968 H 1026.77 3.1954 4.66809 0
M  V30 10969 H 1025.32 3.99249 5.15212 0
M  V30 10970 N 1028.76 -0.17846 1.56586 0
M  V30 10971 C 1030.01 -0.894502 1.8078 0
M  V30 10972 C 1030.32 -1.8372 0.67129 0
M  V30 10973 O 1031.53 -2.59509 0.797971 0
M  V30 10974 C 1029.98 -1.64109 3.20306 0
M  V30 10975 C 1029.59 -0.742387 4.41806 0
M  V30 10976 C 1031.33 -2.34578 3.53798 0
M  V30 10977 C 1029.24 -1.4888 5.72354 0
M  V30 10978 H 1028.17 -0.33776 0.674117 0
M  V30 10979 H 1030.82 -0.14752 1.82906 0
M  V30 10980 H 1029.2 -2.43257 3.12477 0
M  V30 10981 H 1030.38 0.011615 4.60799 0
M  V30 10982 H 1028.69 -0.147705 4.16138 0
M  V30 10983 H 1031.29 -2.91004 4.48577 0
M  V30 10984 H 1031.63 -3.09572 2.78336 0
M  V30 10985 H 1032.17 -1.62381 3.63149 0
M  V30 10986 H 1028.9 -0.781325 6.50827 0
M  V30 10987 H 1028.42 -2.21631 5.57351 0
M  V30 10988 H 1030.1 -2.03819 6.14058 0
M  V30 10989 N 1030.24 -1.51135 -0.446768 0
M  V30 10990 C 1031.51 -1.5387 -1.20762 0
M  V30 10991 C 1031.89 -0.297446 -2.08994 0
M  V30 10992 O 1031.24 0.717975 -2.16927 0
M  V30 10993 C 1031.45 -2.84767 -2.01764 0
M  V30 10994 C 1032.8 -3.3636 -2.59128 0
M  V30 10995 O 1033.82 -2.86254 -2.11984 0
M  V30 10996 O 1032.68 -4.23765 -3.45088 0
M  V30 10997 H 1029.78 -0.618228 -0.549293 0
M  V30 10998 H 1032.32 -1.63442 -0.456605 0
M  V30 10999 H 1031.09 -3.6657 -1.36901 0
M  V30 11000 H 1030.72 -2.78313 -2.8395 0
M  V30 11001 N 1031.71 0.701592 -1.41122 0
M  V30 11002 C 1032.96 1.45871 -1.39879 0
M  V30 11003 C 1033.28 1.94999 -0.00668769 0
M  V30 11004 O 1032.55 1.71298 0.95047 0
M  V30 11005 H 1031.13 0.541231 -0.514857 0
M  V30 11006 H 1033.79 0.830803 -1.76306 0
M  V30 11007 H 1032.89 2.32479 -2.0823 0
M  V30 11008 N 1033.19 1.2685 0.935242 0
M  V30 11009 C 1034.1 1.10716 2.06831 0
M  V30 11010 C 1035.12 0.0391222 1.73956 0
M  V30 11011 O 1036.29 0.244071 1.99916 0
M  V30 11012 C 1033.36 0.748093 3.38533 0
M  V30 11013 C 1032.42 1.89619 3.85153 0
M  V30 11014 C 1031.65 1.55416 5.1057 0
M  V30 11015 O 1031.88 0.458596 5.68553 0
M  V30 11016 O 1030.81 2.39087 5.52378 0
M  V30 11017 H 1034.64 2.05785 2.23352 0
M  V30 11018 H 1032.22 1.05967 1.05315 0
M  V30 11019 H 1034.1 0.560841 4.17651 0
M  V30 11020 H 1032.78 -0.173142 3.23237 0
M  V30 11021 H 1031.68 2.13845 3.06954 0
M  V30 11022 H 1033.02 2.79737 4.04979 0
M  V30 11023 N 1034.67 -1.14067 1.0875 0
M  V30 11024 C 1036.08 -1.66747 0.839778 0
M  V30 11025 C 1036.43 -1.85711 -0.632909 0
M  V30 11026 O 1035.56 -1.57084 -1.48841 0
M  V30 11027 C 1036.15 -3.02896 1.51787 0
M  V30 11028 C 1034.71 -3.52596 1.3173 0
M  V30 11029 C 1033.86 -2.27994 1.57841 0
M  V30 11030 H 1036.81 -0.980838 1.24761 0
M  V30 11031 H 1036.83 -3.68526 0.947057 0
M  V30 11032 H 1036.34 -2.89062 2.58969 0
M  V30 11033 H 1034.44 -3.71647 0.266339 0
M  V30 11034 H 1034.56 -4.33151 2.04736 0
M  V30 11035 H 1032.92 -2.34241 1.00015 0
M  V30 11036 H 1033.7 -2.16732 2.66237 0
M  V30 11037 N 1036.15 -0.873678 -1.31166 0
M  V30 11038 C 1037.39 -0.496513 -1.97247 0
M  V30 11039 C 1037.75 0.941605 -1.67784 0
M  V30 11040 O 1037.04 1.65469 -0.965947 0
M  V30 11041 C 1037.24 -0.69462 -3.50585 0
M  V30 11042 C 1037.07 -2.15044 -3.94951 0
M  V30 11043 C 1035.84 -2.79278 -4.21108 0
M  V30 11044 C 1038.03 -3.1231 -4.08616 0
M  V30 11045 N 1036.02 -4.15574 -4.51853 0
M  V30 11046 C 1037.39 -4.33646 -4.43115 0
M  V30 11047 C 1039.44 -3.08251 -3.91006 0
M  V30 11048 C 1038.14 -5.51447 -4.61842 0
M  V30 11049 C 1040.17 -4.25314 -4.10929 0
M  V30 11050 C 1039.53 -5.45413 -4.45763 0
M  V30 11051 H 1035.63 -0.230797 -0.747166 0
M  V30 11052 H 1038.22 -1.12905 -1.58621 0
M  V30 11053 H 1036.39 -0.0916484 -3.88292 0
M  V30 11054 H 1038.12 -0.285475 -4.03692 0
M  V30 11055 H 1034.87 -2.30207 -4.13886 0
M  V30 11056 H 1035.3 -4.85932 -4.7138 0
M  V30 11057 H 1039.94 -2.16505 -3.6316 0
M  V30 11058 H 1037.66 -6.43707 -4.88535 0
M  V30 11059 H 1041.24 -4.2363 -3.98785 0
M  V30 11060 H 1040.12 -6.34487 -4.60865 0
M  V30 11061 N 1037.63 1.44308 -0.633487 0
M  V30 11062 C 1038.56 2.27887 0.119397 0
M  V30 11063 C 1039.54 1.38676 0.848981 0
M  V30 11064 O 1040.72 1.68116 0.85259 0
M  V30 11065 C 1037.85 3.17658 1.17521 0
M  V30 11066 C 1036.89 4.22992 0.54589 0
M  V30 11067 S 1037.73 5.31345 -0.6658 0
M  V30 11068 C 1038.88 6.24684 0.389965 0
M  V30 11069 H 1039.12 2.91394 -0.589638 0
M  V30 11070 H 1036.65 1.48529 -0.421727 0
M  V30 11071 H 1038.61 3.69929 1.77941 0
M  V30 11072 H 1037.27 2.53367 1.85645 0
M  V30 11073 H 1036.46 4.85828 1.34115 0
M  V30 11074 H 1036.06 3.73996 0.0162506 0
M  V30 11075 H 1038.36 6.65645 1.26185 0
M  V30 11076 H 1039.3 7.07809 -0.202878 0
M  V30 11077 H 1039.71 5.59929 0.716922 0
M  V30 11078 N 1039.1 0.374177 1.53094 0
M  V30 11079 C 1040.04 -0.503065 2.23611 0
M  V30 11080 C 1041.05 -1.03915 1.25321 0
M  V30 11081 O 1042.24 -0.944064 1.51492 0
M  V30 11082 C 1039.34 -1.70825 2.92698 0
M  V30 11083 C 1038.51 -1.30217 4.17567 0
M  V30 11084 C 1037.57 -2.37036 4.69788 0
M  V30 11085 O 1036.6 -1.99069 5.33254 0
M  V30 11086 N 1037.8 -3.68743 4.4834 0
M  V30 11087 H 1040.56 0.101013 2.9953 0
M  V30 11088 H 1038.12 0.199778 1.60663 0
M  V30 11089 H 1040.12 -2.41779 3.24538 0
M  V30 11090 H 1038.69 -2.219 2.2018 0
M  V30 11091 H 1037.91 -0.422121 3.91933 0
M  V30 11092 H 1039.19 -1.00728 4.9873 0
M  V30 11093 H 1038.59 -4.0236 3.97647 0
M  V30 11094 H 1037.15 -4.35776 4.84709 0
M  V30 11095 N 1040.58 -1.57259 0.103575 0
M  V30 11096 C 1041.81 -1.99 -0.566275 0
M  V30 11097 C 1042.23 -0.982909 -1.61197 0
M  V30 11098 O 1041.58 0.026345 -1.82481 0
M  V30 11099 C 1041.63 -3.40778 -1.20635 0
M  V30 11100 O 1041.35 -4.37632 -0.202472 0
M  V30 11101 C 1042.86 -3.97567 -1.961 0
M  V30 11102 H 1040.08 -0.653751 -0.151164 0
M  V30 11103 H 1042.62 -2.03658 0.185365 0
M  V30 11104 H 1040.77 -3.37107 -1.90886 0
M  V30 11105 H 1041.19 -5.2026 -0.665535 0
M  V30 11106 H 1042.66 -4.98897 -2.36233 0
M  V30 11107 H 1043.14 -3.35853 -2.83018 0
M  V30 11108 H 1043.75 -4.04737 -1.30645 0
M  V30 11109 N 1042.06 0.170153 -1.56679 0
M  V30 11110 C 1043.47 0.732502 -1.7173 0
M  V30 11111 C 1043.82 1.82736 -0.71428 0
M  V30 11112 O 1042.95 2.16044 0.124102 0
M  V30 11113 C 1043.54 1.33548 -3.11368 0
M  V30 11114 C 1042.1 1.84464 -3.281 0
M  V30 11115 C 1041.25 0.724069 -2.6768 0
M  V30 11116 H 1044.2 -0.0552543 -1.58604 0
M  V30 11117 H 1044.22 2.20519 -3.10083 0
M  V30 11118 H 1043.73 0.5384 -3.84347 0
M  V30 11119 H 1041.83 2.66813 -2.6008 0
M  V30 11120 H 1041.95 1.98928 -4.35849 0
M  V30 11121 H 1040.31 1.14481 -2.27522 0
M  V30 11122 H 1041.09 -0.0611861 -3.43245 0
M  V30 11123 N 1043.54 1.5137 0.438746 0
M  V30 11124 C 1044.78 1.65627 1.19779 0
M  V30 11125 C 1045.14 0.363885 1.8852 0
M  V30 11126 O 1046.34 0.382215 2.66069 0
M  V30 11127 C 1044.61 2.82536 2.18879 0
M  V30 11128 S 1046.17 3.17113 3.0329 0
M  V30 11129 H 1042.99 0.583535 0.406212 0
M  V30 11130 H 1045.59 1.89271 0.489582 0
M  V30 11131 H 1044.3 3.74879 1.67015 0
M  V30 11132 H 1043.83 2.61077 2.94283 0
M  V30 11133 H 1045.84 2.63439 4.20493 0
M  V30 11134 N 1045.02 -0.694098 1.41492 0
M  V30 11135 C 1046.24 -1.48286 1.44288 0
M  V30 11136 C 1046.66 -1.88737 0.0485783 0
M  V30 11137 O 1046.02 -1.56881 -0.932449 0
M  V30 11138 C 1046.07 -2.74446 2.3529 0
M  V30 11139 O 1045.79 -2.35698 3.69294 0
M  V30 11140 C 1047.29 -3.68175 2.46905 0
M  V30 11141 H 1044.51 -0.45692 0.491391 0
M  V30 11142 H 1047.05 -0.854477 1.85793 0
M  V30 11143 H 1045.21 -3.33518 1.9709 0
M  V30 11144 H 1045.62 -3.17029 4.17843 0
M  V30 11145 H 1047.1 -4.53476 3.14743 0
M  V30 11146 H 1047.57 -4.12763 1.50078 0
M  V30 11147 H 1048.18 -3.15006 2.85747 0
M  V30 11148 N 1046.49 -1.27344 -0.928501 0
M  V30 11149 C 1047.74 -1.13019 -1.67061 0
M  V30 11150 C 1048.06 0.323614 -1.92904 0
M  V30 11151 O 1049.26 0.587752 -2.65062 0
M  V30 11152 C 1047.72 -1.97471 -3.00887 0
M  V30 11153 C 1047.33 -3.47504 -2.82746 0
M  V30 11154 C 1049.07 -1.91792 -3.78703 0
M  V30 11155 C 1046.98 -4.24158 -4.12122 0
M  V30 11156 H 1045.91 -0.419364 -0.626618 0
M  V30 11157 H 1048.56 -1.51759 -1.03158 0
M  V30 11158 H 1046.94 -1.51576 -3.65843 0
M  V30 11159 H 1048.11 -4.01256 -2.26562 0
M  V30 11160 H 1046.43 -3.54554 -2.18359 0
M  V30 11161 H 1049.03 -2.46339 -4.74575 0
M  V30 11162 H 1049.37 -0.891375 -4.06645 0
M  V30 11163 H 1049.9 -2.35578 -3.20543 0
M  V30 11164 H 1046.64 -5.27333 -3.89359 0
M  V30 11165 H 1046.16 -3.75183 -4.67972 0
M  V30 11166 H 1047.84 -4.33288 -4.80489 0
M  V30 11167 N 1047.97 1.13488 -1.09353 0
M  V30 11168 C 1048.92 2.18876 -0.732251 0
M  V30 11169 C 1049.89 1.63616 0.286175 0
M  V30 11170 O 1051.07 1.90059 0.167981 0
M  V30 11171 C 1048.21 3.44737 -0.158157 0
M  V30 11172 C 1047.33 4.14104 -1.23053 0
M  V30 11173 C 1046.46 5.27578 -0.619272 0
M  V30 11174 C 1045.5 5.88793 -1.67301 0
M  V30 11175 N 1044.64 6.937 -1.08283 0
M  V30 11176 H 1049.48 2.49128 -1.63522 0
M  V30 11177 H 1047.02 1.22326 -0.816995 0
M  V30 11178 H 1048.97 4.16756 0.192488 0
M  V30 11179 H 1047.6 3.14938 0.708082 0
M  V30 11180 H 1046.66 3.40376 -1.69847 0
M  V30 11181 H 1047.97 4.55683 -2.02865 0
M  V30 11182 H 1047.12 6.0631 -0.217428 0
M  V30 11183 H 1045.86 4.87246 0.210399 0
M  V30 11184 H 1044.87 5.08756 -2.0844 0
M  V30 11185 H 1046.09 6.31197 -2.50533 0
M  V30 11186 H 1044.04 6.55426 -0.274426 0
M  V30 11187 H 1043.95 7.33817 -1.81792 0
M  V30 11188 H 1045.22 7.76286 -0.707167 0
M  V30 11189 N 1049.45 0.880621 1.30701 0
M  V30 11190 C 1050.7 0.492957 1.95583 0
M  V30 11191 C 1051.01 -0.961863 1.70316 0
M  V30 11192 O 1052.22 -1.45617 2.29146 0
M  V30 11193 C 1050.68 0.830656 3.50183 0
M  V30 11194 C 1050.28 2.30295 3.84276 0
M  V30 11195 C 1052.03 0.511979 4.21401 0
M  V30 11196 C 1049.93 2.58251 5.32034 0
M  V30 11197 H 1048.86 0.18062 0.732047 0
M  V30 11198 H 1051.52 1.075 1.48715 0
M  V30 11199 H 1049.9 0.177752 3.95601 0
M  V30 11200 H 1051.07 2.99981 3.49783 0
M  V30 11201 H 1049.39 2.58873 3.2615 0
M  V30 11202 H 1051.98 0.697935 5.30125 0
M  V30 11203 H 1052.33 -0.548327 4.12673 0
M  V30 11204 H 1052.86 1.12189 3.81652 0
M  V30 11205 H 1049.6 3.63005 5.45809 0
M  V30 11206 H 1049.12 1.9317 5.67843 0
M  V30 11207 H 1050.8 2.43527 5.99419 0
M  V30 11208 N 1050.93 -1.4397 0.641131 0
M  V30 11209 C 1052.16 -2.06303 0.157006 0
M  V30 11210 C 1052.57 -1.47981 -1.17248 0
M  V30 11211 O 1051.93 -0.606471 -1.72128 0
M  V30 11212 C 1051.98 -3.6147 0.0468425 0
M  V30 11213 O 1051.7 -4.17622 1.32376 0
M  V30 11214 C 1053.2 -4.40857 -0.464795 0
M  V30 11215 H 1050.42 -0.665684 0.0842946 0
M  V30 11216 H 1052.97 -1.84675 0.878363 0
M  V30 11217 H 1051.12 -3.82325 -0.625006 0
M  V30 11218 H 1051.54 -5.11167 1.17509 0
M  V30 11219 H 1053.01 -5.49813 -0.490862 0
M  V30 11220 H 1053.49 -4.13016 -1.4938 0
M  V30 11221 H 1054.09 -4.24943 0.174146 0
M  V30 11222 N 1052.41 -0.382291 -1.52893 0
M  V30 11223 C 1053.36 0.473026 -2.23039 0
M  V30 11224 C 1054.34 1.0353 -1.23168 0
M  V30 11225 O 1055.53 0.962566 -1.48538 0
M  V30 11226 C 1052.66 1.60349 -3.03551 0
M  V30 11227 C 1051.75 1.05329 -4.10812 0
M  V30 11228 N 1052.14 0.22746 -5.05288 0
M  V30 11229 C 1050.44 1.32648 -4.25818 0
M  V30 11230 C 1051.14 -0.0757032 -5.81651 0
M  V30 11231 N 1050.11 0.526387 -5.41045 0
M  V30 11232 H 1053.92 -0.164541 -2.93439 0
M  V30 11233 H 1051.43 -0.191211 -1.6127 0
M  V30 11234 H 1053.43 2.22858 -3.52335 0
M  V30 11235 H 1052.09 2.24394 -2.34685 0
M  V30 11236 H 1053.1 -0.134714 -5.17725 0
M  V30 11237 H 1049.78 1.96849 -3.6818 0
M  V30 11238 H 1051.17 -0.744375 -6.67764 0
M  V30 11239 N 1053.89 1.57202 -0.111913 0
M  V30 11240 C 1054.83 2.14936 0.840908 0
M  V30 11241 C 1055.8 1.07242 1.2684 0
M  V30 11242 O 1056.99 1.35114 1.34718 0
M  V30 11243 C 1054.13 2.74743 2.0883 0
M  V30 11244 C 1053.24 3.96723 1.70982 0
M  V30 11245 C 1052.38 4.4464 2.90634 0
M  V30 11246 C 1051.41 5.59169 2.48992 0
M  V30 11247 N 1050.55 6.01862 3.61534 0
M  V30 11248 H 1055.39 2.96034 0.341735 0
M  V30 11249 H 1052.93 1.4626 0.156993 0
M  V30 11250 H 1054.89 3.07546 2.81907 0
M  V30 11251 H 1053.52 1.96346 2.56218 0
M  V30 11252 H 1052.57 3.70127 0.878072 0
M  V30 11253 H 1053.88 4.79795 1.36373 0
M  V30 11254 H 1053.03 4.79315 3.71944 0
M  V30 11255 H 1051.77 3.60503 3.28464 0
M  V30 11256 H 1050.78 5.24106 1.66113 0
M  V30 11257 H 1052 6.45067 2.12287 0
M  V30 11258 H 1049.95 5.20667 3.99051 0
M  V30 11259 H 1049.87 6.79772 3.30827 0
M  V30 11260 H 1051.13 6.41172 4.43305 0
M  V30 11261 N 1055.36 -0.161842 1.56767 0
M  V30 11262 C 1056.31 -1.21948 1.98069 0
M  V30 11263 C 1057.31 -1.45303 0.870835 0
M  V30 11264 O 1058.51 -1.45771 1.05598 0
M  V30 11265 H 1054.89 -0.410145 0.630306 0
M  V30 11266 H 1056.86 -0.844336 2.86205 0
M  V30 11267 C 1055.61 -2.549 2.36477 0
M  V30 11268 H 1054.93 -2.37755 3.21423 0
M  V30 11269 H 1056.37 -3.27568 2.69212 0
M  V30 11270 C 1054.83 -3.14353 1.21176 0
M  V30 11271 O 1055.36 -3.98519 0.504499 0
M  V30 11272 N 1053.56 -2.73582 0.979855 0
M  V30 11273 H 1053.11 -2.05239 1.55675 0
M  V30 11274 H 1053.07 -3.13696 0.21025 0
M  V30 11275 N 1056.84 -1.516 -0.430713 0
M  V30 11276 C 1057.77 -1.69594 -1.54177 0
M  V30 11277 C 1058.79 -0.576518 -1.5225 0
M  V30 11278 O 1059.98 -0.85104 -1.56906 0
M  V30 11279 C 1057.08 -1.70148 -2.93092 0
M  V30 11280 C 1056.25 -2.98782 -3.1945 0
M  V30 11281 C 1055.31 -2.91435 -4.38123 0
M  V30 11282 O 1054.33 -3.65372 -4.36454 0
M  V30 11283 N 1055.54 -2.0774 -5.42056 0
M  V30 11284 H 1058.3 -2.65442 -1.39143 0
M  V30 11285 H 1055.86 -1.49569 -0.61974 0
M  V30 11286 H 1057.85 -1.62793 -3.70514 0
M  V30 11287 H 1056.42 -0.818667 -3.0169 0
M  V30 11288 H 1055.64 -3.19954 -2.30267 0
M  V30 11289 H 1056.93 -3.83919 -3.33892 0
M  V30 11290 H 1056.33 -1.47059 -5.46251 0
M  V30 11291 H 1054.89 -2.06259 -6.18305 0
M  V30 11292 N 1058.32 0.686584 -1.41858 0
M  V30 11293 C 1059.25 1.81107 -1.38836 0
M  V30 11294 C 1060.23 1.60599 -0.254293 0
M  V30 11295 O 1061.41 1.83229 -0.442641 0
M  V30 11296 C 1058.54 3.17928 -1.16787 0
M  V30 11297 C 1057.59 3.5721 -2.33031 0
M  V30 11298 S 1058.42 3.60986 -3.95536 0
M  V30 11299 C 1059.58 5.00519 -3.75808 0
M  V30 11300 H 1059.81 1.83396 -2.33994 0
M  V30 11301 H 1057.34 0.856146 -1.28489 0
M  V30 11302 H 1059.3 3.9691 -1.04752 0
M  V30 11303 H 1057.96 3.1324 -0.232335 0
M  V30 11304 H 1057.15 4.56629 -2.13321 0
M  V30 11305 H 1056.76 2.8556 -2.41519 0
M  V30 11306 H 1059.05 5.88272 -3.36069 0
M  V30 11307 H 1059.99 5.25273 -4.74862 0
M  V30 11308 H 1060.4 4.72481 -3.08904 0
M  V30 11309 N 1059.8 1.27835 0.921735 0
M  V30 11310 C 1061.21 1.13151 1.48505 0
M  V30 11311 C 1061.56 -0.281373 1.94172 0
M  V30 11312 O 1060.68 -1.17487 1.8173 0
M  V30 11313 C 1061.28 2.04792 2.69899 0
M  V30 11314 C 1059.84 1.94196 3.22436 0
M  V30 11315 C 1058.99 1.96999 1.95158 0
M  V30 11316 H 1061.94 1.40641 0.735241 0
M  V30 11317 H 1061.96 1.60724 3.44889 0
M  V30 11318 H 1061.47 3.07615 2.36631 0
M  V30 11319 H 1059.57 0.943805 3.60448 0
M  V30 11320 H 1059.68 2.80744 3.88226 0
M  V30 11321 H 1058.05 1.41301 2.11911 0
M  V30 11322 H 1058.83 3.01487 1.64196 0
M  V30 11323 N 1061.28 -1.12907 1.09954 0
M  V30 11324 C 1062.21 -2.17589 0.687769 0
M  V30 11325 C 1063.19 -1.59648 -0.308444 0
M  V30 11326 O 1064.37 -1.87343 -0.208527 0
M  V30 11327 C 1061.5 -3.38697 0.0140519 0
M  V30 11328 C 1060.54 -4.15254 0.972942 0
M  V30 11329 S 1061.38 -4.74205 2.48777 0
M  V30 11330 C 1062.53 -5.98653 1.82662 0
M  V30 11331 H 1062.77 -2.52181 1.57455 0
M  V30 11332 H 1060.3 -1.24289 0.916051 0
M  V30 11333 H 1062.26 -4.08844 -0.368343 0
M  V30 11334 H 1060.92 -3.02396 -0.849456 0
M  V30 11335 H 1060.11 -5.01999 0.448715 0
M  V30 11336 H 1059.71 -3.5079 1.297 0
M  V30 11337 H 1062 -6.67602 1.15388 0
M  V30 11338 H 1062.95 -6.55693 2.67343 0
M  V30 11339 H 1063.36 -5.49486 1.29325 0
M  V30 11340 N 1062.75 -0.88754 -1.30232 0
M  V30 11341 C 1063.68 -0.372481 -2.3051 0
M  V30 11342 C 1064.66 0.546037 -1.61098 0
M  V30 11343 O 1065.85 0.459345 -1.88689 0
M  V30 11344 C 1062.98 0.411605 -3.44852 0
M  V30 11345 C 1061.93 -0.415383 -4.2598 0
M  V30 11346 C 1061.26 0.495463 -5.324 0
M  V30 11347 C 1062.56 -1.65886 -4.95257 0
M  V30 11348 H 1064.25 -1.21045 -2.7384 0
M  V30 11349 H 1061.8 -0.583498 -1.31648 0
M  V30 11350 H 1063.75 0.782584 -4.1407 0
M  V30 11351 H 1062.48 1.28325 -3.00334 0
M  V30 11352 H 1061.14 -0.768534 -3.58454 0
M  V30 11353 H 1060.78 1.36489 -4.84128 0
M  V30 11354 H 1060.48 -0.0540885 -5.87575 0
M  V30 11355 H 1062.01 0.862901 -6.04472 0
M  V30 11356 H 1063.42 -1.35832 -5.56976 0
M  V30 11357 H 1061.82 -2.14881 -5.60309 0
M  V30 11358 H 1062.89 -2.40181 -4.21237 0
M  V30 11359 N 1064.23 1.43628 -0.648757 0
M  V30 11360 C 1065.17 2.28001 0.0952198 0
M  V30 11361 C 1066.14 1.39569 0.834225 0
M  V30 11362 O 1067.33 1.69011 0.834711 0
M  V30 11363 C 1064.45 3.18886 1.14145 0
M  V30 11364 C 1063.5 4.23547 0.500996 0
M  V30 11365 S 1064.33 5.30609 -0.722118 0
M  V30 11366 C 1065.49 6.25062 0.323687 0
M  V30 11367 H 1065.72 2.90752 -0.620511 0
M  V30 11368 H 1063.26 1.48073 -0.437457 0
M  V30 11369 H 1065.21 3.71795 1.74008 0
M  V30 11370 H 1063.87 2.55322 1.82947 0
M  V30 11371 H 1063.07 4.87224 1.28954 0
M  V30 11372 H 1062.67 3.73993 -0.0234176 0
M  V30 11373 H 1064.96 6.66946 1.19118 0
M  V30 11374 H 1065.9 7.07554 -0.277939 0
M  V30 11375 H 1066.31 5.60658 0.657493 0
M  V30 11376 N 1065.71 0.390394 1.52688 0
M  V30 11377 C 1066.96 -0.191067 2.01195 0
M  V30 11378 C 1067.28 -1.47229 1.27862 0
M  V30 11379 O 1066.55 -1.91793 0.399007 0
M  V30 11380 H 1065.13 -0.073596 0.743366 0
M  V30 11381 H 1067.79 0.522334 1.8777 0
M  V30 11382 H 1066.89 -0.40051 3.0952 0
M  V30 11383 N 1067.19 -1.57141 0.120249 0
M  V30 11384 C 1068.6 -1.82256 -0.404931 0
M  V30 11385 C 1068.95 -1.03748 -1.66526 0
M  V30 11386 O 1068.08 -0.274456 -2.14653 0
M  V30 11387 C 1068.67 -3.30588 -0.741431 0
M  V30 11388 C 1067.23 -3.56379 -1.21124 0
M  V30 11389 C 1066.38 -2.76421 -0.220569 0
M  V30 11390 H 1069.33 -1.54897 0.345361 0
M  V30 11391 H 1069.35 -3.45284 -1.59872 0
M  V30 11392 H 1068.86 -3.87701 0.176036 0
M  V30 11393 H 1066.96 -3.04625 -2.14556 0
M  V30 11394 H 1067.07 -4.64952 -1.1557 0
M  V30 11395 H 1065.44 -2.44666 -0.707857 0
M  V30 11396 H 1066.22 -3.36294 0.690018 0
M  V30 11397 N 1068.67 0.153526 -1.5685 0
M  V30 11398 C 1070.08 0.714247 -1.72498 0
M  V30 11399 C 1070.43 1.81968 -0.733621 0
M  V30 11400 O 1069.55 2.16163 0.10118 0
M  V30 11401 C 1070.15 1.30238 -3.12767 0
M  V30 11402 C 1068.71 1.80974 -3.30038 0
M  V30 11403 C 1067.85 0.695638 -2.68433 0
M  V30 11404 H 1070.81 -0.0720733 -1.58536 0
M  V30 11405 H 1070.83 2.17217 -3.12405 0
M  V30 11406 H 1070.34 0.497605 -3.84897 0
M  V30 11407 H 1068.44 2.64039 -2.62895 0
M  V30 11408 H 1068.55 1.94294 -4.37934 0
M  V30 11409 H 1066.92 1.12061 -2.28723 0
M  V30 11410 H 1067.7 -0.0975885 -3.43161 0
M  V30 11411 N 1070.14 1.51827 0.422667 0
M  V30 11412 C 1071.56 1.57533 1.00201 0
M  V30 11413 C 1071.91 0.407623 1.91919 0
M  V30 11414 O 1071.03 -0.473763 2.1115 0
M  V30 11415 C 1071.63 2.85508 1.82403 0
M  V30 11416 C 1070.19 2.93737 2.35362 0
M  V30 11417 C 1069.33 2.52343 1.14971 0
M  V30 11418 H 1072.28 1.57391 0.20339 0
M  V30 11419 H 1072.3 2.70097 2.68007 0
M  V30 11420 H 1071.82 3.70477 1.15623 0
M  V30 11421 H 1069.92 2.13231 3.05554 0
M  V30 11422 H 1070.03 3.977 2.67155 0
M  V30 11423 H 1068.39 2.05878 1.49955 0
M  V30 11424 H 1069.18 3.39672 0.497786 0
M  V30 11425 N 1071.62 -0.679052 1.4222 0
M  V30 11426 C 1073.04 -0.991665 1.25053 0
M  V30 11427 C 1073.24 -2.00928 0.151665 0
M  V30 11428 O 1072.29 -2.47925 -0.478507 0
M  V30 11429 C 1073.61 -1.50053 2.60585 0
M  V30 11430 C 1075.16 -1.61852 2.67905 0
M  V30 11431 C 1075.63 -2.16135 4.03794 0
M  V30 11432 N 1077.12 -2.23474 4.05726 0
M  V30 11433 C 1077.86 -2.66541 5.07685 0
M  V30 11434 N 1077.35 -3.09092 6.20028 0
M  V30 11435 N 1079.15 -2.66252 4.95042 0
M  V30 11436 H 1071.3 -0.00521851 2.12399 0
M  V30 11437 H 1073.56 -0.0648465 0.94578 0
M  V30 11438 H 1073.27 -0.82731 3.41831 0
M  V30 11439 H 1073.14 -2.47998 2.84213 0
M  V30 11440 H 1075.53 -2.28281 1.87008 0
M  V30 11441 H 1075.61 -0.624074 2.4807 0
M  V30 11442 H 1075.25 -1.50316 4.85147 0
M  V30 11443 H 1075.18 -3.16363 4.20978 0
M  V30 11444 H 1077.67 -1.93467 3.24621 0
M  V30 11445 H 1077.99 -3.40627 6.93681 0
M  V30 11446 H 1076.33 -3.06959 6.23539 0
M  V30 11447 H 1079.52 -2.32369 4.06352 0
M  V30 11448 H 1079.69 -2.99496 5.74636 0
M  V30 11449 N 1073.1 -1.28322 -0.914942 0
M  V30 11450 C 1074.33 -1.1837 -1.70304 0
M  V30 11451 C 1074.75 0.254291 -1.86373 0
M  V30 11452 O 1074.11 1.18398 -1.37301 0
M  V30 11453 C 1074.16 -1.88603 -3.07346 0
M  V30 11454 O 1073.26 -1.19268 -3.94777 0
M  V30 11455 H 1072.6 -0.410978 -0.52153 0
M  V30 11456 H 1075.13 -1.69622 -1.14409 0
M  V30 11457 H 1075.14 -1.96463 -3.57584 0
M  V30 11458 H 1073.82 -2.93201 -2.94967 0
M  V30 11459 H 1072.39 -1.19563 -3.53212 0
M  V30 11460 N 1074.58 1.12322 -1.10551 0
M  V30 11461 C 1075.81 1.87679 -0.87087 0
M  V30 11462 C 1076.22 1.79711 0.578733 0
M  V30 11463 O 1075.58 1.17185 1.39907 0
M  V30 11464 C 1075.63 3.36846 -1.31213 0
M  V30 11465 O 1075.35 3.44626 -2.70489 0
M  V30 11466 C 1076.85 4.29138 -1.11156 0
M  V30 11467 H 1074.07 0.593788 -0.3125 0
M  V30 11468 H 1076.62 1.42116 -1.47048 0
M  V30 11469 H 1074.77 3.79948 -0.756169 0
M  V30 11470 H 1075.18 4.37441 -2.89389 0
M  V30 11471 H 1076.66 5.32082 -1.46944 0
M  V30 11472 H 1077.14 4.39171 -0.0502963 0
M  V30 11473 H 1077.74 3.91818 -1.65405 0
M  V30 11474 N 1076.06 0.894434 1.2976 0
M  V30 11475 C 1077 0.357958 2.29829 0
M  V30 11476 C 1078 -0.540093 1.6056 0
M  V30 11477 O 1079.2 -0.423478 1.74948 0
M  V30 11478 H 1075.58 0.0971183 0.745702 0
M  V30 11479 H 1077.55 1.21542 2.72526 0
M  V30 11480 C 1076.3 -0.404126 3.45343 0
M  V30 11481 H 1075.62 0.277671 3.98835 0
M  V30 11482 H 1077.06 -0.744446 4.17413 0
M  V30 11483 C 1075.52 -1.6048 2.96222 0
M  V30 11484 O 1076.05 -2.70414 2.97051 0
M  V30 11485 N 1074.26 -1.44517 2.52117 0
M  V30 11486 H 1073.8 -0.55082 2.51642 0
M  V30 11487 H 1073.76 -2.24987 2.1961 0
M  V30 11488 N 1077.53 -1.43282 0.656365 0
M  V30 11489 C 1078.78 -2.01776 0.171039 0
M  V30 11490 C 1079.11 -1.51795 -1.21609 0
M  V30 11491 O 1078.36 -0.702864 -1.82643 0
M  V30 11492 C 1078.66 -3.57148 0.134225 0
M  V30 11493 C 1078.33 -4.26488 1.46352 0
M  V30 11494 C 1076.99 -4.45146 1.82753 0
M  V30 11495 C 1079.34 -4.65728 2.33981 0
M  V30 11496 C 1076.67 -5.0031 3.06443 0
M  V30 11497 C 1079.02 -5.22263 3.56966 0
M  V30 11498 C 1077.69 -5.39136 3.93559 0
M  V30 11499 H 1076.96 -0.738352 0.0625878 0
M  V30 11500 H 1079.6 -1.71716 0.847697 0
M  V30 11501 H 1077.91 -3.86768 -0.625892 0
M  V30 11502 H 1079.61 -4.00168 -0.258207 0
M  V30 11503 H 1076.2 -4.12313 1.1703 0
M  V30 11504 H 1080.38 -4.51003 2.07148 0
M  V30 11505 H 1075.64 -5.11559 3.34839 0
M  V30 11506 H 1079.81 -5.51614 4.25082 0
M  V30 11507 H 1077.44 -5.81646 4.89481 0
M  V30 11508 N 1079.01 -0.398486 -1.52479 0
M  V30 11509 C 1080.26 0.180752 -2.01692 0
M  V30 11510 C 1080.59 1.46044 -1.28457 0
M  V30 11511 O 1079.84 1.92051 -0.376162 0
M  V30 11512 C 1080.14 0.485909 -3.54081 0
M  V30 11513 C 1079.81 -0.703321 -4.45381 0
M  V30 11514 C 1078.47 -1.02955 -4.70057 0
M  V30 11515 C 1080.82 -1.49848 -4.99194 0
M  V30 11516 C 1078.15 -2.15231 -5.45795 0
M  V30 11517 C 1080.5 -2.61192 -5.76161 0
M  V30 11518 C 1079.17 -2.94313 -5.99113 0
M  V30 11519 H 1078.44 0.0661417 -0.738042 0
M  V30 11520 H 1081.08 -0.53772 -1.83796 0
M  V30 11521 H 1079.39 1.28582 -3.701 0
M  V30 11522 H 1081.09 0.946872 -3.89661 0
M  V30 11523 H 1077.68 -0.439062 -4.26345 0
M  V30 11524 H 1081.86 -1.25968 -4.80048 0
M  V30 11525 H 1077.12 -2.41252 -5.61789 0
M  V30 11526 H 1081.29 -3.23201 -6.16858 0
M  V30 11527 H 1078.92 -3.81431 -6.57583 0
M  V30 11528 N 1080.49 1.57075 -0.12858 0
M  V30 11529 C 1081.74 1.95134 0.526046 0
M  V30 11530 C 1082.06 1.01337 1.66601 0
M  V30 11531 O 1081.33 0.0714361 1.9577 0
M  V30 11532 H 1079.91 0.720468 0.19732 0
M  V30 11533 H 1082.57 1.93874 -0.199767 0
M  V30 11534 H 1081.67 2.98406 0.914332 0
M  V30 11535 N 1081.97 -0.145205 1.5693 0
M  V30 11536 C 1083.22 -0.857516 1.83447 0
M  V30 11537 C 1083.54 -1.81088 0.709739 0
M  V30 11538 O 1082.8 -1.9337 -0.301097 0
M  V30 11539 C 1083.1 -1.66391 3.16305 0
M  V30 11540 C 1082.76 -0.857171 4.42678 0
M  V30 11541 C 1081.43 -0.634611 4.76997 0
M  V30 11542 C 1083.78 -0.293105 5.20375 0
M  V30 11543 C 1081.11 0.162693 5.86474 0
M  V30 11544 C 1083.46 0.491248 6.3069 0
M  V30 11545 C 1082.12 0.724368 6.63558 0
M  V30 11546 H 1081.39 -0.313787 0.671281 0
M  V30 11547 H 1084.04 -0.121074 1.91117 0
M  V30 11548 H 1082.34 -2.47051 3.04094 0
M  V30 11549 H 1084.04 -2.21855 3.34038 0
M  V30 11550 H 1080.63 -1.0407 4.15773 0
M  V30 11551 H 1084.82 -0.452326 4.94234 0
M  V30 11552 H 1080.07 0.352788 6.10381 0
M  V30 11553 H 1084.25 0.935449 6.90089 0
M  V30 11554 H 1081.87 1.34403 7.48224 0
M  V30 11555 N 1083.45 -1.52049 -0.414609 0
M  V30 11556 C 1084.38 -1.77956 -1.51175 0
M  V30 11557 C 1085.36 -0.630282 -1.57992 0
M  V30 11558 O 1086.54 -0.875324 -1.73354 0
M  V30 11559 C 1083.67 -1.92527 -2.89051 0
M  V30 11560 C 1082.63 -3.08096 -2.97087 0
M  V30 11561 C 1081.95 -3.07882 -4.37164 0
M  V30 11562 C 1083.25 -4.47656 -2.69075 0
M  V30 11563 H 1084.95 -2.69827 -1.29746 0
M  V30 11564 H 1082.49 -1.29839 -0.62273 0
M  V30 11565 H 1084.45 -2.09234 -3.65786 0
M  V30 11566 H 1083.17 -0.973235 -3.11762 0
M  V30 11567 H 1081.83 -2.91131 -2.22797 0
M  V30 11568 H 1081.48 -2.10411 -4.56877 0
M  V30 11569 H 1081.18 -3.85501 -4.43467 0
M  V30 11570 H 1082.7 -3.26712 -5.15841 0
M  V30 11571 H 1084.12 -4.64855 -3.35534 0
M  V30 11572 H 1082.51 -5.27151 -2.8676 0
M  V30 11573 H 1083.58 -4.56129 -1.64544 0
M  V30 11574 N 1084.93 0.6715 -1.42579 0
M  V30 11575 C 1086.15 1.46471 -1.46836 0
M  V30 11576 C 1086.58 1.87921 -0.0820658 0
M  V30 11577 O 1085.93 1.5621 0.920217 0
M  V30 11578 C 1085.98 2.68796 -2.40377 0
M  V30 11579 O 1085.09 3.67188 -1.87741 0
M  V30 11580 H 1084.43 0.439901 -0.497376 0
M  V30 11581 H 1086.96 0.823342 -1.87303 0
M  V30 11582 H 1086.97 3.16828 -2.57068 0
M  V30 11583 H 1085.64 2.37967 -3.41093 0
M  V30 11584 H 1084.22 3.26237 -1.80621 0
M  V30 11585 O 1086.44 1.39477 0.814146 0
M  V30 11586 H 1087.13 1.27495 1.45824 0
M  V30 END ATOM
M  V30 BEGIN BOND
M  V30 END BOND
M  V30 END CTAB
M  END
$$$$
