drugbank_target|P23837 Sensor protein PhoQ (DB04395)
 OpenBabel12092120293D

  0  0  0     0  0            999 V3000
M  V30 BEGIN CTAB
M  V30 COUNTS 7833 7908 0 0 0
M  V30 BEGIN ATOM
M  V30 1 H -0.908 1.98254 -0.117106 0
M  V30 2 N 0 1.576 0 0
M  V30 3 C 0.933 2.03868 1.02534 0
M  V30 4 C 1.911 0.928543 1.3348 0
M  V30 5 O 3.095 1.19667 1.45644 0
M  V30 6 C 0.222 2.43627 2.35294 0
M  V30 7 C -0.732 3.65373 2.2001 0
M  V30 8 S 0.101 5.13292 1.52614 0
M  V30 9 C 1.257 5.56322 2.86805 0
M  V30 10 H 1.49 2.90518 0.631377 0
M  V30 11 H -0.977 1.52953 0.210867 0
M  V30 12 H 0.981 2.67203 3.11629 0
M  V30 13 H -0.358 1.57376 2.7183 0
M  V30 14 H -1.165 3.90944 3.18086 0
M  V30 15 H -1.563 3.418 1.51819 0
M  V30 16 H 0.729 5.58782 3.83104 0
M  V30 17 H 1.672 6.56266 2.65933 0
M  V30 18 H 2.08 4.83886 2.90714 0
M  V30 19 N 1.4781 -0.272755 1.55222 0
M  V30 20 C 2.4251 -1.33716 1.88119 0
M  V30 21 C 3.3951 -1.49066 0.73271 0
M  V30 22 O 4.5801 -1.63469 0.984002 0
M  V30 23 C 1.7201 -2.69238 2.15882 0
M  V30 24 C 0.8331 -2.62108 3.43399 0
M  V30 25 C -0.0319 -3.89811 3.60861 0
M  V30 26 C -0.9929 -3.77193 4.8207 0
M  V30 27 N -1.8559 -4.9673 4.96189 0
M  V30 28 H 2.9841 -1.04962 2.78903 0
M  V30 29 H 0.5211 -0.507088 1.38083 0
M  V30 30 H 2.4791 -3.48089 2.29978 0
M  V30 31 H 1.1091 -2.96194 1.28331 0
M  V30 32 H 0.1611 -1.74967 3.37773 0
M  V30 33 H 1.4731 -2.48685 4.32386 0
M  V30 34 H 0.6271 -4.77103 3.74777 0
M  V30 35 H -0.6339 -4.06102 2.7006 0
M  V30 36 H -1.6289 -2.88284 4.68159 0
M  V30 37 H -0.4039 -3.62421 5.74307 0
M  V30 38 H -2.4579 -5.13431 4.08319 0
M  V30 39 H -2.5409 -4.85839 5.79221 0
M  V30 40 H -1.2729 -5.85594 5.1449 0
M  V30 41 N 2.9562 -1.48159 -0.537278 0
M  V30 42 C 3.9032 -1.62138 -1.64256 0
M  V30 43 C 4.8732 -0.463668 -1.59497 0
M  V30 44 O 6.0582 -0.686241 -1.78032 0
M  V30 45 C 3.1982 -1.66028 -3.02537 0
M  V30 46 C 2.3112 -2.92855 -3.17585 0
M  V30 47 C 1.4462 -2.87952 -4.46382 0
M  V30 48 C 0.4852 -4.09516 -4.54932 0
M  V30 49 N -0.3778 -4.02733 -5.75109 0
M  V30 50 H 4.4622 -2.56529 -1.51647 0
M  V30 51 H 1.9992 -1.27224 -0.738414 0
M  V30 52 H 3.9572 -1.66265 -3.82638 0
M  V30 53 H 2.5872 -0.751331 -3.13934 0
M  V30 54 H 1.6392 -3.02395 -2.30784 0
M  V30 55 H 2.9512 -3.82822 -3.19764 0
M  V30 56 H 2.1052 -2.8655 -5.34765 0
M  V30 57 H 0.8442 -1.95702 -4.46712 0
M  V30 58 H -0.1508 -4.11201 -3.64957 0
M  V30 59 H 1.0742 -5.02917 -4.56346 0
M  V30 60 H -0.9798 -3.13299 -5.76351 0
M  V30 61 H -1.0628 -4.86397 -5.78752 0
M  V30 62 H 0.2052 -4.05379 -6.65799 0
M  V30 63 N 4.4343 0.785586 -1.36625 0
M  V30 64 C 5.3643 1.91259 -1.33949 0
M  V30 65 C 6.3453 1.68795 -0.210325 0
M  V30 66 O 7.5303 1.89854 -0.408561 0
M  V30 67 C 4.6603 3.28339 -1.13186 0
M  V30 68 C 3.6143 3.65335 -2.22967 0
M  V30 69 C 2.9403 5.00806 -1.87342 0
M  V30 70 C 4.2403 3.7352 -3.65075 0
M  V30 71 H 5.9343 1.93755 -2.28253 0
M  V30 72 H 3.4803 0.930788 -1.09874 0
M  V30 73 H 5.4333 4.06804 -1.09948 0
M  V30 74 H 4.1573 3.2624 -0.153332 0
M  V30 75 H 2.8163 2.89169 -2.25337 0
M  V30 76 H 2.4643 4.95233 -0.880545 0
M  V30 77 H 2.1643 5.26529 -2.60846 0
M  V30 78 H 3.6883 5.81687 -1.85667 0
M  V30 79 H 5.1023 4.42168 -3.64911 0
M  V30 80 H 3.4993 4.10731 -4.37516 0
M  V30 81 H 4.5693 2.74527 -3.99703 0
M  V30 82 N 5.9124 1.20967 1.01018 0
M  V30 83 C 6.8424 0.988272 2.11555 0
M  V30 84 C 7.8234 -0.0849778 1.69888 0
M  V30 85 O 9.0084 0.0738202 1.9406 0
M  V30 86 C 6.1384 0.546528 3.42973 0
M  V30 87 C 5.0924 1.56375 3.9841 0
M  V30 88 C 4.4184 0.97842 5.25672 0
M  V30 89 C 5.7184 2.94922 4.31066 0
M  V30 90 H 7.4124 1.91276 2.30334 0
M  V30 91 H 4.9584 0.921073 1.1069 0
M  V30 92 H 6.9114 0.378839 4.19694 0
M  V30 93 H 5.6354 -0.413598 3.23971 0
M  V30 94 H 4.2944 1.71891 3.23804 0
M  V30 95 H 3.9424 0.0101688 5.02999 0
M  V30 96 H 3.6424 1.65784 5.63728 0
M  V30 97 H 5.1664 0.821939 6.05043 0
M  V30 98 H 6.5804 2.8288 4.9865 0
M  V30 99 H 4.9774 3.5983 4.80253 0
M  V30 100 H 6.0474 3.4616 3.39561 0
M  V30 101 N 7.3905 -1.2043 1.01659 0
M  V30 102 C 8.8065 -1.41852 0.731442 0
M  V30 103 C 9.0065 -1.89358 -0.688898 0
M  V30 104 O 8.0625 -2.06247 -1.45666 0
M  V30 105 C 9.3755 -2.44019 1.75714 0
M  V30 106 C 10.9235 -2.57785 1.77527 0
M  V30 107 C 11.3985 -3.63194 2.79023 0
M  V30 108 N 12.8895 -3.70678 2.77763 0
M  V30 109 C 13.6245 -4.51897 3.52954 0
M  V30 110 N 13.1205 -5.36921 4.37821 0
M  V30 111 N 14.9135 -4.4643 3.41551 0
M  V30 112 H 7.0645 -0.879093 1.93354 0
M  V30 113 H 9.3275 -0.448425 0.835236 0
M  V30 114 H 9.0335 -2.1611 2.77469 0
M  V30 115 H 8.9075 -3.43007 1.56927 0
M  V30 116 H 11.2945 -2.85023 0.764569 0
M  V30 117 H 11.3755 -1.58992 2.00387 0
M  V30 118 H 11.0195 -3.36699 3.80258 0
M  V30 119 H 10.9495 -4.61609 2.53425 0
M  V30 120 H 13.4405 -3.09944 2.16201 0
M  V30 121 H 13.7535 -5.95981 4.91962 0
M  V30 122 H 12.0985 -5.36424 4.41899 0
M  V30 123 H 15.2895 -3.79042 2.74672 0
M  V30 124 H 15.4625 -5.09491 4.00404 0
M  V30 125 N 8.8686 -0.792821 -1.36206 0
M  V30 126 C 9.7986 -0.207853 -2.32573 0
M  V30 127 C 10.7796 0.659055 -1.56813 0
M  V30 128 O 11.9646 0.592176 -1.84951 0
M  V30 129 C 9.0946 0.655449 -3.41059 0
M  V30 130 C 8.0486 -0.111842 -4.27854 0
M  V30 131 C 7.3746 0.872274 -5.27537 0
M  V30 132 C 8.6746 -1.30299 -5.05786 0
M  V30 133 H 10.3686 -1.01294 -2.81744 0
M  V30 134 H 7.9146 -0.48854 -1.3546 0
M  V30 135 H 9.8676 1.07464 -4.07467 0
M  V30 136 H 8.5916 1.49328 -2.90463 0
M  V30 137 H 7.2506 -0.512053 -3.63006 0
M  V30 138 H 6.8986 1.70523 -4.73214 0
M  V30 139 H 6.5986 0.363291 -5.86476 0
M  V30 140 H 8.1226 1.28996 -5.96818 0
M  V30 141 H 9.5366 -0.959379 -5.65216 0
M  V30 142 H 7.9336 -1.7455 -5.74154 0
M  V30 143 H 9.0036 -2.09663 -4.37229 0
M  V30 144 N 10.3467 1.47872 -0.545128 0
M  V30 145 C 11.5937 2.02493 -0.0165858 0
M  V30 146 C 11.9217 1.42073 1.32836 0
M  V30 147 O 11.1767 0.561459 1.87473 0
M  V30 148 C 11.4757 3.57131 0.13867 0
M  V30 149 C 11.1417 4.36411 -1.13384 0
M  V30 150 C 9.8037 4.57792 -1.48256 0
M  V30 151 C 12.1557 4.82223 -1.97764 0
M  V30 152 C 9.4837 5.22233 -2.67376 0
M  V30 153 C 11.8357 5.47977 -3.16076 0
M  V30 154 C 10.4997 5.67593 -3.51275 0
M  V30 155 H 9.7697 0.740975 -0.00606918 0
M  V30 156 H 12.4167 1.77683 -0.714207 0
M  V30 157 H 10.7217 3.80865 0.919172 0
M  V30 158 H 12.4187 3.97031 0.562782 0
M  V30 159 H 9.0087 4.2004 -0.852297 0
M  V30 160 H 13.1927 4.65493 -1.72132 0
M  V30 161 H 8.4487 5.35616 -2.94831 0
M  V30 162 H 12.6227 5.8244 -3.81755 0
M  V30 163 H 10.2497 6.17298 -4.43675 0
M  V30 164 N 11.8248 0.280983 1.55075 0
M  V30 165 C 13.0718 -0.334115 1.99725 0
M  V30 166 C 13.3998 -1.5542 1.1694 0
M  V30 167 O 12.6548 -1.94361 0.228531 0
M  V30 168 C 12.9538 -0.754656 3.49342 0
M  V30 169 C 12.6198 0.361445 4.49449 0
M  V30 170 C 11.2818 0.667893 4.76542 0
M  V30 171 C 13.6338 1.11322 5.09173 0
M  V30 172 C 10.9618 1.7296 5.60626 0
M  V30 173 C 13.3138 2.1647 5.9441 0
M  V30 174 C 11.9778 2.47742 6.19822 0
M  V30 175 H 11.2478 -0.122261 0.730844 0
M  V30 176 H 13.8948 0.395917 1.87363 0
M  V30 177 H 12.1998 -1.56446 3.5921 0
M  V30 178 H 13.8968 -1.24142 3.813 0
M  V30 179 H 10.4868 0.112481 4.28452 0
M  V30 180 H 14.6708 0.88973 4.8826 0
M  V30 181 H 9.9268 1.97684 5.78559 0
M  V30 182 H 14.1008 2.75193 6.3972 0
M  V30 183 H 11.7278 3.30145 6.84769 0
M  V30 184 N 13.3029 -1.57598 0.00835791 0
M  V30 185 C 14.7139 -1.7892 -0.53333 0
M  V30 186 C 15.0649 -0.916609 -1.73473 0
M  V30 187 O 14.1899 -0.121336 -2.1606 0
M  V30 188 C 14.7849 -3.24488 -0.974313 0
M  V30 189 C 13.3439 -3.46878 -1.46125 0
M  V30 190 C 12.4909 -2.74157 -0.416302 0
M  V30 191 H 15.4419 -1.56958 0.234495 0
M  V30 192 H 15.4629 -3.3306 -1.83988 0
M  V30 193 H 14.9749 -3.87972 -0.099718 0
M  V30 194 H 13.0759 -2.8862 -2.35646 0
M  V30 195 H 13.1889 -4.55572 -1.48295 0
M  V30 196 H 11.5529 -2.39022 -0.87981 0
M  V30 197 H 12.3359 -3.40345 0.44947 0
M  V30 198 N 14.781 0.264519 -1.55364 0
M  V30 199 C 15.711 1.33121 -1.91836 0
M  V30 200 C 16.692 1.51101 -0.781192 0
M  V30 201 O 17.877 1.64003 -1.04003 0
M  V30 202 C 15.007 2.68921 -2.19769 0
M  V30 203 C 13.961 2.65661 -3.35571 0
M  V30 204 C 13.287 4.05093 -3.49004 0
M  V30 205 C 14.587 2.24187 -4.71739 0
M  V30 206 H 16.281 1.02844 -2.81182 0
M  V30 207 H 13.827 0.493286 -1.35287 0
M  V30 208 H 15.78 3.43663 -2.43872 0
M  V30 209 H 14.504 3.00799 -1.27231 0
M  V30 210 H 13.163 1.93377 -3.1145 0
M  V30 211 H 12.811 4.34206 -2.53917 0
M  V30 212 H 12.511 4.03804 -4.26868 0
M  V30 213 H 14.035 4.81561 -3.75408 0
M  V30 214 H 15.449 2.88654 -4.9533 0
M  V30 215 H 13.846 2.34044 -5.52579 0
M  V30 216 H 14.916 1.19327 -4.69988 0
M  V30 217 N 16.2591 1.48442 0.529413 0
M  V30 218 C 17.4841 1.60406 1.31471 0
M  V30 219 C 17.9091 0.264738 1.86228 0
M  V30 220 O 17.2671 -0.763668 1.64432 0
M  V30 221 C 17.3151 2.65419 2.44101 0
M  V30 222 O 16.4191 2.22618 3.47153 0
M  V30 223 H 15.7601 0.537863 0.389357 0
M  V30 224 H 18.2901 1.94432 0.636965 0
M  V30 225 H 18.3001 2.86709 2.90279 0
M  V30 226 H 16.9751 3.62652 2.03608 0
M  V30 227 H 15.5521 2.11543 3.0709 0
M  V30 228 N 17.7372 -0.778329 1.37039 0
M  V30 229 C 18.6672 -1.90546 1.34962 0
M  V30 230 C 19.6482 -1.68681 0.219274 0
M  V30 231 O 20.8332 -1.89634 0.418624 0
M  V30 232 C 17.9632 -3.27734 1.14925 0
M  V30 233 C 16.9172 -3.64147 2.24902 0
M  V30 234 C 16.2432 -4.99806 1.89996 0
M  V30 235 C 17.5432 -3.71579 3.67051 0
M  V30 236 H 19.2372 -1.92541 2.29277 0
M  V30 237 H 16.7832 -0.924948 1.10366 0
M  V30 238 H 18.7362 -4.06215 1.12104 0
M  V30 239 H 17.4602 -3.26154 0.170631 0
M  V30 240 H 16.1192 -2.8797 2.26868 0
M  V30 241 H 15.7672 -4.94759 0.906796 0
M  V30 242 H 15.4672 -5.25139 2.63634 0
M  V30 243 H 16.9912 -5.80694 1.88749 0
M  V30 244 H 18.4052 -4.40227 3.67251 0
M  V30 245 H 16.8022 -4.08405 4.39688 0
M  V30 246 H 17.8722 -2.72404 4.01154 0
M  V30 247 N 19.2153 -1.21501 -1.00376 0
M  V30 248 C 20.6313 -0.972629 -1.26539 0
M  V30 249 C 20.8313 0.340257 -1.98606 0
M  V30 250 O 19.8873 1.06561 -2.28913 0
M  V30 251 C 21.2003 -2.16404 -2.08781 0
M  V30 252 C 22.7483 -2.20643 -2.22004 0
M  V30 253 C 23.2233 -3.39306 -3.07629 0
M  V30 254 N 24.7143 -3.39401 -3.15217 0
M  V30 255 C 25.4493 -4.27867 -3.81729 0
M  V30 256 N 24.9453 -5.26533 -4.5026 0
M  V30 257 N 26.7383 -4.15672 -3.78382 0
M  V30 258 H 18.8893 -2.05929 -0.520281 0
M  V30 259 H 21.1523 -0.901803 -0.292328 0
M  V30 260 H 20.8583 -3.11554 -1.63178 0
M  V30 261 H 20.7323 -2.15567 -3.09533 0
M  V30 262 H 23.1193 -1.26048 -2.66825 0
M  V30 263 H 23.2003 -2.25523 -1.20718 0
M  V30 264 H 22.8443 -4.34195 -2.63509 0
M  V30 265 H 22.7743 -3.31665 -4.09031 0
M  V30 266 H 25.2653 -2.67997 -2.66432 0
M  V30 267 H 25.5783 -5.90337 -4.98721 0
M  V30 268 H 23.9233 -5.30457 -4.49044 0
M  V30 269 H 27.1143 -3.3785 -3.23998 0
M  V30 270 H 27.2873 -4.84825 -4.2994 0
M  V30 271 N 20.6934 1.19889 -1.02296 0
M  V30 272 C 21.9394 1.89701 -0.717033 0
M  V30 273 C 22.2724 1.7905 0.751989 0
M  V30 274 O 21.5474 1.17891 1.547 0
M  V30 275 C 21.8304 3.40858 -1.16136 0
M  V30 276 C 21.6834 3.60411 -2.69117 0
M  V30 277 C 23.0024 4.33876 -0.737549 0
M  V30 278 H 20.1214 0.688874 -0.261957 0
M  V30 279 H 22.7634 1.41154 -1.27183 0
M  V30 280 H 20.9134 3.82335 -0.689342 0
M  V30 281 H 22.5854 3.28145 -3.2422 0
M  V30 282 H 20.8284 3.03665 -3.0979 0
M  V30 283 H 21.4994 4.66396 -2.95261 0
M  V30 284 H 23.9754 4.00081 -1.14344 0
M  V30 285 H 22.8514 5.38242 -1.0764 0
M  V30 286 H 23.1124 4.40628 0.360436 0
M  V30 287 N 22.1715 0.800033 1.35784 0
M  V30 288 C 23.5875 0.482977 1.52117 0
M  V30 289 C 23.7875 -0.996948 1.75109 0
M  V30 290 O 22.8435 -1.78216 1.78872 0
M  V30 291 C 24.1565 1.32264 2.70049 0
M  V30 292 C 25.7045 1.31742 2.83924 0
M  V30 293 C 26.1795 2.14106 4.04874 0
M  V30 294 N 27.6705 2.11607 4.12039 0
M  V30 295 C 28.4055 2.72099 5.04727 0
M  V30 296 N 27.9015 3.41492 6.02789 0
M  V30 297 N 29.6945 2.61776 4.97423 0
M  V30 298 H 21.8455 1.75856 1.19115 0
M  V30 299 H 24.1085 0.748122 0.582252 0
M  V30 300 H 23.8145 2.37261 2.59616 0
M  V30 301 H 23.6885 0.971303 3.6448 0
M  V30 302 H 26.0755 0.275333 2.93813 0
M  V30 303 H 26.1565 1.70859 1.9037 0
M  V30 304 H 25.8005 3.18351 3.95746 0
M  V30 305 H 25.7305 1.72353 4.97596 0
M  V30 306 H 28.2215 1.61112 3.41835 0
M  V30 307 H 28.5345 3.84953 6.70098 0
M  V30 308 H 26.8795 3.45596 6.02983 0
M  V30 309 H 30.0705 2.07157 4.19766 0
M  V30 310 H 30.2435 3.0921 5.69468 0
M  V30 311 N 23.6496 -1.47581 0.552962 0
M  V30 312 C 24.8966 -2.02482 0.0273243 0
M  V30 313 C 25.2246 -1.42776 -1.32081 0
M  V30 314 O 24.4796 -0.571393 -1.87173 0
M  V30 315 C 24.7786 -3.57199 -0.119728 0
M  V30 316 C 24.4446 -4.35804 1.15697 0
M  V30 317 C 23.1066 -4.57 1.50681 0
M  V30 318 C 25.4586 -4.81167 2.00319 0
M  V30 319 C 22.7866 -5.20807 2.70142 0
M  V30 320 C 25.1386 -5.46293 3.18978 0
M  V30 321 C 23.8026 -5.65722 3.54281 0
M  V30 322 H 23.0726 -0.740933 0.00999866 0
M  V30 323 H 25.7196 -1.77302 0.72362 0
M  V30 324 H 24.0246 -3.81348 -0.89896 0
M  V30 325 H 25.7216 -3.97324 -0.541718 0
M  V30 326 H 22.3116 -4.19582 0.874561 0
M  V30 327 H 26.4956 -4.64574 1.74599 0
M  V30 328 H 21.7516 -5.34045 2.97668 0
M  V30 329 H 25.9256 -5.80407 3.84838 0
M  V30 330 H 23.5526 -6.14936 4.46942 0
M  V30 331 N 25.1277 -0.289203 -1.54924 0
M  V30 332 C 26.0577 0.58549 -2.2604 0
M  V30 333 C 27.0387 1.14753 -1.25562 0
M  V30 334 O 28.2237 1.17906 -1.54311 0
M  V30 335 C 25.3537 1.76305 -2.99222 0
M  V30 336 C 24.3077 1.33191 -4.06748 0
M  V30 337 C 23.6337 2.5937 -4.6758 0
M  V30 338 C 24.9337 0.471775 -5.20165 0
M  V30 339 H 26.6277 -0.00763532 -2.99399 0
M  V30 340 H 24.1737 -0.00511229 -1.43999 0
M  V30 341 H 26.1267 2.38097 -3.47689 0
M  V30 342 H 24.8507 2.38223 -2.23422 0
M  V30 343 H 23.5097 0.737121 -3.59113 0
M  V30 344 H 23.1577 3.19576 -3.88433 0
M  V30 345 H 22.8577 2.31228 -5.40192 0
M  V30 346 H 24.3817 3.21985 -5.18804 0
M  V30 347 H 25.7957 0.995056 -5.64599 0
M  V30 348 H 24.1927 0.284639 -5.99425 0
M  V30 349 H 25.2627 -0.506041 -4.82252 0
M  V30 350 N 26.6058 1.57591 -0.0167156 0
M  V30 351 C 27.5358 2.12496 0.967858 0
M  V30 352 C 28.5168 1.03807 1.34752 0
M  V30 353 O 29.7018 1.31577 1.42833 0
M  V30 354 C 26.8318 2.64194 2.25431 0
M  V30 355 C 25.7858 3.77559 2.01576 0
M  V30 356 C 25.1118 4.15636 3.36379 0
M  V30 357 C 26.4118 5.04151 1.36489 0
M  V30 358 H 28.1058 2.95013 0.510643 0
M  V30 359 H 25.6518 1.41915 0.244181 0
M  V30 360 H 27.6048 3.01236 2.94678 0
M  V30 361 H 26.3288 1.78821 2.73296 0
M  V30 362 H 24.9878 3.40937 1.34751 0
M  V30 363 H 24.6358 3.27263 3.81979 0
M  V30 364 H 24.3358 4.92022 3.21229 0
M  V30 365 H 25.8598 4.5525 4.06915 0
M  V30 366 H 27.2738 5.38857 1.95718 0
M  V30 367 H 25.6708 5.85453 1.31776 0
M  V30 368 H 26.7408 4.83733 0.336219 0
M  V30 369 N 28.0839 -0.256276 1.55502 0
M  V30 370 C 29.0469 -1.30047 1.88734 0
M  V30 371 C 30.0469 -1.4154 0.763086 0
M  V30 372 O 31.2369 -1.40403 1.03115 0
M  V30 373 C 28.3689 -2.67953 2.10747 0
M  V30 374 H 29.5619 -1.01802 2.82093 0
M  V30 375 H 27.1149 -0.495134 1.4825 0
M  V30 376 H 27.8499 -3.01351 1.19825 0
M  V30 377 H 27.6349 -2.60993 2.92617 0
M  V30 378 H 29.1249 -3.43368 2.37673 0
M  V30 379 N 29.562 -1.4872 -0.521534 0
M  V30 380 C 30.79 -1.60843 -1.30142 0
M  V30 381 C 31.205 -0.271897 -1.86832 0
M  V30 382 O 30.562 0.739969 -1.66825 0
M  V30 383 C 30.613 -2.66155 -2.4463 0
M  V30 384 O 30.334 -3.94623 -1.90275 0
M  V30 385 C 31.835 -2.88795 -3.36322 0
M  V30 386 H 29.055 -0.542075 -0.395468 0
M  V30 387 H 31.599 -1.94609 -0.628285 0
M  V30 388 H 29.754 -2.35224 -3.07812 0
M  V30 389 H 30.168 -4.52468 -2.65279 0
M  V30 390 H 31.642 -3.66264 -4.12983 0
M  V30 391 H 32.119 -1.97934 -3.9207 0
M  V30 392 H 32.725 -3.21063 -2.78924 0
M  V30 393 N 31.0401 0.771051 -1.3745 0
M  V30 394 C 32.0031 1.86598 -1.33093 0
M  V30 395 C 33.0031 1.59076 -0.234845 0
M  V30 396 O 34.1931 1.67145 -0.490732 0
M  V30 397 C 31.3251 3.23747 -1.06773 0
M  V30 398 H 32.5181 1.91873 -2.30488 0
M  V30 399 H 30.0711 0.970876 -1.2249 0
M  V30 400 H 30.8061 3.24148 -0.099129 0
M  V30 401 H 30.5911 3.45115 -1.86112 0
M  V30 402 H 32.0811 4.03824 -1.06377 0
M  V30 403 N 32.5182 1.22032 0.997298 0
M  V30 404 C 33.4812 0.987909 2.06816 0
M  V30 405 C 34.4812 -0.0440084 1.6074 0
M  V30 406 O 35.6712 0.194053 1.73116 0
M  V30 407 C 32.8032 0.49132 3.37341 0
M  V30 408 H 33.9962 1.93803 2.28868 0
M  V30 409 H 31.5492 1.03838 1.16822 0
M  V30 410 H 32.2842 -0.463364 3.20973 0
M  V30 411 H 32.0692 1.23575 3.72118 0
M  V30 412 H 33.5592 0.348824 4.16141 0
M  V30 413 N 33.9963 -1.19345 1.0293 0
M  V30 414 C 35.2423 -1.89318 0.727083 0
M  V30 415 C 35.5753 -1.79446 -0.742483 0
M  V30 416 O 34.8503 -1.1871 -1.54072 0
M  V30 417 C 35.1333 -3.40238 1.17942 0
M  V30 418 C 34.9863 -3.58979 2.71024 0
M  V30 419 C 36.3053 -4.33479 0.760548 0
M  V30 420 H 33.4243 -0.687475 0.265606 0
M  V30 421 H 36.0663 -1.40477 1.2793 0
M  V30 422 H 34.2163 -3.81964 0.709608 0
M  V30 423 H 35.8883 -3.26421 3.25955 0
M  V30 424 H 34.1313 -3.02018 3.11396 0
M  V30 425 H 34.8023 -4.64823 2.9773 0
M  V30 426 H 37.2783 -3.99469 1.16464 0
M  V30 427 H 36.1543 -5.37664 1.10493 0
M  V30 428 H 36.4153 -4.40813 -0.337063 0
M  V30 429 N 35.4744 -0.807222 -1.35358 0
M  V30 430 C 36.7204 -0.388463 -1.99045 0
M  V30 431 C 37.0534 1.04184 -1.63888 0
M  V30 432 O 36.3284 1.72292 -0.902535 0
M  V30 433 C 36.6114 -0.572783 -3.55515 0
M  V30 434 C 36.4644 -2.04807 -4.00468 0
M  V30 435 C 37.7834 0.00114064 -4.401 0
M  V30 436 H 34.9024 -0.142619 -0.723069 0
M  V30 437 H 37.5444 -1.01687 -1.60498 0
M  V30 438 H 35.6944 -0.0378425 -3.88482 0
M  V30 439 H 37.3664 -2.64544 -3.77908 0
M  V30 440 H 35.6094 -2.54427 -3.51353 0
M  V30 441 H 36.2804 -2.12792 -5.09337 0
M  V30 442 H 38.7564 -0.455716 -4.13597 0
M  V30 443 H 37.6324 -0.157737 -5.48673 0
M  V30 444 H 37.8934 1.09488 -4.28328 0
M  V30 445 N 36.9525 1.47285 -0.560781 0
M  V30 446 C 37.8825 2.32857 0.173105 0
M  V30 447 C 38.8635 1.44009 0.905281 0
M  V30 448 O 40.0485 1.7286 0.885046 0
M  V30 449 C 37.1785 3.25861 1.20133 0
M  V30 450 C 36.1325 4.23978 0.585388 0
M  V30 451 C 35.4585 5.06332 1.7185 0
M  V30 452 C 36.7585 5.20242 -0.463178 0
M  V30 453 H 38.4525 2.94466 -0.541307 0
M  V30 454 H 35.9985 1.41601 -0.261764 0
M  V30 455 H 37.9515 3.84569 1.72293 0
M  V30 456 H 36.6755 2.62315 1.94573 0
M  V30 457 H 35.3345 3.66501 0.085054 0
M  V30 458 H 34.9825 4.39186 2.45203 0
M  V30 459 H 34.6825 5.72762 1.31213 0
M  V30 460 H 36.2065 5.67899 2.24329 0
M  V30 461 H 37.6205 5.73293 -0.027502 0
M  V30 462 H 36.0175 5.94896 -0.788627 0
M  V30 463 H 37.0875 4.65504 -1.35773 0
M  V30 464 N 38.4306 0.297415 1.54768 0
M  V30 465 C 39.6766 -0.313376 2.00364 0
M  V30 466 C 40.0096 -1.53815 1.18553 0
M  V30 467 O 39.2846 -1.92739 0.261103 0
M  V30 468 C 39.5676 -0.673525 3.53745 0
M  V30 469 C 39.4206 0.560133 4.46299 0
M  V30 470 C 40.7396 -1.50143 4.13697 0
M  V30 471 H 37.8586 -0.112428 0.728374 0
M  V30 472 H 40.5006 0.4088 1.8555 0
M  V30 473 H 38.6506 -1.28881 3.665 0
M  V30 474 H 40.3226 1.19863 4.45455 0
M  V30 475 H 38.5656 1.19405 4.17043 0
M  V30 476 H 39.2366 0.26405 5.51368 0
M  V30 477 H 41.7126 -0.981588 4.04356 0
M  V30 478 H 40.5886 -1.72221 5.21182 0
M  V30 479 H 40.8496 -2.48952 3.65343 0
M  V30 480 N 39.9087 -1.5758 0.0250728 0
M  V30 481 C 40.8387 -2.13007 -0.956575 0
M  V30 482 C 41.8197 -1.0452 -1.342 0
M  V30 483 O 43.0047 -1.32332 -1.42133 0
M  V30 484 C 40.1347 -2.65386 -2.24026 0
M  V30 485 C 39.0887 -3.78623 -1.99571 0
M  V30 486 C 38.4147 -4.17414 -3.3417 0
M  V30 487 C 39.7147 -5.04867 -1.33814 0
M  V30 488 H 41.4087 -2.9528 -0.494991 0
M  V30 489 H 38.9547 -1.42042 -0.236651 0
M  V30 490 H 40.9077 -3.02794 -2.93076 0
M  V30 491 H 39.6317 -1.80268 -2.72343 0
M  V30 492 H 38.2907 -3.41646 -1.32941 0
M  V30 493 H 37.9387 -3.29284 -3.80238 0
M  V30 494 H 37.6387 -4.93719 -3.18615 0
M  V30 495 H 39.1627 -4.57402 -4.04495 0
M  V30 496 H 40.5767 -5.39888 -1.92857 0
M  V30 497 H 38.9737 -5.86144 -1.28669 0
M  V30 498 H 40.0437 -4.83904 -0.310561 0
M  V30 499 N 41.3868 0.248026 -1.55636 0
M  V30 500 C 42.6118 0.998028 -1.81808 0
M  V30 501 C 43.0368 1.78207 -0.601979 0
M  V30 502 O 42.3948 1.75653 0.448961 0
M  V30 503 C 42.4428 1.9125 -3.05705 0
M  V30 504 O 41.5468 3.00406 -2.82542 0
M  V30 505 H 40.8878 0.284045 -0.600179 0
M  V30 506 H 43.4178 0.269357 -2.02819 0
M  V30 507 H 43.4278 2.32737 -3.35108 0
M  V30 508 H 42.1028 1.33602 -3.93857 0
M  V30 509 H 40.6798 2.63056 -2.64303 0
M  V30 510 N 42.8649 1.48995 0.513639 0
M  V30 511 C 43.7949 1.67636 1.62544 0
M  V30 512 C 44.7759 0.525087 1.61793 0
M  V30 513 O 45.9609 0.759502 1.78732 0
M  V30 514 C 43.0909 1.73114 3.01079 0
M  V30 515 C 42.0449 2.87905 3.16693 0
M  V30 516 C 41.3709 2.78486 4.56453 0
M  V30 517 C 42.6709 4.29005 2.97913 0
M  V30 518 H 44.3649 2.60716 1.47198 0
M  V30 519 H 41.9109 1.25465 0.706714 0
M  V30 520 H 43.8639 1.84742 3.78746 0
M  V30 521 H 42.5879 0.766241 3.17484 0
M  V30 522 H 41.2469 2.75859 2.41448 0
M  V30 523 H 40.8949 1.7993 4.69717 0
M  V30 524 H 40.5949 3.55523 4.67843 0
M  V30 525 H 42.1189 2.92104 5.36197 0
M  V30 526 H 43.5329 4.41798 3.65359 0
M  V30 527 H 41.9299 5.07166 3.20785 0
M  V30 528 H 42.9999 4.44329 1.94165 0
M  V30 529 N 44.343 -0.763751 1.37857 0
M  V30 530 C 45.306 -1.85889 1.34081 0
M  V30 531 C 46.306 -1.58949 0.243277 0
M  V30 532 O 47.496 -1.66882 0.499589 0
M  V30 533 C 44.628 -3.23176 1.08489 0
M  V30 534 H 45.821 -1.90648 2.31502 0
M  V30 535 H 43.374 -0.964367 1.23003 0
M  V30 536 H 44.109 -3.24091 0.116318 0
M  V30 537 H 43.894 -3.44124 1.8794 0
M  V30 538 H 45.384 -4.03254 1.08517 0
M  V30 539 N 45.8211 -1.22559 -0.990812 0
M  V30 540 C 47.0511 -1.07623 -1.76355 0
M  V30 541 C 47.4591 0.37601 -1.85426 0
M  V30 542 O 46.8021 1.27228 -1.32509 0
M  V30 543 C 46.8641 -1.61507 -3.21179 0
M  V30 544 C 46.5281 -3.10146 -3.35646 0
M  V30 545 C 47.5251 -4.07553 -3.22796 0
M  V30 546 C 45.2101 -3.49644 -3.60631 0
M  V30 547 C 47.2041 -5.42442 -3.34716 0
M  V30 548 C 44.8911 -4.84682 -3.72192 0
M  V30 549 C 45.8891 -5.8089 -3.59243 0
M  V30 550 O 45.5771 -7.13476 -3.70415 0
M  V30 551 H 45.3091 -0.377745 -0.560611 0
M  V30 552 H 47.8631 -1.62658 -1.25425 0
M  V30 553 H 46.0931 -1.00881 -3.73309 0
M  V30 554 H 47.7821 -1.42202 -3.80175 0
M  V30 555 H 48.5481 -3.78381 -3.03403 0
M  V30 556 H 44.4271 -2.75282 -3.69785 0
M  V30 557 H 47.9711 -6.17518 -3.24526 0
M  V30 558 H 43.8681 -5.13534 -3.91092 0
M  V30 559 H 44.6361 -7.21083 -3.87275 0
M  V30 560 N 47.2992 1.18797 -1.03562 0
M  V30 561 C 48.5472 1.88278 -0.734569 0
M  V30 562 C 48.8682 1.8043 0.739586 0
M  V30 563 O 48.1382 1.21925 1.53333 0
M  V30 564 H 46.7182 0.696991 -0.268725 0
M  V30 565 H 49.3802 1.44192 -1.31129 0
M  V30 566 H 48.4762 2.94443 -1.03489 0
M  V30 567 N 48.7773 0.814389 1.34928 0
M  V30 568 C 49.7103 0.175641 2.27523 0
M  V30 569 C 50.6883 -0.662953 1.48471 0
M  V30 570 O 51.8723 -0.628545 1.77712 0
M  V30 571 C 48.9993 -0.755516 3.30166 0
M  V30 572 C 48.0453 0.00445305 4.265 0
M  V30 573 S 48.8783 1.34582 5.18313 0
M  V30 574 C 50.0343 0.419315 6.24494 0
M  V30 575 H 50.2673 0.960691 2.8135 0
M  V30 576 H 47.8003 0.609846 1.41846 0
M  V30 577 H 49.7583 -1.28723 3.89796 0
M  V30 578 H 48.4193 -1.51402 2.75202 0
M  V30 579 H 47.6123 -0.703077 4.99072 0
M  V30 580 H 47.2143 0.466447 3.7108 0
M  V30 581 H 49.5063 -0.392432 6.76362 0
M  V30 582 H 50.4493 1.11446 6.99275 0
M  V30 583 H 50.8573 0.0115389 5.64499 0
M  V30 584 N 50.2554 -1.46986 0.568584 0
M  V30 585 C 51.5014 -2.02741 0.0488709 0
M  V30 586 C 51.8344 -1.44077 -1.30214 0
M  V30 587 O 51.1094 -0.600552 -1.84996 0
M  V30 588 C 51.3924 -3.60086 -0.032047 0
M  V30 589 C 51.2454 -4.29162 1.34686 0
M  V30 590 C 52.5644 -4.33838 -0.739798 0
M  V30 591 H 49.6834 -0.736749 0.0192338 0
M  V30 592 H 52.3254 -1.75289 0.733065 0
M  V30 593 H 50.4754 -3.83606 -0.61473 0
M  V30 594 H 52.1474 -4.16948 1.97362 0
M  V30 595 H 50.3904 -3.89073 1.91846 0
M  V30 596 H 51.0614 -5.37826 1.24285 0
M  V30 597 H 53.5374 -4.15378 -0.244939 0
M  V30 598 H 52.4134 -5.43537 -0.765406 0
M  V30 599 H 52.6744 -4.03875 -1.79827 0
M  V30 600 N 51.7335 -0.305618 -1.54608 0
M  V30 601 C 52.6965 0.555591 -2.22364 0
M  V30 602 C 53.6965 1.05768 -1.21119 0
M  V30 603 O 54.8865 0.952972 -1.45822 0
M  V30 604 C 52.0185 1.76974 -2.91364 0
M  V30 605 H 53.2115 -0.0364572 -2.99878 0
M  V30 606 H 50.7645 -0.0565007 -1.56198 0
M  V30 607 H 51.4995 2.40151 -2.17941 0
M  V30 608 H 51.2845 1.41732 -3.65588 0
M  V30 609 H 52.7745 2.38148 -3.43038 0
M  V30 610 N 53.2116 1.57565 -0.0334293 0
M  V30 611 C 54.1416 2.13511 0.945265 0
M  V30 612 C 55.1226 1.05231 1.33643 0
M  V30 613 O 56.3076 1.33084 1.41429 0
M  V30 614 C 53.4376 2.6657 2.22616 0
M  V30 615 C 52.3916 3.79676 1.97561 0
M  V30 616 C 51.7176 4.1918 3.31952 0
M  V30 617 C 53.0176 5.0557 1.31135 0
M  V30 618 H 54.7116 2.95538 0.479325 0
M  V30 619 H 52.2576 1.42166 0.229115 0
M  V30 620 H 54.2106 3.04344 2.91466 0
M  V30 621 H 52.9346 1.8171 2.71384 0
M  V30 622 H 51.5936 3.42347 1.31127 0
M  V30 623 H 51.2416 3.31296 3.78487 0
M  V30 624 H 50.9416 4.95402 3.15992 0
M  V30 625 H 52.4656 4.59541 4.02063 0
M  V30 626 H 53.8796 5.40903 1.89992 0
M  V30 627 H 52.2766 5.86818 1.25559 0
M  V30 628 H 53.3466 4.84062 0.284894 0
M  V30 629 N 54.6897 -0.239769 1.55765 0
M  V30 630 C 55.9387 -0.964754 1.77131 0
M  V30 631 C 56.2517 -1.86213 0.59868 0
M  V30 632 O 57.4577 -2.6244 0.695522 0
M  V30 633 C 55.9137 -1.76552 3.1362 0
M  V30 634 C 55.5217 -0.915185 4.38553 0
M  V30 635 C 57.2657 -2.48281 3.44321 0
M  V30 636 C 55.1727 -1.71225 5.66071 0
M  V30 637 H 54.1027 -0.363953 0.660344 0
M  V30 638 H 56.7537 -0.219181 1.82186 0
M  V30 639 H 55.1357 -2.55331 3.02691 0
M  V30 640 H 56.3097 -0.169217 4.60489 0
M  V30 641 H 54.6247 -0.310889 4.15238 0
M  V30 642 H 57.2217 -3.08382 4.36812 0
M  V30 643 H 57.5647 -3.20256 2.65973 0
M  V30 644 H 58.0977 -1.76507 3.56497 0
M  V30 645 H 54.8367 -1.03612 6.4726 0
M  V30 646 H 54.3567 -2.43331 5.48224 0
M  V30 647 H 56.0357 -2.27758 6.05587 0
M  V30 648 N 56.1678 -1.49265 -0.50573 0
M  V30 649 C 57.4158 -1.582 -1.25766 0
M  V30 650 C 57.7368 -0.268482 -1.93143 0
M  V30 651 O 57.0068 0.711833 -1.8251 0
M  V30 652 H 55.5868 -0.582873 -0.467191 0
M  V30 653 H 58.2488 -1.85865 -0.586525 0
M  V30 654 H 57.3448 -2.37563 -2.02412 0
M  V30 655 N 57.6459 0.756429 -1.3826 0
M  V30 656 C 58.8759 1.54341 -1.3734 0
M  V30 657 C 59.2839 1.89159 0.0393917 0
M  V30 658 O 58.6269 1.5307 1.01565 0
M  V30 659 C 58.6889 2.87238 -2.16182 0
M  V30 660 C 58.3529 2.74973 -3.65019 0
M  V30 661 C 59.3499 2.44962 -4.58574 0
M  V30 662 C 57.0349 2.92515 -4.08338 0
M  V30 663 C 59.0289 2.32642 -5.93428 0
M  V30 664 C 56.7159 2.79815 -5.43274 0
M  V30 665 C 57.7139 2.49921 -6.35632 0
M  V30 666 O 57.4019 2.37275 -7.68086 0
M  V30 667 H 57.1339 0.484281 -0.471643 0
M  V30 668 H 59.6879 0.944152 -1.82414 0
M  V30 669 H 57.9179 3.49342 -1.65822 0
M  V30 670 H 59.6069 3.48731 -2.07705 0
M  V30 671 H 60.3729 2.31081 -4.26412 0
M  V30 672 H 56.2519 3.14781 -3.368 0
M  V30 673 H 59.7959 2.0923 -6.65484 0
M  V30 674 H 55.6929 2.93269 -5.75034 0
M  V30 675 H 56.4609 2.52509 -7.78577 0
M  V30 676 N 59.124 1.23083 0.984299 0
M  V30 677 C 60.349 1.088 1.76571 0
M  V30 678 C 60.774 -0.356657 1.84688 0
M  V30 679 O 60.132 -1.25788 1.30565 0
M  V30 680 C 60.18 1.71371 3.17277 0
M  V30 681 O 59.284 0.973213 4.00752 0
M  V30 682 H 58.625 0.381599 0.543395 0
M  V30 683 H 61.155 1.63057 1.23587 0
M  V30 684 H 61.165 1.76449 3.67872 0
M  V30 685 H 59.84 2.76493 3.10684 0
M  V30 686 H 58.417 0.999078 3.59267 0
M  V30 687 N 60.6021 -1.18246 1.0419 0
M  V30 688 C 61.8481 -1.88536 0.747122 0
M  V30 689 C 62.1811 -1.80223 -0.723409 0
M  V30 690 O 61.4561 -1.20337 -1.52804 0
M  V30 691 C 61.7391 -3.38968 1.21544 0
M  V30 692 C 61.5921 -3.56084 2.74816 0
M  V30 693 C 62.9111 -4.32648 0.806482 0
M  V30 694 H 60.0301 -0.684619 0.272883 0
M  V30 695 H 62.6721 -1.39113 1.29413 0
M  V30 696 H 60.8221 -3.8119 0.750081 0
M  V30 697 H 62.4941 -3.22946 3.29399 0
M  V30 698 H 60.7371 -2.98699 3.14582 0
M  V30 699 H 61.4081 -4.61639 3.02644 0
M  V30 700 H 63.8841 -3.98211 1.20695 0
M  V30 701 H 62.7601 -5.36462 1.1619 0
M  V30 702 H 63.0211 -4.41146 -0.29029 0
M  V30 703 N 62.0802 -0.821533 -1.34494 0
M  V30 704 C 63.3052 -0.420873 -2.03085 0
M  V30 705 C 63.7302 0.964915 -1.61465 0
M  V30 706 O 63.0882 1.62763 -0.798607 0
M  V30 707 C 63.1362 -0.529414 -3.56693 0
M  V30 708 O 62.2402 0.451302 -4.09923 0
M  V30 709 H 61.5812 -0.173489 -0.640935 0
M  V30 710 H 64.1112 -1.11157 -1.71771 0
M  V30 711 H 64.1212 -0.404671 -4.05988 0
M  V30 712 H 62.7962 -1.54014 -3.86332 0
M  V30 713 H 61.3732 0.285558 -3.71805 0
M  V30 714 N 63.5583 1.46682 -0.576371 0
M  V30 715 C 64.8053 2.02412 -0.0595339 0
M  V30 716 C 65.1333 1.44859 1.29793 0
M  V30 717 O 64.3883 0.601099 1.8624 0
M  V30 718 C 64.6873 3.57345 0.062886 0
M  V30 719 C 64.3533 4.33908 -1.22616 0
M  V30 720 C 63.0153 4.54544 -1.57933 0
M  V30 721 C 65.3673 4.77919 -2.07948 0
M  V30 722 C 62.6953 5.16444 -2.78393 0
M  V30 723 C 65.0473 5.41149 -3.27629 0
M  V30 724 C 63.7113 5.60014 -3.63236 0
M  V30 725 H 62.9813 0.74068 -0.021785 0
M  V30 726 H 65.6283 1.76128 -0.751735 0
M  V30 727 H 63.9333 3.82729 0.838178 0
M  V30 728 H 65.6303 3.98136 0.478439 0
M  V30 729 H 62.2203 4.18138 -0.941202 0
M  V30 730 H 66.4043 4.61738 -1.81967 0
M  V30 731 H 61.6603 5.29242 -3.06126 0
M  V30 732 H 65.8343 5.74211 -3.94023 0
M  V30 733 H 63.4613 6.07748 -4.56669 0
M  V30 734 N 65.0364 0.313813 1.54444 0
M  V30 735 C 66.3134 -0.345447 1.92525 0
M  V30 736 C 66.6934 -1.70667 1.24242 0
M  V30 737 O 66.0414 -2.25273 0.382654 0
M  V30 738 C 66.2514 -0.44737 3.46121 0
M  V30 739 C 67.5994 -0.712238 4.18584 0
M  V30 740 O 68.6234 -0.530678 3.52225 0
M  V30 741 O 67.4824 -1.06183 5.36085 0
M  V30 742 H 64.5764 -0.195407 0.803583 0
M  V30 743 H 67.1224 0.362813 1.65776 0
M  V30 744 H 65.8944 0.509043 3.87975 0
M  V30 745 H 65.5174 -1.20359 3.78945 0
M  V30 746 N 66.5145 -1.57545 0.0417849 0
M  V30 747 C 67.4615 -2.10977 -0.935805 0
M  V30 748 C 68.4315 -1.01486 -1.31491 0
M  V30 749 O 69.6165 -1.2898 -1.40602 0
M  V30 750 C 66.7565 -2.65169 -2.2086 0
M  V30 751 C 65.8695 -3.88714 -1.88482 0
M  V30 752 C 65.0045 -4.31254 -3.1015 0
M  V30 753 C 64.0435 -5.47524 -2.7365 0
M  V30 754 N 63.1805 -5.85162 -3.87982 0
M  V30 755 H 68.0205 -2.94218 -0.473249 0
M  V30 756 H 65.5575 -1.45415 -0.221981 0
M  V30 757 H 67.5155 -2.94685 -2.95325 0
M  V30 758 H 66.1455 -1.8474 -2.64709 0
M  V30 759 H 65.1975 -3.65849 -1.04205 0
M  V30 760 H 66.5095 -4.73245 -1.57608 0
M  V30 761 H 65.6635 -4.62273 -3.92923 0
M  V30 762 H 64.4025 -3.45516 -3.44195 0
M  V30 763 H 63.4075 -5.16187 -1.89291 0
M  V30 764 H 64.6325 -6.34971 -2.40807 0
M  V30 765 H 62.5785 -5.02377 -4.21846 0
M  V30 766 H 62.4955 -6.64362 -3.60775 0
M  V30 767 H 63.7635 -6.20791 -4.71422 0
M  V30 768 N 67.9926 0.231505 -1.5589 0
M  V30 769 C 69.2206 0.974505 -1.82513 0
M  V30 770 C 69.6356 1.78344 -0.619591 0
M  V30 771 O 68.9926 1.77792 0.411848 0
M  V30 772 C 69.0436 1.90007 -3.07538 0
M  V30 773 O 68.7646 1.12385 -4.2344 0
M  V30 774 C 70.2656 2.75779 -3.47075 0
M  V30 775 H 67.4856 0.286065 -0.606966 0
M  V30 776 H 70.0296 0.249739 -2.02969 0
M  V30 777 H 68.1846 2.57891 -2.89086 0
M  V30 778 H 68.5986 1.75125 -4.944 0
M  V30 779 H 70.0726 3.36443 -4.37619 0
M  V30 780 H 70.5496 3.47672 -2.68367 0
M  V30 781 H 71.1556 2.13323 -3.67931 0
M  V30 782 N 69.4707 1.49531 0.497807 0
M  V30 783 C 70.6987 1.62893 1.27567 0
M  V30 784 C 71.1137 0.301585 1.86376 0
M  V30 785 O 70.4707 -0.713335 1.67982 0
M  V30 786 C 70.5217 2.70013 2.40364 0
M  V30 787 O 70.2427 3.976 1.83972 0
M  V30 788 C 71.7437 2.94109 3.31685 0
M  V30 789 H 68.9637 0.548298 0.386794 0
M  V30 790 H 71.5077 1.95584 0.597245 0
M  V30 791 H 69.6627 2.40092 3.04031 0
M  V30 792 H 70.0767 4.56631 2.58047 0
M  V30 793 H 71.5507 3.72788 4.07104 0
M  V30 794 H 72.0277 2.04147 3.88871 0
M  V30 795 H 72.6337 3.2546 2.73781 0
M  V30 796 N 70.9488 -0.749086 1.3866 0
M  V30 797 C 72.1958 -1.50833 1.35114 0
M  V30 798 C 72.5238 -1.94415 -0.0574049 0
M  V30 799 O 71.7788 -1.66065 -1.03541 0
M  V30 800 C 72.0778 -2.7712 2.25697 0
M  V30 801 C 71.7438 -2.52477 3.73585 0
M  V30 802 C 70.4058 -2.45466 4.13884 0
M  V30 803 C 72.7578 -2.31066 4.67181 0
M  V30 804 C 70.0858 -2.15064 5.45861 0
M  V30 805 C 72.4378 -2.02183 5.9942 0
M  V30 806 C 71.1018 -1.93631 6.38798 0
M  V30 807 H 70.3718 -0.551936 0.494416 0
M  V30 808 H 73.0188 -0.860979 1.71054 0
M  V30 809 H 71.3238 -3.46528 1.82827 0
M  V30 810 H 73.0208 -3.35096 2.20254 0
M  V30 811 H 69.6108 -2.58807 3.41638 0
M  V30 812 H 73.7948 -2.35459 4.3689 0
M  V30 813 H 69.0508 -2.06954 5.75308 0
M  V30 814 H 73.2248 -1.8462 6.71482 0
M  V30 815 H 70.8518 -1.69839 7.40985 0
M  V30 816 N 72.4269 -1.23603 -0.977757 0
M  V30 817 C 73.8429 -0.999251 -1.24447 0
M  V30 818 C 74.0429 0.298053 -1.99283 0
M  V30 819 O 73.0989 1.01681 -2.31122 0
M  V30 820 C 74.4119 -2.20784 -2.04144 0
M  V30 821 C 75.9599 -2.25303 -2.17273 0
M  V30 822 C 76.4349 -3.45755 -3.00362 0
M  V30 823 N 77.9259 -3.4601 -3.07947 0
M  V30 824 C 78.6609 -4.35868 -3.72568 0
M  V30 825 N 78.1569 -5.35966 -4.38991 0
M  V30 826 N 79.9499 -4.23605 -3.6948 0
M  V30 827 H 72.1009 -2.06986 -0.476483 0
M  V30 828 H 74.3639 -0.907801 -0.273134 0
M  V30 829 H 74.0699 -3.14945 -1.56533 0
M  V30 830 H 73.9439 -2.22085 -3.04891 0
M  V30 831 H 76.3309 -1.3168 -2.64092 0
M  V30 832 H 76.4119 -2.28033 -1.15907 0
M  V30 833 H 76.0559 -4.39687 -2.5424 0
M  V30 834 H 75.9859 -3.40266 -4.01904 0
M  V30 835 H 78.4769 -2.73588 -2.60688 0
M  V30 836 H 78.7899 -6.00783 -4.86086 0
M  V30 837 H 77.1349 -5.39863 -4.37691 0
M  V30 838 H 80.3259 -3.44647 -3.16759 0
M  V30 839 H 80.4989 -4.93836 -4.1956 0
M  V30 840 N 73.905 1.17692 -1.04816 0
M  V30 841 C 74.835 2.23777 -0.666791 0
M  V30 842 C 75.816 1.66796 0.33361 0
M  V30 843 O 77.001 1.93039 0.212042 0
M  V30 844 C 74.131 3.47281 -0.0367933 0
M  V30 845 C 73.085 4.17059 -0.961546 0
M  V30 846 C 72.411 5.34342 -0.195626 0
M  V30 847 C 73.711 4.69713 -2.28402 0
M  V30 848 H 75.405 2.55933 -1.55367 0
M  V30 849 H 72.951 1.23019 -0.748484 0
M  V30 850 H 74.904 4.20706 0.241775 0
M  V30 851 H 73.628 3.14381 0.885004 0
M  V30 852 H 72.287 3.45541 -1.22462 0
M  V30 853 H 71.935 4.97692 0.728816 0
M  V30 854 H 71.635 5.81966 -0.811775 0
M  V30 855 H 73.159 6.10553 0.0757473 0
M  V30 856 H 74.573 5.34794 -2.06563 0
M  V30 857 H 72.97 5.279 -2.8538 0
M  V30 858 H 74.04 3.86726 -2.92525 0
M  V30 859 N 75.3831 0.828654 1.34056 0
M  V30 860 C 76.3131 0.269443 2.3194 0
M  V30 861 C 77.2941 -0.617247 1.58506 0
M  V30 862 O 78.4791 -0.542931 1.86456 0
M  V30 863 C 75.6091 -0.564793 3.42677 0
M  V30 864 C 74.5631 0.225241 4.27407 0
M  V30 865 C 73.8891 -0.7321 5.29664 0
M  V30 866 C 75.1891 1.43663 5.02154 0
M  V30 867 H 76.8831 1.08728 2.7896 0
M  V30 868 H 74.4291 0.524283 1.34117 0
M  V30 869 H 76.3821 -0.966233 4.10173 0
M  V30 870 H 75.1061 -1.41574 2.9432 0
M  V30 871 H 73.7651 0.608117 3.61521 0
M  V30 872 H 73.4131 -1.57916 4.77568 0
M  V30 873 H 73.1131 -0.20767 5.87233 0
M  V30 874 H 74.6371 -1.13128 6.00029 0
M  V30 875 H 76.0511 1.1089 5.62473 0
M  V30 876 H 74.4481 1.89711 5.69324 0
M  V30 877 H 75.5181 2.21181 4.31517 0
M  V30 878 N 76.8612 -1.46375 0.584142 0
M  V30 879 C 78.2772 -1.57694 0.245929 0
M  V30 880 C 78.4772 -1.57903 -1.25175 0
M  V30 881 O 77.5332 -1.49676 -2.03355 0
M  V30 882 C 78.8462 -2.87028 0.896402 0
M  V30 883 C 80.3942 -3.00662 0.870127 0
M  V30 884 C 80.8692 -4.32734 1.50017 0
M  V30 885 N 82.3602 -4.39436 1.46458 0
M  V30 886 C 83.0952 -5.40248 1.92144 0
M  V30 887 N 82.5912 -6.47726 2.4581 0
M  V30 888 N 84.3842 -5.31459 1.83052 0
M  V30 889 H 76.5352 -1.44483 1.55687 0
M  V30 890 H 78.7982 -0.689291 0.650831 0
M  V30 891 H 78.5042 -2.9269 1.95002 0
M  V30 892 H 78.3782 -3.75014 0.405486 0
M  V30 893 H 80.7652 -2.94581 -0.174871 0
M  V30 894 H 80.8462 -2.14148 1.39908 0
M  V30 895 H 80.4902 -4.39573 2.54437 0
M  V30 896 H 80.4202 -5.18025 0.946432 0
M  V30 897 H 82.9112 -3.62367 1.07231 0
M  V30 898 H 83.2242 -7.20863 2.78525 0
M  V30 899 H 81.5692 -6.48542 2.49836 0
M  V30 900 H 84.7602 -4.46396 1.40883 0
M  V30 901 H 84.9332 -6.09881 2.18973 0
M  V30 902 N 78.3393 -0.321999 -1.54275 0
M  V30 903 C 79.5873 0.280489 -2.00144 0
M  V30 904 C 79.9083 1.52777 -1.21178 0
M  V30 905 O 79.1783 1.9338 -0.313187 0
M  V30 906 H 77.7583 0.106632 -0.73935 0
M  V30 907 H 80.4203 -0.438184 -1.8991 0
M  V30 908 H 79.5163 0.537972 -3.07428 0
M  V30 909 N 79.8174 1.5752 -0.0501392 0
M  V30 910 C 80.7274 2.14952 0.939827 0
M  V30 911 C 81.7434 1.10706 1.34239 0
M  V30 912 O 82.9194 1.42869 1.41952 0
M  V30 913 C 79.9844 2.68232 2.19665 0
M  V30 914 C 79.0454 3.87272 1.85253 0
M  V30 915 C 78.2784 4.38002 3.04943 0
M  V30 916 O 78.5014 3.87811 4.18281 0
M  V30 917 O 77.4354 5.29602 2.86017 0
M  V30 918 H 81.2614 2.9986 0.481392 0
M  V30 919 H 78.8464 1.4841 0.171699 0
M  V30 920 H 80.7284 3.02475 2.93406 0
M  V30 921 H 79.4034 1.86395 2.64648 0
M  V30 922 H 78.3104 3.5792 1.0883 0
M  V30 923 H 79.6434 4.70336 1.4507 0
M  V30 924 N 81.2955 -0.223234 1.56011 0
M  V30 925 C 82.5205 -0.968978 1.83373 0
M  V30 926 C 82.9455 -1.77227 0.630254 0
M  V30 927 O 82.3035 -1.76345 -0.420959 0
M  V30 928 C 82.3515 -1.86363 3.08709 0
M  V30 929 O 81.4555 -2.95873 2.87285 0
M  V30 930 H 80.7965 -0.274461 0.604622 0
M  V30 931 H 83.3265 -0.237056 2.03222 0
M  V30 932 H 83.3365 -2.27376 3.38768 0
M  V30 933 H 82.0115 -1.27319 3.95933 0
M  V30 934 H 80.5885 -2.58818 2.68454 0
M  V30 935 N 82.7736 -1.49793 -0.48987 0
M  V30 936 C 83.7216 -1.67783 -1.61095 0
M  V30 937 C 84.7156 -0.543683 -1.60438 0
M  V30 938 O 85.9216 -0.723647 -1.64813 0
M  V30 939 H 82.2966 -0.529255 -0.534222 0
M  V30 940 H 84.2676 -2.61861 -1.43078 0
M  V30 941 C 83.0166 -1.77191 -2.99164 0
M  V30 942 H 82.3396 -2.63841 -3.0038 0
M  V30 943 H 83.7796 -1.93809 -3.77113 0
M  V30 944 C 82.2386 -0.519203 -3.32875 0
M  V30 945 O 82.7686 0.350124 -4.00171 0
M  V30 946 N 80.9746 -0.378816 -2.8812 0
M  V30 947 H 80.5216 -1.08725 -2.33531 0
M  V30 948 H 80.4796 0.458239 -3.11043 0
M  V30 949 N 84.2517 0.741722 -1.39055 0
M  V30 950 C 85.1817 1.869 -1.39966 0
M  V30 951 C 86.1627 1.6804 -0.26392 0
M  V30 952 O 87.3477 1.88458 -0.468755 0
M  V30 953 C 84.4777 3.24572 -1.23574 0
M  V30 954 C 83.4317 3.58056 -2.34477 0
M  V30 955 C 82.7577 4.94593 -2.0318 0
M  V30 956 C 84.0577 3.61716 -3.76774 0
M  V30 957 H 85.7517 1.86395 -2.34302 0
M  V30 958 H 83.2977 0.895361 -1.1278 0
M  V30 959 H 85.2507 4.031 -1.22834 0
M  V30 960 H 83.9747 3.25587 -0.257045 0
M  V30 961 H 82.6337 2.81854 -2.34423 0
M  V30 962 H 82.2817 4.92181 -1.03765 0
M  V30 963 H 81.9817 5.17964 -2.77465 0
M  V30 964 H 83.5057 5.75486 -2.04079 0
M  V30 965 H 84.9197 4.30335 -3.78794 0
M  V30 966 H 83.3167 3.96603 -4.50362 0
M  V30 967 H 84.3867 2.61672 -4.08235 0
M  V30 968 N 85.7298 1.2412 0.971189 0
M  V30 969 C 86.9768 1.07881 1.71371 0
M  V30 970 C 87.3048 -0.382901 1.90694 0
M  V30 971 O 86.5598 -1.29945 1.46331 0
M  V30 972 C 86.8588 1.75983 3.11071 0
M  V30 973 C 86.5248 3.25909 3.11599 0
M  V30 974 C 85.1868 3.66813 3.11451 0
M  V30 975 C 87.5388 4.21771 3.062 0
M  V30 976 C 84.8668 5.02021 3.03631 0
M  V30 977 C 87.2188 5.56982 2.99923 0
M  V30 978 C 85.8828 5.97237 2.98102 0
M  V30 979 H 85.1528 0.394764 0.62709 0
M  V30 980 H 87.7998 1.54176 1.13587 0
M  V30 981 H 86.1048 1.22072 3.72298 0
M  V30 982 H 87.8018 1.60887 3.6731 0
M  V30 983 H 84.3918 2.93353 3.12477 0
M  V30 984 H 88.5758 3.91172 3.05447 0
M  V30 985 H 83.8318 5.32411 3.0058 0
M  V30 986 H 88.0058 6.30969 2.94704 0
M  V30 987 H 85.6328 7.01967 2.91798 0
M  V30 988 N 87.2079 -1.17134 1.05439 0
M  V30 989 C 88.4379 -1.91094 0.785274 0
M  V30 990 C 88.8459 -1.77198 -0.663142 0
M  V30 991 O 88.1889 -1.10835 -1.46497 0
M  V30 992 C 88.2509 -3.42594 1.08949 0
M  V30 993 C 87.9149 -3.80274 2.53458 0
M  V30 994 C 88.9119 -3.82912 3.51673 0
M  V30 995 C 86.5969 -4.11162 2.88532 0
M  V30 996 C 88.5909 -4.15913 4.83006 0
M  V30 997 C 86.2779 -4.43831 4.20068 0
M  V30 998 C 87.2759 -4.46185 5.17115 0
M  V30 999 O 86.9639 -4.78083 6.46291 0
M  V30 1000 H 86.6959 -0.613073 0.284811 0
M  V30 1001 H 89.2499 -1.49461 1.40893 0
M  V30 1002 H 87.4799 -3.84534 0.408741 0
M  V30 1003 H 89.1689 -3.97817 0.805991 0
M  V30 1004 H 89.9349 -3.5917 3.25917 0
M  V30 1005 H 85.8139 -4.085 2.13656 0
M  V30 1006 H 89.3579 -4.17665 5.5875 0
M  V30 1007 H 85.2549 -4.67037 4.45586 0
M  V30 1008 H 86.0229 -4.9593 6.51149 0
M  V30 1009 N 88.686 -0.835752 -1.33615 0
M  V30 1010 C 89.914 -0.443344 -2.02094 0
M  V30 1011 C 90.329 0.954522 -1.62894 0
M  V30 1012 O 89.686 1.61982 -0.840723 0
M  V30 1013 C 89.737 -0.550775 -3.5728 0
M  V30 1014 O 89.458 -1.89356 -3.95065 0
M  V30 1015 C 90.959 -0.154919 -4.43029 0
M  V30 1016 H 88.179 -0.176359 -0.647409 0
M  V30 1017 H 90.723 -1.12746 -1.70612 0
M  V30 1018 H 88.878 0.0853997 -3.87306 0
M  V30 1019 H 89.292 -1.87687 -4.89769 0
M  V30 1020 H 90.766 -0.281144 -5.51284 0
M  V30 1021 H 91.243 0.902863 -4.2982 0
M  V30 1022 H 91.849 -0.765404 -4.18356 0
M  V30 1023 N 90.1641 1.46063 -0.591896 0
M  V30 1024 C 91.0941 2.33172 0.123673 0
M  V30 1025 C 92.0751 1.45897 0.87453 0
M  V30 1026 O 93.2601 1.74698 0.848181 0
M  V30 1027 C 90.3901 3.28336 1.13194 0
M  V30 1028 C 89.3441 4.25124 0.495324 0
M  V30 1029 C 88.6701 5.09863 1.61071 0
M  V30 1030 C 89.9701 5.19143 -0.573425 0
M  V30 1031 H 91.6641 2.93252 -0.603646 0
M  V30 1032 H 89.2101 1.41014 -0.291741 0
M  V30 1033 H 91.1631 3.88137 1.64097 0
M  V30 1034 H 89.8871 2.66383 1.88965 0
M  V30 1035 H 88.5461 3.66599 0.00729452 0
M  V30 1036 H 88.1941 4.44288 2.35832 0
M  V30 1037 H 87.8941 5.75417 1.19035 0
M  V30 1038 H 89.4181 5.72529 2.12233 0
M  V30 1039 H 90.8321 5.73106 -0.1491 0
M  V30 1040 H 89.2291 5.93089 -0.914636 0
M  V30 1041 H 90.2991 4.62519 -1.45617 0
M  V30 1042 N 91.6422 0.330177 1.54103 0
M  V30 1043 C 92.6052 -0.520144 2.2322 0
M  V30 1044 C 93.6052 -1.03828 1.22786 0
M  V30 1045 O 94.7952 -0.929652 1.4732 0
M  V30 1046 C 91.9272 -1.72317 2.94142 0
M  V30 1047 H 93.1202 0.0841605 2.99782 0
M  V30 1048 H 90.6732 0.0813433 1.56088 0
M  V30 1049 H 91.4082 -2.36653 2.21734 0
M  V30 1050 H 91.1932 -1.35898 3.67796 0
M  V30 1051 H 92.6832 -2.3266 3.46784 0
M  V30 1052 N 93.1203 -1.57491 0.0584922 0
M  V30 1053 C 94.0673 -2.11958 -0.913376 0
M  V30 1054 C 95.0373 -1.02875 -1.30407 0
M  V30 1055 O 96.2223 -1.30464 -1.39226 0
M  V30 1056 C 93.3623 -2.67497 -2.18035 0
M  V30 1057 C 92.4753 -3.90691 -1.84349 0
M  V30 1058 C 91.6103 -4.3452 -3.05559 0
M  V30 1059 C 90.6493 -5.50395 -2.67827 0
M  V30 1060 N 89.7863 -5.89244 -3.81754 0
M  V30 1061 H 94.6263 -2.94704 -0.442017 0
M  V30 1062 H 92.1633 -1.45643 -0.206545 0
M  V30 1063 H 94.1213 -2.978 -2.92183 0
M  V30 1064 H 92.7513 -1.87537 -2.62735 0
M  V30 1065 H 91.8033 -3.66934 -1.00319 0
M  V30 1066 H 93.1153 -4.7489 -1.5258 0
M  V30 1067 H 92.2693 -4.66414 -3.87998 0
M  V30 1068 H 91.0083 -3.49147 -3.40511 0
M  V30 1069 H 90.0133 -5.18165 -1.83806 0
M  V30 1070 H 91.2383 -6.3749 -2.34059 0
M  V30 1071 H 89.1843 -5.06823 -4.16493 0
M  V30 1072 H 89.1013 -6.68151 -3.53708 0
M  V30 1073 H 90.3693 -6.25756 -4.64811 0
M  V30 1074 N 94.5984 0.214957 -1.56127 0
M  V30 1075 C 95.8444 0.935325 -1.80619 0
M  V30 1076 C 96.1994 1.81706 -0.632507 0
M  V30 1077 O 95.4924 1.87931 0.373182 0
M  V30 1078 C 95.6864 1.80314 -3.0858 0
M  V30 1079 C 95.5154 1.00691 -4.38282 0
M  V30 1080 C 94.2854 0.699211 -5.00439 0
M  V30 1081 C 96.4834 0.369057 -5.12974 0
M  V30 1082 N 94.4654 -0.117734 -6.13787 0
M  V30 1083 C 95.8364 -0.310981 -6.1922 0
M  V30 1084 C 97.8914 0.282759 -4.97096 0
M  V30 1085 C 96.5944 -1.06907 -7.11311 0
M  V30 1086 C 98.6204 -0.461881 -5.89594 0
M  V30 1087 C 97.9824 -1.13044 -6.9527 0
M  V30 1088 H 94.0814 0.322307 -0.71249 0
M  V30 1089 H 96.6654 0.205649 -1.93611 0
M  V30 1090 H 94.8364 2.50458 -2.96859 0
M  V30 1091 H 96.5684 2.46148 -3.21237 0
M  V30 1092 H 93.3234 1.01884 -4.62511 0
M  V30 1093 H 93.7474 -0.515235 -6.75037 0
M  V30 1094 H 98.3894 0.785292 -4.15443 0
M  V30 1095 H 96.1074 -1.5831 -7.92442 0
M  V30 1096 H 99.6934 -0.529746 -5.79383 0
M  V30 1097 H 98.5734 -1.69742 -7.65609 0
M  V30 1098 N 96.0765 1.50051 0.48192 0
M  V30 1099 C 96.9865 1.7089 1.60728 0
M  V30 1100 C 98.0025 0.591788 1.63627 0
M  V30 1101 O 99.1785 0.868817 1.81696 0
M  V30 1102 C 96.2435 1.78855 2.97005 0
M  V30 1103 C 95.3045 3.02537 3.04581 0
M  V30 1104 C 94.5375 3.10112 4.34357 0
M  V30 1105 O 94.7605 2.24765 5.24249 0
M  V30 1106 O 93.6945 4.02747 4.47301 0
M  V30 1107 H 97.5205 2.66264 1.46072 0
M  V30 1108 H 95.1055 1.34018 0.660264 0
M  V30 1109 H 96.9875 1.86336 3.77964 0
M  V30 1110 H 95.6625 0.866628 3.11883 0
M  V30 1111 H 94.5695 3.00563 2.22739 0
M  V30 1112 H 95.9025 3.94272 2.94636 0
M  V30 1113 N 97.5546 -0.734337 1.39446 0
M  V30 1114 C 98.5026 -1.86971 1.38364 0
M  V30 1115 C 99.4966 -1.67288 0.266687 0
M  V30 1116 O 100.703 -1.74621 0.436755 0
M  V30 1117 H 97.0776 -0.615474 0.432082 0
M  V30 1118 H 99.0486 -1.85 2.34132 0
M  V30 1119 C 97.7976 -3.2466 1.24465 0
M  V30 1120 H 97.1206 -3.40402 2.09682 0
M  V30 1121 H 98.5606 -4.04292 1.27764 0
M  V30 1122 C 97.0196 -3.36867 -0.0468674 0
M  V30 1123 O 97.5496 -3.88618 -1.01681 0
M  V30 1124 N 95.7556 -2.90391 -0.110145 0
M  V30 1125 H 95.3026 -2.48466 0.679868 0
M  V30 1126 H 95.2606 -2.98939 -0.973799 0
M  V30 1127 N 99.0327 -1.24633 -0.964593 0
M  V30 1128 C 99.9807 -1.03917 -2.08096 0
M  V30 1129 C 100.975 0.0268581 -1.69379 0
M  V30 1130 O 102.181 -0.127952 -1.79545 0
M  V30 1131 H 98.5557 -0.319044 -0.680966 0
M  V30 1132 H 100.527 -1.98581 -2.22729 0
M  V30 1133 C 99.2757 -0.663983 -3.41301 0
M  V30 1134 H 98.5987 -1.47605 -3.71555 0
M  V30 1135 H 100.039 -0.558663 -4.20303 0
M  V30 1136 C 98.4977 0.629169 -3.30973 0
M  V30 1137 O 99.0277 1.67404 -3.65156 0
M  V30 1138 N 97.2337 0.611057 -2.84103 0
M  V30 1139 H 96.7807 -0.239593 -2.56483 0
M  V30 1140 H 96.7387 1.47647 -2.77575 0
M  V30 1141 N 100.511 1.16574 -1.06058 0
M  V30 1142 C 101.458 2.20883 -0.669263 0
M  V30 1143 C 102.428 1.62729 0.332918 0
M  V30 1144 O 103.613 1.895 0.222346 0
M  V30 1145 C 100.753 3.45049 -0.0593572 0
M  V30 1146 C 99.8658 4.17458 -1.11143 0
M  V30 1147 C 99.0008 5.29135 -0.467916 0
M  V30 1148 C 98.0398 5.93343 -1.50369 0
M  V30 1149 N 97.1768 6.96516 -0.883706 0
M  V30 1150 H 102.017 2.53709 -1.5632 0
M  V30 1151 H 99.5538 1.24616 -0.781625 0
M  V30 1152 H 101.512 4.16033 0.311771 0
M  V30 1153 H 100.142 3.12781 0.797992 0
M  V30 1154 H 99.1938 3.45101 -1.60029 0
M  V30 1155 H 100.506 4.61307 -1.89731 0
M  V30 1156 H 99.6598 6.06684 -0.0436871 0
M  V30 1157 H 98.3988 4.86443 0.349864 0
M  V30 1158 H 97.4038 5.14517 -1.93784 0
M  V30 1159 H 98.6288 6.38114 -2.32352 0
M  V30 1160 H 96.5748 6.55943 -0.086595 0
M  V30 1161 H 96.4918 7.38723 -1.607 0
M  V30 1162 H 97.7598 7.77993 -0.484543 0
M  V30 1163 N 101.989 0.842826 1.3317 0
M  V30 1164 C 102.919 0.294028 2.31641 0
M  V30 1165 C 103.9 -0.600401 1.59151 0
M  V30 1166 O 105.085 -0.523124 1.87022 0
M  V30 1167 C 102.215 -0.528416 3.43257 0
M  V30 1168 C 101.169 0.27056 4.27144 0
M  V30 1169 C 100.495 -0.675881 5.30411 0
M  V30 1170 C 101.795 1.48981 5.00602 0
M  V30 1171 H 103.489 1.11681 2.77791 0
M  V30 1172 H 101.035 0.538478 1.33553 0
M  V30 1173 H 102.988 -0.922674 4.11175 0
M  V30 1174 H 101.712 -1.38445 2.95805 0
M  V30 1175 H 100.371 0.646427 3.60856 0
M  V30 1176 H 100.019 -1.52842 4.79216 0
M  V30 1177 H 99.7189 -0.145374 5.8742 0
M  V30 1178 H 101.243 -1.06757 6.01195 0
M  V30 1179 H 102.657 1.16849 5.61266 0
M  V30 1180 H 101.054 1.95739 5.6728 0
M  V30 1181 H 102.124 2.25746 4.29147 0
M  V30 1182 N 103.467 -1.45747 0.599634 0
M  V30 1183 C 104.417 -2.27538 -0.145107 0
M  V30 1184 C 105.401 -1.3686 -0.846055 0
M  V30 1185 O 106.593 -1.6091 -0.737357 0
M  V30 1186 C 103.722 -3.23569 -1.14708 0
M  V30 1187 C 102.808 -4.21734 -0.447383 0
M  V30 1188 N 103.199 -5.03257 0.506535 0
M  V30 1189 C 101.497 -4.40536 -0.695966 0
M  V30 1190 C 102.198 -5.74426 0.917068 0
M  V30 1191 N 101.174 -5.42966 0.26253 0
M  V30 1192 H 104.976 -2.87965 0.587672 0
M  V30 1193 H 102.49 -1.56803 0.422697 0
M  V30 1194 H 104.487 -3.8089 -1.69495 0
M  V30 1195 H 103.147 -2.64702 -1.8805 0
M  V30 1196 H 104.158 -5.10319 0.882899 0
M  V30 1197 H 100.835 -3.92802 -1.41467 0
M  V30 1198 H 102.225 -6.4995 1.70338 0
M  V30 1199 N 104.945 -0.338344 -1.53925 0
M  V30 1200 C 106.191 0.260143 -2.01125 0
M  V30 1201 C 106.524 1.50617 -1.22589 0
M  V30 1202 O 105.799 1.91979 -0.312113 0
M  V30 1203 C 106.082 0.579499 -3.55407 0
M  V30 1204 C 105.935 -0.678264 -4.44657 0
M  V30 1205 C 107.254 1.39122 -4.17532 0
M  V30 1206 H 104.373 0.0930772 -0.731099 0
M  V30 1207 H 107.015 -0.457852 -1.84401 0
M  V30 1208 H 105.165 1.19118 -3.69788 0
M  V30 1209 H 106.837 -1.31631 -4.42121 0
M  V30 1210 H 105.08 -1.3042 -4.13731 0
M  V30 1211 H 105.751 -0.410143 -5.50474 0
M  V30 1212 H 108.227 0.874035 -4.06817 0
M  V30 1213 H 107.103 1.58342 -5.25565 0
M  V30 1214 H 107.364 2.39178 -3.71815 0
M  V30 1215 N 106.423 1.57458 -0.0668435 0
M  V30 1216 C 107.333 2.15937 0.916975 0
M  V30 1217 C 108.349 1.12123 1.33058 0
M  V30 1218 O 109.525 1.44366 1.40429 0
M  V30 1219 C 106.59 2.70547 2.16807 0
M  V30 1220 C 105.651 3.89215 1.81135 0
M  V30 1221 C 104.884 4.41211 3.0028 0
M  V30 1222 O 105.107 3.92225 4.14144 0
M  V30 1223 O 104.041 5.32605 2.80384 0
M  V30 1224 H 107.867 3.00354 0.449561 0
M  V30 1225 H 105.452 1.48584 0.155949 0
M  V30 1226 H 107.334 3.0557 2.90181 0
M  V30 1227 H 106.009 1.89192 2.62656 0
M  V30 1228 H 104.916 3.59054 1.05028 0
M  V30 1229 H 106.249 4.71848 1.40073 0
M  V30 1230 N 107.901 -0.206675 1.56239 0
M  V30 1231 C 108.831 -1.25909 1.96645 0
M  V30 1232 C 109.812 -1.48097 0.836734 0
M  V30 1233 O 110.997 -1.6003 1.10019 0
M  V30 1234 C 108.127 -2.6058 2.29599 0
M  V30 1235 C 107.081 -2.53024 3.452 0
M  V30 1236 C 106.407 -3.91861 3.63798 0
M  V30 1237 C 107.707 -2.06524 4.79734 0
M  V30 1238 H 109.401 -0.923369 2.84806 0
M  V30 1239 H 106.947 -0.442735 1.37025 0
M  V30 1240 H 108.9 -3.34375 2.56459 0
M  V30 1241 H 107.624 -2.95869 1.38307 0
M  V30 1242 H 106.283 -1.81684 3.18412 0
M  V30 1243 H 105.931 -4.24483 2.69857 0
M  V30 1244 H 105.631 -3.87683 4.4156 0
M  V30 1245 H 107.155 -4.67296 3.93022 0
M  V30 1246 H 108.569 -2.70072 5.05702 0
M  V30 1247 H 106.966 -2.13374 5.60885 0
M  V30 1248 H 108.036 -1.01802 4.74093 0
M  V30 1249 N 109.379 -1.50304 -0.473955 0
M  V30 1250 C 110.79 -1.54042 -1.0549 0
M  V30 1251 C 111.141 -0.342248 -1.93192 0
M  V30 1252 O 110.266 0.545157 -2.09421 0
M  V30 1253 C 110.861 -2.79152 -1.91989 0
M  V30 1254 C 109.42 -2.8558 -2.45196 0
M  V30 1255 C 108.567 -2.48295 -1.2347 0
M  V30 1256 H 111.518 -1.5661 -0.256693 0
M  V30 1257 H 111.539 -2.60845 -2.7702 0
M  V30 1258 H 111.051 -3.66339 -1.28131 0
M  V30 1259 H 109.152 -2.02738 -3.12615 0
M  V30 1260 H 109.265 -3.88403 -2.80499 0
M  V30 1261 H 107.629 -2.00669 -1.56856 0
M  V30 1262 H 108.412 -3.37787 -0.612789 0
M  V30 1263 N 110.857 0.726932 -1.39834 0
M  V30 1264 C 111.767 1.87131 -1.41489 0
M  V30 1265 C 112.783 1.71239 -0.308757 0
M  V30 1266 O 113.959 1.93701 -0.551529 0
M  V30 1267 C 111.024 3.22811 -1.26468 0
M  V30 1268 C 110.085 3.51039 -2.47124 0
M  V30 1269 C 109.318 4.80245 -2.3281 0
M  V30 1270 O 109.541 5.54537 -1.33585 0
M  V30 1271 O 108.475 5.08554 -3.21957 0
M  V30 1272 H 112.301 1.8869 -2.3797 0
M  V30 1273 H 109.886 0.875837 -1.21035 0
M  V30 1274 H 111.768 4.03877 -1.20255 0
M  V30 1275 H 110.443 3.22005 -0.330862 0
M  V30 1276 H 109.35 2.70027 -2.58914 0
M  V30 1277 H 110.683 3.56632 -3.39227 0
M  V30 1278 N 112.336 1.25143 0.95797 0
M  V30 1279 C 113.284 1.05019 2.07542 0
M  V30 1280 C 114.278 -0.0178751 1.69391 0
M  V30 1281 O 115.484 0.137472 1.79474 0
M  V30 1282 H 111.859 0.32265 0.679265 0
M  V30 1283 H 113.83 1.99759 2.21673 0
M  V30 1284 C 112.579 0.682074 3.40944 0
M  V30 1285 H 111.902 1.49573 3.70767 0
M  V30 1286 H 113.342 0.580945 4.20001 0
M  V30 1287 C 111.801 -0.611608 3.31302 0
M  V30 1288 O 112.331 -1.65465 3.66038 0
M  V30 1289 N 110.537 -0.595982 2.84423 0
M  V30 1290 H 110.084 0.253192 2.56353 0
M  V30 1291 H 110.042 -1.46173 2.78354 0
M  V30 1292 N 113.814 -1.1601 1.06675 0
M  V30 1293 C 115.063 -1.85973 0.780818 0
M  V30 1294 C 115.376 -1.82819 -0.695444 0
M  V30 1295 O 116.582 -2.484 -1.09589 0
M  V30 1296 C 115.038 -3.33757 1.34665 0
M  V30 1297 C 114.646 -3.45374 2.85343 0
M  V30 1298 C 116.39 -4.0895 1.13843 0
M  V30 1299 C 114.297 -4.87266 3.35151 0
M  V30 1300 H 113.227 -0.696661 0.288407 0
M  V30 1301 H 115.878 -1.30903 1.28595 0
M  V30 1302 H 114.26 -3.88456 0.769274 0
M  V30 1303 H 115.434 -3.00816 3.49065 0
M  V30 1304 H 113.749 -2.83619 3.04876 0
M  V30 1305 H 116.346 -5.13654 1.4854 0
M  V30 1306 H 116.689 -4.16229 0.0770282 0
M  V30 1307 H 117.222 -3.605 1.68179 0
M  V30 1308 H 113.961 -4.85168 4.40786 0
M  V30 1309 H 113.481 -5.32433 2.76179 0
M  V30 1310 H 115.16 -5.56097 3.30704 0
M  V30 1311 N 115.292 -0.849877 -1.32721 0
M  V30 1312 C 116.569 -0.372405 -1.92022 0
M  V30 1313 C 116.949 1.1435 -1.77447 0
M  V30 1314 O 116.297 1.96296 -1.16962 0
M  V30 1315 C 116.507 -0.831482 -3.3895 0
M  V30 1316 C 117.855 -0.845882 -4.16089 0
M  V30 1317 O 118.879 -0.775806 -3.47649 0
M  V30 1318 O 117.738 -0.943753 -5.38289 0
M  V30 1319 H 114.832 -0.107667 -0.819961 0
M  V30 1320 H 117.378 -0.93646 -1.41522 0
M  V30 1321 H 116.15 -1.87448 -3.4348 0
M  V30 1322 H 115.773 -0.24461 -3.96847 0
M  V30 1323 N 116.77 1.45427 -0.607355 0
M  V30 1324 C 117.717 2.3053 0.111625 0
M  V30 1325 C 118.687 1.4209 0.860216 0
M  V30 1326 O 119.872 1.71019 0.845998 0
M  V30 1327 C 117.012 3.26992 1.10319 0
M  V30 1328 C 116.125 4.30535 0.355493 0
M  V30 1329 C 115.26 5.14105 1.33676 0
M  V30 1330 C 114.299 6.09376 0.576862 0
M  V30 1331 N 113.436 6.85727 1.5074 0
M  V30 1332 H 118.276 2.91477 -0.620093 0
M  V30 1333 H 115.813 1.43631 -0.317594 0
M  V30 1334 H 117.771 3.81385 1.6912 0
M  V30 1335 H 116.401 2.67799 1.80232 0
M  V30 1336 H 115.453 3.78805 -0.348023 0
M  V30 1337 H 116.765 4.98235 -0.237423 0
M  V30 1338 H 115.919 5.72897 1.99684 0
M  V30 1339 H 114.658 4.46423 1.9636 0
M  V30 1340 H 113.663 5.49715 -0.0968519 0
M  V30 1341 H 114.888 6.79085 -0.0449341 0
M  V30 1342 H 112.834 6.20735 2.12189 0
M  V30 1343 H 112.751 7.49778 0.967913 0
M  V30 1344 H 114.019 7.4906 2.15706 0
M  V30 1345 N 118.248 0.346503 1.53744 0
M  V30 1346 C 119.18 -0.543316 2.22667 0
M  V30 1347 C 120.193 -1.06159 1.23427 0
M  V30 1348 O 121.382 -0.971235 1.49764 0
M  V30 1349 C 118.482 -1.76076 2.89569 0
M  V30 1350 C 117.655 -1.37727 4.15151 0
M  V30 1351 C 116.714 -2.45471 4.65436 0
M  V30 1352 O 115.74 -2.08655 5.29577 0
M  V30 1353 N 116.942 -3.7677 4.41616 0
M  V30 1354 H 119.707 0.0469703 2.99663 0
M  V30 1355 H 117.268 0.170766 1.60997 0
M  V30 1356 H 119.26 -2.47593 3.20125 0
M  V30 1357 H 117.83 -2.25835 2.16142 0
M  V30 1358 H 117.05 -0.492746 3.91108 0
M  V30 1359 H 118.338 -1.09708 4.96832 0
M  V30 1360 H 117.736 -4.09467 3.90325 0
M  V30 1361 H 116.293 -4.44448 4.7677 0
M  V30 1362 N 119.726 -1.57421 0.075193 0
M  V30 1363 C 120.951 -1.98364 -0.605515 0
M  V30 1364 C 121.376 -0.953383 -1.62149 0
M  V30 1365 O 120.734 0.0806053 -1.81121 0
M  V30 1366 C 120.782 -3.38332 -1.24756 0
M  V30 1367 O 119.886 -3.37959 -2.36342 0
M  V30 1368 H 119.227 -0.645553 -0.155428 0
M  V30 1369 H 121.757 -2.04044 0.150714 0
M  V30 1370 H 121.767 -3.75591 -1.5936 0
M  V30 1371 H 120.442 -4.12846 -0.503129 0
M  V30 1372 H 119.019 -3.12474 -2.03506 0
M  V30 1373 N 121.204 0.198386 -1.56346 0
M  V30 1374 C 122.615 0.763358 -1.70381 0
M  V30 1375 C 122.966 1.83995 -0.681203 0
M  V30 1376 O 122.091 2.15785 0.16305 0
M  V30 1377 C 122.686 1.39143 -3.08909 0
M  V30 1378 C 121.245 1.90352 -3.2472 0
M  V30 1379 C 120.392 0.772233 -2.6633 0
M  V30 1380 H 123.343 -0.0266377 -1.58678 0
M  V30 1381 H 123.364 2.26076 -3.06055 0
M  V30 1382 H 122.876 0.607638 -3.83314 0
M  V30 1383 H 120.977 2.71461 -2.55225 0
M  V30 1384 H 121.09 2.06757 -4.3219 0
M  V30 1385 H 119.454 1.18566 -2.2542 0
M  V30 1386 H 120.237 0.00073556 -3.433 0
M  V30 1387 N 122.682 1.50554 0.465978 0
M  V30 1388 C 123.91 1.65563 1.24083 0
M  V30 1389 C 124.325 0.341051 1.85694 0
M  V30 1390 O 123.682 -0.677543 1.69457 0
M  V30 1391 C 123.733 2.75051 2.34583 0
M  V30 1392 O 123.454 4.01413 1.75497 0
M  V30 1393 C 124.955 3.01078 3.25372 0
M  V30 1394 H 122.175 0.55638 0.375077 0
M  V30 1395 H 124.719 1.96807 0.555624 0
M  V30 1396 H 122.874 2.46486 2.9887 0
M  V30 1397 H 123.288 4.62002 2.48303 0
M  V30 1398 H 124.762 3.81339 3.99105 0
M  V30 1399 H 125.239 2.12349 3.84453 0
M  V30 1400 H 125.845 3.31194 2.66816 0
M  V30 1401 N 124.16 -0.719506 1.40217 0
M  V30 1402 C 125.093 -1.84298 1.34571 0
M  V30 1403 C 126.071 -1.61149 0.216741 0
M  V30 1404 O 127.255 -1.84212 0.399756 0
M  V30 1405 C 124.382 -3.20568 1.09335 0
M  V30 1406 C 123.428 -3.62551 2.24631 0
M  V30 1407 S 124.261 -3.7012 3.87004 0
M  V30 1408 C 125.417 -5.09154 3.64024 0
M  V30 1409 H 125.65 -1.88807 2.2965 0
M  V30 1410 H 123.183 -0.885901 1.26456 0
M  V30 1411 H 125.141 -3.99246 0.954602 0
M  V30 1412 H 123.802 -3.13696 0.159164 0
M  V30 1413 H 122.995 -4.61483 2.02606 0
M  V30 1414 H 122.597 -2.91119 2.34789 0
M  V30 1415 H 124.889 -5.95955 3.22248 0
M  V30 1416 H 125.832 -5.36213 4.62473 0
M  V30 1417 H 126.24 -4.79562 2.97793 0
M  V30 1418 N 125.638 -1.25649 -0.95132 0
M  V30 1419 C 126.866 -1.13343 -1.73092 0
M  V30 1420 C 127.281 0.312434 -1.86197 0
M  V30 1421 O 126.638 1.21465 -1.36207 0
M  V30 1422 C 126.689 -1.78602 -3.14299 0
M  V30 1423 O 126.41 -3.17537 -3.01831 0
M  V30 1424 C 127.911 -1.72119 -4.08522 0
M  V30 1425 H 125.131 -0.395181 -0.542285 0
M  V30 1426 H 127.675 -1.66076 -1.19328 0
M  V30 1427 H 125.83 -1.29832 -3.64996 0
M  V30 1428 H 126.244 -3.49676 -3.90931 0
M  V30 1429 H 127.718 -2.22435 -5.052 0
M  V30 1430 H 128.195 -0.685635 -4.33815 0
M  V30 1431 H 128.801 -2.20393 -3.63741 0
M  V30 1432 N 127.117 1.15442 -1.07289 0
M  V30 1433 C 128.047 2.22312 -0.714107 0
M  V30 1434 C 129.028 1.67467 0.298155 0
M  V30 1435 O 130.213 1.93445 0.171048 0
M  V30 1436 C 127.343 3.47124 -0.110448 0
M  V30 1437 C 126.297 4.14926 -1.04979 0
M  V30 1438 C 125.623 5.33807 -0.308924 0
M  V30 1439 C 126.923 4.64762 -2.38314 0
M  V30 1440 H 128.617 2.5258 -1.6076 0
M  V30 1441 H 126.163 1.21404 -0.77441 0
M  V30 1442 H 128.116 4.21124 0.152482 0
M  V30 1443 H 126.84 3.16187 0.81812 0
M  V30 1444 H 125.499 3.42866 -1.29764 0
M  V30 1445 H 125.147 4.99126 0.623084 0
M  V30 1446 H 124.847 5.80113 -0.935036 0
M  V30 1447 H 126.371 6.10576 -0.0537771 0
M  V30 1448 H 127.785 5.30292 -2.1786 0
M  V30 1449 H 126.182 5.21728 -2.96514 0
M  V30 1450 H 127.252 3.80434 -3.00663 0
M  V30 1451 N 128.595 0.856903 1.32268 0
M  V30 1452 C 129.844 0.457599 1.96441 0
M  V30 1453 C 130.157 -0.992426 1.68553 0
M  V30 1454 O 131.363 -1.49727 2.26482 0
M  V30 1455 C 129.819 0.767358 3.51624 0
M  V30 1456 C 129.427 2.23326 3.88367 0
M  V30 1457 C 131.171 0.435887 4.22256 0
M  V30 1458 C 129.078 2.48613 5.36606 0
M  V30 1459 H 128.008 0.167387 0.735185 0
M  V30 1460 H 130.659 1.048 1.5063 0
M  V30 1461 H 129.041 0.106367 3.95857 0
M  V30 1462 H 130.215 2.93623 3.55137 0
M  V30 1463 H 128.53 2.52948 3.30766 0
M  V30 1464 H 131.127 0.602202 5.31298 0
M  V30 1465 H 131.47 -0.622672 4.11617 0
M  V30 1466 H 132.003 1.05286 3.83614 0
M  V30 1467 H 128.742 3.53101 5.52268 0
M  V30 1468 H 128.262 1.82896 5.71235 0
M  V30 1469 H 129.941 2.32676 6.03714 0
M  V30 1470 N 130.073 -1.45103 0.615059 0
M  V30 1471 C 131.303 -2.06254 0.119596 0
M  V30 1472 C 131.711 -1.4591 -1.20445 0
M  V30 1473 O 131.054 -0.570384 -1.7462 0
M  V30 1474 C 131.116 -3.59396 -0.0865591 0
M  V30 1475 C 130.78 -4.42116 1.15683 0
M  V30 1476 C 131.777 -4.7662 2.07676 0
M  V30 1477 C 129.462 -4.82749 1.38775 0
M  V30 1478 C 131.456 -5.50622 3.21082 0
M  V30 1479 C 129.143 -5.56504 2.52481 0
M  V30 1480 C 130.141 -5.90358 3.43463 0
M  V30 1481 O 129.829 -6.62615 4.55189 0
M  V30 1482 H 129.561 -0.672423 0.0694512 0
M  V30 1483 H 132.115 -1.87219 0.844885 0
M  V30 1484 H 130.345 -3.76859 -0.866823 0
M  V30 1485 H 132.034 -4.02365 -0.534555 0
M  V30 1486 H 132.8 -4.4578 1.91063 0
M  V30 1487 H 128.679 -4.55829 0.688545 0
M  V30 1488 H 132.223 -5.76965 3.92119 0
M  V30 1489 H 128.12 -5.86759 2.69043 0
M  V30 1490 H 128.888 -6.81071 4.53966 0
M  V30 1491 N 131.551 -0.354651 -1.53558 0
M  V30 1492 C 132.828 0.294281 -1.93374 0
M  V30 1493 C 133.208 1.67313 -1.28723 0
M  V30 1494 O 132.556 2.24179 -0.442247 0
M  V30 1495 C 132.766 0.355445 -3.47185 0
M  V30 1496 C 134.114 0.601007 -4.20325 0
M  V30 1497 O 135.138 0.437106 -3.53508 0
M  V30 1498 O 133.997 0.919322 -5.38712 0
M  V30 1499 H 131.091 0.174033 -0.808481 0
M  V30 1500 H 133.637 -0.406638 -1.64756 0
M  V30 1501 H 132.409 -0.611729 -3.86489 0
M  V30 1502 H 132.032 1.1027 -3.82003 0
M  V30 1503 N 133.029 1.57378 -0.0835403 0
M  V30 1504 C 133.939 2.16897 0.894021 0
M  V30 1505 C 134.955 1.13528 1.31861 0
M  V30 1506 O 136.131 1.45848 1.3889 0
M  V30 1507 C 133.196 2.72831 2.13925 0
M  V30 1508 C 132.257 3.91115 1.76997 0
M  V30 1509 C 131.49 4.44371 2.95584 0
M  V30 1510 O 131.713 3.96596 4.09961 0
M  V30 1511 O 130.647 5.35549 2.74719 0
M  V30 1512 H 134.473 3.00814 0.417679 0
M  V30 1513 H 132.058 1.48741 0.140181 0
M  V30 1514 H 133.94 3.0863 2.86924 0
M  V30 1515 H 132.615 1.91967 2.60635 0
M  V30 1516 H 131.522 3.60148 1.01214 0
M  V30 1517 H 132.855 4.73307 1.3506 0
M  V30 1518 N 134.507 -0.190092 1.56449 0
M  V30 1519 C 135.455 -1.25501 1.95837 0
M  V30 1520 C 136.449 -1.4685 0.844485 0
M  V30 1521 O 137.655 -1.47651 1.02952 0
M  V30 1522 H 134.03 -0.421447 0.622805 0
M  V30 1523 H 136.001 -0.895821 2.84636 0
M  V30 1524 C 134.75 -2.59124 2.31841 0
M  V30 1525 H 134.073 -2.43514 3.17082 0
M  V30 1526 H 135.513 -3.32371 2.6326 0
M  V30 1527 C 133.972 -3.16488 1.15486 0
M  V30 1528 O 134.502 -3.99365 0.432535 0
M  V30 1529 N 132.708 -2.75305 0.930349 0
M  V30 1530 H 132.255 -2.08013 1.51948 0
M  V30 1531 H 132.213 -3.14024 0.153634 0
M  V30 1532 N 135.985 -1.50799 -0.457987 0
M  V30 1533 C 137.233 -1.62121 -1.2067 0
M  V30 1534 C 137.554 -0.329793 -1.92191 0
M  V30 1535 O 136.824 0.653409 -1.84682 0
M  V30 1536 H 135.404 -0.597441 -0.448411 0
M  V30 1537 H 138.066 -1.87637 -0.527096 0
M  V30 1538 H 137.162 -2.43882 -1.94751 0
M  V30 1539 N 137.463 0.71206 -1.40597 0
M  V30 1540 C 138.395 1.83704 -1.37061 0
M  V30 1541 C 139.408 1.60453 -0.275426 0
M  V30 1542 O 140.597 1.70262 -0.53602 0
M  V30 1543 C 137.697 3.20172 -1.11099 0
M  V30 1544 C 136.87 3.7059 -2.3234 0
M  V30 1545 C 135.929 4.85681 -2.02485 0
M  V30 1546 O 134.955 4.9815 -2.75382 0
M  V30 1547 N 136.157 5.71735 -1.00497 0
M  V30 1548 H 138.922 1.87235 -2.34016 0
M  V30 1549 H 136.483 0.893739 -1.34996 0
M  V30 1550 H 138.475 3.94768 -0.891064 0
M  V30 1551 H 137.045 3.11767 -0.227989 0
M  V30 1552 H 136.265 2.87085 -2.7014 0
M  V30 1553 H 137.553 4.01011 -3.13157 0
M  V30 1554 H 136.951 5.64275 -0.401298 0
M  V30 1555 H 135.508 6.463 -0.844942 0
M  V30 1556 N 138.941 1.26152 0.944643 0
M  V30 1557 C 139.871 1.09902 2.06019 0
M  V30 1558 C 140.852 0.00519538 1.70099 0
M  V30 1559 O 142.037 0.176583 1.93396 0
M  V30 1560 C 139.167 0.727562 3.39594 0
M  V30 1561 C 138.121 1.77274 3.89561 0
M  V30 1562 C 137.447 1.25569 5.19747 0
M  V30 1563 C 138.747 3.17357 4.14827 0
M  V30 1564 H 140.441 2.03217 2.19871 0
M  V30 1565 H 137.987 0.978452 1.05652 0
M  V30 1566 H 139.94 0.600777 4.17095 0
M  V30 1567 H 138.664 -0.241287 3.25707 0
M  V30 1568 H 137.323 1.88814 3.14237 0
M  V30 1569 H 136.971 0.276783 5.02238 0
M  V30 1570 H 136.671 1.95433 5.54148 0
M  V30 1571 H 138.195 1.1415 5.99835 0
M  V30 1572 H 139.609 3.08914 4.82954 0
M  V30 1573 H 138.006 3.84781 4.60504 0
M  V30 1574 H 139.076 3.63673 3.20734 0
M  V30 1575 N 140.419 -1.14872 1.07899 0
M  V30 1576 C 141.349 -2.2193 0.725887 0
M  V30 1577 C 142.33 -1.67622 -0.28927 0
M  V30 1578 O 143.515 -1.93533 -0.160787 0
M  V30 1579 C 140.645 -3.47061 0.128856 0
M  V30 1580 C 139.599 -4.14363 1.07178 0
M  V30 1581 C 138.925 -5.33636 0.337229 0
M  V30 1582 C 140.225 -4.63492 2.40775 0
M  V30 1583 H 141.919 -2.51724 1.62097 0
M  V30 1584 H 139.465 -1.20991 0.780838 0
M  V30 1585 H 141.418 -4.21199 -0.130147 0
M  V30 1586 H 140.142 -3.16617 -0.80134 0
M  V30 1587 H 138.801 -3.42173 1.3158 0
M  V30 1588 H 138.449 -4.99449 -0.596606 0
M  V30 1589 H 138.149 -5.79609 0.965788 0
M  V30 1590 H 139.673 -6.10539 0.0861567 0
M  V30 1591 H 141.087 -5.2913 2.20669 0
M  V30 1592 H 139.484 -5.20148 2.99276 0
M  V30 1593 H 140.554 -3.78834 3.02676 0
M  V30 1594 N 141.898 -0.863906 -1.31812 0
M  V30 1595 C 143.144 -0.481841 -1.9761 0
M  V30 1596 C 143.499 0.954048 -1.6708 0
M  V30 1597 O 142.792 1.66182 -0.953624 0
M  V30 1598 C 142.986 -0.668547 -3.51091 0
M  V30 1599 C 142.815 -2.12103 -3.96538 0
M  V30 1600 C 141.585 -2.76141 -4.23171 0
M  V30 1601 C 143.783 -3.09265 -4.10925 0
M  V30 1602 N 141.765 -4.12205 -4.54929 0
M  V30 1603 C 143.136 -4.30341 -4.46326 0
M  V30 1604 C 145.191 -3.05337 -3.93286 0
M  V30 1605 C 143.894 -5.48 -4.65928 0
M  V30 1606 C 145.92 -4.22248 -4.14078 0
M  V30 1607 C 145.282 -5.42085 -4.49804 0
M  V30 1608 H 141.381 -0.225238 -0.74886 0
M  V30 1609 H 143.965 -1.11723 -1.59455 0
M  V30 1610 H 142.136 -0.0627898 -3.88349 0
M  V30 1611 H 143.868 -0.255467 -4.03893 0
M  V30 1612 H 140.623 -2.27125 -4.15585 0
M  V30 1613 H 141.047 -4.82416 -4.74978 0
M  V30 1614 H 145.689 -2.138 -3.64759 0
M  V30 1615 H 143.407 -6.40059 -4.93305 0
M  V30 1616 H 146.993 -4.20654 -4.01922 0
M  V30 1617 H 145.873 -6.31044 -4.65567 0
M  V30 1618 N 143.376 1.44774 -0.622745 0
M  V30 1619 C 144.339 2.29069 0.0774015 0
M  V30 1620 C 145.339 1.4059 0.780461 0
M  V30 1621 O 146.529 1.62551 0.626322 0
M  V30 1622 C 143.661 3.21974 1.12006 0
M  V30 1623 H 144.854 2.92459 -0.663901 0
M  V30 1624 H 142.407 1.51548 -0.382486 0
M  V30 1625 H 143.142 2.63417 1.89162 0
M  V30 1626 H 142.927 3.87168 0.619951 0
M  V30 1627 H 144.417 3.85318 1.60995 0
M  V30 1628 N 144.854 0.36279 1.53368 0
M  V30 1629 C 145.786 -0.519668 2.23231 0
M  V30 1630 C 146.799 -1.04844 1.24546 0
M  V30 1631 O 147.988 -0.955296 1.50786 0
M  V30 1632 C 145.088 -1.72995 2.9142 0
M  V30 1633 C 144.261 -1.33316 4.16588 0
M  V30 1634 C 143.32 -2.40521 4.68013 0
M  V30 1635 O 142.346 -2.03027 5.3176 0
M  V30 1636 N 143.548 -3.72065 4.45587 0
M  V30 1637 H 146.313 0.078751 2.99597 0
M  V30 1638 H 143.874 0.187833 1.60807 0
M  V30 1639 H 145.866 -2.44184 3.22733 0
M  V30 1640 H 144.436 -2.2353 2.18525 0
M  V30 1641 H 143.656 -0.451236 3.91609 0
M  V30 1642 H 144.944 -1.04432 4.97967 0
M  V30 1643 H 144.342 -4.05304 3.94646 0
M  V30 1644 H 142.899 -4.39366 4.81457 0
M  V30 1645 N 146.332 -1.57332 0.0918853 0
M  V30 1646 C 147.748 -1.57389 -0.264766 0
M  V30 1647 C 147.948 -1.10281 -1.68643 0
M  V30 1648 O 147.004 -0.777801 -2.40222 0
M  V30 1649 C 148.317 -3.00648 -0.0561195 0
M  V30 1650 C 149.865 -3.12754 -0.124116 0
M  V30 1651 C 150.34 -4.57965 0.0564972 0
M  V30 1652 N 151.831 -4.632 0.00155611 0
M  V30 1653 C 152.566 -5.73281 0.116598 0
M  V30 1654 N 152.062 -6.92208 0.286294 0
M  V30 1655 N 153.855 -5.6207 0.0580973 0
M  V30 1656 H 146.006 -1.86262 1.02079 0
M  V30 1657 H 148.269 -0.859579 0.399786 0
M  V30 1658 H 147.975 -3.393 0.925669 0
M  V30 1659 H 147.849 -3.68623 -0.799823 0
M  V30 1660 H 150.236 -2.73976 -1.09641 0
M  V30 1661 H 150.317 -2.47377 0.651024 0
M  V30 1662 H 149.961 -4.97436 1.02564 0
M  V30 1663 H 149.891 -5.21399 -0.738297 0
M  V30 1664 H 152.382 -3.77686 -0.127192 0
M  V30 1665 H 152.695 -7.71934 0.365676 0
M  V30 1666 H 151.04 -6.94254 0.32192 0
M  V30 1667 H 154.231 -4.68043 -0.0733204 0
M  V30 1668 H 154.404 -6.47824 0.151203 0
M  V30 1669 N 147.81 0.181792 -1.56548 0
M  V30 1670 C 149.087 0.926765 -1.72251 0
M  V30 1671 C 149.467 2.00831 -0.650386 0
M  V30 1672 O 148.815 2.26008 0.336521 0
M  V30 1673 C 149.025 1.50106 -3.1507 0
M  V30 1674 C 150.373 1.97805 -3.75711 0
M  V30 1675 O 151.397 1.59922 -3.18282 0
M  V30 1676 O 150.256 2.67555 -4.76525 0
M  V30 1677 H 147.35 0.435506 -0.703039 0
M  V30 1678 H 149.896 0.170443 -1.68842 0
M  V30 1679 H 148.668 0.72212 -3.84579 0
M  V30 1680 H 148.291 2.32186 -3.22763 0
M  V30 1681 N 149.288 1.51039 0.449983 0
M  V30 1682 C 150.534 1.63322 1.20223 0
M  V30 1683 C 150.867 0.34241 1.91158 0
M  V30 1684 O 150.142 -0.657344 1.83055 0
M  V30 1685 C 150.425 2.82801 2.22925 0
M  V30 1686 C 150.278 4.21823 1.56157 0
M  V30 1687 C 151.597 2.97807 3.24035 0
M  V30 1688 H 148.716 0.594407 0.435718 0
M  V30 1689 H 151.358 1.83489 0.493136 0
M  V30 1690 H 149.508 2.65738 2.834 0
M  V30 1691 H 151.18 4.50526 0.991162 0
M  V30 1692 H 149.423 4.25105 0.864172 0
M  V30 1693 H 150.094 5.01391 2.30891 0
M  V30 1694 H 152.57 3.13497 2.73603 0
M  V30 1695 H 151.446 3.82992 3.93202 0
M  V30 1696 H 151.707 2.09328 3.89402 0
M  V30 1697 N 150.766 -0.704594 1.40972 0
M  V30 1698 C 152.177 -1.28418 1.3552 0
M  V30 1699 C 152.528 -1.96171 0.0339434 0
M  V30 1700 O 151.653 -1.98231 -0.867944 0
M  V30 1701 C 152.248 -2.33528 2.45459 0
M  V30 1702 C 150.807 -2.87085 2.43433 0
M  V30 1703 C 149.954 -1.61007 2.2577 0
M  V30 1704 H 152.905 -0.499963 1.50619 0
M  V30 1705 H 152.926 -3.14619 2.13998 0
M  V30 1706 H 152.438 -1.84187 3.41609 0
M  V30 1707 H 150.539 -3.40626 1.51013 0
M  V30 1708 H 150.652 -3.3813 3.39419 0
M  V30 1709 H 149.016 -1.86482 1.73483 0
M  V30 1710 H 149.799 -1.13675 3.23933 0
M  V30 1711 N 152.244 -1.26651 -0.937939 0
M  V30 1712 C 153.49 -1.13562 -1.68746 0
M  V30 1713 C 153.845 0.317241 -1.89767 0
M  V30 1714 O 153.138 1.22939 -1.46957 0
M  V30 1715 C 153.332 -1.84168 -3.06295 0
M  V30 1716 C 153.161 -3.36171 -2.98696 0
M  V30 1717 C 151.931 -4.05468 -3.01535 0
M  V30 1718 C 154.129 -4.32312 -2.78588 0
M  V30 1719 N 152.111 -5.44118 -2.84269 0
M  V30 1720 C 153.482 -5.58159 -2.69924 0
M  V30 1721 C 155.537 -4.22524 -2.63396 0
M  V30 1722 C 154.24 -6.75335 -2.47618 0
M  V30 1723 C 156.266 -5.39411 -2.42466 0
M  V30 1724 C 155.628 -6.64208 -2.34536 0
M  V30 1725 H 151.727 -0.470361 -0.624728 0
M  V30 1726 H 154.311 -1.59982 -1.10968 0
M  V30 1727 H 152.482 -1.40219 -3.62206 0
M  V30 1728 H 154.214 -1.63674 -3.70126 0
M  V30 1729 H 150.969 -3.56854 -3.11372 0
M  V30 1730 H 151.393 -6.1693 -2.78795 0
M  V30 1731 H 156.035 -3.26771 -2.68292 0
M  V30 1732 H 153.753 -7.71182 -2.41463 0
M  V30 1733 H 157.339 -5.33711 -2.31611 0
M  V30 1734 H 156.219 -7.53129 -2.18555 0
M  V30 1735 N 153.722 1.14298 -1.08507 0
M  V30 1736 C 154.652 2.21542 -0.737646 0
M  V30 1737 C 155.633 1.67773 0.280377 0
M  V30 1738 O 156.818 1.93616 0.150521 0
M  V30 1739 C 153.948 3.46988 -0.147259 0
M  V30 1740 C 152.902 4.13789 -1.09374 0
M  V30 1741 C 152.228 5.33449 -0.365524 0
M  V30 1742 C 153.528 4.62208 -2.4323 0
M  V30 1743 H 155.222 2.5086 -1.6343 0
M  V30 1744 H 152.768 1.20576 -0.787243 0
M  V30 1745 H 154.721 4.21262 0.107808 0
M  V30 1746 H 153.445 3.17037 0.784538 0
M  V30 1747 H 152.104 3.4147 -1.33393 0
M  V30 1748 H 151.752 4.99759 0.57011 0
M  V30 1749 H 151.452 5.79088 -0.996512 0
M  V30 1750 H 152.976 6.10485 -0.118534 0
M  V30 1751 H 154.39 5.27952 -2.23472 0
M  V30 1752 H 152.787 5.18553 -3.02031 0
M  V30 1753 H 153.857 3.77224 -3.04681 0
M  V30 1754 N 155.201 0.870884 1.31352 0
M  V30 1755 C 156.134 0.271983 2.26573 0
M  V30 1756 C 157.112 -0.599385 1.51149 0
M  V30 1757 O 158.296 -0.552605 1.80218 0
M  V30 1758 C 155.423 -0.614801 3.33073 0
M  V30 1759 C 154.469 0.185342 4.26097 0
M  V30 1760 S 155.302 1.56444 5.12138 0
M  V30 1761 C 156.458 0.683807 6.22153 0
M  V30 1762 H 156.691 1.07916 2.77023 0
M  V30 1763 H 154.224 0.669459 1.39132 0
M  V30 1764 H 156.182 -1.12074 3.94905 0
M  V30 1765 H 154.843 -1.39593 2.81376 0
M  V30 1766 H 154.036 -0.490771 5.01605 0
M  V30 1767 H 153.638 0.623415 3.68768 0
M  V30 1768 H 155.93 -0.10521 6.77418 0
M  V30 1769 H 156.873 1.41004 6.93919 0
M  V30 1770 H 157.281 0.250952 5.63942 0
M  V30 1771 N 156.679 -1.44442 0.630414 0
M  V30 1772 C 157.626 -2.30678 -0.0749355 0
M  V30 1773 C 158.596 -1.4344 -0.837502 0
M  V30 1774 O 159.781 -1.72343 -0.818684 0
M  V30 1775 C 156.921 -3.28706 -1.05103 0
M  V30 1776 C 156.034 -4.31046 -0.286954 0
M  V30 1777 C 155.169 -5.16167 -1.2548 0
M  V30 1778 C 154.208 -6.10216 -0.479843 0
M  V30 1779 N 153.345 -6.88039 -1.39811 0
M  V30 1780 H 158.185 -2.90454 0.666386 0
M  V30 1781 H 155.722 -1.43107 0.340404 0
M  V30 1782 H 157.68 -3.84027 -1.63031 0
M  V30 1783 H 156.31 -2.70632 -1.75949 0
M  V30 1784 H 155.362 -3.78203 0.408243 0
M  V30 1785 H 156.674 -4.97794 0.316657 0
M  V30 1786 H 155.828 -5.76002 -1.90544 0
M  V30 1787 H 154.567 -4.49491 -1.89233 0
M  V30 1788 H 153.572 -5.49491 0.184295 0
M  V30 1789 H 154.797 -6.78928 0.152965 0
M  V30 1790 H 152.743 -6.24032 -2.02287 0
M  V30 1791 H 152.66 -7.51223 -0.848508 0
M  V30 1792 H 153.928 -7.52397 -2.03762 0
M  V30 1793 N 158.157 -0.370918 -1.53173 0
M  V30 1794 C 159.09 0.516727 -2.22273 0
M  V30 1795 C 160.068 1.07877 -1.21661 0
M  V30 1796 O 161.252 1.13389 -1.50583 0
M  V30 1797 C 158.379 1.71346 -2.92161 0
M  V30 1798 C 157.425 1.27838 -4.0689 0
M  V30 1799 S 158.258 0.275217 -5.34792 0
M  V30 1800 C 159.414 1.47816 -6.08195 0
M  V30 1801 H 159.647 -0.0701054 -2.97217 0
M  V30 1802 H 157.18 -0.155038 -1.5362 0
M  V30 1803 H 159.138 2.39988 -3.3304 0
M  V30 1804 H 157.799 2.27156 -2.16931 0
M  V30 1805 H 156.992 2.17141 -4.54825 0
M  V30 1806 H 156.594 0.671105 -3.6793 0
M  V30 1807 H 158.886 2.40831 -6.33251 0
M  V30 1808 H 159.829 1.04008 -7.0042 0
M  V30 1809 H 160.237 1.68663 -5.38714 0
M  V30 1810 N 159.635 1.57281 -0.100228 0
M  V30 1811 C 160.884 1.93713 0.561984 0
M  V30 1812 C 161.197 0.984492 1.69018 0
M  V30 1813 O 162.403 1.24273 2.41389 0
M  V30 1814 C 160.859 3.4421 1.05106 0
M  V30 1815 C 160.467 4.47975 -0.0476628 0
M  V30 1816 C 162.211 3.89595 1.68571 0
M  V30 1817 C 160.118 5.89631 0.457055 0
M  V30 1818 H 159.048 0.723082 0.2137 0
M  V30 1819 H 161.699 1.82644 -0.177057 0
M  V30 1820 H 160.081 3.50449 1.84395 0
M  V30 1821 H 161.255 4.53385 -0.823333 0
M  V30 1822 H 159.57 4.1223 -0.587816 0
M  V30 1823 H 162.167 4.92832 2.07414 0
M  V30 1824 H 162.51 3.28526 2.55688 0
M  V30 1825 H 163.043 3.86078 0.958562 0
M  V30 1826 H 159.782 6.54411 -0.377616 0
M  V30 1827 H 159.302 5.87681 1.19962 0
M  V30 1828 H 160.981 6.40363 0.92437 0
M  V30 1829 N 161.113 -0.173488 1.56642 0
M  V30 1830 C 162.045 -1.23935 1.92802 0
M  V30 1831 C 163.058 -1.40589 0.820889 0
M  V30 1832 O 164.247 -1.40631 1.09933 0
M  V30 1833 C 161.347 -2.60837 2.16373 0
M  V30 1834 C 160.52 -2.6551 3.47596 0
M  V30 1835 C 159.579 -3.8376 3.60021 0
M  V30 1836 O 158.605 -3.69859 4.32658 0
M  V30 1837 N 159.807 -5.00127 2.94709 0
M  V30 1838 H 162.572 -0.932236 2.84832 0
M  V30 1839 H 160.133 -0.363268 1.57772 0
M  V30 1840 H 162.125 -3.38407 2.21952 0
M  V30 1841 H 160.695 -2.83948 1.30738 0
M  V30 1842 H 159.915 -1.74052 3.53694 0
M  V30 1843 H 161.203 -2.65641 4.33949 0
M  V30 1844 H 160.601 -5.14322 2.35563 0
M  V30 1845 H 159.158 -5.75567 3.05886 0
M  V30 1846 N 162.591 -1.51276 -0.441967 0
M  V30 1847 C 164.002 -1.56244 -1.02199 0
M  V30 1848 C 164.353 -0.383149 -1.92422 0
M  V30 1849 O 163.478 0.500613 -2.1053 0
M  V30 1850 C 164.073 -2.83162 -1.86024 0
M  V30 1851 C 162.632 -2.90716 -2.39084 0
M  V30 1852 C 161.779 -2.50858 -1.18175 0
M  V30 1853 H 164.73 -1.5712 -0.223416 0
M  V30 1854 H 164.751 -2.66663 -2.71425 0
M  V30 1855 H 164.263 -3.68974 -1.20331 0
M  V30 1856 H 162.364 -2.09323 -3.08244 0
M  V30 1857 H 162.477 -3.94266 -2.72198 0
M  V30 1858 H 160.841 -2.03951 -1.52565 0
M  V30 1859 H 161.624 -3.3901 -0.541001 0
M  V30 1860 N 164.069 0.697108 -1.41344 0
M  V30 1861 C 165.346 1.45154 -1.31109 0
M  V30 1862 C 165.726 2.11009 0.0620449 0
M  V30 1863 O 165.074 2.01571 1.07618 0
M  V30 1864 C 165.284 2.47223 -2.46337 0
M  V30 1865 C 166.632 3.1252 -2.87431 0
M  V30 1866 O 167.656 2.57547 -2.46065 0
M  V30 1867 O 166.515 4.12083 -3.58957 0
M  V30 1868 H 163.609 0.646365 -0.515889 0
M  V30 1869 H 166.155 0.727716 -1.53305 0
M  V30 1870 H 164.927 1.97204 -3.37974 0
M  V30 1871 H 164.55 3.27116 -2.2601 0
M  V30 1872 N 165.547 1.27147 0.931209 0
M  V30 1873 C 166.793 1.14455 1.68141 0
M  V30 1874 C 167.148 -0.307172 1.89932 0
M  V30 1875 O 166.441 -1.22158 1.47607 0
M  V30 1876 C 166.635 1.8579 3.05314 0
M  V30 1877 C 166.464 3.3775 2.96909 0
M  V30 1878 C 165.234 4.07062 2.99381 0
M  V30 1879 C 167.432 4.33783 2.76291 0
M  V30 1880 N 165.414 5.45618 2.8138 0
M  V30 1881 C 166.785 5.59582 2.6696 0
M  V30 1882 C 168.84 4.23915 2.61152 0
M  V30 1883 C 167.543 6.76639 2.44033 0
M  V30 1884 C 169.569 5.40689 2.39602 0
M  V30 1885 C 168.931 6.65443 2.3101 0
M  V30 1886 H 165.03 0.473667 0.622225 0
M  V30 1887 H 167.614 1.60568 1.10118 0
M  V30 1888 H 165.785 1.42138 3.61457 0
M  V30 1889 H 167.517 1.65634 3.69253 0
M  V30 1890 H 164.272 3.585 3.09475 0
M  V30 1891 H 164.696 6.184 2.75519 0
M  V30 1892 H 169.338 3.28189 2.66555 0
M  V30 1893 H 167.056 7.72451 2.3737 0
M  V30 1894 H 170.642 5.34932 2.28778 0
M  V30 1895 H 169.522 7.54277 2.14558 0
M  V30 1896 N 167.025 -1.13721 1.09112 0
M  V30 1897 C 167.955 -2.21148 0.749385 0
M  V30 1898 C 168.936 -1.6792 -0.271475 0
M  V30 1899 O 170.121 -1.93693 -0.140251 0
M  V30 1900 C 167.251 -3.46905 0.165659 0
M  V30 1901 C 166.205 -4.13203 1.11567 0
M  V30 1902 C 165.531 -5.33248 0.393809 0
M  V30 1903 C 166.831 -4.60912 2.45678 0
M  V30 1904 H 168.525 -2.4999 1.64758 0
M  V30 1905 H 166.071 -1.20156 0.793626 0
M  V30 1906 H 168.024 -4.21313 -0.085466 0
M  V30 1907 H 166.748 -3.17449 -0.767714 0
M  V30 1908 H 165.407 -3.40758 1.35202 0
M  V30 1909 H 165.055 -5.00054 -0.543599 0
M  V30 1910 H 164.755 -5.78552 1.02721 0
M  V30 1911 H 166.279 -6.10413 0.150908 0
M  V30 1912 H 167.693 -5.26759 2.26269 0
M  V30 1913 H 166.09 -5.16944 3.04776 0
M  V30 1914 H 167.16 -3.75603 3.06677 0
M  V30 1915 N 168.503 -0.877838 -1.30888 0
M  V30 1916 C 169.45 -0.337538 -2.28318 0
M  V30 1917 C 170.42 0.568346 -1.56074 0
M  V30 1918 O 171.605 0.498298 -1.84178 0
M  V30 1919 C 168.745 0.448142 -3.42178 0
M  V30 1920 C 167.858 -0.48615 -4.29256 0
M  V30 1921 C 166.993 0.314427 -5.30269 0
M  V30 1922 C 166.032 -0.615791 -6.08995 0
M  V30 1923 N 165.169 0.14902 -7.01942 0
M  V30 1924 H 170.009 -1.17356 -2.73919 0
M  V30 1925 H 167.546 -0.590094 -1.34745 0
M  V30 1926 H 169.504 0.919517 -4.06941 0
M  V30 1927 H 168.134 1.24879 -2.97666 0
M  V30 1928 H 167.186 -1.076 -3.64865 0
M  V30 1929 H 168.498 -1.19909 -4.84173 0
M  V30 1930 H 167.652 0.847969 -6.00745 0
M  V30 1931 H 166.391 1.06062 -4.76027 0
M  V30 1932 H 165.396 -1.16102 -5.37401 0
M  V30 1933 H 166.621 -1.36097 -6.65323 0
M  V30 1934 H 164.567 0.877884 -6.50099 0
M  V30 1935 H 164.484 -0.504433 -7.54315 0
M  V30 1936 H 165.752 0.663537 -7.76671 0
M  V30 1937 N 169.982 1.44106 -0.638065 0
M  V30 1938 C 171.207 2.0685 -0.150916 0
M  V30 1939 C 171.632 1.47417 1.16833 0
M  V30 1940 O 170.99 0.578264 1.71831 0
M  V30 1941 C 171.038 3.60555 -0.05708 0
M  V30 1942 O 170.142 4.00465 0.984972 0
M  V30 1943 H 169.483 0.658151 -0.0879399 0
M  V30 1944 H 172.013 1.84865 -0.876707 0
M  V30 1945 H 172.023 4.07789 0.131232 0
M  V30 1946 H 170.698 4.03193 -1.02021 0
M  V30 1947 H 169.275 3.64849 0.770672 0
M  V30 1948 N 171.46 0.379036 1.52974 0
M  V30 1949 C 172.408 -0.476033 2.27677 0
M  V30 1950 C 173.402 -1.0719 1.31174 0
M  V30 1951 O 174.608 -1.01355 1.48752 0
M  V30 1952 H 170.983 -0.172255 0.732006 0
M  V30 1953 H 172.954 0.175615 2.97883 0
M  V30 1954 C 171.703 -1.5967 3.0887 0
M  V30 1955 H 171.026 -1.1475 3.82978 0
M  V30 1956 H 172.466 -2.16943 3.64296 0
M  V30 1957 C 170.925 -2.54682 2.20542 0
M  V30 1958 O 171.455 -3.57836 1.82527 0
M  V30 1959 N 169.661 -2.24183 1.84907 0
M  V30 1960 H 169.208 -1.40333 2.1602 0
M  V30 1961 H 169.166 -2.88006 1.26096 0
M  V30 1962 N 172.938 -1.57226 0.108567 0
M  V30 1963 C 174.186 -1.94448 -0.550853 0
M  V30 1964 C 174.507 -0.992074 -1.67878 0
M  V30 1965 O 173.777 -0.0465 -1.95845 0
M  V30 1966 H 172.357 -0.717897 -0.206479 0
M  V30 1967 H 175.019 -1.94112 0.175062 0
M  V30 1968 H 174.115 -2.97218 -0.952259 0
M  V30 1969 N 174.416 0.165178 -1.56732 0
M  V30 1970 C 175.663 0.880807 -1.8234 0
M  V30 1971 C 175.991 1.81977 -0.686621 0
M  V30 1972 O 175.246 1.92971 0.325697 0
M  V30 1973 C 175.545 1.70405 -3.1416 0
M  V30 1974 C 175.211 0.913475 -4.4155 0
M  V30 1975 C 173.873 0.695303 -4.7615 0
M  V30 1976 C 176.225 0.359349 -5.1996 0
M  V30 1977 C 173.553 -0.0879947 -5.86634 0
M  V30 1978 C 175.905 -0.410893 -6.31264 0
M  V30 1979 C 174.569 -0.639808 -6.64427 0
M  V30 1980 H 173.839 0.32231 -0.667231 0
M  V30 1981 H 176.486 0.145402 -1.90947 0
M  V30 1982 H 174.791 2.50903 -3.00923 0
M  V30 1983 H 176.488 2.26091 -3.31186 0
M  V30 1984 H 173.078 1.09357 -4.14414 0
M  V30 1985 H 177.262 0.515228 -4.93618 0
M  V30 1986 H 172.518 -0.27503 -6.10781 0
M  V30 1987 H 176.692 -0.847494 -6.91224 0
M  V30 1988 H 174.319 -1.24864 -7.49875 0
M  V30 1989 N 175.894 1.51508 0.433938 0
M  V30 1990 C 176.844 1.69451 1.52546 0
M  V30 1991 C 177.828 0.548474 1.51263 0
M  V30 1992 O 179.02 0.804529 1.57659 0
M  V30 1993 C 176.149 1.82604 2.90707 0
M  V30 1994 C 175.235 3.03002 2.96733 0
M  V30 1995 N 175.626 4.26121 2.72496 0
M  V30 1996 C 173.924 3.02327 3.27894 0
M  V30 1997 C 174.625 5.07407 2.84452 0
M  V30 1998 N 173.601 4.42126 3.16269 0
M  V30 1999 H 177.403 2.62305 1.32564 0
M  V30 2000 H 174.917 1.49202 0.641297 0
M  V30 2001 H 176.914 1.93569 3.69238 0
M  V30 2002 H 175.574 0.909339 3.11707 0
M  V30 2003 H 176.585 4.55009 2.4736 0
M  V30 2004 H 173.262 2.20301 3.54646 0
M  V30 2005 H 174.652 6.15422 2.69639 0
M  V30 2006 N 177.372 -0.689602 1.41712 0
M  V30 2007 C 178.282 -1.83314 1.46401 0
M  V30 2008 C 179.298 -1.7036 0.35405 0
M  V30 2009 O 180.474 -1.92171 0.602692 0
M  V30 2010 C 177.539 -3.19344 1.34982 0
M  V30 2011 C 176.6 -3.44363 2.56344 0
M  V30 2012 C 175.833 -4.73904 2.45461 0
M  V30 2013 O 176.056 -5.508 1.48241 0
M  V30 2014 O 174.99 -4.99839 3.35328 0
M  V30 2015 H 178.816 -1.82314 2.42889 0
M  V30 2016 H 176.401 -0.843438 1.23315 0
M  V30 2017 H 178.283 -4.00547 1.3092 0
M  V30 2018 H 176.958 -3.21014 0.41612 0
M  V30 2019 H 175.865 -2.63067 2.65982 0
M  V30 2020 H 177.198 -3.47512 3.48563 0
M  V30 2021 N 178.85 -1.27639 -0.924453 0
M  V30 2022 C 180.099 -1.13549 -1.66702 0
M  V30 2023 C 180.412 0.317487 -1.93006 0
M  V30 2024 O 181.618 0.579333 -2.65247 0
M  V30 2025 C 180.074 -1.98426 -3.00259 0
M  V30 2026 C 179.682 -3.484 -2.81641 0
M  V30 2027 C 181.426 -1.92993 -3.78092 0
M  V30 2028 C 179.333 -4.25464 -4.10773 0
M  V30 2029 H 178.263 -0.421351 -0.625283 0
M  V30 2030 H 180.914 -1.52085 -1.02676 0
M  V30 2031 H 179.296 -1.52736 -3.6536 0
M  V30 2032 H 180.47 -4.01973 -2.25287 0
M  V30 2033 H 178.785 -3.55245 -2.17232 0
M  V30 2034 H 181.382 -2.47844 -4.7379 0
M  V30 2035 H 181.725 -0.904281 -4.0636 0
M  V30 2036 H 182.258 -2.36595 -3.19793 0
M  V30 2037 H 178.997 -5.28566 -3.87683 0
M  V30 2038 H 178.517 -3.76667 -4.66779 0
M  V30 2039 H 180.196 -4.34812 -4.79111 0
M  V30 2040 N 180.328 1.1314 -1.09713 0
M  V30 2041 C 181.238 2.22242 -0.751367 0
M  V30 2042 C 182.254 1.72224 0.247938 0
M  V30 2043 O 183.43 2.01205 0.0885463 0
M  V30 2044 C 180.495 3.46231 -0.180274 0
M  V30 2045 C 179.556 4.11125 -1.2359 0
M  V30 2046 C 178.789 5.29195 -0.691966 0
M  V30 2047 O 179.012 5.68342 0.48414 0
M  V30 2048 O 177.946 5.84214 -1.44838 0
M  V30 2049 H 181.772 2.54197 -1.66186 0
M  V30 2050 H 179.357 1.21331 -0.871735 0
M  V30 2051 H 181.239 4.21185 0.134739 0
M  V30 2052 H 179.914 3.1597 0.703185 0
M  V30 2053 H 178.821 3.37985 -1.60366 0
M  V30 2054 H 180.154 4.45524 -2.09211 0
M  V30 2055 N 181.806 0.884767 1.30421 0
M  V30 2056 C 182.769 0.356277 2.26414 0
M  V30 2057 C 183.769 -0.501124 1.52792 0
M  V30 2058 O 184.959 -0.30831 1.7145 0
M  V30 2059 C 182.091 -0.492316 3.37326 0
M  V30 2060 H 183.284 1.20389 2.74675 0
M  V30 2061 H 180.837 0.661607 1.41607 0
M  V30 2062 H 181.572 -1.36052 2.94381 0
M  V30 2063 H 181.357 0.121832 3.91911 0
M  V30 2064 H 182.847 -0.853871 4.08777 0
M  V30 2065 N 183.284 -1.43765 0.645699 0
M  V30 2066 C 184.561 -1.9541 0.0862963 0
M  V30 2067 C 184.941 -1.58725 -1.39175 0
M  V30 2068 O 184.289 -0.868581 -2.11348 0
M  V30 2069 C 184.499 -3.47488 0.324565 0
M  V30 2070 C 185.847 -4.24001 0.225497 0
M  V30 2071 O 186.871 -3.55274 0.256715 0
M  V30 2072 O 185.73 -5.46313 0.142801 0
M  V30 2073 H 182.824 -0.826882 -0.0139483 0
M  V30 2074 H 185.37 -1.53743 0.718415 0
M  V30 2075 H 184.142 -3.67289 1.3496 0
M  V30 2076 H 183.765 -3.96135 -0.340987 0
M  V30 2077 N 184.763 -0.387143 -1.52771 0
M  V30 2078 C 186.009 0.196025 -2.0185 0
M  V30 2079 C 186.342 1.46641 -1.27319 0
M  V30 2080 O 185.617 1.90889 -0.373032 0
M  V30 2081 C 185.9 0.466136 -3.5707 0
M  V30 2082 C 185.753 -0.819385 -4.42274 0
M  V30 2083 C 187.072 1.25768 -4.21747 0
M  V30 2084 H 184.191 0.0697708 -0.73369 0
M  V30 2085 H 186.833 -0.516286 -1.82851 0
M  V30 2086 H 184.983 1.07293 -3.7339 0
M  V30 2087 H 186.655 -1.4563 -4.37709 0
M  V30 2088 H 184.898 -1.43517 -4.09372 0
M  V30 2089 H 185.569 -0.585065 -5.48891 0
M  V30 2090 H 188.045 0.744167 -4.09391 0
M  V30 2091 H 186.921 1.41541 -5.30337 0
M  V30 2092 H 187.182 2.27228 -3.79236 0
M  V30 2093 N 186.241 1.57166 -0.116904 0
M  V30 2094 C 187.189 2.16457 0.851418 0
M  V30 2095 C 188.183 1.11323 1.27686 0
M  V30 2096 O 189.389 1.2963 1.24884 0
M  V30 2097 H 185.764 0.69271 0.292672 0
M  V30 2098 H 187.735 2.96605 0.32685 0
M  V30 2099 C 186.484 2.77689 2.09246 0
M  V30 2100 H 185.807 3.58285 1.77402 0
M  V30 2101 H 187.247 3.22716 2.7501 0
M  V30 2102 C 185.706 1.74667 2.88085 0
M  V30 2103 O 186.236 1.19877 3.83396 0
M  V30 2104 N 184.442 1.44656 2.52038 0
M  V30 2105 H 183.989 1.89402 1.74599 0
M  V30 2106 H 183.947 0.759675 3.05084 0
M  V30 2107 N 187.719 -0.156864 1.56817 0
M  V30 2108 C 188.996 -0.899244 1.73704 0
M  V30 2109 C 189.376 -1.99771 0.682254 0
M  V30 2110 O 188.724 -2.26515 -0.300522 0
M  V30 2111 C 188.934 -1.45075 3.17418 0
M  V30 2112 C 190.282 -1.91802 3.7881 0
M  V30 2113 O 191.306 -1.54838 3.20786 0
M  V30 2114 O 190.165 -2.5994 4.80722 0
M  V30 2115 H 187.259 -0.424267 0.709878 0
M  V30 2116 H 189.805 -0.143561 1.69092 0
M  V30 2117 H 188.577 -0.660846 3.85679 0
M  V30 2118 H 188.2 -2.27021 3.26416 0
M  V30 2119 N 189.197 -1.51736 -0.425897 0
M  V30 2120 C 190.425 -1.68794 -1.1965 0
M  V30 2121 C 190.84 -0.390164 -1.84725 0
M  V30 2122 O 190.197 0.632376 -1.71194 0
M  V30 2123 C 190.248 -2.81174 -2.27208 0
M  V30 2124 O 189.969 -4.05925 -1.64793 0
M  V30 2125 C 191.47 -3.09599 -3.17275 0
M  V30 2126 H 188.69 -0.566128 -0.360194 0
M  V30 2127 H 191.234 -1.98211 -0.503249 0
M  V30 2128 H 189.389 -2.54324 -2.9223 0
M  V30 2129 H 189.803 -4.68423 -2.35967 0
M  V30 2130 H 191.277 -3.91786 -3.88854 0
M  V30 2131 H 191.754 -2.22468 -3.78688 0
M  V30 2132 H 192.36 -3.38151 -2.57941 0
M  V30 2133 N 190.675 0.682077 -1.42076 0
M  V30 2134 C 191.9 1.47558 -1.45744 0
M  V30 2135 C 192.325 1.87977 -0.0680981 0
M  V30 2136 O 191.683 1.55522 0.9318 0
M  V30 2137 C 191.731 2.70575 -2.38373 0
M  V30 2138 O 190.835 3.68573 -1.85007 0
M  V30 2139 H 190.176 0.443585 -0.494093 0
M  V30 2140 H 192.706 0.837238 -1.86686 0
M  V30 2141 H 192.716 3.18729 -2.54707 0
M  V30 2142 H 191.391 2.40495 -3.39315 0
M  V30 2143 H 189.968 3.2757 -1.78192 0
M  V30 2144 N 192.153 1.28127 0.917671 0
M  V30 2145 C 193.083 1.14248 2.03641 0
M  V30 2146 C 194.064 0.0412748 1.7005 0
M  V30 2147 O 195.249 0.217566 1.92977 0
M  V30 2148 C 192.379 0.799431 3.37974 0
M  V30 2149 C 191.333 1.85497 3.85713 0
M  V30 2150 C 190.659 1.36565 5.16966 0
M  V30 2151 C 191.959 3.26085 4.08002 0
M  V30 2152 H 193.653 2.07835 2.15511 0
M  V30 2153 H 191.199 1.00064 1.03553 0
M  V30 2154 H 193.152 0.689114 4.15727 0
M  V30 2155 H 191.876 -0.172145 3.26146 0
M  V30 2156 H 190.535 1.95437 3.10161 0
M  V30 2157 H 190.183 0.383253 5.01538 0
M  V30 2158 H 189.883 2.07143 5.49878 0
M  V30 2159 H 191.407 1.26848 5.97279 0
M  V30 2160 H 192.821 3.19089 4.76293 0
M  V30 2161 H 191.218 3.94462 4.52238 0
M  V30 2162 H 192.288 3.70394 3.12948 0
M  V30 2163 N 193.631 -1.12557 1.10312 0
M  V30 2164 C 194.561 -2.20341 0.772798 0
M  V30 2165 C 195.542 -1.68198 -0.25365 0
M  V30 2166 O 196.727 -1.93831 -0.119699 0
M  V30 2167 C 193.857 -3.46709 0.202443 0
M  V30 2168 C 192.811 -4.11996 1.15943 0
M  V30 2169 C 192.137 -5.328 0.450345 0
M  V30 2170 C 193.437 -4.5828 2.50552 0
M  V30 2171 H 195.131 -2.48229 1.674 0
M  V30 2172 H 192.677 -1.19308 0.806326 0
M  V30 2173 H 194.63 -4.2138 -0.0407752 0
M  V30 2174 H 193.354 -3.18245 -0.734001 0
M  V30 2175 H 192.013 -3.39305 1.38808 0
M  V30 2176 H 191.661 -5.00602 -0.490531 0
M  V30 2177 H 191.361 -5.7743 1.08851 0
M  V30 2178 H 192.885 -6.10219 0.215642 0
M  V30 2179 H 194.299 -5.2433 2.31843 0
M  V30 2180 H 192.696 -5.13683 3.10242 0
M  V30 2181 H 193.766 -3.72329 3.10643 0
M  V30 2182 N 195.109 -0.891671 -1.2995 0
M  V30 2183 C 196.039 -0.379797 -2.30391 0
M  V30 2184 C 197.02 0.540919 -1.6127 0
M  V30 2185 O 198.205 0.453352 -1.88834 0
M  V30 2186 C 195.335 0.400654 -3.44981 0
M  V30 2187 C 194.289 -0.428905 -4.25846 0
M  V30 2188 C 193.615 0.478557 -5.32554 0
M  V30 2189 C 194.915 -1.67458 -4.94727 0
M  V30 2190 H 196.609 -1.21914 -2.73454 0
M  V30 2191 H 194.155 -0.587675 -1.31462 0
M  V30 2192 H 196.108 0.769434 -4.14316 0
M  V30 2193 H 194.832 1.27371 -3.0074 0
M  V30 2194 H 193.491 -0.779911 -3.58208 0
M  V30 2195 H 193.139 1.34951 -4.84559 0
M  V30 2196 H 192.839 -0.0727433 -5.87555 0
M  V30 2197 H 194.363 0.843705 -6.04743 0
M  V30 2198 H 195.777 -1.376 -5.56542 0
M  V30 2199 H 194.174 -2.16659 -5.59624 0
M  V30 2200 H 195.244 -2.41518 -4.20473 0
M  V30 2201 N 196.587 1.43421 -0.653314 0
M  V30 2202 C 197.812 2.06678 -0.172846 0
M  V30 2203 C 198.237 1.48648 1.15262 0
M  V30 2204 O 197.595 0.596457 1.71208 0
M  V30 2205 C 197.643 3.60474 -0.0953184 0
M  V30 2206 O 196.747 4.01487 0.942442 0
M  V30 2207 H 196.088 0.657181 -0.0949155 0
M  V30 2208 H 198.618 1.83925 -0.896265 0
M  V30 2209 H 198.628 4.07905 0.0879728 0
M  V30 2210 H 197.303 4.02088 -1.06291 0
M  V30 2211 H 195.88 3.65646 0.731932 0
M  V30 2212 N 198.065 0.39524 1.52563 0
M  V30 2213 C 199.313 -0.184678 2.01254 0
M  V30 2214 C 199.634 -1.46822 1.28329 0
M  V30 2215 O 198.904 -1.91666 0.405094 0
M  V30 2216 H 197.484 -0.0712355 0.743596 0
M  V30 2217 H 200.146 0.528293 1.87603 0
M  V30 2218 H 199.242 -0.390681 3.09645 0
M  V30 2219 N 199.544 -1.57102 0.125237 0
M  V30 2220 C 200.821 -1.86953 -0.575142 0
M  V30 2221 C 201.201 -1.02749 -1.84407 0
M  V30 2222 O 200.549 -0.108144 -2.28244 0
M  V30 2223 C 200.759 -3.38198 -0.861583 0
M  V30 2224 C 202.107 -4.06937 -1.21192 0
M  V30 2225 O 203.131 -3.43252 -0.951645 0
M  V30 2226 O 201.99 -5.19364 -1.70068 0
M  V30 2227 H 199.084 -0.774147 -0.290906 0
M  V30 2228 H 201.63 -1.68942 0.160211 0
M  V30 2229 H 200.402 -3.91282 0.0373647 0
M  V30 2230 H 200.025 -3.61661 -1.65188 0
M  V30 2231 N 201.022 0.148545 -1.56898 0
M  V30 2232 C 201.972 1.1886 -1.94567 0
M  V30 2233 C 202.956 1.3863 -0.816735 0
M  V30 2234 O 204.148 1.40218 -1.08018 0
M  V30 2235 C 201.277 2.52262 -2.32849 0
M  V30 2236 C 200.363 2.36092 -3.52309 0
M  V30 2237 N 200.754 1.89674 -4.6889 0
M  V30 2238 C 199.052 2.66848 -3.57363 0
M  V30 2239 C 199.753 1.86511 -5.50989 0
M  V30 2240 N 198.729 2.29766 -4.92655 0
M  V30 2241 H 202.531 0.821793 -2.82177 0
M  V30 2242 H 200.045 0.356615 -1.58436 0
M  V30 2243 H 202.042 3.27447 -2.58039 0
M  V30 2244 H 200.702 2.89727 -1.46589 0
M  V30 2245 H 201.713 1.59663 -4.92674 0
M  V30 2246 H 198.39 3.08198 -2.81639 0
M  V30 2247 H 199.78 1.52128 -6.54452 0
M  V30 2248 N 202.5 1.5196 0.417844 0
M  V30 2249 C 203.725 1.69717 1.1921 0
M  V30 2250 C 204.15 0.402148 1.83751 0
M  V30 2251 O 203.508 -0.639593 1.69643 0
M  V30 2252 C 203.556 2.82794 2.2374 0
M  V30 2253 O 202.66 2.47756 3.29683 0
M  V30 2254 H 202.001 0.565263 0.348387 0
M  V30 2255 H 204.531 1.98621 0.490985 0
M  V30 2256 H 204.541 3.07452 2.68212 0
M  V30 2257 H 203.216 3.76756 1.76146 0
M  V30 2258 H 201.793 2.33739 2.90552 0
M  V30 2259 N 203.978 -0.674533 1.42435 0
M  V30 2260 C 205.227 -1.43034 1.42212 0
M  V30 2261 C 205.54 -1.95555 0.0420788 0
M  V30 2262 O 206.746 -2.71374 -0.0827558 0
M  V30 2263 C 205.202 -2.58748 2.50155 0
M  V30 2264 C 204.81 -2.12925 3.94166 0
M  V30 2265 C 206.554 -3.36257 2.59098 0
M  V30 2266 C 204.461 -3.25723 4.93618 0
M  V30 2267 H 203.391 -0.537345 0.528939 0
M  V30 2268 H 206.042 -0.73024 1.68344 0
M  V30 2269 H 204.424 -3.31128 2.17188 0
M  V30 2270 H 205.598 -1.47697 4.36488 0
M  V30 2271 H 203.913 -1.48354 3.89076 0
M  V30 2272 H 206.51 -4.20264 3.30578 0
M  V30 2273 H 206.853 -3.82866 1.63461 0
M  V30 2274 H 207.386 -2.70947 2.9126 0
M  V30 2275 H 204.125 -2.84105 5.90732 0
M  V30 2276 H 203.645 -3.89732 4.55926 0
M  V30 2277 H 205.324 -3.91186 5.15347 0
M  V30 2278 N 205.456 -1.28612 -0.910864 0
M  V30 2279 C 206.388 -1.08589 -2.01844 0
M  V30 2280 C 207.401 -0.0367419 -1.62759 0
M  V30 2281 O 208.59 -0.280101 -1.76289 0
M  V30 2282 C 205.69 -0.628626 -3.33019 0
M  V30 2283 C 204.863 -1.75382 -4.00699 0
M  V30 2284 C 203.922 -1.28945 -5.10156 0
M  V30 2285 O 202.948 -1.9922 -5.33198 0
M  V30 2286 N 204.15 -0.154224 -5.80295 0
M  V30 2287 H 206.915 -2.03973 -2.19579 0
M  V30 2288 H 204.476 -1.20403 -1.08234 0
M  V30 2289 H 206.468 -0.301508 -4.03575 0
M  V30 2290 H 205.038 0.232451 -3.11735 0
M  V30 2291 H 204.258 -2.25039 -3.23653 0
M  V30 2292 H 205.546 -2.50854 -4.42662 0
M  V30 2293 H 204.944 0.43194 -5.64049 0
M  V30 2294 H 203.501 0.113599 -6.51701 0
M  V30 2295 N 206.934 1.1197 -1.10907 0
M  V30 2296 C 207.866 2.17592 -0.720175 0
M  V30 2297 C 208.879 1.60938 0.245495 0
M  V30 2298 O 210.068 1.78476 0.0292245 0
M  V30 2299 C 207.168 3.38873 -0.0427917 0
M  V30 2300 C 206.341 4.25006 -1.03388 0
M  V30 2301 C 205.4 5.24774 -0.387075 0
M  V30 2302 O 204.426 5.59631 -1.03934 0
M  V30 2303 N 205.628 5.74208 0.852407 0
M  V30 2304 H 208.393 2.51567 -1.62893 0
M  V30 2305 H 205.954 1.27439 -0.998543 0
M  V30 2306 H 207.946 4.02703 0.401501 0
M  V30 2307 H 206.516 3.03007 0.768456 0
M  V30 2308 H 205.736 3.57716 -1.65629 0
M  V30 2309 H 207.024 4.79397 -1.70458 0
M  V30 2310 H 206.422 5.48062 1.40161 0
M  V30 2311 H 204.979 6.39901 1.23977 0
M  V30 2312 N 208.412 0.89855 1.29475 0
M  V30 2313 C 209.344 0.332726 2.26772 0
M  V30 2314 C 210.357 -0.520323 1.54261 0
M  V30 2315 O 211.546 -0.337668 1.75277 0
M  V30 2316 C 208.646 -0.544334 3.345 0
M  V30 2317 C 207.819 0.282728 4.36485 0
M  V30 2318 C 206.878 -0.526982 5.23555 0
M  V30 2319 O 205.904 0.0551165 5.69173 0
M  V30 2320 N 207.106 -1.83331 5.5079 0
M  V30 2321 H 209.871 1.16897 2.75962 0
M  V30 2322 H 207.432 0.762919 1.42798 0
M  V30 2323 H 209.424 -1.09239 3.89678 0
M  V30 2324 H 207.994 -1.28127 2.85136 0
M  V30 2325 H 207.214 1.01221 3.80983 0
M  V30 2326 H 208.502 0.84918 5.01664 0
M  V30 2327 H 207.9 -2.32898 5.15534 0
M  V30 2328 H 206.457 -2.32852 6.08788 0
M  V30 2329 N 209.89 -1.43072 0.660911 0
M  V30 2330 C 210.82 -2.33497 -0.0122829 0
M  V30 2331 C 211.801 -1.49903 -0.803925 0
M  V30 2332 O 212.986 -1.78546 -0.763864 0
M  V30 2333 C 210.116 -3.33363 -0.973994 0
M  V30 2334 C 209.07 -4.27003 -0.291928 0
M  V30 2335 C 208.396 -5.16967 -1.36562 0
M  V30 2336 C 209.696 -5.15816 0.820462 0
M  V30 2337 H 211.39 -2.90038 0.742873 0
M  V30 2338 H 208.936 -1.39461 0.358688 0
M  V30 2339 H 210.889 -3.95524 -1.45392 0
M  V30 2340 H 209.613 -2.75095 -1.7604 0
M  V30 2341 H 208.272 -3.66217 0.167623 0
M  V30 2342 H 207.92 -4.55034 -2.14366 0
M  V30 2343 H 207.62 -5.80441 -0.914454 0
M  V30 2344 H 209.144 -5.82003 -1.84675 0
M  V30 2345 H 210.558 -5.71742 0.422366 0
M  V30 2346 H 208.955 -5.8805 1.19656 0
M  V30 2347 H 210.025 -4.55045 1.67518 0
M  V30 2348 N 211.368 -0.403325 -1.52352 0
M  V30 2349 C 212.3 0.4603 -2.2453 0
M  V30 2350 C 213.313 1.01505 -1.27282 0
M  V30 2351 O 214.502 0.914982 -1.53266 0
M  V30 2352 C 211.602 1.65208 -2.95905 0
M  V30 2353 C 210.775 1.22224 -4.19976 0
M  V30 2354 C 209.834 2.28028 -4.74226 0
M  V30 2355 O 208.86 1.88857 -5.36956 0
M  V30 2356 N 210.062 3.6012 -4.55295 0
M  V30 2357 H 212.827 -0.158156 -2.99282 0
M  V30 2358 H 210.388 -0.230402 -1.60252 0
M  V30 2359 H 212.38 2.35541 -3.29093 0
M  V30 2360 H 210.95 2.17658 -2.24374 0
M  V30 2361 H 210.17 0.34725 -3.92668 0
M  V30 2362 H 211.458 0.911924 -5.00561 0
M  V30 2363 H 210.856 3.94698 -4.05253 0
M  V30 2364 H 209.413 4.26447 -4.92936 0
M  V30 2365 N 212.846 1.57033 -0.133567 0
M  V30 2366 C 213.756 2.19632 0.824564 0
M  V30 2367 C 214.772 1.17666 1.28182 0
M  V30 2368 O 215.948 1.50193 1.3418 0
M  V30 2369 C 213.013 2.79499 2.05137 0
M  V30 2370 C 212.074 3.96548 1.64464 0
M  V30 2371 C 211.307 4.5355 2.81297 0
M  V30 2372 O 211.53 4.09438 3.97136 0
M  V30 2373 O 210.464 5.44018 2.57542 0
M  V30 2374 H 214.29 3.01991 0.321766 0
M  V30 2375 H 211.875 1.49112 0.0927889 0
M  V30 2376 H 213.757 3.17602 2.7696 0
M  V30 2377 H 212.432 2.00162 2.54395 0
M  V30 2378 H 211.339 3.63186 0.897048 0
M  V30 2379 H 212.672 4.77364 1.19934 0
M  V30 2380 N 214.325 -0.140222 1.56975 0
M  V30 2381 C 215.571 -0.852949 1.83991 0
M  V30 2382 C 215.904 -1.80512 0.716187 0
M  V30 2383 O 215.179 -1.92479 -0.279681 0
M  V30 2384 C 215.462 -1.6215 3.21527 0
M  V30 2385 C 215.315 -0.690363 4.4447 0
M  V30 2386 C 216.634 -2.58247 3.56366 0
M  V30 2387 H 213.753 -0.308634 0.669264 0
M  V30 2388 H 216.395 -0.117898 1.89634 0
M  V30 2389 H 214.545 -2.24812 3.16847 0
M  V30 2390 H 216.217 -0.0742264 4.6124 0
M  V30 2391 H 214.46 -0.000396433 4.338 0
M  V30 2392 H 215.131 -1.2643 5.37326 0
M  V30 2393 H 217.607 -2.05701 3.61699 0
M  V30 2394 H 216.483 -3.09067 4.53617 0
M  V30 2395 H 216.744 -3.39923 2.82674 0
M  V30 2396 N 215.803 -1.52179 -0.40978 0
M  V30 2397 C 217.219 -1.40968 -0.74835 0
M  V30 2398 C 217.419 -0.513657 -1.94843 0
M  V30 2399 O 216.475 0.0208026 -2.52491 0
M  V30 2400 C 217.788 -2.83483 -1.0029 0
M  V30 2401 C 219.336 -2.92821 -1.10565 0
M  V30 2402 C 219.811 -4.36303 -1.39296 0
M  V30 2403 N 221.302 -4.39535 -1.46162 0
M  V30 2404 C 222.037 -5.47614 -1.70018 0
M  V30 2405 N 221.533 -6.65812 -1.91483 0
M  V30 2406 N 223.326 -5.35129 -1.72027 0
M  V30 2407 H 215.477 -2.0897 0.380186 0
M  V30 2408 H 217.74 -0.94185 0.107805 0
M  V30 2409 H 217.446 -3.51168 -0.193461 0
M  V30 2410 H 217.32 -3.24487 -1.92323 0
M  V30 2411 H 219.707 -2.25318 -1.90568 0
M  V30 2412 H 219.788 -2.55276 -0.16369 0
M  V30 2413 H 219.432 -5.04366 -0.598109 0
M  V30 2414 H 219.362 -4.71385 -2.34743 0
M  V30 2415 H 221.853 -3.54332 -1.31367 0
M  V30 2416 H 222.166 -7.43964 -2.09134 0
M  V30 2417 H 220.511 -6.68879 -1.88749 0
M  V30 2418 H 223.702 -4.41764 -1.54796 0
M  V30 2419 H 223.875 -6.19433 -1.9028 0
M  V30 2420 N 217.281 0.66697 -1.42791 0
M  V30 2421 C 218.191 1.80962 -1.49299 0
M  V30 2422 C 219.207 1.69775 -0.381108 0
M  V30 2423 O 220.383 1.91188 -0.633188 0
M  V30 2424 C 217.448 3.17156 -1.40045 0
M  V30 2425 C 216.509 3.40242 -2.6179 0
M  V30 2426 C 215.742 4.69939 -2.52969 0
M  V30 2427 O 215.965 5.48372 -1.56985 0
M  V30 2428 O 214.899 4.94441 -3.43237 0
M  V30 2429 H 218.725 1.78427 -2.45759 0
M  V30 2430 H 216.31 0.823713 -1.24641 0
M  V30 2431 H 218.192 3.98413 -1.37276 0
M  V30 2432 H 216.867 3.20312 -0.467138 0
M  V30 2433 H 215.774 2.58802 -2.70134 0
M  V30 2434 H 217.107 3.41923 -3.54047 0
M  V30 2435 N 218.759 1.29093 0.90403 0
M  V30 2436 C 220.036 1.075 1.63411 0
M  V30 2437 C 220.416 -0.382346 2.07609 0
M  V30 2438 O 219.764 -1.37031 1.82851 0
M  V30 2439 C 219.974 2.05858 2.81822 0
M  V30 2440 C 221.322 2.36539 3.52611 0
M  V30 2441 O 222.346 2.04019 2.91984 0
M  V30 2442 O 221.205 2.92085 4.61897 0
M  V30 2443 H 218.299 0.411547 0.717327 0
M  V30 2444 H 220.845 1.40449 0.952479 0
M  V30 2445 H 219.617 3.04037 2.46327 0
M  V30 2446 H 219.24 1.73613 3.57693 0
M  V30 2447 N 220.237 -1.11381 1.11499 0
M  V30 2448 C 221.514 -1.7955 0.775965 0
M  V30 2449 C 221.894 -1.97859 -0.73588 0
M  V30 2450 O 221.242 -1.56376 -1.66609 0
M  V30 2451 C 221.452 -3.13196 1.53977 0
M  V30 2452 C 222.8 -3.88227 1.71944 0
M  V30 2453 O 223.824 -3.22887 1.50407 0
M  V30 2454 O 222.683 -5.05477 2.07738 0
M  V30 2455 H 219.777 -0.777728 0.28119 0
M  V30 2456 H 222.323 -1.18118 1.21845 0
M  V30 2457 H 221.095 -2.95229 2.56818 0
M  V30 2458 H 220.718 -3.82342 1.09088 0
M  V30 2459 N 221.715 -0.905404 -1.28997 0
M  V30 2460 C 222.992 -0.453513 -1.9027 0
M  V30 2461 C 223.372 1.06721 -1.82137 0
M  V30 2462 O 222.72 1.91159 -1.25182 0
M  V30 2463 C 222.93 -0.974494 -3.35119 0
M  V30 2464 C 224.278 -1.0216 -4.12127 0
M  V30 2465 O 225.302 -0.922557 -3.44046 0
M  V30 2466 O 224.161 -1.17121 -5.33802 0
M  V30 2467 H 221.255 -0.142347 -0.814657 0
M  V30 2468 H 223.801 -0.995642 -1.37423 0
M  V30 2469 H 222.573 -2.01848 -3.35221 0
M  V30 2470 H 222.196 -0.412706 -3.95452 0
M  V30 2471 N 223.193 1.4272 -0.668489 0
M  V30 2472 C 224.47 1.95248 -0.117373 0
M  V30 2473 C 224.85 1.60919 1.36632 0
M  V30 2474 O 224.198 0.902095 2.09939 0
M  V30 2475 C 224.408 3.46927 -0.379806 0
M  V30 2476 C 225.756 4.23588 -0.292923 0
M  V30 2477 O 226.78 3.5482 -0.313204 0
M  V30 2478 O 225.639 5.46017 -0.229697 0
M  V30 2479 H 222.733 0.827 0.00079152 0
M  V30 2480 H 225.279 1.52581 -0.742783 0
M  V30 2481 H 224.051 3.65096 -1.40786 0
M  V30 2482 H 223.674 3.96627 0.277923 0
M  V30 2483 N 224.671 0.411399 1.52136 0
M  V30 2484 C 225.634 -0.401089 2.25663 0
M  V30 2485 C 226.634 -0.971732 1.28117 0
M  V30 2486 O 227.824 -0.850254 1.52041 0
M  V30 2487 C 224.956 -1.56483 3.02863 0
M  V30 2488 H 226.149 0.24295 2.98914 0
M  V30 2489 H 223.702 0.163968 1.55438 0
M  V30 2490 H 224.437 -2.24567 2.33967 0
M  V30 2491 H 224.222 -1.16211 3.74483 0
M  V30 2492 H 225.712 -2.13951 3.58629 0
M  V30 2493 N 226.149 -1.5696 0.141893 0
M  V30 2494 C 227.059 -2.20066 -0.812905 0
M  V30 2495 C 228.075 -1.18344 -1.27557 0
M  V30 2496 O 229.251 -1.50902 -1.33381 0
M  V30 2497 C 226.316 -2.80583 -2.03652 0
M  V30 2498 C 225.377 -3.97414 -1.62359 0
M  V30 2499 C 224.61 -4.55036 -2.78887 0
M  V30 2500 O 224.833 -4.11538 -3.94959 0
M  V30 2501 O 223.767 -5.45376 -2.54653 0
M  V30 2502 H 227.593 -3.02157 -0.305746 0
M  V30 2503 H 225.178 -1.49159 -0.0848799 0
M  V30 2504 H 227.06 -3.19067 -2.75272 0
M  V30 2505 H 225.735 -2.01508 -2.5333 0
M  V30 2506 H 224.642 -3.63656 -0.877775 0
M  V30 2507 H 225.975 -4.77994 -1.17401 0
M  V30 2508 N 227.627 0.131896 -1.57047 0
M  V30 2509 C 228.56 1.19236 -1.94571 0
M  V30 2510 C 229.538 1.40782 -0.813576 0
M  V30 2511 O 230.722 1.55148 -1.07058 0
M  V30 2512 C 227.849 2.54858 -2.23081 0
M  V30 2513 C 226.895 2.49817 -3.45679 0
M  V30 2514 S 227.728 1.95036 -4.98719 0
M  V30 2515 C 228.884 3.32357 -5.30367 0
M  V30 2516 H 229.117 0.872297 -2.84215 0
M  V30 2517 H 226.65 0.338134 -1.50652 0
M  V30 2518 H 228.608 3.32898 -2.40185 0
M  V30 2519 H 227.269 2.84047 -1.34074 0
M  V30 2520 H 226.462 3.49688 -3.62952 0
M  V30 2521 H 226.064 1.79892 -3.27895 0
M  V30 2522 H 228.356 4.28525 -5.2476 0
M  V30 2523 H 229.299 3.19923 -6.31708 0
M  V30 2524 H 229.707 3.3019 -4.57859 0
M  V30 2525 N 229.106 1.52395 0.401703 0
M  V30 2526 C 230.334 1.70676 1.16949 0
M  V30 2527 C 230.749 0.419503 1.8408 0
M  V30 2528 O 230.106 -0.605061 1.72178 0
M  V30 2529 C 230.157 2.84753 2.22706 0
M  V30 2530 O 229.878 4.08495 1.58314 0
M  V30 2531 C 231.379 3.14608 3.12309 0
M  V30 2532 H 228.599 0.571787 0.351142 0
M  V30 2533 H 231.143 1.98987 0.471652 0
M  V30 2534 H 229.298 2.58941 2.88147 0
M  V30 2535 H 229.712 4.72117 2.28485 0
M  V30 2536 H 231.186 3.97923 3.82572 0
M  V30 2537 H 231.663 2.28464 3.75101 0
M  V30 2538 H 232.269 3.42212 2.52529 0
M  V30 2539 N 230.584 -0.659388 1.43143 0
M  V30 2540 C 231.534 -1.7655 1.44271 0
M  V30 2541 C 232.518 -1.57847 0.311961 0
M  V30 2542 O 233.71 -1.68064 0.555306 0
M  V30 2543 C 230.839 -3.15104 1.36251 0
M  V30 2544 C 229.925 -3.39377 2.54331 0
M  V30 2545 N 230.316 -3.34153 3.79704 0
M  V30 2546 C 228.614 -3.70072 2.48922 0
M  V30 2547 C 229.315 -3.58337 4.58225 0
M  V30 2548 N 228.291 -3.79851 3.88863 0
M  V30 2549 H 232.093 -1.70928 2.39083 0
M  V30 2550 H 229.607 -0.860823 1.37708 0
M  V30 2551 H 231.604 -3.94389 1.35141 0
M  V30 2552 H 230.264 -3.21913 0.424531 0
M  V30 2553 H 231.275 -3.13704 4.1208 0
M  V30 2554 H 227.952 -3.84034 1.63781 0
M  V30 2555 H 229.342 -3.60129 5.67236 0
M  V30 2556 N 232.062 -1.29571 -0.897171 0
M  V30 2557 C 233.287 -1.20705 -1.68656 0
M  V30 2558 C 233.712 0.228582 -1.86706 0
M  V30 2559 O 233.07 1.16494 -1.3892 0
M  V30 2560 C 233.118 -1.9282 -3.04717 0
M  V30 2561 O 232.222 -1.24697 -3.93096 0
M  V30 2562 H 231.563 -0.418126 -0.515816 0
M  V30 2563 H 234.093 -1.71183 -1.12061 0
M  V30 2564 H 234.103 -2.01372 -3.54843 0
M  V30 2565 H 232.778 -2.97239 -2.90899 0
M  V30 2566 H 231.355 -1.2442 -3.51531 0
M  V30 2567 N 233.54 1.10788 -1.12088 0
M  V30 2568 C 234.786 1.82942 -0.875226 0
M  V30 2569 C 235.119 1.84779 0.597538 0
M  V30 2570 O 234.394 1.30578 1.44152 0
M  V30 2571 C 234.677 3.29789 -1.44606 0
M  V30 2572 C 234.53 3.36307 -2.98693 0
M  V30 2573 C 235.849 4.26064 -1.10261 0
M  V30 2574 H 232.968 0.664195 -0.319397 0
M  V30 2575 H 235.61 1.29867 -1.38689 0
M  V30 2576 H 233.76 3.75118 -1.01089 0
M  V30 2577 H 235.432 2.99487 -3.50864 0
M  V30 2578 H 233.675 2.76318 -3.34411 0
M  V30 2579 H 234.346 4.39694 -3.33726 0
M  V30 2580 H 236.822 3.88951 -1.4784 0
M  V30 2581 H 235.698 5.27183 -1.52869 0
M  V30 2582 H 235.959 4.42098 -0.0142953 0
M  V30 2583 N 235.018 0.912232 1.28515 0
M  V30 2584 C 235.981 0.404223 2.25607 0
M  V30 2585 C 236.981 -0.468602 1.53821 0
M  V30 2586 O 238.171 -0.271873 1.72065 0
M  V30 2587 C 235.303 -0.420653 3.38295 0
M  V30 2588 H 236.496 1.26188 2.7206 0
M  V30 2589 H 234.049 0.691495 1.40171 0
M  V30 2590 H 234.784 -1.29777 2.97201 0
M  V30 2591 H 234.569 0.204935 3.91564 0
M  V30 2592 H 236.059 -0.766971 4.10496 0
M  V30 2593 N 236.496 -1.42363 0.676048 0
M  V30 2594 C 237.742 -2.0182 0.199125 0
M  V30 2595 C 238.075 -1.53339 -1.19168 0
M  V30 2596 O 237.35 -0.736124 -1.80032 0
M  V30 2597 C 237.633 -3.59331 0.235144 0
M  V30 2598 C 237.486 -4.17989 1.66149 0
M  V30 2599 C 238.805 -4.3813 -0.41595 0
M  V30 2600 H 235.924 -0.733293 0.0738311 0
M  V30 2601 H 238.566 -1.69368 0.86107 0
M  V30 2602 H 236.716 -3.87109 -0.328487 0
M  V30 2603 H 238.388 -4.0116 2.27747 0
M  V30 2604 H 236.631 -3.7377 2.20178 0
M  V30 2605 H 237.302 -5.27126 1.63837 0
M  V30 2606 H 239.778 -4.16051 0.0638529 0
M  V30 2607 H 238.654 -5.47717 -0.360115 0
M  V30 2608 H 238.915 -4.16101 -1.49373 0
M  V30 2609 N 237.974 -0.419461 -1.51915 0
M  V30 2610 C 238.922 0.415502 -2.28859 0
M  V30 2611 C 239.916 1.03674 -1.3397 0
M  V30 2612 O 241.122 0.973757 -1.51387 0
M  V30 2613 H 237.497 0.152786 -0.736315 0
M  V30 2614 H 239.468 -0.254531 -2.97312 0
M  V30 2615 C 238.217 1.51425 -3.12995 0
M  V30 2616 H 237.54 1.04556 -3.85886 0
M  V30 2617 H 238.98 2.07208 -3.6992 0
M  V30 2618 C 237.439 2.48745 -2.27217 0
M  V30 2619 O 237.969 3.52871 -1.9195 0
M  V30 2620 N 236.175 2.19202 -1.90785 0
M  V30 2621 H 235.722 1.34556 -2.19664 0
M  V30 2622 H 235.68 2.84561 -1.33687 0
M  V30 2623 N 239.452 1.56882 -0.150215 0
M  V30 2624 C 240.698 1.96518 0.500834 0
M  V30 2625 C 241.031 1.03527 1.64304 0
M  V30 2626 O 240.306 0.0782751 1.94342 0
M  V30 2627 C 240.589 3.45822 1.00395 0
M  V30 2628 C 240.442 4.49591 -0.136983 0
M  V30 2629 C 241.761 3.97704 1.88467 0
M  V30 2630 H 238.88 0.714535 0.18058 0
M  V30 2631 H 241.522 1.88577 -0.232091 0
M  V30 2632 H 239.672 3.5272 1.62851 0
M  V30 2633 H 241.344 4.5477 -0.77343 0
M  V30 2634 H 239.587 4.26441 -0.795652 0
M  V30 2635 H 240.258 5.51402 0.256815 0
M  V30 2636 H 242.734 3.93304 1.35834 0
M  V30 2637 H 241.61 5.0263 2.20578 0
M  V30 2638 H 241.871 3.40252 2.82279 0
M  V30 2639 N 240.93 -0.123565 1.57115 0
M  V30 2640 C 242.16 -0.845233 1.88519 0
M  V30 2641 C 242.568 -1.74168 0.739064 0
M  V30 2642 O 241.911 -1.81244 -0.299355 0
M  V30 2643 C 241.973 -1.73452 3.14888 0
M  V30 2644 C 241.637 -1.01285 4.45635 0
M  V30 2645 C 242.634 -0.355774 5.18681 0
M  V30 2646 C 240.319 -0.99538 4.92339 0
M  V30 2647 C 242.313 0.309114 6.3665 0
M  V30 2648 C 240 -0.32669 6.10226 0
M  V30 2649 C 240.998 0.324406 6.82229 0
M  V30 2650 O 240.686 0.982437 7.97874 0
M  V30 2651 H 240.418 -0.248534 0.628655 0
M  V30 2652 H 242.972 -0.113907 2.05084 0
M  V30 2653 H 241.202 -2.50737 2.94394 0
M  V30 2654 H 242.891 -2.33021 3.32349 0
M  V30 2655 H 243.657 -0.360918 4.83655 0
M  V30 2656 H 239.536 -1.49159 4.36202 0
M  V30 2657 H 243.08 0.8179 6.92789 0
M  V30 2658 H 238.977 -0.319294 6.4471 0
M  V30 2659 H 239.745 0.886454 8.13686 0
M  V30 2660 N 242.408 -1.52605 -0.393616 0
M  V30 2661 C 243.819 -1.59417 -0.971761 0
M  V30 2662 C 244.17 -0.444173 -1.91106 0
M  V30 2663 O 243.295 0.433382 -2.12016 0
M  V30 2664 C 243.89 -2.88936 -1.76921 0
M  V30 2665 C 242.449 -2.98175 -2.29714 0
M  V30 2666 C 241.596 -2.54491 -1.10135 0
M  V30 2667 H 244.547 -1.57751 -0.173317 0
M  V30 2668 H 244.568 -2.75163 -2.62804 0
M  V30 2669 H 244.08 -3.72616 -1.08532 0
M  V30 2670 H 242.181 -2.19024 -3.01429 0
M  V30 2671 H 242.294 -4.02726 -2.59517 0
M  V30 2672 H 240.658 -2.08702 -1.45999 0
M  V30 2673 H 241.441 -3.4056 -0.432874 0
M  V30 2674 N 243.887 0.651787 -1.4349 0
M  V30 2675 C 244.85 1.74647 -1.48429 0
M  V30 2676 C 245.85 1.56513 -0.368817 0
M  V30 2677 O 247.04 1.62385 -0.630623 0
M  V30 2678 C 244.172 3.13533 -1.33827 0
M  V30 2679 H 245.365 1.71649 -2.4592 0
M  V30 2680 H 242.918 0.863573 -1.30277 0
M  V30 2681 H 243.653 3.22142 -0.37349 0
M  V30 2682 H 243.438 3.28101 -2.14691 0
M  V30 2683 H 244.928 3.93356 -1.40218 0
M  V30 2684 N 245.365 1.30045 0.890287 0
M  V30 2685 C 246.593 1.21472 1.67487 0
M  V30 2686 C 247.008 -0.223241 1.87476 0
M  V30 2687 O 246.365 -1.14828 1.41847 0
M  V30 2688 C 246.416 1.93394 3.05419 0
M  V30 2689 O 246.137 3.31576 2.86337 0
M  V30 2690 C 247.638 1.91414 3.99844 0
M  V30 2691 H 244.858 0.420604 0.522813 0
M  V30 2692 H 247.402 1.7158 1.11268 0
M  V30 2693 H 245.557 1.47099 3.58386 0
M  V30 2694 H 245.971 3.67929 3.73802 0
M  V30 2695 H 247.445 2.46285 4.94012 0
M  V30 2696 H 247.922 0.891833 4.3005 0
M  V30 2697 H 248.528 2.37496 3.52811 0
M  V30 2698 N 246.843 -1.10192 1.12674 0
M  V30 2699 C 248.068 -1.86523 0.906853 0
M  V30 2700 C 248.493 -1.80221 -0.538711 0
M  V30 2701 O 247.851 -1.17396 -1.38158 0
M  V30 2702 C 247.899 -3.32758 1.3894 0
M  V30 2703 O 247.003 -4.08449 0.5695 0
M  V30 2704 H 246.344 -0.578678 0.325619 0
M  V30 2705 H 248.874 -1.39203 1.49946 0
M  V30 2706 H 248.884 -3.83608 1.38958 0
M  V30 2707 H 247.559 -3.36661 2.44197 0
M  V30 2708 H 246.136 -3.67427 0.636528 0
M  V30 2709 N 248.321 -0.919034 -1.28029 0
M  V30 2710 C 249.737 -0.617972 -1.4715 0
M  V30 2711 C 249.937 0.835242 -1.83374 0
M  V30 2712 O 248.993 1.61388 -1.94191 0
M  V30 2713 C 250.306 -1.56041 -2.57044 0
M  V30 2714 C 251.854 -1.56769 -2.7091 0
M  V30 2715 C 252.329 -2.49688 -3.83953 0
M  V30 2716 N 253.82 -2.47845 -3.91314 0
M  V30 2717 C 254.555 -3.16437 -4.78179 0
M  V30 2718 N 254.051 -3.94376 -5.69596 0
M  V30 2719 N 255.844 -3.05498 -4.71834 0
M  V30 2720 H 247.995 -1.85866 -1.02798 0
M  V30 2721 H 250.258 -0.797506 -0.512531 0
M  V30 2722 H 249.964 -2.59671 -2.372 0
M  V30 2723 H 249.838 -1.29551 -3.54255 0
M  V30 2724 H 252.225 -0.538745 -2.90141 0
M  V30 2725 H 252.306 -1.87305 -1.74214 0
M  V30 2726 H 251.95 -3.52688 -3.65477 0
M  V30 2727 H 251.88 -2.16453 -4.80058 0
M  V30 2728 H 254.371 -1.91234 -3.25941 0
M  V30 2729 H 254.684 -4.43721 -6.32718 0
M  V30 2730 H 253.029 -3.98481 -5.69419 0
M  V30 2731 H 256.22 -2.44108 -3.99411 0
M  V30 2732 H 256.393 -3.59225 -5.39316 0
M  V30 2733 N 249.799 1.42003 -0.683588 0
M  V30 2734 C 250.732 2.28166 0.039592 0
M  V30 2735 C 251.71 1.41562 0.799942 0
M  V30 2736 O 252.894 1.70997 0.793248 0
M  V30 2737 C 250.021 3.21575 1.06335 0
M  V30 2738 C 249.067 4.24643 0.397562 0
M  V30 2739 S 249.9 5.2869 -0.851296 0
M  V30 2740 C 251.056 6.25666 0.171166 0
M  V30 2741 H 251.289 2.89153 -0.691229 0
M  V30 2742 H 248.822 1.46962 -0.473435 0
M  V30 2743 H 250.78 3.75928 1.6489 0
M  V30 2744 H 249.441 2.59707 1.76667 0
M  V30 2745 H 248.634 4.90223 1.17035 0
M  V30 2746 H 248.236 3.73824 -0.114611 0
M  V30 2747 H 250.528 6.69653 1.02819 0
M  V30 2748 H 251.471 7.06666 -0.450397 0
M  V30 2749 H 251.879 5.62095 0.520578 0
M  V30 2750 N 251.277 0.427512 1.51691 0
M  V30 2751 C 252.688 -0.0378867 1.86662 0
M  V30 2752 C 253.039 -1.42819 1.34525 0
M  V30 2753 O 252.164 -2.05037 0.692014 0
M  V30 2754 C 252.759 -0.0755266 3.38716 0
M  V30 2755 C 251.318 -0.485309 3.73258 0
M  V30 2756 C 250.465 0.328399 2.75349 0
M  V30 2757 H 253.416 0.64379 1.45055 0
M  V30 2758 H 253.437 -0.887056 3.70016 0
M  V30 2759 H 252.949 0.936487 3.76632 0
M  V30 2760 H 251.05 -1.50329 3.40928 0
M  V30 2761 H 251.163 -0.21693 4.78609 0
M  V30 2762 H 249.527 -0.211905 2.53817 0
M  V30 2763 H 250.31 1.3391 3.16106 0
M  V30 2764 N 252.755 -1.56801 0.158532 0
M  V30 2765 C 253.702 -2.17337 -0.776729 0
M  V30 2766 C 254.672 -1.1096 -1.23601 0
M  V30 2767 O 255.857 -1.39054 -1.30647 0
M  V30 2768 C 252.997 -2.80822 -2.00582 0
M  V30 2769 C 252.11 -4.01624 -1.59129 0
M  V30 2770 C 251.245 -4.53072 -2.77306 0
M  V30 2771 C 250.284 -5.66314 -2.32282 0
M  V30 2772 N 249.421 -6.12329 -3.43508 0
M  V30 2773 H 254.261 -2.96918 -0.253701 0
M  V30 2774 H 251.798 -1.46661 -0.113504 0
M  V30 2775 H 253.756 -3.15779 -2.72652 0
M  V30 2776 H 252.386 -2.03866 -2.50277 0
M  V30 2777 H 251.438 -3.72571 -0.767806 0
M  V30 2778 H 252.75 -4.83633 -1.2207 0
M  V30 2779 H 251.904 -4.90145 -3.57551 0
M  V30 2780 H 250.643 -3.70095 -3.17617 0
M  V30 2781 H 249.648 -5.28806 -1.5048 0
M  V30 2782 H 250.873 -6.51085 -1.93043 0
M  V30 2783 H 248.819 -5.32284 -3.83418 0
M  V30 2784 H 248.736 -6.89293 -3.105 0
M  V30 2785 H 250.004 -6.5405 -4.24075 0
M  V30 2786 N 254.233 0.115231 -1.57178 0
M  V30 2787 C 255.163 1.1423 -2.03651 0
M  V30 2788 C 256.144 1.42967 -0.921655 0
M  V30 2789 O 257.329 1.53343 -1.19162 0
M  V30 2790 C 254.459 2.4675 -2.44401 0
M  V30 2791 C 253.413 2.32467 -3.59365 0
M  V30 2792 C 252.739 3.69984 -3.86026 0
M  V30 2793 C 254.039 1.78203 -4.90959 0
M  V30 2794 H 255.733 0.755749 -2.89705 0
M  V30 2795 H 253.279 0.362093 -1.39373 0
M  V30 2796 H 255.232 3.18854 -2.75517 0
M  V30 2797 H 253.956 2.87302 -1.55322 0
M  V30 2798 H 252.615 1.62811 -3.28463 0
M  V30 2799 H 252.263 4.08028 -2.94147 0
M  V30 2800 H 251.963 3.61279 -4.63412 0
M  V30 2801 H 253.487 4.43587 -4.19599 0
M  V30 2802 H 254.901 2.40128 -5.20587 0
M  V30 2803 H 253.298 1.8031 -5.72371 0
M  V30 2804 H 254.368 0.739876 -4.79222 0
M  V30 2805 N 255.711 1.52812 0.385517 0
M  V30 2806 C 256.939 1.71907 1.15133 0
M  V30 2807 C 257.354 0.439004 1.83625 0
M  V30 2808 O 256.711 -0.586765 1.7281 0
M  V30 2809 C 256.762 2.87099 2.19673 0
M  V30 2810 O 256.483 4.10151 1.53973 0
M  V30 2811 C 257.984 3.17902 3.08955 0
M  V30 2812 H 255.204 0.575479 0.345057 0
M  V30 2813 H 257.748 1.99476 0.45052 0
M  V30 2814 H 255.903 2.61982 2.85384 0
M  V30 2815 H 256.317 4.74514 2.23465 0
M  V30 2816 H 257.791 4.01959 3.7833 0
M  V30 2817 H 258.268 2.3243 3.72657 0
M  V30 2818 H 258.874 3.44871 2.48885 0
M  V30 2819 N 257.189 -0.644168 1.43834 0
M  V30 2820 C 258.438 -1.39985 1.45214 0
M  V30 2821 C 258.751 -1.95421 0.0835494 0
M  V30 2822 O 259.957 -2.71488 -0.0251748 0
M  V30 2823 C 258.413 -2.53384 2.55587 0
M  V30 2824 C 258.021 -2.04517 3.98594 0
M  V30 2825 C 259.765 -3.30685 2.66172 0
M  V30 2826 C 257.672 -3.1518 5.00416 0
M  V30 2827 H 256.602 -0.526005 0.540218 0
M  V30 2828 H 259.253 -0.694367 1.69855 0
M  V30 2829 H 257.635 -3.26446 2.24163 0
M  V30 2830 H 258.809 -1.38405 4.39523 0
M  V30 2831 H 257.124 -1.40068 3.92135 0
M  V30 2832 H 259.721 -4.13158 3.39418 0
M  V30 2833 H 260.064 -3.79312 1.71546 0
M  V30 2834 H 260.597 -2.64708 2.96942 0
M  V30 2835 H 257.336 -2.71511 5.96625 0
M  V30 2836 H 256.856 -3.79974 4.64091 0
M  V30 2837 H 258.535 -3.80166 5.23529 0
M  V30 2838 N 258.668 -1.30515 -0.883378 0
M  V30 2839 C 259.914 -1.19607 -1.63774 0
M  V30 2840 C 260.247 0.248314 -1.92606 0
M  V30 2841 O 259.522 1.17742 -1.54813 0
M  V30 2842 C 259.805 -2.02669 -2.97653 0
M  V30 2843 C 259.658 -3.55335 -2.75784 0
M  V30 2844 C 260.977 -1.86573 -3.98596 0
M  V30 2845 H 258.096 -0.435856 -0.594305 0
M  V30 2846 H 260.738 -1.60165 -1.02212 0
M  V30 2847 H 258.888 -1.68208 -3.50197 0
M  V30 2848 H 260.56 -3.99863 -2.30016 0
M  V30 2849 H 258.803 -3.79438 -2.1026 0
M  V30 2850 H 259.474 -4.08745 -3.70988 0
M  V30 2851 H 261.95 -2.16703 -3.55217 0
M  V30 2852 H 260.826 -2.47014 -4.90179 0
M  V30 2853 H 261.087 -0.825321 -4.34328 0
M  V30 2854 N 260.146 1.09593 -1.13257 0
M  V30 2855 C 261.392 1.82003 -0.89458 0
M  V30 2856 C 261.725 1.85402 0.577906 0
M  V30 2857 O 261 1.32099 1.42759 0
M  V30 2858 C 261.283 3.28237 -1.48096 0
M  V30 2859 C 261.136 3.3312 -3.02244 0
M  V30 2860 C 262.455 4.24871 -1.14774 0
M  V30 2861 H 259.574 0.66077 -0.326424 0
M  V30 2862 H 262.216 1.28389 -1.40058 0
M  V30 2863 H 260.366 3.74024 -1.05062 0
M  V30 2864 H 262.038 2.95748 -3.54021 0
M  V30 2865 H 260.281 2.72756 -3.37323 0
M  V30 2866 H 260.952 4.3613 -3.38371 0
M  V30 2867 H 263.428 3.87361 -1.51957 0
M  V30 2868 H 262.304 5.25532 -1.58452 0
M  V30 2869 H 262.565 4.42058 -0.0611849 0
M  V30 2870 N 261.624 0.925811 1.2754 0
M  V30 2871 C 262.87 0.566092 1.94739 0
M  V30 2872 C 263.203 -0.890057 1.72603 0
M  V30 2873 O 262.478 -1.63467 1.05399 0
M  V30 2874 C 262.761 0.89054 3.48915 0
M  V30 2875 C 262.614 2.4003 3.80402 0
M  V30 2876 C 263.933 0.395101 4.38323 0
M  V30 2877 H 261.052 0.20714 0.707292 0
M  V30 2878 H 263.694 1.15725 1.50691 0
M  V30 2879 H 261.844 0.387452 3.86563 0
M  V30 2880 H 263.516 2.97494 3.52555 0
M  V30 2881 H 261.759 2.85028 3.2702 0
M  V30 2882 H 262.43 2.57785 4.8811 0
M  V30 2883 H 264.906 0.826241 4.07814 0
M  V30 2884 H 263.782 0.651086 5.45025 0
M  V30 2885 H 264.043 -0.704798 4.36446 0
M  V30 2886 N 263.102 -1.41638 0.69111 0
M  V30 2887 C 264.379 -1.95036 0.148421 0
M  V30 2888 C 264.759 -1.63072 -1.34055 0
M  V30 2889 O 264.107 -0.93538 -2.08478 0
M  V30 2890 C 264.317 -3.46279 0.434951 0
M  V30 2891 C 265.665 -4.23069 0.360275 0
M  V30 2892 O 266.689 -3.54277 0.369613 0
M  V30 2893 O 265.548 -5.45583 0.316534 0
M  V30 2894 H 262.642 -0.826908 0.0123654 0
M  V30 2895 H 265.188 -1.5138 0.766963 0
M  V30 2896 H 263.96 -3.6281 1.46576 0
M  V30 2897 H 263.583 -3.97019 -0.214787 0
M  V30 2898 N 264.58 -0.43555 -1.51462 0
M  V30 2899 C 265.808 0.130242 -2.0649 0
M  V30 2900 C 266.223 1.36614 -1.30315 0
M  V30 2901 O 265.58 1.78869 -0.362223 0
M  V30 2902 C 265.631 0.454253 -3.58635 0
M  V30 2903 O 265.352 -0.73259 -4.31931 0
M  V30 2904 C 266.853 1.07091 -4.3017 0
M  V30 2905 H 264.073 0.00871669 -0.670943 0
M  V30 2906 H 266.617 -0.614117 -1.95061 0
M  V30 2907 H 264.772 1.14851 -3.69984 0
M  V30 2908 H 265.186 -0.455787 -5.22516 0
M  V30 2909 H 266.66 1.24764 -5.37716 0
M  V30 2910 H 267.137 2.05144 -3.88346 0
M  V30 2911 H 267.743 0.416089 -4.2326 0
M  V30 2912 N 266.058 1.56714 -0.166846 0
M  V30 2913 C 267.307 1.95922 0.479318 0
M  V30 2914 C 267.62 1.05529 1.6469 0
M  V30 2915 O 268.826 1.34399 2.35901 0
M  V30 2916 C 267.282 3.48359 0.90412 0
M  V30 2917 C 266.89 4.47369 -0.237621 0
M  V30 2918 C 268.634 3.96394 1.51896 0
M  V30 2919 C 266.541 5.91039 0.206561 0
M  V30 2920 H 265.471 0.731495 0.18284 0
M  V30 2921 H 268.122 1.81728 -0.254363 0
M  V30 2922 H 266.504 3.57955 1.69365 0
M  V30 2923 H 267.678 4.49485 -1.01489 0
M  V30 2924 H 265.993 4.09366 -0.762128 0
M  V30 2925 H 268.59 5.01186 1.86325 0
M  V30 2926 H 268.933 3.39075 2.41524 0
M  V30 2927 H 269.466 3.89796 0.79395 0
M  V30 2928 H 266.205 6.52221 -0.654834 0
M  V30 2929 H 265.725 5.9224 0.949282 0
M  V30 2930 H 267.404 6.43707 0.651939 0
M  V30 2931 N 267.536 -0.106894 1.57237 0
M  V30 2932 C 268.947 -0.662723 1.74542 0
M  V30 2933 C 269.298 -1.7971 0.787319 0
M  V30 2934 O 268.423 -2.16368 -0.0369636 0
M  V30 2935 C 269.018 -1.20896 3.16496 0
M  V30 2936 C 267.577 -1.71096 3.35266 0
M  V30 2937 C 266.724 -0.615642 2.7038 0
M  V30 2938 H 269.675 0.119106 1.58252 0
M  V30 2939 H 269.696 -2.07847 3.18716 0
M  V30 2940 H 269.208 -0.383122 3.86204 0
M  V30 2941 H 267.309 -2.56119 2.70618 0
M  V30 2942 H 267.422 -1.81208 4.43509 0
M  V30 2943 H 265.786 -1.05222 2.31949 0
M  V30 2944 H 266.569 0.199419 3.4272 0
M  V30 2945 N 269.014 -1.53014 -0.377408 0
M  V30 2946 C 270.26 -1.68872 -1.12294 0
M  V30 2947 C 270.593 -0.433224 -1.89306 0
M  V30 2948 O 269.868 0.569258 -1.85983 0
M  V30 2949 C 270.151 -2.93115 -2.09179 0
M  V30 2950 C 270.004 -4.28794 -1.35853 0
M  V30 2951 C 271.323 -3.12928 -3.09458 0
M  V30 2952 H 268.442 -0.614518 -0.406862 0
M  V30 2953 H 271.084 -1.85633 -0.40503 0
M  V30 2954 H 269.234 -2.78956 -2.70399 0
M  V30 2955 H 270.906 -4.54742 -0.775082 0
M  V30 2956 H 269.149 -4.28744 -0.660364 0
M  V30 2957 H 269.82 -5.11837 -2.06706 0
M  V30 2958 H 272.296 -3.26194 -2.58334 0
M  V30 2959 H 271.172 -4.01316 -3.74482 0
M  V30 2960 H 271.433 -2.27669 -3.78971 0
M  V30 2961 N 270.492 0.636531 -1.44174 0
M  V30 2962 C 271.402 1.77754 -1.53103 0
M  V30 2963 C 272.418 1.68928 -0.417034 0
M  V30 2964 O 273.594 1.89801 -0.6736 0
M  V30 2965 C 270.659 3.14115 -1.46741 0
M  V30 2966 C 269.72 3.34612 -2.68948 0
M  V30 2967 C 268.953 4.64467 -2.6288 0
M  V30 2968 O 269.176 5.44919 -1.68581 0
M  V30 2969 O 268.11 4.87049 -3.53648 0
M  V30 2970 H 271.936 1.73174 -2.49489 0
M  V30 2971 H 269.521 0.79709 -1.2636 0
M  V30 2972 H 271.403 3.95412 -1.45696 0
M  V30 2973 H 270.078 3.19249 -0.534975 0
M  V30 2974 H 268.985 2.53014 -2.75562 0
M  V30 2975 H 270.318 3.34336 -3.61221 0
M  V30 2976 N 271.97 1.30982 0.876444 0
M  V30 2977 C 272.9 1.20668 1.99903 0
M  V30 2978 C 273.881 0.095354 1.69833 0
M  V30 2979 O 275.066 0.27885 1.92188 0
M  V30 2980 C 272.196 0.90655 3.3526 0
M  V30 2981 C 271.15 1.97675 3.79617 0
M  V30 2982 C 270.476 1.52943 5.1236 0
M  V30 2983 C 271.776 3.389 3.97422 0
M  V30 2984 H 273.47 2.14586 2.0879 0
M  V30 2985 H 271.016 1.03308 1.00317 0
M  V30 2986 H 272.969 0.821025 4.13324 0
M  V30 2987 H 271.693 -0.0682969 3.26529 0
M  V30 2988 H 270.352 2.05205 3.03787 0
M  V30 2989 H 270 0.54262 5.00065 0
M  V30 2990 H 269.7 2.24532 5.43009 0
M  V30 2991 H 271.224 1.45786 5.92941 0
M  V30 2992 H 272.638 3.34081 4.659 0
M  V30 2993 H 271.035 4.0865 4.3946 0
M  V30 2994 H 272.105 3.80163 3.01006 0
M  V30 2995 N 273.449 -1.08991 1.13837 0
M  V30 2996 C 274.396 -2.15748 0.819835 0
M  V30 2997 C 275.366 -1.64636 -0.220026 0
M  V30 2998 O 276.551 -1.90582 -0.0912757 0
M  V30 2999 C 273.691 -3.4382 0.296913 0
M  V30 3000 C 272.804 -4.0881 1.39636 0
M  V30 3001 C 271.939 -5.24655 0.831314 0
M  V30 3002 C 270.978 -5.81575 1.90886 0
M  V30 3003 N 270.115 -6.88774 1.36142 0
M  V30 3004 H 274.955 -2.42338 1.73426 0
M  V30 3005 H 272.492 -1.18935 0.865613 0
M  V30 3006 H 274.45 -4.17193 -0.0244339 0
M  V30 3007 H 273.08 -3.17535 -0.580628 0
M  V30 3008 H 272.132 -3.33258 1.83422 0
M  V30 3009 H 273.444 -4.47141 2.21058 0
M  V30 3010 H 272.598 -6.04942 0.461515 0
M  V30 3011 H 271.337 -4.87698 -0.013932 0
M  V30 3012 H 270.342 -4.99946 2.28767 0
M  V30 3013 H 271.567 -6.20592 2.75758 0
M  V30 3014 H 269.513 -6.53788 0.538254 0
M  V30 3015 H 269.43 -7.25898 2.11208 0
M  V30 3016 H 270.698 -7.72806 1.01933 0
M  V30 3017 N 274.927 -0.932562 -1.27047 0
M  V30 3018 C 276.152 -0.591474 -1.98787 0
M  V30 3019 C 276.577 0.824601 -1.69062 0
M  V30 3020 O 275.935 1.5541 -0.933677 0
M  V30 3021 C 275.983 -0.829808 -3.50922 0
M  V30 3022 O 275.087 0.102266 -4.12273 0
M  V30 3023 H 274.428 -0.227185 -0.623926 0
M  V30 3024 H 276.958 -1.25314 -1.61733 0
M  V30 3025 H 276.968 -0.747292 -4.01098 0
M  V30 3026 H 275.643 -1.86201 -3.7189 0
M  V30 3027 H 274.22 -0.0305761 -3.72887 0
M  V30 3028 N 276.405 1.4127 -0.698611 0
M  V30 3029 C 277.63 2.06024 -0.238512 0
M  V30 3030 C 278.055 1.5224 1.10475 0
M  V30 3031 O 277.413 0.650623 1.69223 0
M  V30 3032 C 277.461 3.59988 -0.209952 0
M  V30 3033 O 276.565 4.04282 0.814235 0
M  V30 3034 H 275.906 0.653829 -0.115775 0
M  V30 3035 H 278.436 1.8098 -0.954326 0
M  V30 3036 H 278.446 4.07979 -0.0418436 0
M  V30 3037 H 277.121 3.98503 -1.1903 0
M  V30 3038 H 275.698 3.6779 0.615234 0
M  V30 3039 N 277.883 0.443576 1.51229 0
M  V30 3040 C 279.113 -0.119117 2.06256 0
M  V30 3041 C 279.521 -1.36471 1.31043 0
M  V30 3042 O 278.864 -1.80034 0.365151 0
M  V30 3043 C 278.926 -0.500546 3.55998 0
M  V30 3044 C 278.59 0.639125 4.52509 0
M  V30 3045 C 279.587 1.51311 4.97394 0
M  V30 3046 C 277.272 0.821632 4.95535 0
M  V30 3047 C 279.266 2.55425 5.83984 0
M  V30 3048 C 276.953 1.86603 5.81913 0
M  V30 3049 C 277.951 2.73072 6.26036 0
M  V30 3050 O 277.639 3.75718 7.10698 0
M  V30 3051 H 277.371 -0.00857665 0.675946 0
M  V30 3052 H 279.925 0.623288 1.95715 0
M  V30 3053 H 278.155 -1.29575 3.64345 0
M  V30 3054 H 279.844 -0.995116 3.93513 0
M  V30 3055 H 280.61 1.38367 4.64844 0
M  V30 3056 H 276.489 0.158149 4.60729 0
M  V30 3057 H 280.033 3.22949 6.18344 0
M  V30 3058 H 275.93 1.99564 6.13876 0
M  V30 3059 H 276.698 3.72374 7.2889 0
M  V30 3060 N 279.361 -1.56624 0.175154 0
M  V30 3061 C 280.294 -2.14 -0.792412 0
M  V30 3062 C 281.272 -1.07114 -1.22333 0
M  V30 3063 O 282.456 -1.35112 -1.31442 0
M  V30 3064 C 279.583 -2.68268 -2.0676 0
M  V30 3065 C 278.629 -3.87562 -1.7804 0
M  V30 3066 S 279.462 -5.27074 -0.946222 0
M  V30 3067 C 280.618 -5.8475 -2.23199 0
M  V30 3068 H 280.851 -2.95736 -0.304588 0
M  V30 3069 H 278.384 -1.54349 -0.0395705 0
M  V30 3070 H 280.342 -3.00182 -2.80002 0
M  V30 3071 H 279.003 -1.86612 -2.52656 0
M  V30 3072 H 278.196 -4.23874 -2.72666 0
M  V30 3073 H 277.798 -3.56555 -1.12891 0
M  V30 3074 H 280.09 -5.97898 -3.18629 0
M  V30 3075 H 281.033 -6.81756 -1.91349 0
M  V30 3076 H 281.441 -5.13198 -2.35134 0
M  V30 3077 N 280.839 0.0985539 -1.57292 0
M  V30 3078 C 282.085 0.803867 -1.86188 0
M  V30 3079 C 282.418 1.78549 -0.763794 0
M  V30 3080 O 281.693 1.93153 0.22855 0
M  V30 3081 C 281.976 1.53568 -3.25713 0
M  V30 3082 C 281.829 0.572277 -4.46145 0
M  V30 3083 C 283.148 2.48708 -3.63087 0
M  V30 3084 H 280.267 0.290781 -0.677211 0
M  V30 3085 H 282.909 0.0675783 -1.8988 0
M  V30 3086 H 281.059 2.16332 -3.22696 0
M  V30 3087 H 282.731 -0.0480894 -4.61275 0
M  V30 3088 H 280.974 -0.114618 -4.33649 0
M  V30 3089 H 281.645 1.12139 -5.40489 0
M  V30 3090 H 284.121 1.96039 -3.67026 0
M  V30 3091 H 282.997 2.96932 -4.61652 0
M  V30 3092 H 283.258 3.32309 -2.91588 0
M  V30 3093 N 282.317 1.53212 0.369288 0
M  V30 3094 C 283.563 1.70413 1.11046 0
M  V30 3095 C 283.918 0.448509 1.87099 0
M  V30 3096 O 283.211 -0.558382 1.83283 0
M  V30 3097 C 283.405 2.89101 2.10132 0
M  V30 3098 C 283.234 4.26084 1.43814 0
M  V30 3099 C 282.004 4.90994 1.19384 0
M  V30 3100 C 284.202 5.06754 0.877802 0
M  V30 3101 N 282.184 6.11911 0.49377 0
M  V30 3102 C 283.555 6.1924 0.306891 0
M  V30 3103 C 285.61 4.91814 0.776129 0
M  V30 3104 C 284.313 7.1842 -0.355774 0
M  V30 3105 C 286.339 5.91263 0.127252 0
M  V30 3106 C 285.701 7.03069 -0.432801 0
M  V30 3107 H 281.8 0.676872 0.391623 0
M  V30 3108 H 284.384 1.90603 0.397334 0
M  V30 3109 H 282.555 2.70456 2.78761 0
M  V30 3110 H 284.287 2.95142 2.76899 0
M  V30 3111 H 281.042 4.50074 1.47413 0
M  V30 3112 H 281.466 6.76813 0.159207 0
M  V30 3113 H 286.108 4.05564 1.19489 0
M  V30 3114 H 283.826 8.04264 -0.786499 0
M  V30 3115 H 287.412 5.81779 0.0495613 0
M  V30 3116 H 286.292 7.78702 -0.926958 0
M  V30 3117 N 283.795 -0.628877 1.44509 0
M  V30 3118 C 285.02 -1.42048 1.5112 0
M  V30 3119 C 285.445 -1.87594 0.137818 0
M  V30 3120 O 284.803 -1.58873 -0.873437 0
M  V30 3121 C 284.851 -2.61541 2.48251 0
M  V30 3122 O 283.955 -3.61453 1.98559 0
M  V30 3123 H 283.296 -0.424942 0.510216 0
M  V30 3124 H 285.826 -0.767374 1.89664 0
M  V30 3125 H 285.836 -3.09057 2.66361 0
M  V30 3126 H 284.511 -2.27736 3.48007 0
M  V30 3127 H 283.088 -3.20731 1.90227 0
M  V30 3128 N 285.273 -1.31445 -0.869486 0
M  V30 3129 C 286.519 -1.22347 -1.62489 0
M  V30 3130 C 286.874 0.216204 -1.91181 0
M  V30 3131 O 286.167 1.14977 -1.53268 0
M  V30 3132 C 286.361 -2.00145 -2.96102 0
M  V30 3133 C 286.19 -3.51531 -2.80456 0
M  V30 3134 C 284.96 -4.20882 -2.79618 0
M  V30 3135 C 287.158 -4.46471 -2.5528 0
M  V30 3136 N 285.14 -5.58421 -2.55027 0
M  V30 3137 C 286.511 -5.71682 -2.39957 0
M  V30 3138 C 288.566 -4.35892 -2.40629 0
M  V30 3139 C 287.269 -6.87511 -2.11472 0
M  V30 3140 C 289.295 -5.51505 -2.13532 0
M  V30 3141 C 288.657 -6.75707 -1.98998 0
M  V30 3142 H 284.756 -0.502815 -0.598917 0
M  V30 3143 H 287.34 -1.65639 -1.02332 0
M  V30 3144 H 285.511 -1.59221 -3.54264 0
M  V30 3145 H 287.243 -1.83063 -3.60929 0
M  V30 3146 H 283.998 -3.72857 -2.92018 0
M  V30 3147 H 284.422 -6.30841 -2.45701 0
M  V30 3148 H 289.064 -3.40533 -2.50593 0
M  V30 3149 H 286.782 -7.82897 -2.00245 0
M  V30 3150 H 290.368 -5.45238 -2.02995 0
M  V30 3151 H 289.248 -7.63655 -1.78326 0
M  V30 3152 N 286.751 1.08385 -1.14413 0
M  V30 3153 C 287.998 1.80776 -0.912482 0
M  V30 3154 C 288.326 1.86236 0.560934 0
M  V30 3155 O 287.581 1.33431 1.43159 0
M  V30 3156 C 287.88 3.26273 -1.45879 0
M  V30 3157 C 287.546 3.4093 -2.95089 0
M  V30 3158 C 286.208 3.44638 -3.35824 0
M  V30 3159 C 288.56 3.44591 -3.91033 0
M  V30 3160 C 285.888 3.49597 -4.71167 0
M  V30 3161 C 288.24 3.51086 -5.26233 0
M  V30 3162 C 286.904 3.53067 -5.6648 0
M  V30 3163 H 286.174 0.661507 -0.333901 0
M  V30 3164 H 288.821 1.27613 -1.42784 0
M  V30 3165 H 287.126 3.82146 -0.864376 0
M  V30 3166 H 288.823 3.80839 -1.2555 0
M  V30 3167 H 285.413 3.38736 -2.62594 0
M  V30 3168 H 289.597 3.40957 -3.60641 0
M  V30 3169 H 284.853 3.49424 -5.0171 0
M  V30 3170 H 289.027 3.52864 -6.00383 0
M  V30 3171 H 286.654 3.56662 -6.71339 0
M  V30 3172 N 288.23 0.939286 1.26551 0
M  V30 3173 C 289.479 0.581601 1.93133 0
M  V30 3174 C 289.792 -0.883224 1.74524 0
M  V30 3175 O 290.998 -1.3502 2.35546 0
M  V30 3176 C 289.454 0.989425 3.46032 0
M  V30 3177 C 289.062 2.47573 3.73379 0
M  V30 3178 C 290.806 0.703544 4.18629 0
M  V30 3179 C 288.713 2.82235 5.19709 0
M  V30 3180 H 287.643 0.213803 0.723052 0
M  V30 3181 H 290.294 1.14167 1.4366 0
M  V30 3182 H 288.676 0.357902 3.94379 0
M  V30 3183 H 289.85 3.15614 3.35744 0
M  V30 3184 H 288.165 2.73471 3.1401 0
M  V30 3185 H 290.762 0.938869 5.26393 0
M  V30 3186 H 291.105 -0.359639 4.14744 0
M  V30 3187 H 291.638 1.2947 3.76141 0
M  V30 3188 H 288.377 3.87509 5.28694 0
M  V30 3189 H 287.897 2.18854 5.58447 0
M  V30 3190 H 289.576 2.70599 5.87695 0
M  V30 3191 N 289.708 -1.40897 0.706093 0
M  V30 3192 C 290.938 -2.05075 0.250523 0
M  V30 3193 C 291.346 -1.53275 -1.10921 0
M  V30 3194 O 290.689 -0.680281 -1.7064 0
M  V30 3195 C 290.751 -3.59219 0.142178 0
M  V30 3196 C 290.415 -4.33864 1.43566 0
M  V30 3197 C 291.412 -4.62448 2.37566 0
M  V30 3198 C 289.097 -4.72946 1.69195 0
M  V30 3199 C 291.091 -5.29088 3.5545 0
M  V30 3200 C 288.778 -5.3932 2.87362 0
M  V30 3201 C 289.776 -5.6732 3.80312 0
M  V30 3202 O 289.464 -6.32325 4.96408 0
M  V30 3203 H 289.196 -0.666645 0.112074 0
M  V30 3204 H 291.75 -1.81467 0.962239 0
M  V30 3205 H 289.98 -3.81609 -0.6254 0
M  V30 3206 H 291.669 -4.0495 -0.277584 0
M  V30 3207 H 292.435 -4.32727 2.19027 0
M  V30 3208 H 288.314 -4.50527 0.977042 0
M  V30 3209 H 291.858 -5.50859 4.28018 0
M  V30 3210 H 287.755 -5.68461 3.05814 0
M  V30 3211 H 288.523 -6.50821 4.9636 0
M  V30 3212 N 291.186 -0.45159 -1.50991 0
M  V30 3213 C 292.432 0.110237 -2.025 0
M  V30 3214 C 292.765 1.41109 -1.33424 0
M  V30 3215 O 292.04 1.89135 -0.453659 0
M  V30 3216 C 292.323 0.314271 -3.58726 0
M  V30 3217 C 292.176 -1.00623 -4.38401 0
M  V30 3218 C 293.495 1.07767 -4.26702 0
M  V30 3219 H 290.614 0.0385897 -0.735989 0
M  V30 3220 H 293.256 -0.593374 -1.80497 0
M  V30 3221 H 291.406 0.913601 -3.77605 0
M  V30 3222 H 293.078 -1.64064 -4.31139 0
M  V30 3223 H 291.321 -1.6075 -4.02917 0
M  V30 3224 H 291.992 -0.817341 -5.45915 0
M  V30 3225 H 294.468 0.56986 -4.12179 0
M  V30 3226 H 293.344 1.18921 -5.35863 0
M  V30 3227 H 293.605 2.10939 -3.88532 0
M  V30 3228 N 292.664 1.56529 -0.183458 0
M  V30 3229 C 293.594 2.21549 0.737456 0
M  V30 3230 C 294.575 1.17489 1.23005 0
M  V30 3231 O 295.76 1.45959 1.281 0
M  V30 3232 C 292.89 2.86575 1.96194 0
M  V30 3233 C 291.844 3.96778 1.60473 0
M  V30 3234 C 291.17 4.48911 2.90487 0
M  V30 3235 C 292.47 5.15767 0.823497 0
M  V30 3236 H 294.164 2.98761 0.195453 0
M  V30 3237 H 291.71 1.43702 0.0925686 0
M  V30 3238 H 293.663 3.30739 2.61131 0
M  V30 3239 H 292.387 2.06749 2.52828 0
M  V30 3240 H 291.046 3.53286 0.978997 0
M  V30 3241 H 290.694 3.65862 3.45186 0
M  V30 3242 H 290.394 5.23265 2.67335 0
M  V30 3243 H 291.918 4.95771 3.56432 0
M  V30 3244 H 293.332 5.56549 1.37571 0
M  V30 3245 H 291.729 5.96114 0.690551 0
M  V30 3246 H 292.799 4.84574 -0.177782 0
M  V30 3247 N 294.142 -0.090211 1.57342 0
M  V30 3248 C 295.367 -0.810082 1.90925 0
M  V30 3249 C 295.792 -1.71248 0.778187 0
M  V30 3250 O 295.15 -1.79278 -0.269991 0
M  V30 3251 C 295.198 -1.59529 3.23393 0
M  V30 3252 O 294.302 -2.70461 3.11327 0
M  V30 3253 H 293.643 -0.222231 0.625707 0
M  V30 3254 H 296.173 -0.0639716 2.045 0
M  V30 3255 H 296.183 -1.97847 3.5682 0
M  V30 3256 H 294.858 -0.933055 4.05299 0
M  V30 3257 H 293.435 -2.35135 2.89423 0
M  V30 3258 N 295.62 -1.53406 -0.361157 0
M  V30 3259 C 296.583 -1.79479 -1.42548 0
M  V30 3260 C 297.583 -0.665327 -1.4639 0
M  V30 3261 O 298.773 -0.933549 -1.47073 0
M  V30 3262 C 295.905 -1.92087 -2.8163 0
M  V30 3263 H 297.098 -2.74538 -1.20701 0
M  V30 3264 H 294.651 -1.4455 -0.594546 0
M  V30 3265 H 295.386 -0.991099 -3.08784 0
M  V30 3266 H 295.171 -2.74241 -2.80239 0
M  V30 3267 H 296.661 -2.13836 -3.58697 0
M  V30 3268 N 297.098 0.621204 -1.44841 0
M  V30 3269 C 298.046 1.75385 -1.52784 0
M  V30 3270 C 299.04 1.64639 -0.398779 0
M  V30 3271 O 300.246 1.70598 -0.574137 0
M  V30 3272 H 296.621 0.579193 -0.479625 0
M  V30 3273 H 298.592 1.6581 -2.48092 0
M  V30 3274 C 297.341 3.13742 -1.4987 0
M  V30 3275 H 296.664 3.22663 -2.36069 0
M  V30 3276 H 298.104 3.92861 -1.59487 0
M  V30 3277 C 296.563 3.36175 -0.220973 0
M  V30 3278 O 297.093 3.95469 0.704782 0
M  V30 3279 N 295.299 2.90348 -0.120963 0
M  V30 3280 H 294.846 2.42278 -0.875162 0
M  V30 3281 H 294.804 3.05732 0.733168 0
M  V30 3282 N 298.576 1.31904 0.862503 0
M  V30 3283 C 299.506 1.22782 1.98612 0
M  V30 3284 C 300.487 0.113362 1.69722 0
M  V30 3285 O 301.672 0.299218 1.91881 0
M  V30 3286 C 298.802 0.942058 3.34279 0
M  V30 3287 C 297.756 2.0169 3.77499 0
M  V30 3288 C 297.082 1.58369 5.10709 0
M  V30 3289 C 298.382 3.43096 3.93805 0
M  V30 3290 H 300.076 2.16788 2.06502 0
M  V30 3291 H 297.622 1.04366 0.992154 0
M  V30 3292 H 299.575 0.864818 4.1243 0
M  V30 3293 H 298.299 -0.0336603 3.26583 0
M  V30 3294 H 296.958 2.08416 3.01593 0
M  V30 3295 H 296.606 0.595628 4.99461 0
M  V30 3296 H 296.306 2.30279 5.40597 0
M  V30 3297 H 297.83 1.52067 5.91361 0
M  V30 3298 H 299.244 3.39003 4.62331 0
M  V30 3299 H 297.641 4.13288 4.35101 0
M  V30 3300 H 298.711 3.83334 2.96957 0
M  V30 3301 N 300.054 -1.07777 1.14986 0
M  V30 3302 C 300.984 -2.16865 0.865557 0
M  V30 3303 C 301.965 -1.69123 -0.182083 0
M  V30 3304 O 303.15 -1.94164 -0.0373815 0
M  V30 3305 C 300.28 -3.45539 0.349313 0
M  V30 3306 C 299.234 -4.06708 1.33313 0
M  V30 3307 C 298.56 -5.30411 0.675918 0
M  V30 3308 C 299.86 -4.47241 2.69764 0
M  V30 3309 H 301.554 -2.40905 1.77778 0
M  V30 3310 H 299.1 -1.15781 0.856203 0
M  V30 3311 H 301.053 -4.21174 0.137983 0
M  V30 3312 H 299.777 -3.21072 -0.598362 0
M  V30 3313 H 298.436 -3.33112 1.53075 0
M  V30 3314 H 298.084 -5.02232 -0.277767 0
M  V30 3315 H 297.784 -5.72293 1.33244 0
M  V30 3316 H 299.308 -6.08755 0.474262 0
M  V30 3317 H 300.722 -5.14025 2.53873 0
M  V30 3318 H 299.119 -5.00062 3.3175 0
M  V30 3319 H 300.189 -3.58818 3.26156 0
M  V30 3320 N 301.532 -0.945985 -1.26051 0
M  V30 3321 C 302.462 -0.477172 -2.28572 0
M  V30 3322 C 303.443 0.472032 -1.63419 0
M  V30 3323 O 304.628 0.372853 -1.90587 0
M  V30 3324 C 301.758 0.253975 -3.4637 0
M  V30 3325 C 300.712 -0.609135 -4.23643 0
M  V30 3326 C 300.038 0.252252 -5.34105 0
M  V30 3327 C 301.338 -1.8829 -4.8718 0
M  V30 3328 H 303.032 -1.33402 -2.68038 0
M  V30 3329 H 300.578 -0.642904 -1.28852 0
M  V30 3330 H 302.531 0.593016 -4.17207 0
M  V30 3331 H 301.255 1.145 -3.05871 0
M  V30 3332 H 299.914 -0.931138 -3.54578 0
M  V30 3333 H 299.562 1.14278 -4.89846 0
M  V30 3334 H 299.262 -0.32188 -5.86718 0
M  V30 3335 H 300.786 0.586454 -6.07777 0
M  V30 3336 H 302.2 -1.61081 -5.50205 0
M  V30 3337 H 300.597 -2.40199 -5.49931 0
M  V30 3338 H 301.667 -2.59134 -4.09851 0
M  V30 3339 N 303.011 1.40521 -0.713556 0
M  V30 3340 C 304.257 2.01221 -0.252564 0
M  V30 3341 C 304.59 1.56444 1.1506 0
M  V30 3342 O 303.865 0.783597 1.78017 0
M  V30 3343 C 304.148 3.58582 -0.330332 0
M  V30 3344 C 304.001 4.13437 -1.77173 0
M  V30 3345 C 305.32 4.39079 0.299641 0
M  V30 3346 H 302.439 0.731077 -0.0932471 0
M  V30 3347 H 305.081 1.67026 -0.905673 0
M  V30 3348 H 303.231 3.87844 0.225737 0
M  V30 3349 H 304.903 3.9498 -2.38303 0
M  V30 3350 H 303.146 3.67801 -2.3001 0
M  V30 3351 H 303.817 5.22597 -1.77755 0
M  V30 3352 H 306.293 4.15735 -0.174139 0
M  V30 3353 H 305.169 5.4848 0.214771 0
M  V30 3354 H 305.43 4.19915 1.38288 0
M  V30 3355 N 304.489 0.459591 1.5075 0
M  V30 3356 C 305.738 -0.100971 2.01447 0
M  V30 3357 C 306.051 -1.41816 1.34713 0
M  V30 3358 O 307.257 -2.06299 1.76502 0
M  V30 3359 C 305.713 -0.23047 3.59161 0
M  V30 3360 C 305.321 1.0776 4.34847 0
M  V30 3361 C 307.065 -0.743608 4.17936 0
M  V30 3362 C 304.972 0.91253 5.84317 0
M  V30 3363 H 303.902 -0.0415102 0.752856 0
M  V30 3364 H 306.553 0.592742 1.73663 0
M  V30 3365 H 304.935 -0.987703 3.83485 0
M  V30 3366 H 306.109 1.8449 4.22256 0
M  V30 3367 H 304.424 1.52097 3.87628 0
M  V30 3368 H 307.021 -0.883959 5.27343 0
M  V30 3369 H 307.364 -1.73196 3.78562 0
M  V30 3370 H 307.897 -0.04408 3.97776 0
M  V30 3371 H 304.636 1.87391 6.28144 0
M  V30 3372 H 304.156 0.185422 5.99513 0
M  V30 3373 H 305.835 0.574547 6.44444 0
M  V30 3374 N 305.967 -1.56429 0.191757 0
M  V30 3375 C 307.378 -1.83912 -0.321428 0
M  V30 3376 C 307.729 -1.11231 -1.61623 0
M  V30 3377 O 306.854 -0.37202 -2.13178 0
M  V30 3378 C 307.449 -3.33624 -0.589961 0
M  V30 3379 C 306.008 -3.6153 -1.04753 0
M  V30 3380 C 305.155 -2.7714 -0.0943327 0
M  V30 3381 H 308.106 -1.53161 0.415612 0
M  V30 3382 H 308.127 -3.52213 -1.43966 0
M  V30 3383 H 307.639 -3.86495 0.352588 0
M  V30 3384 H 305.74 -3.14089 -2.00447 0
M  V30 3385 H 305.853 -4.69737 -0.942549 0
M  V30 3386 H 304.217 -2.47638 -0.595589 0
M  V30 3387 H 305 -3.32799 0.842601 0
M  V30 3388 N 307.445 0.0818655 -1.57387 0
M  V30 3389 C 308.375 1.09885 -2.06028 0
M  V30 3390 C 309.356 1.4098 -0.951774 0
M  V30 3391 O 310.541 1.50781 -1.22387 0
M  V30 3392 C 307.671 2.4151 -2.4958 0
M  V30 3393 C 306.625 2.24792 -3.64215 0
M  V30 3394 C 305.951 3.61712 -3.93787 0
M  V30 3395 C 307.251 1.67749 -4.94629 0
M  V30 3396 H 308.945 0.694128 -2.91243 0
M  V30 3397 H 306.491 0.332448 -1.4011 0
M  V30 3398 H 308.444 3.12939 -2.82219 0
M  V30 3399 H 307.168 2.83943 -1.61381 0
M  V30 3400 H 305.827 1.55807 -3.31843 0
M  V30 3401 H 305.475 4.01697 -3.02735 0
M  V30 3402 H 305.175 3.51368 -4.70971 0
M  V30 3403 H 306.699 4.34587 -4.28913 0
M  V30 3404 H 308.113 2.29032 -5.25564 0
M  V30 3405 H 306.51 1.68128 -5.76067 0
M  V30 3406 H 307.58 0.638059 -4.80684 0
M  V30 3407 N 308.923 1.53595 0.353017 0
M  V30 3408 C 309.853 1.83902 1.43883 0
M  V30 3409 C 310.834 0.693421 1.55324 0
M  V30 3410 O 312.019 0.944452 1.69687 0
M  V30 3411 C 309.149 2.04016 2.8106 0
M  V30 3412 C 308.103 3.19814 2.84434 0
M  V30 3413 C 307.429 3.25244 4.24406 0
M  V30 3414 C 308.729 4.58133 2.50822 0
M  V30 3415 H 310.423 2.74835 1.1877 0
M  V30 3416 H 307.969 1.32242 0.569917 0
M  V30 3417 H 309.922 2.238 3.57059 0
M  V30 3418 H 308.646 1.09804 3.07588 0
M  V30 3419 H 307.305 2.9987 2.10887 0
M  V30 3420 H 306.953 2.28646 4.48029 0
M  V30 3421 H 306.653 4.03054 4.27576 0
M  V30 3422 H 308.177 3.47228 5.0226 0
M  V30 3423 H 309.591 4.77995 3.16534 0
M  V30 3424 H 307.988 5.38276 2.6529 0
M  V30 3425 H 309.058 4.62387 1.46034 0
M  V30 3426 N 310.401 -0.613514 1.45168 0
M  V30 3427 C 311.647 -1.37279 1.50087 0
M  V30 3428 C 312.002 -1.91902 0.138294 0
M  V30 3429 O 311.295 -1.71764 -0.84899 0
M  V30 3430 C 311.489 -2.54347 2.51083 0
M  V30 3431 C 311.318 -2.11186 3.97027 0
M  V30 3432 C 310.088 -1.97636 4.65046 0
M  V30 3433 C 312.286 -1.69016 4.85735 0
M  V30 3434 N 310.268 -1.48224 5.95737 0
M  V30 3435 C 311.639 -1.30976 6.06008 0
M  V30 3436 C 313.694 -1.56555 4.72647 0
M  V30 3437 C 312.397 -0.817197 7.14643 0
M  V30 3438 C 314.423 -1.08702 5.81324 0
M  V30 3439 C 313.785 -0.716233 7.00749 0
M  V30 3440 H 309.884 -0.496478 0.60418 0
M  V30 3441 H 312.468 -0.701988 1.81605 0
M  V30 3442 H 310.639 -3.19031 2.21527 0
M  V30 3443 H 312.371 -3.21208 2.46187 0
M  V30 3444 H 309.126 -2.18638 4.20112 0
M  V30 3445 H 309.55 -1.25767 6.65216 0
M  V30 3446 H 314.192 -1.83849 3.80736 0
M  V30 3447 H 311.91 -0.531797 8.06348 0
M  V30 3448 H 315.496 -0.994943 5.7323 0
M  V30 3449 H 314.376 -0.351642 7.83411 0
M  V30 3450 N 311.879 -1.3236 -0.855495 0
M  V30 3451 C 313.125 -1.23054 -1.612 0
M  V30 3452 C 313.458 0.207404 -1.93089 0
M  V30 3453 O 312.733 1.14432 -1.57275 0
M  V30 3454 C 313.016 -2.08937 -2.93287 0
M  V30 3455 C 312.869 -3.61105 -2.68185 0
M  V30 3456 C 314.188 -1.94986 -3.94549 0
M  V30 3457 H 311.307 -0.448364 -0.584926 0
M  V30 3458 H 313.949 -1.62297 -0.987917 0
M  V30 3459 H 312.099 -1.75599 -3.46551 0
M  V30 3460 H 313.771 -4.04652 -2.21483 0
M  V30 3461 H 312.014 -3.83813 -2.02164 0
M  V30 3462 H 312.685 -4.16522 -3.62234 0
M  V30 3463 H 315.161 -2.24189 -3.5054 0
M  V30 3464 H 314.037 -2.57356 -4.84829 0
M  V30 3465 H 314.298 -0.917263 -4.3248 0
M  V30 3466 N 313.357 1.07166 -1.15556 0
M  V30 3467 C 314.32 2.12589 -0.856644 0
M  V30 3468 C 315.32 1.6015 0.14444 0
M  V30 3469 O 316.51 1.7399 -0.0854163 0
M  V30 3470 C 313.642 3.39753 -0.279405 0
M  V30 3471 H 314.835 2.40539 -1.79112 0
M  V30 3472 H 312.388 1.23086 -0.963298 0
M  V30 3473 H 313.123 3.17447 0.663174 0
M  V30 3474 H 312.908 3.79117 -1.00063 0
M  V30 3475 H 314.398 4.17507 -0.0879113 0
M  V30 3476 N 314.835 0.952656 1.25548 0
M  V30 3477 C 315.798 0.475794 2.24207 0
M  V30 3478 C 316.798 -0.419428 1.55234 0
M  V30 3479 O 317.988 -0.216994 1.72843 0
M  V30 3480 C 315.12 -0.312814 3.39462 0
M  V30 3481 H 316.313 1.34779 2.67908 0
M  V30 3482 H 313.866 0.735739 1.37901 0
M  V30 3483 H 314.601 -1.20257 3.01179 0
M  V30 3484 H 314.386 0.329404 3.90714 0
M  V30 3485 H 315.876 -0.635986 4.12729 0
M  V30 3486 N 316.313 -1.40141 0.720998 0
M  V30 3487 C 317.559 -2.01572 0.272075 0
M  V30 3488 C 317.914 -1.5616 -1.12391 0
M  V30 3489 O 317.207 -0.774198 -1.75262 0
M  V30 3490 C 317.401 -3.56165 0.296892 0
M  V30 3491 C 317.23 -4.16584 1.69375 0
M  V30 3492 C 316 -4.49783 2.30269 0
M  V30 3493 C 318.198 -4.41076 2.64493 0
M  V30 3494 N 316.18 -4.95626 3.62254 0
M  V30 3495 C 317.551 -4.88971 3.81192 0
M  V30 3496 C 319.606 -4.23122 2.62435 0
M  V30 3497 C 318.309 -5.20796 4.96149 0
M  V30 3498 C 320.335 -4.56052 3.76524 0
M  V30 3499 C 319.697 -5.04141 4.91956 0
M  V30 3500 H 315.796 -0.768343 0.145511 0
M  V30 3501 H 318.38 -1.70287 0.943959 0
M  V30 3502 H 316.551 -3.86868 -0.344578 0
M  V30 3503 H 318.283 -4.04346 -0.169254 0
M  V30 3504 H 315.038 -4.37101 1.82318 0
M  V30 3505 H 315.462 -5.22923 4.29977 0
M  V30 3506 H 320.104 -3.85158 1.74393 0
M  V30 3507 H 317.822 -5.57672 5.84831 0
M  V30 3508 H 321.408 -4.43796 3.76213 0
M  V30 3509 H 320.288 -5.29142 5.78774 0
M  V30 3510 N 317.792 -0.46758 -1.50504 0
M  V30 3511 C 319.038 0.0808869 -2.03239 0
M  V30 3512 C 319.393 1.37721 -1.34353 0
M  V30 3513 O 318.686 1.86016 -0.459194 0
M  V30 3514 C 318.88 0.323995 -3.55928 0
M  V30 3515 C 318.709 -0.947215 -4.39611 0
M  V30 3516 C 317.479 -1.48951 -4.82848 0
M  V30 3517 C 319.677 -1.84166 -4.80195 0
M  V30 3518 N 317.659 -2.71011 -5.50842 0
M  V30 3519 C 319.03 -2.90815 -5.47564 0
M  V30 3520 C 321.085 -1.85246 -4.62156 0
M  V30 3521 C 319.788 -3.98529 -5.98805 0
M  V30 3522 C 321.814 -2.91914 -5.14335 0
M  V30 3523 C 321.176 -3.97282 -5.81676 0
M  V30 3524 H 317.275 -0.0103394 -0.781932 0
M  V30 3525 H 319.859 -0.635003 -1.84054 0
M  V30 3526 H 318.03 1.00892 -3.75067 0
M  V30 3527 H 319.762 0.866492 -3.95315 0
M  V30 3528 H 316.517 -1.03918 -4.62058 0
M  V30 3529 H 316.941 -3.32988 -5.89447 0
M  V30 3530 H 321.583 -1.05103 -4.09528 0
M  V30 3531 H 319.301 -4.79491 -6.50472 0
M  V30 3532 H 322.887 -2.93729 -5.0221 0
M  V30 3533 H 321.767 -4.78462 -6.21324 0
M  V30 3534 N 319.27 1.56325 -0.20005 0
M  V30 3535 C 320.495 2.02548 0.44597 0
M  V30 3536 C 320.92 1.07922 1.5406 0
M  V30 3537 O 320.278 0.0635775 1.81188 0
M  V30 3538 C 320.326 3.47175 0.974761 0
M  V30 3539 O 319.43 3.55671 2.08739 0
M  V30 3540 H 318.771 0.655862 0.103638 0
M  V30 3541 H 321.301 2.02201 -0.312381 0
M  V30 3542 H 321.311 3.87067 1.2901 0
M  V30 3543 H 319.986 4.15538 0.17347 0
M  V30 3544 H 318.563 3.27657 1.78032 0
M  V30 3545 N 320.748 -0.0735177 1.57428 0
M  V30 3546 C 321.678 -1.0879 2.06608 0
M  V30 3547 C 322.659 -1.40473 0.959237 0
M  V30 3548 O 323.844 -1.5013 1.23185 0
M  V30 3549 C 320.974 -2.40183 2.50857 0
M  V30 3550 C 319.928 -2.22858 3.65402 0
M  V30 3551 C 319.254 -3.59619 3.957 0
M  V30 3552 C 320.554 -1.65123 4.95511 0
M  V30 3553 H 322.248 -0.678673 2.91607 0
M  V30 3554 H 319.794 -0.325013 1.40284 0
M  V30 3555 H 321.747 -3.11437 2.83874 0
M  V30 3556 H 320.471 -2.83083 1.62885 0
M  V30 3557 H 319.13 -1.54045 3.32664 0
M  V30 3558 H 318.778 -4.00086 3.04861 0
M  V30 3559 H 318.478 -3.48866 4.72828 0
M  V30 3560 H 320.002 -4.32306 4.31212 0
M  V30 3561 H 321.416 -2.26241 5.26771 0
M  V30 3562 H 319.813 -1.65071 5.7695 0
M  V30 3563 H 320.883 -0.612559 4.81015 0
M  V30 3564 N 322.226 -1.5378 -0.344866 0
M  V30 3565 C 323.642 -1.44015 -0.687888 0
M  V30 3566 C 323.842 -0.595834 -1.92489 0
M  V30 3567 O 322.898 -0.0863064 -2.52352 0
M  V30 3568 C 324.211 -2.87481 -0.881758 0
M  V30 3569 C 325.759 -2.97247 -0.980459 0
M  V30 3570 C 326.234 -4.41819 -1.20665 0
M  V30 3571 N 327.725 -4.45339 -1.27389 0
M  V30 3572 C 328.46 -5.54333 -1.46639 0
M  V30 3573 N 327.956 -6.73335 -1.63071 0
M  V30 3574 N 329.749 -5.41944 -1.49176 0
M  V30 3575 H 321.9 -2.07169 0.468475 0
M  V30 3576 H 324.163 -0.93643 0.147655 0
M  V30 3577 H 323.869 -3.51672 -0.0443444 0
M  V30 3578 H 323.743 -3.32352 -1.78388 0
M  V30 3579 H 326.13 -2.33197 -1.8084 0
M  V30 3580 H 326.211 -2.5574 -0.0552713 0
M  V30 3581 H 325.855 -5.06449 -0.383652 0
M  V30 3582 H 325.785 -4.80917 -2.14539 0
M  V30 3583 H 328.276 -3.59585 -1.1622 0
M  V30 3584 H 328.589 -7.52165 -1.77391 0
M  V30 3585 H 326.934 -6.76282 -1.60209 0
M  V30 3586 H 330.125 -4.47932 -1.3592 0
M  V30 3587 H 330.298 -6.26946 -1.63837 0
M  V30 3588 N 323.704 0.605807 -1.45491 0
M  V30 3589 C 325.115 1.18777 -1.44045 0
M  V30 3590 C 325.466 1.95471 -0.169001 0
M  V30 3591 O 324.591 2.0374 0.729324 0
M  V30 3592 C 325.186 2.16064 -2.60963 0
M  V30 3593 C 323.745 2.69633 -2.62631 0
M  V30 3594 C 322.892 1.45072 -2.36325 0
M  V30 3595 H 325.843 0.395017 -1.53705 0
M  V30 3596 H 325.864 2.9913 -2.35163 0
M  V30 3597 H 325.376 1.60217 -3.53486 0
M  V30 3598 H 323.477 3.29414 -1.74119 0
M  V30 3599 H 323.59 3.13944 -3.61906 0
M  V30 3600 H 321.954 1.74089 -1.85917 0
M  V30 3601 H 322.737 0.910899 -3.30995 0
M  V30 3602 N 325.182 1.32811 0.848464 0
M  V30 3603 C 326.431 1.23075 1.59798 0
M  V30 3604 C 326.744 -0.204419 1.94529 0
M  V30 3605 O 327.95 -0.423701 2.68173 0
M  V30 3606 C 326.406 2.15594 2.88179 0
M  V30 3607 C 326.014 3.64228 2.60849 0
M  V30 3608 C 327.758 2.14709 3.66197 0
M  V30 3609 C 325.665 4.48689 3.85269 0
M  V30 3610 H 324.595 0.457091 0.599653 0
M  V30 3611 H 327.246 1.57813 0.936342 0
M  V30 3612 H 325.628 1.73778 3.55833 0
M  V30 3613 H 326.802 4.14424 2.01467 0
M  V30 3614 H 325.117 3.67306 1.96151 0
M  V30 3615 H 327.714 2.75046 4.58534 0
M  V30 3616 H 328.057 1.13966 4.00397 0
M  V30 3617 H 328.59 2.54837 3.05455 0
M  V30 3618 H 325.329 5.5027 3.56207 0
M  V30 3619 H 324.849 4.03241 4.44024 0
M  V30 3620 H 326.528 4.62006 4.52946 0
M  V30 3621 N 326.66 -1.06551 1.16123 0
M  V30 3622 C 327.57 -2.17484 0.879662 0
M  V30 3623 C 328.586 -1.73377 -0.147104 0
M  V30 3624 O 329.762 -2.01379 0.0289128 0
M  V30 3625 C 326.827 -3.44591 0.381829 0
M  V30 3626 C 325.888 -4.0322 1.4735 0
M  V30 3627 C 325.121 -5.24261 0.999324 0
M  V30 3628 O 325.344 -5.70198 -0.151957 0
M  V30 3629 O 324.278 -5.74775 1.78653 0
M  V30 3630 H 328.104 -2.44075 1.80724 0
M  V30 3631 H 325.689 -1.16042 0.940992 0
M  V30 3632 H 327.571 -4.21254 0.111053 0
M  V30 3633 H 326.246 -3.19532 -0.51777 0
M  V30 3634 H 325.153 -3.2806 1.79798 0
M  V30 3635 H 326.486 -4.32568 2.34831 0
M  V30 3636 N 328.138 -0.959301 -1.25041 0
M  V30 3637 C 329.101 -0.487677 -2.23952 0
M  V30 3638 C 330.101 0.41119 -1.55454 0
M  V30 3639 O 331.291 0.207825 -1.72956 0
M  V30 3640 C 328.423 0.294807 -3.39623 0
M  V30 3641 H 329.616 -1.36198 -2.67189 0
M  V30 3642 H 327.169 -0.743042 -1.37508 0
M  V30 3643 H 327.904 1.18658 -3.01813 0
M  V30 3644 H 327.689 -0.35012 -3.90534 0
M  V30 3645 H 329.179 0.614089 -4.1306 0
M  V30 3646 N 329.616 1.39756 -0.72842 0
M  V30 3647 C 330.546 2.33289 -0.0991354 0
M  V30 3648 C 331.527 1.53568 0.731489 0
M  V30 3649 O 332.712 1.81987 0.677807 0
M  V30 3650 C 329.842 3.3763 0.813834 0
M  V30 3651 C 328.796 4.2791 0.0878663 0
M  V30 3652 C 328.122 5.22894 1.11741 0
M  V30 3653 C 329.422 5.11314 -1.06563 0
M  V30 3654 H 331.116 2.86163 -0.880408 0
M  V30 3655 H 328.662 1.37591 -0.424819 0
M  V30 3656 H 330.615 4.0201 1.26355 0
M  V30 3657 H 329.339 2.83181 1.62715 0
M  V30 3658 H 327.998 3.65 -0.342159 0
M  V30 3659 H 327.646 4.64744 1.92412 0
M  V30 3660 H 327.346 5.84143 0.636477 0
M  V30 3661 H 328.87 5.90151 1.56697 0
M  V30 3662 H 330.284 5.69076 -0.694671 0
M  V30 3663 H 328.681 5.81671 -1.47577 0
M  V30 3664 H 329.751 4.46534 -1.89038 0
M  V30 3665 N 331.094 0.475555 1.50254 0
M  V30 3666 C 332.057 -0.305016 2.27161 0
M  V30 3667 C 333.057 -0.916519 1.32123 0
M  V30 3668 O 334.247 -0.785003 1.5551 0
M  V30 3669 C 331.379 -1.43496 3.09227 0
M  V30 3670 H 332.572 0.369511 2.97615 0
M  V30 3671 H 330.125 0.229747 1.54602 0
M  V30 3672 H 330.86 -2.14441 2.43281 0
M  V30 3673 H 330.645 -1.00223 3.79075 0
M  V30 3674 H 332.135 -1.98548 3.67381 0
M  V30 3675 N 332.573 -1.56217 0.208337 0
M  V30 3676 C 333.52 -2.19699 -0.707192 0
M  V30 3677 C 334.49 -1.14836 -1.20008 0
M  V30 3678 O 335.675 -1.4314 -1.26157 0
M  V30 3679 C 332.815 -2.87061 -1.91546 0
M  V30 3680 C 331.928 -4.06483 -1.46271 0
M  V30 3681 C 331.063 -4.61665 -2.62752 0
M  V30 3682 C 330.102 -5.73417 -2.14147 0
M  V30 3683 N 329.239 -6.22948 -3.23853 0
M  V30 3684 H 334.079 -2.97575 -0.159111 0
M  V30 3685 H 331.616 -1.46948 -0.0667874 0
M  V30 3686 H 333.574 -3.24294 -2.62468 0
M  V30 3687 H 332.204 -2.11725 -2.43664 0
M  V30 3688 H 331.256 -3.74825 -0.648886 0
M  V30 3689 H 332.568 -4.87271 -1.06622 0
M  V30 3690 H 331.722 -5.01272 -3.41776 0
M  V30 3691 H 330.461 -3.80013 -3.05682 0
M  V30 3692 H 329.466 -5.33326 -1.33581 0
M  V30 3693 H 330.691 -6.56897 -1.72232 0
M  V30 3694 H 328.637 -5.44213 -3.6629 0
M  V30 3695 H 328.554 -6.98823 -2.88414 0
M  V30 3696 H 329.822 -6.6721 -4.03052 0
M  V30 3697 N 334.051 0.0651679 -1.57465 0
M  V30 3698 C 334.961 1.09448 -2.07505 0
M  V30 3699 C 335.977 1.41974 -1.00595 0
M  V30 3700 O 337.153 1.52018 -1.32107 0
M  V30 3701 C 334.218 2.38689 -2.51453 0
M  V30 3702 C 333.279 2.13073 -3.72691 0
M  V30 3703 C 332.512 3.36152 -4.14533 0
M  V30 3704 O 332.735 4.45517 -3.56189 0
M  V30 3705 O 331.669 3.23974 -5.07272 0
M  V30 3706 H 335.495 0.69935 -2.95538 0
M  V30 3707 H 333.08 0.279752 -1.46757 0
M  V30 3708 H 334.962 3.14736 -2.80212 0
M  V30 3709 H 333.637 2.77568 -1.66546 0
M  V30 3710 H 332.544 1.34709 -3.49005 0
M  V30 3711 H 333.877 1.79071 -4.5847 0
M  V30 3712 N 335.529 1.53961 0.336706 0
M  V30 3713 C 336.775 1.7179 1.07777 0
M  V30 3714 C 337.108 0.483263 1.88091 0
M  V30 3715 O 336.383 -0.519747 1.87427 0
M  V30 3716 C 336.666 2.98558 2.01334 0
M  V30 3717 C 336.519 4.32245 1.24437 0
M  V30 3718 C 337.838 3.21023 3.01052 0
M  V30 3719 H 334.957 0.625089 0.390426 0
M  V30 3720 H 337.599 1.86641 0.35567 0
M  V30 3721 H 335.749 2.86028 2.62908 0
M  V30 3722 H 337.421 4.56637 0.654243 0
M  V30 3723 H 335.664 4.30344 0.546458 0
M  V30 3724 H 336.335 5.17137 1.93063 0
M  V30 3725 H 338.811 3.32929 2.49595 0
M  V30 3726 H 337.687 4.11104 3.6371 0
M  V30 3727 H 337.948 2.37637 3.72802 0
M  V30 3728 N 337.007 -0.598083 1.45811 0
M  V30 3729 C 338.423 -0.919847 1.30426 0
M  V30 3730 C 338.623 -1.99759 0.264303 0
M  V30 3731 O 337.679 -2.50221 -0.338472 0
M  V30 3732 C 338.992 -1.35176 2.68603 0
M  V30 3733 C 340.54 -1.46546 2.76574 0
M  V30 3734 C 341.015 -1.9311 4.15298 0
M  V30 3735 N 342.506 -2.00328 4.1764 0
M  V30 3736 C 343.241 -2.37599 5.21856 0
M  V30 3737 N 342.737 -2.73771 6.36413 0
M  V30 3738 N 344.53 -2.38021 5.09218 0
M  V30 3739 H 336.681 0.114111 2.12093 0
M  V30 3740 H 338.944 -0.0116121 0.947929 0
M  V30 3741 H 338.65 -0.633969 3.45939 0
M  V30 3742 H 338.524 -2.3164 2.97696 0
M  V30 3743 H 340.911 -2.17415 1.99537 0
M  V30 3744 H 340.992 -0.483727 2.51185 0
M  V30 3745 H 340.636 -1.22824 4.92825 0
M  V30 3746 H 340.566 -2.92213 4.38086 0
M  V30 3747 H 343.057 -1.74925 3.34977 0
M  V30 3748 H 343.37 -3.0112 7.11721 0
M  V30 3749 H 341.715 -2.71445 6.39799 0
M  V30 3750 H 344.906 -2.09174 4.18765 0
M  V30 3751 H 345.079 -2.66741 5.90554 0
M  V30 3752 N 338.485 -1.33259 -0.841409 0
M  V30 3753 C 339.395 -1.25332 -1.98316 0
M  V30 3754 C 340.411 -0.164364 -1.73222 0
M  V30 3755 O 341.587 -0.387486 -1.97637 0
M  V30 3756 C 338.652 -0.990078 -3.32262 0
M  V30 3757 C 337.713 -2.16879 -3.70489 0
M  V30 3758 C 336.946 -1.91801 -4.98044 0
M  V30 3759 O 337.169 -0.867075 -5.63771 0
M  V30 3760 O 336.103 -2.78267 -5.33714 0
M  V30 3761 H 339.929 -2.21344 -2.07944 0
M  V30 3762 H 337.514 -1.1328 -0.974058 0
M  V30 3763 H 339.396 -0.860321 -4.12524 0
M  V30 3764 H 338.071 -0.0602155 -3.23644 0
M  V30 3765 H 336.978 -2.35407 -2.90748 0
M  V30 3766 H 338.311 -3.0819 -3.8377 0
M  V30 3767 N 339.963 1.05934 -1.16686 0
M  V30 3768 C 340.893 2.1546 -0.899949 0
M  V30 3769 C 341.874 1.69391 0.155154 0
M  V30 3770 O 343.059 1.94199 0.00648693 0
M  V30 3771 C 340.189 3.44939 -0.404241 0
M  V30 3772 C 339.143 4.04536 -1.39767 0
M  V30 3773 C 338.469 5.29268 -0.760216 0
M  V30 3774 C 339.769 4.42893 -2.76845 0
M  V30 3775 H 341.463 2.38046 -1.81588 0
M  V30 3776 H 339.009 1.14404 -0.874514 0
M  V30 3777 H 340.962 4.20901 -0.204971 0
M  V30 3778 H 339.686 3.21983 0.547206 0
M  V30 3779 H 338.345 3.30635 -1.58355 0
M  V30 3780 H 337.993 5.02611 0.197831 0
M  V30 3781 H 337.693 5.70101 -1.42332 0
M  V30 3782 H 339.217 6.07924 -0.57105 0
M  V30 3783 H 340.631 5.09921 -2.62019 0
M  V30 3784 H 339.028 4.94721 -3.39663 0
M  V30 3785 H 340.098 3.53584 -3.31823 0
M  V30 3786 N 341.441 0.965919 1.2453 0
M  V30 3787 C 342.351 0.502154 2.29163 0
M  V30 3788 C 343.367 -0.436017 1.68448 0
M  V30 3789 O 344.543 -0.309497 1.99008 0
M  V30 3790 C 341.608 -0.201956 3.46111 0
M  V30 3791 C 340.669 0.775821 4.22232 0
M  V30 3792 C 339.902 0.105217 5.33596 0
M  V30 3793 O 340.125 -1.10683 5.59558 0
M  V30 3794 O 339.059 0.796475 5.96607 0
M  V30 3795 H 342.885 1.37194 2.70946 0
M  V30 3796 H 340.47 0.732875 1.30189 0
M  V30 3797 H 342.352 -0.597564 4.17142 0
M  V30 3798 H 341.027 -1.04673 3.06309 0
M  V30 3799 H 339.934 1.22185 3.53584 0
M  V30 3800 H 341.267 1.58896 4.65846 0
M  V30 3801 N 342.919 -1.39368 0.735821 0
M  V30 3802 C 343.829 -2.34395 0.0979693 0
M  V30 3803 C 344.845 -1.58361 -0.720968 0
M  V30 3804 O 346.021 -1.90648 -0.649245 0
M  V30 3805 C 343.086 -3.37393 -0.797916 0
M  V30 3806 C 342.147 -4.29287 0.0333662 0
M  V30 3807 C 341.38 -5.27365 -0.819854 0
M  V30 3808 O 341.603 -5.31959 -2.05855 0
M  V30 3809 O 340.537 -6.01389 -0.248079 0
M  V30 3810 H 344.363 -2.90601 0.882315 0
M  V30 3811 H 341.948 -1.40909 0.4965 0
M  V30 3812 H 343.83 -4.00505 -1.31048 0
M  V30 3813 H 342.505 -2.83571 -1.56106 0
M  V30 3814 H 341.412 -3.69395 0.591475 0
M  V30 3815 H 342.745 -4.86317 0.758752 0
M  V30 3816 N 344.397 -0.483516 -1.5 0
M  V30 3817 C 345.347 0.32306 -2.257 0
M  V30 3818 C 346.331 0.950755 -1.29805 0
M  V30 3819 O 347.523 0.861247 -1.54634 0
M  V30 3820 C 344.652 1.39724 -3.13579 0
M  V30 3821 C 343.738 0.776663 -4.16928 0
M  V30 3822 N 344.129 -0.1104 -5.0568 0
M  V30 3823 C 342.427 1.03922 -4.33724 0
M  V30 3824 C 343.128 -0.46387 -5.79848 0
M  V30 3825 N 342.104 0.163987 -5.43353 0
M  V30 3826 H 345.906 -0.360086 -2.91686 0
M  V30 3827 H 343.42 -0.298456 -1.59634 0
M  V30 3828 H 345.417 1.98837 -3.66428 0
M  V30 3829 H 344.077 2.08225 -2.49143 0
M  V30 3830 H 345.088 -0.480069 -5.1567 0
M  V30 3831 H 341.765 1.71829 -3.80501 0
M  V30 3832 H 343.155 -1.18854 -6.61304 0
M  V30 3833 N 345.875 1.56104 -0.216619 0
M  V30 3834 C 346.823 2.21434 0.712036 0
M  V30 3835 C 347.817 1.19218 1.20348 0
M  V30 3836 O 349.023 1.3731 1.16387 0
M  V30 3837 H 345.398 0.70992 0.248026 0
M  V30 3838 H 347.369 2.98083 0.137558 0
M  V30 3839 C 346.118 2.90434 1.91163 0
M  V30 3840 H 345.441 3.68842 1.54258 0
M  V30 3841 H 346.881 3.39552 2.5393 0
M  V30 3842 C 345.34 1.92635 2.76394 0
M  V30 3843 O 345.87 1.44017 3.74996 0
M  V30 3844 N 344.076 1.60392 2.42328 0
M  V30 3845 H 343.623 2.00122 1.622 0
M  V30 3846 H 343.581 0.952159 2.99635 0
M  V30 3847 N 347.353 -0.0568162 1.57498 0
M  V30 3848 C 348.769 -0.411933 1.54192 0
M  V30 3849 C 348.969 -1.78287 0.938942 0
M  V30 3850 O 348.025 -2.46483 0.547919 0
M  V30 3851 C 349.338 -0.339244 2.9878 0
M  V30 3852 C 350.886 -0.418348 3.10192 0
M  V30 3853 C 351.361 -0.375407 4.56459 0
M  V30 3854 N 352.852 -0.435038 4.61153 0
M  V30 3855 C 353.587 -0.424265 5.71828 0
M  V30 3856 N 353.083 -0.367418 6.91825 0
M  V30 3857 N 354.876 -0.471938 5.60115 0
M  V30 3858 H 347.027 0.840684 1.95055 0
M  V30 3859 H 349.29 0.316987 0.893433 0
M  V30 3860 H 348.996 0.601742 3.46514 0
M  V30 3861 H 348.87 -1.14371 3.59443 0
M  V30 3862 H 351.257 -1.34976 2.62422 0
M  V30 3863 H 351.338 0.414962 2.52412 0
M  V30 3864 H 350.982 0.552219 5.04889 0
M  V30 3865 H 350.912 -1.22645 5.12119 0
M  V30 3866 H 353.403 -0.482612 3.74806 0
M  V30 3867 H 353.716 -0.363535 7.71944 0
M  V30 3868 H 352.061 -0.333879 6.94198 0
M  V30 3869 H 355.252 -0.514145 4.65268 0
M  V30 3870 H 355.425 -0.460073 6.46365 0
M  V30 3871 N 348.832 -1.54138 -0.328536 0
M  V30 3872 C 349.742 -1.86192 -1.42723 0
M  V30 3873 C 350.758 -0.753382 -1.56844 0
M  V30 3874 O 351.934 -1.04718 -1.72035 0
M  V30 3875 C 348.999 -2.07824 -2.77507 0
M  V30 3876 C 348.06 -3.31641 -2.72603 0
M  V30 3877 C 347.293 -3.52232 -4.00959 0
M  V30 3878 O 347.516 -2.7636 -4.9898 0
M  V30 3879 O 346.45 -4.45699 -4.0452 0
M  V30 3880 H 350.276 -2.79608 -1.18547 0
M  V30 3881 H 347.861 -1.3998 -0.522104 0
M  V30 3882 H 349.743 -2.23411 -3.57303 0
M  V30 3883 H 348.418 -1.17596 -3.01584 0
M  V30 3884 H 347.325 -3.21444 -1.91376 0
M  V30 3885 H 348.658 -4.2191 -2.53481 0
M  V30 3886 N 350.31 0.590341 -1.46126 0
M  V30 3887 C 351.24 1.71032 -1.58966 0
M  V30 3888 C 352.221 1.64302 -0.440335 0
M  V30 3889 O 353.406 1.82436 -0.665634 0
M  V30 3890 C 350.536 3.09665 -1.57241 0
M  V30 3891 C 349.49 3.31221 -2.71066 0
M  V30 3892 C 348.816 4.70303 -2.54399 0
M  V30 3893 C 350.116 3.19796 -4.1295 0
M  V30 3894 H 351.81 1.60543 -2.52718 0
M  V30 3895 H 349.356 0.770933 -1.21625 0
M  V30 3896 H 351.309 3.87831 -1.64819 0
M  V30 3897 H 350.033 3.21036 -0.600289 0
M  V30 3898 H 348.692 2.55452 -2.62944 0
M  V30 3899 H 348.34 4.78429 -1.55288 0
M  V30 3900 H 348.04 4.85679 -3.30741 0
M  V30 3901 H 349.564 5.50647 -2.63857 0
M  V30 3902 H 350.978 3.87815 -4.22223 0
M  V30 3903 H 349.375 3.46696 -4.89818 0
M  V30 3904 H 350.445 2.16983 -4.33643 0
M  V30 3905 N 351.788 1.33704 0.83433 0
M  V30 3906 C 352.718 1.26967 1.95963 0
M  V30 3907 C 353.699 0.149337 1.69443 0
M  V30 3908 O 354.884 0.339852 1.91203 0
M  V30 3909 C 352.014 1.01275 3.32206 0
M  V30 3910 C 350.968 2.09652 3.73136 0
M  V30 3911 C 350.294 1.69166 5.07235 0
M  V30 3912 C 351.594 3.51372 3.86439 0
M  V30 3913 H 353.288 2.2112 2.01857 0
M  V30 3914 H 350.834 1.06447 0.969793 0
M  V30 3915 H 352.787 0.952106 4.10503 0
M  V30 3916 H 351.511 0.0356203 3.26581 0
M  V30 3917 H 350.17 2.14766 2.97104 0
M  V30 3918 H 349.818 0.701437 4.98085 0
M  V30 3919 H 349.518 2.41694 5.35591 0
M  V30 3920 H 351.042 1.64576 5.88003 0
M  V30 3921 H 352.456 3.48734 4.55036 0
M  V30 3922 H 350.853 4.22425 4.26236 0
M  V30 3923 H 351.923 3.89546 2.88759 0
M  V30 3924 N 353.266 -1.05314 1.17247 0
M  V30 3925 C 354.214 -2.15137 0.884238 0
M  V30 3926 C 355.208 -1.68729 -0.15063 0
M  V30 3927 O 356.414 -1.8 -0.00366673 0
M  V30 3928 H 352.789 -0.702471 0.2684 0
M  V30 3929 H 354.76 -2.36652 1.81764 0
M  V30 3930 C 353.509 -3.45243 0.412659 0
M  V30 3931 H 352.832 -3.81352 1.20043 0
M  V30 3932 H 354.272 -4.23263 0.249858 0
M  V30 3933 C 352.731 -3.25487 -0.86948 0
M  V30 3934 O 353.261 -3.51938 -1.93655 0
M  V30 3935 N 351.467 -2.78875 -0.817147 0
M  V30 3936 H 351.014 -2.57549 0.0514211 0
M  V30 3937 H 350.972 -2.66036 -1.67547 0
M  V30 3938 N 354.744 -0.972509 -1.24016 0
M  V30 3939 C 356.155 -0.67517 -1.74064 0
M  V30 3940 C 356.506 0.808939 -1.78747 0
M  V30 3941 O 355.631 1.63286 -1.42009 0
M  V30 3942 C 356.226 -1.21889 -3.16115 0
M  V30 3943 C 354.785 -0.971358 -3.6365 0
M  V30 3944 C 353.932 -1.35134 -2.42145 0
M  V30 3945 H 356.883 -1.14727 -1.09651 0
M  V30 3946 H 356.904 -0.587489 -3.75937 0
M  V30 3947 H 356.416 -2.29906 -3.12674 0
M  V30 3948 H 354.517 0.0930686 -3.72484 0
M  V30 3949 H 354.63 -1.62039 -4.50866 0
M  V30 3950 H 352.994 -0.769751 -2.4279 0
M  V30 3951 H 353.777 -2.4411 -2.41381 0
M  V30 3952 N 356.222 1.38976 -0.743202 0
M  V30 3953 C 357.185 2.28901 -0.117014 0
M  V30 3954 C 358.185 1.46698 0.658503 0
M  V30 3955 O 359.375 1.67274 0.486305 0
M  V30 3956 C 356.507 3.30309 0.84315 0
M  V30 3957 H 357.7 2.8578 -0.909373 0
M  V30 3958 H 355.253 1.47761 -0.509547 0
M  V30 3959 H 355.988 2.785 1.66157 0
M  V30 3960 H 355.773 3.91029 0.289594 0
M  V30 3961 H 357.263 3.97577 1.2776 0
M  V30 3962 N 357.7 0.491464 1.49741 0
M  V30 3963 C 358.928 -0.0535151 2.06831 0
M  V30 3964 C 359.343 -1.31683 1.35296 0
M  V30 3965 O 358.7 -1.77402 0.42836 0
M  V30 3966 C 358.751 -0.320835 3.60073 0
M  V30 3967 O 358.472 0.892394 4.28915 0
M  V30 3968 C 359.973 -0.910519 4.33848 0
M  V30 3969 H 357.193 0.0161909 0.670805 0
M  V30 3970 H 359.737 0.68609 1.92647 0
M  V30 3971 H 357.892 -1.0104 3.73991 0
M  V30 3972 H 358.306 0.649401 5.20464 0
M  V30 3973 H 359.78 -1.04721 5.41976 0
M  V30 3974 H 360.257 -1.90589 3.95692 0
M  V30 3975 H 360.863 -0.258712 4.24512 0
M  V30 3976 N 359.178 -1.55987 0.224894 0
M  V30 3977 C 360.406 -2.02784 -0.410665 0
M  V30 3978 C 360.821 -1.10464 -1.53112 0
M  V30 3979 O 360.178 -0.114871 -1.82138 0
M  V30 3980 C 360.229 -3.49087 -0.939165 0
M  V30 3981 O 359.95 -4.37887 0.136614 0
M  V30 3982 C 361.451 -4.11543 -1.64763 0
M  V30 3983 H 358.671 -0.663484 -0.100148 0
M  V30 3984 H 361.215 -2.01614 0.342326 0
M  V30 3985 H 359.37 -3.50861 -1.64242 0
M  V30 3986 H 359.784 -5.23849 -0.261155 0
M  V30 3987 H 361.258 -5.15673 -1.96939 0
M  V30 3988 H 361.735 -3.56736 -2.56195 0
M  V30 3989 H 362.341 -4.13629 -0.989503 0
M  V30 3990 N 360.656 0.0484629 -1.57525 0
M  V30 3991 C 362.072 0.40375 -1.54409 0
M  V30 3992 C 362.272 1.77786 -0.948384 0
M  V30 3993 O 361.328 2.46189 -0.560983 0
M  V30 3994 C 362.641 0.323394 -2.98956 0
M  V30 3995 C 364.189 0.401892 -3.10409 0
M  V30 3996 C 364.664 0.351195 -4.56652 0
M  V30 3997 N 366.155 0.410576 -4.61377 0
M  V30 3998 C 366.89 0.393933 -5.72045 0
M  V30 3999 N 366.386 0.330724 -6.9201 0
M  V30 4000 N 368.179 0.442227 -5.60358 0
M  V30 4001 H 360.33 -0.851016 -1.94606 0
M  V30 4002 H 362.593 -0.321721 -0.89174 0
M  V30 4003 H 362.299 -0.62011 -3.4619 0
M  V30 4004 H 362.173 1.12463 -3.60044 0
M  V30 4005 H 364.56 1.33582 -2.63134 0
M  V30 4006 H 364.641 -0.428342 -2.52188 0
M  V30 4007 H 364.285 -0.578987 -5.04589 0
M  V30 4008 H 364.215 1.19928 -5.12762 0
M  V30 4009 H 366.706 0.462729 -3.75056 0
M  V30 4010 H 367.019 0.322592 -7.72126 0
M  V30 4011 H 365.364 0.29706 -6.94365 0
M  V30 4012 H 368.555 0.489464 -4.65534 0
M  V30 4013 H 368.728 0.425788 -6.466 0
M  V30 4014 N 362.134 1.5431 0.320358 0
M  V30 4015 C 363.044 1.86946 1.41734 0
M  V30 4016 C 364.06 0.761689 1.56443 0
M  V30 4017 O 365.236 1.05629 1.71477 0
M  V30 4018 C 362.301 2.09293 2.76401 0
M  V30 4019 C 361.362 3.33082 2.70841 0
M  V30 4020 C 360.595 3.54353 3.99086 0
M  V30 4021 O 360.818 2.79002 4.97508 0
M  V30 4022 O 359.752 4.47838 4.0215 0
M  V30 4023 H 363.578 2.80232 1.17062 0
M  V30 4024 H 361.163 1.40255 0.514673 0
M  V30 4025 H 363.045 2.25303 3.56113 0
M  V30 4026 H 361.72 1.19194 3.00956 0
M  V30 4027 H 360.627 3.22454 1.89668 0
M  V30 4028 H 361.96 4.23249 2.5124 0
M  V30 4029 N 363.613 -0.582584 1.46437 0
M  V30 4030 C 364.543 -1.70187 1.59871 0
M  V30 4031 C 365.524 -1.64066 0.449042 0
M  V30 4032 O 366.709 -1.82081 0.6753 0
M  V30 4033 C 363.839 -3.08827 1.58881 0
M  V30 4034 C 362.793 -3.29779 2.72819 0
M  V30 4035 C 362.119 -4.68947 2.5689 0
M  V30 4036 C 363.419 -3.17601 4.1464 0
M  V30 4037 H 365.113 -1.592 2.53566 0
M  V30 4038 H 362.659 -0.764472 1.22032 0
M  V30 4039 H 364.612 -3.86951 1.66873 0
M  V30 4040 H 363.336 -3.20713 0.617306 0
M  V30 4041 H 361.995 -2.54054 2.64296 0
M  V30 4042 H 361.643 -4.77599 1.57823 0
M  V30 4043 H 361.343 -4.83919 3.33312 0
M  V30 4044 H 362.867 -5.4924 2.66773 0
M  V30 4045 H 364.281 -3.8557 4.24274 0
M  V30 4046 H 362.678 -3.44094 4.9165 0
M  V30 4047 H 363.748 -2.14681 4.34788 0
M  V30 4048 N 365.091 -1.34144 -0.827227 0
M  V30 4049 C 366.319 -1.29325 -1.61501 0
M  V30 4050 C 366.734 0.13354 -1.88327 0
M  V30 4051 O 366.091 1.0793 -1.47164 0
M  V30 4052 C 366.142 -2.07746 -2.95844 0
M  V30 4053 O 365.863 -3.4486 -2.70191 0
M  V30 4054 C 367.364 -2.10273 -3.90256 0
M  V30 4055 H 364.584 -0.445069 -0.50215 0
M  V30 4056 H 367.128 -1.76693 -1.02955 0
M  V30 4057 H 365.283 -1.6403 -3.5096 0
M  V30 4058 H 365.697 -3.85345 -3.55822 0
M  V30 4059 H 367.171 -2.69575 -4.81698 0
M  V30 4060 H 367.648 -1.096 -4.25305 0
M  V30 4061 H 368.254 -2.54059 -3.41078 0
M  V30 4062 N 366.569 1.04691 -1.17803 0
M  V30 4063 C 367.794 1.81984 -0.994813 0
M  V30 4064 C 368.219 1.82586 0.452112 0
M  V30 4065 O 367.577 1.23854 1.324 0
M  V30 4066 C 367.625 3.2575 -1.54659 0
M  V30 4067 O 366.729 4.05267 -0.763728 0
M  V30 4068 H 366.07 0.562483 -0.352857 0
M  V30 4069 H 368.6 1.3189 -1.56417 0
M  V30 4070 H 368.61 3.76541 -1.57102 0
M  V30 4071 H 367.285 3.24627 -2.59981 0
M  V30 4072 H 365.862 3.63972 -0.811108 0
M  V30 4073 N 368.047 0.979072 1.23499 0
M  V30 4074 C 368.977 0.537606 2.27227 0
M  V30 4075 C 369.958 -0.428539 1.64613 0
M  V30 4076 O 371.143 -0.322191 1.91509 0
M  V30 4077 C 368.273 -0.162052 3.46922 0
M  V30 4078 C 367.227 0.721242 4.21879 0
M  V30 4079 C 366.553 -0.110555 5.34586 0
M  V30 4080 C 367.853 2.01141 4.82016 0
M  V30 4081 H 369.547 1.40462 2.64406 0
M  V30 4082 H 367.093 0.67684 1.27102 0
M  V30 4083 H 369.046 -0.482192 4.18632 0
M  V30 4084 H 367.77 -1.06351 3.08799 0
M  V30 4085 H 366.429 1.02482 3.51984 0
M  V30 4086 H 366.077 -1.0125 4.92704 0
M  V30 4087 H 365.777 0.477325 5.85658 0
M  V30 4088 H 367.301 -0.425107 6.09118 0
M  V30 4089 H 368.715 1.75612 5.45741 0
M  V30 4090 H 367.112 2.54695 5.43369 0
M  V30 4091 H 368.182 2.69909 4.02836 0
M  V30 4092 N 369.525 -1.3858 0.750561 0
M  V30 4093 C 370.771 -2.00481 0.305825 0
M  V30 4094 C 371.104 -1.5944 -1.10872 0
M  V30 4095 O 370.379 -0.83052 -1.75877 0
M  V30 4096 C 370.662 -3.5758 0.425287 0
M  V30 4097 C 370.515 -4.08594 1.88072 0
M  V30 4098 C 371.834 -4.39719 -0.183122 0
M  V30 4099 H 368.953 -0.728348 0.112598 0
M  V30 4100 H 371.595 -1.64566 0.949638 0
M  V30 4101 H 369.745 -3.88306 -0.122828 0
M  V30 4102 H 371.417 -3.88523 2.48691 0
M  V30 4103 H 369.66 -3.61574 2.39681 0
M  V30 4104 H 370.331 -5.177 1.91548 0
M  V30 4105 H 372.807 -4.15128 0.284303 0
M  V30 4106 H 371.683 -5.48856 -0.0692757 0
M  V30 4107 H 371.944 -4.23434 -1.27106 0
M  V30 4108 N 371.003 -0.499398 -1.49478 0
M  V30 4109 C 372.419 -0.155261 -1.58843 0
M  V30 4110 C 372.619 1.34008 -1.50479 0
M  V30 4111 O 371.675 2.11589 -1.37791 0
M  V30 4112 C 372.988 -0.730636 -2.91689 0
M  V30 4113 C 374.536 -0.696599 -3.0515 0
M  V30 4114 C 375.011 -1.25001 -4.40612 0
M  V30 4115 N 376.502 -1.21064 -4.47099 0
M  V30 4116 C 377.237 -1.60905 -5.50361 0
M  V30 4117 N 376.733 -2.08331 -6.60735 0
M  V30 4118 N 378.526 -1.52331 -5.41065 0
M  V30 4119 H 370.677 -1.47162 -1.53158 0
M  V30 4120 H 372.94 -0.610309 -0.725415 0
M  V30 4121 H 372.646 -1.77928 -3.03372 0
M  V30 4122 H 372.52 -0.190161 -3.7672 0
M  V30 4123 H 374.907 0.343204 -2.93097 0
M  V30 4124 H 374.988 -1.2742 -2.21806 0
M  V30 4125 H 374.632 -2.28859 -4.53416 0
M  V30 4126 H 374.562 -0.64836 -5.22593 0
M  V30 4127 H 377.053 -0.863128 -3.67911 0
M  V30 4128 H 377.366 -2.36805 -7.35624 0
M  V30 4129 H 375.711 -2.12304 -6.6178 0
M  V30 4130 H 378.902 -1.151 -4.53729 0
M  V30 4131 H 379.075 -1.83704 -6.21415 0
M  V30 4132 N 372.481 1.55866 -0.233164 0
M  V30 4133 C 373.429 2.22176 0.68851 0
M  V30 4134 C 374.423 1.20487 1.19076 0
M  V30 4135 O 375.629 1.38536 1.14925 0
M  V30 4136 H 372.004 0.712511 0.240483 0
M  V30 4137 H 373.975 2.98212 0.105935 0
M  V30 4138 C 372.724 2.92446 1.88071 0
M  V30 4139 H 372.047 3.70458 1.50337 0
M  V30 4140 H 373.487 3.42226 2.50314 0
M  V30 4141 C 371.946 1.95555 2.74335 0
M  V30 4142 O 372.476 1.47986 3.73447 0
M  V30 4143 N 370.682 1.62953 2.40613 0
M  V30 4144 H 370.229 2.01831 1.60069 0
M  V30 4145 H 370.187 0.983886 2.98609 0
M  V30 4146 N 373.959 -0.0401083 1.57549 0
M  V30 4147 C 374.889 -1.04384 2.08869 0
M  V30 4148 C 375.87 -1.38407 0.988817 0
M  V30 4149 O 377.055 -1.47483 1.26342 0
M  V30 4150 C 374.185 -2.34808 2.55895 0
M  V30 4151 C 373.139 -2.15057 3.70047 0
M  V30 4152 C 372.465 -3.51145 4.03239 0
M  V30 4153 C 373.765 -1.54576 4.98902 0
M  V30 4154 H 375.459 -0.616666 2.92981 0
M  V30 4155 H 373.005 -0.295184 1.40942 0
M  V30 4156 H 374.958 -3.05346 2.90417 0
M  V30 4157 H 373.682 -2.79565 1.68853 0
M  V30 4158 H 372.341 -1.46954 3.35857 0
M  V30 4159 H 371.989 -3.93529 3.13279 0
M  V30 4160 H 371.689 -3.38758 4.80122 0
M  V30 4161 H 373.213 -4.23062 4.40285 0
M  V30 4162 H 374.627 -2.15017 5.31451 0
M  V30 4163 H 373.024 -1.52796 5.80322 0
M  V30 4164 H 374.094 -0.51039 4.82206 0
M  V30 4165 N 375.437 -1.54477 -0.31217 0
M  V30 4166 C 376.385 -1.85395 -1.40469 0
M  V30 4167 C 377.379 -0.726749 -1.53019 0
M  V30 4168 O 378.585 -0.910582 -1.55269 0
M  V30 4169 H 374.96 -0.587845 -0.46898 0
M  V30 4170 H 376.931 -2.76736 -1.11623 0
M  V30 4171 C 375.68 -2.10811 -2.76503 0
M  V30 4172 H 375.003 -2.97014 -2.67625 0
M  V30 4173 H 376.443 -2.3639 -3.51988 0
M  V30 4174 C 374.902 -0.903165 -3.24568 0
M  V30 4175 O 375.432 -0.118085 -4.01526 0
M  V30 4176 N 373.638 -0.711634 -2.81752 0
M  V30 4177 H 373.185 -1.35171 -2.19286 0
M  V30 4178 H 373.143 0.0930473 -3.14262 0
M  V30 4179 N 376.915 0.57481 -1.46744 0
M  V30 4180 C 378.331 0.898981 -1.31873 0
M  V30 4181 C 378.531 1.99313 -0.29605 0
M  V30 4182 O 377.587 2.50728 0.298621 0
M  V30 4183 C 378.9 1.30886 -2.7072 0
M  V30 4184 C 380.448 1.42127 -2.78871 0
M  V30 4185 C 380.923 1.86478 -4.18318 0
M  V30 4186 N 382.414 1.93658 -4.20774 0
M  V30 4187 C 383.149 2.29267 -5.2557 0
M  V30 4188 N 382.645 2.63612 -6.40688 0
M  V30 4189 N 384.438 2.29889 -5.1294 0
M  V30 4190 H 376.589 -0.147839 -2.11885 0
M  V30 4191 H 378.852 -0.00347013 -0.947994 0
M  V30 4192 H 378.558 0.578853 -3.46904 0
M  V30 4193 H 378.432 2.26874 -3.01343 0
M  V30 4194 H 380.819 2.14213 -2.0297 0
M  V30 4195 H 380.9 0.443705 -2.51922 0
M  V30 4196 H 380.544 1.14968 -4.94717 0
M  V30 4197 H 380.474 2.85207 -4.42679 0
M  V30 4198 H 382.965 1.69574 -3.37718 0
M  V30 4199 H 383.278 2.89759 -7.16421 0
M  V30 4200 H 381.623 2.61232 -6.44036 0
M  V30 4201 H 384.814 2.02485 -4.22039 0
M  V30 4202 H 384.987 2.57312 -5.94722 0
M  V30 4203 N 378.394 1.34581 0.820102 0
M  V30 4204 C 379.324 1.29038 1.94606 0
M  V30 4205 C 380.305 0.1673 1.69275 0
M  V30 4206 O 381.49 0.360112 1.90832 0
M  V30 4207 C 378.62 1.04793 3.31113 0
M  V30 4208 C 377.574 2.13597 3.70891 0
M  V30 4209 C 376.9 1.74537 5.05412 0
M  V30 4210 C 378.2 3.55451 3.8269 0
M  V30 4211 H 379.894 2.23248 1.99501 0
M  V30 4212 H 377.44 1.0747 0.958449 0
M  V30 4213 H 379.393 0.995592 4.0947 0
M  V30 4214 H 378.117 0.0702565 3.26524 0
M  V30 4215 H 376.776 2.17905 2.9481 0
M  V30 4216 H 376.424 0.754226 4.97313 0
M  V30 4217 H 376.124 2.47361 5.32997 0
M  V30 4218 H 377.648 1.70803 5.86224 0
M  V30 4219 H 379.062 3.5354 4.51312 0
M  V30 4220 H 377.459 4.26922 4.21732 0
M  V30 4221 H 378.529 3.92587 2.84611 0
M  V30 4222 N 379.872 -1.04064 1.18357 0
M  V30 4223 C 380.802 -2.14001 0.934113 0
M  V30 4224 C 381.783 -1.69616 -0.128186 0
M  V30 4225 O 382.968 -1.94185 0.0244093 0
M  V30 4226 C 380.098 -3.44253 0.459066 0
M  V30 4227 C 379.052 -4.02261 1.46185 0
M  V30 4228 C 378.378 -5.27992 0.844322 0
M  V30 4229 C 379.678 -4.38432 2.83856 0
M  V30 4230 H 381.372 -2.35127 1.85352 0
M  V30 4231 H 378.918 -1.12998 0.892604 0
M  V30 4232 H 380.871 -4.20522 0.271907 0
M  V30 4233 H 379.595 -3.22813 -0.495912 0
M  V30 4234 H 378.254 -3.28074 1.63595 0
M  V30 4235 H 377.902 -5.02862 -0.117845 0
M  V30 4236 H 377.602 -5.67765 1.51384 0
M  V30 4237 H 379.126 -6.06938 0.667693 0
M  V30 4238 H 380.54 -5.05688 2.70098 0
M  V30 4239 H 378.937 -4.89254 3.47491 0
M  V30 4240 H 380.007 -3.4826 3.37406 0
M  V30 4241 N 381.35 -0.985608 -1.22978 0
M  V30 4242 C 382.297 -0.529825 -2.24636 0
M  V30 4243 C 383.267 0.434028 -1.60329 0
M  V30 4244 O 384.452 0.340414 -1.87739 0
M  V30 4245 C 381.592 0.156533 -3.44745 0
M  V30 4246 C 380.705 -0.848197 -4.23591 0
M  V30 4247 C 379.84 -0.136109 -5.31026 0
M  V30 4248 C 378.879 -1.1297 -6.01585 0
M  V30 4249 N 378.016 -0.446415 -7.00679 0
M  V30 4250 H 382.856 -1.40148 -2.62988 0
M  V30 4251 H 380.393 -0.702168 -1.29259 0
M  V30 4252 H 382.351 0.571324 -4.1327 0
M  V30 4253 H 380.981 0.992025 -3.07179 0
M  V30 4254 H 380.033 -1.38135 -3.54433 0
M  V30 4255 H 381.345 -1.60512 -4.72268 0
M  V30 4256 H 380.499 0.335784 -6.0577 0
M  V30 4257 H 379.238 0.653373 -4.83304 0
M  V30 4258 H 378.243 -1.6123 -5.25628 0
M  V30 4259 H 379.468 -1.91993 -6.51395 0
M  V30 4260 H 377.414 0.323763 -6.55201 0
M  V30 4261 H 377.331 -1.1419 -7.47326 0
M  V30 4262 H 378.599 0.00291697 -7.795 0
M  V30 4263 N 382.828 1.3818 -0.7579 0
M  V30 4264 C 384.053 2.04827 -0.325679 0
M  V30 4265 C 384.478 1.56788 1.03919 0
M  V30 4266 O 383.836 0.721811 1.66312 0
M  V30 4267 C 383.884 3.58774 -0.362447 0
M  V30 4268 O 382.988 4.07372 0.642033 0
M  V30 4269 H 382.329 0.64833 -0.143402 0
M  V30 4270 H 384.859 1.7677 -1.03023 0
M  V30 4271 H 384.869 4.07434 -0.214844 0
M  V30 4272 H 383.544 3.93096 -1.35824 0
M  V30 4273 H 382.121 3.70068 0.458688 0
M  V30 4274 N 384.306 0.507319 1.49211 0
M  V30 4275 C 385.216 -0.272136 2.33016 0
M  V30 4276 C 386.232 -0.961206 1.45041 0
M  V30 4277 O 387.408 -0.941191 1.78055 0
M  V30 4278 C 384.473 -1.31895 3.20631 0
M  V30 4279 C 383.534 -0.642648 4.24463 0
M  V30 4280 C 382.767 -1.63959 5.07891 0
M  V30 4281 O 382.99 -2.87007 4.92933 0
M  V30 4282 O 381.924 -1.19143 5.8999 0
M  V30 4283 H 385.75 0.413982 3.00865 0
M  V30 4284 H 383.335 0.268556 1.46966 0
M  V30 4285 H 385.217 -1.92446 3.7489 0
M  V30 4286 H 383.892 -1.98788 2.5547 0
M  V30 4287 H 382.799 0.00276252 3.741 0
M  V30 4288 H 384.132 -0.0160534 4.92197 0
M  V30 4289 N 385.784 -1.5574 0.241426 0
M  V30 4290 C 387.2 -1.59196 -0.113548 0
M  V30 4291 C 387.4 -1.25852 -1.57364 0
M  V30 4292 O 386.456 -1.00322 -2.31715 0
M  V30 4293 C 387.769 -2.99814 0.230695 0
M  V30 4294 C 389.317 -3.12513 0.174547 0
M  V30 4295 C 389.792 -4.55342 0.492744 0
M  V30 4296 N 391.283 -4.61076 0.443043 0
M  V30 4297 C 392.018 -5.6956 0.662484 0
M  V30 4298 N 391.514 -6.86328 0.944761 0
M  V30 4299 N 393.307 -5.58957 0.593564 0
M  V30 4300 H 385.458 -1.75685 1.19368 0
M  V30 4301 H 387.721 -0.81756 0.479896 0
M  V30 4302 H 387.427 -3.28932 1.24485 0
M  V30 4303 H 387.301 -3.74568 -0.444833 0
M  V30 4304 H 389.688 -2.83179 -0.830277 0
M  V30 4305 H 389.769 -2.40045 0.883845 0
M  V30 4306 H 389.413 -4.85396 1.4951 0
M  V30 4307 H 389.343 -5.26062 -0.23797 0
M  V30 4308 H 391.834 -3.77179 0.233374 0
M  V30 4309 H 392.147 -7.64935 1.09977 0
M  V30 4310 H 390.492 -6.88025 0.982175 0
M  V30 4311 H 393.683 -4.66611 0.373123 0
M  V30 4312 H 393.856 -6.43433 0.767981 0
M  V30 4313 N 387.262 0.0317525 -1.57568 0
M  V30 4314 C 388.172 1.05021 -2.0978 0
M  V30 4315 C 389.188 1.39809 -1.03583 0
M  V30 4316 O 390.364 1.49182 -1.35302 0
M  V30 4317 C 387.429 2.33301 -2.56459 0
M  V30 4318 C 386.49 2.0512 -3.77127 0
M  V30 4319 C 385.723 3.27283 -4.2157 0
M  V30 4320 O 385.946 4.37861 -3.65559 0
M  V30 4321 O 384.88 3.13141 -5.14029 0
M  V30 4322 H 388.706 0.636505 -2.96955 0
M  V30 4323 H 386.291 0.248559 -1.47318 0
M  V30 4324 H 388.173 3.08722 -2.86825 0
M  V30 4325 H 386.848 2.73973 -1.72397 0
M  V30 4326 H 385.755 1.27276 -3.51784 0
M  V30 4327 H 387.088 1.69305 -4.62165 0
M  V30 4328 N 388.74 1.54641 0.303973 0
M  V30 4329 C 390.156 1.45788 0.649463 0
M  V30 4330 C 390.356 0.64666 1.90842 0
M  V30 4331 O 389.412 0.153183 2.52035 0
M  V30 4332 C 390.725 2.89718 0.805227 0
M  V30 4333 C 392.273 2.99742 0.901305 0
M  V30 4334 C 392.748 4.44863 1.08909 0
M  V30 4335 N 394.239 4.48559 1.15536 0
M  V30 4336 C 394.974 5.58026 1.3189 0
M  V30 4337 N 394.47 6.77422 1.45161 0
M  V30 4338 N 396.263 5.45708 1.34755 0
M  V30 4339 H 388.414 2.05854 -0.523237 0
M  V30 4340 H 390.677 0.932186 -0.172431 0
M  V30 4341 H 390.383 3.51666 -0.0489108 0
M  V30 4342 H 390.257 3.36964 1.69513 0
M  V30 4343 H 392.644 2.3791 1.74593 0
M  V30 4344 H 392.725 2.55797 -0.0125531 0
M  V30 4345 H 392.369 5.07288 0.249241 0
M  V30 4346 H 392.299 4.86436 2.01713 0
M  V30 4347 H 394.79 3.6254 1.06646 0
M  V30 4348 H 395.103 7.56604 1.57387 0
M  V30 4349 H 393.448 6.80292 1.42223 0
M  V30 4350 H 396.639 4.51378 1.23996 0
M  V30 4351 H 396.812 6.3107 1.47157 0
M  V30 4352 N 390.218 -0.567019 1.47046 0
M  V30 4353 C 391.448 -1.34831 1.56538 0
M  V30 4354 C 391.856 -1.8802 0.21101 0
M  V30 4355 O 391.199 -1.65152 -0.804387 0
M  V30 4356 C 391.261 -2.56139 2.52256 0
M  V30 4357 C 390.925 -2.24307 3.98165 0
M  V30 4358 C 391.922 -1.82192 4.86931 0
M  V30 4359 C 389.607 -2.35968 4.43423 0
M  V30 4360 C 391.601 -1.52153 6.18973 0
M  V30 4361 C 389.288 -2.05542 5.75496 0
M  V30 4362 C 390.286 -1.63701 6.63092 0
M  V30 4363 O 389.974 -1.33657 7.92711 0
M  V30 4364 H 389.706 -0.417683 0.531523 0
M  V30 4365 H 392.26 -0.694726 1.93294 0
M  V30 4366 H 390.49 -3.24356 2.10548 0
M  V30 4367 H 392.179 -3.18214 2.51982 0
M  V30 4368 H 392.945 -1.72684 4.53217 0
M  V30 4369 H 388.824 -2.67495 3.75456 0
M  V30 4370 H 392.368 -1.19421 6.87302 0
M  V30 4371 H 388.265 -2.14679 6.08755 0
M  V30 4372 H 389.033 -1.4737 8.05124 0
M  V30 4373 N 391.696 -1.35014 -0.812953 0
M  V30 4374 C 392.973 -1.18502 -1.55617 0
M  V30 4375 C 393.353 0.238421 -2.09749 0
M  V30 4376 O 392.701 1.2411 -1.91857 0
M  V30 4377 C 392.911 -2.24783 -2.66971 0
M  V30 4378 C 394.259 -2.60268 -3.35478 0
M  V30 4379 O 395.283 -2.23648 -2.77236 0
M  V30 4380 O 394.142 -3.2321 -4.40678 0
M  V30 4381 H 391.236 -0.459984 -0.687272 0
M  V30 4382 H 393.782 -1.46677 -0.853464 0
M  V30 4383 H 392.554 -3.20284 -2.24798 0
M  V30 4384 H 392.177 -1.97841 -3.44884 0
M  V30 4385 N 393.175 1.03435 -1.18907 0
M  V30 4386 C 394.122 2.11591 -0.921837 0
M  V30 4387 C 395.092 1.65499 0.141226 0
M  V30 4388 O 396.277 1.908 0.000242829 0
M  V30 4389 C 393.417 3.42012 -0.460616 0
M  V30 4390 C 392.53 4.01682 -1.58982 0
M  V30 4391 C 391.665 5.20091 -1.08069 0
M  V30 4392 C 390.704 5.71805 -2.18416 0
M  V30 4393 N 389.841 6.81494 -1.68849 0
M  V30 4394 H 394.681 2.33787 -1.8479 0
M  V30 4395 H 392.218 1.1467 -0.921373 0
M  V30 4396 H 394.176 4.16834 -0.174642 0
M  V30 4397 H 392.806 3.19944 0.428467 0
M  V30 4398 H 391.858 3.24127 -1.99113 0
M  V30 4399 H 393.17 4.36084 -2.4214 0
M  V30 4400 H 392.324 6.02051 -0.749615 0
M  V30 4401 H 391.063 4.87209 -0.218771 0
M  V30 4402 H 390.068 4.88461 -2.5236 0
M  V30 4403 H 391.293 6.06728 -3.05054 0
M  V30 4404 H 389.239 6.50475 -0.849572 0
M  V30 4405 H 389.156 7.14994 -2.45601 0
M  V30 4406 H 390.424 7.67063 -1.38689 0
M  V30 4407 N 394.653 0.992116 1.22453 0
M  V30 4408 C 395.883 0.684949 1.94915 0
M  V30 4409 C 396.291 -0.754292 1.73514 0
M  V30 4410 O 395.634 -1.52056 1.03076 0
M  V30 4411 C 395.696 0.910054 3.47791 0
M  V30 4412 C 395.36 2.33363 3.92926 0
M  V30 4413 C 396.357 3.31308 4.00663 0
M  V30 4414 C 394.042 2.66785 4.25595 0
M  V30 4415 C 396.036 4.6075 4.40441 0
M  V30 4416 C 393.723 3.96446 4.65053 0
M  V30 4417 C 394.721 4.9324 4.72444 0
M  V30 4418 O 394.409 6.20584 5.1101 0
M  V30 4419 H 394.141 0.25258 0.62704 0
M  V30 4420 H 396.695 1.32939 1.56577 0
M  V30 4421 H 394.925 0.208443 3.86138 0
M  V30 4422 H 396.614 0.598257 4.01467 0
M  V30 4423 H 397.38 3.0682 3.75615 0
M  V30 4424 H 393.259 1.92148 4.19047 0
M  V30 4425 H 396.803 5.363 4.46126 0
M  V30 4426 H 392.7 4.20724 4.89552 0
M  V30 4427 H 393.468 6.24509 5.29085 0
M  V30 4428 N 396.131 -1.37776 0.765217 0
M  V30 4429 C 397.547 -1.53297 0.444108 0
M  V30 4430 C 397.747 -1.72515 -1.04119 0
M  V30 4431 O 396.803 -1.74278 -1.82711 0
M  V30 4432 C 398.116 -2.73328 1.25349 0
M  V30 4433 C 399.664 -2.87185 1.24473 0
M  V30 4434 C 400.139 -4.10191 2.03733 0
M  V30 4435 N 401.63 -4.17291 2.01053 0
M  V30 4436 C 402.365 -5.11488 2.59166 0
M  V30 4437 N 401.861 -6.11285 3.26041 0
M  V30 4438 N 403.654 -5.03924 2.49032 0
M  V30 4439 H 395.805 -1.23552 1.72768 0
M  V30 4440 H 398.068 -0.601103 0.733062 0
M  V30 4441 H 397.774 -2.6557 2.30577 0
M  V30 4442 H 397.648 -3.66834 0.87823 0
M  V30 4443 H 400.035 -2.94418 0.20047 0
M  V30 4444 H 400.116 -1.94657 1.65959 0
M  V30 4445 H 399.76 -4.0372 3.08176 0
M  V30 4446 H 399.69 -5.01821 1.59633 0
M  V30 4447 H 402.181 -3.45825 1.5236 0
M  V30 4448 H 402.494 -6.79678 3.67774 0
M  V30 4449 H 400.839 -6.11583 3.30138 0
M  V30 4450 H 404.03 -4.24902 1.96407 0
M  V30 4451 H 404.203 -5.77152 2.94617 0
M  V30 4452 N 397.609 -0.515225 -1.4894 0
M  V30 4453 C 398.837 0.0206034 -2.0689 0
M  V30 4454 C 399.252 1.29514 -1.37374 0
M  V30 4455 O 398.609 1.76698 -0.456529 0
M  V30 4456 C 398.66 0.26351 -3.60538 0
M  V30 4457 O 398.381 -0.960517 -4.27441 0
M  V30 4458 C 399.882 0.841383 -4.35242 0
M  V30 4459 H 397.102 -0.0268608 -0.670462 0
M  V30 4460 H 399.646 -0.716651 -1.91532 0
M  V30 4461 H 397.801 0.950777 -3.75552 0
M  V30 4462 H 398.215 -0.73212 -5.19365 0
M  V30 4463 H 399.689 0.96085 -5.43573 0
M  V30 4464 H 400.166 1.8427 -3.98674 0
M  V30 4465 H 400.772 0.191143 -4.2487 0
M  V30 4466 N 399.087 1.5561 -0.249682 0
M  V30 4467 C 400.315 2.03411 0.378352 0
M  V30 4468 C 400.73 1.12886 1.51335 0
M  V30 4469 O 400.087 0.143833 1.81932 0
M  V30 4470 C 400.138 3.50537 0.88351 0
M  V30 4471 O 399.859 4.37614 -0.20626 0
M  V30 4472 C 401.36 4.14113 1.58195 0
M  V30 4473 H 398.58 0.664994 0.08958 0
M  V30 4474 H 401.124 2.01044 -0.374357 0
M  V30 4475 H 399.279 3.5343 1.58639 0
M  V30 4476 H 399.693 5.24199 0.177782 0
M  V30 4477 H 401.167 5.18741 1.8871 0
M  V30 4478 H 401.644 3.60767 2.50487 0
M  V30 4479 H 402.25 4.15151 0.923573 0
M  V30 4480 N 400.565 -0.0233959 1.57583 0
M  V30 4481 C 401.495 -1.02162 2.09965 0
M  V30 4482 C 402.476 -1.3735 1.00344 0
M  V30 4483 O 403.661 -1.46135 1.27899 0
M  V30 4484 C 400.791 -2.32081 2.58371 0
M  V30 4485 C 399.745 -2.1112 3.72307 0
M  V30 4486 C 399.071 -3.46848 4.06941 0
M  V30 4487 C 400.371 -1.49276 5.00514 0
M  V30 4488 H 402.065 -0.585557 2.93618 0
M  V30 4489 H 399.611 -0.280218 1.41247 0
M  V30 4490 H 401.564 -3.02249 2.93639 0
M  V30 4491 H 400.288 -2.77758 1.71808 0
M  V30 4492 H 398.947 -1.43384 3.37397 0
M  V30 4493 H 398.595 -3.90184 3.17436 0
M  V30 4494 H 398.295 -3.33646 4.83688 0
M  V30 4495 H 399.819 -4.18369 4.44747 0
M  V30 4496 H 401.233 -2.09368 5.33702 0
M  V30 4497 H 399.63 -1.46632 5.8191 0
M  V30 4498 H 400.7 -0.459217 4.82721 0
M  V30 4499 N 402.043 -1.548 -0.295768 0
M  V30 4500 C 403.271 -1.78327 -1.04914 0
M  V30 4501 C 403.686 -0.545316 -1.80753 0
M  V30 4502 O 403.043 0.485013 -1.75937 0
M  V30 4503 C 403.094 -2.99418 -2.02561 0
M  V30 4504 O 402.815 -4.18431 -1.29798 0
M  V30 4505 C 404.316 -3.35375 -2.89895 0
M  V30 4506 H 401.536 -0.594618 -0.310918 0
M  V30 4507 H 404.08 -2.01763 -0.333454 0
M  V30 4508 H 402.235 -2.78175 -2.69624 0
M  V30 4509 H 402.649 -4.86736 -1.95419 0
M  V30 4510 H 404.123 -4.23332 -3.54251 0
M  V30 4511 H 404.6 -2.53761 -3.58472 0
M  V30 4512 H 405.206 -3.58796 -2.28355 0
M  V30 4513 N 403.521 0.559213 -1.47345 0
M  V30 4514 C 404.798 1.31997 -1.44348 0
M  V30 4515 C 405.178 2.1064 -0.139358 0
M  V30 4516 O 404.526 2.1091 0.879153 0
M  V30 4517 C 404.736 2.22618 -2.68779 0
M  V30 4518 C 406.084 2.83701 -3.1591 0
M  V30 4519 O 407.108 2.32921 -2.69493 0
M  V30 4520 O 405.967 3.75993 -3.966 0
M  V30 4521 H 403.061 0.594251 -0.575147 0
M  V30 4522 H 405.607 0.578282 -1.59543 0
M  V30 4523 H 404.379 1.64093 -3.55231 0
M  V30 4524 H 404.002 3.04085 -2.5616 0
M  V30 4525 N 404.999 1.35443 0.805782 0
M  V30 4526 C 405.929 1.31095 1.93226 0
M  V30 4527 C 406.91 0.185244 1.69088 0
M  V30 4528 O 408.095 0.380332 1.90439 0
M  V30 4529 C 405.225 1.08299 3.29983 0
M  V30 4530 C 404.179 2.17519 3.68605 0
M  V30 4531 C 403.505 1.79887 5.03532 0
M  V30 4532 C 404.805 3.5949 3.78898 0
M  V30 4533 H 406.499 2.25352 1.97122 0
M  V30 4534 H 404.045 1.0848 0.946996 0
M  V30 4535 H 405.998 1.03897 4.08391 0
M  V30 4536 H 404.722 0.104885 3.26432 0
M  V30 4537 H 403.381 2.2102 2.92482 0
M  V30 4538 H 403.029 0.80693 4.96485 0
M  V30 4539 H 402.729 2.53001 5.30344 0
M  V30 4540 H 404.253 1.77011 5.84379 0
M  V30 4541 H 405.667 3.58307 4.47536 0
M  V30 4542 H 404.064 4.31371 4.1718 0
M  V30 4543 H 405.134 3.95584 2.80431 0
M  V30 4544 N 406.477 -1.02803 1.19454 0
M  V30 4545 C 407.705 -1.79841 1.02297 0
M  V30 4546 C 408.12 -1.83879 -0.428259 0
M  V30 4547 O 407.477 -1.28345 -1.29745 0
M  V30 4548 C 407.528 -3.24852 1.58598 0
M  V30 4549 O 407.249 -3.21097 2.98041 0
M  V30 4550 C 408.75 -4.18485 1.46236 0
M  V30 4551 H 405.97 -0.565936 0.360496 0
M  V30 4552 H 408.514 -1.2948 1.58288 0
M  V30 4553 H 406.669 -3.72401 1.06753 0
M  V30 4554 H 407.083 -4.12033 3.24545 0
M  V30 4555 H 408.557 -5.18121 1.90407 0
M  V30 4556 H 409.034 -4.37254 0.41301 0
M  V30 4557 H 409.64 -3.76811 1.97215 0
M  V30 4558 N 407.956 -0.998596 -1.21925 0
M  V30 4559 C 408.906 -0.524743 -2.21879 0
M  V30 4560 C 409.89 0.41017 -1.55584 0
M  V30 4561 O 411.082 0.236063 -1.75419 0
M  V30 4562 C 408.211 0.153636 -3.42956 0
M  V30 4563 C 407.297 -0.801918 -4.16449 0
M  V30 4564 N 407.688 -1.95211 -4.66611 0
M  V30 4565 C 405.986 -0.618972 -4.41684 0
M  V30 4566 C 406.687 -2.55234 -5.22715 0
M  V30 4567 N 405.663 -1.83451 -5.1171 0
M  V30 4568 H 409.465 -1.40189 -2.58311 0
M  V30 4569 H 406.979 -0.86159 -1.3766 0
M  V30 4570 H 408.976 0.510534 -4.13762 0
M  V30 4571 H 407.636 1.02684 -3.08036 0
M  V30 4572 H 408.647 -2.33271 -4.62391 0
M  V30 4573 H 405.324 0.207694 -4.16983 0
M  V30 4574 H 406.714 -3.52471 -5.72026 0
M  V30 4575 N 409.434 1.37368 -0.772513 0
M  V30 4576 C 410.659 2.0447 -0.347386 0
M  V30 4577 C 411.084 1.57882 1.0225 0
M  V30 4578 O 410.442 0.73941 1.65537 0
M  V30 4579 C 410.49 3.58369 -0.400479 0
M  V30 4580 O 409.594 4.0803 0.598789 0
M  V30 4581 H 408.935 0.646773 -0.15027 0
M  V30 4582 H 411.465 1.75667 -1.04892 0
M  V30 4583 H 411.475 4.07183 -0.258045 0
M  V30 4584 H 410.15 3.91633 -1.39986 0
M  V30 4585 H 408.727 3.70534 0.419411 0
M  V30 4586 N 410.912 0.523116 1.48665 0
M  V30 4587 C 411.842 -0.23231 2.32342 0
M  V30 4588 C 412.823 -0.941637 1.41659 0
M  V30 4589 O 414.008 -0.928751 1.70552 0
M  V30 4590 C 411.138 -1.28387 3.22698 0
M  V30 4591 C 410.092 -0.693098 4.22351 0
M  V30 4592 C 409.418 -1.8468 5.01794 0
M  V30 4593 C 410.718 0.33063 5.21252 0
M  V30 4594 H 412.412 0.466192 2.95748 0
M  V30 4595 H 409.958 0.225643 1.42221 0
M  V30 4596 H 411.911 -1.82024 3.80059 0
M  V30 4597 H 410.635 -2.01186 2.57278 0
M  V30 4598 H 409.294 -0.178299 3.66166 0
M  V30 4599 H 408.942 -2.56301 4.32804 0
M  V30 4600 H 408.642 -1.45747 5.69238 0
M  V30 4601 H 410.166 -2.38709 5.62006 0
M  V30 4602 H 411.58 -0.118407 5.73178 0
M  V30 4603 H 409.977 0.636974 5.9671 0
M  V30 4604 H 411.047 1.23883 4.68808 0
M  V30 4605 N 412.39 -1.55475 0.257931 0
M  V30 4606 C 413.337 -2.21837 -0.636939 0
M  V30 4607 C 414.307 -1.18596 -1.16294 0
M  V30 4608 O 415.492 -1.47081 -1.21539 0
M  V30 4609 C 412.632 -2.9301 -1.82317 0
M  V30 4610 C 411.745 -4.10931 -1.33265 0
M  V30 4611 C 410.88 -4.69791 -2.47931 0
M  V30 4612 C 409.919 -5.7994 -1.95796 0
M  V30 4613 N 409.056 -6.32935 -3.0387 0
M  V30 4614 H 413.896 -2.9793 -0.0643591 0
M  V30 4615 H 411.433 -1.47086 -0.0200031 0
M  V30 4616 H 413.391 -3.3248 -2.52018 0
M  V30 4617 H 412.021 -2.1937 -2.36805 0
M  V30 4618 H 411.073 -3.76699 -0.52931 0
M  V30 4619 H 412.385 -4.90417 -0.910654 0
M  V30 4620 H 411.539 -5.11892 -3.25656 0
M  V30 4621 H 410.278 -3.89545 -2.93438 0
M  V30 4622 H 409.283 -5.37305 -1.16546 0
M  V30 4623 H 410.508 -6.62043 -1.51246 0
M  V30 4624 H 408.454 -5.55591 -3.48791 0
M  V30 4625 H 408.371 -7.07645 -2.66035 0
M  V30 4626 H 409.639 -6.79695 -3.81621 0
M  V30 4627 N 413.868 0.0150385 -1.57593 0
M  V30 4628 C 415.096 0.714395 -1.94175 0
M  V30 4629 C 415.511 1.68135 -0.858841 0
M  V30 4630 O 414.868 1.81766 0.163567 0
M  V30 4631 C 414.919 1.45933 -3.30735 0
M  V30 4632 O 414.64 0.531167 -4.34868 0
M  V30 4633 C 416.141 2.25456 -3.81686 0
M  V30 4634 H 413.361 0.199923 -0.640525 0
M  V30 4635 H 415.905 -0.0316096 -2.04476 0
M  V30 4636 H 414.06 2.15709 -3.21789 0
M  V30 4637 H 414.474 1.05509 -5.13778 0
M  V30 4638 H 415.948 2.731 -4.79709 0
M  V30 4639 H 416.425 3.07485 -3.13607 0
M  V30 4640 H 417.031 1.60727 -3.9376 0
M  V30 4641 N 415.346 1.54954 0.287554 0
M  V30 4642 C 416.757 1.65732 0.859634 0
M  V30 4643 C 417.108 0.574767 1.87592 0
M  V30 4644 O 416.233 -0.286299 2.14498 0
M  V30 4645 C 416.828 3.00438 1.56597 0
M  V30 4646 C 415.387 3.13292 2.08627 0
M  V30 4647 C 414.534 2.61473 0.923416 0
M  V30 4648 H 417.485 1.5857 0.0642338 0
M  V30 4649 H 417.506 2.92613 2.43224 0
M  V30 4650 H 417.018 3.79207 0.826053 0
M  V30 4651 H 415.119 2.39268 2.85625 0
M  V30 4652 H 415.232 4.19647 2.31157 0
M  V30 4653 H 413.596 2.18264 1.31275 0
M  V30 4654 H 414.379 3.42733 0.197241 0
M  V30 4655 N 416.824 -0.551391 1.4764 0
M  V30 4656 C 417.754 -1.66757 1.63445 0
M  V30 4657 C 418.735 -1.63077 0.483742 0
M  V30 4658 O 419.92 -1.80607 0.71377 0
M  V30 4659 C 417.05 -3.05387 1.65396 0
M  V30 4660 C 416.004 -3.23918 2.79752 0
M  V30 4661 C 415.33 -4.63393 2.66779 0
M  V30 4662 C 416.63 -3.08735 4.21284 0
M  V30 4663 H 418.324 -1.53786 2.56886 0
M  V30 4664 H 415.87 -0.738415 1.23626 0
M  V30 4665 H 417.823 -3.83325 1.75043 0
M  V30 4666 H 416.547 -3.19332 0.685195 0
M  V30 4667 H 415.206 -2.48391 2.69625 0
M  V30 4668 H 414.854 -4.74144 1.67918 0
M  V30 4669 H 414.554 -4.7674 3.43501 0
M  V30 4670 H 416.078 -5.43458 2.78364 0
M  V30 4671 H 417.492 -3.76484 4.32357 0
M  V30 4672 H 415.889 -3.33588 4.98838 0
M  V30 4673 H 416.959 -2.0541 4.39243 0
M  V30 4674 N 418.302 -1.35869 -0.798587 0
M  V30 4675 C 419.265 -1.29307 -1.89242 0
M  V30 4676 C 420.265 -0.202747 -1.59517 0
M  V30 4677 O 421.455 -0.456957 -1.681 0
M  V30 4678 C 418.587 -1.00229 -3.25833 0
M  V30 4679 H 419.78 -2.26576 -1.96478 0
M  V30 4680 H 417.333 -1.20509 -0.995358 0
M  V30 4681 H 418.068 -0.033801 -3.24282 0
M  V30 4682 H 417.853 -1.79121 -3.48795 0
M  V30 4683 H 419.343 -0.98219 -4.05885 0
M  V30 4684 N 419.78 1.02168 -1.19998 0
M  V30 4685 C 421.026 1.75945 -1.00852 0
M  V30 4686 C 421.359 1.88702 0.458828 0
M  V30 4687 O 420.634 1.40911 1.34069 0
M  V30 4688 C 420.917 3.18154 -1.68671 0
M  V30 4689 C 420.77 3.13224 -3.22817 0
M  V30 4690 C 422.089 4.16711 -1.41561 0
M  V30 4691 H 419.208 0.638673 -0.367785 0
M  V30 4692 H 421.85 1.19222 -1.4794 0
M  V30 4693 H 420 3.66586 -1.28636 0
M  V30 4694 H 421.672 2.72635 -3.72112 0
M  V30 4695 H 419.915 2.50751 -3.53986 0
M  V30 4696 H 420.586 4.13728 -3.65422 0
M  V30 4697 H 423.062 3.76913 -1.76284 0
M  V30 4698 H 421.938 5.14391 -1.91553 0
M  V30 4699 H 422.199 4.40774 -0.342193 0
M  V30 4700 N 421.258 1.00505 1.21394 0
M  V30 4701 C 422.188 0.585684 2.26035 0
M  V30 4702 C 423.169 -0.393525 1.65485 0
M  V30 4703 O 424.354 -0.281497 1.92149 0
M  V30 4704 C 421.484 -0.0884283 3.47187 0
M  V30 4705 C 420.438 0.810567 4.20254 0
M  V30 4706 C 419.764 0.00286382 5.347 0
M  V30 4707 C 421.064 2.1132 4.77641 0
M  V30 4708 H 422.758 1.46039 2.61368 0
M  V30 4709 H 420.304 0.703648 1.25638 0
M  V30 4710 H 422.257 -0.393286 4.19561 0
M  V30 4711 H 420.981 -0.997766 3.10986 0
M  V30 4712 H 419.64 1.09925 3.49731 0
M  V30 4713 H 419.288 -0.907765 4.94741 0
M  V30 4714 H 418.988 0.601444 5.84514 0
M  V30 4715 H 420.512 -0.295808 6.09883 0
M  V30 4716 H 421.926 1.87148 5.41893 0
M  V30 4717 H 420.323 2.66164 5.37845 0
M  V30 4718 H 421.393 2.78393 3.9702 0
M  V30 4719 N 422.737 -1.36956 0.779787 0
M  V30 4720 C 423.669 -2.28833 0.129639 0
M  V30 4721 C 424.682 -1.4902 -0.655511 0
M  V30 4722 O 425.871 -1.71578 -0.492279 0
M  V30 4723 C 422.971 -3.2833 -0.839792 0
M  V30 4724 C 422.144 -4.3727 -0.10675 0
M  V30 4725 C 421.203 -5.16789 -0.990717 0
M  V30 4726 O 420.229 -5.67406 -0.451516 0
M  V30 4727 N 421.431 -5.32294 -2.3161 0
M  V30 4728 H 424.196 -2.85268 0.918803 0
M  V30 4729 H 421.757 -1.49019 0.632841 0
M  V30 4730 H 423.749 -3.78413 -1.43477 0
M  V30 4731 H 422.319 -2.72605 -1.52988 0
M  V30 4732 H 421.539 -3.88478 0.669216 0
M  V30 4733 H 422.827 -5.07229 0.399464 0
M  V30 4734 H 422.225 -4.92768 -2.77843 0
M  V30 4735 H 420.782 -5.85656 -2.86095 0
M  V30 4736 N 424.215 -0.530993 -1.48385 0
M  V30 4737 C 425.44 0.000729535 -2.074 0
M  V30 4738 C 425.865 1.27298 -1.3848 0
M  V30 4739 O 425.223 1.75599 -0.451081 0
M  V30 4740 C 425.271 0.206697 -3.60007 0
M  V30 4741 O 424.375 1.27514 -3.92191 0
M  V30 4742 H 423.716 -0.039583 -0.662819 0
M  V30 4743 H 426.246 -0.739194 -1.9078 0
M  V30 4744 H 426.256 0.42904 -4.05738 0
M  V30 4745 H 424.931 -0.722675 -4.09573 0
M  V30 4746 H 423.508 1.03537 -3.58238 0
M  V30 4747 N 425.693 1.55336 -0.266172 0
M  V30 4748 C 426.921 2.03801 0.356756 0
M  V30 4749 C 427.336 1.14485 1.50129 0
M  V30 4750 O 426.693 0.163121 1.8177 0
M  V30 4751 C 426.744 3.51455 0.846281 0
M  V30 4752 O 426.465 4.37371 -0.252663 0
M  V30 4753 C 427.966 4.15767 1.53794 0
M  V30 4754 H 425.186 0.665906 0.0825218 0
M  V30 4755 H 427.73 2.00636 -0.39566 0
M  V30 4756 H 425.885 3.55092 1.54881 0
M  V30 4757 H 426.299 5.24358 0.122173 0
M  V30 4758 H 427.773 5.20714 1.83198 0
M  V30 4759 H 428.25 3.63404 2.46646 0
M  V30 4760 H 428.856 4.16107 0.879488 0
M  V30 4761 N 427.171 -0.0066808 1.57599 0
M  V30 4762 C 428.101 -0.999296 2.11036 0
M  V30 4763 C 429.082 -1.36278 1.01795 0
M  V30 4764 O 430.267 -1.4477 1.29442 0
M  V30 4765 C 427.397 -2.29328 2.60818 0
M  V30 4766 C 426.351 -2.07159 3.74525 0
M  V30 4767 C 425.677 -3.42512 4.10596 0
M  V30 4768 C 426.977 -1.43959 5.02069 0
M  V30 4769 H 428.671 -0.554382 2.94223 0
M  V30 4770 H 426.217 -0.265221 1.41536 0
M  V30 4771 H 428.17 -2.99117 2.96828 0
M  V30 4772 H 426.894 -2.7592 1.74745 0
M  V30 4773 H 425.553 -1.39797 3.38899 0
M  V30 4774 H 425.201 -3.86795 3.21556 0
M  V30 4775 H 424.901 -3.28498 4.87199 0
M  V30 4776 H 426.425 -4.13628 4.4916 0
M  V30 4777 H 427.839 -2.03696 5.35893 0
M  V30 4778 H 426.236 -1.40452 5.83432 0
M  V30 4779 H 427.306 -0.407992 4.83181 0
M  V30 4780 N 428.649 -1.55105 -0.279332 0
M  V30 4781 C 430.065 -1.46803 -0.626187 0
M  V30 4782 C 430.265 -0.676939 -1.89789 0
M  V30 4783 O 429.321 -0.19326 -2.51759 0
M  V30 4784 C 430.634 -2.90962 -0.759034 0
M  V30 4785 C 432.182 -3.01138 -0.853504 0
M  V30 4786 C 432.657 -4.46539 -1.01818 0
M  V30 4787 N 434.148 -4.50341 -1.08386 0
M  V30 4788 C 434.883 -5.60053 -1.22996 0
M  V30 4789 N 434.379 -6.79645 -1.34366 0
M  V30 4790 N 436.172 -5.47783 -1.26056 0
M  V30 4791 H 428.323 -2.04996 0.555921 0
M  V30 4792 H 430.586 -0.929325 0.187239 0
M  V30 4793 H 430.292 -3.51544 0.104852 0
M  V30 4794 H 430.166 -3.39619 -1.64131 0
M  V30 4795 H 432.553 -2.40658 -1.70786 0
M  V30 4796 H 432.634 -2.55745 0.0532466 0
M  V30 4797 H 432.278 -5.0762 -0.168504 0
M  V30 4798 H 432.208 -4.89583 -1.93948 0
M  V30 4799 H 434.699 -3.64191 -1.00864 0
M  V30 4800 H 435.012 -7.59012 -1.4533 0
M  V30 4801 H 433.357 -6.82469 -1.31382 0
M  V30 4802 H 436.548 -4.53294 -1.168 0
M  V30 4803 H 436.721 -6.33331 -1.37098 0
M  V30 4804 N 430.127 0.543554 -1.4793 0
M  V30 4805 C 431.352 1.32995 -1.59145 0
M  V30 4806 C 431.777 1.86472 -0.246956 0
M  V30 4807 O 431.135 1.63696 0.779324 0
M  V30 4808 C 431.183 2.46623 -2.63077 0
M  V30 4809 O 430.287 3.49261 -2.19295 0
M  V30 4810 H 429.628 0.394472 -0.534124 0
M  V30 4811 H 432.158 0.655489 -1.93816 0
M  V30 4812 H 432.168 2.93001 -2.83926 0
M  V30 4813 H 430.843 2.07059 -3.60693 0
M  V30 4814 H 429.42 3.09094 -2.08603 0
M  V30 4815 N 431.605 1.3629 0.791371 0
M  V30 4816 C 432.535 1.33137 1.91825 0
M  V30 4817 C 433.516 0.203168 1.68882 0
M  V30 4818 O 434.701 0.400509 1.90025 0
M  V30 4819 C 431.831 1.11793 3.28816 0
M  V30 4820 C 430.785 2.21417 3.66277 0
M  V30 4821 C 430.111 1.85218 5.01596 0
M  V30 4822 C 431.411 3.63489 3.75064 0
M  V30 4823 H 433.105 2.2743 1.9472 0
M  V30 4824 H 430.651 1.09479 0.935437 0
M  V30 4825 H 432.604 1.08222 4.07266 0
M  V30 4826 H 431.328 0.139501 3.26302 0
M  V30 4827 H 429.987 2.2411 2.90121 0
M  V30 4828 H 429.635 0.859544 4.95602 0
M  V30 4829 H 429.335 2.58611 5.27631 0
M  V30 4830 H 430.859 1.832 5.82469 0
M  V30 4831 H 432.273 3.63034 4.43711 0
M  V30 4832 H 430.67 4.35771 4.12582 0
M  V30 4833 H 431.74 3.98536 2.76219 0
M  V30 4834 N 433.083 -1.0153 1.20538 0
M  V30 4835 C 434.499 -1.27461 0.96051 0
M  V30 4836 C 434.699 -1.98273 -0.359193 0
M  V30 4837 O 433.755 -2.27886 -1.0874 0
M  V30 4838 C 435.068 -2.10837 2.14402 0
M  V30 4839 C 436.616 -2.24099 2.18515 0
M  V30 4840 C 437.091 -3.10852 3.36355 0
M  V30 4841 N 438.582 -3.18441 3.36377 0
M  V30 4842 C 439.317 -3.85795 4.24205 0
M  V30 4843 N 438.813 -4.55264 5.22213 0
M  V30 4844 N 440.606 -3.82331 4.12043 0
M  V30 4845 H 432.757 -0.539907 2.05423 0
M  V30 4846 H 435.02 -0.30092 0.898972 0
M  V30 4847 H 434.726 -1.66144 3.09983 0
M  V30 4848 H 434.6 -3.11576 2.12604 0
M  V30 4849 H 436.987 -2.68016 1.23497 0
M  V30 4850 H 437.068 -1.22865 2.24361 0
M  V30 4851 H 436.712 -2.6764 4.31661 0
M  V30 4852 H 436.642 -4.12177 3.27746 0
M  V30 4853 H 439.133 -2.68978 2.65442 0
M  V30 4854 H 439.446 -5.04331 5.85551 0
M  V30 4855 H 437.791 -4.54085 5.26148 0
M  V30 4856 H 440.982 -3.27207 3.34743 0
M  V30 4857 H 441.155 -4.34547 4.807 0
M  V30 4858 N 434.561 -1.01147 -1.20859 0
M  V30 4859 C 435.786 -0.716698 -1.94623 0
M  V30 4860 C 436.211 0.715415 -1.73964 0
M  V30 4861 O 435.569 1.49157 -1.03062 0
M  V30 4862 C 435.617 -1.0513 -3.44935 0
M  V30 4863 O 434.721 -0.160131 -4.12089 0
M  V30 4864 H 434.062 -0.266404 -0.608214 0
M  V30 4865 H 436.592 -1.35346 -1.53436 0
M  V30 4866 H 436.602 -1.00086 -3.95533 0
M  V30 4867 H 435.277 -2.09475 -3.59295 0
M  V30 4868 H 433.854 -0.267657 -3.71938 0
M  V30 4869 N 436.039 1.36541 -0.78704 0
M  V30 4870 C 436.949 2.3387 -0.184896 0
M  V30 4871 C 437.965 1.60927 0.661697 0
M  V30 4872 O 439.141 1.92927 0.57804 0
M  V30 4873 C 436.206 3.40122 0.672145 0
M  V30 4874 C 435.267 4.28867 -0.19267 0
M  V30 4875 C 434.5 5.30045 0.623561 0
M  V30 4876 O 434.723 5.39232 1.8597 0
M  V30 4877 O 433.657 6.01895 0.0247068 0
M  V30 4878 H 437.483 2.87126 -0.989562 0
M  V30 4879 H 435.068 1.38969 -0.548455 0
M  V30 4880 H 436.95 4.05093 1.16094 0
M  V30 4881 H 435.625 2.89169 1.45474 0
M  V30 4882 H 434.532 3.66945 -0.728166 0
M  V30 4883 H 435.865 4.83165 -0.938722 0
M  V30 4884 N 437.518 0.538854 1.48102 0
M  V30 4885 C 438.465 -0.219042 2.29758 0
M  V30 4886 C 439.435 -0.925562 1.37922 0
M  V30 4887 O 440.62 -0.924855 1.66886 0
M  V30 4888 C 437.76 -1.25452 3.2149 0
M  V30 4889 C 436.873 -0.555943 4.28408 0
M  V30 4890 C 436.008 -1.57512 5.0731 0
M  V30 4891 C 435.047 -0.860498 6.06021 0
M  V30 4892 N 434.184 -1.82564 6.77949 0
M  V30 4893 H 439.024 0.483449 2.94052 0
M  V30 4894 H 436.561 0.250247 1.44956 0
M  V30 4895 H 438.519 -1.86727 3.7308 0
M  V30 4896 H 437.149 -1.92528 2.591 0
M  V30 4897 H 436.201 0.170938 3.80016 0
M  V30 4898 H 437.513 0.00474616 4.988 0
M  V30 4899 H 436.667 -2.26191 5.62959 0
M  V30 4900 H 435.406 -2.16972 4.36778 0
M  V30 4901 H 434.411 -0.159686 5.49568 0
M  V30 4902 H 435.636 -0.271897 6.78555 0
M  V30 4903 H 433.582 -2.40915 6.10161 0
M  V30 4904 H 433.499 -1.31662 7.44447 0
M  V30 4905 H 434.767 -2.50414 7.38182 0
M  V30 4906 N 438.996 -1.55193 0.274407 0
M  V30 4907 C 439.929 -2.18606 -0.654712 0
M  V30 4908 C 440.907 -1.14677 -1.15273 0
M  V30 4909 O 442.091 -1.43198 -1.22583 0
M  V30 4910 C 439.218 -2.80875 -1.89281 0
M  V30 4911 C 438.264 -3.981 -1.53032 0
M  V30 4912 S 439.097 -5.32025 -0.609107 0
M  V30 4913 C 440.253 -5.97761 -1.85559 0
M  V30 4914 H 440.486 -2.97074 -0.115894 0
M  V30 4915 H 438.019 -1.54288 0.05867 0
M  V30 4916 H 439.977 -3.17381 -2.60345 0
M  V30 4917 H 438.638 -2.02302 -2.40277 0
M  V30 4918 H 437.831 -4.40356 -2.45158 0
M  V30 4919 H 437.433 -3.63013 -0.899874 0
M  V30 4920 H 439.725 -6.16951 -2.7996 0
M  V30 4921 H 440.668 -6.92545 -1.47605 0
M  V30 4922 H 441.076 -5.27113 -2.02021 0
M  V30 4923 N 440.474 -0.00167713 -1.576 0
M  V30 4924 C 441.699 0.69739 -1.95323 0
M  V30 4925 C 442.124 1.6642 -0.876706 0
M  V30 4926 O 441.482 1.80548 0.165007 0
M  V30 4927 C 441.53 1.40403 -3.32144 0
M  V30 4928 O 440.634 2.5185 -3.26566 0
M  V30 4929 H 439.975 0.185373 -0.637599 0
M  V30 4930 H 442.505 -0.0553665 -2.04525 0
M  V30 4931 H 442.515 1.76707 -3.67748 0
M  V30 4932 H 441.19 0.695167 -4.10049 0
M  V30 4933 H 439.767 2.17861 -3.0264 0
M  V30 4934 N 441.952 1.55251 0.271103 0
M  V30 4935 C 443.198 1.76207 1.00394 0
M  V30 4936 C 443.531 0.562604 1.85872 0
M  V30 4937 O 442.806 -0.439785 1.89463 0
M  V30 4938 C 443.089 3.06828 1.8849 0
M  V30 4939 C 442.942 4.37134 1.05992 0
M  V30 4940 C 444.261 3.33503 2.87165 0
M  V30 4941 H 441.38 0.641086 0.363562 0
M  V30 4942 H 444.022 1.87982 0.276189 0
M  V30 4943 H 442.172 2.96921 2.5054 0
M  V30 4944 H 443.844 4.59001 0.459978 0
M  V30 4945 H 442.087 4.32275 0.363443 0
M  V30 4946 H 442.758 5.2486 1.70955 0
M  V30 4947 H 445.234 3.43215 2.3525 0
M  V30 4948 H 444.11 4.2616 3.45946 0
M  V30 4949 H 444.371 2.53235 3.62387 0
M  V30 4950 N 443.43 -0.535701 1.48216 0
M  V30 4951 C 444.655 -1.32149 1.59848 0
M  V30 4952 C 445.08 -1.86338 0.256842 0
M  V30 4953 O 444.438 -1.64107 -0.770632 0
M  V30 4954 C 444.486 -2.45224 2.64381 0
M  V30 4955 O 443.59 -3.48093 2.21144 0
M  V30 4956 H 442.931 -0.391634 0.536208 0
M  V30 4957 H 445.461 -0.645202 1.94161 0
M  V30 4958 H 445.471 -2.91491 2.85476 0
M  V30 4959 H 444.146 -2.05143 3.61786 0
M  V30 4960 H 442.723 -3.07984 2.10239 0
M  V30 4961 N 444.908 -1.36708 -0.784132 0
M  V30 4962 C 446.185 -1.21776 -1.53069 0
M  V30 4963 C 446.565 0.193876 -2.10208 0
M  V30 4964 O 445.913 1.20012 -1.94446 0
M  V30 4965 C 446.123 -2.30395 -2.62143 0
M  V30 4966 C 447.471 -2.67325 -3.29882 0
M  V30 4967 O 448.495 -2.29478 -2.7243 0
M  V30 4968 O 447.354 -3.32485 -4.33724 0
M  V30 4969 H 444.448 -0.474459 -0.677361 0
M  V30 4970 H 446.994 -1.48454 -0.82216 0
M  V30 4971 H 445.766 -3.2498 -2.17953 0
M  V30 4972 H 445.389 -2.05112 -3.40609 0
M  V30 4973 N 446.386 1.0089 -1.21074 0
M  V30 4974 C 447.349 2.0775 -0.968129 0
M  V30 4975 C 448.349 1.6069 0.0593445 0
M  V30 4976 O 449.539 1.73293 -0.177525 0
M  V30 4977 C 446.671 3.37794 -0.459108 0
M  V30 4978 H 447.864 2.30707 -1.9161 0
M  V30 4979 H 445.417 1.17807 -1.02719 0
M  V30 4980 H 446.152 3.20516 0.49397 0
M  V30 4981 H 445.937 3.7328 -1.20019 0
M  V30 4982 H 447.427 4.16454 -0.309099 0
M  V30 4983 N 447.864 1.01787 1.20321 0
M  V30 4984 C 448.774 0.598898 2.26827 0
M  V30 4985 C 449.79 -0.36418 1.70146 0
M  V30 4986 O 450.966 -0.224812 2.00141 0
M  V30 4987 C 448.031 -0.0549769 3.46656 0
M  V30 4988 C 447.092 0.954205 4.18561 0
M  V30 4989 C 446.325 0.331439 5.3267 0
M  V30 4990 O 446.548 -0.86851 5.63749 0
M  V30 4991 O 445.482 1.0488 5.92692 0
M  V30 4992 H 449.308 1.48562 2.64883 0
M  V30 4993 H 446.893 0.787434 1.26964 0
M  V30 4994 H 448.775 -0.420102 4.19301 0
M  V30 4995 H 447.45 -0.915876 3.10473 0
M  V30 4996 H 446.357 1.37072 3.48083 0
M  V30 4997 H 447.69 1.78511 4.58688 0
M  V30 4998 N 449.342 -1.36122 0.79427 0
M  V30 4999 C 450.753 -1.81646 0.431446 0
M  V30 5000 C 451.104 -1.66043 -1.04518 0
M  V30 5001 O 450.229 -1.1841 -1.8113 0
M  V30 5002 C 450.824 -3.29785 0.776341 0
M  V30 5003 C 449.383 -3.73501 0.466282 0
M  V30 5004 C 448.53 -2.58313 1.00844 0
M  V30 5005 H 451.481 -1.24274 0.986995 0
M  V30 5006 H 451.502 -3.80437 0.0692413 0
M  V30 5007 H 451.014 -3.4111 1.8511 0
M  V30 5008 H 449.115 -3.67733 -0.600245 0
M  V30 5009 H 449.228 -4.68754 0.990288 0
M  V30 5010 H 447.592 -2.5102 0.431406 0
M  V30 5011 H 448.375 -2.72421 2.08906 0
M  V30 5012 N 450.82 -0.546701 -1.47814 0
M  V30 5013 C 452.066 -0.0187684 -2.02791 0
M  V30 5014 C 452.399 1.32338 -1.42128 0
M  V30 5015 O 451.674 1.85867 -0.573023 0
M  V30 5016 C 451.957 0.0854985 -3.59998 0
M  V30 5017 C 451.81 -1.283 -4.31114 0
M  V30 5018 C 453.129 0.80412 -4.32691 0
M  V30 5019 H 450.248 -0.0082946 -0.736953 0
M  V30 5020 H 452.89 -0.706962 -1.76358 0
M  V30 5021 H 451.04 0.671609 -3.82651 0
M  V30 5022 H 452.712 -1.91151 -4.19832 0
M  V30 5023 H 450.955 -1.86049 -3.91878 0
M  V30 5024 H 451.626 -1.16287 -5.39612 0
M  V30 5025 H 454.102 0.306576 -4.14969 0
M  V30 5026 H 452.978 0.846011 -5.42341 0
M  V30 5027 H 453.239 1.85802 -4.01161 0
M  V30 5028 N 452.299 1.55045 -0.282633 0
M  V30 5029 C 453.232 2.18951 0.64311 0
M  V30 5030 C 454.21 1.15287 1.14664 0
M  V30 5031 O 455.394 1.43846 1.21822 0
M  V30 5032 C 452.521 2.81874 1.87789 0
M  V30 5033 C 451.567 3.98906 1.50919 0
M  V30 5034 S 452.4 5.3234 0.580884 0
M  V30 5035 C 453.556 5.98737 1.82387 0
M  V30 5036 H 453.789 2.97131 0.100138 0
M  V30 5037 H 451.322 1.54255 -0.0668514 0
M  V30 5038 H 453.28 3.18757 2.58658 0
M  V30 5039 H 451.941 2.03573 2.392 0
M  V30 5040 H 451.134 4.4165 2.42819 0
M  V30 5041 H 450.736 3.63485 0.88061 0
M  V30 5042 H 453.028 6.18427 2.76684 0
M  V30 5043 H 453.971 6.93318 1.4393 0
M  V30 5044 H 454.379 5.28177 1.99223 0
M  V30 5045 N 453.777 0.010035 1.57597 0
M  V30 5046 C 454.707 -0.976857 2.12084 0
M  V30 5047 C 455.688 -1.35191 1.03235 0
M  V30 5048 O 456.873 -1.43389 1.3097 0
M  V30 5049 C 454.003 -2.26548 2.63236 0
M  V30 5050 C 452.957 -2.03175 3.76701 0
M  V30 5051 C 452.283 -3.38138 4.14206 0
M  V30 5052 C 453.583 -1.38625 5.03568 0
M  V30 5053 H 455.277 -0.523145 2.94794 0
M  V30 5054 H 452.823 -0.250195 1.4181 0
M  V30 5055 H 454.776 -2.95952 2.99984 0
M  V30 5056 H 453.5 -2.74051 1.77661 0
M  V30 5057 H 452.159 -1.36195 3.40362 0
M  V30 5058 H 451.807 -3.83363 3.25641 0
M  V30 5059 H 451.507 -3.23312 4.90656 0
M  V30 5060 H 453.031 -4.08841 4.53521 0
M  V30 5061 H 454.445 -1.98 5.38023 0
M  V30 5062 H 452.842 -1.34256 5.84889 0
M  V30 5063 H 453.912 -0.356722 4.83586 0
M  V30 5064 N 455.255 -1.55392 -0.262866 0
M  V30 5065 C 456.165 -1.92077 -1.34698 0
M  V30 5066 C 457.181 -0.819227 -1.53508 0
M  V30 5067 O 458.357 -1.11921 -1.67439 0
M  V30 5068 C 455.422 -2.19407 -2.68443 0
M  V30 5069 C 454.483 -3.42905 -2.58292 0
M  V30 5070 C 453.716 -3.68921 -3.85659 0
M  V30 5071 O 453.939 -2.97275 -4.8681 0
M  V30 5072 O 452.873 -4.62455 -3.85252 0
M  V30 5073 H 456.699 -2.84384 -1.06581 0
M  V30 5074 H 454.284 -1.42069 -0.462264 0
M  V30 5075 H 456.166 -2.38365 -3.47506 0
M  V30 5076 H 454.841 -1.30282 -2.96325 0
M  V30 5077 H 453.748 -3.29272 -1.7757 0
M  V30 5078 H 455.081 -4.32282 -2.35358 0
M  V30 5079 N 456.733 0.527833 -1.48498 0
M  V30 5080 C 457.665 1.6482 -1.5927 0
M  V30 5081 C 458.678 1.55659 -0.476869 0
M  V30 5082 O 459.867 1.62081 -0.747806 0
M  V30 5083 C 456.967 3.0348 -1.50842 0
M  V30 5084 C 456.14 3.381 -2.77502 0
M  V30 5085 C 455.199 4.5605 -2.62497 0
M  V30 5086 O 454.225 4.59165 -3.36387 0
M  V30 5087 N 455.427 5.54353 -1.72257 0
M  V30 5088 H 458.192 1.56015 -2.55889 0
M  V30 5089 H 455.753 0.715152 -1.45249 0
M  V30 5090 H 457.745 3.80264 -1.38496 0
M  V30 5091 H 456.315 3.06352 -0.621887 0
M  V30 5092 H 455.535 2.50473 -3.04396 0
M  V30 5093 H 456.823 3.58017 -3.61527 0
M  V30 5094 H 456.221 5.54617 -1.11431 0
M  V30 5095 H 454.778 6.30347 -1.65849 0
M  V30 5096 N 458.211 1.37122 0.776871 0
M  V30 5097 C 459.46 1.31373 1.53049 0
M  V30 5098 C 459.773 -0.101016 1.95339 0
M  V30 5099 O 460.979 -0.280953 2.70042 0
M  V30 5100 C 459.435 2.30567 2.76346 0
M  V30 5101 C 459.043 3.77543 2.41175 0
M  V30 5102 C 460.787 2.33818 3.54301 0
M  V30 5103 C 458.694 4.68481 3.60943 0
M  V30 5104 H 457.624 0.488234 0.574581 0
M  V30 5105 H 460.275 1.62554 0.851372 0
M  V30 5106 H 458.657 1.92396 3.46121 0
M  V30 5107 H 459.831 4.24521 1.79216 0
M  V30 5108 H 458.146 3.77187 1.76405 0
M  V30 5109 H 460.743 2.98965 4.4331 0
M  V30 5110 H 461.086 1.3503 3.93793 0
M  V30 5111 H 461.619 2.7067 2.91518 0
M  V30 5112 H 458.358 5.68378 3.26537 0
M  V30 5113 H 457.878 4.2621 4.22025 0
M  V30 5114 H 459.557 4.85366 4.27819 0
M  V30 5115 N 459.689 -1.00246 1.21608 0
M  V30 5116 C 460.914 -1.78167 1.06167 0
M  V30 5117 C 461.339 -1.84138 -0.384035 0
M  V30 5118 O 460.697 -1.28683 -1.27712 0
M  V30 5119 C 460.745 -3.19786 1.66642 0
M  V30 5120 O 459.849 -4.02153 0.913613 0
M  V30 5121 H 459.19 -0.549 0.37349 0
M  V30 5122 H 461.72 -1.25994 1.61204 0
M  V30 5123 H 461.73 -3.70451 1.70969 0
M  V30 5124 H 460.405 -3.14754 2.7185 0
M  V30 5125 H 458.982 -3.60711 0.945635 0
M  V30 5126 N 461.167 -1.02423 -1.1978 0
M  V30 5127 C 462.583 -0.740459 -1.41384 0
M  V30 5128 C 462.783 0.676827 -1.89793 0
M  V30 5129 O 461.839 1.4435 -2.0717 0
M  V30 5130 C 463.152 -1.77264 -2.42895 0
M  V30 5131 C 464.7 -1.79165 -2.56649 0
M  V30 5132 C 465.175 -2.8133 -3.6141 0
M  V30 5133 N 466.666 -2.80118 -3.68901 0
M  V30 5134 C 467.401 -3.55824 -4.49641 0
M  V30 5135 N 466.897 -4.41231 -5.34123 0
M  V30 5136 N 468.69 -3.44387 -4.44246 0
M  V30 5137 H 460.841 -1.9391 -0.866764 0
M  V30 5138 H 463.104 -0.838074 -0.443098 0
M  V30 5139 H 462.81 -2.7884 -2.14339 0
M  V30 5140 H 462.684 -1.59108 -3.42001 0
M  V30 5141 H 465.071 -0.782702 -2.84531 0
M  V30 5142 H 465.152 -2.01396 -1.57713 0
M  V30 5143 H 464.796 -3.82394 -3.34271 0
M  V30 5144 H 464.726 -2.56359 -4.59986 0
M  V30 5145 H 467.217 -2.1817 -3.08562 0
M  V30 5146 H 467.53 -4.95747 -5.92836 0
M  V30 5147 H 465.875 -4.45306 -5.33599 0
M  V30 5148 H 469.066 -2.7708 -3.77285 0
M  V30 5149 H 469.239 -4.0364 -5.06931 0
M  V30 5150 N 462.645 1.35699 -0.801477 0
M  V30 5151 C 463.894 1.98165 -0.375979 0
M  V30 5152 C 464.207 1.64306 1.06127 0
M  V30 5153 O 465.413 2.20097 1.58964 0
M  V30 5154 C 463.869 3.54497 -0.621305 0
M  V30 5155 C 463.477 3.9727 -2.07076 0
M  V30 5156 C 465.221 4.23697 -0.26091 0
M  V30 5157 C 463.128 5.46427 -2.26211 0
M  V30 5158 H 462.058 0.741478 -0.136844 0
M  V30 5159 H 464.709 1.54834 -0.984814 0
M  V30 5160 H 463.091 3.95958 0.0574112 0
M  V30 5161 H 464.265 3.66974 -2.78687 0
M  V30 5162 H 462.58 3.40943 -2.39054 0
M  V30 5163 H 465.177 5.33334 -0.381994 0
M  V30 5164 H 465.52 4.0869 0.792344 0
M  V30 5165 H 466.053 3.87639 -0.893339 0
M  V30 5166 H 462.792 5.66396 -3.29963 0
M  V30 5167 H 462.312 5.78309 -1.59119 0
M  V30 5168 H 463.991 6.12819 -2.07513 0
M  V30 5169 N 464.123 0.554532 1.47522 0
M  V30 5170 C 465.348 0.0322661 2.07375 0
M  V30 5171 C 465.773 -1.25079 1.40488 0
M  V30 5172 O 465.131 -1.74859 0.47896 0
M  V30 5173 C 465.179 -0.149397 3.6029 0
M  V30 5174 O 464.283 -1.21259 3.9417 0
M  V30 5175 H 463.624 0.0501228 0.662106 0
M  V30 5176 H 466.154 0.769452 1.8958 0
M  V30 5177 H 466.164 -0.364437 4.06369 0
M  V30 5178 H 464.839 0.787743 4.08372 0
M  V30 5179 H 463.416 -0.97825 3.5984 0
M  V30 5180 N 465.601 -1.54893 0.290851 0
M  V30 5181 C 466.533 -2.20564 -0.623236 0
M  V30 5182 C 467.546 -1.19519 -1.1054 0
M  V30 5183 O 468.735 -1.46165 -1.02459 0
M  V30 5184 C 465.835 -2.83033 -1.86401 0
M  V30 5185 C 465.008 -4.09916 -1.52604 0
M  V30 5186 C 464.067 -4.56284 -2.62091 0
M  V30 5187 O 463.093 -5.2171 -2.27612 0
M  V30 5188 N 464.295 -4.27746 -3.92446 0
M  V30 5189 H 467.06 -2.99638 -0.0610915 0
M  V30 5190 H 464.621 -1.61508 0.112615 0
M  V30 5191 H 466.613 -3.1099 -2.58973 0
M  V30 5192 H 465.183 -2.0786 -2.33481 0
M  V30 5193 H 464.403 -3.89078 -0.633424 0
M  V30 5194 H 465.691 -4.92554 -1.27547 0
M  V30 5195 H 465.089 -3.7531 -4.23272 0
M  V30 5196 H 463.646 -4.60437 -4.61347 0
M  V30 5197 N 467.08 -0.0183926 -1.57589 0
M  V30 5198 C 468.012 0.995557 -2.06449 0
M  V30 5199 C 469.025 1.29556 -0.985849 0
M  V30 5200 O 470.214 1.2621 -1.26227 0
M  V30 5201 C 467.314 2.32572 -2.46502 0
M  V30 5202 C 466.487 2.21245 -3.77319 0
M  V30 5203 C 465.546 3.37104 -4.04039 0
M  V30 5204 O 464.572 3.14468 -4.74445 0
M  V30 5205 N 465.774 4.60553 -3.53372 0
M  V30 5206 H 468.539 0.578746 -2.94059 0
M  V30 5207 H 466.1 0.168603 -1.6102 0
M  V30 5208 H 468.092 3.08887 -2.61478 0
M  V30 5209 H 466.662 2.65931 -1.64315 0
M  V30 5210 H 465.882 1.29723 -3.72244 0
M  V30 5211 H 467.17 2.10868 -4.63047 0
M  V30 5212 H 466.568 4.81839 -2.96391 0
M  V30 5213 H 465.125 5.34072 -3.73644 0
M  V30 5214 N 468.558 1.5553 0.254621 0
M  V30 5215 C 469.807 1.76202 0.981612 0
M  V30 5216 C 470.12 0.580883 1.86776 0
M  V30 5217 O 471.326 0.670448 2.63092 0
M  V30 5218 C 469.782 3.11921 1.79537 0
M  V30 5219 C 469.39 4.37659 0.956991 0
M  V30 5220 C 471.134 3.41936 2.51555 0
M  V30 5221 C 469.041 5.64411 1.76619 0
M  V30 5222 H 467.971 0.656841 0.370237 0
M  V30 5223 H 470.622 1.81969 0.236556 0
M  V30 5224 H 469.004 3.00241 2.58208 0
M  V30 5225 H 470.178 4.60307 0.21315 0
M  V30 5226 H 468.493 4.14922 0.350497 0
M  V30 5227 H 471.09 4.33849 3.12536 0
M  V30 5228 H 471.433 2.62905 3.22779 0
M  V30 5229 H 471.966 3.54797 1.799 0
M  V30 5230 H 468.705 6.46241 1.09783 0
M  V30 5231 H 468.225 5.45877 2.48551 0
M  V30 5232 H 469.904 6.03386 2.33527 0
M  V30 5233 N 470.036 -0.519951 1.48776 0
M  V30 5234 C 471.284 -1.2727 1.56993 0
M  V30 5235 C 471.605 -1.9339 0.25004 0
M  V30 5236 O 470.875 -1.81822 -0.729216 0
M  V30 5237 H 469.455 -0.472732 0.578389 0
M  V30 5238 H 472.117 -0.604234 1.85297 0
M  V30 5239 H 471.213 -2.04669 2.3562 0
M  V30 5240 N 471.514 -1.37532 -0.769588 0
M  V30 5241 C 472.744 -1.35861 -1.55645 0
M  V30 5242 C 473.152 0.0574398 -1.89113 0
M  V30 5243 O 472.495 1.03021 -1.52093 0
M  V30 5244 C 472.557 -2.13431 -2.89288 0
M  V30 5245 C 472.221 -3.62378 -2.78444 0
M  V30 5246 C 473.218 -4.56215 -2.49326 0
M  V30 5247 C 470.903 -4.05529 -2.96398 0
M  V30 5248 C 472.897 -5.91181 -2.38294 0
M  V30 5249 C 470.584 -5.40579 -2.84987 0
M  V30 5250 C 471.582 -6.33218 -2.55975 0
M  V30 5251 O 471.27 -7.65787 -2.44594 0
M  V30 5252 H 471.002 -0.467001 -0.48876 0
M  V30 5253 H 473.556 -1.81505 -0.961515 0
M  V30 5254 H 471.786 -1.62481 -3.50909 0
M  V30 5255 H 473.475 -2.04368 -3.50697 0
M  V30 5256 H 474.241 -4.24187 -2.35139 0
M  V30 5257 H 470.12 -3.33781 -3.1798 0
M  V30 5258 H 473.664 -6.63457 -2.15571 0
M  V30 5259 H 469.561 -5.72209 -2.98743 0
M  V30 5260 H 470.329 -7.76132 -2.59927 0
M  V30 5261 N 472.992 0.995999 -1.22138 0
M  V30 5262 C 474.222 1.76809 -1.06874 0
M  V30 5263 C 474.63 1.85265 0.383866 0
M  V30 5264 O 473.973 1.31969 1.27789 0
M  V30 5265 C 474.035 3.2186 -1.60144 0
M  V30 5266 C 473.699 3.36958 -3.0872 0
M  V30 5267 C 474.696 3.2452 -4.0618 0
M  V30 5268 C 472.381 3.62109 -3.48112 0
M  V30 5269 C 474.375 3.37013 -5.41019 0
M  V30 5270 C 472.062 3.74243 -4.831 0
M  V30 5271 C 473.06 3.61702 -5.79362 0
M  V30 5272 O 472.748 3.73436 -7.119 0
M  V30 5273 H 472.48 0.562207 -0.375365 0
M  V30 5274 H 475.034 1.26113 -1.62125 0
M  V30 5275 H 473.264 3.73734 -0.992981 0
M  V30 5276 H 474.953 3.80775 -1.40589 0
M  V30 5277 H 475.719 3.05004 -3.77091 0
M  V30 5278 H 471.598 3.70949 -2.73712 0
M  V30 5279 H 475.142 3.27141 -6.16137 0
M  V30 5280 H 471.039 3.93266 -5.11872 0
M  V30 5281 H 471.807 3.90328 -7.19435 0
M  V30 5282 N 474.47 1.03057 1.19235 0
M  V30 5283 C 475.4 0.633497 2.24742 0
M  V30 5284 C 476.381 -0.358335 1.66283 0
M  V30 5285 O 477.566 -0.240676 1.92703 0
M  V30 5286 C 474.696 -0.0147648 3.47297 0
M  V30 5287 C 473.65 0.899527 4.18441 0
M  V30 5288 C 472.976 0.116281 5.34574 0
M  V30 5289 C 474.276 2.21404 4.73051 0
M  V30 5290 H 475.97 1.5155 2.58211 0
M  V30 5291 H 473.516 0.73014 1.24117 0
M  V30 5292 H 475.469 -0.304202 4.20301 0
M  V30 5293 H 474.193 -0.931577 3.13032 0
M  V30 5294 H 472.852 1.17319 3.47321 0
M  V30 5295 H 472.5 -0.802619 4.96555 0
M  V30 5296 H 472.2 0.725293 5.83107 0
M  V30 5297 H 473.724 -0.166376 6.10373 0
M  V30 5298 H 475.138 1.98601 5.37802 0
M  V30 5299 H 473.535 2.77512 5.32078 0
M  V30 5300 H 474.605 2.86752 3.91026 0
M  V30 5301 N 475.948 -1.35272 0.808662 0
M  V30 5302 C 476.898 -2.27181 0.193124 0
M  V30 5303 C 477.882 -1.47871 -0.634265 0
M  V30 5304 O 479.074 -1.70048 -0.491182 0
M  V30 5305 C 476.203 -3.36979 -0.655751 0
M  V30 5306 C 475.289 -4.23712 0.181481 0
M  V30 5307 N 475.68 -4.90225 1.24551 0
M  V30 5308 C 473.978 -4.45985 -0.0365493 0
M  V30 5309 C 474.679 -5.54537 1.75682 0
M  V30 5310 N 473.655 -5.33107 1.06294 0
M  V30 5311 H 477.457 -2.76101 1.00724 0
M  V30 5312 H 474.971 -1.48823 0.650029 0
M  V30 5313 H 476.968 -4.01774 -1.11279 0
M  V30 5314 H 475.628 -2.89611 -1.46819 0
M  V30 5315 H 476.639 -4.91641 1.62818 0
M  V30 5316 H 473.316 -4.09409 -0.817964 0
M  V30 5317 H 474.706 -6.17597 2.64621 0
M  V30 5318 N 477.426 -0.562348 -1.47226 0
M  V30 5319 C 478.842 -0.222492 -1.58042 0
M  V30 5320 C 479.042 1.27505 -1.56028 0
M  V30 5321 O 478.098 2.05555 -1.46641 0
M  V30 5322 C 479.411 -0.853694 -2.88327 0
M  V30 5323 C 480.959 -0.825397 -3.01921 0
M  V30 5324 C 481.434 -1.43576 -4.34914 0
M  V30 5325 N 482.925 -1.39918 -4.41562 0
M  V30 5326 C 483.66 -1.84103 -5.43041 0
M  V30 5327 N 483.156 -2.36167 -6.51304 0
M  V30 5328 N 484.949 -1.75142 -5.34118 0
M  V30 5329 H 477.1 -1.53525 -1.46778 0
M  V30 5330 H 479.363 -0.640527 -0.698877 0
M  V30 5331 H 479.069 -1.90635 -2.95552 0
M  V30 5332 H 478.943 -0.34977 -3.75575 0
M  V30 5333 H 481.33 0.218583 -2.94289 0
M  V30 5334 H 481.411 -1.36713 -2.16202 0
M  V30 5335 H 481.055 -2.47884 -4.43301 0
M  V30 5336 H 480.985 -0.869427 -5.19373 0
M  V30 5337 H 483.476 -1.0184 -3.63919 0
M  V30 5338 H 483.789 -2.67793 -7.24919 0
M  V30 5339 H 482.134 -2.40181 -6.52179 0
M  V30 5340 H 485.325 -1.34241 -4.48439 0
M  V30 5341 H 485.498 -2.09895 -6.13065 0
M  V30 5342 N 478.904 1.54736 -0.299062 0
M  V30 5343 C 479.867 2.22127 0.565012 0
M  V30 5344 C 480.867 1.20669 1.06281 0
M  V30 5345 O 482.057 1.45417 0.959145 0
M  V30 5346 C 479.189 2.90611 1.78208 0
M  V30 5347 H 480.382 2.99891 -0.0237448 0
M  V30 5348 H 477.935 1.5622 -0.0498788 0
M  V30 5349 H 478.67 2.16921 2.41072 0
M  V30 5350 H 478.455 3.64984 1.43281 0
M  V30 5351 H 479.945 3.42026 2.396 0
M  V30 5352 N 480.382 0.0267497 1.57577 0
M  V30 5353 C 481.607 -0.666227 1.96408 0
M  V30 5354 C 482.032 -1.65004 0.903071 0
M  V30 5355 O 481.39 -1.80787 -0.136263 0
M  V30 5356 C 481.438 -1.35101 3.34335 0
M  V30 5357 O 480.542 -2.46623 3.30531 0
M  V30 5358 H 479.883 -0.175206 0.640468 0
M  V30 5359 H 482.413 0.0878977 2.04411 0
M  V30 5360 H 482.423 -1.70834 3.70513 0
M  V30 5361 H 481.098 -0.629844 4.11103 0
M  V30 5362 H 479.675 -2.13019 3.06068 0
M  V30 5363 N 481.861 -1.55662 -0.24637 0
M  V30 5364 C 482.794 -1.85332 -1.33143 0
M  V30 5365 C 483.772 -0.708464 -1.46354 0
M  V30 5366 O 484.956 -0.954274 -1.6256 0
M  V30 5367 C 482.083 -2.0385 -2.70487 0
M  V30 5368 C 481.129 -3.26488 -2.74423 0
M  V30 5369 S 481.962 -4.83124 -2.30979 0
M  V30 5370 C 483.118 -5.04647 -3.70246 0
M  V30 5371 H 483.351 -2.77077 -1.07777 0
M  V30 5372 H 480.884 -1.47776 -0.44738 0
M  V30 5373 H 482.842 -2.15202 -3.49569 0
M  V30 5374 H 481.503 -1.12947 -2.9309 0
M  V30 5375 H 480.696 -3.36413 -3.7529 0
M  V30 5376 H 480.298 -3.13864 -2.03385 0
M  V30 5377 H 482.59 -4.92023 -4.65746 0
M  V30 5378 H 483.533 -6.06625 -3.65255 0
M  V30 5379 H 483.941 -4.32491 -3.62784 0
M  V30 5380 N 483.339 0.512053 -1.4905 0
M  V30 5381 C 484.755 0.84224 -1.35567 0
M  V30 5382 C 484.955 1.97878 -0.380319 0
M  V30 5383 O 484.011 2.51769 0.19201 0
M  V30 5384 C 485.324 1.19286 -2.76028 0
M  V30 5385 C 486.872 1.30171 -2.84648 0
M  V30 5386 C 487.347 1.68568 -4.25851 0
M  V30 5387 N 488.838 1.75638 -4.28609 0
M  V30 5388 C 489.573 2.06769 -5.34821 0
M  V30 5389 N 489.069 2.36201 -6.51292 0
M  V30 5390 N 490.862 2.07927 -5.22229 0
M  V30 5391 H 483.013 -0.237574 -2.11067 0
M  V30 5392 H 485.276 -0.0436747 -0.946993 0
M  V30 5393 H 484.982 0.431199 -3.49047 0
M  V30 5394 H 484.856 2.13889 -3.10695 0
M  V30 5395 H 487.243 2.05411 -2.11873 0
M  V30 5396 H 487.324 0.336457 -2.53578 0
M  V30 5397 H 486.968 0.938824 -4.99148 0
M  V30 5398 H 486.898 2.66174 -4.54377 0
M  V30 5399 H 489.389 1.55097 -3.44606 0
M  V30 5400 H 489.702 2.59112 -7.28066 0
M  V30 5401 H 488.047 2.33681 -6.54536 0
M  V30 5402 H 491.238 1.84403 -4.30248 0
M  V30 5403 H 491.411 2.31856 -6.05101 0
M  V30 5404 N 484.817 1.37938 0.762283 0
M  V30 5405 C 486.065 1.33404 1.51815 0
M  V30 5406 C 486.386 -0.0780975 1.94844 0
M  V30 5407 O 485.656 -1.02405 1.67003 0
M  V30 5408 H 484.236 0.490839 0.563104 0
M  V30 5409 H 486.898 1.72527 0.906669 0
M  V30 5410 H 485.994 1.97926 2.41313 0
M  V30 5411 N 486.295 -0.989507 1.22664 0
M  V30 5412 C 487.543 -1.72612 1.05117 0
M  V30 5413 C 487.864 -1.90552 -0.414131 0
M  V30 5414 O 487.134 -1.4676 -1.29762 0
M  V30 5415 H 485.714 -0.639555 0.385977 0
M  V30 5416 H 488.376 -1.19158 1.54232 0
M  V30 5417 H 487.472 -2.71926 1.53175 0
M  V30 5418 N 487.773 -1.03688 -1.18687 0
M  V30 5419 C 489.001 -0.757918 -1.92518 0
M  V30 5420 C 489.416 0.684398 -1.75959 0
M  V30 5421 O 488.773 1.46617 -1.08673 0
M  V30 5422 C 488.824 -1.10985 -3.44042 0
M  V30 5423 O 488.545 -2.49554 -3.60076 0
M  V30 5424 C 490.046 -0.854844 -4.3498 0
M  V30 5425 H 487.266 -0.276699 -0.611293 0
M  V30 5426 H 489.81 -1.38352 -1.50595 0
M  V30 5427 H 487.965 -0.529279 -3.83767 0
M  V30 5428 H 488.379 -2.6291 -4.53849 0
M  V30 5429 H 489.853 -1.15098 -5.39867 0
M  V30 5430 H 490.33 0.210507 -4.38695 0
M  V30 5431 H 490.936 -1.41853 -4.00946 0
M  V30 5432 N 489.251 1.34841 -0.815825 0
M  V30 5433 C 490.181 2.32187 -0.247298 0
M  V30 5434 C 491.162 1.5791 0.632344 0
M  V30 5435 O 492.347 1.8593 0.560698 0
M  V30 5436 C 489.477 3.42122 0.597466 0
M  V30 5437 C 488.431 4.27602 -0.184446 0
M  V30 5438 C 487.757 5.28942 0.782609 0
M  V30 5439 C 489.057 5.03502 -1.38865 0
M  V30 5440 H 490.751 2.79985 -1.06061 0
M  V30 5441 H 488.297 1.34611 -0.511461 0
M  V30 5442 H 490.25 4.09232 1.00533 0
M  V30 5443 H 488.974 2.92956 1.44376 0
M  V30 5444 H 487.633 3.62085 -0.573592 0
M  V30 5445 H 487.281 4.7604 1.62466 0
M  V30 5446 H 486.981 5.87008 0.263695 0
M  V30 5447 H 488.505 5.98922 1.18848 0
M  V30 5448 H 489.919 5.63506 -1.05518 0
M  V30 5449 H 488.316 5.71108 -1.8427 0
M  V30 5450 H 489.386 4.33608 -2.17054 0
M  V30 5451 N 490.729 0.570148 1.46925 0
M  V30 5452 C 491.659 -0.158274 2.32963 0
M  V30 5453 C 492.64 -0.896093 1.44583 0
M  V30 5454 O 493.825 -0.874022 1.7342 0
M  V30 5455 C 490.955 -1.18055 3.26619 0
M  V30 5456 C 489.909 -0.558379 4.24342 0
M  V30 5457 C 489.235 -1.68623 5.07415 0
M  V30 5458 C 490.535 0.496295 5.19937 0
M  V30 5459 H 492.229 0.560046 2.94115 0
M  V30 5460 H 489.775 0.270775 1.41431 0
M  V30 5461 H 491.728 -1.69841 3.85658 0
M  V30 5462 H 490.452 -1.92899 2.63548 0
M  V30 5463 H 489.111 -0.0617157 3.66548 0
M  V30 5464 H 488.759 -2.42402 4.40738 0
M  V30 5465 H 488.459 -1.27564 5.73586 0
M  V30 5466 H 489.983 -2.20709 5.69315 0
M  V30 5467 H 491.397 0.0640052 5.73264 0
M  V30 5468 H 489.794 0.82649 5.94381 0
M  V30 5469 H 490.864 1.38735 4.6463 0
M  V30 5470 N 492.207 -1.54576 0.307264 0
M  V30 5471 C 493.432 -2.05139 -0.305379 0
M  V30 5472 C 493.857 -1.18278 -1.46259 0
M  V30 5473 O 493.215 -0.188243 -1.8032 0
M  V30 5474 C 493.263 -3.53066 -0.733283 0
M  V30 5475 O 492.367 -3.69206 -1.83741 0
M  V30 5476 H 491.708 -0.661444 -0.0582105 0
M  V30 5477 H 494.238 -1.99569 0.450931 0
M  V30 5478 H 494.248 -3.95034 -1.02039 0
M  V30 5479 H 492.923 -4.15746 0.113198 0
M  V30 5480 H 491.5 -3.39143 -1.55037 0
M  V30 5481 N 493.685 -0.035106 -1.57561 0
M  V30 5482 C 495.101 0.321334 -1.56332 0
M  V30 5483 C 495.301 1.72509 -1.04129 0
M  V30 5484 O 494.357 2.4287 -0.690694 0
M  V30 5485 C 495.67 0.164469 -3.0025 0
M  V30 5486 C 497.218 0.236786 -3.12103 0
M  V30 5487 C 497.693 0.10864 -4.57871 0
M  V30 5488 N 499.184 0.165433 -4.62904 0
M  V30 5489 C 499.919 0.0901506 -5.73329 0
M  V30 5490 N 499.415 -0.0365606 -6.9279 0
M  V30 5491 N 501.208 0.144572 -5.61914 0
M  V30 5492 H 493.359 -0.952976 -1.89821 0
M  V30 5493 H 495.622 -0.368537 -0.873432 0
M  V30 5494 H 495.328 -0.802746 -3.42416 0
M  V30 5495 H 495.202 0.932194 -3.655 0
M  V30 5496 H 497.589 1.19446 -2.69845 0
M  V30 5497 H 497.67 -0.561419 -2.49563 0
M  V30 5498 H 497.314 -0.845644 -5.00811 0
M  V30 5499 H 497.244 0.925786 -5.18398 0
M  V30 5500 H 499.735 0.263269 -3.76982 0
M  V30 5501 H 500.048 -0.0871487 -7.72751 0
M  V30 5502 H 498.393 -0.0714256 -6.94963 0
M  V30 5503 H 501.584 0.242006 -4.67474 0
M  V30 5504 H 501.757 0.0824413 -6.47948 0
M  V30 5505 N 495.163 1.55791 0.238111 0
M  V30 5506 C 496.073 1.94196 1.31625 0
M  V30 5507 C 497.089 0.843545 1.52185 0
M  V30 5508 O 498.265 1.1457 1.65637 0
M  V30 5509 C 495.33 2.2365 2.64918 0
M  V30 5510 C 494.391 3.46971 2.52804 0
M  V30 5511 C 493.624 3.7501 3.79741 0
M  V30 5512 O 493.847 3.04982 4.82019 0
M  V30 5513 O 492.781 4.68525 3.77846 0
M  V30 5514 H 496.607 2.86044 1.02043 0
M  V30 5515 H 494.192 1.42786 0.439603 0
M  V30 5516 H 496.074 2.43863 3.4367 0
M  V30 5517 H 494.749 1.34979 2.94215 0
M  V30 5518 H 493.656 3.32055 1.72309 0
M  V30 5519 H 494.989 4.35971 2.28451 0
M  V30 5520 N 496.642 -0.504142 1.49319 0
M  V30 5521 C 497.572 -1.61473 1.68667 0
M  V30 5522 C 498.553 -1.61455 0.535378 0
M  V30 5523 O 499.738 -1.78245 0.770868 0
M  V30 5524 C 496.868 -2.99971 1.75028 0
M  V30 5525 C 495.822 -3.14854 2.89916 0
M  V30 5526 C 495.148 -4.54671 2.81387 0
M  V30 5527 C 496.448 -2.95176 4.30893 0
M  V30 5528 H 498.142 -1.45535 2.61648 0
M  V30 5529 H 495.688 -0.698711 1.25913 0
M  V30 5530 H 497.641 -3.77562 1.8715 0
M  V30 5531 H 496.365 -3.1699 0.786441 0
M  V30 5532 H 495.024 -2.39687 2.77391 0
M  V30 5533 H 494.672 -4.68562 1.82917 0
M  V30 5534 H 494.372 -4.6557 3.58494 0
M  V30 5535 H 495.896 -5.34327 2.95512 0
M  V30 5536 H 497.31 -3.62538 4.44116 0
M  V30 5537 H 495.707 -3.17549 5.09198 0
M  V30 5538 H 496.777 -1.91332 4.45556 0
M  V30 5539 N 498.12 -1.38341 -0.754957 0
M  V30 5540 C 499.07 -1.31964 -1.85929 0
M  V30 5541 C 500.054 -0.204181 -1.59599 0
M  V30 5542 O 501.246 -0.440036 -1.71443 0
M  V30 5543 C 498.375 -1.14565 -3.2362 0
M  V30 5544 C 497.461 -2.30727 -3.55846 0
M  V30 5545 N 497.852 -3.56165 -3.59138 0
M  V30 5546 C 496.15 -2.23249 -3.86104 0
M  V30 5547 C 496.851 -4.32865 -3.88591 0
M  V30 5548 N 495.827 -3.62203 -4.05351 0
M  V30 5549 H 499.629 -2.2694 -1.8675 0
M  V30 5550 H 497.143 -1.31553 -0.952243 0
M  V30 5551 H 499.14 -1.0808 -4.02647 0
M  V30 5552 H 497.8 -0.205212 -3.24051 0
M  V30 5553 H 498.811 -3.89854 -3.40932 0
M  V30 5554 H 495.488 -1.37357 -3.94258 0
M  V30 5555 H 496.878 -5.41504 -3.97773 0
M  V30 5556 N 499.598 0.982988 -1.23187 0
M  V30 5557 C 501.009 1.53847 -1.05773 0
M  V30 5558 C 501.36 1.92568 0.375744 0
M  V30 5559 O 500.485 1.75783 1.26211 0
M  V30 5560 C 501.08 2.79567 -1.91384 0
M  V30 5561 C 499.639 3.31524 -1.78238 0
M  V30 5562 C 498.786 2.04534 -1.87246 0
M  V30 5563 H 501.737 0.802962 -1.36888 0
M  V30 5564 H 501.758 3.52317 -1.43711 0
M  V30 5565 H 501.27 2.51353 -2.95708 0
M  V30 5566 H 499.371 3.64623 -0.766875 0
M  V30 5567 H 499.484 4.01457 -2.61475 0
M  V30 5568 H 497.848 2.1855 -1.30797 0
M  V30 5569 H 498.631 1.78706 -2.9312 0
M  V30 5570 N 501.076 1.04316 1.18135 0
M  V30 5571 C 502.322 0.749128 1.88457 0
M  V30 5572 C 502.655 -0.72149 1.803 0
M  V30 5573 O 501.93 -1.52676 1.205 0
M  V30 5574 C 502.213 1.21905 3.38838 0
M  V30 5575 C 502.066 2.75195 3.55792 0
M  V30 5576 C 503.385 0.811085 4.32561 0
M  V30 5577 H 500.504 0.273611 0.684329 0
M  V30 5578 H 503.146 1.29561 1.38975 0
M  V30 5579 H 501.296 0.754137 3.8111 0
M  V30 5580 H 502.968 3.29743 3.22595 0
M  V30 5581 H 501.211 3.14899 2.98364 0
M  V30 5582 H 501.882 3.03135 4.61317 0
M  V30 5583 H 504.358 1.21118 3.98082 0
M  V30 5584 H 503.234 1.16761 5.36338 0
M  V30 5585 H 503.495 -0.285596 4.41177 0
M  V30 5586 N 502.554 -1.34406 0.822964 0
M  V30 5587 C 503.517 -2.2783 0.250271 0
M  V30 5588 C 504.517 -1.50288 -0.571854 0
M  V30 5589 O 505.707 -1.69825 -0.387952 0
M  V30 5590 C 502.839 -3.34663 -0.649137 0
M  V30 5591 H 504.032 -2.79992 1.07444 0
M  V30 5592 H 501.585 -1.44539 0.594829 0
M  V30 5593 H 502.32 -2.87714 -1.49637 0
M  V30 5594 H 502.105 -3.92052 -0.0611199 0
M  V30 5595 H 503.595 -4.04349 -1.04363 0
M  V30 5596 N 504.032 -0.577932 -1.46621 0
M  V30 5597 C 505.443 -0.150071 -1.86096 0
M  V30 5598 C 505.794 1.28563 -1.48209 0
M  V30 5599 O 504.919 1.97036 -0.894754 0
M  V30 5600 C 505.514 -0.265576 -3.37758 0
M  V30 5601 C 504.073 0.10738 -3.76247 0
M  V30 5602 C 503.22 -0.603711 -2.70649 0
M  V30 5603 H 506.171 -0.786438 -1.37844 0
M  V30 5604 H 506.192 0.510352 -3.77062 0
M  V30 5605 H 505.704 -1.3106 -3.65301 0
M  V30 5606 H 503.805 1.15272 -3.54321 0
M  V30 5607 H 503.918 -0.26561 -4.78363 0
M  V30 5608 H 502.282 -0.0444884 -2.54661 0
M  V30 5609 H 503.065 -1.65029 -3.01032 0
M  V30 5610 N 505.51 1.54411 -0.315457 0
M  V30 5611 C 506.44 2.27002 0.547039 0
M  V30 5612 C 507.421 1.27492 1.12605 0
M  V30 5613 O 508.606 1.5629 1.15269 0
M  V30 5614 C 505.736 3.02171 1.71201 0
M  V30 5615 C 504.69 4.0895 1.26268 0
M  V30 5616 C 504.016 4.71915 2.51396 0
M  V30 5617 C 505.316 5.20891 0.383419 0
M  V30 5618 H 507.01 2.99343 -0.0584517 0
M  V30 5619 H 504.556 1.4397 -0.0295527 0
M  V30 5620 H 506.509 3.51681 2.32161 0
M  V30 5621 H 505.233 2.27433 2.34397 0
M  V30 5622 H 503.892 3.60312 0.676062 0
M  V30 5623 H 503.54 3.93801 3.12937 0
M  V30 5624 H 503.24 5.44039 2.22026 0
M  V30 5625 H 504.764 5.24195 3.13133 0
M  V30 5626 H 506.178 5.66206 0.899082 0
M  V30 5627 H 504.575 5.99821 0.182857 0
M  V30 5628 H 505.645 4.81324 -0.587821 0
M  V30 5629 N 506.988 0.0434614 1.5754 0
M  V30 5630 C 507.918 -0.931651 2.14109 0
M  V30 5631 C 508.899 -1.32971 1.06079 0
M  V30 5632 O 510.084 -1.40579 1.33982 0
M  V30 5633 C 507.214 -2.20914 2.67982 0
M  V30 5634 C 506.168 -1.95139 3.80926 0
M  V30 5635 C 505.494 -3.29276 4.21285 0
M  V30 5636 C 506.794 -1.27913 5.06395 0
M  V30 5637 H 508.488 -0.460497 2.95837 0
M  V30 5638 H 506.034 -0.220058 1.42309 0
M  V30 5639 H 507.987 -2.89522 3.06194 0
M  V30 5640 H 506.711 -2.70221 1.83434 0
M  V30 5641 H 505.37 -1.28945 3.43175 0
M  V30 5642 H 505.018 -3.76369 3.33699 0
M  V30 5643 H 504.718 -3.12831 4.97404 0
M  V30 5644 H 506.242 -3.99129 4.62091 0
M  V30 5645 H 507.656 -1.86544 5.42102 0
M  V30 5646 H 506.053 -1.2182 5.87605 0
M  V30 5647 H 507.123 -0.254066 4.84234 0
M  V30 5648 N 508.466 -1.55915 -0.229846 0
M  V30 5649 C 509.743 -1.6932 -0.979295 0
M  V30 5650 C 510.123 -0.588321 -2.02736 0
M  V30 5651 O 509.471 0.40586 -2.24867 0
M  V30 5652 C 509.681 -3.10305 -1.59724 0
M  V30 5653 C 511.029 -3.6945 -2.09264 0
M  V30 5654 O 512.053 -3.13214 -1.69633 0
M  V30 5655 O 510.912 -4.68072 -2.82082 0
M  V30 5656 H 508.006 -0.689314 -0.456919 0
M  V30 5657 H 510.552 -1.68238 -0.222283 0
M  V30 5658 H 509.324 -3.82177 -0.840039 0
M  V30 5659 H 508.947 -3.1547 -2.42001 0
M  V30 5660 N 509.944 0.496216 -1.49584 0
M  V30 5661 C 510.892 1.61805 -1.67098 0
M  V30 5662 C 511.886 1.60667 -0.536877 0
M  V30 5663 O 513.092 1.65118 -0.716654 0
M  V30 5664 H 509.467 0.53646 -0.526986 0
M  V30 5665 H 511.438 1.44187 -2.61252 0
M  V30 5666 C 510.187 2.99912 -1.75921 0
M  V30 5667 H 509.51 3.01496 -2.62565 0
M  V30 5668 H 510.95 3.77931 -1.92209 0
M  V30 5669 C 509.409 3.33092 -0.505088 0
M  V30 5670 O 509.939 4.00019 0.367085 0
M  V30 5671 N 508.145 2.88278 -0.366599 0
M  V30 5672 H 507.692 2.33989 -1.07735 0
M  V30 5673 H 507.65 3.10846 0.47142 0
M  V30 5674 N 511.423 1.38739 0.74761 0
M  V30 5675 C 512.353 1.39173 1.87492 0
M  V30 5676 C 513.334 0.256794 1.6815 0
M  V30 5677 O 514.519 0.460762 1.88655 0
M  V30 5678 C 511.649 1.22197 3.25093 0
M  V30 5679 C 510.603 2.32957 3.59047 0
M  V30 5680 C 509.929 2.01082 4.95449 0
M  V30 5681 C 511.229 3.75237 3.6331 0
M  V30 5682 H 512.923 2.3351 1.87386 0
M  V30 5683 H 510.469 1.12399 0.900134 0
M  V30 5684 H 512.422 1.21124 4.03617 0
M  V30 5685 H 511.146 0.243241 3.25693 0
M  V30 5686 H 509.805 2.33226 2.82845 0
M  V30 5687 H 509.453 1.01678 4.92616 0
M  V30 5688 H 509.153 2.75267 5.19136 0
M  V30 5689 H 510.677 2.01638 5.76346 0
M  V30 5690 H 512.091 3.76966 4.31937 0
M  V30 5691 H 510.488 4.48677 3.98509 0
M  V30 5692 H 511.558 4.07122 2.634 0
M  V30 5693 N 512.901 -0.976442 1.23707 0
M  V30 5694 C 514.129 -1.75341 1.09833 0
M  V30 5695 C 514.544 -1.8553 -0.349885 0
M  V30 5696 O 513.901 -1.33732 -1.24185 0
M  V30 5697 C 513.952 -3.17833 1.72233 0
M  V30 5698 O 513.673 -3.08167 3.11391 0
M  V30 5699 C 515.174 -4.11906 1.63853 0
M  V30 5700 H 512.394 -0.550137 0.384175 0
M  V30 5701 H 514.938 -1.2265 1.63638 0
M  V30 5702 H 513.093 -3.67538 1.22452 0
M  V30 5703 H 513.507 -3.97897 3.41729 0
M  V30 5704 H 514.981 -5.09579 2.12211 0
M  V30 5705 H 515.458 -4.35109 0.598092 0
M  V30 5706 H 516.064 -3.68107 2.13019 0
M  V30 5707 N 514.379 -1.04941 -1.1758 0
M  V30 5708 C 515.604 -0.778253 -1.92245 0
M  V30 5709 C 516.029 0.659707 -1.76152 0
M  V30 5710 O 515.387 1.45803 -1.07755 0
M  V30 5711 C 515.435 -1.16051 -3.41416 0
M  V30 5712 O 514.539 -0.291153 -4.11371 0
M  V30 5713 H 513.88 -0.285619 -0.599431 0
M  V30 5714 H 516.41 -1.40159 -1.49052 0
M  V30 5715 H 516.42 -1.12619 -3.92149 0
M  V30 5716 H 515.095 -2.208 -3.52449 0
M  V30 5717 H 513.672 -0.385851 -3.70898 0
M  V30 5718 N 515.857 1.33968 -0.830081 0
M  V30 5719 C 516.82 2.27694 -0.26235 0
M  V30 5720 C 517.82 1.50589 0.563876 0
M  V30 5721 O 519.01 1.70028 0.378941 0
M  V30 5722 C 516.142 3.35002 0.63138 0
M  V30 5723 H 517.335 2.79419 -1.08928 0
M  V30 5724 H 514.888 1.44221 -0.602486 0
M  V30 5725 H 515.623 2.88504 1.48109 0
M  V30 5726 H 515.408 3.92079 0.0403276 0
M  V30 5727 H 516.898 4.04897 1.02217 0
M  V30 5728 N 517.335 0.585699 1.46312 0
M  V30 5729 C 518.265 -0.133556 2.33118 0
M  V30 5730 C 519.246 -0.880707 1.45525 0
M  V30 5731 O 520.431 -0.855579 1.74337 0
M  V30 5732 C 517.561 -1.14585 3.27853 0
M  V30 5733 C 516.515 -0.513341 4.2491 0
M  V30 5734 C 515.841 -1.63231 5.09175 0
M  V30 5735 C 517.141 0.551413 5.19381 0
M  V30 5736 H 518.835 0.59121 2.93505 0
M  V30 5737 H 516.381 0.285761 1.41136 0
M  V30 5738 H 518.334 -1.65741 3.87438 0
M  V30 5739 H 517.058 -1.90093 2.65579 0
M  V30 5740 H 515.717 -0.0228349 3.66593 0
M  V30 5741 H 515.365 -2.37713 4.43285 0
M  V30 5742 H 515.065 -1.21473 5.74907 0
M  V30 5743 H 516.589 -2.14658 5.71624 0
M  V30 5744 H 518.003 0.124804 5.73164 0
M  V30 5745 H 516.4 0.889486 5.93471 0
M  V30 5746 H 517.47 1.43655 4.63132 0
M  V30 5747 N 518.813 -1.54241 0.323641 0
M  V30 5748 C 519.761 -2.25813 -0.557804 0
M  V30 5749 C 520.755 -1.27225 -1.11849 0
M  V30 5750 O 521.961 -1.45001 -1.06652 0
M  V30 5751 H 518.336 -0.72532 -0.198532 0
M  V30 5752 H 520.307 -2.98322 0.0681112 0
M  V30 5753 C 519.056 -3.02913 -1.70701 0
M  V30 5754 H 518.379 -3.78593 -1.28482 0
M  V30 5755 H 519.819 -3.56238 -2.29935 0
M  V30 5756 C 518.278 -2.11217 -2.62467 0
M  V30 5757 O 518.808 -1.69508 -3.64184 0
M  V30 5758 N 517.014 -1.76704 -2.30703 0
M  V30 5759 H 516.561 -2.1082 -1.48029 0
M  V30 5760 H 516.519 -1.15631 -2.92364 0
M  V30 5761 N 520.291 -0.0518155 -1.57515 0
M  V30 5762 C 521.238 0.922352 -2.11569 0
M  V30 5763 C 522.208 1.30842 -1.02321 0
M  V30 5764 O 523.393 1.39778 -1.29872 0
M  V30 5765 C 520.533 2.19167 -2.6657 0
M  V30 5766 C 519.646 1.86003 -3.89906 0
M  V30 5767 C 518.781 3.07398 -4.33221 0
M  V30 5768 C 517.82 2.70158 -5.49255 0
M  V30 5769 N 516.957 3.84248 -5.8762 0
M  V30 5770 H 521.797 0.454506 -2.94514 0
M  V30 5771 H 519.334 0.212718 -1.45554 0
M  V30 5772 H 521.292 2.93443 -2.96559 0
M  V30 5773 H 519.922 2.63528 -1.86421 0
M  V30 5774 H 518.974 1.01874 -3.66505 0
M  V30 5775 H 520.286 1.54592 -4.74239 0
M  V30 5776 H 519.44 3.89972 -4.64765 0
M  V30 5777 H 518.179 3.41988 -3.477 0
M  V30 5778 H 517.184 1.86001 -5.17382 0
M  V30 5779 H 518.409 2.36759 -6.36492 0
M  V30 5780 H 516.355 4.18638 -5.05053 0
M  V30 5781 H 516.272 3.56538 -6.66646 0
M  V30 5782 H 517.54 4.6746 -6.2378 0
M  V30 5783 N 521.769 1.56035 0.221574 0
M  V30 5784 C 523.015 1.79312 0.947372 0
M  V30 5785 C 523.348 0.621453 1.83988 0
M  V30 5786 O 522.623 -0.379287 1.90766 0
M  V30 5787 C 522.906 3.1267 1.78633 0
M  V30 5788 C 522.759 4.40284 0.920312 0
M  V30 5789 C 524.078 3.4247 2.7641 0
M  V30 5790 H 521.197 0.652328 0.342982 0
M  V30 5791 H 523.839 1.88765 0.216244 0
M  V30 5792 H 521.989 3.04741 2.40967 0
M  V30 5793 H 523.661 4.60232 0.313718 0
M  V30 5794 H 521.904 4.33212 0.225734 0
M  V30 5795 H 522.575 5.30033 1.54171 0
M  V30 5796 H 525.051 3.50526 2.24211 0
M  V30 5797 H 523.927 4.3695 3.32213 0
M  V30 5798 H 524.188 2.64635 3.54148 0
M  V30 5799 N 523.247 -0.488276 1.49845 0
M  V30 5800 C 524.477 -1.26344 1.63465 0
M  V30 5801 C 524.885 -1.86637 0.310379 0
M  V30 5802 O 524.228 -1.69184 -0.715712 0
M  V30 5803 C 524.29 -2.42407 2.65479 0
M  V30 5804 C 523.954 -2.02886 4.09495 0
M  V30 5805 C 524.951 -1.56124 4.95904 0
M  V30 5806 C 522.636 -2.12131 4.55308 0
M  V30 5807 C 524.63 -1.19129 6.26169 0
M  V30 5808 C 522.317 -1.74747 5.85582 0
M  V30 5809 C 523.315 -1.28322 6.70837 0
M  V30 5810 O 523.003 -0.914491 7.98682 0
M  V30 5811 H 522.735 -0.388921 0.552916 0
M  V30 5812 H 525.289 -0.591288 1.96705 0
M  V30 5813 H 523.519 -3.12739 2.27445 0
M  V30 5814 H 525.208 -3.04409 2.68495 0
M  V30 5815 H 525.974 -1.48417 4.61733 0
M  V30 5816 H 521.853 -2.47217 3.89107 0
M  V30 5817 H 525.397 -0.828211 6.92666 0
M  V30 5818 H 521.294 -1.82109 6.19279 0
M  V30 5819 H 522.062 -1.04485 8.11804 0
M  V30 5820 N 524.725 -1.39134 -0.740242 0
M  V30 5821 C 525.657 -1.33332 -1.86428 0
M  V30 5822 C 526.67 -0.243042 -1.60976 0
M  V30 5823 O 527.859 -0.501608 -1.71307 0
M  V30 5824 C 524.959 -1.04626 -3.22346 0
M  V30 5825 C 524.132 -2.24826 -3.75196 0
M  V30 5826 C 523.191 -1.92659 -4.89662 0
M  V30 5827 O 522.217 -2.6529 -5.03597 0
M  V30 5828 N 523.419 -0.889575 -5.73643 0
M  V30 5829 H 526.184 -2.30196 -1.91911 0
M  V30 5830 H 523.745 -1.33168 -0.920756 0
M  V30 5831 H 525.737 -0.811347 -3.96484 0
M  V30 5832 H 524.307 -0.165129 -3.12164 0
M  V30 5833 H 523.527 -2.64301 -2.9247 0
M  V30 5834 H 524.815 -3.05015 -4.07239 0
M  V30 5835 H 524.213 -0.287529 -5.64969 0
M  V30 5836 H 522.77 -0.714557 -6.47871 0
M  V30 5837 N 526.204 0.969867 -1.24223 0
M  V30 5838 C 527.62 1.23809 -1.00716 0
M  V30 5839 C 527.82 1.99469 0.285358 0
M  V30 5840 O 526.876 2.31764 1.00207 0
M  V30 5841 C 528.189 2.02734 -2.2208 0
M  V30 5842 C 529.737 2.15834 -2.26681 0
M  V30 5843 C 530.212 2.98154 -3.47661 0
M  V30 5844 N 531.703 3.05737 -3.47964 0
M  V30 5845 C 532.438 3.69785 -4.38231 0
M  V30 5846 N 531.934 4.35569 -5.3875 0
M  V30 5847 N 533.727 3.66775 -4.25949 0
M  V30 5848 H 525.878 0.463294 -2.07286 0
M  V30 5849 H 528.141 0.267348 -0.909521 0
M  V30 5850 H 527.847 1.54524 -3.15935 0
M  V30 5851 H 527.721 3.0347 -2.24021 0
M  V30 5852 H 530.108 2.63248 -1.33359 0
M  V30 5853 H 530.189 1.14453 -2.28767 0
M  V30 5854 H 529.833 2.51435 -4.41297 0
M  V30 5855 H 529.763 3.99729 -3.42818 0
M  V30 5856 H 532.254 2.58941 -2.75242 0
M  V30 5857 H 532.567 4.82251 -6.03866 0
M  V30 5858 H 530.912 4.34244 -5.42639 0
M  V30 5859 H 534.103 3.14558 -3.46657 0
M  V30 5860 H 534.276 4.16407 -4.96497 0
M  V30 5861 N 527.682 1.05563 1.17022 0
M  V30 5862 C 528.629 0.659893 2.21165 0
M  V30 5863 C 529.599 -0.339813 1.62587 0
M  V30 5864 O 530.784 -0.230378 1.89404 0
M  V30 5865 C 527.924 0.0447297 3.45071 0
M  V30 5866 C 527.037 1.09372 4.17926 0
M  V30 5867 C 526.172 0.445481 5.29329 0
M  V30 5868 C 525.211 1.47852 5.93975 0
M  V30 5869 N 524.348 0.854172 6.96885 0
M  V30 5870 H 529.188 1.55243 2.54369 0
M  V30 5871 H 526.725 0.776336 1.24946 0
M  V30 5872 H 528.683 -0.329404 4.15898 0
M  V30 5873 H 527.313 -0.811244 3.1244 0
M  V30 5874 H 526.365 1.58564 3.45777 0
M  V30 5875 H 527.677 1.87773 4.62107 0
M  V30 5876 H 526.831 0.0179688 6.06697 0
M  V30 5877 H 525.57 -0.370481 4.86291 0
M  V30 5878 H 524.575 1.91601 5.15334 0
M  V30 5879 H 525.8 2.29645 6.39093 0
M  V30 5880 H 523.746 0.0587882 6.55974 0
M  V30 5881 H 523.663 1.57567 7.39397 0
M  V30 5882 H 524.931 0.451559 7.78191 0
M  V30 5883 N 529.16 -1.33526 0.837174 0
M  V30 5884 C 530.408 -1.97446 0.431211 0
M  V30 5885 C 530.729 -1.6665 -1.01255 0
M  V30 5886 O 529.999 -0.964559 -1.70508 0
M  V30 5887 H 528.579 -0.73043 0.156463 0
M  V30 5888 H 531.241 -1.62918 1.06976 0
M  V30 5889 H 530.337 -3.07001 0.561877 0
M  V30 5890 N 530.638 -0.59345 -1.46 0
M  V30 5891 C 531.884 -0.0832754 -2.02629 0
M  V30 5892 C 532.217 1.27749 -1.46266 0
M  V30 5893 O 531.492 1.8395 -0.631866 0
M  V30 5894 C 531.775 -0.0290756 -3.60088 0
M  V30 5895 C 531.628 -1.41951 -4.26814 0
M  V30 5896 C 532.947 0.666055 -4.35031 0
M  V30 5897 H 530.066 -0.031736 -0.736316 0
M  V30 5898 H 532.708 -0.762711 -1.74019 0
M  V30 5899 H 530.858 0.549532 -3.84594 0
M  V30 5900 H 532.53 -2.04411 -4.13538 0
M  V30 5901 H 530.773 -1.98422 -3.8576 0
M  V30 5902 H 531.444 -1.33395 -5.3564 0
M  V30 5903 H 533.92 0.174401 -4.15734 0
M  V30 5904 H 532.796 0.673041 -5.44758 0
M  V30 5905 H 533.057 1.72946 -4.06869 0
M  V30 5906 N 532.116 1.54067 -0.331816 0
M  V30 5907 C 533.064 2.26105 0.54582 0
M  V30 5908 C 534.058 1.27816 1.11173 0
M  V30 5909 O 535.264 1.45565 1.05882 0
M  V30 5910 H 531.639 0.726363 0.194683 0
M  V30 5911 H 533.61 2.98282 -0.083931 0
M  V30 5912 C 532.359 3.03814 1.69092 0
M  V30 5913 H 531.682 3.79269 1.26473 0
M  V30 5914 H 533.122 3.57453 2.28043 0
M  V30 5915 C 531.581 2.12606 2.61343 0
M  V30 5916 O 532.111 1.71437 3.6328 0
M  V30 5917 N 530.317 1.77925 2.29763 0
M  V30 5918 H 529.864 2.11602 1.46909 0
M  V30 5919 H 529.822 1.1718 2.91747 0
M  V30 5920 N 533.594 0.0601682 1.57485 0
M  V30 5921 C 534.843 -0.611101 1.9222 0
M  V30 5922 C 535.156 -1.71469 0.941159 0
M  V30 5923 O 536.362 -2.44473 1.18089 0
M  V30 5924 C 534.818 -1.13832 3.41424 0
M  V30 5925 C 534.426 -0.0663596 4.47951 0
M  V30 5926 C 536.17 -1.78432 3.85178 0
M  V30 5927 C 534.077 -0.606965 5.88277 0
M  V30 5928 H 533.007 -0.232033 0.71741 0
M  V30 5929 H 535.658 0.130518 1.83035 0
M  V30 5930 H 534.04 -1.93254 3.45643 0
M  V30 5931 H 535.214 0.707682 4.55333 0
M  V30 5932 H 533.529 0.482715 4.13593 0
M  V30 5933 H 536.126 -2.1989 4.87394 0
M  V30 5934 H 536.469 -2.63966 3.21913 0
M  V30 5935 H 537.002 -1.05651 3.83514 0
M  V30 5936 H 533.741 0.21095 6.5516 0
M  V30 5937 H 533.261 -1.34879 5.84438 0
M  V30 5938 H 534.94 -1.08704 6.37803 0
M  V30 5939 N 535.072 -1.5615 -0.213296 0
M  V30 5940 C 536.297 -1.83986 -0.957282 0
M  V30 5941 C 536.722 -0.641526 -1.76822 0
M  V30 5942 O 536.08 0.409722 -1.7661 0
M  V30 5943 C 536.128 -3.09889 -1.84393 0
M  V30 5944 O 535.232 -2.89163 -2.94038 0
M  V30 5945 H 534.573 -0.606357 -0.270605 0
M  V30 5946 H 537.103 -2.03369 -0.224111 0
M  V30 5947 H 537.113 -3.40209 -2.25215 0
M  V30 5948 H 535.788 -3.96735 -1.24795 0
M  V30 5949 H 534.365 -2.70097 -2.57103 0
M  V30 5950 N 536.55 0.480323 -1.50102 0
M  V30 5951 C 537.48 1.58769 -1.71215 0
M  V30 5952 C 538.461 1.60583 -0.560997 0
M  V30 5953 O 539.646 1.76996 -0.799127 0
M  V30 5954 C 536.776 2.97148 -1.79778 0
M  V30 5955 C 535.73 3.10201 -2.94888 0
M  V30 5956 C 535.056 4.50137 -2.88584 0
M  V30 5957 C 536.356 2.88283 -4.35534 0
M  V30 5958 H 538.05 1.41354 -2.6393 0
M  V30 5959 H 535.596 0.678591 -1.27008 0
M  V30 5960 H 537.549 3.74536 -1.93133 0
M  V30 5961 H 536.273 3.15699 -0.836772 0
M  V30 5962 H 534.932 2.35244 -2.81169 0
M  V30 5963 H 534.58 4.65593 -1.90349 0
M  V30 5964 H 534.28 4.59808 -3.65856 0
M  V30 5965 H 535.804 5.29558 -3.03976 0
M  V30 5966 H 537.218 3.55427 -4.49827 0
M  V30 5967 H 535.615 3.09408 -5.14186 0
M  V30 5968 H 536.685 1.84219 -4.48544 0
M  V30 5969 N 538.028 1.39524 0.732853 0
M  V30 5970 C 539.305 1.27373 1.48444 0
M  V30 5971 C 539.685 -0.115725 2.10783 0
M  V30 5972 O 539.033 -1.12713 1.98766 0
M  V30 5973 C 539.243 2.39966 2.53412 0
M  V30 5974 C 540.591 2.79384 3.19733 0
M  V30 5975 O 541.615 2.39431 2.63725 0
M  V30 5976 O 540.474 3.48353 4.21085 0
M  V30 5977 H 537.568 0.499272 0.659285 0
M  V30 5978 H 540.114 1.51403 0.766496 0
M  V30 5979 H 538.886 3.32845 2.05742 0
M  V30 5980 H 538.509 2.17612 3.32762 0
M  V30 5981 N 539.506 -0.963266 1.24736 0
M  V30 5982 C 540.755 -1.70115 1.08369 0
M  V30 5983 C 541.068 -1.91939 -0.376688 0
M  V30 5984 O 542.274 -2.6334 -0.660624 0
M  V30 5985 C 540.73 -3.06218 1.89099 0
M  V30 5986 C 540.338 -2.92221 3.39574 0
M  V30 5987 C 542.082 -3.83848 1.81275 0
M  V30 5988 C 539.989 -4.23662 4.12631 0
M  V30 5989 H 538.919 -0.637944 0.401924 0
M  V30 5990 H 541.57 -1.07304 1.48856 0
M  V30 5991 H 539.952 -3.69884 1.41429 0
M  V30 5992 H 541.126 -2.37541 3.94856 0
M  V30 5993 H 539.441 -2.28054 3.48397 0
M  V30 5994 H 542.038 -4.81188 2.33158 0
M  V30 5995 H 542.381 -4.08949 0.778895 0
M  V30 5996 H 542.914 -3.26918 2.26649 0
M  V30 5997 H 539.653 -4.03753 5.16395 0
M  V30 5998 H 539.173 -4.78141 3.62135 0
M  V30 5999 H 540.852 -4.92256 4.19873 0
M  V30 6000 N 540.985 -1.06182 -1.16461 0
M  V30 6001 C 542.21 -0.798599 -1.91408 0
M  V30 6002 C 542.635 0.640987 -1.76842 0
M  V30 6003 O 541.993 1.44652 -1.09296 0
M  V30 6004 C 542.041 -1.19665 -3.40165 0
M  V30 6005 O 541.145 -0.334768 -4.11039 0
M  V30 6006 H 540.486 -0.291961 -0.596368 0
M  V30 6007 H 543.016 -1.41732 -1.47557 0
M  V30 6008 H 543.026 -1.16772 -3.90933 0
M  V30 6009 H 541.701 -2.24526 -3.50087 0
M  V30 6010 H 540.278 -0.425168 -3.70468 0
M  V30 6011 N 542.463 1.3308 -0.844243 0
M  V30 6012 C 543.874 1.7992 -0.498566 0
M  V30 6013 C 544.225 1.69808 0.982834 0
M  V30 6014 O 543.35 1.25051 1.7661 0
M  V30 6015 C 543.945 3.26677 -0.898204 0
M  V30 6016 C 542.504 3.71513 -0.604583 0
M  V30 6017 C 541.651 2.54393 -1.10362 0
M  V30 6018 H 544.602 1.20526 -1.03244 0
M  V30 6019 H 544.623 3.79918 -0.21039 0
M  V30 6020 H 544.135 3.34004 -1.97643 0
M  V30 6021 H 542.236 3.69708 0.46335 0
M  V30 6022 H 542.349 4.64755 -1.16358 0
M  V30 6023 H 540.713 2.49246 -0.524273 0
M  V30 6024 H 541.496 2.6448 -2.18873 0
M  V30 6025 N 543.941 0.601185 1.45683 0
M  V30 6026 C 544.851 -0.123395 2.34275 0
M  V30 6027 C 545.867 -0.86702 1.5086 0
M  V30 6028 O 547.043 -0.826049 1.8368 0
M  V30 6029 C 544.108 -1.11237 3.2837 0
M  V30 6030 C 543.169 -0.371405 4.2769 0
M  V30 6031 C 542.402 -1.31327 5.1729 0
M  V30 6032 O 542.625 -2.55078 5.10188 0
M  V30 6033 O 541.559 -0.813811 5.96373 0
M  V30 6034 H 545.385 0.604483 2.97623 0
M  V30 6035 H 542.97 0.361477 1.44961 0
M  V30 6036 H 544.852 -1.68214 3.8637 0
M  V30 6037 H 543.527 -1.82139 2.67595 0
M  V30 6038 H 542.434 0.24067 3.73325 0
M  V30 6039 H 543.767 0.296998 4.91303 0
M  V30 6040 N 545.419 -1.53889 0.339982 0
M  V30 6041 C 546.668 -2.00035 -0.258604 0
M  V30 6042 C 546.981 -1.23179 -1.51942 0
M  V30 6043 O 548.187 -1.59784 -2.19503 0
M  V30 6044 C 546.643 -3.56249 -0.511359 0
M  V30 6045 C 546.251 -4.41957 0.733349 0
M  V30 6046 C 547.995 -4.1082 -1.069 0
M  V30 6047 C 545.902 -5.89673 0.451591 0
M  V30 6048 H 544.832 -0.747284 -0.10041 0
M  V30 6049 H 547.483 -1.77776 0.454758 0
M  V30 6050 H 545.865 -3.7456 -1.28533 0
M  V30 6051 H 547.039 -4.35421 1.50815 0
M  V30 6052 H 545.354 -3.9836 1.21237 0
M  V30 6053 H 547.951 -5.18789 -1.2947 0
M  V30 6054 H 548.294 -3.63817 -2.02343 0
M  V30 6055 H 548.827 -3.96205 -0.355817 0
M  V30 6056 H 545.566 -6.40903 1.37565 0
M  V30 6057 H 545.086 -5.99122 -0.285193 0
M  V30 6058 H 546.765 -6.46965 0.0675067 0
M  V30 6059 N 546.897 -0.0685191 -1.57451 0
M  V30 6060 C 548.122 0.613919 -1.98106 0
M  V30 6061 C 548.547 1.62551 -0.946501 0
M  V30 6062 O 547.905 1.81085 0.0882824 0
M  V30 6063 C 547.953 1.26189 -3.378 0
M  V30 6064 O 547.057 2.37773 -3.36954 0
M  V30 6065 H 546.398 0.158163 -0.644888 0
M  V30 6066 H 548.928 -0.142063 -2.04106 0
M  V30 6067 H 548.938 1.60951 -3.74912 0
M  V30 6068 H 547.613 0.520625 -4.12629 0
M  V30 6069 H 546.19 2.04829 -3.11608 0
M  V30 6070 N 548.375 1.56261 0.205012 0
M  V30 6071 C 549.622 1.8004 0.926927 0
M  V30 6072 C 549.95 0.640086 1.83666 0
M  V30 6073 O 549.205 -0.374702 1.92079 0
M  V30 6074 C 549.504 3.09722 1.78345 0
M  V30 6075 C 549.17 4.39082 1.02555 0
M  V30 6076 C 547.832 4.74226 0.816256 0
M  V30 6077 C 550.184 5.18877 0.491559 0
M  V30 6078 C 547.512 5.86668 0.0613287 0
M  V30 6079 C 549.864 6.32105 -0.250107 0
M  V30 6080 C 548.528 6.6584 -0.470508 0
M  V30 6081 H 547.798 0.658812 0.339187 0
M  V30 6082 H 550.445 1.90515 0.19395 0
M  V30 6083 H 548.75 2.9444 2.5848 0
M  V30 6084 H 550.447 3.25324 2.34446 0
M  V30 6085 H 547.037 4.11497 1.19868 0
M  V30 6086 H 551.221 4.92147 0.640684 0
M  V30 6087 H 546.477 6.11283 -0.119501 0
M  V30 6088 H 550.651 6.93157 -0.671307 0
M  V30 6089 H 548.278 7.5281 -1.05739 0
M  V30 6090 N 549.853 -0.472356 1.50355 0
M  V30 6091 C 551.099 -1.22634 1.6152 0
M  V30 6092 C 551.432 -1.91645 0.313995 0
M  V30 6093 O 550.707 -1.82059 -0.684446 0
M  V30 6094 C 550.99 -2.27099 2.7946 0
M  V30 6095 C 550.843 -1.62402 4.19459 0
M  V30 6096 C 552.162 -3.28421 2.92964 0
M  V30 6097 H 549.281 -0.444494 0.587873 0
M  V30 6098 H 551.923 -0.520321 1.82737 0
M  V30 6099 H 550.073 -2.87314 2.61501 0
M  V30 6100 H 551.745 -1.05793 4.49005 0
M  V30 6101 H 549.988 -0.927184 4.23776 0
M  V30 6102 H 550.659 -2.38309 4.97909 0
M  V30 6103 H 553.135 -2.78227 3.09401 0
M  V30 6104 H 552.011 -3.98845 3.77113 0
M  V30 6105 H 552.272 -3.92467 2.03525 0
M  V30 6106 N 551.331 -1.39911 -0.725443 0
M  V30 6107 C 552.579 -1.37382 -1.48224 0
M  V30 6108 C 552.9 0.0264107 -1.94982 0
M  V30 6109 O 552.17 0.979408 -1.6966 0
M  V30 6110 H 550.75 -0.505596 -0.549892 0
M  V30 6111 H 553.412 -1.7487 -0.860608 0
M  V30 6112 H 552.508 -2.04254 -2.3598 0
M  V30 6113 N 552.809 0.956637 -1.25245 0
M  V30 6114 C 553.719 2.0868 -1.0719 0
M  V30 6115 C 554.735 1.73997 -0.00959074 0
M  V30 6116 O 555.911 2.00301 -0.210104 0
M  V30 6117 C 552.976 3.39754 -0.690526 0
M  V30 6118 C 552.037 3.88316 -1.83055 0
M  V30 6119 C 551.27 5.13134 -1.46728 0
M  V30 6120 O 551.493 5.6925 -0.362029 0
M  V30 6121 O 550.427 5.56356 -2.29677 0
M  V30 6122 H 554.253 2.26813 -2.01965 0
M  V30 6123 H 551.838 1.07098 -1.04165 0
M  V30 6124 H 553.72 4.18543 -0.489871 0
M  V30 6125 H 552.395 3.22896 0.227981 0
M  V30 6126 H 551.302 3.1054 -2.08604 0
M  V30 6127 H 552.635 4.09669 -2.72822 0
M  V30 6128 N 554.287 1.06798 1.15896 0
M  V30 6129 C 555.219 0.641263 2.20046 0
M  V30 6130 C 556.232 -0.303355 1.59949 0
M  V30 6131 O 557.421 -0.0935478 1.78255 0
M  V30 6132 C 554.521 -0.0794029 3.38807 0
M  V30 6133 C 553.694 0.879986 4.28457 0
M  V30 6134 C 552.753 0.197638 5.25829 0
M  V30 6135 O 551.779 0.836913 5.63014 0
M  V30 6136 N 552.981 -1.05886 5.70761 0
M  V30 6137 H 555.746 1.53718 2.57276 0
M  V30 6138 H 553.307 0.951951 1.30956 0
M  V30 6139 H 555.299 -0.546418 4.00994 0
M  V30 6140 H 553.869 -0.877193 3.0004 0
M  V30 6141 H 553.089 1.52625 3.63454 0
M  V30 6142 H 554.377 1.53065 4.8523 0
M  V30 6143 H 553.775 -1.59828 5.42652 0
M  V30 6144 H 552.332 -1.46965 6.35015 0
M  V30 6145 N 555.766 -1.3263 0.851289 0
M  V30 6146 C 556.714 -2.30882 0.282202 0
M  V30 6147 C 557.708 -1.58697 -0.592589 0
M  V30 6148 O 558.914 -1.73461 -0.480768 0
M  V30 6149 H 555.289 -0.748492 0.0725487 0
M  V30 6150 H 557.26 -2.76374 1.12516 0
M  V30 6151 C 556.009 -3.43828 -0.517449 0
M  V30 6152 H 555.332 -3.99532 0.146392 0
M  V30 6153 H 556.772 -4.1474 -0.88128 0
M  V30 6154 C 555.231 -2.90786 -1.70133 0
M  V30 6155 O 555.761 -2.88 -2.80034 0
M  V30 6156 N 553.967 -2.4723 -1.52728 0
M  V30 6157 H 553.514 -2.49695 -0.633257 0
M  V30 6158 H 553.472 -2.12094 -2.32085 0
M  V30 6159 N 557.244 -0.608902 -1.45362 0
M  V30 6160 C 558.521 -0.0365378 -1.95566 0
M  V30 6161 C 558.901 1.43169 -1.55131 0
M  V30 6162 O 558.249 2.1349 -0.814513 0
M  V30 6163 C 558.459 -0.236026 -3.48201 0
M  V30 6164 C 559.807 -0.117518 -4.24437 0
M  V30 6165 O 560.831 -0.166217 -3.55812 0
M  V30 6166 O 559.69 -0.00372127 -5.465 0
M  V30 6167 H 556.784 0.0349874 -0.82626 0
M  V30 6168 H 559.33 -0.679055 -1.55521 0
M  V30 6169 H 558.102 -1.25569 -3.70605 0
M  V30 6170 H 557.725 0.441691 -3.95139 0
M  V30 6171 N 558.722 1.53707 -0.348139 0
M  V30 6172 C 559.969 2.00988 0.246966 0
M  V30 6173 C 560.297 1.23586 1.50189 0
M  V30 6174 O 559.552 0.312817 1.93184 0
M  V30 6175 C 559.851 3.52292 0.602061 0
M  V30 6176 C 559.517 4.47453 -0.556509 0
M  V30 6177 C 558.179 4.73188 -0.874446 0
M  V30 6178 C 560.531 5.03851 -1.33354 0
M  V30 6179 C 557.859 5.52577 -1.9717 0
M  V30 6180 C 560.211 5.84437 -2.42108 0
M  V30 6181 C 558.875 6.08465 -2.74456 0
M  V30 6182 H 558.145 0.735469 0.0903712 0
M  V30 6183 H 560.792 1.85464 -0.477001 0
M  V30 6184 H 559.097 3.65672 1.40681 0
M  V30 6185 H 560.794 3.86337 1.07447 0
M  V30 6186 H 557.384 4.27558 -0.298652 0
M  V30 6187 H 561.568 4.8393 -1.10117 0
M  V30 6188 H 556.824 5.69418 -2.22651 0
M  V30 6189 H 560.998 6.27151 -3.02745 0
M  V30 6190 H 558.625 6.69768 -3.59604 0
M  V30 6191 N 560.2 0.0768682 1.57412 0
M  V30 6192 C 561.446 -0.591961 1.93968 0
M  V30 6193 C 561.779 -1.68954 0.9575 0
M  V30 6194 O 561.054 -1.94496 -0.0124675 0
M  V30 6195 C 561.337 -1.16418 3.40762 0
M  V30 6196 C 561.19 -0.0728933 4.49741 0
M  V30 6197 C 562.509 -2.06814 3.88479 0
M  V30 6198 H 559.628 -0.213716 0.705333 0
M  V30 6199 H 562.27 0.14387 1.89455 0
M  V30 6200 H 560.42 -1.79128 3.4474 0
M  V30 6201 H 562.092 0.560446 4.57883 0
M  V30 6202 H 560.335 0.595859 4.29688 0
M  V30 6203 H 561.006 -0.513755 5.49604 0
M  V30 6204 H 563.482 -1.54033 3.8654 0
M  V30 6205 H 562.358 -2.43785 4.91793 0
M  V30 6206 H 562.619 -2.97844 3.26713 0
M  V30 6207 N 561.678 -1.56367 -0.196722 0
M  V30 6208 C 562.588 -1.97617 -1.2643 0
M  V30 6209 C 563.604 -0.883598 -1.49895 0
M  V30 6210 O 564.78 -1.18921 -1.62541 0
M  V30 6211 C 561.845 -2.30595 -2.58895 0
M  V30 6212 C 560.906 -3.53551 -2.43516 0
M  V30 6213 C 560.139 -3.84946 -3.69665 0
M  V30 6214 O 560.362 -3.17655 -4.73763 0
M  V30 6215 O 559.296 -4.78379 -3.65291 0
M  V30 6216 H 563.122 -2.88648 -0.944233 0
M  V30 6217 H 560.707 -1.43901 -0.401592 0
M  V30 6218 H 562.589 -2.52889 -3.37083 0
M  V30 6219 H 561.264 -1.42732 -2.90533 0
M  V30 6220 H 560.171 -3.36507 -1.63445 0
M  V30 6221 H 561.504 -4.41875 -2.16812 0
M  V30 6222 N 563.156 0.464375 -1.50603 0
M  V30 6223 C 564.402 1.21776 -1.62168 0
M  V30 6224 C 564.735 1.91476 -0.324154 0
M  V30 6225 O 564.01 1.8242 0.674782 0
M  V30 6226 C 564.293 2.25614 -2.80661 0
M  V30 6227 C 564.146 1.60175 -4.20314 0
M  V30 6228 C 565.465 3.26862 -2.94702 0
M  V30 6229 H 562.584 0.44137 -0.590222 0
M  V30 6230 H 565.226 0.510623 -1.8301 0
M  V30 6231 H 563.376 2.85923 -2.63021 0
M  V30 6232 H 565.048 1.03411 -4.4956 0
M  V30 6233 H 563.291 0.904697 -4.24261 0
M  V30 6234 H 563.962 2.35665 -4.99165 0
M  V30 6235 H 566.438 2.76582 -3.10872 0
M  V30 6236 H 565.314 3.96839 -3.79223 0
M  V30 6237 H 565.575 3.91382 -2.05603 0
M  V30 6238 N 564.634 1.40294 0.718013 0
M  V30 6239 C 565.567 1.34767 1.84155 0
M  V30 6240 C 566.545 0.218455 1.61126 0
M  V30 6241 O 567.729 0.401716 1.8417 0
M  V30 6242 C 564.856 1.09676 3.20451 0
M  V30 6243 C 563.902 2.25016 3.62312 0
M  V30 6244 S 564.735 3.87397 3.69707 0
M  V30 6245 C 565.891 3.64565 5.08766 0
M  V30 6246 H 566.124 2.29851 1.88562 0
M  V30 6247 H 563.657 1.2655 0.884555 0
M  V30 6248 H 565.615 0.95885 3.99144 0
M  V30 6249 H 564.276 0.162502 3.13679 0
M  V30 6250 H 563.469 2.03097 4.61268 0
M  V30 6251 H 563.071 2.35098 2.90869 0
M  V30 6252 H 565.363 3.22882 5.95612 0
M  V30 6253 H 566.306 4.63043 5.35721 0
M  V30 6254 H 566.714 2.98303 4.79245 0
M  V30 6255 N 566.112 -0.949982 1.2575 0
M  V30 6256 C 567.36 -1.6918 1.10555 0
M  V30 6257 C 567.681 -1.91773 -0.353298 0
M  V30 6258 O 566.951 -1.50814 -1.25027 0
M  V30 6259 H 565.531 -0.626952 0.406129 0
M  V30 6260 H 568.193 -1.1419 1.57945 0
M  V30 6261 H 567.289 -2.66915 1.61749 0
M  V30 6262 N 567.59 -1.07411 -1.15328 0
M  V30 6263 C 568.538 -0.689316 -2.22151 0
M  V30 6264 C 569.532 0.300156 -1.6672 0
M  V30 6265 O 570.738 0.163804 -1.79253 0
M  V30 6266 H 567.113 -0.204834 -0.723566 0
M  V30 6267 H 569.084 -1.59988 -2.51886 0
M  V30 6268 C 567.833 -0.103848 -3.47545 0
M  V30 6269 H 567.156 -0.856367 -3.90521 0
M  V30 6270 H 568.596 0.127725 -4.23808 0
M  V30 6271 C 567.055 1.15563 -3.1646 0
M  V30 6272 O 567.585 2.242 -3.33312 0
M  V30 6273 N 565.791 1.06203 -2.70498 0
M  V30 6274 H 565.338 0.177933 -2.56985 0
M  V30 6275 H 565.296 1.90553 -2.50074 0
M  V30 6276 N 569.068 1.32177 -0.85831 0
M  V30 6277 C 570.314 1.97417 -0.46417 0
M  V30 6278 C 570.647 1.67746 0.978514 0
M  V30 6279 O 569.922 0.967654 1.68721 0
M  V30 6280 C 570.205 3.53069 -0.708094 0
M  V30 6281 C 570.058 3.92357 -2.19946 0
M  V30 6282 C 571.377 4.39783 -0.166881 0
M  V30 6283 H 568.496 0.717097 -0.17012 0
M  V30 6284 H 571.138 1.56499 -1.07741 0
M  V30 6285 H 569.288 3.88054 -0.186128 0
M  V30 6286 H 570.96 3.67533 -2.78779 0
M  V30 6287 H 569.203 3.41384 -2.67656 0
M  V30 6288 H 569.874 5.00841 -2.32082 0
M  V30 6289 H 572.35 4.11556 -0.613285 0
M  V30 6290 H 571.226 5.47671 -0.367093 0
M  V30 6291 H 571.487 4.32196 0.930559 0
M  V30 6292 N 570.547 0.616602 1.45037 0
M  V30 6293 C 571.477 -0.0840787 2.33349 0
M  V30 6294 C 572.458 -0.849641 1.4736 0
M  V30 6295 O 573.643 -0.818407 1.76113 0
M  V30 6296 C 570.773 -1.07604 3.3021 0
M  V30 6297 C 569.727 -0.423096 4.25904 0
M  V30 6298 C 569.053 -1.52394 5.12523 0
M  V30 6299 C 570.353 0.661457 5.18095 0
M  V30 6300 H 572.047 0.653333 2.92185 0
M  V30 6301 H 569.593 0.315634 1.40498 0
M  V30 6302 H 571.546 -1.57485 3.90866 0
M  V30 6303 H 570.27 -1.84416 2.69552 0
M  V30 6304 H 568.929 0.05493 3.66559 0
M  V30 6305 H 568.577 -2.28257 4.48227 0
M  V30 6306 H 568.277 -1.09251 5.77354 0
M  V30 6307 H 569.801 -2.02485 5.76049 0
M  V30 6308 H 571.215 0.246353 5.7277 0
M  V30 6309 H 569.612 1.01517 5.91451 0
M  V30 6310 H 570.682 1.53446 4.59981 0
M  V30 6311 N 572.025 -1.5352 0.356285 0
M  V30 6312 C 573.302 -1.93405 -0.292223 0
M  V30 6313 C 573.682 -1.28901 -1.67176 0
M  V30 6314 O 573.03 -0.444632 -2.24132 0
M  V30 6315 C 573.24 -3.47223 -0.35175 0
M  V30 6316 C 574.588 -4.20389 -0.596534 0
M  V30 6317 O 575.612 -3.53554 -0.433344 0
M  V30 6318 O 574.471 -5.3881 -0.913589 0
M  V30 6319 H 571.565 -0.808666 -0.173172 0
M  V30 6320 H 574.111 -1.64713 0.408391 0
M  V30 6321 H 572.883 -3.86423 0.615841 0
M  V30 6322 H 572.506 -3.8212 -1.09864 0
M  V30 6323 N 573.503 -0.0852151 -1.57369 0
M  V30 6324 C 574.451 0.894856 -2.14698 0
M  V30 6325 C 575.445 1.29903 -1.08727 0
M  V30 6326 O 576.651 1.27471 -1.27088 0
M  V30 6327 H 573.026 0.306569 -0.686673 0
M  V30 6328 H 574.997 0.386542 -2.95886 0
M  V30 6329 C 573.746 2.14798 -2.73417 0
M  V30 6330 H 573.069 1.84585 -3.54638 0
M  V30 6331 H 574.509 2.81456 -3.1711 0
M  V30 6332 C 572.968 2.91546 -1.68828 0
M  V30 6333 O 573.498 3.85733 -1.12129 0
M  V30 6334 N 571.704 2.54901 -1.39549 0
M  V30 6335 H 571.251 1.7838 -1.85845 0
M  V30 6336 H 571.209 3.06553 -0.698054 0
M  V30 6337 N 574.981 1.5647 0.188427 0
M  V30 6338 C 575.944 1.9421 1.21718 0
M  V30 6339 C 576.944 0.823901 1.38089 0
M  V30 6340 O 578.134 1.09122 1.35787 0
M  V30 6341 C 575.266 2.22197 2.58537 0
M  V30 6342 H 576.459 2.86252 0.894418 0
M  V30 6343 H 574.012 1.50263 0.430211 0
M  V30 6344 H 574.747 1.32814 2.95856 0
M  V30 6345 H 574.532 3.03688 2.48025 0
M  V30 6346 H 576.022 2.52376 3.3271 0
M  V30 6347 N 576.459 -0.456382 1.50847 0
M  V30 6348 C 577.699 -1.21704 1.64218 0
M  V30 6349 C 578.063 -1.88932 0.341859 0
M  V30 6350 O 579.264 -2.66497 0.351137 0
M  V30 6351 C 577.535 -2.22162 2.79962 0
M  V30 6352 S 579.094 -3.0697 3.13552 0
M  V30 6353 H 575.912 -0.412995 0.578754 0
M  V30 6354 H 578.514 -0.511637 1.88686 0
M  V30 6355 H 577.218 -1.71379 3.72904 0
M  V30 6356 H 576.749 -2.9731 2.57624 0
M  V30 6357 H 578.764 -4.23539 2.58513 0
M  V30 6358 N 577.937 -1.40673 -0.710563 0
M  V30 6359 C 578.884 -1.41336 -1.82463 0
M  V30 6360 C 579.854 -0.269648 -1.63897 0
M  V30 6361 O 581.039 -0.468463 -1.8496 0
M  V30 6362 C 578.179 -1.28665 -3.20218 0
M  V30 6363 C 577.292 -2.52784 -3.5032 0
M  V30 6364 C 576.427 -2.32517 -4.77608 0
M  V30 6365 C 575.466 -3.52187 -5.0063 0
M  V30 6366 N 574.603 -3.31084 -6.19135 0
M  V30 6367 H 579.443 -2.36558 -1.8123 0
M  V30 6368 H 576.98 -1.17483 -0.885226 0
M  V30 6369 H 578.938 -1.19324 -3.99772 0
M  V30 6370 H 577.568 -0.370602 -3.20666 0
M  V30 6371 H 576.62 -2.72634 -2.65283 0
M  V30 6372 H 577.932 -3.41845 -3.63241 0
M  V30 6373 H 577.086 -2.20558 -5.65189 0
M  V30 6374 H 575.825 -1.40889 -4.66906 0
M  V30 6375 H 574.83 -3.64617 -4.11502 0
M  V30 6376 H 576.055 -4.44749 -5.13201 0
M  V30 6377 H 574.001 -2.42143 -6.09674 0
M  V30 6378 H 573.918 -4.13713 -6.32754 0
M  V30 6379 H 575.186 -3.22868 -7.0949 0
M  V30 6380 N 579.415 0.9433 -1.26252 0
M  V30 6381 C 580.645 1.72117 -1.14277 0
M  V30 6382 C 581.053 1.86726 0.304944 0
M  V30 6383 O 580.396 1.3727 1.22076 0
M  V30 6384 C 580.458 3.14778 -1.73651 0
M  V30 6385 C 580.122 3.23561 -3.22734 0
M  V30 6386 C 581.119 3.07001 -4.19579 0
M  V30 6387 C 578.804 3.47019 -3.63157 0
M  V30 6388 C 580.798 3.13763 -5.54826 0
M  V30 6389 C 578.485 3.53416 -4.98538 0
M  V30 6390 C 579.483 3.36804 -5.94182 0
M  V30 6391 O 579.171 3.42906 -7.27098 0
M  V30 6392 H 578.903 0.545781 -0.398873 0
M  V30 6393 H 581.457 1.19123 -1.67328 0
M  V30 6394 H 579.687 3.69186 -1.1506 0
M  V30 6395 H 581.376 3.74469 -1.56613 0
M  V30 6396 H 582.142 2.88736 -3.89688 0
M  V30 6397 H 578.021 3.59006 -2.89199 0
M  V30 6398 H 581.565 3.00714 -6.29458 0
M  V30 6399 H 577.462 3.71201 -5.28091 0
M  V30 6400 H 578.23 3.59463 -7.35342 0
M  V30 6401 N 580.893 1.08022 1.14757 0
M  V30 6402 C 582.133 0.816959 1.87364 0
M  V30 6403 C 582.497 -0.645407 1.80827 0
M  V30 6404 O 583.698 -1.024 2.48531 0
M  V30 6405 C 581.969 1.31961 3.32146 0
M  V30 6406 S 583.528 1.18806 4.2241 0
M  V30 6407 H 580.346 0.295862 0.646519 0
M  V30 6408 H 582.948 1.3807 1.38408 0
M  V30 6409 H 581.652 2.37847 3.3445 0
M  V30 6410 H 581.183 0.751371 3.86158 0
M  V30 6411 H 583.198 0.129865 4.9603 0
M  V30 6412 N 582.371 -1.3172 0.865308 0
M  V30 6413 C 583.301 -2.31109 0.333302 0
M  V30 6414 C 584.282 -1.60148 -0.573301 0
M  V30 6415 O 585.467 -1.87882 -0.491305 0
M  V30 6416 C 582.597 -3.44104 -0.470078 0
M  V30 6417 C 581.551 -4.26623 0.343021 0
M  V30 6418 C 580.877 -5.31482 -0.585756 0
M  V30 6419 C 582.177 -4.98001 1.57456 0
M  V30 6420 H 583.871 -2.75855 1.1638 0
M  V30 6421 H 581.417 -1.3262 0.561069 0
M  V30 6422 H 583.37 -4.12682 -0.852752 0
M  V30 6423 H 582.094 -2.98112 -1.33404 0
M  V30 6424 H 580.753 -3.59707 0.707583 0
M  V30 6425 H 580.401 -4.81741 -1.44686 0
M  V30 6426 H 580.101 -5.87582 -0.0456494 0
M  V30 6427 H 581.625 -6.0292 -0.965375 0
M  V30 6428 H 583.039 -5.59201 1.26359 0
M  V30 6429 H 581.436 -5.63876 2.05339 0
M  V30 6430 H 582.506 -4.25253 2.32997 0
M  V30 6431 N 583.85 -0.624285 -1.44708 0
M  V30 6432 C 584.76 0.0861083 -2.34442 0
M  V30 6433 C 585.776 0.84291 -1.5222 0
M  V30 6434 O 586.952 0.796723 -1.84971 0
M  V30 6435 C 584.017 1.05999 -3.30099 0
M  V30 6436 C 583.077 0.303316 -4.28227 0
M  V30 6437 C 582.311 1.23081 -5.19314 0
M  V30 6438 O 582.534 2.46929 -5.14181 0
M  V30 6439 O 581.468 0.71883 -5.97592 0
M  V30 6440 H 585.293 -0.651756 -2.96624 0
M  V30 6441 H 582.879 -0.384493 -1.44368 0
M  V30 6442 H 584.76 1.62046 -3.88997 0
M  V30 6443 H 583.436 1.77859 -2.70459 0
M  V30 6444 H 582.343 -0.300033 -3.72895 0
M  V30 6445 H 583.676 -0.375123 -4.90768 0
M  V30 6446 N 585.328 1.53329 -0.364422 0
M  V30 6447 C 586.575 2.01239 0.225634 0
M  V30 6448 C 586.903 1.25172 1.48869 0
M  V30 6449 O 586.158 0.333289 1.92841 0
M  V30 6450 C 586.457 3.52911 0.564661 0
M  V30 6451 C 586.123 4.46837 -0.603936 0
M  V30 6452 C 584.785 4.72234 -0.924585 0
M  V30 6453 C 587.137 5.02409 -1.38691 0
M  V30 6454 C 584.465 5.50454 -2.0302 0
M  V30 6455 C 586.817 5.81836 -2.48293 0
M  V30 6456 C 585.481 6.0552 -2.80894 0
M  V30 6457 H 584.751 0.736386 0.0825654 0
M  V30 6458 H 587.398 1.84948 -0.496645 0
M  V30 6459 H 585.703 3.67144 1.36794 0
M  V30 6460 H 587.4 3.87455 1.03344 0
M  V30 6461 H 583.99 4.27217 -0.343983 0
M  V30 6462 H 588.174 4.82735 -1.15243 0
M  V30 6463 H 583.43 5.67024 -2.28678 0
M  V30 6464 H 587.604 6.23905 -3.0938 0
M  V30 6465 H 585.231 6.65916 -3.66688 0
M  V30 6466 N 586.806 0.0935595 1.57322 0
M  V30 6467 C 588.052 -0.571355 1.94585 0
M  V30 6468 C 588.385 -1.67929 0.975366 0
M  V30 6469 O 587.66 -1.94498 0.00816206 0
M  V30 6470 C 587.943 -1.12797 3.41978 0
M  V30 6471 C 587.796 -0.0251881 4.49793 0
M  V30 6472 C 589.115 -2.02682 3.90651 0
M  V30 6473 H 586.234 -0.206223 0.70756 0
M  V30 6474 H 588.876 0.163956 1.89291 0
M  V30 6475 H 587.026 -1.75461 3.4662 0
M  V30 6476 H 588.698 0.608979 4.57263 0
M  V30 6477 H 586.941 0.641399 4.29032 0
M  V30 6478 H 587.612 -0.455433 5.50118 0
M  V30 6479 H 590.088 -1.49925 3.88152 0
M  V30 6480 H 588.964 -2.38555 4.94351 0
M  V30 6481 H 589.225 -2.94362 3.29854 0
M  V30 6482 N 588.284 -1.56567 -0.180126 0
M  V30 6483 C 589.194 -1.98947 -1.24327 0
M  V30 6484 C 590.21 -0.899446 -1.4895 0
M  V30 6485 O 591.386 -1.20639 -1.61271 0
M  V30 6486 C 588.451 -2.33328 -2.56435 0
M  V30 6487 C 587.512 -3.56114 -2.39752 0
M  V30 6488 C 586.745 -3.88845 -3.65561 0
M  V30 6489 O 586.968 -3.22662 -4.70368 0
M  V30 6490 O 585.902 -4.82226 -3.60197 0
M  V30 6491 H 589.728 -2.89634 -0.913565 0
M  V30 6492 H 587.313 -1.44319 -0.386306 0
M  V30 6493 H 589.195 -2.5645 -3.34382 0
M  V30 6494 H 587.87 -1.45806 -2.89002 0
M  V30 6495 H 586.777 -3.38221 -1.59866 0
M  V30 6496 H 588.11 -4.4415 -2.12113 0
M  V30 6497 N 589.762 0.448376 -1.51087 0
M  V30 6498 C 591.011 1.19561 -1.62444 0
M  V30 6499 C 591.324 1.92602 -0.341151 0
M  V30 6500 O 592.53 2.69439 -0.333936 0
M  V30 6501 C 590.986 2.17373 -2.8684 0
M  V30 6502 C 590.594 1.5003 -4.22131 0
M  V30 6503 C 592.338 2.92597 -3.0755 0
M  V30 6504 C 590.245 2.46262 -5.37689 0
M  V30 6505 H 589.175 0.449975 -0.605011 0
M  V30 6506 H 591.826 0.463735 -1.77544 0
M  V30 6507 H 590.208 2.93948 -2.65349 0
M  V30 6508 H 591.382 0.790886 -4.53962 0
M  V30 6509 H 589.697 0.870011 -4.0721 0
M  V30 6510 H 592.294 3.64663 -3.91056 0
M  V30 6511 H 592.637 3.53306 -2.20183 0
M  V30 6512 H 593.17 2.23131 -3.29329 0
M  V30 6513 H 589.909 1.90258 -6.27281 0
M  V30 6514 H 589.429 3.15289 -5.10248 0
M  V30 6515 H 591.108 3.07623 -5.6919 0
M  V30 6516 N 591.24 1.41047 0.703093 0
M  V30 6517 C 592.465 1.43537 1.49706 0
M  V30 6518 C 592.89 0.0401853 1.88057 0
M  V30 6519 O 592.248 -0.954785 1.54122 0
M  V30 6520 C 592.296 2.3433 2.74084 0
M  V30 6521 O 591.4 1.79515 3.71279 0
M  V30 6522 H 590.741 0.487454 0.450871 0
M  V30 6523 H 593.271 1.85422 0.86486 0
M  V30 6524 H 593.281 2.49947 3.22476 0
M  V30 6525 H 591.956 3.35708 2.45506 0
M  V30 6526 H 590.533 1.7331 3.30179 0
M  V30 6527 N 592.718 -0.936591 1.26751 0
M  V30 6528 C 593.681 -2.01752 1.08761 0
M  V30 6529 C 594.681 -1.60763 0.0344435 0
M  V30 6530 O 595.871 -1.71963 0.278258 0
M  V30 6531 C 593.003 -3.34543 0.655271 0
M  V30 6532 H 594.196 -2.19143 2.04735 0
M  V30 6533 H 591.749 -1.11618 1.09413 0
M  V30 6534 H 592.484 -3.22851 -0.30626 0
M  V30 6535 H 592.269 -3.65647 1.41578 0
M  V30 6536 H 593.759 -4.13944 0.551378 0
M  V30 6537 N 594.196 -1.08629 -1.14182 0
M  V30 6538 C 595.612 -0.814363 -1.3726 0
M  V30 6539 C 595.812 0.575271 -1.93114 0
M  V30 6540 O 594.868 1.33165 -2.1453 0
M  V30 6541 C 596.181 -1.8989 -2.33157 0
M  V30 6542 C 597.729 -1.92518 -2.46791 0
M  V30 6543 C 598.204 -3.00092 -3.45989 0
M  V30 6544 N 599.695 -2.99279 -3.53534 0
M  V30 6545 C 600.43 -3.79158 -4.30147 0
M  V30 6546 N 599.926 -4.68923 -5.09983 0
M  V30 6547 N 601.719 -3.67451 -4.25366 0
M  V30 6548 H 593.87 -1.98232 -0.762758 0
M  V30 6549 H 596.133 -0.860383 -0.398051 0
M  V30 6550 H 595.839 -2.89809 -1.99257 0
M  V30 6551 H 595.713 -1.77013 -3.33086 0
M  V30 6552 H 598.1 -0.932425 -2.79982 0
M  V30 6553 H 598.181 -2.09473 -1.46816 0
M  V30 6554 H 597.825 -3.99575 -3.13532 0
M  V30 6555 H 597.755 -2.80382 -4.45751 0
M  V30 6556 H 600.246 -2.3422 -2.96563 0
M  V30 6557 H 600.559 -5.26475 -5.65724 0
M  V30 6558 H 598.904 -4.72964 -5.09244 0
M  V30 6559 H 602.095 -2.9669 -3.62067 0
M  V30 6560 H 602.268 -4.29944 -4.84822 0
M  V30 6561 N 595.674 1.31259 -0.872281 0
M  V30 6562 C 596.606 2.27396 -0.28697 0
M  V30 6563 C 597.619 1.53181 0.551297 0
M  V30 6564 O 598.808 1.74561 0.372914 0
M  V30 6565 C 595.908 3.33335 0.611617 0
M  V30 6566 C 595.081 4.36966 -0.194729 0
M  V30 6567 C 594.14 5.22387 0.632358 0
M  V30 6568 O 593.166 5.69169 0.0595691 0
M  V30 6569 N 594.368 5.46985 1.94391 0
M  V30 6570 H 597.133 2.78261 -1.11314 0
M  V30 6571 H 594.694 1.44306 -0.733994 0
M  V30 6572 H 596.686 3.87398 1.17068 0
M  V30 6573 H 595.256 2.82496 1.33846 0
M  V30 6574 H 594.476 3.82945 -0.935241 0
M  V30 6575 H 595.764 5.03273 -0.747935 0
M  V30 6576 H 595.162 5.10737 2.43237 0
M  V30 6577 H 593.719 6.03973 2.45071 0
M  V30 6578 N 597.152 0.631951 1.44375 0
M  V30 6579 C 598.38 0.143867 2.06399 0
M  V30 6580 C 598.795 -1.18188 1.47231 0
M  V30 6581 O 598.152 -1.72511 0.595498 0
M  V30 6582 C 598.203 0.0238253 3.61492 0
M  V30 6583 O 597.924 1.29715 4.18456 0
M  V30 6584 C 599.425 -0.492856 4.40552 0
M  V30 6585 H 596.645 0.0800542 0.666207 0
M  V30 6586 H 599.189 0.866586 1.85231 0
M  V30 6587 H 597.344 -0.649338 3.81919 0
M  V30 6588 H 597.758 1.14252 5.11905 0
M  V30 6589 H 599.232 -0.525861 5.49489 0
M  V30 6590 H 599.709 -1.52006 4.12057 0
M  V30 6591 H 600.315 0.147085 4.25046 0
M  V30 6592 N 598.631 -1.53133 0.372548 0
M  V30 6593 C 599.908 -1.93704 -0.271693 0
M  V30 6594 C 600.288 -1.30667 -1.65799 0
M  V30 6595 O 599.636 -0.46838 -2.23648 0
M  V30 6596 C 599.846 -3.47576 -0.314903 0
M  V30 6597 C 601.194 -4.20998 -0.551912 0
M  V30 6598 O 602.218 -3.53994 -0.39582 0
M  V30 6599 O 601.077 -5.39748 -0.85639 0
M  V30 6600 H 598.171 -0.810457 -0.164586 0
M  V30 6601 H 600.717 -1.6427 0.425838 0
M  V30 6602 H 599.489 -3.85749 0.656792 0
M  V30 6603 H 599.112 -3.83264 -1.05804 0
M  V30 6604 N 600.109 -0.101901 -1.5727 0
M  V30 6605 C 601.019 0.868647 -2.17926 0
M  V30 6606 C 602.035 1.30527 -1.1506 0
M  V30 6607 O 603.211 1.37178 -1.47459 0
M  V30 6608 C 600.276 2.10727 -2.75309 0
M  V30 6609 C 599.337 1.7242 -3.93154 0
M  V30 6610 C 598.57 2.90377 -4.47791 0
M  V30 6611 O 598.793 4.05305 -4.01353 0
M  V30 6612 O 597.727 2.6845 -5.38719 0
M  V30 6613 H 601.553 0.382544 -3.01281 0
M  V30 6614 H 599.138 0.122812 -1.48894 0
M  V30 6615 H 601.02 2.83303 -3.11958 0
M  V30 6616 H 599.695 2.58376 -1.94996 0
M  V30 6617 H 598.602 0.970039 -3.61305 0
M  V30 6618 H 599.935 1.29528 -4.74851 0
M  V30 6619 N 601.587 1.56661 0.17182 0
M  V30 6620 C 602.537 1.92781 1.21736 0
M  V30 6621 C 603.521 0.796065 1.39827 0
M  V30 6622 O 604.713 1.05924 1.41806 0
M  V30 6623 C 601.842 2.29079 2.55691 0
M  V30 6624 C 600.928 3.48765 2.41296 0
M  V30 6625 N 601.319 4.66022 1.96614 0
M  V30 6626 C 599.617 3.53362 2.72124 0
M  V30 6627 C 600.318 5.48159 1.94669 0
M  V30 6628 N 599.294 4.89189 2.37054 0
M  V30 6629 H 603.096 2.80926 0.863592 0
M  V30 6630 H 600.61 1.57889 0.380096 0
M  V30 6631 H 602.607 2.5315 3.31241 0
M  V30 6632 H 601.267 1.42272 2.91871 0
M  V30 6633 H 602.278 4.9025 1.66959 0
M  V30 6634 H 598.955 2.77033 3.12345 0
M  V30 6635 H 600.345 6.52121 1.61826 0
M  V30 6636 N 603.065 -0.440357 1.51323 0
M  V30 6637 C 603.995 -1.54174 1.75364 0
M  V30 6638 C 604.976 -1.59039 0.603375 0
M  V30 6639 O 606.161 -1.74815 0.845774 0
M  V30 6640 C 603.291 -2.92277 1.87593 0
M  V30 6641 C 602.245 -3.02274 3.03009 0
M  V30 6642 C 601.571 -4.42327 3.00418 0
M  V30 6643 C 602.871 -2.76634 4.43024 0
M  V30 6644 H 604.565 -1.34307 2.67585 0
M  V30 6645 H 602.111 -0.644678 1.28763 0
M  V30 6646 H 604.064 -3.69284 2.02995 0
M  V30 6647 H 602.788 -3.13369 0.920179 0
M  V30 6648 H 601.447 -2.27706 2.87307 0
M  V30 6649 H 601.095 -4.60382 2.02626 0
M  V30 6650 H 600.795 -4.49946 3.77918 0
M  V30 6651 H 602.319 -5.21312 3.17909 0
M  V30 6652 H 603.733 -3.43376 4.59093 0
M  V30 6653 H 602.13 -2.95666 5.22208 0
M  V30 6654 H 603.2 -1.72262 4.5327 0
M  V30 6655 N 604.543 -1.41418 -0.695603 0
M  V30 6656 C 605.773 -1.43921 -1.48224 0
M  V30 6657 C 606.181 -0.0428855 -1.89151 0
M  V30 6658 O 605.524 0.948138 -1.5734 0
M  V30 6659 C 605.586 -2.28466 -2.77567 0
M  V30 6660 C 605.25 -3.76629 -2.58844 0
M  V30 6661 C 606.247 -4.6879 -2.24793 0
M  V30 6662 C 603.932 -4.2067 -2.74485 0
M  V30 6663 C 605.926 -6.02981 -2.06622 0
M  V30 6664 C 603.613 -5.54926 -2.55931 0
M  V30 6665 C 604.611 -6.45897 -2.2205 0
M  V30 6666 O 604.299 -7.77675 -2.03657 0
M  V30 6667 H 604.031 -0.492252 -0.463318 0
M  V30 6668 H 606.585 -1.86347 -0.863952 0
M  V30 6669 H 604.815 -1.80853 -3.41802 0
M  V30 6670 H 606.504 -2.2267 -3.39371 0
M  V30 6671 H 607.27 -4.36055 -2.12323 0
M  V30 6672 H 603.149 -3.50167 -2.9984 0
M  V30 6673 H 606.693 -6.73951 -1.80099 0
M  V30 6674 H 602.59 -5.8724 -2.67991 0
M  V30 6675 H 603.358 -7.88819 -2.1842 0
M  V30 6676 N 606.021 0.929856 -1.27246 0
M  V30 6677 C 607.27 1.67182 -1.12842 0
M  V30 6678 C 607.583 1.9287 0.325666 0
M  V30 6679 O 608.789 2.64999 0.590572 0
M  V30 6680 C 607.245 3.01097 -1.97151 0
M  V30 6681 C 606.853 2.83115 -3.47203 0
M  V30 6682 C 608.597 3.78907 -1.91389 0
M  V30 6683 C 606.504 4.12573 -4.23719 0
M  V30 6684 H 605.434 0.627064 -0.418697 0
M  V30 6685 H 608.085 1.0332 -1.51649 0
M  V30 6686 H 606.467 3.66004 -1.51186 0
M  V30 6687 H 607.641 2.26989 -4.01015 0
M  V30 6688 H 605.956 2.18736 -3.54321 0
M  V30 6689 H 608.553 4.74837 -2.45834 0
M  V30 6690 H 608.896 4.0674 -0.887047 0
M  V30 6691 H 609.429 3.20794 -2.35237 0
M  V30 6692 H 606.168 3.8992 -5.26918 0
M  V30 6693 H 605.688 4.68371 -3.74685 0
M  V30 6694 H 607.367 4.8095 -4.32777 0
M  V30 6695 N 607.499 1.09233 1.13605 0
M  V30 6696 C 608.745 0.828385 1.8511 0
M  V30 6697 C 609.078 -0.64437 1.83198 0
M  V30 6698 O 608.353 -1.47428 1.26867 0
M  V30 6699 C 608.636 1.36167 3.33363 0
M  V30 6700 C 608.489 2.90038 3.438 0
M  V30 6701 C 609.808 0.993819 4.28732 0
M  V30 6702 H 606.927 0.30239 0.672108 0
M  V30 6703 H 609.569 1.35339 1.33355 0
M  V30 6704 H 607.719 0.9151 3.77569 0
M  V30 6705 H 609.391 3.43128 3.08319 0
M  V30 6706 H 607.634 3.27271 2.84739 0
M  V30 6707 H 608.305 3.22428 4.48045 0
M  V30 6708 H 610.781 1.37893 3.92587 0
M  V30 6709 H 609.657 1.39403 5.30903 0
M  V30 6710 H 609.918 -0.0982206 4.41991 0
M  V30 6711 N 608.977 -1.30795 0.87923 0
M  V30 6712 C 610.223 -1.96653 0.495519 0
M  V30 6713 C 610.556 -1.69282 -0.951703 0
M  V30 6714 O 609.831 -0.994374 -1.6716 0
M  V30 6715 C 610.114 -3.51898 0.764174 0
M  V30 6716 C 609.967 -3.88808 2.2616 0
M  V30 6717 C 611.286 -4.39462 0.236825 0
M  V30 6718 H 608.405 -0.7143 0.181507 0
M  V30 6719 H 611.047 -1.54765 1.10217 0
M  V30 6720 H 609.197 -3.87709 0.247841 0
M  V30 6721 H 610.869 -3.63051 2.8459 0
M  V30 6722 H 609.112 -3.37082 2.73053 0
M  V30 6723 H 609.783 -4.97086 2.4002 0
M  V30 6724 H 612.259 -4.10528 0.678683 0
M  V30 6725 H 611.135 -5.47018 0.454176 0
M  V30 6726 H 611.396 -4.33621 -0.861683 0
M  V30 6727 N 610.455 -0.639598 -1.44038 0
M  V30 6728 C 611.365 0.0612377 -2.3452 0
M  V30 6729 C 612.381 0.826717 -1.53106 0
M  V30 6730 O 613.557 0.777059 -1.85806 0
M  V30 6731 C 610.622 1.02492 -3.31204 0
M  V30 6732 C 609.683 0.25788 -4.28525 0
M  V30 6733 C 608.916 1.17566 -5.2059 0
M  V30 6734 O 609.139 2.41461 -5.16771 0
M  V30 6735 O 608.073 0.655407 -5.98321 0
M  V30 6736 H 611.899 -0.68318 -2.95916 0
M  V30 6737 H 609.484 -0.399784 -1.43952 0
M  V30 6738 H 611.366 1.57911 -3.90694 0
M  V30 6739 H 610.041 1.7498 -2.7233 0
M  V30 6740 H 608.948 -0.339566 -3.72556 0
M  V30 6741 H 610.281 -0.427154 -4.90343 0
M  V30 6742 N 611.933 1.52934 -0.380664 0
M  V30 6743 C 613.21 1.93845 0.261417 0
M  V30 6744 C 613.59 1.31544 1.65104 0
M  V30 6745 O 612.938 0.480234 2.23397 0
M  V30 6746 C 613.148 3.47739 0.296466 0
M  V30 6747 C 614.496 4.21284 0.529578 0
M  V30 6748 O 615.52 3.54199 0.377041 0
M  V30 6749 O 614.379 5.40195 0.827753 0
M  V30 6750 H 611.473 0.811318 0.160285 0
M  V30 6751 H 614.019 1.64042 -0.434544 0
M  V30 6752 H 612.791 3.85395 -0.67724 0
M  V30 6753 H 612.414 3.8382 1.0377 0
M  V30 6754 N 613.412 0.11024 1.57214 0
M  V30 6755 C 614.689 -0.592956 1.86396 0
M  V30 6756 C 615.069 -1.85379 1.00985 0
M  V30 6757 O 614.417 -2.28337 0.0863592 0
M  V30 6758 C 614.627 -0.893816 3.3736 0
M  V30 6759 C 615.975 -1.25069 4.05762 0
M  V30 6760 O 616.999 -0.984356 3.42329 0
M  V30 6761 O 615.858 -1.75017 5.17718 0
M  V30 6762 H 612.952 -0.29828 0.771335 0
M  V30 6763 H 615.498 0.144083 1.69087 0
M  V30 6764 H 614.27 2.6031e-05 3.913 0
M  V30 6765 H 613.893 -1.68631 3.60068 0
M  V30 6766 N 614.89 -1.56749 -0.16351 0
M  V30 6767 C 616.138 -1.82074 -0.87713 0
M  V30 6768 C 616.459 -0.688503 -1.82441 0
M  V30 6769 O 615.729 0.291085 -1.93725 0
M  V30 6770 H 614.309 -0.671677 -0.326893 0
M  V30 6771 H 616.971 -1.9423 -0.161459 0
M  V30 6772 H 616.067 -2.76407 -1.44934 0
M  V30 6773 N 616.368 0.432326 -1.51554 0
M  V30 6774 C 617.779 1.01202 -1.56892 0
M  V30 6775 C 618.13 1.92175 -0.395394 0
M  V30 6776 O 617.255 2.10844 0.487198 0
M  V30 6777 C 617.85 1.84217 -2.8434 0
M  V30 6778 C 616.409 2.37228 -2.92233 0
M  V30 6779 C 615.556 1.16576 -2.51606 0
M  V30 6780 H 618.507 0.213407 -1.57259 0
M  V30 6781 H 618.528 2.69721 -2.68385 0
M  V30 6782 H 618.04 1.17979 -3.69733 0
M  V30 6783 H 616.141 3.06905 -2.11282 0
M  V30 6784 H 616.254 2.69682 -3.95991 0
M  V30 6785 H 614.618 1.51263 -2.04919 0
M  V30 6786 H 615.401 0.519404 -3.39348 0
M  V30 6787 N 617.846 1.41785 0.688094 0
M  V30 6788 C 619.094 1.41264 1.4453 0
M  V30 6789 C 619.415 0.0252946 1.94984 0
M  V30 6790 O 618.685 -0.934081 1.72197 0
M  V30 6791 H 617.265 0.519998 0.536294 0
M  V30 6792 H 619.927 1.7709 0.813941 0
M  V30 6793 H 619.023 2.10439 2.30482 0
M  V30 6794 N 619.324 -0.923095 1.27737 0
M  V30 6795 C 620.573 -1.66581 1.13727 0
M  V30 6796 C 620.886 -1.9304 -0.315433 0
M  V30 6797 O 622.092 -2.65309 -0.57651 0
M  V30 6798 C 620.548 -3.00047 1.98745 0
M  V30 6799 C 620.156 -2.8127 3.48699 0
M  V30 6800 C 621.9 -3.77887 1.93395 0
M  V30 6801 C 619.807 -4.1032 4.25901 0
M  V30 6802 H 618.737 -0.624834 0.422017 0
M  V30 6803 H 621.388 -1.02514 1.52194 0
M  V30 6804 H 619.77 -3.65197 1.53125 0
M  V30 6805 H 620.944 -2.24859 4.02213 0
M  V30 6806 H 619.259 -2.16854 3.55476 0
M  V30 6807 H 621.856 -4.73526 2.48348 0
M  V30 6808 H 622.199 -4.06264 0.908605 0
M  V30 6809 H 622.732 -3.19541 2.36935 0
M  V30 6810 H 619.471 -3.8712 5.28978 0
M  V30 6811 H 618.991 -4.66377 3.77163 0
M  V30 6812 H 620.67 -4.78648 4.35321 0
M  V30 6813 N 620.802 -1.09834 -1.13024 0
M  V30 6814 C 622.213 -0.855651 -1.65938 0
M  V30 6815 C 622.564 0.615159 -1.86307 0
M  V30 6816 O 621.689 1.47335 -1.58497 0
M  V30 6817 C 622.284 -1.5467 -3.01434 0
M  V30 6818 C 620.843 -1.35088 -3.51323 0
M  V30 6819 C 619.99 -1.6001 -2.26478 0
M  V30 6820 H 622.941 -1.25691 -0.968889 0
M  V30 6821 H 622.962 -0.982179 -3.67605 0
M  V30 6822 H 622.474 -2.61715 -2.86578 0
M  V30 6823 H 620.575 -0.30179 -3.71376 0
M  V30 6824 H 620.688 -2.0886 -4.31178 0
M  V30 6825 H 619.052 -1.02246 -2.33276 0
M  V30 6826 H 619.835 -2.68293 -2.14182 0
M  V30 6827 N 622.28 1.30327 -0.886154 0
M  V30 6828 C 623.21 2.30549 -0.370028 0
M  V30 6829 C 624.191 1.61039 0.547751 0
M  V30 6830 O 625.376 1.8864 0.461353 0
M  V30 6831 C 622.506 3.44808 0.415275 0
M  V30 6832 C 621.46 4.26024 -0.41085 0
M  V30 6833 C 620.786 5.32347 0.501128 0
M  V30 6834 C 622.086 4.95433 -1.65359 0
M  V30 6835 H 623.78 2.73969 -1.20754 0
M  V30 6836 H 621.326 1.3171 -0.582097 0
M  V30 6837 H 623.279 4.13986 0.78699 0
M  V30 6838 H 622.003 3.00197 1.28644 0
M  V30 6839 H 620.662 3.58535 -0.764719 0
M  V30 6840 H 620.31 4.83982 1.37004 0
M  V30 6841 H 620.01 5.87581 -0.0478356 0
M  V30 6842 H 621.534 6.0438 0.869333 0
M  V30 6843 H 622.948 5.5712 -1.35239 0
M  V30 6844 H 621.345 5.60537 -2.14284 0
M  V30 6845 H 622.415 4.21493 -2.39733 0
M  V30 6846 N 623.758 0.647228 1.43697 0
M  V30 6847 C 624.983 0.164083 2.0675 0
M  V30 6848 C 625.408 -1.15892 1.48158 0
M  V30 6849 O 624.766 -1.71459 0.589194 0
M  V30 6850 C 624.814 0.0800368 3.60511 0
M  V30 6851 O 623.918 -0.959453 4.01084 0
M  V30 6852 H 623.259 0.0921288 0.657578 0
M  V30 6853 H 625.789 0.88846 1.84303 0
M  V30 6854 H 625.799 -0.105263 4.07864 0
M  V30 6855 H 624.474 1.04586 4.02535 0
M  V30 6856 H 623.051 -0.747425 3.65333 0
M  V30 6857 N 625.236 -1.5273 0.388769 0
M  V30 6858 C 626.183 -2.26437 -0.446639 0
M  V30 6859 C 627.153 -1.28025 -1.05824 0
M  V30 6860 O 628.338 -1.56852 -1.08637 0
M  V30 6861 C 625.478 -3.07407 -1.56828 0
M  V30 6862 C 624.591 -4.20747 -0.979589 0
M  V30 6863 C 623.726 -4.89113 -2.07224 0
M  V30 6864 C 622.765 -5.94447 -1.45942 0
M  V30 6865 N 621.902 -6.56411 -2.49135 0
M  V30 6866 H 626.742 -2.97404 0.18837 0
M  V30 6867 H 624.279 -1.46727 0.104725 0
M  V30 6868 H 626.237 -3.52642 -2.22934 0
M  V30 6869 H 624.867 -2.3865 -2.17361 0
M  V30 6870 H 623.919 -3.7983 -0.208151 0
M  V30 6871 H 625.231 -4.9637 -0.491747 0
M  V30 6872 H 624.385 -5.3765 -2.81101 0
M  V30 6873 H 623.124 -4.13013 -2.59368 0
M  V30 6874 H 622.129 -5.4525 -0.705894 0
M  V30 6875 H 623.354 -6.7248 -0.945932 0
M  V30 6876 H 621.3 -5.83152 -3.00449 0
M  V30 6877 H 621.217 -7.27645 -2.05105 0
M  V30 6878 H 622.485 -7.09592 -3.22644 0
M  V30 6879 N 626.714 -0.118576 -1.57153 0
M  V30 6880 C 628.13 0.238014 -1.57815 0
M  V30 6881 C 628.33 1.66747 -1.13127 0
M  V30 6882 O 627.386 2.38867 -0.818462 0
M  V30 6883 C 628.699 0.00508207 -3.007 0
M  V30 6884 C 630.247 0.0710139 -3.12919 0
M  V30 6885 C 630.722 -0.13422 -4.57803 0
M  V30 6886 N 632.213 -0.0801755 -4.63131 0
M  V30 6887 C 632.948 -0.213885 -5.73001 0
M  V30 6888 N 632.444 -0.403742 -6.91623 0
M  V30 6889 N 634.237 -0.15349 -5.6189 0
M  V30 6890 H 626.388 -1.05226 -1.84503 0
M  V30 6891 H 628.651 -0.414318 -0.852669 0
M  V30 6892 H 628.357 -0.983125 -3.3768 0
M  V30 6893 H 628.231 0.73714 -3.69927 0
M  V30 6894 H 630.618 1.04975 -2.75798 0
M  V30 6895 H 630.699 -0.692918 -2.46236 0
M  V30 6896 H 630.343 -1.10992 -4.95624 0
M  V30 6897 H 630.273 0.649692 -5.22577 0
M  V30 6898 H 632.764 0.0630689 -3.77847 0
M  V30 6899 H 633.077 -0.496645 -7.71202 0
M  V30 6900 H 631.422 -0.43971 -6.93608 0
M  V30 6901 H 634.613 -0.00613174 -4.681 0
M  V30 6902 H 634.786 -0.261138 -6.47474 0
M  V30 6903 N 628.193 1.56834 0.155195 0
M  V30 6904 C 629.103 2.009 1.21146 0
M  V30 6905 C 630.119 0.923029 1.475 0
M  V30 6906 O 631.295 1.23189 1.59331 0
M  V30 6907 C 628.36 2.37378 2.52691 0
M  V30 6908 C 627.421 3.59883 2.34057 0
M  V30 6909 C 626.654 3.94612 3.59329 0
M  V30 6910 O 626.877 3.30104 4.65175 0
M  V30 6911 O 625.811 4.87895 3.52479 0
M  V30 6912 H 629.637 2.9105 0.867371 0
M  V30 6913 H 627.222 1.44916 0.363298 0
M  V30 6914 H 629.104 2.61737 3.3026 0
M  V30 6915 H 627.779 1.50385 2.86646 0
M  V30 6916 H 626.686 3.40722 1.54465 0
M  V30 6917 H 628.019 4.47468 2.0502 0
M  V30 6918 N 629.671 -0.424282 1.51781 0
M  V30 6919 C 630.917 -1.17434 1.6534 0
M  V30 6920 C 631.25 -1.90549 0.374806 0
M  V30 6921 O 630.525 -1.84145 -0.626179 0
M  V30 6922 C 630.808 -2.18093 2.86544 0
M  V30 6923 C 630.661 -1.48975 4.24413 0
M  V30 6924 C 631.98 -3.18934 3.03264 0
M  V30 6925 H 629.099 -0.425566 0.601716 0
M  V30 6926 H 631.741 -0.461921 1.84299 0
M  V30 6927 H 629.891 -2.78849 2.7051 0
M  V30 6928 H 631.563 -0.914551 4.52143 0
M  V30 6929 H 629.806 -0.791893 4.26511 0
M  V30 6930 H 630.477 -2.22347 5.05238 0
M  V30 6931 H 632.953 -2.68243 3.18096 0
M  V30 6932 H 631.829 -3.86645 3.89611 0
M  V30 6933 H 632.09 -3.85793 2.15908 0
M  V30 6934 N 631.149 -1.42148 -0.680565 0
M  V30 6935 C 632.398 -1.41604 -1.43636 0
M  V30 6936 C 632.711 -0.0337887 -1.95571 0
M  V30 6937 O 633.917 0.0942588 -2.71336 0
M  V30 6938 C 632.373 -2.49056 -2.59806 0
M  V30 6939 C 631.981 -3.9326 -2.14594 0
M  V30 6940 C 633.725 -2.5767 -3.37352 0
M  V30 6941 C 631.632 -4.92232 -3.27813 0
M  V30 6942 H 630.562 -0.526656 -0.539583 0
M  V30 6943 H 633.213 -1.68033 -0.737369 0
M  V30 6944 H 631.595 -2.15782 -3.32045 0
M  V30 6945 H 632.769 -4.35858 -1.49546 0
M  V30 6946 H 631.084 -3.88443 -1.50002 0
M  V30 6947 H 633.681 -3.28794 -4.21662 0
M  V30 6948 H 634.024 -1.61837 -3.83555 0
M  V30 6949 H 634.557 -2.90109 -2.72179 0
M  V30 6950 H 631.296 -5.89522 -2.86607 0
M  V30 6951 H 630.816 -4.5427 -3.91661 0
M  V30 6952 H 632.495 -5.13684 -3.93367 0
M  V30 6953 N 632.627 0.916307 -1.28225 0
M  V30 6954 C 633.874 1.66518 -1.1523 0
M  V30 6955 C 634.202 1.92178 0.299632 0
M  V30 6956 O 633.457 1.51842 1.2346 0
M  V30 6957 C 633.756 3.03125 -1.8934 0
M  V30 6958 C 633.422 2.97135 -3.39148 0
M  V30 6959 C 632.084 2.95208 -3.80007 0
M  V30 6960 C 634.436 2.87574 -4.34685 0
M  V30 6961 C 631.764 2.81518 -5.14747 0
M  V30 6962 C 634.116 2.75424 -5.69495 0
M  V30 6963 C 632.78 2.71854 -6.09632 0
M  V30 6964 H 632.05 0.609334 -0.421655 0
M  V30 6965 H 634.697 1.06776 -1.58969 0
M  V30 6966 H 633.002 3.66639 -1.38143 0
M  V30 6967 H 634.699 3.59968 -1.76704 0
M  V30 6968 H 631.289 2.99428 -3.06661 0
M  V30 6969 H 635.473 2.88152 -4.04082 0
M  V30 6970 H 630.729 2.77148 -5.44976 0
M  V30 6971 H 634.903 2.66993 -6.43185 0
M  V30 6972 H 632.53 2.61003 -7.1399 0
M  V30 6973 N 634.105 1.10431 1.1244 0
M  V30 6974 C 635.382 0.758797 1.80282 0
M  V30 6975 C 635.762 -0.754727 1.97147 0
M  V30 6976 O 635.11 -1.68094 1.54779 0
M  V30 6977 C 635.32 1.50982 3.14651 0
M  V30 6978 C 636.668 1.68232 3.8985 0
M  V30 6979 O 637.692 1.47319 3.24308 0
M  V30 6980 O 636.551 2.02905 5.07437 0
M  V30 6981 H 633.645 0.273756 0.780376 0
M  V30 6982 H 636.191 1.20713 1.19275 0
M  V30 6983 H 634.963 2.53989 2.97666 0
M  V30 6984 H 634.586 1.05435 3.83366 0
M  V30 6985 N 635.583 -1.29855 0.893053 0
M  V30 6986 C 636.999 -1.48366 0.588199 0
M  V30 6987 C 637.199 -1.81654 -0.872018 0
M  V30 6988 O 636.255 -1.909 -1.65268 0
M  V30 6989 C 637.568 -2.60136 1.5083 0
M  V30 6990 C 639.116 -2.74014 1.51279 0
M  V30 6991 C 639.591 -3.88905 2.41902 0
M  V30 6992 N 641.082 -3.96228 2.39911 0
M  V30 6993 C 641.817 -4.84458 3.06738 0
M  V30 6994 N 641.313 -5.77426 3.8282 0
M  V30 6995 N 643.106 -4.77894 2.95929 0
M  V30 6996 H 635.257 -1.06522 1.83757 0
M  V30 6997 H 637.52 -0.528495 0.787018 0
M  V30 6998 H 637.226 -2.42383 2.54839 0
M  V30 6999 H 637.1 -3.56793 1.22388 0
M  V30 7000 H 639.487 -2.91167 0.480179 0
M  V30 7001 H 639.568 -1.77952 1.83757 0
M  V30 7002 H 639.212 -3.72508 3.45253 0
M  V30 7003 H 639.142 -4.84322 2.06737 0
M  V30 7004 H 641.633 -3.29728 1.84629 0
M  V30 7005 H 641.946 -6.41529 4.30883 0
M  V30 7006 H 640.291 -5.77332 3.86927 0
M  V30 7007 H 643.482 -4.04248 2.36012 0
M  V30 7008 H 643.655 -5.46444 3.48286 0
M  V30 7009 N 637.061 -0.65484 -1.43351 0
M  V30 7010 C 638.309 -0.168559 -2.01396 0
M  V30 7011 C 638.63 1.22235 -1.51933 0
M  V30 7012 O 637.9 1.81685 -0.732627 0
M  V30 7013 H 636.48 -0.0593244 -0.744641 0
M  V30 7014 H 639.142 -0.846871 -1.75539 0
M  V30 7015 H 638.238 -0.154428 -3.11718 0
M  V30 7016 N 638.539 1.52521 -0.396863 0
M  V30 7017 C 639.471 2.24333 0.469814 0
M  V30 7018 C 640.484 1.2685 1.02043 0
M  V30 7019 O 641.673 1.52876 0.92147 0
M  V30 7020 C 638.773 2.95202 1.66461 0
M  V30 7021 C 637.946 4.19454 1.24003 0
M  V30 7022 C 637.005 4.73255 2.30036 0
M  V30 7023 O 636.031 5.36151 1.91131 0
M  V30 7024 N 637.233 4.53765 3.62047 0
M  V30 7025 H 639.998 2.99347 -0.145468 0
M  V30 7026 H 637.559 1.60348 -0.223606 0
M  V30 7027 H 639.551 3.28092 2.36934 0
M  V30 7028 H 638.121 2.2345 2.18607 0
M  V30 7029 H 637.341 3.92517 0.363892 0
M  V30 7030 H 638.629 5.0017 0.933135 0
M  V30 7031 H 638.027 4.03576 3.96412 0
M  V30 7032 H 636.584 4.91124 4.28533 0
M  V30 7033 N 640.017 0.126909 1.57088 0
M  V30 7034 C 641.433 -0.229641 1.57939 0
M  V30 7035 C 641.633 -1.66145 1.1401 0
M  V30 7036 O 640.689 -2.3843 0.831119 0
M  V30 7037 C 642.002 0.0108648 3.00698 0
M  V30 7038 C 643.55 -0.054418 3.12953 0
M  V30 7039 C 644.025 0.158497 4.57726 0
M  V30 7040 N 645.516 0.104735 4.63082 0
M  V30 7041 C 646.251 0.24427 5.72879 0
M  V30 7042 N 645.747 0.440415 6.91399 0
M  V30 7043 N 647.54 0.183286 5.61801 0
M  V30 7044 H 639.691 1.06203 1.83942 0
M  V30 7045 H 641.954 0.418834 0.85046 0
M  V30 7046 H 641.66 1.00102 3.37154 0
M  V30 7047 H 641.534 -0.717512 3.70313 0
M  V30 7048 H 643.921 -1.0351 2.7635 0
M  V30 7049 H 644.002 0.705967 2.45865 0
M  V30 7050 H 643.646 1.13619 4.95028 0
M  V30 7051 H 643.576 -0.62197 5.22914 0
M  V30 7052 H 646.067 -0.0430298 3.77876 0
M  V30 7053 H 646.38 0.537536 7.70928 0
M  V30 7054 H 644.725 0.476488 6.93365 0
M  V30 7055 H 647.916 0.0309561 4.6809 0
M  V30 7056 H 648.089 0.295471 6.47326 0
M  V30 7057 N 641.495 -1.56914 -0.146875 0
M  V30 7058 C 642.741 -1.83628 -0.860741 0
M  V30 7059 C 643.074 -0.708528 -1.80813 0
M  V30 7060 O 642.349 0.287838 -1.92358 0
M  V30 7061 C 642.632 -3.20836 -1.63511 0
M  V30 7062 C 642.485 -4.44174 -0.709199 0
M  V30 7063 C 643.804 -3.55268 -2.59756 0
M  V30 7064 H 640.923 -0.667949 -0.311468 0
M  V30 7065 H 643.565 -1.89582 -0.125936 0
M  V30 7066 H 641.715 -3.15891 -2.26153 0
M  V30 7067 H 643.387 -4.61205 -0.0937781 0
M  V30 7068 H 641.63 -4.33796 -0.0187856 0
M  V30 7069 H 642.301 -5.36785 -1.28707 0
M  V30 7070 H 644.777 -3.60824 -2.07232 0
M  V30 7071 H 643.653 -4.52303 -3.10987 0
M  V30 7072 H 643.914 -2.81231 -3.41118 0
M  V30 7073 N 642.974 0.416227 -1.52004 0
M  V30 7074 C 644.251 1.17637 -1.56272 0
M  V30 7075 C 644.631 2.08352 -0.339493 0
M  V30 7076 O 643.979 2.1833 0.674124 0
M  V30 7077 C 644.189 1.95986 -2.88774 0
M  V30 7078 C 645.537 2.52299 -3.41512 0
M  V30 7079 O 646.561 2.06174 -2.90467 0
M  V30 7080 O 645.42 3.3648 -4.30631 0
M  V30 7081 H 642.514 0.536726 -0.629169 0
M  V30 7082 H 645.06 0.423583 -1.64329 0
M  V30 7083 H 643.832 1.29487 -3.69254 0
M  V30 7084 H 643.455 2.78285 -2.83978 0
M  V30 7085 N 644.452 1.42507 0.673017 0
M  V30 7086 C 645.68 1.46473 1.46128 0
M  V30 7087 C 646.095 0.0765912 1.88645 0
M  V30 7088 O 645.452 -0.909057 1.58248 0
M  V30 7089 C 645.503 2.39339 2.70923 0
M  V30 7090 O 645.224 3.72752 2.3019 0
M  V30 7091 C 646.725 2.52343 3.64469 0
M  V30 7092 H 643.945 0.49812 0.449575 0
M  V30 7093 H 646.489 1.87041 0.826802 0
M  V30 7094 H 644.644 2.02019 3.30556 0
M  V30 7095 H 645.058 4.22503 3.10791 0
M  V30 7096 H 646.532 3.2144 4.48754 0
M  V30 7097 H 647.009 1.56189 4.1049 0
M  V30 7098 H 647.615 2.90392 3.10729 0
M  V30 7099 N 645.93 -0.909495 1.28709 0
M  V30 7100 C 646.86 -2.0291 1.15542 0
M  V30 7101 C 647.841 -1.7002 0.0521017 0
M  V30 7102 O 649.026 -1.92835 0.229849 0
M  V30 7103 C 646.156 -3.37458 0.820935 0
M  V30 7104 C 645.11 -3.84524 1.87949 0
M  V30 7105 C 644.436 -5.16086 1.39854 0
M  V30 7106 C 645.736 -4.05918 3.28676 0
M  V30 7107 H 647.43 -2.14183 2.09203 0
M  V30 7108 H 644.976 -1.02913 1.00722 0
M  V30 7109 H 646.929 -4.1528 0.715571 0
M  V30 7110 H 645.653 -3.26249 -0.151374 0
M  V30 7111 H 644.312 -3.08911 1.97408 0
M  V30 7112 H 643.96 -5.01284 0.41518 0
M  V30 7113 H 643.66 -5.48547 2.1064 0
M  V30 7114 H 645.184 -5.96459 1.30649 0
M  V30 7115 H 646.598 -4.74252 3.22115 0
M  V30 7116 H 644.995 -4.49717 3.97334 0
M  V30 7117 H 646.065 -3.10583 3.72379 0
M  V30 7118 N 647.408 -1.11026 -1.11852 0
M  V30 7119 C 648.824 -0.843294 -1.35502 0
M  V30 7120 C 649.024 0.534179 -1.9429 0
M  V30 7121 O 648.08 1.28585 -2.17307 0
M  V30 7122 C 649.393 -1.94793 -2.29077 0
M  V30 7123 C 650.941 -1.97709 -2.42652 0
M  V30 7124 C 651.416 -3.07364 -3.39546 0
M  V30 7125 N 652.907 -3.0671 -3.47107 0
M  V30 7126 C 653.642 -3.88197 -4.22008 0
M  V30 7127 N 653.138 -4.79635 -4.99922 0
M  V30 7128 N 654.931 -3.76391 -4.17476 0
M  V30 7129 H 647.082 -1.99805 -0.720538 0
M  V30 7130 H 649.345 -0.868633 -0.379711 0
M  V30 7131 H 649.051 -2.93971 -1.93065 0
M  V30 7132 H 648.925 -1.84039 -3.29256 0
M  V30 7133 H 651.312 -0.991604 -2.77941 0
M  V30 7134 H 651.393 -2.1254 -1.4234 0
M  V30 7135 H 651.037 -4.06136 -3.04985 0
M  V30 7136 H 650.967 -2.89774 -4.39703 0
M  V30 7137 H 653.458 -2.40457 -2.91528 0
M  V30 7138 H 653.771 -5.38357 -5.54429 0
M  V30 7139 H 652.116 -4.8366 -4.99097 0
M  V30 7140 H 655.307 -3.04303 -3.55693 0
M  V30 7141 H 655.48 -4.40131 -4.75593 0
M  V30 7142 N 648.886 1.2938 -0.899927 0
M  V30 7143 C 650.297 1.77644 -0.574427 0
M  V30 7144 C 650.648 1.73824 0.909928 0
M  V30 7145 O 649.773 1.32429 1.71147 0
M  V30 7146 C 650.368 3.22573 -1.03595 0
M  V30 7147 C 648.927 3.68614 -0.76161 0
M  V30 7148 C 648.074 2.49483 -1.21052 0
M  V30 7149 H 651.025 1.16038 -1.08263 0
M  V30 7150 H 651.046 3.78684 -0.371337 0
M  V30 7151 H 650.558 3.25321 -2.11631 0
M  V30 7152 H 648.659 3.7134 0.306127 0
M  V30 7153 H 648.772 4.59402 -1.35965 0
M  V30 7154 H 647.136 2.46798 -0.629515 0
M  V30 7155 H 647.919 2.54959 -2.29893 0
M  V30 7156 N 650.364 0.662433 1.43002 0
M  V30 7157 C 651.612 0.179237 2.01304 0
M  V30 7158 C 651.933 -1.21428 1.52579 0
M  V30 7159 O 651.203 -1.81294 0.742252 0
M  V30 7160 H 649.783 0.0632725 0.744316 0
M  V30 7161 H 652.445 0.856169 1.75088 0
M  V30 7162 H 651.541 0.170957 3.11631 0
M  V30 7163 N 651.842 -1.52309 0.404946 0
M  V30 7164 C 652.774 -2.24579 -0.45791 0
M  V30 7165 C 653.787 -1.2739 -1.01369 0
M  V30 7166 O 654.976 -1.53363 -0.91335 0
M  V30 7167 C 652.076 -2.9608 -1.64893 0
M  V30 7168 C 651.249 -4.20106 -1.21777 0
M  V30 7169 C 650.308 -4.74468 -2.27523 0
M  V30 7170 O 649.334 -5.37157 -1.88285 0
M  V30 7171 N 650.536 -4.55678 -3.59635 0
M  V30 7172 H 653.301 -2.99265 0.161341 0
M  V30 7173 H 650.862 -1.60228 0.232107 0
M  V30 7174 H 652.854 -3.29344 -2.35191 0
M  V30 7175 H 651.424 -2.24606 -2.17419 0
M  V30 7176 H 650.644 -3.92704 -0.343071 0
M  V30 7177 H 651.932 -5.00658 -0.906596 0
M  V30 7178 H 651.33 -4.05673 -3.94266 0
M  V30 7179 H 649.887 -4.9339 -4.25922 0
M  V30 7180 N 653.32 -0.135238 -1.57019 0
M  V30 7181 C 654.568 0.51777 -1.95355 0
M  V30 7182 C 654.889 1.6617 -1.02042 0
M  V30 7183 O 654.159 1.95738 -0.0797343 0
M  V30 7184 H 652.739 0.194264 -0.721298 0
M  V30 7185 H 655.401 -0.207983 -1.93787 0
M  V30 7186 H 654.497 0.901675 -2.98791 0
M  V30 7187 N 654.798 1.5699 0.138552 0
M  V30 7188 C 656.044 1.84081 0.85099 0
M  V30 7189 C 656.377 0.718107 1.80435 0
M  V30 7190 O 655.652 -0.277633 1.92508 0
M  V30 7191 C 655.935 3.21699 1.61808 0
M  V30 7192 C 655.788 4.44544 0.685633 0
M  V30 7193 C 657.107 3.5664 2.57868 0
M  V30 7194 H 654.226 0.669592 0.307922 0
M  V30 7195 H 656.868 1.89646 0.11588 0
M  V30 7196 H 655.018 3.17086 2.24474 0
M  V30 7197 H 656.69 4.61248 0.0693179 0
M  V30 7198 H 654.933 4.338 -0.00421993 0
M  V30 7199 H 655.604 5.3746 1.25858 0
M  V30 7200 H 658.08 3.61918 2.05316 0
M  V30 7201 H 656.956 4.53946 3.08584 0
M  V30 7202 H 657.217 2.83036 3.39622 0
M  V30 7203 N 656.276 -0.40816 1.52223 0
M  V30 7204 C 657.524 -1.15274 1.66001 0
M  V30 7205 C 657.845 -1.91003 0.392803 0
M  V30 7206 O 657.115 -1.8673 -0.592336 0
M  V30 7207 H 655.695 -0.428526 0.611861 0
M  V30 7208 H 658.357 -0.46512 1.89269 0
M  V30 7209 H 657.453 -1.86628 2.50153 0
M  V30 7210 N 657.755 -1.42862 -0.66545 0
M  V30 7211 C 658.685 -1.49867 -1.79059 0
M  V30 7212 C 659.666 -0.354394 -1.66367 0
M  V30 7213 O 660.851 -0.569969 -1.85647 0
M  V30 7214 C 657.981 -1.40943 -3.17415 0
M  V30 7215 C 656.935 -2.53495 -3.44854 0
M  V30 7216 C 656.261 -2.29626 -4.82883 0
M  V30 7217 C 657.561 -3.95781 -3.40815 0
M  V30 7218 H 659.255 -2.44037 -1.73453 0
M  V30 7219 H 656.801 -1.17456 -0.833071 0
M  V30 7220 H 658.754 -1.4445 -3.95869 0
M  V30 7221 H 657.478 -0.432716 -3.23721 0
M  V30 7222 H 656.137 -2.4932 -2.68766 0
M  V30 7223 H 655.785 -1.30226 -4.8585 0
M  V30 7224 H 655.485 -3.05065 -5.02204 0
M  V30 7225 H 657.009 -2.34897 -5.63609 0
M  V30 7226 H 658.423 -4.01508 -4.09224 0
M  V30 7227 H 656.82 -4.71148 -3.71672 0
M  V30 7228 H 657.89 -4.21786 -2.39216 0
M  V30 7229 N 659.233 0.902656 -1.29189 0
M  V30 7230 C 660.196 1.98797 -1.14071 0
M  V30 7231 C 661.196 1.60615 -0.0770549 0
M  V30 7232 O 662.386 1.71165 -0.323753 0
M  V30 7233 C 659.518 3.32688 -0.743739 0
M  V30 7234 H 660.711 2.13637 -2.10473 0
M  V30 7235 H 658.264 1.08678 -1.12334 0
M  V30 7236 H 658.999 3.23549 0.220554 0
M  V30 7237 H 658.784 3.61765 -1.51223 0
M  V30 7238 H 660.274 4.12337 -0.660935 0
M  V30 7239 N 660.711 1.11618 1.11262 0
M  V30 7240 C 661.957 0.867463 1.83311 0
M  V30 7241 C 662.29 -0.605366 1.84524 0
M  V30 7242 O 661.565 -1.44704 1.29965 0
M  V30 7243 C 661.848 1.43207 3.30399 0
M  V30 7244 C 661.701 2.97265 3.3757 0
M  V30 7245 C 663.02 1.08454 4.26528 0
M  V30 7246 H 660.139 0.316578 0.665543 0
M  V30 7247 H 662.781 1.38137 1.30454 0
M  V30 7248 H 660.931 0.994982 3.75543 0
M  V30 7249 H 662.603 3.49591 3.00971 0
M  V30 7250 H 660.846 3.33237 2.77733 0
M  V30 7251 H 661.517 3.31859 4.41105 0
M  V30 7252 H 663.993 1.4619 3.89574 0
M  V30 7253 H 662.869 1.50633 5.27826 0
M  V30 7254 H 663.13 -0.00444568 4.421 0
M  V30 7255 N 662.189 -1.289 0.906776 0
M  V30 7256 C 663.152 -2.25777 0.394656 0
M  V30 7257 C 664.152 -1.53621 -0.475119 0
M  V30 7258 O 665.342 -1.71949 -0.279165 0
M  V30 7259 C 662.474 -3.38113 -0.43499 0
M  V30 7260 H 663.667 -2.72592 1.25033 0
M  V30 7261 H 661.22 -1.40463 0.685547 0
M  V30 7262 H 661.955 -2.96648 -1.31036 0
M  V30 7263 H 661.74 -3.91647 0.188334 0
M  V30 7264 H 663.23 -4.10168 -0.784365 0
M  V30 7265 N 663.667 -0.670007 -1.42649 0
M  V30 7266 C 665.083 -0.33911 -1.55956 0
M  V30 7267 C 665.283 1.1558 -1.65056 0
M  V30 7268 O 664.339 1.94111 -1.61485 0
M  V30 7269 C 665.652 -1.06522 -2.812 0
M  V30 7270 C 667.2 -1.04708 -2.94966 0
M  V30 7271 C 667.675 -1.75442 -4.23065 0
M  V30 7272 N 669.166 -1.72286 -4.29967 0
M  V30 7273 C 669.901 -2.23877 -5.27889 0
M  V30 7274 N 669.397 -2.83829 -6.31991 0
M  V30 7275 N 671.19 -2.14279 -5.19654 0
M  V30 7276 H 663.341 -1.6399 -1.34986 0
M  V30 7277 H 665.604 -0.690603 -0.649439 0
M  V30 7278 H 665.31 -2.12033 -2.80597 0
M  V30 7279 H 665.184 -0.627398 -3.71946 0
M  V30 7280 H 667.571 -0.000315966 -2.951 0
M  V30 7281 H 667.652 -1.52374 -2.05465 0
M  V30 7282 H 667.296 -2.80084 -4.23693 0
M  V30 7283 H 667.226 -1.25229 -5.11493 0
M  V30 7284 H 669.717 -1.28554 -3.55362 0
M  V30 7285 H 670.03 -3.20827 -7.03057 0
M  V30 7286 H 668.375 -2.87896 -6.32567 0
M  V30 7287 H 671.566 -1.67135 -4.37245 0
M  V30 7288 H 671.739 -2.54792 -5.95806 0
M  V30 7289 N 665.145 1.52092 -0.413018 0
M  V30 7290 C 666.055 2.30858 0.417318 0
M  V30 7291 C 667.071 1.38746 1.05003 0
M  V30 7292 O 668.247 1.71821 1.05069 0
M  V30 7293 C 665.312 3.11756 1.51687 0
M  V30 7294 C 664.373 4.19613 0.906825 0
M  V30 7295 C 663.606 4.96644 1.95399 0
M  V30 7296 O 663.829 4.7402 3.17271 0
M  V30 7297 O 662.763 5.81385 1.55805 0
M  V30 7298 H 666.589 3.02865 -0.225028 0
M  V30 7299 H 664.174 1.48358 -0.176126 0
M  V30 7300 H 666.056 3.62122 2.15512 0
M  V30 7301 H 664.731 2.42539 2.14375 0
M  V30 7302 H 663.638 3.73385 0.231183 0
M  V30 7303 H 664.971 4.91134 0.323814 0
M  V30 7304 N 666.623 0.143563 1.56945 0
M  V30 7305 C 667.872 -0.50835 1.95189 0
M  V30 7306 C 668.185 -1.66239 1.03073 0
M  V30 7307 O 669.391 -2.3787 1.30882 0
M  V30 7308 C 667.847 -0.955735 3.46978 0
M  V30 7309 C 667.455 0.171183 4.47673 0
M  V30 7310 C 669.199 -1.57763 3.94095 0
M  V30 7311 C 667.106 -0.294279 5.90667 0
M  V30 7312 H 666.036 -0.193679 0.728701 0
M  V30 7313 H 668.687 0.227357 1.82086 0
M  V30 7314 H 667.069 -1.7466 3.55401 0
M  V30 7315 H 668.243 0.948049 4.50942 0
M  V30 7316 H 666.558 0.701273 4.10452 0
M  V30 7317 H 669.155 -1.93745 4.98364 0
M  V30 7318 H 669.498 -2.46531 3.35452 0
M  V30 7319 H 670.031 -0.851728 3.88575 0
M  V30 7320 H 666.77 0.557939 6.53121 0
M  V30 7321 H 666.29 -1.0371 5.90766 0
M  V30 7322 H 667.969 -0.747426 6.42668 0
M  V30 7323 N 668.101 -1.57061 -0.130224 0
M  V30 7324 C 669.329 -1.88432 -0.854456 0
M  V30 7325 C 669.744 -0.733608 -1.73964 0
M  V30 7326 O 669.101 0.296029 -1.80083 0
M  V30 7327 C 669.152 -3.1918 -1.69724 0
M  V30 7328 O 668.873 -4.2982 -0.847705 0
M  V30 7329 C 670.374 -3.6418 -2.5276 0
M  V30 7330 H 667.594 -0.624193 -0.246221 0
M  V30 7331 H 670.138 -2.04159 -0.11798 0
M  V30 7332 H 668.293 -3.05156 -2.3866 0
M  V30 7333 H 668.707 -5.04689 -1.42792 0
M  V30 7334 H 670.181 -4.58457 -3.07443 0
M  V30 7335 H 670.658 -2.90285 -3.29592 0
M  V30 7336 H 671.264 -3.80954 -1.89087 0
M  V30 7337 N 669.579 0.400081 -1.52437 0
M  V30 7338 C 670.489 1.51253 -1.79331 0
M  V30 7339 C 671.505 1.60188 -0.679396 0
M  V30 7340 O 672.681 1.76733 -0.965791 0
M  V30 7341 C 669.746 2.869 -1.94652 0
M  V30 7342 C 668.807 2.87777 -3.18564 0
M  V30 7343 C 668.04 4.16954 -3.33145 0
M  V30 7344 O 668.263 5.11329 -2.52783 0
M  V30 7345 O 667.197 4.2487 -4.26343 0
M  V30 7346 H 671.023 1.31461 -2.73773 0
M  V30 7347 H 668.608 0.586834 -1.37392 0
M  V30 7348 H 670.49 3.67336 -2.065 0
M  V30 7349 H 669.165 3.06741 -1.034 0
M  V30 7350 H 668.072 2.06162 -3.12167 0
M  V30 7351 H 669.405 2.72886 -4.09627 0
M  V30 7352 N 671.057 1.43213 0.657864 0
M  V30 7353 C 671.989 1.43974 1.78337 0
M  V30 7354 C 673.002 0.336482 1.59285 0
M  V30 7355 O 674.191 0.600631 1.68091 0
M  V30 7356 C 671.291 1.23242 3.15697 0
M  V30 7357 C 670.464 2.46319 3.61449 0
M  V30 7358 C 669.523 2.2088 4.77597 0
M  V30 7359 O 668.549 2.942 4.87273 0
M  V30 7360 N 669.751 1.22251 5.67481 0
M  V30 7361 H 672.516 2.40993 1.78164 0
M  V30 7362 H 670.077 1.3831 0.841549 0
M  V30 7363 H 672.069 1.04113 3.91079 0
M  V30 7364 H 670.639 0.346849 3.1067 0
M  V30 7365 H 669.859 2.80904 2.76563 0
M  V30 7366 H 671.147 3.28239 3.88763 0
M  V30 7367 H 670.545 0.616433 5.62331 0
M  V30 7368 H 669.102 1.09107 6.42603 0
M  V30 7369 N 672.536 -0.895792 1.29666 0
M  V30 7370 C 673.766 -1.67757 1.20586 0
M  V30 7371 C 674.174 -1.87729 -0.235432 0
M  V30 7372 O 673.517 -1.41706 -1.16898 0
M  V30 7373 C 673.579 -3.08117 1.85215 0
M  V30 7374 C 673.243 -3.1136 3.3452 0
M  V30 7375 C 674.24 -2.91217 4.30684 0
M  V30 7376 C 671.925 -3.33302 3.75786 0
M  V30 7377 C 673.919 -2.92955 5.66089 0
M  V30 7378 C 671.606 -3.3467 5.11311 0
M  V30 7379 C 672.604 -3.14519 6.06273 0
M  V30 7380 O 672.292 -3.15684 7.39323 0
M  V30 7381 H 672.024 -0.530601 0.418854 0
M  V30 7382 H 674.578 -1.12831 1.71634 0
M  V30 7383 H 672.808 -3.64661 1.28683 0
M  V30 7384 H 674.497 -3.68399 1.70403 0
M  V30 7385 H 675.263 -2.74074 4.00136 0
M  V30 7386 H 671.142 -3.48025 3.02324 0
M  V30 7387 H 674.686 -2.77145 6.40185 0
M  V30 7388 H 670.583 -3.51346 5.41504 0
M  V30 7389 H 671.351 -3.31924 7.48177 0
M  V30 7390 N 674.014 -1.12206 -1.10668 0
M  V30 7391 C 674.924 -0.800686 -2.20513 0
M  V30 7392 C 675.94 0.209512 -1.72734 0
M  V30 7393 O 677.116 0.043705 -2.01353 0
M  V30 7394 C 674.181 -0.257353 -3.45744 0
M  V30 7395 C 673.242 -1.32718 -4.0827 0
M  V30 7396 C 672.475 -0.809674 -5.27522 0
M  V30 7397 O 672.698 0.35742 -5.69279 0
M  V30 7398 O 671.632 -1.57816 -5.80842 0
M  V30 7399 H 675.458 -1.71807 -2.50432 0
M  V30 7400 H 673.043 -0.898546 -1.19359 0
M  V30 7401 H 674.925 0.0408849 -4.2138 0
M  V30 7402 H 673.6 0.632627 -3.17458 0
M  V30 7403 H 672.507 -1.67855 -3.34329 0
M  V30 7404 H 673.84 -2.19083 -4.40753 0
M  V30 7405 N 675.492 1.28418 -0.913599 0
M  V30 7406 C 676.74 1.94596 -0.545594 0
M  V30 7407 C 677.061 1.7227 0.913668 0
M  V30 7408 O 676.331 1.06233 1.64595 0
M  V30 7409 H 674.911 0.720065 -0.198783 0
M  V30 7410 H 677.573 1.56404 -1.16292 0
M  V30 7411 H 676.669 3.03202 -0.739911 0
M  V30 7412 N 676.97 0.677563 1.42291 0
M  V30 7413 C 677.917 0.000947061 2.308 0
M  V30 7414 C 678.887 -0.789889 1.46116 0
M  V30 7415 O 680.072 -0.761578 1.74942 0
M  V30 7416 C 677.212 -0.942387 3.31984 0
M  V30 7417 C 676.325 -0.14508 4.31756 0
M  V30 7418 C 675.46 -1.08442 5.20013 0
M  V30 7419 C 674.499 -0.278958 6.11464 0
M  V30 7420 N 673.636 -1.17115 6.92263 0
M  V30 7421 H 678.476 0.761521 2.88106 0
M  V30 7422 H 676.013 0.38727 1.41911 0
M  V30 7423 H 677.971 -1.50317 3.89179 0
M  V30 7424 H 676.601 -1.66956 2.76271 0
M  V30 7425 H 675.653 0.532368 3.76656 0
M  V30 7426 H 676.965 0.48015 4.96484 0
M  V30 7427 H 676.119 -1.71504 5.81955 0
M  V30 7428 H 674.858 -1.74353 4.55469 0
M  V30 7429 H 673.863 0.364856 5.48588 0
M  V30 7430 H 675.088 0.376099 6.78058 0
M  V30 7431 H 673.034 -1.81661 6.30345 0
M  V30 7432 H 672.951 -0.601063 7.53607 0
M  V30 7433 H 674.219 -1.78915 7.58689 0
M  V30 7434 N 678.448 -1.51871 0.421078 0
M  V30 7435 C 679.697 -2.01125 -0.152206 0
M  V30 7436 C 680.01 -1.3106 -1.45199 0
M  V30 7437 O 681.216 -1.71195 -2.10724 0
M  V30 7438 C 679.672 -3.58458 -0.3218 0
M  V30 7439 C 679.28 -4.37448 0.96659 0
M  V30 7440 C 681.024 -4.15908 -0.84973 0
M  V30 7441 C 678.931 -5.86451 0.763529 0
M  V30 7442 H 677.861 -0.751556 -0.0606565 0
M  V30 7443 H 680.512 -1.75115 0.548354 0
M  V30 7444 H 678.894 -3.80847 -1.08498 0
M  V30 7445 H 680.068 -4.26814 1.73684 0
M  V30 7446 H 678.383 -3.91373 1.42183 0
M  V30 7447 H 680.98 -5.24922 -1.01788 0
M  V30 7448 H 681.323 -3.74031 -1.82774 0
M  V30 7449 H 681.856 -3.97535 -0.145297 0
M  V30 7450 H 678.595 -6.3271 1.71344 0
M  V30 7451 H 678.115 -5.99791 0.0327889 0
M  V30 7452 H 679.794 -6.45697 0.410354 0
M  V30 7453 N 679.926 -0.151884 -1.56866 0
M  V30 7454 C 681.172 0.498742 -1.96572 0
M  V30 7455 C 681.505 1.64194 -1.03702 0
M  V30 7456 O 680.78 1.94334 -0.0803432 0
M  V30 7457 C 681.063 1.00027 -3.45929 0
M  V30 7458 C 680.916 -0.141767 -4.49577 0
M  V30 7459 C 682.235 1.88044 -3.97904 0
M  V30 7460 H 679.354 0.17982 -0.714726 0
M  V30 7461 H 681.996 -0.234097 -1.88552 0
M  V30 7462 H 680.146 1.62476 -3.52894 0
M  V30 7463 H 681.818 -0.778269 -4.54687 0
M  V30 7464 H 680.061 -0.80019 -4.26356 0
M  V30 7465 H 680.732 0.250947 -5.51429 0
M  V30 7466 H 683.208 1.35416 -3.93449 0
M  V30 7467 H 682.084 2.20043 -5.02864 0
M  V30 7468 H 682.345 2.81916 -3.40552 0
M  V30 7469 N 681.404 1.57128 0.121893 0
M  V30 7470 C 682.367 1.99197 1.13372 0
M  V30 7471 C 683.367 0.881728 1.3447 0
M  V30 7472 O 684.557 1.14783 1.31036 0
M  V30 7473 C 681.689 2.32963 2.4888 0
M  V30 7474 H 682.882 2.89788 0.772204 0
M  V30 7475 H 680.435 1.51952 0.366093 0
M  V30 7476 H 681.17 1.45243 2.89957 0
M  V30 7477 H 680.955 3.13934 2.34921 0
M  V30 7478 H 682.445 2.66261 3.21706 0
M  V30 7479 N 682.882 -0.391992 1.52647 0
M  V30 7480 C 684.13 -1.13507 1.67214 0
M  V30 7481 C 684.451 -1.90575 0.41304 0
M  V30 7482 O 683.721 -1.87348 -0.572498 0
M  V30 7483 H 682.301 -0.422013 0.616372 0
M  V30 7484 H 684.963 -0.44502 1.89751 0
M  V30 7485 H 684.059 -1.83964 2.52118 0
M  V30 7486 N 684.36 -1.4356 -0.65026 0
M  V30 7487 C 685.27 -1.514 -1.79207 0
M  V30 7488 C 686.286 -0.400895 -1.69319 0
M  V30 7489 O 687.462 -0.655458 -1.90436 0
M  V30 7490 C 684.527 -1.43737 -3.155 0
M  V30 7491 C 683.588 -2.65743 -3.37163 0
M  V30 7492 C 682.821 -2.58436 -4.66954 0
M  V30 7493 O 683.044 -1.63374 -5.46503 0
M  V30 7494 O 681.978 -3.48984 -4.90402 0
M  V30 7495 H 685.804 -2.47825 -1.75547 0
M  V30 7496 H 683.389 -1.25594 -0.809111 0
M  V30 7497 H 685.271 -1.41916 -3.96784 0
M  V30 7498 H 683.946 -0.504488 -3.19745 0
M  V30 7499 H 682.853 -2.73136 -2.55632 0
M  V30 7500 H 684.186 -3.58014 -3.37768 0
M  V30 7501 N 685.838 0.888903 -1.30139 0
M  V30 7502 C 687.063 1.67884 -1.21777 0
M  V30 7503 C 687.488 1.86848 0.216689 0
M  V30 7504 O 686.846 1.39659 1.15608 0
M  V30 7505 C 686.894 3.03483 -1.94757 0
M  V30 7506 O 685.998 3.92294 -1.27198 0
M  V30 7507 H 685.339 0.513144 -0.421402 0
M  V30 7508 H 687.869 1.10968 -1.71893 0
M  V30 7509 H 687.879 3.53553 -2.03627 0
M  V30 7510 H 686.554 2.89 -2.99085 0
M  V30 7511 H 685.131 3.50732 -1.26655 0
M  V30 7512 N 687.317 1.12792 1.10072 0
M  V30 7513 C 688.25 0.742921 2.15768 0
M  V30 7514 C 689.228 -0.267714 1.60381 0
M  V30 7515 O 690.412 -0.160782 1.87813 0
M  V30 7516 C 687.539 0.100244 3.38552 0
M  V30 7517 C 686.585 1.07831 4.12644 0
M  V30 7518 S 687.418 2.60765 4.6772 0
M  V30 7519 C 688.574 1.97838 5.9381 0
M  V30 7520 H 688.807 1.63822 2.48092 0
M  V30 7521 H 686.34 0.947385 1.21918 0
M  V30 7522 H 688.298 -0.264175 4.09649 0
M  V30 7523 H 686.959 -0.772223 3.04459 0
M  V30 7524 H 686.152 0.576325 5.00694 0
M  V30 7525 H 685.754 1.38586 3.47376 0
M  V30 7526 H 688.046 1.32341 6.64449 0
M  V30 7527 H 688.989 2.83943 6.48677 0
M  V30 7528 H 689.397 1.43267 5.46017 0
M  V30 7529 N 688.795 -1.27931 0.920396 0
M  V30 7530 C 689.725 -2.29487 0.431024 0
M  V30 7531 C 690.706 -1.62435 -0.504861 0
M  V30 7532 O 691.891 -1.89797 -0.411176 0
M  V30 7533 C 689.021 -3.45788 -0.323709 0
M  V30 7534 C 687.975 -4.24784 0.523658 0
M  V30 7535 C 687.301 -5.33488 -0.359809 0
M  V30 7536 C 688.601 -4.90874 1.78437 0
M  V30 7537 H 690.295 -2.70671 1.27975 0
M  V30 7538 H 687.841 -1.30121 0.616813 0
M  V30 7539 H 689.794 -4.15927 -0.676952 0
M  V30 7540 H 688.518 -3.03502 -1.2064 0
M  V30 7541 H 687.177 -3.56382 0.85951 0
M  V30 7542 H 686.825 -4.87445 -1.24124 0
M  V30 7543 H 686.525 -5.87247 0.203605 0
M  V30 7544 H 688.049 -6.06472 -0.708787 0
M  V30 7545 H 689.463 -5.53339 1.49963 0
M  V30 7546 H 687.86 -5.54659 2.29071 0
M  V30 7547 H 688.93 -4.14988 2.50824 0
M  V30 7548 N 690.273 -0.685099 -1.4193 0
M  V30 7549 C 691.521 -0.21124 -2.00993 0
M  V30 7550 C 691.842 1.18985 -1.54491 0
M  V30 7551 O 691.112 1.8009 -0.771 0
M  V30 7552 H 689.692 -0.0751059 -0.743215 0
M  V30 7553 H 692.354 -0.883915 -1.73704 0
M  V30 7554 H 691.45 -0.220513 -3.1132 0
M  V30 7555 N 691.751 1.51645 -0.429126 0
M  V30 7556 C 692.999 2.01616 0.139802 0
M  V30 7557 C 693.32 1.31568 1.43927 0
M  V30 7558 O 692.59 0.447688 1.90716 0
M  V30 7559 H 691.17 0.744998 0.054654 0
M  V30 7560 H 693.832 1.8638 -0.569952 0
M  V30 7561 H 692.928 3.10439 0.321609 0
M  V30 7562 N 693.229 0.160201 1.56784 0
M  V30 7563 C 694.192 -0.760405 2.16219 0
M  V30 7564 C 695.192 -1.16595 1.10735 0
M  V30 7565 O 696.382 -1.08472 1.36306 0
M  V30 7566 C 693.514 -2.03358 2.73603 0
M  V30 7567 H 694.707 -0.243173 2.98912 0
M  V30 7568 H 692.26 -0.0893139 1.56045 0
M  V30 7569 H 692.995 -2.59416 1.94612 0
M  V30 7570 H 692.78 -1.75186 3.50788 0
M  V30 7571 H 694.27 -2.69081 3.19351 0
M  V30 7572 N 694.707 -1.5719 -0.113559 0
M  V30 7573 C 696.123 -1.52607 -0.467253 0
M  V30 7574 C 696.323 -0.874058 -1.81556 0
M  V30 7575 O 695.379 -0.458703 -2.48299 0
M  V30 7576 C 696.692 -2.97363 -0.446736 0
M  V30 7577 C 698.24 -3.08482 -0.529903 0
M  V30 7578 C 698.715 -4.54809 -0.539721 0
M  V30 7579 N 700.206 -4.59284 -0.601005 0
M  V30 7580 C 700.941 -5.69927 -0.630138 0
M  V30 7581 N 700.437 -6.90051 -0.616589 0
M  V30 7582 N 702.23 -5.5805 -0.673558 0
M  V30 7583 H 694.381 -1.97958 0.769819 0
M  V30 7584 H 696.644 -0.90428 0.284572 0
M  V30 7585 H 696.35 -3.48458 0.47643 0
M  V30 7586 H 696.224 -3.55086 -1.27254 0
M  V30 7587 H 698.611 -2.57386 -1.44349 0
M  V30 7588 H 698.692 -2.53744 0.323695 0
M  V30 7589 H 698.336 -5.06552 0.369843 0
M  V30 7590 H 698.266 -5.07364 -1.41028 0
M  V30 7591 H 700.757 -3.72822 -0.617419 0
M  V30 7592 H 701.07 -7.70132 -0.641592 0
M  V30 7593 H 699.415 -6.92543 -0.583927 0
M  V30 7594 H 702.606 -4.63112 -0.681544 0
M  V30 7595 H 702.779 -6.44286 -0.692794 0
M  V30 7596 N 696.185 0.383891 -1.52853 0
M  V30 7597 C 697.118 1.49105 -1.72751 0
M  V30 7598 C 698.096 1.52077 -0.575438 0
M  V30 7599 O 699.28 1.70406 -0.805854 0
M  V30 7600 C 696.407 2.87551 -1.78975 0
M  V30 7601 C 695.453 3.02383 -3.00777 0
M  V30 7602 S 696.286 2.73048 -4.60657 0
M  V30 7603 C 697.442 4.13678 -4.69704 0
M  V30 7604 H 697.675 1.32002 -2.66388 0
M  V30 7605 H 695.208 0.577088 -1.4321 0
M  V30 7606 H 697.166 3.6733 -1.83246 0
M  V30 7607 H 695.827 3.01977 -0.864215 0
M  V30 7608 H 695.02 4.03733 -3.01688 0
M  V30 7609 H 694.622 2.30504 -2.94523 0
M  V30 7610 H 696.914 5.07676 -4.48633 0
M  V30 7611 H 697.857 4.1778 -5.71721 0
M  V30 7612 H 698.265 3.99825 -3.98497 0
M  V30 7613 N 697.663 1.43903 0.642637 0
M  V30 7614 C 698.573 1.52349 1.78401 0
M  V30 7615 C 699.589 0.409869 1.69104 0
M  V30 7616 O 700.765 0.665548 1.90085 0
M  V30 7617 C 697.83 1.45408 3.14734 0
M  V30 7618 C 696.891 2.67528 3.35749 0
M  V30 7619 C 696.124 2.60909 4.65577 0
M  V30 7620 O 696.347 1.6627 5.45628 0
M  V30 7621 O 695.281 3.5158 4.88544 0
M  V30 7622 H 699.107 2.48752 1.7423 0
M  V30 7623 H 696.692 1.26021 0.802439 0
M  V30 7624 H 698.574 1.44019 3.96026 0
M  V30 7625 H 697.249 0.521437 3.19473 0
M  V30 7626 H 696.156 2.74487 2.5418 0
M  V30 7627 H 697.489 3.598 3.35864 0
M  V30 7628 N 699.141 -0.881989 1.30609 0
M  V30 7629 C 700.387 -1.63647 1.19781 0
M  V30 7630 C 700.72 -1.92632 -0.246265 0
M  V30 7631 O 699.995 -1.54938 -1.17577 0
M  V30 7632 C 700.278 -2.97437 2.02985 0
M  V30 7633 C 700.131 -2.75406 3.55628 0
M  V30 7634 C 701.45 -3.98397 1.86997 0
M  V30 7635 H 698.569 -0.593841 0.436488 0
M  V30 7636 H 701.211 -1.02041 1.60273 0
M  V30 7637 H 699.361 -3.50018 1.68581 0
M  V30 7638 H 701.033 -2.2959 4.00107 0
M  V30 7639 H 699.276 -2.09856 3.79662 0
M  V30 7640 H 699.947 -3.70552 4.09139 0
M  V30 7641 H 702.423 -3.54986 2.17081 0
M  V30 7642 H 701.299 -4.89916 2.47536 0
M  V30 7643 H 701.56 -4.3424 0.829943 0
M  V30 7644 N 700.619 -1.13374 -1.09472 0
M  V30 7645 C 701.868 -0.889844 -1.8101 0
M  V30 7646 C 702.181 0.585686 -1.86625 0
M  V30 7647 O 703.387 0.946497 -2.54467 0
M  V30 7648 C 701.843 -1.54241 -3.25174 0
M  V30 7649 C 701.451 -3.05343 -3.27826 0
M  V30 7650 C 703.195 -1.37919 -4.0147 0
M  V30 7651 C 701.102 -3.63486 -4.6651 0
M  V30 7652 H 700.032 -0.329256 -0.678311 0
M  V30 7653 H 702.683 -1.36139 -1.23038 0
M  V30 7654 H 701.065 -0.998525 -3.83204 0
M  V30 7655 H 702.239 -3.66307 -2.79563 0
M  V30 7656 H 700.554 -3.21175 -2.65019 0
M  V30 7657 H 703.151 -1.78771 -5.03929 0
M  V30 7658 H 703.494 -0.323987 -4.15037 0
M  V30 7659 H 704.027 -1.89284 -3.49881 0
M  V30 7660 H 700.766 -4.68811 -4.58145 0
M  V30 7661 H 700.286 -3.073 -5.15099 0
M  V30 7662 H 701.965 -3.63134 -5.35484 0
M  V30 7663 N 702.098 1.27442 -0.927168 0
M  V30 7664 C 703.345 1.94391 -0.567324 0
M  V30 7665 C 703.673 1.72875 0.891321 0
M  V30 7666 O 702.928 1.05071 1.65102 0
M  V30 7667 C 703.227 3.47413 -0.838994 0
M  V30 7668 C 702.893 3.89049 -2.2793 0
M  V30 7669 C 701.555 4.00127 -2.67305 0
M  V30 7670 C 703.907 4.10154 -3.21595 0
M  V30 7671 C 701.235 4.29697 -3.99471 0
M  V30 7672 C 703.587 4.41208 -4.53341 0
M  V30 7673 C 702.251 4.50499 -4.92551 0
M  V30 7674 H 701.521 0.711325 -0.207598 0
M  V30 7675 H 704.168 1.51523 -1.17103 0
M  V30 7676 H 702.473 3.91503 -0.152609 0
M  V30 7677 H 704.17 3.97354 -0.53955 0
M  V30 7678 H 700.76 3.80962 -1.96381 0
M  V30 7679 H 704.944 4.01036 -2.92377 0
M  V30 7680 H 700.2 4.35099 -4.29533 0
M  V30 7681 H 704.374 4.56486 -5.25922 0
M  V30 7682 H 702.001 4.73167 -5.94994 0
M  V30 7683 N 703.576 0.692616 1.41565 0
M  V30 7684 C 704.824 0.221896 2.00878 0
M  V30 7685 C 705.145 -1.18164 1.5512 0
M  V30 7686 O 704.415 -1.79679 0.78054 0
M  V30 7687 H 702.995 0.0790463 0.742806 0
M  V30 7688 H 705.657 0.893115 1.73232 0
M  V30 7689 H 704.753 0.23702 3.11199 0
M  V30 7690 N 705.054 -1.51416 0.437162 0
M  V30 7691 C 706.47 -1.59349 0.0894459 0
M  V30 7692 C 706.67 -1.44809 -1.40116 0
M  V30 7693 O 705.726 -1.28924 -2.17106 0
M  V30 7694 C 707.039 -2.9446 0.609398 0
M  V30 7695 C 708.587 -3.07769 0.569824 0
M  V30 7696 C 709.062 -4.45404 1.06675 0
M  V30 7697 N 710.553 -4.51723 1.02473 0
M  V30 7698 C 711.288 -5.56544 1.3801 0
M  V30 7699 N 710.784 -6.68784 1.80831 0
M  V30 7700 N 712.577 -5.46901 1.29828 0
M  V30 7701 H 704.728 -1.59112 1.40703 0
M  V30 7702 H 706.991 -0.750031 0.579791 0
M  V30 7703 H 706.697 -3.1047 1.65231 0
M  V30 7704 H 706.571 -3.77184 0.0342236 0
M  V30 7705 H 708.958 -2.91428 -0.464107 0
M  V30 7706 H 709.039 -2.26885 1.1814 0
M  V30 7707 H 708.683 -4.62492 2.09914 0
M  V30 7708 H 708.613 -5.24827 0.431712 0
M  V30 7709 H 711.104 -3.71165 0.710258 0
M  V30 7710 H 711.417 -7.44787 2.06185 0
M  V30 7711 H 709.762 -6.69992 1.84757 0
M  V30 7712 H 712.953 -4.581 0.962397 0
M  V30 7713 H 713.126 -6.2848 1.57851 0
M  V30 7714 N 706.532 -0.168513 -1.56696 0
M  V30 7715 C 707.464 0.794249 -2.14998 0
M  V30 7716 C 708.477 1.1957 -1.10485 0
M  V30 7717 O 709.666 1.13604 -1.37682 0
M  V30 7718 C 706.766 2.08018 -2.67547 0
M  V30 7719 C 705.939 1.84274 -3.96689 0
M  V30 7720 C 704.998 2.97059 -4.3433 0
M  V30 7721 O 704.024 2.67815 -5.02259 0
M  V30 7722 N 705.226 4.24775 -3.9566 0
M  V30 7723 H 707.991 0.295832 -2.98236 0
M  V30 7724 H 705.552 0.0143611 -1.61894 0
M  V30 7725 H 707.544 2.82559 -2.89729 0
M  V30 7726 H 706.114 2.49059 -1.88914 0
M  V30 7727 H 705.334 0.936528 -3.82914 0
M  V30 7728 H 706.622 1.65773 -4.81037 0
M  V30 7729 H 706.02 4.51395 -3.40968 0
M  V30 7730 H 704.577 4.96027 -4.22848 0
M  V30 7731 N 708.01 1.57248 0.105221 0
M  V30 7732 C 708.96 1.9777 1.1345 0
M  V30 7733 C 709.944 0.854654 1.36325 0
M  V30 7734 O 711.136 1.11844 1.37186 0
M  V30 7735 C 708.265 2.39717 2.45745 0
M  V30 7736 C 707.351 3.58686 2.26286 0
M  V30 7737 N 707.742 4.73942 1.76671 0
M  V30 7738 C 706.04 3.64586 2.56891 0
M  V30 7739 C 706.741 5.55923 1.71245 0
M  V30 7740 N 705.717 4.98803 2.16093 0
M  V30 7741 H 709.519 2.84336 0.743664 0
M  V30 7742 H 707.033 1.59359 0.312787 0
M  V30 7743 H 709.03 2.66971 3.20206 0
M  V30 7744 H 707.69 1.54523 2.85574 0
M  V30 7745 H 708.701 4.9689 1.46016 0
M  V30 7746 H 705.378 2.90031 3.00314 0
M  V30 7747 H 706.768 6.58398 1.34022 0
M  V30 7748 N 709.488 -0.375779 1.53054 0
M  V30 7749 C 710.713 -1.14484 1.7294 0
M  V30 7750 C 711.138 -1.82572 0.452668 0
M  V30 7751 O 710.496 -1.71343 -0.592567 0
M  V30 7752 C 710.544 -2.15857 2.88857 0
M  V30 7753 O 709.648 -3.22725 2.56753 0
M  V30 7754 H 708.989 -0.332666 0.574656 0
M  V30 7755 H 711.519 -0.436025 1.999 0
M  V30 7756 H 711.529 -2.59631 3.14731 0
M  V30 7757 H 710.204 -1.65689 3.81471 0
M  V30 7758 H 708.781 -2.83996 2.41663 0
M  V30 7759 N 710.966 -1.44241 -0.634997 0
M  V30 7760 C 711.929 -1.50457 -1.72903 0
M  V30 7761 C 712.929 -0.387058 -1.56072 0
M  V30 7762 O 714.119 -0.649531 -1.61638 0
M  V30 7763 C 711.251 -1.37477 -3.1195 0
M  V30 7764 H 712.444 -2.47907 -1.68767 0
M  V30 7765 H 709.997 -1.31276 -0.84831 0
M  V30 7766 H 710.732 -0.41106 -3.21684 0
M  V30 7767 H 710.517 -2.18506 -3.25573 0
M  V30 7768 H 712.007 -1.44799 -3.91692 0
M  V30 7769 N 712.444 0.87505 -1.31075 0
M  V30 7770 C 713.855 1.4433 -1.18431 0
M  V30 7771 C 714.206 1.9506 0.211189 0
M  V30 7772 O 713.331 1.85847 1.10859 0
M  V30 7773 C 713.926 2.62341 -2.14389 0
M  V30 7774 C 712.485 3.15225 -2.05694 0
M  V30 7775 C 711.632 1.87929 -2.03907 0
M  V30 7776 H 714.583 0.684061 -1.432 0
M  V30 7777 H 714.604 3.3887 -1.73053 0
M  V30 7778 H 714.116 2.25388 -3.15946 0
M  V30 7779 H 712.217 3.56812 -1.07314 0
M  V30 7780 H 712.33 3.77853 -2.94558 0
M  V30 7781 H 710.694 2.06679 -1.48849 0
M  V30 7782 H 711.477 1.53221 -3.07211 0
M  V30 7783 N 713.922 1.13953 1.08869 0
M  V30 7784 C 714.869 0.82213 2.15661 0
M  V30 7785 C 715.839 -0.218274 1.6466 0
M  V30 7786 O 717.024 -0.0892475 1.90591 0
M  V30 7787 C 714.164 0.300572 3.43789 0
M  V30 7788 C 713.277 1.40071 4.08661 0
M  V30 7789 C 712.412 0.836897 5.24566 0
M  V30 7790 C 711.451 1.91504 5.81371 0
M  V30 7791 N 710.588 1.36875 6.88629 0
M  V30 7792 H 715.428 1.73683 2.42153 0
M  V30 7793 H 712.965 0.866879 1.18843 0
M  V30 7794 H 714.923 -0.0199943 4.17195 0
M  V30 7795 H 713.553 -0.577248 3.17597 0
M  V30 7796 H 712.605 1.83776 3.33062 0
M  V30 7797 H 713.917 2.21534 4.46905 0
M  V30 7798 H 713.071 0.467953 6.04893 0
M  V30 7799 H 711.81 -0.00874207 4.87699 0
M  V30 7800 H 710.815 2.29299 4.99702 0
M  V30 7801 H 712.04 2.76419 6.20298 0
M  V30 7802 H 709.986 0.545211 6.5373 0
M  V30 7803 H 709.903 2.1198 7.25672 0
M  V30 7804 H 711.171 1.02756 7.72698 0
M  V30 7805 N 715.4 -1.26948 0.933913 0
M  V30 7806 C 716.677 -1.89212 0.495784 0
M  V30 7807 C 717.057 -1.84469 -1.02637 0
M  V30 7808 O 716.405 -1.29409 -1.88323 0
M  V30 7809 C 716.615 -3.32865 1.0489 0
M  V30 7810 C 717.963 -4.09749 1.11315 0
M  V30 7811 O 718.987 -3.41905 0.998966 0
M  V30 7812 O 717.846 -5.31061 1.28983 0
M  V30 7813 H 714.94 -0.811284 0.160459 0
M  V30 7814 H 717.486 -1.35171 1.02601 0
M  V30 7815 H 716.258 -3.30642 2.09265 0
M  V30 7816 H 715.881 -3.94435 0.500692 0
M  V30 7817 N 716.879 -0.700114 -1.41195 0
M  V30 7818 C 717.789 -0.0382854 -2.34569 0
M  V30 7819 C 718.805 0.761036 -1.56474 0
M  V30 7820 O 719.981 0.697553 -1.88934 0
M  V30 7821 C 717.046 0.883522 -3.35253 0
M  V30 7822 C 716.107 0.0758957 -4.29233 0
M  V30 7823 C 715.34 0.9538 -5.25108 0
M  V30 7824 O 715.563 2.19326 -5.26547 0
M  V30 7825 O 714.497 0.401049 -6.00562 0
M  V30 7826 H 718.323 -0.808073 -2.92752 0
M  V30 7827 H 715.908 -0.460479 -1.42127 0
M  V30 7828 H 717.79 1.41199 -3.9704 0
M  V30 7829 H 716.465 1.63272 -2.79506 0
M  V30 7830 H 715.372 -0.497274 -3.7078 0
M  V30 7831 H 716.705 -0.634741 -4.8809 0
M  V30 7832 O 718.396 1.50447 -0.587194 0
M  V30 7833 H 719.087 1.93476 -0.0931656 0
M  V30 END ATOM
M  V30 BEGIN BOND
M  V30 END BOND
M  V30 END CTAB
M  END
$$$$
