drugbank_target|P23827 Ecotin (DB02379)
 OpenBabel12092120263D

  0  0  0     0  0            999 V3000
M  V30 BEGIN CTAB
M  V30 COUNTS 2580 2607 0 0 0
M  V30 BEGIN ATOM
M  V30 1 H -0.908 1.98254 -0.117106 0
M  V30 2 N 0 1.576 0 0
M  V30 3 C 0.933 2.03868 1.02534 0
M  V30 4 C 1.911 0.928543 1.3348 0
M  V30 5 O 3.095 1.19667 1.45644 0
M  V30 6 C 0.222 2.43627 2.35294 0
M  V30 7 C -0.732 3.65373 2.2001 0
M  V30 8 S 0.101 5.13292 1.52614 0
M  V30 9 C 1.257 5.56322 2.86805 0
M  V30 10 H 1.49 2.90518 0.631377 0
M  V30 11 H -0.977 1.52953 0.210867 0
M  V30 12 H 0.981 2.67203 3.11629 0
M  V30 13 H -0.358 1.57376 2.7183 0
M  V30 14 H -1.165 3.90944 3.18086 0
M  V30 15 H -1.563 3.418 1.51819 0
M  V30 16 H 0.729 5.58782 3.83104 0
M  V30 17 H 1.672 6.56266 2.65933 0
M  V30 18 H 2.08 4.83886 2.90714 0
M  V30 19 N 1.4781 -0.272755 1.55222 0
M  V30 20 C 2.4251 -1.33716 1.88119 0
M  V30 21 C 3.3951 -1.49066 0.73271 0
M  V30 22 O 4.5801 -1.63469 0.984002 0
M  V30 23 C 1.7201 -2.69238 2.15882 0
M  V30 24 C 0.8331 -2.62108 3.43399 0
M  V30 25 C -0.0319 -3.89811 3.60861 0
M  V30 26 C -0.9929 -3.77193 4.8207 0
M  V30 27 N -1.8559 -4.9673 4.96189 0
M  V30 28 H 2.9841 -1.04962 2.78903 0
M  V30 29 H 0.5211 -0.507088 1.38083 0
M  V30 30 H 2.4791 -3.48089 2.29978 0
M  V30 31 H 1.1091 -2.96194 1.28331 0
M  V30 32 H 0.1611 -1.74967 3.37773 0
M  V30 33 H 1.4731 -2.48685 4.32386 0
M  V30 34 H 0.6271 -4.77103 3.74777 0
M  V30 35 H -0.6339 -4.06102 2.7006 0
M  V30 36 H -1.6289 -2.88284 4.68159 0
M  V30 37 H -0.4039 -3.62421 5.74307 0
M  V30 38 H -2.4579 -5.13431 4.08319 0
M  V30 39 H -2.5409 -4.85839 5.79221 0
M  V30 40 H -1.2729 -5.85594 5.1449 0
M  V30 41 N 2.9562 -1.48159 -0.537278 0
M  V30 42 C 4.1842 -1.59454 -1.31841 0
M  V30 43 C 4.5992 -0.252065 -1.8711 0
M  V30 44 O 3.9562 0.757621 -1.66031 0
M  V30 45 C 4.0072 -2.63546 -2.47439 0
M  V30 46 O 3.7282 -3.92583 -1.94449 0
M  V30 47 C 5.2292 -2.85212 -3.39366 0
M  V30 48 H 2.4492 -0.53785 -0.401196 0
M  V30 49 H 4.9932 -1.93932 -0.648891 0
M  V30 50 H 3.1482 -2.31946 -3.1029 0
M  V30 51 H 3.5622 -4.49629 -2.70063 0
M  V30 52 H 5.0362 -3.61863 -4.16844 0
M  V30 53 H 5.5132 -1.93765 -3.94147 0
M  V30 54 H 6.1192 -3.18086 -2.82314 0
M  V30 55 N 4.4343 0.785586 -1.36625 0
M  V30 56 C 5.6833 1.53883 -1.30396 0
M  V30 57 C 5.9963 1.95271 0.113452 0
M  V30 58 O 7.2023 2.69858 0.298142 0
M  V30 59 C 5.6583 2.77808 -2.28802 0
M  V30 60 C 5.2663 2.43574 -3.75999 0
M  V30 61 C 7.0103 3.55783 -2.31558 0
M  V30 62 C 4.9173 3.63919 -4.66173 0
M  V30 63 H 3.8473 0.577678 -0.484566 0
M  V30 64 H 6.4983 0.861705 -1.62009 0
M  V30 65 H 4.8803 3.47339 -1.90188 0
M  V30 66 H 6.0543 1.81916 -4.23371 0
M  V30 67 H 4.3693 1.78803 -3.76056 0
M  V30 68 H 6.9663 4.45205 -2.96137 0
M  V30 69 H 7.3093 3.94644 -1.3252 0
M  V30 70 H 7.8423 2.93235 -2.68809 0
M  V30 71 H 4.5813 3.3015 -5.66287 0
M  V30 72 H 4.1013 4.2473 -4.23515 0
M  V30 73 H 5.7803 4.30901 -4.82632 0
M  V30 74 N 5.9124 1.20967 1.01018 0
M  V30 75 C 6.8424 0.988272 2.11555 0
M  V30 76 C 7.8234 -0.0849778 1.69888 0
M  V30 77 O 9.0084 0.0738202 1.9406 0
M  V30 78 C 6.1384 0.546528 3.42973 0
M  V30 79 C 5.0924 1.56375 3.9841 0
M  V30 80 C 4.4184 0.97842 5.25672 0
M  V30 81 C 5.7184 2.94922 4.31066 0
M  V30 82 H 7.4124 1.91276 2.30334 0
M  V30 83 H 4.9584 0.921073 1.1069 0
M  V30 84 H 6.9114 0.378839 4.19694 0
M  V30 85 H 5.6354 -0.413598 3.23971 0
M  V30 86 H 4.2944 1.71891 3.23804 0
M  V30 87 H 3.9424 0.0101688 5.02999 0
M  V30 88 H 3.6424 1.65784 5.63728 0
M  V30 89 H 5.1664 0.821939 6.05043 0
M  V30 90 H 6.5804 2.8288 4.9865 0
M  V30 91 H 4.9774 3.5983 4.80253 0
M  V30 92 H 6.0474 3.4616 3.39561 0
M  V30 93 N 7.3905 -1.2043 1.01659 0
M  V30 94 C 8.8015 -1.71517 0.737482 0
M  V30 95 C 9.1525 -1.81547 -0.743973 0
M  V30 96 O 8.2775 -1.47803 -1.58061 0
M  V30 97 C 8.8725 -3.11515 1.33206 0
M  V30 98 C 7.4315 -3.59912 1.10183 0
M  V30 99 C 6.5785 -2.37116 1.43776 0
M  V30 100 H 9.5295 -1.05444 1.18606 0
M  V30 101 H 9.5505 -3.73575 0.722636 0
M  V30 102 H 9.0625 -3.04182 2.41028 0
M  V30 103 H 7.1635 -3.72577 0.0412756 0
M  V30 104 H 7.2765 -4.44731 1.78188 0
M  V30 105 H 5.6405 -2.39857 0.856778 0
M  V30 106 H 6.4235 -2.32424 2.52654 0
M  V30 107 N 8.8686 -0.792821 -1.36206 0
M  V30 108 C 9.8316 -0.199459 -2.2833 0
M  V30 109 C 10.8316 0.605189 -1.48977 0
M  V30 110 O 12.0216 0.425685 -1.68919 0
M  V30 111 C 9.1536 0.723523 -3.33134 0
M  V30 112 H 10.3466 -1.01181 -2.82316 0
M  V30 113 H 7.8996 -0.562485 -1.45828 0
M  V30 114 H 8.6346 1.56008 -2.84309 0
M  V30 115 H 8.4196 0.148436 -3.91819 0
M  V30 116 H 9.9096 1.13344 -4.01924 0
M  V30 117 N 10.3467 1.47872 -0.545128 0
M  V30 118 C 11.5927 2.02793 -0.0166104 0
M  V30 119 C 11.9257 1.41987 1.32489 0
M  V30 120 O 11.2007 0.571045 1.85928 0
M  V30 121 C 11.4837 3.59989 0.0893294 0
M  V30 122 C 11.3367 4.3125 -1.27841 0
M  V30 123 C 12.6557 4.32606 0.808724 0
M  V30 124 H 9.7747 0.736962 -0.00751035 0
M  V30 125 H 12.4167 1.76433 -0.705085 0
M  V30 126 H 10.5667 3.82579 0.675681 0
M  V30 127 H 12.2387 4.20035 -1.90704 0
M  V30 128 H 10.4817 3.92076 -1.85632 0
M  V30 129 H 11.1527 5.39736 -1.15713 0
M  V30 130 H 13.6287 4.14936 0.310992 0
M  V30 131 H 12.5047 5.42251 0.851782 0
M  V30 132 H 12.7657 4.00963 1.86229 0
M  V30 133 N 11.8248 0.280983 1.55075 0
M  V30 134 C 12.7548 -0.597469 2.25727 0
M  V30 135 C 13.7358 -1.15417 1.24952 0
M  V30 136 O 14.9208 -1.18722 1.53684 0
M  V30 137 C 12.0508 -1.7789 2.98283 0
M  V30 138 C 11.0048 -1.35347 4.06036 0
M  V30 139 C 10.3308 -2.61846 4.66198 0
M  V30 140 C 11.6308 -0.499354 5.19907 0
M  V30 141 H 13.3248 -0.00824265 2.99399 0
M  V30 142 H 10.8708 -0.0025244 1.44 0
M  V30 143 H 12.8238 -2.39937 3.46422 0
M  V30 144 H 11.5478 -2.39405 2.22155 0
M  V30 145 H 10.2068 -0.756156 3.58717 0
M  V30 146 H 9.8548 -3.21632 3.86732 0
M  V30 147 H 9.5548 -2.3409 5.38958 0
M  V30 148 H 11.0788 -3.24732 5.1709 0
M  V30 149 H 12.4928 -1.02498 5.64063 0
M  V30 150 H 10.8898 -0.316424 5.99265 0
M  V30 151 H 11.9598 0.480459 4.82514 0
M  V30 152 N 13.3029 -1.57598 0.00835791 0
M  V30 153 C 14.5499 -1.90928 -0.674732 0
M  V30 154 C 14.8779 -0.88277 -1.73313 0
M  V30 155 O 14.1329 0.111294 -1.95383 0
M  V30 156 C 14.4319 -3.3101 -1.34787 0
M  V30 157 C 14.0979 -4.48922 -0.421861 0
M  V30 158 C 12.7599 -4.8091 -0.166927 0
M  V30 159 C 15.1119 -5.20755 0.215211 0
M  V30 160 C 12.4399 -5.821 0.733232 0
M  V30 161 C 14.7919 -6.22905 1.1033 0
M  V30 162 C 13.4559 -6.53346 1.36733 0
M  V30 163 H 12.7259 -0.698656 -0.246902 0
M  V30 164 H 15.3729 -1.91387 0.0656779 0
M  V30 165 H 13.6779 -3.26714 -2.16253 0
M  V30 166 H 15.3749 -3.54061 -1.8826 0
M  V30 167 H 11.9649 -4.23934 -0.630729 0
M  V30 168 H 16.1489 -4.9629 0.0312829 0
M  V30 169 H 11.4049 -6.04042 0.945712 0
M  V30 170 H 15.5789 -6.77694 1.60325 0
M  V30 171 H 13.2059 -7.31573 2.06652 0
M  V30 172 N 14.781 0.264519 -1.55364 0
M  V30 173 C 15.744 1.31046 -1.88042 0
M  V30 174 C 16.744 1.41943 -0.755569 0
M  V30 175 O 17.934 1.40947 -1.02369 0
M  V30 176 C 15.066 2.69067 -2.09323 0
M  V30 177 H 16.259 1.03297 -2.81549 0
M  V30 178 H 13.812 0.502989 -1.47986 0
M  V30 179 H 14.547 3.01982 -1.18226 0
M  V30 180 H 14.332 2.62542 -2.91229 0
M  V30 181 H 15.822 3.44623 -2.35848 0
M  V30 182 N 16.2591 1.48442 0.529413 0
M  V30 183 C 17.2221 1.62524 1.61612 0
M  V30 184 C 18.2221 0.498509 1.52877 0
M  V30 185 O 19.4121 0.76431 1.56537 0
M  V30 186 C 16.5441 1.59597 3.01233 0
M  V30 187 H 17.7371 2.59423 1.50465 0
M  V30 188 H 15.2901 1.37047 0.751514 0
M  V30 189 H 16.0251 0.641781 3.17886 0
M  V30 190 H 15.8101 2.41397 3.08982 0
M  V30 191 H 17.3001 1.72646 3.80241 0
M  V30 192 N 17.7372 -0.778329 1.37039 0
M  V30 193 C 18.9842 -1.53665 1.31884 0
M  V30 194 C 19.3122 -1.9425 -0.0986303 0
M  V30 195 O 18.5672 -1.63832 -1.07041 0
M  V30 196 C 18.8662 -2.81845 2.19768 0
M  V30 197 C 18.5322 -2.60345 3.68146 0
M  V30 198 C 17.1942 -2.5419 4.08584 0
M  V30 199 C 19.5462 -2.40923 4.62175 0
M  V30 200 C 16.8742 -2.26594 5.41177 0
M  V30 201 C 19.2262 -2.14852 5.94997 0
M  V30 202 C 17.8902 -2.07137 6.34547 0
M  V30 203 H 17.1602 -0.562299 0.482598 0
M  V30 204 H 19.8072 -0.897069 1.69189 0
M  V30 205 H 18.1122 -3.50328 1.75436 0
M  V30 206 H 19.8092 -3.39692 2.13097 0
M  V30 207 H 16.3992 -2.65996 3.36072 0
M  V30 208 H 20.5832 -2.44673 4.31797 0
M  V30 209 H 15.8392 -2.19111 5.70789 0
M  V30 210 H 20.0132 -1.98822 6.67415 0
M  V30 211 H 17.6402 -1.85518 7.37216 0
M  V30 212 N 19.2153 -1.21501 -1.00376 0
M  V30 213 C 20.1783 -0.976927 -2.07337 0
M  V30 214 C 21.1783 0.0525322 -1.60714 0
M  V30 215 O 22.3683 -0.184869 -1.73216 0
M  V30 216 C 19.5003 -0.473423 -3.37597 0
M  V30 217 H 20.6933 -1.92587 -2.29892 0
M  V30 218 H 18.2463 -1.03217 -1.17371 0
M  V30 219 H 18.9813 0.480379 -3.20722 0
M  V30 220 H 18.7663 -1.216 -3.72768 0
M  V30 221 H 20.2563 -0.32675 -4.1632 0
M  V30 222 N 20.6934 1.19889 -1.02296 0
M  V30 223 C 21.9214 1.9339 -0.735399 0
M  V30 224 C 22.3364 1.75148 0.704887 0
M  V30 225 O 21.6934 1.06954 1.47875 0
M  V30 226 C 21.7444 3.45313 -1.06962 0
M  V30 227 O 21.4654 3.62964 -2.45334 0
M  V30 228 C 22.9664 4.35948 -0.804021 0
M  V30 229 H 20.1864 0.61448 -0.269546 0
M  V30 230 H 22.7304 1.522 -1.36585 0
M  V30 231 H 20.8854 3.84359 -0.484455 0
M  V30 232 H 21.2994 4.56886 -2.57595 0
M  V30 233 H 22.7734 5.41174 -1.0879 0
M  V30 234 H 23.2504 4.3842 0.261691 0
M  V30 235 H 23.8564 4.02574 -1.37164 0
M  V30 236 N 22.1715 0.800033 1.35784 0
M  V30 237 C 23.3995 0.389606 2.03199 0
M  V30 238 C 23.8145 -0.997375 1.60306 0
M  V30 239 O 23.1715 -1.64154 0.797481 0
M  V30 240 C 23.2225 0.455855 3.58614 0
M  V30 241 O 22.9435 1.78815 3.99946 0
M  V30 242 C 24.4445 0.0374032 4.43284 0
M  V30 243 H 21.6645 0.159132 0.651857 0
M  V30 244 H 24.2085 1.08183 1.73541 0
M  V30 245 H 22.3635 -0.188057 3.86943 0
M  V30 246 H 22.7775 1.74636 4.94573 0
M  V30 247 H 24.2515 0.134882 5.51835 0
M  V30 248 H 24.7285 -1.01651 4.27275 0
M  V30 249 H 25.3345 0.654215 4.20238 0
M  V30 250 N 23.6496 -1.47581 0.552962 0
M  V30 251 C 24.8746 -2.07378 0.0300593 0
M  V30 252 C 25.2996 -1.40355 -1.25229 0
M  V30 253 O 24.6576 -0.477099 -1.7491 0
M  V30 254 C 24.7056 -3.60274 -0.153231 0
M  V30 255 O 23.8096 -3.94041 -1.21678 0
M  V30 256 H 23.1506 -0.662158 0.0494182 0
M  V30 257 H 25.6806 -1.89662 0.767434 0
M  V30 258 H 25.6906 -4.0633 -0.368761 0
M  V30 259 H 24.3656 -4.08455 0.783397 0
M  V30 260 H 22.9426 -3.59735 -0.982079 0
M  V30 261 N 25.1277 -0.289203 -1.54924 0
M  V30 262 C 26.0907 0.579144 -2.21762 0
M  V30 263 C 27.0907 1.07047 -1.1999 0
M  V30 264 O 28.2807 0.968384 -1.44803 0
M  V30 265 C 25.4127 1.80055 -2.8947 0
M  V30 266 H 26.6057 -0.00464908 -2.999 0
M  V30 267 H 24.1587 -0.0399306 -1.56249 0
M  V30 268 H 24.8937 2.42449 -2.15381 0
M  V30 269 H 24.6787 1.45602 -3.64064 0
M  V30 270 H 26.1687 2.41773 -3.40493 0
M  V30 271 N 26.6058 1.57591 -0.0167156 0
M  V30 272 C 27.8518 1.92399 0.659861 0
M  V30 273 C 28.2068 0.892561 1.70444 0
M  V30 274 O 27.4998 -0.0930755 1.91374 0
M  V30 275 C 27.6938 3.3172 1.33029 0
M  V30 276 C 27.5228 4.48319 0.352174 0
M  V30 277 C 26.2928 5.05281 -0.0434883 0
M  V30 278 C 28.4908 5.12831 -0.388474 0
M  V30 279 N 26.4728 6.05399 -1.01807 0
M  V30 280 C 27.8438 6.07934 -1.2172 0
M  V30 281 C 29.8988 4.95858 -0.450513 0
M  V30 282 C 28.6018 6.87891 -2.10235 0
M  V30 283 C 30.6278 5.76413 -1.32295 0
M  V30 284 C 29.9898 6.71123 -2.13948 0
M  V30 285 H 26.0888 0.752106 0.21415 0
M  V30 286 H 28.6728 1.94532 -0.0809846 0
M  V30 287 H 26.8438 3.3043 2.04134 0
M  V30 288 H 28.5758 3.5391 1.9629 0
M  V30 289 H 25.3308 4.7246 0.328384 0
M  V30 290 H 25.7548 6.60145 -1.50123 0
M  V30 291 H 30.3968 4.22472 0.166512 0
M  V30 292 H 28.1148 7.60591 -2.72997 0
M  V30 293 H 31.7008 5.65317 -1.37508 0
M  V30 294 H 30.5808 7.3237 -2.80364 0
M  V30 295 N 28.0839 -0.256276 1.55502 0
M  V30 296 C 29.0469 -1.30047 1.88734 0
M  V30 297 C 30.0469 -1.4154 0.763086 0
M  V30 298 O 31.2369 -1.40403 1.03115 0
M  V30 299 C 28.3689 -2.67953 2.10747 0
M  V30 300 H 29.5619 -1.01802 2.82093 0
M  V30 301 H 27.1149 -0.495134 1.4825 0
M  V30 302 H 27.8499 -3.01351 1.19825 0
M  V30 303 H 27.6349 -2.60993 2.92617 0
M  V30 304 H 29.1249 -3.43368 2.37673 0
M  V30 305 N 29.562 -1.4872 -0.521534 0
M  V30 306 C 30.525 -1.63379 -1.60748 0
M  V30 307 C 31.525 -0.50661 -1.52611 0
M  V30 308 O 32.715 -0.772601 -1.5613 0
M  V30 309 C 29.847 -1.61192 -3.00383 0
M  V30 310 H 31.04 -2.60217 -1.49087 0
M  V30 311 H 28.593 -1.37444 -0.744235 0
M  V30 312 H 29.328 -0.65863 -3.17541 0
M  V30 313 H 29.113 -2.43032 -3.07698 0
M  V30 314 H 30.603 -1.7466 -3.7932 0
M  V30 315 N 31.0401 0.771051 -1.3745 0
M  V30 316 C 31.9501 1.91538 -1.35464 0
M  V30 317 C 32.9661 1.72134 -0.254123 0
M  V30 318 O 34.1421 1.95358 -0.489626 0
M  V30 319 C 31.2071 3.26671 -1.16134 0
M  V30 320 C 30.2681 3.58723 -2.35831 0
M  V30 321 C 29.5011 4.87409 -2.17413 0
M  V30 322 O 29.7241 5.58506 -1.15876 0
M  V30 323 O 28.6581 5.18539 -3.05615 0
M  V30 324 H 32.4841 1.96165 -2.31847 0
M  V30 325 H 30.0691 0.9139 -1.18187 0
M  V30 326 H 31.9511 4.07499 -1.07345 0
M  V30 327 H 30.6261 3.22894 -0.228251 0
M  V30 328 H 29.5331 2.78127 -2.50192 0
M  V30 329 H 30.8661 3.67243 -3.27709 0
M  V30 330 N 32.5182 1.22032 0.997298 0
M  V30 331 C 33.7432 1.06921 1.77715 0
M  V30 332 C 34.1682 -0.376226 1.84299 0
M  V30 333 O 33.5262 -1.27165 1.29223 0
M  V30 334 C 33.5742 1.67996 3.19076 0
M  V30 335 O 32.6782 0.930653 4.01762 0
M  V30 336 H 32.0192 0.375814 0.547412 0
M  V30 337 H 34.5492 1.61737 1.25309 0
M  V30 338 H 34.5592 1.72538 3.69723 0
M  V30 339 H 33.2342 2.73182 3.13599 0
M  V30 340 H 31.8112 0.960917 3.60307 0
M  V30 341 N 33.9963 -1.19345 1.0293 0
M  V30 342 C 35.2423 -1.89318 0.727083 0
M  V30 343 C 35.5753 -1.79446 -0.742483 0
M  V30 344 O 34.8503 -1.1871 -1.54072 0
M  V30 345 C 35.1333 -3.40238 1.17942 0
M  V30 346 C 34.9863 -3.58979 2.71024 0
M  V30 347 C 36.3053 -4.33479 0.760548 0
M  V30 348 H 33.4243 -0.687475 0.265606 0
M  V30 349 H 36.0663 -1.40477 1.2793 0
M  V30 350 H 34.2163 -3.81964 0.709608 0
M  V30 351 H 35.8883 -3.26421 3.25955 0
M  V30 352 H 34.1313 -3.02018 3.11396 0
M  V30 353 H 34.8023 -4.64823 2.9773 0
M  V30 354 H 37.2783 -3.99469 1.16464 0
M  V30 355 H 36.1543 -5.37664 1.10493 0
M  V30 356 H 36.4153 -4.40813 -0.337063 0
M  V30 357 N 35.4744 -0.807222 -1.35358 0
M  V30 358 C 36.4064 -0.175717 -2.28525 0
M  V30 359 C 37.4194 0.625354 -1.5031 0
M  V30 360 O 38.6084 0.457611 -1.72535 0
M  V30 361 C 35.7084 0.773471 -3.29956 0
M  V30 362 C 34.8814 0.0186296 -4.37396 0
M  V30 363 C 33.9404 0.886395 -5.18681 0
M  V30 364 O 32.9664 0.337106 -5.68201 0
M  V30 365 N 34.1684 2.20839 -5.36852 0
M  V30 366 H 36.9334 -0.976091 -2.83359 0
M  V30 367 H 34.4944 -0.662737 -1.47714 0
M  V30 368 H 36.4864 1.35824 -3.81227 0
M  V30 369 H 35.0564 1.47465 -2.75632 0
M  V30 370 H 34.2764 -0.747349 -3.87051 0
M  V30 371 H 35.5644 -0.501577 -5.06322 0
M  V30 372 H 34.9624 2.67858 -4.98265 0
M  V30 373 H 33.5194 2.74237 -5.91301 0
M  V30 374 N 36.9525 1.47285 -0.560781 0
M  V30 375 C 38.3635 1.86258 -0.128343 0
M  V30 376 C 38.7145 1.46699 1.30284 0
M  V30 377 O 37.8395 0.871698 1.98067 0
M  V30 378 C 38.4345 3.38044 -0.22614 0
M  V30 379 C 36.9935 3.76096 0.151283 0
M  V30 380 C 36.1405 2.71335 -0.572084 0
M  V30 381 H 39.0915 1.38752 -0.770297 0
M  V30 382 H 39.1125 3.76441 0.554322 0
M  V30 383 H 38.6245 3.66806 -1.26788 0
M  V30 384 H 36.7255 3.52951 1.19399 0
M  V30 385 H 36.8385 4.78641 -0.209765 0
M  V30 386 H 35.2025 2.54696 -0.0147653 0
M  V30 387 H 35.9855 3.02938 -1.61504 0
M  V30 388 N 38.4306 0.297415 1.54768 0
M  V30 389 C 39.3606 -0.573494 2.26348 0
M  V30 390 C 40.3416 -1.14085 1.26169 0
M  V30 391 O 41.5266 -1.17086 1.54934 0
M  V30 392 C 38.6566 -1.74716 3.00153 0
M  V30 393 C 37.6106 -1.31032 4.07449 0
M  V30 394 C 36.9366 -2.56887 4.68949 0
M  V30 395 C 38.2366 -0.444183 5.20408 0
M  V30 396 H 39.9306 0.0235131 2.99391 0
M  V30 397 H 37.4766 0.0127488 1.43994 0
M  V30 398 H 39.4296 -2.3625 3.48947 0
M  V30 399 H 38.1536 -2.37035 2.24682 0
M  V30 400 H 36.8126 -0.718066 3.59499 0
M  V30 401 H 36.4606 -3.17512 3.90122 0
M  V30 402 H 36.1606 -2.2836 5.41411 0
M  V30 403 H 37.6846 -3.19229 5.20505 0
M  V30 404 H 39.0986 -0.9651 5.65118 0
M  V30 405 H 37.4956 -0.252846 5.99567 0
M  V30 406 H 38.5656 0.531609 4.81977 0
M  V30 407 N 39.9087 -1.5758 0.0250728 0
M  V30 408 C 40.8187 -2.1343 -0.973905 0
M  V30 409 C 41.8347 -1.08556 -1.35984 0
M  V30 410 O 43.0107 -1.40592 -1.44207 0
M  V30 411 C 40.0757 -2.64703 -2.23904 0
M  V30 412 C 39.1367 -3.84276 -1.91391 0
M  V30 413 C 38.3697 -4.33095 -3.11873 0
M  V30 414 O 38.5927 -3.81107 -4.24398 0
M  V30 415 O 37.5267 -5.24984 -2.94406 0
M  V30 416 H 41.3527 -2.99057 -0.529036 0
M  V30 417 H 38.9377 -1.48118 -0.195288 0
M  V30 418 H 40.8197 -2.97769 -2.98181 0
M  V30 419 H 39.4947 -1.82161 -2.6758 0
M  V30 420 H 38.4017 -3.56143 -1.14511 0
M  V30 421 H 39.7347 -4.67968 -1.52534 0
M  V30 422 N 41.3868 0.248026 -1.55636 0
M  V30 423 C 42.3338 1.30707 -1.90222 0
M  V30 424 C 43.3038 1.47881 -0.756332 0
M  V30 425 O 44.4888 1.61883 -1.00988 0
M  V30 426 C 41.6288 2.65769 -2.20138 0
M  V30 427 C 40.7418 2.56612 -3.47526 0
M  V30 428 C 39.8768 3.8402 -3.67017 0
M  V30 429 C 38.9158 3.69476 -4.8801 0
M  V30 430 N 38.0528 4.88774 -5.04029 0
M  V30 431 H 42.8928 1.00512 -2.80538 0
M  V30 432 H 40.4298 0.485055 -1.38873 0
M  V30 433 H 42.3878 3.44386 -2.35487 0
M  V30 434 H 41.0178 2.94115 -1.33027 0
M  V30 435 H 40.0698 1.69571 -3.40514 0
M  V30 436 H 41.3818 2.41774 -4.36287 0
M  V30 437 H 40.5358 4.7108 -3.8232 0
M  V30 438 H 39.2748 4.01754 -2.76487 0
M  V30 439 H 38.2798 2.80799 -4.72686 0
M  V30 440 H 39.5048 3.53238 -5.8 0
M  V30 441 H 37.4508 5.0687 -4.16435 0
M  V30 442 H 37.3678 4.76562 -5.86877 0
M  V30 443 H 38.6358 5.77335 -5.23741 0
M  V30 444 N 42.8649 1.48995 0.513639 0
M  V30 445 C 44.1139 1.57093 1.2651 0
M  V30 446 C 44.4269 0.257091 1.93903 0
M  V30 447 O 45.6329 0.216478 2.70636 0
M  V30 448 C 44.0889 2.77118 2.29638 0
M  V30 449 C 43.6969 4.15209 1.68241 0
M  V30 450 C 45.4409 2.94538 3.05692 0
M  V30 451 C 43.3479 5.26474 2.69406 0
M  V30 452 H 42.2779 0.584876 0.475854 0
M  V30 453 H 44.9289 1.7536 0.540487 0
M  V30 454 H 43.3109 2.52319 3.05207 0
M  V30 455 H 44.4849 4.50094 0.987505 0
M  V30 456 H 42.7999 4.03042 1.04623 0
M  V30 457 H 45.3969 3.74832 3.8132 0
M  V30 458 H 45.7399 2.04614 3.62545 0
M  V30 459 H 46.2729 3.19316 2.37238 0
M  V30 460 H 43.0119 6.18417 2.17351 0
M  V30 461 H 42.5319 4.96058 3.37175 0
M  V30 462 H 44.2109 5.55277 3.32078 0
M  V30 463 N 44.343 -0.763751 1.37857 0
M  V30 464 C 45.306 -1.85889 1.34081 0
M  V30 465 C 46.306 -1.58949 0.243277 0
M  V30 466 O 47.496 -1.66882 0.499589 0
M  V30 467 C 44.628 -3.23176 1.08489 0
M  V30 468 H 45.821 -1.90648 2.31502 0
M  V30 469 H 43.374 -0.964367 1.23003 0
M  V30 470 H 44.109 -3.24091 0.116318 0
M  V30 471 H 43.894 -3.44124 1.8794 0
M  V30 472 H 45.384 -4.03254 1.08517 0
M  V30 473 N 45.8211 -1.22559 -0.990812 0
M  V30 474 C 47.2321 -1.04791 -1.54518 0
M  V30 475 C 47.5831 0.387998 -1.92325 0
M  V30 476 O 46.7081 1.27328 -1.74976 0
M  V30 477 C 47.3031 -1.896 -2.80779 0
M  V30 478 C 45.8621 -1.76124 -3.32652 0
M  V30 479 C 45.0091 -1.8594 -2.05722 0
M  V30 480 H 47.9601 -1.36374 -0.811662 0
M  V30 481 H 47.9811 -1.41464 -3.53225 0
M  V30 482 H 47.4931 -2.94101 -2.53231 0
M  V30 483 H 45.5941 -0.743643 -3.65104 0
M  V30 484 H 45.7071 -2.58913 -4.03114 0
M  V30 485 H 44.0711 -1.29403 -2.19379 0
M  V30 486 H 44.8541 -2.91976 -1.80568 0
M  V30 487 N 47.2992 1.18797 -1.03562 0
M  V30 488 C 48.5292 1.92319 -0.754773 0
M  V30 489 C 48.9372 1.7612 0.691248 0
M  V30 490 O 48.2802 1.08491 1.48241 0
M  V30 491 C 48.3422 3.44284 -1.03484 0
M  V30 492 C 48.0062 3.84258 -2.47376 0
M  V30 493 C 49.0032 3.88459 -3.45537 0
M  V30 494 C 46.6882 4.15701 -2.81954 0
M  V30 495 C 48.6822 4.23545 -4.76328 0
M  V30 496 C 46.3692 4.50458 -4.12954 0
M  V30 497 C 47.3672 4.54356 -5.09951 0
M  V30 498 O 47.0552 4.88305 -6.38603 0
M  V30 499 H 46.7872 0.617527 -0.275021 0
M  V30 500 H 49.3412 1.51683 -1.38497 0
M  V30 501 H 47.5712 3.85135 -0.347513 0
M  V30 502 H 49.2602 3.99049 -0.7426 0
M  V30 503 H 50.0262 3.6431 -3.20162 0
M  V30 504 H 45.9052 4.11847 -2.0713 0
M  V30 505 H 49.4492 4.26502 -5.52035 0
M  V30 506 H 45.3462 4.74067 -4.38099 0
M  V30 507 H 46.1142 5.06227 -6.43177 0
M  V30 508 N 48.7773 0.814389 1.34928 0
M  V30 509 C 50.1883 0.458364 1.80986 0
M  V30 510 C 50.5393 -1.02042 1.67577 0
M  V30 511 O 49.6643 -1.79352 1.21086 0
M  V30 512 C 50.2593 0.825212 3.28597 0
M  V30 513 C 48.8183 0.521677 3.72767 0
M  V30 514 C 47.9653 1.04668 2.56788 0
M  V30 515 H 50.9163 1.00533 1.22795 0
M  V30 516 H 50.9373 0.12571 3.80292 0
M  V30 517 H 50.4493 1.90154 3.38324 0
M  V30 518 H 48.5503 -0.545589 3.68584 0
M  V30 519 H 48.6633 1.05977 4.67232 0
M  V30 520 H 47.0273 0.468622 2.50352 0
M  V30 521 H 47.8103 2.12927 2.6929 0
M  V30 522 N 50.2554 -1.46986 0.568584 0
M  V30 523 C 51.1874 -2.28233 -0.210337 0
M  V30 524 C 52.2004 -1.37682 -0.868767 0
M  V30 525 O 53.3894 -1.62406 -0.740705 0
M  V30 526 C 50.4894 -3.12293 -1.3163 0
M  V30 527 C 49.6624 -4.30878 -0.7525 0
M  V30 528 C 48.7214 -4.96445 -1.74439 0
M  V30 529 O 47.7474 -5.54482 -1.286 0
M  V30 530 N 48.9494 -4.92171 -3.07812 0
M  V30 531 H 51.7144 -2.95723 0.486648 0
M  V30 532 H 49.2754 -1.56742 0.405409 0
M  V30 533 H 51.2674 -3.53022 -1.97883 0
M  V30 534 H 49.8374 -2.46971 -1.91636 0
M  V30 535 H 49.0574 -3.94104 0.0871128 0
M  V30 536 H 50.3454 -5.07558 -0.35536 0
M  V30 537 H 49.7434 -4.46239 -3.47688 0
M  V30 538 H 48.3004 -5.36884 -3.69592 0
M  V30 539 N 51.7335 -0.305618 -1.54608 0
M  V30 540 C 52.6965 0.555591 -2.22364 0
M  V30 541 C 53.6965 1.05768 -1.21119 0
M  V30 542 O 54.8865 0.952972 -1.45822 0
M  V30 543 C 52.0185 1.76974 -2.91364 0
M  V30 544 H 53.2115 -0.0364572 -2.99878 0
M  V30 545 H 50.7645 -0.0565007 -1.56198 0
M  V30 546 H 51.4995 2.40151 -2.17941 0
M  V30 547 H 51.2845 1.41732 -3.65588 0
M  V30 548 H 52.7745 2.38148 -3.43038 0
M  V30 549 N 53.2116 1.57565 -0.0334293 0
M  V30 550 C 54.1216 2.13943 0.962572 0
M  V30 551 C 55.1376 1.09276 1.35406 0
M  V30 552 O 56.3136 1.41355 1.4346 0
M  V30 553 C 53.3786 2.65887 2.22497 0
M  V30 554 C 52.4396 3.85286 1.8935 0
M  V30 555 C 51.6726 4.34743 3.09571 0
M  V30 556 O 51.8956 3.83352 4.22371 0
M  V30 557 O 50.8296 5.26538 2.91618 0
M  V30 558 H 54.6556 2.99333 0.513169 0
M  V30 559 H 52.2406 1.4822 0.18743 0
M  V30 560 H 54.1226 2.99346 2.96598 0
M  V30 561 H 52.7976 1.83578 2.6661 0
M  V30 562 H 51.7046 3.56746 1.1262 0
M  V30 563 H 53.0376 4.68771 1.5005 0
M  V30 564 N 54.6897 -0.239769 1.55765 0
M  V30 565 C 55.6367 -1.29696 1.90913 0
M  V30 566 C 56.6067 -1.47478 0.764164 0
M  V30 567 O 57.7917 -1.61345 1.01845 0
M  V30 568 C 54.9317 -2.64598 2.21544 0
M  V30 569 C 54.0447 -2.54765 3.48882 0
M  V30 570 C 53.1797 -3.82069 3.69049 0
M  V30 571 C 52.2187 -3.66883 4.89963 0
M  V30 572 N 51.3557 -4.86094 5.06614 0
M  V30 573 H 56.1957 -0.990224 2.81067 0
M  V30 574 H 53.7327 -0.477684 1.39128 0
M  V30 575 H 55.6907 -3.43132 2.3731 0
M  V30 576 H 54.3207 -2.93405 1.34585 0
M  V30 577 H 53.3727 -1.67763 3.41409 0
M  V30 578 H 54.6847 -2.39457 4.37563 0
M  V30 579 H 53.8387 -4.69046 3.84812 0
M  V30 580 H 52.5777 -4.00282 2.78614 0
M  V30 581 H 51.5827 -2.78289 4.74168 0
M  V30 582 H 52.8077 -3.50157 5.81865 0
M  V30 583 H 50.7537 -5.04655 4.19117 0
M  V30 584 H 50.6707 -4.73443 5.89396 0
M  V30 585 H 51.9387 -5.74549 5.26795 0
M  V30 586 N 56.1678 -1.49265 -0.50573 0
M  V30 587 C 57.4158 -1.582 -1.25766 0
M  V30 588 C 57.7368 -0.268482 -1.93143 0
M  V30 589 O 57.0068 0.711833 -1.8251 0
M  V30 590 H 55.5868 -0.582873 -0.467191 0
M  V30 591 H 58.2488 -1.85865 -0.586525 0
M  V30 592 H 57.3448 -2.37563 -2.02412 0
M  V30 593 N 57.6459 0.756429 -1.3826 0
M  V30 594 C 58.5789 1.87802 -1.29637 0
M  V30 595 C 59.5569 1.61667 -0.173939 0
M  V30 596 O 60.7409 1.85208 -0.350775 0
M  V30 597 C 57.8679 3.23354 -1.00797 0
M  V30 598 C 56.9139 3.68379 -2.14939 0
M  V30 599 S 57.7469 3.8025 -3.77054 0
M  V30 600 C 58.9029 5.18626 -3.50396 0
M  V30 601 H 59.1359 1.94829 -2.24564 0
M  V30 602 H 56.6689 0.919117 -1.24063 0
M  V30 603 H 58.6269 4.01637 -0.848413 0
M  V30 604 H 57.2879 3.14008 -0.0759369 0
M  V30 605 H 56.4809 4.66693 -1.90299 0
M  V30 606 H 56.0829 2.97242 -2.26988 0
M  V30 607 H 58.3749 6.04289 -3.06334 0
M  V30 608 H 59.3179 5.48286 -4.48094 0
M  V30 609 H 59.7259 4.87289 -2.84973 0
M  V30 610 N 59.124 1.23083 0.984299 0
M  V30 611 C 60.071 1.00854 2.07598 0
M  V30 612 C 61.041 -0.0726709 1.65941 0
M  V30 613 O 62.226 0.0786535 1.90638 0
M  V30 614 C 59.366 0.601645 3.39815 0
M  V30 615 C 58.479 1.75456 3.94765 0
M  V30 616 C 57.614 1.29482 5.15177 0
M  V30 617 C 56.653 2.41873 5.62284 0
M  V30 618 N 55.79 1.96885 6.73929 0
M  V30 619 H 60.63 1.943 2.25946 0
M  V30 620 H 58.167 0.968001 1.10762 0
M  V30 621 H 60.125 0.346854 4.15756 0
M  V30 622 H 58.755 -0.295803 3.21442 0
M  V30 623 H 57.807 2.12346 3.15616 0
M  V30 624 H 59.119 2.59965 4.25699 0
M  V30 625 H 58.273 0.997923 5.98437 0
M  V30 626 H 57.012 0.420046 4.85888 0
M  V30 627 H 56.017 2.72342 4.77608 0
M  V30 628 H 57.242 3.29881 5.93595 0
M  V30 629 H 55.188 1.11782 6.46406 0
M  V30 630 H 55.105 2.74956 7.04227 0
M  V30 631 H 56.373 1.70289 7.60672 0
M  V30 632 N 60.6021 -1.18246 1.0419 0
M  V30 633 C 62.0181 -1.40269 0.761366 0
M  V30 634 C 62.2181 -1.90777 -0.648578 0
M  V30 635 O 61.2741 -2.0929 -1.41258 0
M  V30 636 C 62.5871 -2.40237 1.8085 0
M  V30 637 C 64.1351 -2.53961 1.82955 0
M  V30 638 C 64.6101 -3.57194 2.86664 0
M  V30 639 N 66.1011 -3.64702 2.85563 0
M  V30 640 C 66.8361 -4.44309 3.6246 0
M  V30 641 N 66.3321 -5.27514 4.49111 0
M  V30 642 N 68.1251 -4.39084 3.50944 0
M  V30 643 H 60.2761 -0.837882 1.95175 0
M  V30 644 H 62.5391 -0.430608 0.84456 0
M  V30 645 H 62.2451 -2.10176 2.81991 0
M  V30 646 H 62.1191 -3.39601 1.64168 0
M  V30 647 H 64.5061 -2.83338 0.824855 0
M  V30 648 H 64.5871 -1.54706 2.03715 0
M  V30 649 H 64.2311 -3.28558 3.87314 0
M  V30 650 H 64.1611 -4.5613 2.6316 0
M  V30 651 H 66.6521 -3.05289 2.22727 0
M  V30 652 H 66.9651 -5.85411 5.04493 0
M  V30 653 H 65.3101 -5.2693 4.53178 0
M  V30 654 H 68.5011 -3.7313 2.82651 0
M  V30 655 H 68.6741 -5.00883 4.11121 0
M  V30 656 N 62.0802 -0.821533 -1.34494 0
M  V30 657 C 63.0122 -0.199946 -2.28326 0
M  V30 658 C 64.0252 0.609377 -1.50965 0
M  V30 659 O 65.2142 0.439285 -1.7301 0
M  V30 660 C 62.3142 0.738431 -3.30757 0
M  V30 661 C 61.4872 -0.0277632 -4.37391 0
M  V30 662 C 60.5462 0.831332 -5.19591 0
M  V30 663 O 59.5722 0.276822 -5.68526 0
M  V30 664 N 60.7742 2.15132 -5.39165 0
M  V30 665 H 63.5392 -1.00609 -2.82308 0
M  V30 666 H 61.1002 -0.678366 -1.47003 0
M  V30 667 H 63.0922 1.31773 -3.82646 0
M  V30 668 H 61.6622 1.44533 -2.7718 0
M  V30 669 H 60.8822 -0.788359 -3.86236 0
M  V30 670 H 62.1702 -0.555251 -5.05761 0
M  V30 671 H 61.5682 2.62559 -5.01078 0
M  V30 672 H 60.1252 2.6795 -5.94177 0
M  V30 673 N 63.5583 1.46682 -0.576371 0
M  V30 674 C 64.8043 2.02712 -0.0596221 0
M  V30 675 C 65.1373 1.44765 1.29448 0
M  V30 676 O 64.4123 0.610355 1.84675 0
M  V30 677 C 64.6953 3.60098 0.0129503 0
M  V30 678 C 64.5483 4.28441 -1.3696 0
M  V30 679 C 65.8673 4.34224 0.71678 0
M  V30 680 H 62.9863 0.736637 -0.0231407 0
M  V30 681 H 65.6283 1.74898 -0.742351 0
M  V30 682 H 63.7783 3.83926 0.594378 0
M  V30 683 H 65.4503 4.15896 -1.9957 0
M  V30 684 H 63.6933 3.8805 -1.93907 0
M  V30 685 H 64.3643 5.3716 -1.27135 0
M  V30 686 H 66.8403 4.15503 0.222908 0
M  V30 687 H 65.7163 5.43936 0.73657 0
M  V30 688 H 65.9773 4.04823 1.77682 0
M  V30 689 N 65.0364 0.313813 1.54444 0
M  V30 690 C 66.2854 -0.292519 1.99568 0
M  V30 691 C 66.5984 -1.54011 1.20582 0
M  V30 692 O 67.8044 -2.22183 1.56035 0
M  V30 693 C 66.2604 -0.571752 3.55329 0
M  V30 694 C 65.8684 0.658229 4.43138 0
M  V30 695 C 67.6124 -1.13857 4.08946 0
M  V30 696 C 65.5194 0.351439 5.90355 0
M  V30 697 H 64.4494 -0.113079 0.745472 0
M  V30 698 H 67.1004 0.424518 1.78522 0
M  V30 699 H 65.4824 -1.34872 3.72325 0
M  V30 700 H 66.6564 1.43403 4.37918 0
M  V30 701 H 64.9714 1.14458 4.0036 0
M  V30 702 H 67.5684 -1.38257 5.16516 0
M  V30 703 H 67.9114 -2.08489 3.6033 0
M  V30 704 H 68.4444 -0.423015 3.95544 0
M  V30 705 H 65.1834 1.26667 6.43145 0
M  V30 706 H 64.7034 -0.386842 5.98551 0
M  V30 707 H 66.3824 -0.0423134 6.46986 0
M  V30 708 N 66.5145 -1.57545 0.0417849 0
M  V30 709 C 67.4465 -2.07904 -0.964799 0
M  V30 710 C 68.4595 -1.00497 -1.28079 0
M  V30 711 O 69.6485 -1.28087 -1.24322 0
M  V30 712 C 66.7485 -2.49928 -2.28887 0
M  V30 713 C 65.9215 -3.80562 -2.15619 0
M  V30 714 C 64.9805 -4.08999 -3.31069 0
M  V30 715 O 64.0065 -4.79061 -3.0739 0
M  V30 716 N 65.2085 -3.6017 -4.55256 0
M  V30 717 H 67.9735 -2.94886 -0.535029 0
M  V30 718 H 65.5345 -1.61252 -0.144681 0
M  V30 719 H 67.5265 -2.66034 -3.04972 0
M  V30 720 H 66.0965 -1.68245 -2.63463 0
M  V30 721 H 65.3165 -3.74129 -1.24183 0
M  V30 722 H 66.6045 -4.66126 -2.03971 0
M  V30 723 H 66.0025 -3.03512 -4.77386 0
M  V30 724 H 64.5595 -3.81532 -5.28466 0
M  V30 725 N 67.9926 0.231505 -1.5589 0
M  V30 726 C 68.9226 1.29022 -1.94617 0
M  V30 727 C 69.9036 1.4941 -0.813067 0
M  V30 728 O 71.0886 1.6176 -1.07459 0
M  V30 729 C 68.2186 2.64199 -2.25424 0
M  V30 730 C 67.1726 2.58484 -3.41131 0
M  V30 731 C 66.4986 3.97599 -3.57518 0
M  V30 732 C 67.7986 2.1413 -4.76388 0
M  V30 733 H 69.4926 0.968563 -2.83301 0
M  V30 734 H 67.0386 0.464479 -1.36303 0
M  V30 735 H 68.9916 3.38413 -2.51107 0
M  V30 736 H 67.7156 2.98032 -1.33583 0
M  V30 737 H 66.3746 1.86727 -3.15481 0
M  V30 738 H 66.0226 4.28723 -2.6307 0
M  V30 739 H 65.7226 3.94659 -4.35337 0
M  V30 740 H 67.2466 4.7349 -3.85538 0
M  V30 741 H 68.6606 2.78083 -5.01341 0
M  V30 742 H 67.0576 2.2227 -5.57419 0
M  V30 743 H 68.1276 1.09331 -4.72414 0
M  V30 744 N 69.4707 1.49531 0.497807 0
M  V30 745 C 70.6987 1.62893 1.27567 0
M  V30 746 C 71.1137 0.301585 1.86376 0
M  V30 747 O 70.4707 -0.713335 1.67982 0
M  V30 748 C 70.5217 2.70013 2.40364 0
M  V30 749 O 70.2427 3.976 1.83972 0
M  V30 750 C 71.7437 2.94109 3.31685 0
M  V30 751 H 68.9637 0.548298 0.386794 0
M  V30 752 H 71.5077 1.95584 0.597245 0
M  V30 753 H 69.6627 2.40092 3.04031 0
M  V30 754 H 70.0767 4.56631 2.58047 0
M  V30 755 H 71.5507 3.72788 4.07104 0
M  V30 756 H 72.0277 2.04147 3.88871 0
M  V30 757 H 72.6337 3.2546 2.73781 0
M  V30 758 N 70.9488 -0.749086 1.3866 0
M  V30 759 C 72.3598 -1.32664 1.31366 0
M  V30 760 C 72.7108 -1.96179 -0.028484 0
M  V30 761 O 71.8358 -1.9537 -0.93057 0
M  V30 762 C 72.4308 -2.41219 2.37905 0
M  V30 763 C 70.9898 -2.94684 2.34176 0
M  V30 764 C 70.1368 -1.68108 2.20533 0
M  V30 765 H 73.0878 -0.547628 1.48952 0
M  V30 766 H 73.1088 -3.21268 2.0388 0
M  V30 767 H 72.6208 -1.94962 3.35576 0
M  V30 768 H 70.7218 -3.45258 1.401 0
M  V30 769 H 70.8348 -3.48757 3.2849 0
M  V30 770 H 69.1988 -1.91907 1.67463 0
M  V30 771 H 69.9818 -1.23923 3.20153 0
M  V30 772 N 72.4269 -1.23603 -0.977757 0
M  V30 773 C 73.3589 -0.977369 -2.07317 0
M  V30 774 C 74.3719 0.0495845 -1.62724 0
M  V30 775 O 75.5609 -0.186261 -1.77526 0
M  V30 776 C 72.6609 -0.451216 -3.35883 0
M  V30 777 C 71.8339 -1.53896 -4.09432 0
M  V30 778 C 70.8929 -1.01721 -5.16274 0
M  V30 779 O 69.9189 -1.70676 -5.43009 0
M  V30 780 N 71.1209 0.153594 -5.80297 0
M  V30 781 H 73.8859 -1.92047 -2.30082 0
M  V30 782 H 71.4469 -1.14497 -1.14465 0
M  V30 783 H 73.4389 -0.0871574 -4.04606 0
M  V30 784 H 72.0089 0.397368 -3.10064 0
M  V30 785 H 71.2289 -2.07566 -3.35127 0
M  V30 786 H 72.5169 -2.27037 -4.55337 0
M  V30 787 H 71.9149 0.730323 -5.60966 0
M  V30 788 H 70.4719 0.458892 -6.50183 0
M  V30 789 N 73.905 1.17692 -1.04816 0
M  V30 790 C 74.815 2.25229 -0.65643 0
M  V30 791 C 75.831 1.71018 0.320761 0
M  V30 792 O 77.007 2.00649 0.173805 0
M  V30 793 C 74.072 3.46684 -0.0332629 0
M  V30 794 C 73.133 4.15997 -1.06042 0
M  V30 795 C 72.366 5.31654 -0.466893 0
M  V30 796 O 72.589 5.65777 0.724758 0
M  V30 797 O 71.523 5.89831 -1.1993 0
M  V30 798 H 75.349 2.61016 -1.55255 0
M  V30 799 H 72.934 1.24919 -0.81949 0
M  V30 800 H 74.816 4.20234 0.313256 0
M  V30 801 H 73.491 3.12703 0.836566 0
M  V30 802 H 72.398 3.44482 -1.45886 0
M  V30 803 H 73.731 4.53996 -1.90127 0
M  V30 804 N 75.3831 0.828654 1.34056 0
M  V30 805 C 76.6601 0.341809 1.9259 0
M  V30 806 C 77.0401 -1.17158 1.75605 0
M  V30 807 O 76.3881 -1.98132 1.13824 0
M  V30 808 C 76.5981 0.777453 3.4023 0
M  V30 809 C 77.9461 0.779579 4.17382 0
M  V30 810 O 78.9701 0.7204 3.48839 0
M  V30 811 O 77.8291 0.857996 5.39723 0
M  V30 812 H 74.9231 0.0946085 0.821571 0
M  V30 813 H 77.4691 0.913827 1.42994 0
M  V30 814 H 76.2411 1.8196 3.46419 0
M  V30 815 H 75.8641 0.181444 3.97186 0
M  V30 816 N 76.8612 -1.46375 0.584142 0
M  V30 817 C 77.7712 -2.34115 -0.150728 0
M  V30 818 C 78.7872 -1.49838 -0.884567 0
M  V30 819 O 79.9632 -1.82704 -0.847429 0
M  V30 820 C 77.0282 -3.2705 -1.15062 0
M  V30 821 C 76.0892 -4.27228 -0.421293 0
M  V30 822 C 75.3222 -5.15722 -1.37355 0
M  V30 823 O 75.5452 -5.07176 -2.61014 0
M  V30 824 O 74.4792 -5.95383 -0.883355 0
M  V30 825 H 78.3052 -2.98309 0.569708 0
M  V30 826 H 75.8902 -1.45373 0.344535 0
M  V30 827 H 77.7722 -3.84381 -1.72712 0
M  V30 828 H 76.4472 -2.65451 -1.8525 0
M  V30 829 H 75.3542 -3.7358 0.197085 0
M  V30 830 H 76.6872 -4.91616 0.239641 0
M  V30 831 N 78.3393 -0.321999 -1.54275 0
M  V30 832 C 79.5643 0.285791 -2.05422 0
M  V30 833 C 79.9893 1.45124 -1.19669 0
M  V30 834 O 79.3473 1.80132 -0.205441 0
M  V30 835 C 79.3953 0.69956 -3.53749 0
M  V30 836 O 78.4993 1.8021 -3.70942 0
M  V30 837 H 77.8403 0.0518962 -0.661969 0
M  V30 838 H 80.3703 -0.469954 -1.9913 0
M  V30 839 H 80.3803 0.982649 -3.9599 0
M  V30 840 H 79.0553 -0.152864 -4.15619 0
M  V30 841 H 77.6323 1.51794 -3.40607 0
M  V30 842 N 79.8174 1.5752 -0.0501392 0
M  V30 843 C 81.0454 1.96963 0.633492 0
M  V30 844 C 81.4604 0.927631 1.6444 0
M  V30 845 O 80.8174 -0.0882665 1.82286 0
M  V30 846 C 80.8684 3.36487 1.32132 0
M  V30 847 O 80.5894 4.36693 0.350894 0
M  V30 848 C 82.0904 3.90682 2.09481 0
M  V30 849 H 79.3104 0.648244 0.173266 0
M  V30 850 H 81.8544 2.0417 -0.116134 0
M  V30 851 H 80.0094 3.30434 2.02218 0
M  V30 852 H 80.4234 5.17702 0.841735 0
M  V30 853 H 81.8974 4.90591 2.5303 0
M  V30 854 H 82.3744 3.26053 2.94255 0
M  V30 855 H 82.9804 4.00069 1.44307 0
M  V30 856 N 81.2955 -0.223234 1.56011 0
M  V30 857 C 82.2255 -1.27988 1.95298 0
M  V30 858 C 83.2065 -1.48976 0.820979 0
M  V30 859 O 84.3915 -1.61188 1.08315 0
M  V30 860 C 81.5215 -2.63 2.26822 0
M  V30 861 C 80.4755 -2.56671 3.42497 0
M  V30 862 C 79.8015 -3.95697 3.59622 0
M  V30 863 C 81.1015 -2.11601 4.77517 0
M  V30 864 H 82.7955 -0.953525 2.8381 0
M  V30 865 H 80.3415 -0.457244 1.36548 0
M  V30 866 H 82.2945 -3.37077 2.52898 0
M  V30 867 H 81.0185 -2.9732 1.35161 0
M  V30 868 H 79.6775 -1.85051 3.16467 0
M  V30 869 H 79.3255 -4.27322 2.6534 0
M  V30 870 H 79.0255 -3.92345 4.37424 0
M  V30 871 H 80.5495 -4.71438 3.88044 0
M  V30 872 H 81.9635 -2.7542 5.02809 0
M  V30 873 H 80.3605 -2.19311 5.5859 0
M  V30 874 H 81.4305 -1.06824 4.72987 0
M  V30 875 N 82.7736 -1.49793 -0.48987 0
M  V30 876 C 83.7206 -1.67281 -1.59014 0
M  V30 877 C 84.6906 -0.514177 -1.57941 0
M  V30 878 O 85.8756 -0.742533 -1.75759 0
M  V30 879 C 83.0156 -1.75569 -2.97102 0
M  V30 880 C 82.1286 -3.0281 -3.08107 0
M  V30 881 C 81.2636 -3.02008 -4.36995 0
M  V30 882 C 80.3026 -4.23782 -4.41673 0
M  V30 883 N 79.4396 -4.20826 -5.62005 0
M  V30 884 H 84.2796 -2.61224 -1.43409 0
M  V30 885 H 81.8166 -1.29508 -0.697565 0
M  V30 886 H 83.7746 -1.78354 -3.77155 0
M  V30 887 H 82.4046 -0.850827 -3.11385 0
M  V30 888 H 81.4566 -3.09584 -2.21047 0
M  V30 889 H 82.7686 -3.92801 -3.07423 0
M  V30 890 H 81.9226 -3.03418 -5.25378 0
M  V30 891 H 80.6616 -2.09815 -4.4026 0
M  V30 892 H 79.6666 -4.22604 -3.5169 0
M  V30 893 H 80.8916 -5.17181 -4.40115 0
M  V30 894 H 78.8376 -3.31476 -5.66091 0
M  V30 895 H 78.7546 -5.04564 -5.62984 0
M  V30 896 H 80.0226 -4.26355 -6.52565 0
M  V30 897 N 84.2517 0.741722 -1.39055 0
M  V30 898 C 85.4977 1.50336 -1.36113 0
M  V30 899 C 85.8307 1.94148 0.0450796 0
M  V30 900 O 85.1057 1.66301 1.00868 0
M  V30 901 C 85.3887 2.74773 -2.32749 0
M  V30 902 C 85.2417 2.37023 -3.82283 0
M  V30 903 C 86.5607 3.76846 -2.27322 0
M  V30 904 H 83.6797 0.545351 -0.495743 0
M  V30 905 H 86.3217 0.848624 -1.69995 0
M  V30 906 H 84.4717 3.30639 -2.03986 0
M  V30 907 H 86.1437 1.8684 -4.21768 0
M  V30 908 H 84.3867 1.69334 -3.99385 0
M  V30 909 H 85.0577 3.26104 -4.45376 0
M  V30 910 H 87.5337 3.30548 -2.5274 0
M  V30 911 H 86.4097 4.6159 -2.97028 0
M  V30 912 H 86.6707 4.23286 -1.27599 0
M  V30 913 N 85.7298 1.2412 0.971189 0
M  V30 914 C 86.6398 1.04747 2.09917 0
M  V30 915 C 87.6558 -0.0107162 1.73997 0
M  V30 916 O 88.8318 0.186714 2.00533 0
M  V30 917 C 85.8968 0.650828 3.40537 0
M  V30 918 C 84.9578 1.7851 3.90426 0
M  V30 919 C 84.1908 1.40729 5.14812 0
M  V30 920 O 84.4138 0.29557 5.69634 0
M  V30 921 O 83.3478 2.23168 5.58999 0
M  V30 922 H 87.1738 1.99304 2.29154 0
M  V30 923 H 84.7588 1.02908 1.08307 0
M  V30 924 H 86.6408 0.440992 4.19086 0
M  V30 925 H 85.3158 -0.265649 3.22608 0
M  V30 926 H 84.2228 2.04966 3.12953 0
M  V30 927 H 85.5558 2.68023 4.12825 0
M  V30 928 N 87.2079 -1.17134 1.05439 0
M  V30 929 C 88.1379 -2.2342 0.678649 0
M  V30 930 C 89.1189 -1.66971 -0.32476 0
M  V30 931 O 90.3039 -1.93149 -0.201802 0
M  V30 932 C 87.4339 -3.47256 0.0552099 0
M  V30 933 C 86.3879 -4.16543 0.98365 0
M  V30 934 C 85.7139 -5.34231 0.223961 0
M  V30 935 C 87.0139 -4.68495 2.3089 0
M  V30 936 H 88.7079 -2.55105 1.56722 0
M  V30 937 H 86.2539 -1.2262 0.754998 0
M  V30 938 H 88.2069 -4.20828 -0.21946 0
M  V30 939 H 86.9309 -3.14846 -0.868319 0
M  V30 940 H 85.5899 -3.44887 1.24293 0
M  V30 941 H 85.2379 -4.98071 -0.702412 0
M  V30 942 H 84.9379 -5.81527 0.842627 0
M  V30 943 H 86.4619 -6.10585 -0.0433671 0
M  V30 944 H 87.8759 -5.33691 2.09396 0
M  V30 945 H 86.2729 -5.26379 2.88176 0
M  V30 946 H 87.3429 -3.85169 2.94572 0
M  V30 947 N 88.686 -0.835752 -1.33615 0
M  V30 948 C 89.616 -0.281739 -2.31794 0
M  V30 949 C 90.597 0.608833 -1.58831 0
M  V30 950 O 91.782 0.533035 -1.86741 0
M  V30 951 C 88.912 0.546612 -3.42971 0
M  V30 952 C 87.866 -0.247904 -4.27281 0
M  V30 953 C 87.192 0.704001 -5.30045 0
M  V30 954 C 88.492 -1.46324 -5.01385 0
M  V30 955 H 90.186 -1.10206 -2.78379 0
M  V30 956 H 87.732 -0.531388 -1.33837 0
M  V30 957 H 89.685 0.944467 -4.1068 0
M  V30 958 H 88.409 1.40011 -2.95067 0
M  V30 959 H 87.068 -0.627281 -3.61194 0
M  V30 960 H 86.716 1.55381 -4.78399 0
M  V30 961 H 86.416 0.176524 -5.87335 0
M  V30 962 H 87.94 1.09944 -6.0062 0
M  V30 963 H 89.354 -1.13871 -5.61877 0
M  V30 964 H 87.751 -1.92728 -5.6831 0
M  V30 965 H 88.821 -2.23467 -4.30338 0
M  V30 966 N 90.1641 1.46063 -0.591896 0
M  V30 967 C 91.4131 2.01547 -0.0786637 0
M  V30 968 C 91.7261 1.46796 1.29268 0
M  V30 969 O 92.9321 1.94157 1.89777 0
M  V30 970 C 91.3881 3.59787 -0.0900024 0
M  V30 971 C 90.9961 4.23534 -1.46023 0
M  V30 972 C 92.7401 4.22895 0.368806 0
M  V30 973 C 90.6471 5.73881 -1.4288 0
M  V30 974 H 89.5771 0.753564 -0.0256388 0
M  V30 975 H 92.2281 1.677 -0.744905 0
M  V30 976 H 90.6101 3.90752 0.642586 0
M  V30 977 H 91.7841 4.04167 -2.21328 0
M  V30 978 H 90.0991 3.72558 -1.85982 0
M  V30 979 H 92.6961 5.33116 0.411258 0
M  V30 980 H 93.0391 3.9247 1.38827 0
M  V30 981 H 93.5721 3.9659 -0.31001 0
M  V30 982 H 90.3111 6.0898 -2.42536 0
M  V30 983 H 89.8311 5.95486 -0.718095 0
M  V30 984 H 91.5101 6.36776 -1.14565 0
M  V30 985 N 91.6422 0.330177 1.54103 0
M  V30 986 C 92.8902 -0.269871 2.0029 0
M  V30 987 C 93.2112 -1.52133 1.21986 0
M  V30 988 O 92.4812 -1.93212 0.323438 0
M  V30 989 H 91.0612 -0.10271 0.739905 0
M  V30 990 H 93.7232 0.448249 1.89675 0
M  V30 991 H 92.8192 -0.52166 3.07709 0
M  V30 992 N 93.1203 -1.57491 0.0584922 0
M  V30 993 C 94.0523 -2.08916 -0.942694 0
M  V30 994 C 95.0653 -1.0185 -1.27006 0
M  V30 995 O 96.2543 -1.29398 -1.22957 0
M  V30 996 C 93.3543 -2.52341 -2.26224 0
M  V30 997 C 92.5273 -3.82827 -2.1157 0
M  V30 998 C 91.5863 -4.12487 -3.26712 0
M  V30 999 O 90.6123 -4.82295 -3.02292 0
M  V30 1000 N 91.8143 -3.64978 -4.5141 0
M  V30 1001 H 94.5793 -2.95437 -0.503722 0
M  V30 1002 H 92.1403 -1.61397 -0.12757 0
M  V30 1003 H 94.1323 -2.69254 -3.02133 0
M  V30 1004 H 92.7023 -1.7103 -2.61663 0
M  V30 1005 H 91.9223 -3.75425 -1.20208 0
M  V30 1006 H 93.2103 -4.68263 -1.99015 0
M  V30 1007 H 92.6083 -3.08558 -4.7414 0
M  V30 1008 H 91.1653 -3.87115 -5.2439 0
M  V30 1009 N 94.5984 0.214957 -1.56127 0
M  V30 1010 C 95.8264 0.955092 -1.83536 0
M  V30 1011 C 96.2414 1.77677 -0.638472 0
M  V30 1012 O 95.5984 1.78219 0.392968 0
M  V30 1013 C 95.6494 1.86734 -3.09536 0
M  V30 1014 O 95.3704 1.07887 -4.24608 0
M  V30 1015 C 96.8714 2.72082 -3.4998 0
M  V30 1016 H 94.0914 0.279611 -0.609966 0
M  V30 1017 H 96.6354 0.228197 -2.03223 0
M  V30 1018 H 94.7904 2.5481 -2.91806 0
M  V30 1019 H 95.2044 1.69872 -4.9623 0
M  V30 1020 H 96.6784 3.31782 -4.41163 0
M  V30 1021 H 97.1554 3.44806 -2.7204 0
M  V30 1022 H 97.7614 2.09409 -3.70173 0
M  V30 1023 N 96.0765 1.50051 0.48192 0
M  V30 1024 C 97.0065 1.71046 1.58951 0
M  V30 1025 C 97.9875 0.559288 1.60642 0
M  V30 1026 O 99.1725 0.797243 1.77081 0
M  V30 1027 C 96.3025 1.79462 2.97339 0
M  V30 1028 C 95.2565 2.94558 3.10515 0
M  V30 1029 C 94.5825 2.88105 4.50444 0
M  V30 1030 C 95.8825 4.35227 2.88747 0
M  V30 1031 H 97.5765 2.6378 1.41635 0
M  V30 1032 H 95.1225 1.26936 0.679942 0
M  V30 1033 H 97.0755 1.92734 3.74742 0
M  V30 1034 H 95.7995 0.833412 3.15788 0
M  V30 1035 H 94.4585 2.80918 2.35543 0
M  V30 1036 H 94.1065 1.89853 4.65795 0
M  V30 1037 H 93.8065 3.65366 4.60197 0
M  V30 1038 H 95.3305 3.03412 5.29881 0
M  V30 1039 H 96.7445 4.49449 3.55905 0
M  V30 1040 H 95.1415 5.13856 3.09955 0
M  V30 1041 H 96.2115 4.48347 1.84696 0
M  V30 1042 N 97.5546 -0.734337 1.39446 0
M  V30 1043 C 98.4646 -1.87879 1.40495 0
M  V30 1044 C 99.4806 -1.714 0.299672 0
M  V30 1045 O 100.657 -1.93991 0.541249 0
M  V30 1046 C 97.7216 -3.23477 1.24754 0
M  V30 1047 C 96.7826 -3.52344 2.45259 0
M  V30 1048 C 96.0156 -4.81473 2.30259 0
M  V30 1049 O 96.2386 -5.55237 1.30643 0
M  V30 1050 O 95.1726 -5.10254 3.19256 0
M  V30 1051 H 98.9986 -1.89949 2.36966 0
M  V30 1052 H 96.5836 -0.882243 1.20569 0
M  V30 1053 H 98.4656 -4.04509 1.18111 0
M  V30 1054 H 97.1406 -3.22176 0.313781 0
M  V30 1055 H 96.0476 -2.71396 2.57478 0
M  V30 1056 H 97.3806 -3.58426 3.37331 0
M  V30 1057 N 99.0327 -1.24633 -0.964593 0
M  V30 1058 C 100.279 -1.08949 -1.71049 0
M  V30 1059 C 100.612 0.370302 -1.90637 0
M  V30 1060 O 99.8867 1.27349 -1.47011 0
M  V30 1061 C 100.17 -1.83329 -3.0994 0
M  V30 1062 C 100.023 -3.37077 -2.97824 0
M  V30 1063 C 101.342 -1.60846 -4.09654 0
M  V30 1064 H 98.4607 -0.397178 -0.620821 0
M  V30 1065 H 101.103 -1.5334 -1.12191 0
M  V30 1066 H 99.2527 -1.45597 -3.60186 0
M  V30 1067 H 100.925 -3.84425 -2.5498 0
M  V30 1068 H 99.1677 -3.65298 -2.33965 0
M  V30 1069 H 99.8387 -3.84324 -3.96231 0
M  V30 1070 H 102.315 -1.93674 -3.68279 0
M  V30 1071 H 101.191 -2.1534 -5.04896 0
M  V30 1072 H 101.452 -0.547434 -4.38698 0
M  V30 1073 N 100.511 1.16574 -1.06058 0
M  V30 1074 C 101.788 1.83048 -0.689416 0
M  V30 1075 C 102.168 1.94122 0.829443 0
M  V30 1076 O 101.516 1.48249 1.7388 0
M  V30 1077 C 101.726 3.20186 -1.38859 0
M  V30 1078 C 103.074 3.95989 -1.53226 0
M  V30 1079 O 104.098 3.29696 -1.3483 0
M  V30 1080 O 102.957 5.14813 -1.83384 0
M  V30 1081 H 100.051 0.790258 -0.243764 0
M  V30 1082 H 102.597 1.23797 -1.16071 0
M  V30 1083 H 101.369 3.07146 -2.4244 0
M  V30 1084 H 100.992 3.87112 -0.907216 0
M  V30 1085 N 101.989 0.842826 1.3317 0
M  V30 1086 C 103.229 0.446574 1.99462 0
M  V30 1087 C 103.593 -0.976818 1.65295 0
M  V30 1088 O 104.794 -1.477 2.24584 0
M  V30 1089 C 103.065 0.665353 3.51152 0
M  V30 1090 S 104.624 0.364911 4.3728 0
M  V30 1091 H 101.442 0.167803 0.690915 0
M  V30 1092 H 104.044 1.09297 1.62094 0
M  V30 1093 H 102.748 1.7006 3.73507 0
M  V30 1094 H 102.279 0.00494568 3.934 0
M  V30 1095 H 104.294 -0.813761 4.89482 0
M  V30 1096 N 103.467 -1.45747 0.599634 0
M  V30 1097 C 104.415 -2.322 -0.136426 0
M  V30 1098 C 105.409 -1.45497 -0.867583 0
M  V30 1099 O 106.615 -1.62027 -0.78405 0
M  V30 1100 H 102.99 -0.749368 -0.0628588 0
M  V30 1101 H 104.961 -2.92072 0.611281 0
M  V30 1102 C 103.71 -3.28974 -1.12567 0
M  V30 1103 H 103.033 -3.9568 -0.572484 0
M  V30 1104 H 104.473 -3.92212 -1.61077 0
M  V30 1105 C 102.932 -2.55561 -2.19523 0
M  V30 1106 O 103.462 -2.33111 -3.27143 0
M  V30 1107 N 101.668 -2.15832 -1.94589 0
M  V30 1108 H 101.215 -2.3429 -1.07078 0
M  V30 1109 H 101.173 -1.67034 -2.66359 0
M  V30 1110 N 104.945 -0.338344 -1.53925 0
M  V30 1111 C 105.875 0.51328 -2.27789 0
M  V30 1112 C 106.856 1.107 -1.29149 0
M  V30 1113 O 108.041 1.12937 -1.57984 0
M  V30 1114 C 105.171 1.66697 -3.04679 0
M  V30 1115 C 104.125 1.20183 -4.1078 0
M  V30 1116 C 103.451 2.44363 -4.75595 0
M  V30 1117 C 104.751 0.30605 -5.21403 0
M  V30 1118 H 106.445 -0.102883 -2.99223 0
M  V30 1119 H 103.991 -0.0509219 -1.4391 0
M  V30 1120 H 105.944 2.26915 -3.55088 0
M  V30 1121 H 104.668 2.30995 -2.30887 0
M  V30 1122 H 103.327 0.622499 -3.61276 0
M  V30 1123 H 102.975 3.07057 -3.98403 0
M  V30 1124 H 102.675 2.13925 -5.47275 0
M  V30 1125 H 104.199 3.05317 -5.28786 0
M  V30 1126 H 105.613 0.814929 -5.67478 0
M  V30 1127 H 104.01 0.0937929 -6.00027 0
M  V30 1128 H 105.08 -0.65921 -4.80398 0
M  V30 1129 N 106.423 1.57458 -0.0668435 0
M  V30 1130 C 107.373 2.0896 0.912119 0
M  V30 1131 C 108.357 0.998186 1.26195 0
M  V30 1132 O 109.549 1.26133 1.24175 0
M  V30 1133 C 106.678 2.6508 2.18145 0
M  V30 1134 C 105.764 3.81218 1.85832 0
M  V30 1135 N 106.155 4.90378 1.23948 0
M  V30 1136 C 104.453 3.9042 2.15612 0
M  V30 1137 C 105.154 5.71279 1.09616 0
M  V30 1138 N 104.13 5.19389 1.60423 0
M  V30 1139 H 107.932 2.90749 0.42924 0
M  V30 1140 H 105.446 1.6182 0.137184 0
M  V30 1141 H 107.443 3.0029 2.89192 0
M  V30 1142 H 106.103 1.84736 2.67025 0
M  V30 1143 H 107.114 5.09847 0.909731 0
M  V30 1144 H 103.791 3.21043 2.66903 0
M  V30 1145 H 105.181 6.69085 0.614425 0
M  V30 1146 N 107.901 -0.206675 1.56239 0
M  V30 1147 C 109.317 -0.557025 1.49564 0
M  V30 1148 C 109.517 -1.86424 0.764735 0
M  V30 1149 O 108.573 -2.50584 0.310491 0
M  V30 1150 C 109.886 -0.622478 2.94186 0
M  V30 1151 C 111.434 -0.712099 3.04792 0
M  V30 1152 C 111.909 -0.808767 4.50803 0
M  V30 1153 N 113.4 -0.8726 4.54907 0
M  V30 1154 C 114.135 -0.967365 5.65181 0
M  V30 1155 N 113.631 -1.02515 6.85173 0
M  V30 1156 N 115.424 -1.00366 5.53067 0
M  V30 1157 H 107.575 0.650943 2.02179 0
M  V30 1158 H 109.838 0.230387 0.919579 0
M  V30 1159 H 109.544 0.268727 3.50672 0
M  V30 1160 H 109.418 -1.4811 3.46905 0
M  V30 1161 H 111.805 -1.59374 2.48363 0
M  V30 1162 H 111.886 0.172489 2.55218 0
M  V30 1163 H 111.53 0.0684754 5.07854 0
M  V30 1164 H 111.46 -1.70899 4.98098 0
M  V30 1165 H 113.951 -0.837657 3.68499 0
M  V30 1166 H 114.264 -1.09765 7.64965 0
M  V30 1167 H 112.609 -0.994026 6.87855 0
M  V30 1168 H 115.8 -0.95527 4.58249 0
M  V30 1169 H 115.973 -1.07405 6.39037 0
M  V30 1170 N 109.379 -1.50304 -0.473955 0
M  V30 1171 C 110.309 -1.71886 -1.58042 0
M  V30 1172 C 111.29 -0.567799 -1.60344 0
M  V30 1173 O 112.475 -0.806623 -1.76656 0
M  V30 1174 C 109.605 -1.81036 -2.96384 0
M  V30 1175 C 108.559 -2.962 -3.08949 0
M  V30 1176 C 107.885 -2.9049 -4.48909 0
M  V30 1177 C 109.185 -4.36752 -2.86434 0
M  V30 1178 H 110.879 -2.64527 -1.40234 0
M  V30 1179 H 108.425 -1.27295 -0.673201 0
M  V30 1180 H 110.378 -1.94719 -3.73714 0
M  V30 1181 H 109.102 -0.850147 -3.15341 0
M  V30 1182 H 107.761 -2.82164 -2.3405 0
M  V30 1183 H 107.409 -1.92321 -4.64781 0
M  V30 1184 H 107.109 -3.67802 -4.58253 0
M  V30 1185 H 108.633 -3.06218 -5.28264 0
M  V30 1186 H 110.047 -4.5133 -3.53517 0
M  V30 1187 H 108.444 -5.15493 -3.07225 0
M  V30 1188 H 109.514 -4.49321 -1.82316 0
M  V30 1189 N 110.857 0.726932 -1.39834 0
M  V30 1190 C 112.105 1.4837 -1.37225 0
M  V30 1191 C 112.426 1.94979 0.0284857 0
M  V30 1192 O 111.696 1.69555 0.981213 0
M  V30 1193 H 110.276 0.55043 -0.505011 0
M  V30 1194 H 112.938 0.862468 -1.74778 0
M  V30 1195 H 112.034 2.36198 -2.04003 0
M  V30 1196 N 112.336 1.25143 0.95797 0
M  V30 1197 C 113.584 1.09476 1.69881 0
M  V30 1198 C 113.905 -0.365502 1.91544 0
M  V30 1199 O 113.175 -1.25985 1.50015 0
M  V30 1200 H 111.755 0.402128 0.629525 0
M  V30 1201 H 114.417 1.57214 1.15194 0
M  V30 1202 H 113.513 1.60046 2.6794 0
M  V30 1203 N 113.814 -1.1601 1.06675 0
M  V30 1204 C 114.761 -2.20525 0.680967 0
M  V30 1205 C 115.731 -1.62904 -0.324283 0
M  V30 1206 O 116.916 -1.89615 -0.212294 0
M  V30 1207 C 114.056 -3.45013 0.0776551 0
M  V30 1208 C 113.169 -4.16863 1.13355 0
M  V30 1209 C 112.304 -5.2888 0.49597 0
M  V30 1210 C 111.343 -5.92537 1.53513 0
M  V30 1211 N 110.48 -6.96038 0.920631 0
M  V30 1212 H 115.32 -2.52876 1.57663 0
M  V30 1213 H 112.857 -1.24199 0.788223 0
M  V30 1214 H 114.815 -4.16193 -0.289704 0
M  V30 1215 H 113.445 -3.132 -0.781393 0
M  V30 1216 H 112.497 -3.44248 1.61857 0
M  V30 1217 H 113.809 -4.60294 1.92174 0
M  V30 1218 H 112.963 -6.06653 0.0758604 0
M  V30 1219 H 111.702 -4.86622 -0.324062 0
M  V30 1220 H 110.707 -5.13482 1.9651 0
M  V30 1221 H 111.932 -6.36873 2.35733 0
M  V30 1222 H 109.878 -6.55888 0.12138 0
M  V30 1223 H 109.795 -7.3786 1.64616 0
M  V30 1224 H 111.063 -7.77725 0.525795 0
M  V30 1225 N 115.292 -0.849877 -1.32721 0
M  V30 1226 C 116.222 -0.306308 -2.31482 0
M  V30 1227 C 117.203 0.591952 -1.59468 0
M  V30 1228 O 118.388 0.513199 -1.87296 0
M  V30 1229 C 115.518 0.510204 -3.43532 0
M  V30 1230 C 114.472 -0.293209 -4.26994 0
M  V30 1231 C 113.798 0.647743 -5.30762 0
M  V30 1232 C 115.098 -1.51634 -4.99804 0
M  V30 1233 H 116.792 -1.13153 -2.77195 0
M  V30 1234 H 114.338 -0.545553 -1.33266 0
M  V30 1235 H 116.291 0.900856 -4.11658 0
M  V30 1236 H 115.015 1.36874 -2.96535 0
M  V30 1237 H 113.674 -0.665555 -3.60508 0
M  V30 1238 H 113.322 1.50299 -4.8002 0
M  V30 1239 H 113.022 0.11422 -5.87489 0
M  V30 1240 H 114.546 1.03567 -6.01753 0
M  V30 1241 H 115.96 -1.19824 -5.60638 0
M  V30 1242 H 114.357 -1.98745 -5.66234 0
M  V30 1243 H 115.427 -2.28018 -4.27943 0
M  V30 1244 N 116.77 1.45427 -0.607355 0
M  V30 1245 C 117.68 2.34325 0.113463 0
M  V30 1246 C 118.696 1.51226 0.860617 0
M  V30 1247 O 119.872 1.84029 0.818255 0
M  V30 1248 C 116.937 3.28839 1.09844 0
M  V30 1249 C 115.998 4.27844 0.353271 0
M  V30 1250 C 115.231 5.17842 1.29133 0
M  V30 1251 O 115.454 5.11264 2.52913 0
M  V30 1252 O 114.388 5.96713 0.788523 0
M  V30 1253 H 118.214 2.97364 -0.617094 0
M  V30 1254 H 115.799 1.44807 -0.367619 0
M  V30 1255 H 117.681 3.8708 1.66575 0
M  V30 1256 H 116.356 2.68365 1.81003 0
M  V30 1257 H 115.263 3.7322 -0.256494 0
M  V30 1258 H 116.596 4.91173 -0.317822 0
M  V30 1259 N 118.248 0.346503 1.53744 0
M  V30 1260 C 119.196 -0.52422 2.26616 0
M  V30 1261 C 120.19 -1.09948 1.28871 0
M  V30 1262 O 121.396 -1.04488 1.46568 0
M  V30 1263 H 117.771 -0.187743 0.728187 0
M  V30 1264 H 119.742 0.11239 2.98188 0
M  V30 1265 C 118.491 -1.66186 3.05414 0
M  V30 1266 H 117.814 -1.22848 3.80458 0
M  V30 1267 H 119.254 -2.24622 3.59612 0
M  V30 1268 C 117.713 -2.59302 2.1509 0
M  V30 1269 O 118.243 -3.61628 1.74895 0
M  V30 1270 N 116.449 -2.28055 1.8011 0
M  V30 1271 H 115.996 -1.44883 2.12994 0
M  V30 1272 H 115.954 -2.90615 1.19958 0
M  V30 1273 N 119.726 -1.57421 0.075193 0
M  V30 1274 C 120.673 -2.12915 -0.890843 0
M  V30 1275 C 121.643 -1.04252 -1.29309 0
M  V30 1276 O 122.828 -1.31933 -1.37834 0
M  V30 1277 C 119.968 -2.69795 -2.15186 0
M  V30 1278 C 119.081 -3.92624 -1.80194 0
M  V30 1279 C 118.216 -4.37736 -3.00933 0
M  V30 1280 C 117.255 -5.53205 -2.61974 0
M  V30 1281 N 116.392 -5.9326 -3.75483 0
M  V30 1282 H 121.232 -2.95156 -0.410735 0
M  V30 1283 H 118.769 -1.45854 -0.191086 0
M  V30 1284 H 120.727 -3.00883 -2.89008 0
M  V30 1285 H 119.357 -1.90313 -2.60731 0
M  V30 1286 H 118.409 -3.67977 -0.964218 0
M  V30 1287 H 119.721 -4.76482 -1.47534 0
M  V30 1288 H 118.875 -4.70503 -3.8303 0
M  V30 1289 H 117.614 -3.52739 -3.36789 0
M  V30 1290 H 116.619 -5.20086 -1.783 0
M  V30 1291 H 117.844 -6.39936 -2.27284 0
M  V30 1292 H 115.79 -5.11212 -4.11094 0
M  V30 1293 H 115.707 -6.71865 -3.46602 0
M  V30 1294 H 116.975 -6.30651 -4.58148 0
M  V30 1295 N 121.204 0.198386 -1.56346 0
M  V30 1296 C 122.432 0.935572 -1.84539 0
M  V30 1297 C 122.847 1.76989 -0.657281 0
M  V30 1298 O 122.204 1.78626 0.374043 0
M  V30 1299 C 122.255 1.8344 -3.11499 0
M  V30 1300 O 121.976 1.03377 -4.25728 0
M  V30 1301 C 123.477 2.68355 -3.52846 0
M  V30 1302 H 120.697 0.273126 -0.612897 0
M  V30 1303 H 123.241 0.20663 -2.03453 0
M  V30 1304 H 121.396 2.51701 -2.94492 0
M  V30 1305 H 121.81 1.64599 -4.98003 0
M  V30 1306 H 123.284 3.27085 -4.44657 0
M  V30 1307 H 123.761 3.41901 -2.75681 0
M  V30 1308 H 124.367 2.05471 -3.72373 0
M  V30 1309 N 122.682 1.50554 0.465978 0
M  V30 1310 C 123.612 1.72722 1.57128 0
M  V30 1311 C 124.593 0.576294 1.6004 0
M  V30 1312 O 125.778 0.81598 1.76225 0
M  V30 1313 C 122.908 1.82605 2.95419 0
M  V30 1314 C 121.862 2.97835 3.07373 0
M  V30 1315 C 121.188 2.92867 4.47363 0
M  V30 1316 C 122.488 4.38265 2.84114 0
M  V30 1317 H 124.182 2.65267 1.38829 0
M  V30 1318 H 121.728 1.2765 0.666441 0
M  V30 1319 H 123.681 1.96698 3.72677 0
M  V30 1320 H 122.405 0.866858 3.14886 0
M  V30 1321 H 121.064 2.83401 2.3255 0
M  V30 1322 H 120.712 1.94783 4.63755 0
M  V30 1323 H 120.412 3.70227 4.56296 0
M  V30 1324 H 121.936 3.09015 5.26633 0
M  V30 1325 H 123.35 4.53198 3.51118 0
M  V30 1326 H 121.747 5.17115 3.04487 0
M  V30 1327 H 122.817 4.50281 1.7993 0
M  V30 1328 N 124.16 -0.719506 1.40217 0
M  V30 1329 C 125.07 -1.86378 1.42479 0
M  V30 1330 C 126.086 -1.71073 0.317834 0
M  V30 1331 O 127.262 -1.93406 0.561794 0
M  V30 1332 C 124.327 -3.22136 1.28178 0
M  V30 1333 C 123.388 -3.49723 2.48982 0
M  V30 1334 C 122.621 -4.79004 2.35353 0
M  V30 1335 O 122.844 -5.53821 1.36524 0
M  V30 1336 O 121.778 -5.06839 3.2465 0
M  V30 1337 H 125.604 -1.87425 2.38968 0
M  V30 1338 H 123.189 -0.869405 1.21498 0
M  V30 1339 H 125.071 -4.03234 1.22395 0
M  V30 1340 H 123.746 -3.21825 0.347934 0
M  V30 1341 H 122.653 -2.6865 2.60342 0
M  V30 1342 H 123.986 -3.54828 3.41113 0
M  V30 1343 N 125.638 -1.25649 -0.95132 0
M  V30 1344 C 126.886 -1.10375 -1.69298 0
M  V30 1345 C 127.207 0.355339 -1.91735 0
M  V30 1346 O 126.477 1.25188 -1.50681 0
M  V30 1347 H 125.057 -0.405461 -0.627384 0
M  V30 1348 H 127.719 -1.57823 -1.14358 0
M  V30 1349 H 126.815 -1.61465 -2.67087 0
M  V30 1350 N 127.117 1.15442 -1.07289 0
M  V30 1351 C 128.363 1.8672 -0.806679 0
M  V30 1352 C 128.718 1.80723 0.660084 0
M  V30 1353 O 128.011 1.21902 1.47819 0
M  V30 1354 C 128.205 3.3489 -1.24834 0
M  V30 1355 C 128.034 3.55313 -2.7565 0
M  V30 1356 C 126.804 3.7082 -3.4325 0
M  V30 1357 C 129.002 3.53188 -3.73848 0
M  V30 1358 N 126.984 3.7929 -4.82713 0
M  V30 1359 C 128.355 3.67765 -4.99149 0
M  V30 1360 C 130.41 3.36459 -3.67015 0
M  V30 1361 C 129.113 3.6734 -6.18428 0
M  V30 1362 C 131.139 3.37333 -4.85758 0
M  V30 1363 C 130.501 3.52438 -6.09891 0
M  V30 1364 H 126.6 0.700433 -0.347733 0
M  V30 1365 H 129.184 1.38441 -1.36902 0
M  V30 1366 H 127.355 3.81786 -0.713713 0
M  V30 1367 H 129.087 3.93875 -0.929745 0
M  V30 1368 H 125.842 3.71568 -2.93656 0
M  V30 1369 H 126.266 3.8727 -5.55294 0
M  V30 1370 H 130.908 3.237 -2.71989 0
M  V30 1371 H 128.626 3.78878 -7.13777 0
M  V30 1372 H 132.212 3.25617 -4.82146 0
M  V30 1373 H 131.092 3.53047 -7.00234 0
M  V30 1374 N 128.595 0.856903 1.32268 0
M  V30 1375 C 129.843 0.460474 1.96784 0
M  V30 1376 C 130.164 -0.987701 1.68135 0
M  V30 1377 O 129.434 -1.69058 0.989765 0
M  V30 1378 H 128.014 0.167289 0.728027 0
M  V30 1379 H 130.676 1.09383 1.61312 0
M  V30 1380 H 129.772 0.60739 3.06133 0
M  V30 1381 N 130.073 -1.45103 0.615059 0
M  V30 1382 C 131.303 -2.06254 0.119596 0
M  V30 1383 C 131.711 -1.4591 -1.20445 0
M  V30 1384 O 131.054 -0.570384 -1.7462 0
M  V30 1385 C 131.116 -3.59396 -0.0865591 0
M  V30 1386 C 130.78 -4.42116 1.15683 0
M  V30 1387 C 131.777 -4.7662 2.07676 0
M  V30 1388 C 129.462 -4.82749 1.38775 0
M  V30 1389 C 131.456 -5.50622 3.21082 0
M  V30 1390 C 129.143 -5.56504 2.52481 0
M  V30 1391 C 130.141 -5.90358 3.43463 0
M  V30 1392 O 129.829 -6.62615 4.55189 0
M  V30 1393 H 129.561 -0.672423 0.0694512 0
M  V30 1394 H 132.115 -1.87219 0.844885 0
M  V30 1395 H 130.345 -3.76859 -0.866823 0
M  V30 1396 H 132.034 -4.02365 -0.534555 0
M  V30 1397 H 132.8 -4.4578 1.91063 0
M  V30 1398 H 128.679 -4.55829 0.688545 0
M  V30 1399 H 132.223 -5.76965 3.92119 0
M  V30 1400 H 128.12 -5.86759 2.69043 0
M  V30 1401 H 128.888 -6.81071 4.53966 0
M  V30 1402 N 131.551 -0.354651 -1.53558 0
M  V30 1403 C 132.828 0.294281 -1.93374 0
M  V30 1404 C 133.208 1.67313 -1.28723 0
M  V30 1405 O 132.556 2.24179 -0.442247 0
M  V30 1406 C 132.766 0.355445 -3.47185 0
M  V30 1407 C 134.114 0.601007 -4.20325 0
M  V30 1408 O 135.138 0.437106 -3.53508 0
M  V30 1409 O 133.997 0.919322 -5.38712 0
M  V30 1410 H 131.091 0.174033 -0.808481 0
M  V30 1411 H 133.637 -0.406638 -1.64756 0
M  V30 1412 H 132.409 -0.611729 -3.86489 0
M  V30 1413 H 132.032 1.1027 -3.82003 0
M  V30 1414 N 133.029 1.57378 -0.0835403 0
M  V30 1415 C 134.259 1.97975 0.590713 0
M  V30 1416 C 134.667 0.961083 1.62972 0
M  V30 1417 O 134.01 -0.0590879 1.83605 0
M  V30 1418 C 134.072 3.34915 1.3066 0
M  V30 1419 C 133.736 4.55069 0.419698 0
M  V30 1420 C 134.733 5.18868 -0.32749 0
M  V30 1421 C 132.418 5.0114 0.341137 0
M  V30 1422 C 134.412 6.27098 -1.14134 0
M  V30 1423 C 132.099 6.0924 -0.476374 0
M  V30 1424 C 133.097 6.72083 -1.21627 0
M  V30 1425 O 132.785 7.781 -2.02028 0
M  V30 1426 H 132.517 0.655818 0.163947 0
M  V30 1427 H 135.071 2.04807 -0.156021 0
M  V30 1428 H 133.301 3.24733 2.09966 0
M  V30 1429 H 134.99 3.60037 1.87424 0
M  V30 1430 H 135.756 4.84211 -0.276459 0
M  V30 1431 H 131.635 4.51996 0.90668 0
M  V30 1432 H 135.179 6.7608 -1.71935 0
M  V30 1433 H 131.076 6.43329 -0.528927 0
M  V30 1434 H 131.844 7.95034 -1.94586 0
M  V30 1435 N 134.507 -0.190092 1.56449 0
M  V30 1436 C 135.737 -0.92443 1.84764 0
M  V30 1437 C 136.145 -1.77146 0.664529 0
M  V30 1438 O 135.488 -1.79812 -0.375957 0
M  V30 1439 C 135.55 -1.86651 3.07248 0
M  V30 1440 C 135.214 -1.20094 4.40938 0
M  V30 1441 C 136.211 -0.575445 5.16706 0
M  V30 1442 C 133.896 -1.2033 4.87674 0
M  V30 1443 C 135.89 0.0388111 6.37388 0
M  V30 1444 C 133.577 -0.585214 6.08291 0
M  V30 1445 C 134.575 0.0347578 6.82991 0
M  V30 1446 O 134.263 0.643147 8.01323 0
M  V30 1447 H 133.995 -0.274974 0.617548 0
M  V30 1448 H 136.549 -0.200788 2.04416 0
M  V30 1449 H 134.779 -2.62998 2.83494 0
M  V30 1450 H 136.468 -2.46907 3.22167 0
M  V30 1451 H 137.234 -0.565728 4.81689 0
M  V30 1452 H 133.113 -1.67526 4.29484 0
M  V30 1453 H 136.657 0.523329 6.95634 0
M  V30 1454 H 132.554 -0.592451 6.42775 0
M  V30 1455 H 133.322 0.540545 8.16713 0
M  V30 1456 N 135.985 -1.50799 -0.457987 0
M  V30 1457 C 137.231 -1.62683 -1.21088 0
M  V30 1458 C 137.564 -0.332268 -1.91336 0
M  V30 1459 O 136.839 0.667043 -1.82704 0
M  V30 1460 C 137.122 -2.81615 -2.24422 0
M  V30 1461 C 136.975 -4.20989 -1.58392 0
M  V30 1462 C 138.294 -2.96085 -3.2561 0
M  V30 1463 H 135.413 -0.592087 -0.438864 0
M  V30 1464 H 138.055 -1.83225 -0.50286 0
M  V30 1465 H 136.205 -2.64231 -2.84806 0
M  V30 1466 H 137.877 -4.49994 -1.01504 0
M  V30 1467 H 136.12 -4.24641 -0.886704 0
M  V30 1468 H 136.791 -5.0016 -2.33547 0
M  V30 1469 H 139.267 -3.12042 -2.75262 0
M  V30 1470 H 138.143 -3.80902 -3.95228 0
M  V30 1471 H 138.404 -2.0726 -3.90507 0
M  V30 1472 N 137.463 0.71206 -1.40597 0
M  V30 1473 C 138.71 1.47197 -1.39065 0
M  V30 1474 C 139.038 1.94499 0.00583891 0
M  V30 1475 O 138.293 1.68752 0.99102 0
M  V30 1476 C 138.592 2.71039 -2.32965 0
M  V30 1477 C 138.258 2.42484 -3.80148 0
M  V30 1478 C 136.92 2.34406 -4.20247 0
M  V30 1479 C 139.272 2.18598 -4.73143 0
M  V30 1480 C 136.6 2.00516 -5.51371 0
M  V30 1481 C 138.952 1.8622 -6.0457 0
M  V30 1482 C 137.616 1.76626 -6.43708 0
M  V30 1483 H 136.886 0.538634 -0.508876 0
M  V30 1484 H 139.533 0.815325 -1.73276 0
M  V30 1485 H 137.838 3.41558 -1.91951 0
M  V30 1486 H 139.535 3.29138 -2.29061 0
M  V30 1487 H 136.125 2.49659 -3.4838 0
M  V30 1488 H 140.309 2.23793 -4.42979 0
M  V30 1489 H 135.565 1.91628 -5.80593 0
M  V30 1490 H 139.739 1.66752 -6.76141 0
M  V30 1491 H 137.366 1.50133 -7.45228 0
M  V30 1492 N 138.941 1.26152 0.944643 0
M  V30 1493 C 140.218 1.02247 1.66748 0
M  V30 1494 C 140.598 -0.448202 2.06287 0
M  V30 1495 O 139.946 -1.42779 1.78399 0
M  V30 1496 C 140.156 1.96788 2.88228 0
M  V30 1497 C 141.504 2.25201 3.59958 0
M  V30 1498 O 142.528 1.94626 2.98327 0
M  V30 1499 O 141.387 2.77242 4.70956 0
M  V30 1500 H 138.481 0.388517 0.730057 0
M  V30 1501 H 141.027 1.37348 0.99668 0
M  V30 1502 H 139.799 2.96047 2.55875 0
M  V30 1503 H 139.422 1.62145 3.63035 0
M  V30 1504 N 140.419 -1.14872 1.07899 0
M  V30 1505 C 141.366 -2.19791 0.704319 0
M  V30 1506 C 142.336 -1.63238 -0.306987 0
M  V30 1507 O 143.521 -1.8983 -0.192171 0
M  V30 1508 C 140.661 -3.44911 0.114244 0
M  V30 1509 C 139.774 -4.15637 1.1777 0
M  V30 1510 C 138.909 -5.28324 0.552037 0
M  V30 1511 C 137.948 -5.90875 1.59789 0
M  V30 1512 N 137.085 -6.95022 0.994404 0
M  V30 1513 H 141.925 -2.5119 1.60336 0
M  V30 1514 H 139.462 -1.23356 0.801352 0
M  V30 1515 H 141.42 -4.16477 -0.245544 0
M  V30 1516 H 140.05 -3.14011 -0.74813 0
M  V30 1517 H 139.102 -3.42512 1.65499 0
M  V30 1518 H 140.414 -4.5823 1.97046 0
M  V30 1519 H 139.568 -6.06538 0.1402 0
M  V30 1520 H 138.307 -4.86939 -0.272431 0
M  V30 1521 H 137.312 -5.11369 2.01945 0
M  V30 1522 H 138.537 -6.34337 2.42474 0
M  V30 1523 H 136.483 -6.55722 0.190939 0
M  V30 1524 H 136.4 -7.36073 1.72432 0
M  V30 1525 H 137.668 -7.77123 0.608253 0
M  V30 1526 N 141.898 -0.863906 -1.31812 0
M  V30 1527 C 143.144 -0.472535 -1.97218 0
M  V30 1528 C 143.477 0.971394 -1.68159 0
M  V30 1529 O 142.752 1.68309 -0.974798 0
M  V30 1530 C 143.035 -0.723054 -3.52766 0
M  V30 1531 C 142.888 -2.21608 -3.91421 0
M  V30 1532 C 144.207 -0.185522 -4.39709 0
M  V30 1533 H 141.326 -0.173158 -0.71637 0
M  V30 1534 H 143.968 -1.08403 -1.56041 0
M  V30 1535 H 142.118 -0.202577 -3.87971 0
M  V30 1536 H 143.79 -2.80334 -3.66347 0
M  V30 1537 H 142.033 -2.691 -3.40246 0
M  V30 1538 H 142.704 -2.34203 -4.99853 0
M  V30 1539 H 145.18 -0.630726 -4.11292 0
M  V30 1540 H 144.056 -0.390306 -5.47511 0
M  V30 1541 H 144.317 0.912229 -4.32586 0
M  V30 1542 N 143.376 1.44774 -0.622745 0
M  V30 1543 C 144.601 2.06999 -0.128968 0
M  V30 1544 C 145.026 1.4617 1.1839 0
M  V30 1545 O 144.384 0.560007 1.72434 0
M  V30 1546 C 144.432 3.60595 -0.0188351 0
M  V30 1547 O 143.536 3.99398 1.02739 0
M  V30 1548 H 142.877 0.659047 -0.0809544 0
M  V30 1549 H 145.407 1.85784 -0.85705 0
M  V30 1550 H 145.417 4.07627 0.174476 0
M  V30 1551 H 144.092 4.04252 -0.977384 0
M  V30 1552 H 142.669 3.64011 0.809326 0
M  V30 1553 N 144.854 0.36279 1.53368 0
M  V30 1554 C 146.079 -0.231226 2.06107 0
M  V30 1555 C 146.504 -1.419 1.23474 0
M  V30 1556 O 145.862 -1.79524 0.253128 0
M  V30 1557 C 145.91 -0.605523 3.5548 0
M  V30 1558 O 145.014 -1.70312 3.7559 0
M  V30 1559 H 144.355 -0.034327 0.663112 0
M  V30 1560 H 146.885 0.522584 1.97814 0
M  V30 1561 H 146.895 -0.877314 3.98456 0
M  V30 1562 H 145.57 0.263004 4.15068 0
M  V30 1563 H 144.147 -1.4271 3.44512 0
M  V30 1564 N 146.332 -1.57332 0.0918853 0
M  V30 1565 C 147.743 -1.81496 -0.437739 0
M  V30 1566 C 148.094 -1.00727 -1.6837 0
M  V30 1567 O 147.219 -0.235694 -2.15113 0
M  V30 1568 C 147.814 -3.29197 -0.800939 0
M  V30 1569 C 146.373 -3.54136 -1.27532 0
M  V30 1570 C 145.52 -2.75979 -0.270392 0
M  V30 1571 H 148.471 -1.55494 0.317366 0
M  V30 1572 H 148.492 -3.42344 -1.66074 0
M  V30 1573 H 148.004 -3.87955 0.106078 0
M  V30 1574 H 146.105 -3.00705 -2.20016 0
M  V30 1575 H 146.218 -4.62792 -1.23938 0
M  V30 1576 H 144.582 -2.43349 -0.751872 0
M  V30 1577 H 145.365 -3.37484 0.629248 0
M  V30 1578 N 147.81 0.181792 -1.56548 0
M  V30 1579 C 149.056 0.901431 -1.81665 0
M  V30 1580 C 149.389 1.82347 -0.668075 0
M  V30 1581 O 148.664 1.91669 0.330615 0
M  V30 1582 C 148.947 1.70618 -3.17115 0
M  V30 1583 C 148.8 0.807964 -4.42484 0
M  V30 1584 C 150.119 2.67605 -3.49393 0
M  V30 1585 H 147.238 0.32627 -0.660846 0
M  V30 1586 H 149.88 0.168134 -1.89255 0
M  V30 1587 H 148.03 2.33133 -3.10775 0
M  V30 1588 H 149.702 0.19649 -4.60881 0
M  V30 1589 H 147.945 0.115411 -4.33646 0
M  V30 1590 H 148.616 1.40632 -5.33785 0
M  V30 1591 H 151.092 2.15218 -3.56118 0
M  V30 1592 H 149.968 3.20985 -4.45264 0
M  V30 1593 H 150.229 3.47298 -2.73563 0
M  V30 1594 N 149.288 1.51039 0.449983 0
M  V30 1595 C 150.513 1.6715 1.22783 0
M  V30 1596 C 150.938 0.363081 1.84563 0
M  V30 1597 O 150.296 -0.675433 1.68249 0
M  V30 1598 C 150.344 2.77985 2.29689 0
M  V30 1599 O 149.448 2.40707 3.34864 0
M  V30 1600 H 148.789 0.557746 0.360299 0
M  V30 1601 H 151.319 1.97535 0.533005 0
M  V30 1602 H 151.329 3.01693 2.74673 0
M  V30 1603 H 150.004 3.72935 1.84098 0
M  V30 1604 H 148.581 2.27523 2.95445 0
M  V30 1605 N 150.766 -0.704594 1.40972 0
M  V30 1606 C 151.994 -1.49354 1.43182 0
M  V30 1607 C 152.409 -1.88768 0.0345508 0
M  V30 1608 O 151.766 -1.56184 -0.944081 0
M  V30 1609 C 151.817 -2.76187 2.33244 0
M  V30 1610 O 151.538 -2.38436 3.67532 0
M  V30 1611 C 153.039 -3.7 2.44162 0
M  V30 1612 H 150.259 -0.460559 0.487982 0
M  V30 1613 H 152.803 -0.868261 1.85153 0
M  V30 1614 H 150.958 -3.34974 1.94606 0
M  V30 1615 H 151.372 -3.20126 4.15475 0
M  V30 1616 H 152.846 -4.55803 3.11364 0
M  V30 1617 H 153.323 -4.13867 1.47006 0
M  V30 1618 H 153.929 -3.17121 2.83398 0
M  V30 1619 N 152.244 -1.26651 -0.937939 0
M  V30 1620 C 153.177 -1.02811 -2.03728 0
M  V30 1621 C 154.155 0.0481915 -1.62529 0
M  V30 1622 O 155.339 -0.0948839 -1.88261 0
M  V30 1623 C 152.466 -0.557517 -3.3408 0
M  V30 1624 C 151.512 -1.62686 -3.94253 0
M  V30 1625 S 152.345 -3.21667 -4.28125 0
M  V30 1626 C 153.501 -2.76384 -5.61572 0
M  V30 1627 H 153.734 -1.95891 -2.23638 0
M  V30 1628 H 151.267 -1.10367 -1.07974 0
M  V30 1629 H 153.225 -0.292674 -4.09455 0
M  V30 1630 H 151.886 0.353062 -3.12109 0
M  V30 1631 H 151.079 -1.24866 -4.88287 0
M  V30 1632 H 150.681 -1.84324 -3.25424 0
M  V30 1633 H 152.973 -2.2105 -6.40424 0
M  V30 1634 H 153.916 -3.69123 -6.0428 0
M  V30 1635 H 154.324 -2.15847 -5.21604 0
M  V30 1636 N 153.722 1.14298 -1.08507 0
M  V30 1637 C 154.655 2.18447 -0.660004 0
M  V30 1638 C 155.633 1.59242 0.328749 0
M  V30 1639 O 156.817 1.87062 0.232367 0
M  V30 1640 C 153.944 3.38688 0.0290807 0
M  V30 1641 C 152.99 4.1646 -0.919982 0
M  V30 1642 S 153.823 4.77334 -2.42718 0
M  V30 1643 C 154.979 6.00931 -1.75024 0
M  V30 1644 H 155.212 2.54166 -1.54231 0
M  V30 1645 H 152.745 1.25446 -0.900149 0
M  V30 1646 H 154.703 4.08342 0.420378 0
M  V30 1647 H 153.364 3.01289 0.887895 0
M  V30 1648 H 152.557 5.02529 -0.384751 0
M  V30 1649 H 152.159 3.52414 -1.25223 0
M  V30 1650 H 154.451 6.69017 -1.06877 0
M  V30 1651 H 155.394 6.59044 -2.58971 0
M  V30 1652 H 155.802 5.51089 -1.22317 0
M  V30 1653 N 155.201 0.870884 1.31352 0
M  V30 1654 C 156.164 0.332243 2.26779 0
M  V30 1655 C 157.164 -0.517302 1.52252 0
M  V30 1656 O 158.354 -0.326477 1.71113 0
M  V30 1657 C 155.486 -0.528066 3.36785 0
M  V30 1658 H 156.679 1.17469 2.75937 0
M  V30 1659 H 154.232 0.64655 1.423 0
M  V30 1660 H 154.967 -1.39167 2.92922 0
M  V30 1661 H 154.752 0.0802582 3.92018 0
M  V30 1662 H 156.242 -0.897179 4.07849 0
M  V30 1663 N 156.679 -1.44442 0.630414 0
M  V30 1664 C 157.919 -2.03934 0.137919 0
M  V30 1665 C 158.283 -1.48509 -1.21692 0
M  V30 1666 O 159.484 -1.99499 -1.80149 0
M  V30 1667 C 157.755 -3.57187 0.123373 0
M  V30 1668 S 159.314 -4.37741 -0.304604 0
M  V30 1669 H 156.132 -0.708401 0.0607353 0
M  V30 1670 H 158.734 -1.76835 0.833643 0
M  V30 1671 H 157.438 -3.95032 1.11256 0
M  V30 1672 H 156.969 -3.88895 -0.59362 0
M  V30 1673 H 158.984 -4.71403 -1.54897 0
M  V30 1674 N 158.157 -0.370918 -1.53173 0
M  V30 1675 C 159.568 0.107139 -1.86392 0
M  V30 1676 C 159.919 1.47714 -1.29132 0
M  V30 1677 O 159.044 2.07464 -0.615439 0
M  V30 1678 C 159.639 0.201187 -3.38202 0
M  V30 1679 C 158.198 0.623507 -3.712 0
M  V30 1680 C 157.345 -0.225978 -2.76378 0
M  V30 1681 H 160.296 -0.58951 -1.47345 0
M  V30 1682 H 160.317 1.02377 -3.66468 0
M  V30 1683 H 159.829 -0.796058 -3.79848 0
M  V30 1684 H 157.93 1.62879 -3.35114 0
M  V30 1685 H 158.043 0.394414 -4.77474 0
M  V30 1686 H 156.407 0.305962 -2.52856 0
M  V30 1687 H 157.19 -1.22086 -3.20858 0
M  V30 1688 N 159.635 1.57281 -0.100228 0
M  V30 1689 C 160.912 1.86014 0.604812 0
M  V30 1690 C 161.292 0.998025 1.86018 0
M  V30 1691 O 160.64 0.0718184 2.28387 0
M  V30 1692 C 160.85 3.36784 0.915278 0
M  V30 1693 C 162.198 4.04957 1.27651 0
M  V30 1694 O 163.222 3.41695 1.00613 0
M  V30 1695 O 162.081 5.16593 1.7831 0
M  V30 1696 H 159.175 0.76942 0.303185 0
M  V30 1697 H 161.721 1.69176 -0.133313 0
M  V30 1698 H 160.493 3.91292 0.0248896 0
M  V30 1699 H 160.116 3.58987 1.70921 0
M  V30 1700 N 161.113 -0.173488 1.56642 0
M  V30 1701 C 162.361 -0.888706 1.81512 0
M  V30 1702 C 162.682 -1.82875 0.676872 0
M  V30 1703 O 161.952 -1.93536 -0.303414 0
M  V30 1704 H 160.532 -0.331164 0.669582 0
M  V30 1705 H 163.194 -0.173823 1.94123 0
M  V30 1706 H 162.29 -1.46691 2.75478 0
M  V30 1707 N 162.591 -1.51276 -0.441967 0
M  V30 1708 C 163.538 -1.72256 -1.53612 0
M  V30 1709 C 164.508 -0.564164 -1.56225 0
M  V30 1710 O 165.693 -0.798074 -1.73307 0
M  V30 1711 C 162.833 -1.84932 -2.91366 0
M  V30 1712 C 161.946 -3.12459 -2.98317 0
M  V30 1713 C 161.081 -3.15758 -4.27166 0
M  V30 1714 C 160.12 -4.37619 -4.27967 0
M  V30 1715 N 159.257 -4.38493 -5.48333 0
M  V30 1716 H 164.097 -2.65654 -1.35026 0
M  V30 1717 H 161.634 -1.31662 -0.656009 0
M  V30 1718 H 163.592 -1.90263 -3.7129 0
M  V30 1719 H 162.222 -0.949461 -3.08521 0
M  V30 1720 H 161.274 -3.1646 -2.11086 0
M  V30 1721 H 162.586 -4.02382 -2.94771 0
M  V30 1722 H 161.74 -3.19979 -5.15459 0
M  V30 1723 H 160.479 -2.23715 -4.33362 0
M  V30 1724 H 159.484 -4.33579 -3.38067 0
M  V30 1725 H 160.709 -5.30921 -4.23438 0
M  V30 1726 H 158.655 -3.49318 -5.55259 0
M  V30 1727 H 158.572 -5.22219 -5.46647 0
M  V30 1728 H 159.84 -4.469 -6.38671 0
M  V30 1729 N 164.069 0.697108 -1.41344 0
M  V30 1730 C 165.016 1.81106 -1.43071 0
M  V30 1731 C 165.986 1.63632 -0.285275 0
M  V30 1732 O 167.171 1.84504 -0.486091 0
M  V30 1733 C 164.311 3.18975 -1.31715 0
M  V30 1734 C 163.424 3.47892 -2.56115 0
M  V30 1735 C 162.559 4.75367 -2.37064 0
M  V30 1736 C 161.598 4.97247 -3.56948 0
M  V30 1737 N 160.735 6.15947 -3.36977 0
M  V30 1738 H 165.575 1.78965 -2.38276 0
M  V30 1739 H 163.112 0.873975 -1.18322 0
M  V30 1740 H 165.07 3.98615 -1.23133 0
M  V30 1741 H 163.7 3.20297 -0.401183 0
M  V30 1742 H 162.752 2.62669 -2.75153 0
M  V30 1743 H 164.064 3.59962 -3.45295 0
M  V30 1744 H 163.218 5.63059 -2.25941 0
M  V30 1745 H 161.957 4.65541 -1.45338 0
M  V30 1746 H 160.962 4.08004 -3.68527 0
M  V30 1747 H 162.187 5.08934 -4.49626 0
M  V30 1748 H 160.133 6.07336 -2.47949 0
M  V30 1749 H 160.05 6.28777 -4.19732 0
M  V30 1750 H 161.318 7.06377 -3.29623 0
M  V30 1751 N 165.547 1.27147 0.931209 0
M  V30 1752 C 166.457 1.11372 2.06478 0
M  V30 1753 C 167.473 0.044645 1.73943 0
M  V30 1754 O 168.649 0.250417 1.99837 0
M  V30 1755 C 165.714 0.758838 3.38294 0
M  V30 1756 C 164.775 1.90841 3.84549 0
M  V30 1757 C 164.008 1.57036 5.10074 0
M  V30 1758 O 164.231 0.476645 5.68405 0
M  V30 1759 O 163.165 2.40839 5.51616 0
M  V30 1760 H 166.991 2.06493 2.22698 0
M  V30 1761 H 164.576 1.06301 1.04978 0
M  V30 1762 H 166.458 0.574098 4.17471 0
M  V30 1763 H 165.133 -0.162879 3.2329 0
M  V30 1764 H 164.04 2.14819 3.06274 0
M  V30 1765 H 165.373 2.81021 4.04089 0
M  V30 1766 N 167.025 -1.13721 1.09112 0
M  V30 1767 C 167.972 -2.19031 0.727591 0
M  V30 1768 C 168.942 -1.63555 -0.289656 0
M  V30 1769 O 170.127 -1.90023 -0.172026 0
M  V30 1770 C 167.267 -3.4477 0.15082 0
M  V30 1771 C 166.38 -4.14365 1.22172 0
M  V30 1772 C 165.515 -5.27709 0.608042 0
M  V30 1773 C 164.554 -5.89147 1.66047 0
M  V30 1774 N 163.691 -6.93929 1.06806 0
M  V30 1775 H 168.531 -2.49475 1.62991 0
M  V30 1776 H 166.068 -1.22499 0.81439 0
M  V30 1777 H 168.026 -4.16714 -0.201358 0
M  V30 1778 H 166.656 -3.14787 -0.714783 0
M  V30 1779 H 165.708 -3.40737 1.69122 0
M  V30 1780 H 167.02 -4.56114 2.01895 0
M  V30 1781 H 166.174 -6.06355 0.204523 0
M  V30 1782 H 164.913 -4.872 -0.220769 0
M  V30 1783 H 163.918 -5.09198 2.07357 0
M  V30 1784 H 165.143 -6.31729 2.49189 0
M  V30 1785 H 163.089 -6.55483 0.260476 0
M  V30 1786 H 163.006 -7.34202 1.8023 0
M  V30 1787 H 164.274 -7.76434 0.690644 0
M  V30 1788 N 168.503 -0.877838 -1.30888 0
M  V30 1789 C 169.45 -0.337538 -2.28318 0
M  V30 1790 C 170.42 0.568346 -1.56074 0
M  V30 1791 O 171.605 0.498298 -1.84178 0
M  V30 1792 C 168.745 0.448142 -3.42178 0
M  V30 1793 C 167.858 -0.48615 -4.29256 0
M  V30 1794 C 166.993 0.314427 -5.30269 0
M  V30 1795 C 166.032 -0.615791 -6.08995 0
M  V30 1796 N 165.169 0.14902 -7.01942 0
M  V30 1797 H 170.009 -1.17356 -2.73919 0
M  V30 1798 H 167.546 -0.590094 -1.34745 0
M  V30 1799 H 169.504 0.919517 -4.06941 0
M  V30 1800 H 168.134 1.24879 -2.97666 0
M  V30 1801 H 167.186 -1.076 -3.64865 0
M  V30 1802 H 168.498 -1.19909 -4.84173 0
M  V30 1803 H 167.652 0.847969 -6.00745 0
M  V30 1804 H 166.391 1.06062 -4.76027 0
M  V30 1805 H 165.396 -1.16102 -5.37401 0
M  V30 1806 H 166.621 -1.36097 -6.65323 0
M  V30 1807 H 164.567 0.877884 -6.50099 0
M  V30 1808 H 164.484 -0.504433 -7.54315 0
M  V30 1809 H 165.752 0.663537 -7.76671 0
M  V30 1810 N 169.982 1.44106 -0.638065 0
M  V30 1811 C 171.229 2.01978 -0.14533 0
M  V30 1812 C 171.557 1.50234 1.23532 0
M  V30 1813 O 170.812 0.679548 1.83523 0
M  V30 1814 C 171.111 3.5729 -0.0887327 0
M  V30 1815 C 170.777 4.28317 -1.40909 0
M  V30 1816 C 169.439 4.47437 -1.77069 0
M  V30 1817 C 171.791 4.6867 -2.28031 0
M  V30 1818 C 169.119 5.04171 -3.00047 0
M  V30 1819 C 171.471 5.26766 -3.50286 0
M  V30 1820 C 170.135 5.44104 -3.86661 0
M  V30 1821 H 169.405 0.739089 -0.0531801 0
M  V30 1822 H 172.052 1.72781 -0.825761 0
M  V30 1823 H 170.357 3.8594 0.675095 0
M  V30 1824 H 172.054 3.99807 0.309145 0
M  V30 1825 H 168.644 4.1377 -1.1177 0
M  V30 1826 H 172.828 4.53604 -2.01388 0
M  V30 1827 H 168.084 5.15782 -3.28298 0
M  V30 1828 H 172.258 5.56983 -4.18023 0
M  V30 1829 H 169.885 5.87832 -4.82034 0
M  V30 1830 N 171.46 0.379036 1.52974 0
M  V30 1831 C 172.706 -0.206727 2.01744 0
M  V30 1832 C 173.039 -1.47314 1.26539 0
M  V30 1833 O 172.314 -1.91084 0.362903 0
M  V30 1834 C 172.597 -0.485066 3.56818 0
M  V30 1835 C 172.45 0.795919 4.42702 0
M  V30 1836 C 173.769 -1.28003 4.21074 0
M  V30 1837 H 170.888 -0.0736607 0.73331 0
M  V30 1838 H 173.53 0.506581 1.83122 0
M  V30 1839 H 171.68 -1.09272 3.72816 0
M  V30 1840 H 173.352 1.43307 4.38476 0
M  V30 1841 H 171.595 1.41344 4.10127 0
M  V30 1842 H 172.266 0.555947 5.49193 0
M  V30 1843 H 174.742 -0.765867 4.08991 0
M  V30 1844 H 173.618 -1.44352 5.29579 0
M  V30 1845 H 173.879 -2.29236 3.78026 0
M  V30 1846 N 172.938 -1.57226 0.108567 0
M  V30 1847 C 174.166 -1.99179 -0.559954 0
M  V30 1848 C 174.581 -0.988022 -1.60884 0
M  V30 1849 O 173.938 0.0205512 -1.82488 0
M  V30 1850 C 173.989 -3.41159 -1.19552 0
M  V30 1851 O 173.71 -4.37694 -0.188577 0
M  V30 1852 C 175.211 -3.98188 -1.94837 0
M  V30 1853 H 172.431 -0.654228 -0.149088 0
M  V30 1854 H 174.975 -2.03598 0.19183 0
M  V30 1855 H 173.13 -3.37711 -1.89815 0
M  V30 1856 H 173.544 -5.20469 -0.649014 0
M  V30 1857 H 175.018 -4.99644 -2.34648 0
M  V30 1858 H 175.495 -3.3675 -2.81951 0
M  V30 1859 H 176.101 -4.0515 -1.2936 0
M  V30 1860 N 174.416 0.165178 -1.56732 0
M  V30 1861 C 175.379 1.18822 -1.95995 0
M  V30 1862 C 176.379 1.3685 -0.84431 0
M  V30 1863 O 177.569 1.34152 -1.11126 0
M  V30 1864 C 174.701 2.5521 -2.26011 0
M  V30 1865 H 175.894 0.851825 -2.87548 0
M  V30 1866 H 173.447 0.407857 -1.50885 0
M  V30 1867 H 174.182 2.93852 -1.37191 0
M  V30 1868 H 173.967 2.43489 -3.07336 0
M  V30 1869 H 175.457 3.28927 -2.57288 0
M  V30 1870 N 175.894 1.51508 0.433938 0
M  V30 1871 C 177.124 1.67914 1.20369 0
M  V30 1872 C 177.532 0.377461 1.85397 0
M  V30 1873 O 176.875 -0.654255 1.71654 0
M  V30 1874 C 176.937 2.74045 2.32679 0
M  V30 1875 C 176.601 4.16543 1.87991 0
M  V30 1876 C 177.598 5.01211 1.38145 0
M  V30 1877 C 175.283 4.6266 1.95579 0
M  V30 1878 C 177.277 6.30056 0.964774 0
M  V30 1879 C 174.964 5.91501 1.53523 0
M  V30 1880 C 175.962 6.75027 1.04055 0
M  V30 1881 O 175.65 8.01459 0.625964 0
M  V30 1882 H 175.382 0.566578 0.368735 0
M  V30 1883 H 177.936 1.98709 0.51999 0
M  V30 1884 H 176.166 2.38572 3.04336 0
M  V30 1885 H 177.855 2.79295 2.94532 0
M  V30 1886 H 178.621 4.66783 1.31675 0
M  V30 1887 H 174.5 3.97767 2.33029 0
M  V30 1888 H 178.044 6.95202 0.57796 0
M  V30 1889 H 173.941 6.25442 1.59665 0
M  V30 1890 H 174.709 8.15043 0.751509 0
M  V30 1891 N 177.372 -0.689602 1.41712 0
M  V30 1892 C 178.302 -1.81577 1.46806 0
M  V30 1893 C 179.283 -1.66945 0.326105 0
M  V30 1894 O 180.468 -1.86588 0.538377 0
M  V30 1895 C 177.598 -3.19762 1.35535 0
M  V30 1896 C 176.552 -3.49107 2.47605 0
M  V30 1897 C 175.878 -4.86711 2.21397 0
M  V30 1898 C 177.178 -3.47483 3.89939 0
M  V30 1899 H 178.872 -1.7757 2.41058 0
M  V30 1900 H 176.418 -0.852887 1.16025 0
M  V30 1901 H 178.371 -3.98263 1.3771 0
M  V30 1902 H 177.095 -3.24409 0.377708 0
M  V30 1903 H 175.754 -2.72959 2.44722 0
M  V30 1904 H 175.402 -4.8799 1.21961 0
M  V30 1905 H 175.102 -5.0731 2.96497 0
M  V30 1906 H 176.626 -5.67515 2.25297 0
M  V30 1907 H 178.04 -4.1598 3.94505 0
M  V30 1908 H 176.437 -3.79615 4.64771 0
M  V30 1909 H 177.507 -2.46341 4.17665 0
M  V30 1910 N 178.85 -1.27639 -0.924453 0
M  V30 1911 C 180.098 -1.13941 -1.66918 0
M  V30 1912 C 180.419 0.314589 -1.92446 0
M  V30 1913 O 179.689 1.21964 -1.53303 0
M  V30 1914 H 178.269 -0.418678 -0.618642 0
M  V30 1915 H 180.931 -1.60213 -1.10985 0
M  V30 1916 H 180.027 -1.67094 -2.63602 0
M  V30 1917 N 180.328 1.1314 -1.09713 0
M  V30 1918 C 181.605 1.80762 -0.747302 0
M  V30 1919 C 181.985 1.96663 0.767265 0
M  V30 1920 O 181.333 1.53706 1.69076 0
M  V30 1921 C 181.543 3.15606 -1.48975 0
M  V30 1922 C 182.891 3.90914 -1.65746 0
M  V30 1923 O 183.915 3.25239 -1.45251 0
M  V30 1924 O 182.774 5.08718 -1.9967 0
M  V30 1925 H 179.868 0.782103 -0.268782 0
M  V30 1926 H 182.414 1.20041 -1.19951 0
M  V30 1927 H 181.186 2.99278 -2.52088 0
M  V30 1928 H 180.809 3.84029 -1.02991 0
M  V30 1929 N 181.806 0.884767 1.30421 0
M  V30 1930 C 182.769 0.356277 2.26414 0
M  V30 1931 C 183.769 -0.501124 1.52792 0
M  V30 1932 O 184.959 -0.30831 1.7145 0
M  V30 1933 C 182.091 -0.492316 3.37326 0
M  V30 1934 H 183.284 1.20389 2.74675 0
M  V30 1935 H 180.837 0.661607 1.41607 0
M  V30 1936 H 181.572 -1.36052 2.94381 0
M  V30 1937 H 181.357 0.121832 3.91911 0
M  V30 1938 H 182.847 -0.853871 4.08777 0
M  V30 1939 N 183.284 -1.43765 0.645699 0
M  V30 1940 C 184.532 -2.01499 0.155731 0
M  V30 1941 C 184.853 -1.51151 -1.232 0
M  V30 1942 O 184.123 -0.721044 -1.82148 0
M  V30 1943 H 182.703 -0.745003 0.0545817 0
M  V30 1944 H 185.365 -1.76075 0.835677 0
M  V30 1945 H 184.461 -3.1181 0.134577 0
M  V30 1946 N 184.763 -0.387143 -1.52771 0
M  V30 1947 C 185.696 0.493123 -2.22808 0
M  V30 1948 C 186.674 1.0658 -1.22798 0
M  V30 1949 O 187.858 1.11785 -1.51777 0
M  V30 1950 C 184.985 1.68238 -2.93962 0
M  V30 1951 C 184.031 1.23515 -4.08223 0
M  V30 1952 S 184.864 0.21848 -5.35054 0
M  V30 1953 C 186.02 1.41357 -6.09729 0
M  V30 1954 H 186.253 -0.101625 -2.97126 0
M  V30 1955 H 183.786 -0.171323 -1.53447 0
M  V30 1956 H 185.744 2.36443 -3.35567 0
M  V30 1957 H 184.405 2.24842 -2.19328 0
M  V30 1958 H 183.598 2.12304 -4.57103 0
M  V30 1959 H 183.2 0.632044 -3.68621 0
M  V30 1960 H 185.492 2.34101 -6.3577 0
M  V30 1961 H 186.435 0.965736 -7.01484 0
M  V30 1962 H 186.843 1.6294 -5.40473 0
M  V30 1963 N 186.241 1.57166 -0.116904 0
M  V30 1964 C 187.171 2.18222 0.830759 0
M  V30 1965 C 188.152 1.12167 1.27877 0
M  V30 1966 O 189.337 1.40394 1.34176 0
M  V30 1967 C 186.467 2.77996 2.08172 0
M  V30 1968 C 185.421 3.89614 1.77157 0
M  V30 1969 C 184.747 4.36187 3.09265 0
M  V30 1970 C 186.047 5.1181 1.04151 0
M  V30 1971 H 187.741 2.97664 0.321992 0
M  V30 1972 H 185.287 1.4318 0.153434 0
M  V30 1973 H 187.24 3.19366 2.74924 0
M  V30 1974 H 185.964 1.9584 2.6137 0
M  V30 1975 H 184.623 3.48816 1.12796 0
M  V30 1976 H 184.271 3.50893 3.60393 0
M  V30 1977 H 183.971 5.11455 2.89288 0
M  V30 1978 H 185.495 4.80207 3.77139 0
M  V30 1979 H 186.909 5.50214 1.61052 0
M  V30 1980 H 185.306 5.92648 0.942762 0
M  V30 1981 H 186.376 4.84892 0.0279022 0
M  V30 1982 N 187.719 -0.156864 1.56817 0
M  V30 1983 C 189.135 -0.50916 1.5126 0
M  V30 1984 C 189.335 -1.83897 0.823658 0
M  V30 1985 O 188.391 -2.49469 0.390055 0
M  V30 1986 C 189.704 -0.52857 2.96018 0
M  V30 1987 C 191.252 -0.614771 3.06903 0
M  V30 1988 C 191.727 -0.664938 4.53147 0
M  V30 1989 N 193.218 -0.727433 4.57452 0
M  V30 1990 C 193.953 -0.787067 5.67973 0
M  V30 1991 N 193.449 -0.806649 6.88088 0
M  V30 1992 N 195.242 -0.827195 5.5598 0
M  V30 1993 H 187.393 0.714935 2.00006 0
M  V30 1994 H 189.656 0.259526 0.911784 0
M  V30 1995 H 189.362 0.380154 3.49639 0
M  V30 1996 H 189.236 -1.36998 3.51442 0
M  V30 1997 H 191.623 -1.51392 2.53307 0
M  V30 1998 H 191.704 0.253597 2.5454 0
M  V30 1999 H 191.348 0.230011 5.07379 0
M  V30 2000 H 191.278 -1.54966 5.03282 0
M  V30 2001 H 193.769 -0.719998 3.70978 0
M  V30 2002 H 194.082 -0.853727 7.6807 0
M  V30 2003 H 192.427 -0.774687 6.90669 0
M  V30 2004 H 195.618 -0.808998 4.61056 0
M  V30 2005 H 195.791 -0.870206 6.4213 0
M  V30 2006 N 189.197 -1.51736 -0.425897 0
M  V30 2007 C 190.427 -1.68549 -1.19476 0
M  V30 2008 C 190.835 -0.387288 -1.85194 0
M  V30 2009 O 190.178 0.645142 -1.71999 0
M  V30 2010 C 190.24 -2.75275 -2.31223 0
M  V30 2011 C 189.904 -4.17534 -1.8578 0
M  V30 2012 C 190.901 -5.01936 -1.35485 0
M  V30 2013 C 188.586 -4.6369 -1.93123 0
M  V30 2014 C 190.58 -6.30559 -0.931347 0
M  V30 2015 C 188.267 -5.92307 -1.50384 0
M  V30 2016 C 189.265 -6.75569 -1.00473 0
M  V30 2017 O 188.953 -8.0178 -0.583452 0
M  V30 2018 H 188.685 -0.568525 -0.365725 0
M  V30 2019 H 191.239 -1.98982 -0.509444 0
M  V30 2020 H 189.469 -2.40182 -3.03067 0
M  V30 2021 H 191.158 -2.80853 -2.93047 0
M  V30 2022 H 191.924 -4.67475 -1.29197 0
M  V30 2023 H 187.803 -3.98997 -2.30916 0
M  V30 2024 H 191.347 -6.95498 -0.541084 0
M  V30 2025 H 187.244 -6.2628 -1.56346 0
M  V30 2026 H 188.012 -8.1543 -0.708275 0
M  V30 2027 N 190.675 0.682077 -1.42076 0
M  V30 2028 C 191.623 1.81707 -1.45208 0
M  V30 2029 C 192.617 1.66183 -0.328591 0
M  V30 2030 O 193.823 1.7288 -0.501264 0
M  V30 2031 H 190.198 0.599014 -0.454628 0
M  V30 2032 H 192.169 1.76183 -2.40836 0
M  V30 2033 C 190.918 3.19816 -1.36428 0
M  V30 2034 H 190.241 3.32385 -2.22171 0
M  V30 2035 H 191.681 3.99272 -1.42681 0
M  V30 2036 C 190.14 3.36809 -0.078191 0
M  V30 2037 O 190.67 3.92124 0.87188 0
M  V30 2038 N 188.876 2.906 0.00229266 0
M  V30 2039 H 188.423 2.45772 -0.771616 0
M  V30 2040 H 188.381 3.02347 0.862179 0
M  V30 2041 N 192.153 1.28127 0.917671 0
M  V30 2042 C 193.378 1.18007 1.70555 0
M  V30 2043 C 193.803 -0.258257 1.86319 0
M  V30 2044 O 193.161 -1.1869 1.37049 0
M  V30 2045 C 193.209 1.87948 3.07746 0
M  V30 2046 O 192.313 1.18427 3.9503 0
M  V30 2047 H 191.654 0.409867 0.522403 0
M  V30 2048 H 194.184 1.69379 1.1477 0
M  V30 2049 H 194.194 1.95701 3.58001 0
M  V30 2050 H 192.869 2.92573 2.95591 0
M  V30 2051 H 191.446 1.18811 3.53466 0
M  V30 2052 N 193.631 -1.12557 1.10312 0
M  V30 2053 C 194.578 -2.18247 0.750781 0
M  V30 2054 C 195.548 -1.63853 -0.272293 0
M  V30 2055 O 196.733 -1.90195 -0.151862 0
M  V30 2056 C 193.873 -3.44591 0.187379 0
M  V30 2057 C 192.986 -4.13046 1.2656 0
M  V30 2058 C 192.121 -5.27034 0.663978 0
M  V30 2059 C 191.16 -5.87353 1.72287 0
M  V30 2060 N 190.297 -6.92757 1.1416 0
M  V30 2061 H 195.137 -2.47732 1.65628 0
M  V30 2062 H 192.674 -1.21629 0.827337 0
M  V30 2063 H 194.632 -4.16904 -0.157148 0
M  V30 2064 H 193.262 -3.15527 -0.681355 0
M  V30 2065 H 192.314 -3.38924 1.72727 0
M  V30 2066 H 193.626 -4.53947 2.06721 0
M  V30 2067 H 192.78 -6.06104 0.268824 0
M  V30 2068 H 191.519 -4.87407 -0.169082 0
M  V30 2069 H 190.524 -5.06971 2.12746 0
M  V30 2070 H 191.749 -6.29051 2.55875 0
M  V30 2071 H 189.695 -6.5517 0.329984 0
M  V30 2072 H 189.612 -7.3225 1.88007 0
M  V30 2073 H 190.88 -7.75658 0.772956 0
M  V30 2074 N 195.109 -0.891671 -1.2995 0
M  V30 2075 C 196.039 -0.379797 -2.30391 0
M  V30 2076 C 197.02 0.540919 -1.6127 0
M  V30 2077 O 198.205 0.453352 -1.88834 0
M  V30 2078 C 195.335 0.400654 -3.44981 0
M  V30 2079 C 194.289 -0.428905 -4.25846 0
M  V30 2080 C 193.615 0.478557 -5.32554 0
M  V30 2081 C 194.915 -1.67458 -4.94727 0
M  V30 2082 H 196.609 -1.21914 -2.73454 0
M  V30 2083 H 194.155 -0.587675 -1.31462 0
M  V30 2084 H 196.108 0.769434 -4.14316 0
M  V30 2085 H 194.832 1.27371 -3.0074 0
M  V30 2086 H 193.491 -0.779911 -3.58208 0
M  V30 2087 H 193.139 1.34951 -4.84559 0
M  V30 2088 H 192.839 -0.0727433 -5.87555 0
M  V30 2089 H 194.363 0.843705 -6.04743 0
M  V30 2090 H 195.777 -1.376 -5.56542 0
M  V30 2091 H 194.174 -2.16659 -5.59624 0
M  V30 2092 H 195.244 -2.41518 -4.20473 0
M  V30 2093 N 196.587 1.43421 -0.653314 0
M  V30 2094 C 197.998 1.85065 -0.246537 0
M  V30 2095 C 198.349 1.54688 1.2069 0
M  V30 2096 O 197.474 0.995896 1.92122 0
M  V30 2097 C 198.069 3.35922 -0.440666 0
M  V30 2098 C 196.628 3.76297 -0.0882064 0
M  V30 2099 C 195.775 2.67147 -0.743484 0
M  V30 2100 H 198.726 1.33572 -0.856979 0
M  V30 2101 H 198.747 3.79204 0.313798 0
M  V30 2102 H 198.259 3.58 -1.49858 0
M  V30 2103 H 196.36 3.5983 0.96711 0
M  V30 2104 H 196.473 4.76338 -0.513738 0
M  V30 2105 H 194.837 2.54086 -0.176712 0
M  V30 2106 H 195.62 2.92053 -1.80443 0
M  V30 2107 N 198.065 0.39524 1.52563 0
M  V30 2108 C 199.314 -0.186321 2.00838 0
M  V30 2109 C 199.627 -1.47402 1.28577 0
M  V30 2110 O 200.833 -2.13599 1.67593 0
M  V30 2111 C 199.289 -0.382595 3.57861 0
M  V30 2112 C 198.897 0.892202 4.39026 0
M  V30 2113 C 200.641 -0.9202 4.14406 0
M  V30 2114 C 198.548 0.66388 5.87662 0
M  V30 2115 H 197.478 -0.0734041 0.750418 0
M  V30 2116 H 200.129 0.518552 1.76021 0
M  V30 2117 H 198.511 -1.14946 3.7895 0
M  V30 2118 H 199.685 1.66414 4.29701 0
M  V30 2119 H 198 1.35519 3.9373 0
M  V30 2120 H 200.597 -1.10683 5.23119 0
M  V30 2121 H 200.94 -1.89096 3.70875 0
M  V30 2122 H 201.473 -0.212751 3.97231 0
M  V30 2123 H 198.212 1.6058 6.35527 0
M  V30 2124 H 197.732 -0.0690193 5.9976 0
M  V30 2125 H 199.411 0.300699 6.46301 0
M  V30 2126 N 199.544 -1.57102 0.125237 0
M  V30 2127 C 200.79 -1.95697 -0.532035 0
M  V30 2128 C 201.123 -1.009 -1.6593 0
M  V30 2129 O 200.398 -0.047347 -1.94442 0
M  V30 2130 C 200.681 -3.44181 -1.05884 0
M  V30 2131 C 200.534 -4.49752 0.0654392 0
M  V30 2132 C 201.853 -3.94655 -1.9477 0
M  V30 2133 H 198.972 -0.711571 -0.191925 0
M  V30 2134 H 201.614 -1.88923 0.20206 0
M  V30 2135 H 199.764 -3.50085 -1.68442 0
M  V30 2136 H 201.436 -4.55943 0.700982 0
M  V30 2137 H 199.679 -4.27653 0.727709 0
M  V30 2138 H 200.35 -5.50924 -0.344505 0
M  V30 2139 H 202.826 -3.91094 -1.42074 0
M  V30 2140 H 201.702 -4.99057 -2.28546 0
M  V30 2141 H 201.963 -3.35718 -2.87656 0
M  V30 2142 N 201.022 0.148545 -1.56898 0
M  V30 2143 C 202.268 0.862694 -1.83536 0
M  V30 2144 C 202.601 1.80889 -0.706604 0
M  V30 2145 O 201.876 1.92328 0.289885 0
M  V30 2146 C 202.159 1.63853 -3.20662 0
M  V30 2147 C 202.012 0.713925 -4.44098 0
M  V30 2148 C 203.331 2.60133 -3.54991 0
M  V30 2149 H 200.45 0.312179 -0.667618 0
M  V30 2150 H 203.092 0.127953 -1.89569 0
M  V30 2151 H 201.242 2.26489 -3.1565 0
M  V30 2152 H 202.914 0.098686 -4.61194 0
M  V30 2153 H 201.157 0.0234019 -4.33794 0
M  V30 2154 H 201.828 1.29278 -5.36648 0
M  V30 2155 H 204.304 2.07616 -3.60603 0
M  V30 2156 H 203.18 3.11468 -4.51972 0
M  V30 2157 H 203.441 3.41417 -2.80868 0
M  V30 2158 N 202.5 1.5196 0.417844 0
M  V30 2159 C 203.73 1.69181 1.18581 0
M  V30 2160 C 204.138 0.397104 1.84986 0
M  V30 2161 O 203.481 -0.636011 1.72339 0
M  V30 2162 C 203.543 2.76497 2.29759 0
M  V30 2163 C 203.207 4.18514 1.83563 0
M  V30 2164 C 204.204 5.02648 1.32821 0
M  V30 2165 C 201.889 4.64708 1.90661 0
M  V30 2166 C 203.883 6.31044 0.897894 0
M  V30 2167 C 201.57 5.93096 1.47241 0
M  V30 2168 C 202.568 6.76093 0.968891 0
M  V30 2169 O 202.256 8.02078 0.540924 0
M  V30 2170 H 201.988 0.570457 0.362705 0
M  V30 2171 H 204.542 1.99249 0.498885 0
M  V30 2172 H 202.772 2.41786 3.01789 0
M  V30 2173 H 204.461 2.82403 2.91553 0
M  V30 2174 H 205.227 4.68154 1.26716 0
M  V30 2175 H 201.106 4.00216 2.28797 0
M  V30 2176 H 204.65 6.95776 0.504192 0
M  V30 2177 H 200.547 6.271 1.53022 0
M  V30 2178 H 201.315 8.15794 0.66502 0
M  V30 2179 N 203.978 -0.674533 1.42435 0
M  V30 2180 C 205.206 -1.46283 1.46317 0
M  V30 2181 C 205.621 -1.88653 0.0745836 0
M  V30 2182 O 204.978 -1.58151 -0.91074 0
M  V30 2183 C 205.029 -2.71178 2.3905 0
M  V30 2184 O 204.75 -2.30586 3.72507 0
M  V30 2185 C 206.251 -3.64738 2.51955 0
M  V30 2186 H 203.471 -0.450104 0.497642 0
M  V30 2187 H 206.015 -0.828792 1.86953 0
M  V30 2188 H 204.17 -3.3077 2.01667 0
M  V30 2189 H 204.584 -3.11241 4.22172 0
M  V30 2190 H 206.058 -4.49096 3.20962 0
M  V30 2191 H 206.535 -4.10656 1.55752 0
M  V30 2192 H 207.141 -3.11038 2.90061 0
M  V30 2193 N 205.456 -1.28612 -0.910864 0
M  V30 2194 C 206.867 -1.14406 -1.47541 0
M  V30 2195 C 207.218 0.264901 -1.94403 0
M  V30 2196 O 206.343 1.15942 -1.82719 0
M  V30 2197 C 206.938 -2.07073 -2.68153 0
M  V30 2198 C 205.497 -1.96923 -3.20778 0
M  V30 2199 C 204.644 -1.98646 -1.93481 0
M  V30 2200 H 207.595 -1.41259 -0.723291 0
M  V30 2201 H 207.616 -1.63642 -3.43514 0
M  V30 2202 H 207.128 -3.09611 -2.34015 0
M  V30 2203 H 205.229 -0.97433 -3.59635 0
M  V30 2204 H 205.342 -2.84026 -3.85832 0
M  V30 2205 H 203.706 -1.43093 -2.10705 0
M  V30 2206 H 204.489 -3.02868 -1.61634 0
M  V30 2207 N 206.934 1.1197 -1.10907 0
M  V30 2208 C 208.211 1.79959 -0.766432 0
M  V30 2209 C 208.591 1.97466 0.746363 0
M  V30 2210 O 207.939 1.55491 1.67436 0
M  V30 2211 C 208.149 3.14009 -1.52314 0
M  V30 2212 C 209.497 3.89134 -1.69883 0
M  V30 2213 O 210.521 3.2368 -1.48692 0
M  V30 2214 O 209.38 5.06572 -2.05054 0
M  V30 2215 H 206.474 0.779208 -0.277062 0
M  V30 2216 H 209.02 1.18762 -1.21217 0
M  V30 2217 H 207.792 2.96587 -2.55249 0
M  V30 2218 H 207.415 3.82915 -1.07059 0
M  V30 2219 N 208.412 0.89855 1.29475 0
M  V30 2220 C 209.36 0.365253 2.29714 0
M  V30 2221 C 210.354 -0.534993 1.6073 0
M  V30 2222 O 211.56 -0.417921 1.75081 0
M  V30 2223 H 207.935 0.0994853 0.74539 0
M  V30 2224 H 209.906 1.22406 2.72138 0
M  V30 2225 C 208.655 -0.393159 3.4547 0
M  V30 2226 H 207.978 0.290332 3.98744 0
M  V30 2227 H 209.418 -0.731189 4.17648 0
M  V30 2228 C 207.877 -1.59539 2.9673 0
M  V30 2229 O 208.407 -2.69469 2.97908 0
M  V30 2230 N 206.613 -1.43716 2.52575 0
M  V30 2231 H 206.16 -0.542828 2.51816 0
M  V30 2232 H 206.118 -2.24288 2.20323 0
M  V30 2233 N 209.89 -1.43072 0.660911 0
M  V30 2234 C 211.136 -2.0202 0.177708 0
M  V30 2235 C 211.469 -1.52066 -1.20787 0
M  V30 2236 O 210.744 -0.716987 -1.80802 0
M  V30 2237 C 211.027 -3.59561 0.197019 0
M  V30 2238 C 210.88 -4.19727 1.61706 0
M  V30 2239 C 212.199 -4.37664 -0.462396 0
M  V30 2240 H 209.318 -0.734034 0.0660494 0
M  V30 2241 H 211.96 -1.70272 0.843058 0
M  V30 2242 H 210.11 -3.86739 -0.369527 0
M  V30 2243 H 211.782 -4.03553 2.23479 0
M  V30 2244 H 210.025 -3.76084 2.16201 0
M  V30 2245 H 210.696 -5.28834 1.58237 0
M  V30 2246 H 213.172 -4.16095 0.0197215 0
M  V30 2247 H 212.048 -5.47305 -0.418188 0
M  V30 2248 H 212.309 -4.14493 -1.53778 0
M  V30 2249 N 211.368 -0.403325 -1.52352 0
M  V30 2250 C 212.645 0.232611 -1.94212 0
M  V30 2251 C 213.025 1.63133 -1.33981 0
M  V30 2252 O 212.373 2.22659 -0.513344 0
M  V30 2253 C 212.583 0.244811 -3.4814 0
M  V30 2254 C 213.931 0.46698 -4.22024 0
M  V30 2255 O 214.955 0.324419 -3.5472 0
M  V30 2256 O 213.814 0.74747 -5.41364 0
M  V30 2257 H 210.908 0.148223 -0.813609 0
M  V30 2258 H 213.454 -0.458848 -1.63379 0
M  V30 2259 H 212.226 -0.734378 -3.84347 0
M  V30 2260 H 211.849 0.980611 -3.85318 0
M  V30 2261 N 212.846 1.57033 -0.133567 0
M  V30 2262 C 214.092 1.95976 0.521649 0
M  V30 2263 C 214.425 1.01779 1.65393 0
M  V30 2264 O 213.7 0.0576581 1.94415 0
M  V30 2265 C 213.983 3.44738 1.04057 0
M  V30 2266 C 213.836 4.49711 -0.0892897 0
M  V30 2267 C 215.155 3.95682 1.92675 0
M  V30 2268 H 212.274 0.712579 0.188149 0
M  V30 2269 H 214.916 1.88813 -0.212076 0
M  V30 2270 H 213.066 3.50973 1.66583 0
M  V30 2271 H 214.738 4.55565 -0.725152 0
M  V30 2272 H 212.981 4.27261 -0.750378 0
M  V30 2273 H 213.652 5.51099 0.315284 0
M  V30 2274 H 216.128 3.91841 1.39998 0
M  V30 2275 H 215.004 5.00262 2.25897 0
M  V30 2276 H 215.265 3.37239 2.85872 0
M  V30 2277 N 214.325 -0.140222 1.56975 0
M  V30 2278 C 215.272 -1.17292 1.98774 0
M  V30 2279 C 216.242 -1.4232 0.856408 0
M  V30 2280 O 217.427 -1.54541 1.119 0
M  V30 2281 C 214.567 -2.49973 2.37923 0
M  V30 2282 C 213.68 -2.32062 3.64378 0
M  V30 2283 C 212.815 -3.57825 3.926 0
M  V30 2284 C 211.854 -3.3498 5.12303 0
M  V30 2285 N 210.991 -4.52891 5.36502 0
M  V30 2286 H 215.831 -0.809472 2.86795 0
M  V30 2287 H 213.368 -0.388237 1.41884 0
M  V30 2288 H 215.326 -3.27346 2.58652 0
M  V30 2289 H 213.956 -2.84252 1.52972 0
M  V30 2290 H 213.008 -1.45711 3.51387 0
M  V30 2291 H 214.32 -2.11145 4.51906 0
M  V30 2292 H 213.474 -4.43624 4.13863 0
M  V30 2293 H 212.213 -3.81753 3.03506 0
M  V30 2294 H 211.218 -2.4757 4.90906 0
M  V30 2295 H 212.443 -3.12444 6.02956 0
M  V30 2296 H 210.389 -4.76979 4.50363 0
M  V30 2297 H 210.306 -4.35001 6.18312 0
M  V30 2298 H 211.574 -5.39884 5.62268 0
M  V30 2299 N 215.803 -1.52179 -0.40978 0
M  V30 2300 C 217.033 -1.69807 -1.17682 0
M  V30 2301 C 217.441 -0.406908 -1.84773 0
M  V30 2302 O 216.784 0.626863 -1.72673 0
M  V30 2303 C 216.846 -2.77712 -2.2829 0
M  V30 2304 C 216.51 -4.19481 -1.81341 0
M  V30 2305 C 217.507 -5.03345 -1.30154 0
M  V30 2306 C 215.192 -4.65713 -1.88194 0
M  V30 2307 C 217.186 -6.31511 -0.864416 0
M  V30 2308 C 214.873 -5.93869 -1.44093 0
M  V30 2309 C 215.871 -6.76597 -0.933023 0
M  V30 2310 O 215.559 -8.02354 -0.49838 0
M  V30 2311 H 215.291 -0.572372 -0.359675 0
M  V30 2312 H 217.845 -1.99511 -0.488311 0
M  V30 2313 H 216.075 -2.43383 -3.00502 0
M  V30 2314 H 217.764 -2.83946 -2.90051 0
M  V30 2315 H 218.53 -4.68819 -1.24232 0
M  V30 2316 H 214.409 -4.01424 -2.26671 0
M  V30 2317 H 217.953 -6.96033 -0.467286 0
M  V30 2318 H 213.85 -6.27903 -1.49694 0
M  V30 2319 H 214.618 -8.16135 -0.621747 0
M  V30 2320 N 217.281 0.66697 -1.42791 0
M  V30 2321 C 218.697 0.981027 -1.25889 0
M  V30 2322 C 218.897 2.00793 -0.168695 0
M  V30 2323 O 217.953 2.48321 0.45747 0
M  V30 2324 C 219.266 1.47838 -2.61848 0
M  V30 2325 C 220.814 1.59575 -2.69267 0
M  V30 2326 C 221.289 2.12704 -4.05612 0
M  V30 2327 N 222.78 2.20026 -4.07606 0
M  V30 2328 C 223.515 2.62227 -5.09926 0
M  V30 2329 N 223.011 3.03824 -6.22626 0
M  V30 2330 N 224.804 2.62045 -4.97281 0
M  V30 2331 H 216.955 -0.0127891 -2.12396 0
M  V30 2332 H 219.218 0.0568258 -0.946295 0
M  V30 2333 H 218.924 0.798299 -3.4252 0
M  V30 2334 H 218.798 2.45579 -2.86305 0
M  V30 2335 H 221.185 2.26687 -1.88936 0
M  V30 2336 H 221.266 0.60302 -2.48591 0
M  V30 2337 H 220.91 1.46198 -4.86404 0
M  V30 2338 H 220.84 3.12782 -4.23645 0
M  V30 2339 H 223.331 1.90708 -3.2625 0
M  V30 2340 H 223.644 3.34734 -6.96544 0
M  V30 2341 H 221.989 3.01662 -6.26119 0
M  V30 2342 H 225.18 2.28916 -4.08308 0
M  V30 2343 H 225.353 2.94613 -5.77154 0
M  V30 2344 N 218.759 1.29093 0.90403 0
M  V30 2345 C 220.005 1.16986 1.65656 0
M  V30 2346 C 220.338 -0.278925 1.92186 0
M  V30 2347 O 219.613 -1.2019 1.5292 0
M  V30 2348 C 219.896 1.97908 3.0084 0
M  V30 2349 C 219.749 3.50903 2.81403 0
M  V30 2350 C 221.068 1.80208 4.01513 0
M  V30 2351 H 218.187 0.426346 0.601164 0
M  V30 2352 H 220.829 1.58518 1.04747 0
M  V30 2353 H 218.979 1.62616 3.52829 0
M  V30 2354 H 220.651 3.96153 2.36348 0
M  V30 2355 H 218.894 3.76045 2.1627 0
M  V30 2356 H 219.565 4.02791 3.77443 0
M  V30 2357 H 222.041 2.11025 3.58619 0
M  V30 2358 H 220.917 2.39184 4.94047 0
M  V30 2359 H 221.178 0.756119 4.35586 0
M  V30 2360 N 220.237 -1.11381 1.11499 0
M  V30 2361 C 221.483 -1.83597 0.875423 0
M  V30 2362 C 221.838 -1.83048 -0.592555 0
M  V30 2363 O 221.131 -1.27304 -1.43193 0
M  V30 2364 C 221.325 -3.30026 1.37177 0
M  V30 2365 C 221.154 -3.44837 2.88647 0
M  V30 2366 C 219.924 -3.57825 3.56776 0
M  V30 2367 C 222.122 -3.3907 3.86699 0
M  V30 2368 N 220.104 -3.61113 4.96458 0
M  V30 2369 C 221.475 -3.48986 5.12454 0
M  V30 2370 C 223.53 -3.22605 3.7925 0
M  V30 2371 C 222.233 -3.44135 6.31636 0
M  V30 2372 C 224.259 -3.19072 4.97943 0
M  V30 2373 C 223.621 -3.29559 6.22551 0
M  V30 2374 H 219.72 -0.687044 0.37349 0
M  V30 2375 H 222.304 -1.33265 1.41946 0
M  V30 2376 H 220.475 -3.78874 0.854919 0
M  V30 2377 H 222.207 -3.90153 1.07529 0
M  V30 2378 H 218.962 -3.60414 3.07244 0
M  V30 2379 H 219.386 -3.66394 5.69284 0
M  V30 2380 H 224.028 -3.13382 2.83816 0
M  V30 2381 H 221.746 -3.52126 7.27347 0
M  V30 2382 H 225.332 -3.07498 4.93899 0
M  V30 2383 H 224.212 -3.26815 7.12855 0
M  V30 2384 N 221.715 -0.905404 -1.28997 0
M  V30 2385 C 222.662 -0.385892 -2.27551 0
M  V30 2386 C 223.632 0.535113 -1.57244 0
M  V30 2387 O 224.817 0.459119 -1.85194 0
M  V30 2388 C 221.957 0.375461 -3.43051 0
M  V30 2389 C 221.07 -0.577092 -4.28128 0
M  V30 2390 C 220.205 0.201879 -5.30816 0
M  V30 2391 C 219.244 -0.744829 -6.07551 0
M  V30 2392 N 218.381 9.42587e-05 -7.021 0
M  V30 2393 H 223.221 -1.23139 -2.71368 0
M  V30 2394 H 220.758 -0.618542 -1.33463 0
M  V30 2395 H 222.716 0.832992 -4.088 0
M  V30 2396 H 221.346 1.18537 -3.00248 0
M  V30 2397 H 220.398 -1.15315 -3.62501 0
M  V30 2398 H 221.71 -1.30152 -4.8152 0
M  V30 2399 H 220.864 0.720351 -6.02408 0
M  V30 2400 H 219.603 0.959413 -4.7817 0
M  V30 2401 H 218.608 -1.27475 -5.34818 0
M  V30 2402 H 219.833 -1.50178 -6.62286 0
M  V30 2403 H 217.779 0.739791 -6.51815 0
M  V30 2404 H 217.696 -0.664321 -7.53076 0
M  V30 2405 H 218.964 0.498644 -7.77903 0
M  V30 2406 N 223.193 1.4272 -0.668489 0
M  V30 2407 C 224.156 2.292 0.00448567 0
M  V30 2408 C 225.156 1.43001 0.735339 0
M  V30 2409 O 226.346 1.64461 0.57429 0
M  V30 2410 C 223.478 3.25375 1.01705 0
M  V30 2411 H 224.671 2.90199 -0.756608 0
M  V30 2412 H 222.224 1.50254 -0.430506 0
M  V30 2413 H 222.959 2.69301 1.80686 0
M  V30 2414 H 222.744 3.88944 0.496463 0
M  V30 2415 H 224.234 3.90245 1.48655 0
M  V30 2416 N 224.671 0.411399 1.52136 0
M  V30 2417 C 225.581 -0.419774 2.30814 0
M  V30 2418 C 226.597 -1.0515 1.38634 0
M  V30 2419 O 227.773 -1.05252 1.71709 0
M  V30 2420 C 224.838 -1.52019 3.11594 0
M  V30 2421 C 223.899 -0.91129 4.19516 0
M  V30 2422 C 223.132 -1.95927 4.96436 0
M  V30 2423 O 223.355 -3.17775 4.73683 0
M  V30 2424 O 222.289 -1.56423 5.81219 0
M  V30 2425 H 226.115 0.221805 3.02889 0
M  V30 2426 H 223.7 0.174547 1.48377 0
M  V30 2427 H 225.582 -2.15898 3.61892 0
M  V30 2428 H 224.257 -2.14633 2.42311 0
M  V30 2429 H 223.164 -0.235157 3.7336 0
M  V30 2430 H 224.497 -0.32904 4.91099 0
M  V30 2431 N 226.149 -1.5696 0.141893 0
M  V30 2432 C 227.059 -2.20066 -0.812905 0
M  V30 2433 C 228.075 -1.18344 -1.27557 0
M  V30 2434 O 229.251 -1.50902 -1.33381 0
M  V30 2435 C 226.316 -2.80583 -2.03652 0
M  V30 2436 C 225.377 -3.97414 -1.62359 0
M  V30 2437 C 224.61 -4.55036 -2.78887 0
M  V30 2438 O 224.833 -4.11538 -3.94959 0
M  V30 2439 O 223.767 -5.45376 -2.54653 0
M  V30 2440 H 227.593 -3.02157 -0.305746 0
M  V30 2441 H 225.178 -1.49159 -0.0848799 0
M  V30 2442 H 227.06 -3.19067 -2.75272 0
M  V30 2443 H 225.735 -2.01508 -2.5333 0
M  V30 2444 H 224.642 -3.63656 -0.877775 0
M  V30 2445 H 225.975 -4.77994 -1.17401 0
M  V30 2446 N 227.627 0.131896 -1.57047 0
M  V30 2447 C 228.574 1.16236 -1.99393 0
M  V30 2448 C 229.544 1.41863 -0.863943 0
M  V30 2449 O 230.729 1.53946 -1.12718 0
M  V30 2450 C 227.869 2.48708 -2.39245 0
M  V30 2451 C 226.982 2.30127 -3.65603 0
M  V30 2452 C 226.117 3.55738 -3.94492 0
M  V30 2453 C 225.156 3.32259 -5.14073 0
M  V30 2454 N 224.293 4.50039 -5.38896 0
M  V30 2455 H 229.133 0.794251 -2.87221 0
M  V30 2456 H 226.67 0.380707 -1.42088 0
M  V30 2457 H 228.628 3.25969 -2.60384 0
M  V30 2458 H 227.258 2.83437 -1.54478 0
M  V30 2459 H 226.31 1.43845 -3.52154 0
M  V30 2460 H 227.622 2.08746 -4.5302 0
M  V30 2461 H 226.776 4.41423 -4.1621 0
M  V30 2462 H 225.515 3.80138 -3.05526 0
M  V30 2463 H 224.52 2.44963 -4.92212 0
M  V30 2464 H 225.745 3.09242 -6.04604 0
M  V30 2465 H 223.691 4.74584 -4.52886 0
M  V30 2466 H 223.608 4.31716 -6.2061 0
M  V30 2467 H 224.876 5.36895 -5.65123 0
M  V30 2468 N 229.106 1.52395 0.401703 0
M  V30 2469 C 230.355 1.66044 1.14509 0
M  V30 2470 C 230.668 0.400216 1.91462 0
M  V30 2471 O 231.874 0.416632 2.68284 0
M  V30 2472 C 230.33 2.93388 2.0845 0
M  V30 2473 C 229.938 4.26545 1.36978 0
M  V30 2474 C 231.682 3.16402 2.83001 0
M  V30 2475 C 229.589 5.45007 2.29611 0
M  V30 2476 H 228.519 0.618562 0.431158 0
M  V30 2477 H 231.17 1.78886 0.40892 0
M  V30 2478 H 229.552 2.74263 2.8565 0
M  V30 2479 H 230.726 4.56179 0.650916 0
M  V30 2480 H 229.041 4.09692 0.74438 0
M  V30 2481 H 231.638 4.02085 3.52465 0
M  V30 2482 H 231.981 2.30943 3.46368 0
M  V30 2483 H 232.514 3.36034 2.12898 0
M  V30 2484 H 229.253 6.32835 1.70879 0
M  V30 2485 H 228.773 5.19702 2.9945 0
M  V30 2486 H 230.452 5.7838 2.89974 0
M  V30 2487 N 230.584 -0.659388 1.43143 0
M  V30 2488 C 231.861 -1.41627 1.34912 0
M  V30 2489 C 232.241 -2.11099 -0.00607785 0
M  V30 2490 O 231.589 -2.04353 -1.02236 0
M  V30 2491 C 231.799 -2.40604 2.52805 0
M  V30 2492 C 233.147 -3.04789 2.95616 0
M  V30 2493 O 234.171 -2.50932 2.52807 0
M  V30 2494 O 233.03 -4.02421 3.69756 0
M  V30 2495 H 230.124 -0.63246 0.532844 0
M  V30 2496 H 232.67 -0.686814 1.5518 0
M  V30 2497 H 231.442 -1.88174 3.43083 0
M  V30 2498 H 231.065 -3.21009 2.34604 0
M  V30 2499 N 232.062 -1.29571 -0.897171 0
M  V30 2500 C 233.01 -1.14802 -2.02295 0
M  V30 2501 C 234.004 -0.0629637 -1.69283 0
M  V30 2502 O 235.21 -0.222945 -1.78614 0
M  V30 2503 H 231.585 -0.354692 -0.663097 0
M  V30 2504 H 233.556 -2.10108 -2.11889 0
M  V30 2505 C 232.305 -0.843966 -3.37302 0
M  V30 2506 H 231.628 -1.67093 -3.63208 0
M  V30 2507 H 233.068 -0.780672 -4.16751 0
M  V30 2508 C 231.527 0.452843 -3.33843 0
M  V30 2509 O 232.057 1.47813 -3.73516 0
M  V30 2510 N 230.263 0.459601 -2.86943 0
M  V30 2511 H 229.81 -0.375213 -2.54853 0
M  V30 2512 H 229.768 1.32726 -2.85011 0
M  V30 2513 N 233.54 1.10788 -1.12088 0
M  V30 2514 C 234.503 2.15207 -0.788577 0
M  V30 2515 C 235.503 1.59609 0.195317 0
M  V30 2516 O 236.693 1.74174 -0.0300193 0
M  V30 2517 C 233.825 3.4047 -0.171174 0
M  V30 2518 H 235.018 2.46116 -1.71368 0
M  V30 2519 H 232.571 1.26089 -0.923652 0
M  V30 2520 H 233.306 3.15176 0.763832 0
M  V30 2521 H 233.091 3.82109 -0.879514 0
M  V30 2522 H 234.581 4.17576 0.04496 0
M  V30 2523 N 235.018 0.912232 1.28515 0
M  V30 2524 C 236.264 0.545405 1.95328 0
M  V30 2525 C 236.597 -0.908313 1.71649 0
M  V30 2526 O 235.872 -1.64575 1.03659 0
M  V30 2527 C 236.155 0.853483 3.4984 0
M  V30 2528 C 236.008 2.35982 3.82926 0
M  V30 2529 C 237.327 0.348589 4.38717 0
M  V30 2530 H 234.446 0.199626 0.709449 0
M  V30 2531 H 237.088 1.1412 1.5191 0
M  V30 2532 H 235.238 0.34643 3.86952 0
M  V30 2533 H 236.91 2.93738 3.55691 0
M  V30 2534 H 235.153 2.81543 3.30024 0
M  V30 2535 H 235.824 2.52593 4.90816 0
M  V30 2536 H 238.3 0.78294 4.08668 0
M  V30 2537 H 237.176 0.593242 5.45685 0
M  V30 2538 H 237.437 -0.751049 4.35674 0
M  V30 2539 N 236.496 -1.42363 0.676048 0
M  V30 2540 C 237.742 -2.0182 0.199125 0
M  V30 2541 C 238.075 -1.53339 -1.19168 0
M  V30 2542 O 237.35 -0.736124 -1.80032 0
M  V30 2543 C 237.633 -3.59331 0.235144 0
M  V30 2544 C 237.486 -4.17989 1.66149 0
M  V30 2545 C 238.805 -4.3813 -0.41595 0
M  V30 2546 H 235.924 -0.733293 0.0738311 0
M  V30 2547 H 238.566 -1.69368 0.86107 0
M  V30 2548 H 236.716 -3.87109 -0.328487 0
M  V30 2549 H 238.388 -4.0116 2.27747 0
M  V30 2550 H 236.631 -3.7377 2.20178 0
M  V30 2551 H 237.302 -5.27126 1.63837 0
M  V30 2552 H 239.778 -4.16051 0.0638529 0
M  V30 2553 H 238.654 -5.47717 -0.360115 0
M  V30 2554 H 238.915 -4.16101 -1.49373 0
M  V30 2555 N 237.974 -0.419461 -1.51915 0
M  V30 2556 C 239.39 -0.0708431 -1.59443 0
M  V30 2557 C 239.59 1.41796 -1.43164 0
M  V30 2558 O 238.646 2.18596 -1.26381 0
M  V30 2559 C 239.959 -0.574991 -2.95151 0
M  V30 2560 C 241.507 -0.533867 -3.08413 0
M  V30 2561 C 241.982 -1.01469 -4.46618 0
M  V30 2562 N 243.473 -0.971939 -4.52888 0
M  V30 2563 C 244.208 -1.31505 -5.58116 0
M  V30 2564 N 243.704 -1.73014 -6.70849 0
M  V30 2565 N 245.497 -1.23436 -5.48379 0
M  V30 2566 H 237.648 -1.38836 -1.60743 0
M  V30 2567 H 239.911 -0.570998 -0.756747 0
M  V30 2568 H 239.617 -1.61597 -3.12377 0
M  V30 2569 H 239.491 0.00979777 -3.77199 0
M  V30 2570 H 241.878 0.498086 -2.90866 0
M  V30 2571 H 241.959 -1.15484 -2.28248 0
M  V30 2572 H 241.603 -2.04502 -4.6491 0
M  V30 2573 H 241.533 -0.370433 -5.25295 0
M  V30 2574 H 244.024 -0.666893 -3.71969 0
M  V30 2575 H 244.337 -1.97479 -7.47143 0
M  V30 2576 H 242.682 -1.76926 -6.72103 0
M  V30 2577 H 245.873 -0.908869 -4.59192 0
M  V30 2578 H 246.046 -1.50506 -6.30279 0
M  V30 2579 O 239.491 1.58856 -0.291037 0
M  V30 2580 H 240.182 1.91728 0.275667 0
M  V30 END ATOM
M  V30 BEGIN BOND
M  V30 END BOND
M  V30 END CTAB
M  END
$$$$
