drugbank_target|P23905 D-galactose-binding periplasmic protein (DB02379)
 OpenBabel12092120283D

  0  0  0     0  0            999 V3000
M  V30 BEGIN CTAB
M  V30 COUNTS 5045 5084 0 0 0
M  V30 BEGIN ATOM
M  V30 1 H -0.908 1.98254 -0.117106 0
M  V30 2 N 0 1.576 0 0
M  V30 3 C 0.933 2.03868 1.02534 0
M  V30 4 C 1.911 0.928543 1.3348 0
M  V30 5 O 3.095 1.19667 1.45644 0
M  V30 6 C 0.222 2.43627 2.35294 0
M  V30 7 C -0.732 3.65373 2.2001 0
M  V30 8 S 0.101 5.13292 1.52614 0
M  V30 9 C 1.257 5.56322 2.86805 0
M  V30 10 H 1.49 2.90518 0.631377 0
M  V30 11 H -0.977 1.52953 0.210867 0
M  V30 12 H 0.981 2.67203 3.11629 0
M  V30 13 H -0.358 1.57376 2.7183 0
M  V30 14 H -1.165 3.90944 3.18086 0
M  V30 15 H -1.563 3.418 1.51819 0
M  V30 16 H 0.729 5.58782 3.83104 0
M  V30 17 H 1.672 6.56266 2.65933 0
M  V30 18 H 2.08 4.83886 2.90714 0
M  V30 19 N 1.4781 -0.272755 1.55222 0
M  V30 20 C 2.4261 -1.35705 1.88909 0
M  V30 21 C 3.4201 -1.5112 0.765456 0
M  V30 22 O 4.6261 -1.52901 0.949802 0
M  V30 23 H 1.0011 -0.453868 0.59959 0
M  V30 24 H 2.9721 -1.04544 2.79487 0
M  V30 25 C 1.7211 -2.71049 2.17779 0
M  V30 26 H 1.0441 -2.59979 3.03728 0
M  V30 27 H 2.4841 -3.45858 2.45272 0
M  V30 28 C 0.9431 -3.22165 0.985473 0
M  V30 29 O 1.4731 -4.01096 0.220233 0
M  V30 30 N -0.3209 -2.7985 0.783108 0
M  V30 31 H -0.7739 -2.15775 1.40708 0
M  V30 32 H -0.8159 -3.14397 -0.0130392 0
M  V30 33 N 2.9562 -1.48159 -0.537278 0
M  V30 34 C 3.9032 -1.62138 -1.64256 0
M  V30 35 C 4.8732 -0.463668 -1.59497 0
M  V30 36 O 6.0582 -0.686241 -1.78032 0
M  V30 37 C 3.1982 -1.66028 -3.02537 0
M  V30 38 C 2.3112 -2.92855 -3.17585 0
M  V30 39 C 1.4462 -2.87952 -4.46382 0
M  V30 40 C 0.4852 -4.09516 -4.54932 0
M  V30 41 N -0.3778 -4.02733 -5.75109 0
M  V30 42 H 4.4622 -2.56529 -1.51647 0
M  V30 43 H 1.9992 -1.27224 -0.738414 0
M  V30 44 H 3.9572 -1.66265 -3.82638 0
M  V30 45 H 2.5872 -0.751331 -3.13934 0
M  V30 46 H 1.6392 -3.02395 -2.30784 0
M  V30 47 H 2.9512 -3.82822 -3.19764 0
M  V30 48 H 2.1052 -2.8655 -5.34765 0
M  V30 49 H 0.8442 -1.95702 -4.46712 0
M  V30 50 H -0.1508 -4.11201 -3.64957 0
M  V30 51 H 1.0742 -5.02917 -4.56346 0
M  V30 52 H -0.9798 -3.13299 -5.76351 0
M  V30 53 H -1.0628 -4.86397 -5.78752 0
M  V30 54 H 0.2052 -4.05379 -6.65799 0
M  V30 55 N 4.4343 0.785586 -1.36625 0
M  V30 56 C 5.3813 1.89838 -1.31264 0
M  V30 57 C 6.3513 1.65115 -0.180633 0
M  V30 58 O 7.5363 1.87222 -0.36777 0
M  V30 59 C 4.6763 3.26706 -1.11163 0
M  V30 60 C 3.7893 3.63476 -2.33472 0
M  V30 61 C 2.9243 4.89481 -2.06353 0
M  V30 62 C 1.9633 5.18941 -3.24602 0
M  V30 63 N 1.1003 6.36131 -2.97123 0
M  V30 64 H 5.9403 1.93756 -2.26413 0
M  V30 65 H 3.4773 0.947454 -1.12524 0
M  V30 66 H 5.4353 4.05639 -0.975337 0
M  V30 67 H 4.0653 3.222 -0.196674 0
M  V30 68 H 3.1173 2.79636 -2.57891 0
M  V30 69 H 4.4293 3.81193 -3.21704 0
M  V30 70 H 3.5833 5.76288 -1.89675 0
M  V30 71 H 2.3223 4.73841 -1.15437 0
M  V30 72 H 1.3273 4.30615 -3.41834 0
M  V30 73 H 2.5523 5.36498 -4.16349 0
M  V30 74 H 0.4983 6.21875 -2.08823 0
M  V30 75 H 0.4153 6.54198 -3.78894 0
M  V30 76 H 1.6833 7.2591 -2.84033 0
M  V30 77 N 5.9124 1.20967 1.01018 0
M  V30 78 C 7.1584 1.02526 1.74975 0
M  V30 79 C 7.4914 -0.4408 1.89131 0
M  V30 80 O 6.7664 -1.32718 1.42184 0
M  V30 81 C 7.0494 1.71699 3.1653 0
M  V30 82 C 6.9024 3.25791 3.10129 0
M  V30 83 C 8.2214 1.45531 4.15342 0
M  V30 84 H 5.3404 0.373863 0.635134 0
M  V30 85 H 7.9824 1.49071 1.17805 0
M  V30 86 H 6.1324 1.32128 3.65341 0
M  V30 87 H 7.8044 3.74697 2.69072 0
M  V30 88 H 6.0474 3.56363 2.47362 0
M  V30 89 H 6.7184 3.69353 4.10222 0
M  V30 90 H 9.1944 1.79872 3.75213 0
M  V30 91 H 8.0704 1.96453 5.1254 0
M  V30 92 H 8.3314 0.384237 4.40427 0
M  V30 93 N 7.3905 -1.2043 1.01659 0
M  V30 94 C 8.3205 -2.25466 0.607226 0
M  V30 95 C 9.3015 -1.65853 -0.377716 0
M  V30 96 O 10.4865 -1.92409 -0.263149 0
M  V30 97 C 7.6165 -3.47256 -0.0552949 0
M  V30 98 C 6.5705 -4.19462 0.850632 0
M  V30 99 C 5.8965 -5.34673 0.0538859 0
M  V30 100 C 7.1965 -4.75603 2.15868 0
M  V30 101 H 8.8905 -2.59962 1.48526 0
M  V30 102 H 6.4365 -1.2496 0.715605 0
M  V30 103 H 8.3895 -4.19917 -0.353233 0
M  V30 104 H 7.1135 -3.11924 -0.968045 0
M  V30 105 H 5.7725 -3.48667 1.13257 0
M  V30 106 H 5.4205 -4.95585 -0.860514 0
M  V30 107 H 5.1205 -5.83913 0.657192 0
M  V30 108 H 6.6445 -6.10138 -0.237598 0
M  V30 109 H 8.0585 -5.40083 1.92311 0
M  V30 110 H 6.4555 -5.3528 2.71284 0
M  V30 111 H 7.5255 -3.94346 2.82169 0
M  V30 112 N 8.8686 -0.792821 -1.36206 0
M  V30 113 C 10.0966 -0.378825 -2.03402 0
M  V30 114 C 10.5116 1.00586 -1.59774 0
M  V30 115 O 9.8686 1.64574 -0.788764 0
M  V30 116 C 9.9196 -0.43683 -3.58851 0
M  V30 117 O 9.6406 -1.76691 -4.00889 0
M  V30 118 C 11.1416 -0.0138943 -4.43298 0
M  V30 119 H 8.3616 -0.155673 -0.652692 0
M  V30 120 H 10.9056 -1.07261 -1.74113 0
M  V30 121 H 9.0606 0.208575 -3.86838 0
M  V30 122 H 9.4746 -1.72011 -4.95492 0
M  V30 123 H 10.9486 -0.105615 -5.51899 0
M  V30 124 H 11.4256 1.03915 -4.2673 0
M  V30 125 H 12.0316 -0.63192 -4.20579 0
M  V30 126 N 10.3467 1.47872 -0.545128 0
M  V30 127 C 11.2767 2.32661 0.197793 0
M  V30 128 C 12.2577 1.43041 0.920504 0
M  V30 129 O 13.4427 1.71912 0.90333 0
M  V30 130 C 10.5727 3.24569 1.23582 0
M  V30 131 C 9.5267 4.23333 0.630323 0
M  V30 132 C 8.8527 5.0448 1.77211 0
M  V30 133 C 10.1527 5.20704 -0.407974 0
M  V30 134 H 11.8467 2.95024 -0.510045 0
M  V30 135 H 9.3927 1.4187 -0.246731 0
M  V30 136 H 11.3457 3.8272 1.76362 0
M  V30 137 H 10.0697 2.60236 1.97344 0
M  V30 138 H 8.7287 3.6639 0.123922 0
M  V30 139 H 8.3767 4.36561 2.49847 0
M  V30 140 H 8.0767 5.71339 1.37281 0
M  V30 141 H 9.6007 5.65487 2.3034 0
M  V30 142 H 11.0147 5.7329 0.033305 0
M  V30 143 H 9.4117 5.95699 -0.725486 0
M  V30 144 H 10.4817 4.66917 -1.30828 0
M  V30 145 N 11.8248 0.280983 1.55075 0
M  V30 146 C 13.0498 -0.340154 2.04592 0
M  V30 147 C 13.4748 -1.48246 1.15779 0
M  V30 148 O 12.8328 -1.80614 0.15761 0
M  V30 149 C 12.8808 -0.793104 3.5177 0
M  V30 150 O 11.9848 -1.89981 3.66034 0
M  V30 151 H 11.3258 -0.0694289 0.66036 0
M  V30 152 H 13.8558 0.416993 2.00306 0
M  V30 153 H 13.8658 -1.08729 3.93245 0
M  V30 154 H 12.5408 0.0426163 4.15878 0
M  V30 155 H 11.1178 -1.60771 3.36463 0
M  V30 156 N 13.3029 -1.57598 0.00835791 0
M  V30 157 C 14.2659 -2.07884 -0.965242 0
M  V30 158 C 15.2659 -0.989825 -1.26725 0
M  V30 159 O 16.4559 -1.25218 -1.21104 0
M  V30 160 C 13.5879 -2.52731 -2.28779 0
M  V30 161 H 14.7809 -2.95178 -0.530112 0
M  V30 162 H 12.3339 -1.54458 -0.239283 0
M  V30 163 H 13.0689 -1.68705 -2.76964 0
M  V30 164 H 12.8539 -3.32272 -2.08177 0
M  V30 165 H 14.3439 -2.91933 -2.98605 0
M  V30 166 N 14.781 0.264519 -1.55364 0
M  V30 167 C 16.027 0.99646 -1.76631 0
M  V30 168 C 16.36 1.85632 -0.570478 0
M  V30 169 O 15.635 1.89647 0.43175 0
M  V30 170 C 15.918 1.87187 -3.07625 0
M  V30 171 C 15.771 1.04138 -4.37579 0
M  V30 172 C 17.09 2.85749 -3.34717 0
M  V30 173 H 14.209 0.360841 -0.642622 0
M  V30 174 H 16.851 0.268218 -1.88097 0
M  V30 175 H 15.001 2.49279 -2.9798 0
M  V30 176 H 16.673 0.440517 -4.59192 0
M  V30 177 H 14.916 0.345115 -4.32425 0
M  V30 178 H 15.587 1.68729 -5.2558 0
M  V30 179 H 18.063 2.33793 -3.4421 0
M  V30 180 H 16.939 3.44136 -4.27623 0
M  V30 181 H 17.2 3.61311 -2.54768 0
M  V30 182 N 16.2591 1.48442 0.529413 0
M  V30 183 C 17.1921 1.57577 1.65059 0
M  V30 184 C 18.1701 0.426198 1.56915 0
M  V30 185 O 19.3541 0.637877 1.77379 0
M  V30 186 C 16.4811 1.5043 3.03461 0
M  V30 187 C 15.5271 2.70235 3.29962 0
M  V30 188 S 16.3601 4.32198 3.16172 0
M  V30 189 C 17.5161 4.2765 4.57019 0
M  V30 190 H 17.7491 2.52427 1.5706 0
M  V30 191 H 15.2821 1.36982 0.712417 0
M  V30 192 H 17.2401 1.46992 3.8328 0
M  V30 193 H 15.9011 0.569167 3.089 0
M  V30 194 H 15.0941 2.61374 4.30929 0
M  V30 195 H 14.6961 2.70938 2.57815 0
M  V30 196 H 16.9881 3.97618 5.48549 0
M  V30 197 H 17.9311 5.28797 4.70934 0
M  V30 198 H 18.3391 3.5811 4.36368 0
M  V30 199 N 17.7372 -0.778329 1.37039 0
M  V30 200 C 18.7002 -1.87301 1.32102 0
M  V30 201 C 19.7002 -1.59198 0.226405 0
M  V30 202 O 20.8902 -1.67403 0.481861 0
M  V30 203 C 18.0222 -3.24309 1.05055 0
M  V30 204 H 19.2152 -1.93093 2.29467 0
M  V30 205 H 16.7682 -0.977358 1.21973 0
M  V30 206 H 17.5032 -3.24196 0.0819373 0
M  V30 207 H 17.2882 -3.46098 1.84279 0
M  V30 208 H 18.7782 -4.04382 1.04234 0
M  V30 209 N 19.2153 -1.21501 -1.00376 0
M  V30 210 C 20.4403 -1.05977 -1.78279 0
M  V30 211 C 20.8653 0.385994 -1.84097 0
M  V30 212 O 20.2233 1.27849 -1.28547 0
M  V30 213 C 20.2713 -1.66302 -3.19963 0
M  V30 214 O 19.3753 -0.909333 -4.0225 0
M  V30 215 H 18.7163 -0.372906 -0.549397 0
M  V30 216 H 21.2463 -1.6107 -1.26165 0
M  V30 217 H 21.2563 -1.70574 -3.70632 0
M  V30 218 H 19.9313 -2.71515 -3.15043 0
M  V30 219 H 18.5083 -0.941795 -3.60811 0
M  V30 220 N 20.6934 1.19889 -1.02296 0
M  V30 221 C 21.6234 2.25141 -0.619174 0
M  V30 222 C 22.6044 1.66051 0.368915 0
M  V30 223 O 23.7894 1.92546 0.252941 0
M  V30 224 C 20.9194 3.4728 0.0368783 0
M  V30 225 C 19.8734 4.19005 -0.872865 0
M  V30 226 C 19.1994 5.34637 -0.0822402 0
M  V30 227 C 20.4994 4.74452 -2.18387 0
M  V30 228 H 22.1934 2.59171 -1.49903 0
M  V30 229 H 19.7394 1.24579 -0.722222 0
M  V30 230 H 21.6924 4.20098 0.330958 0
M  V30 231 H 20.4164 3.12433 0.95149 0
M  V30 232 H 19.0754 3.48061 -1.15105 0
M  V30 233 H 18.7234 4.96034 0.83422 0
M  V30 234 H 18.4234 5.83557 -0.688149 0
M  V30 235 H 19.9474 6.10255 0.205238 0
M  V30 236 H 21.3614 5.39055 -1.95172 0
M  V30 237 H 19.7584 5.33834 -2.74119 0
M  V30 238 H 20.8284 3.92844 -2.84257 0
M  V30 239 N 22.1715 0.800033 1.35784 0
M  V30 240 C 23.1015 0.220184 2.3246 0
M  V30 241 C 24.0825 -0.65073 1.57161 0
M  V30 242 O 25.2675 -0.582359 1.85263 0
M  V30 243 C 22.3975 -0.637353 3.41402 0
M  V30 244 C 21.3515 0.134531 4.27789 0
M  V30 245 C 20.6775 -0.844285 5.27992 0
M  V30 246 C 21.9775 1.32979 5.05088 0
M  V30 247 H 23.6715 1.02787 2.81203 0
M  V30 248 H 21.2175 0.495717 1.35199 0
M  V30 249 H 23.1705 -1.05302 4.08031 0
M  V30 250 H 21.8945 -1.47785 2.91251 0
M  V30 251 H 20.5535 0.531296 3.6273 0
M  V30 252 H 20.2015 -1.68011 4.74111 0
M  V30 253 H 19.9015 -0.332184 5.8666 0
M  V30 254 H 21.4255 -1.2583 5.97494 0
M  V30 255 H 22.8395 0.98934 5.64699 0
M  V30 256 H 21.2365 1.77593 5.7322 0
M  V30 257 H 22.3065 2.11978 4.36111 0
M  V30 258 N 23.6496 -1.47581 0.552962 0
M  V30 259 C 24.8966 -2.02482 0.0273243 0
M  V30 260 C 25.2246 -1.42776 -1.32081 0
M  V30 261 O 24.4796 -0.571393 -1.87173 0
M  V30 262 C 24.7786 -3.57199 -0.119728 0
M  V30 263 C 24.4446 -4.35804 1.15697 0
M  V30 264 C 23.1066 -4.57 1.50681 0
M  V30 265 C 25.4586 -4.81167 2.00319 0
M  V30 266 C 22.7866 -5.20807 2.70142 0
M  V30 267 C 25.1386 -5.46293 3.18978 0
M  V30 268 C 23.8026 -5.65722 3.54281 0
M  V30 269 H 23.0726 -0.740933 0.00999866 0
M  V30 270 H 25.7196 -1.77302 0.72362 0
M  V30 271 H 24.0246 -3.81348 -0.89896 0
M  V30 272 H 25.7216 -3.97324 -0.541718 0
M  V30 273 H 22.3116 -4.19582 0.874561 0
M  V30 274 H 26.4956 -4.64574 1.74599 0
M  V30 275 H 21.7516 -5.34045 2.97668 0
M  V30 276 H 25.9256 -5.80407 3.84838 0
M  V30 277 H 23.5526 -6.14936 4.46942 0
M  V30 278 N 25.1277 -0.289203 -1.54924 0
M  V30 279 C 26.3757 0.322879 -1.99504 0
M  V30 280 C 26.6967 1.55313 -1.1791 0
M  V30 281 O 25.9667 1.94001 -0.272097 0
M  V30 282 H 24.5467 0.122291 -0.736922 0
M  V30 283 H 27.2087 -0.397802 -1.90797 0
M  V30 284 H 26.3047 0.603061 -3.06218 0
M  V30 285 N 26.6058 1.57591 -0.0167156 0
M  V30 286 C 27.5688 2.08393 0.954204 0
M  V30 287 C 28.5688 0.996531 1.26198 0
M  V30 288 O 29.7588 1.25858 1.20438 0
M  V30 289 C 26.8908 2.5394 2.27436 0
M  V30 290 H 28.0838 2.95455 0.514451 0
M  V30 291 H 25.6368 1.54582 0.231089 0
M  V30 292 H 26.3718 1.70171 2.76066 0
M  V30 293 H 26.1568 3.33371 2.06412 0
M  V30 294 H 27.6468 2.93512 2.97053 0
M  V30 295 N 28.0839 -0.256276 1.55502 0
M  V30 296 C 29.0339 -1.31981 1.85916 0
M  V30 297 C 30.0179 -1.43927 0.719296 0
M  V30 298 O 31.2099 -1.47326 0.981019 0
M  V30 299 C 28.3389 -2.67703 2.14918 0
M  V30 300 C 27.4249 -2.59801 3.35208 0
M  V30 301 N 27.8159 -2.21524 4.54709 0
M  V30 302 C 26.1139 -2.90832 3.38131 0
M  V30 303 C 26.8149 -2.24024 5.36832 0
M  V30 304 N 25.7909 -2.63158 4.75656 0
M  V30 305 H 29.5929 -1.01423 2.75845 0
M  V30 306 H 27.1069 -0.464911 1.55603 0
M  V30 307 H 29.1039 -3.44445 2.34869 0
M  V30 308 H 27.7639 -2.99137 1.26282 0
M  V30 309 H 28.7749 -1.93223 4.80505 0
M  V30 310 H 25.4519 -3.26867 2.59739 0
M  V30 311 H 26.8419 -1.9685 6.42417 0
M  V30 312 N 29.562 -1.4872 -0.521534 0
M  V30 313 C 30.525 -1.63379 -1.60748 0
M  V30 314 C 31.525 -0.50661 -1.52611 0
M  V30 315 O 32.715 -0.772601 -1.5613 0
M  V30 316 C 29.847 -1.61192 -3.00383 0
M  V30 317 H 31.04 -2.60217 -1.49087 0
M  V30 318 H 28.593 -1.37444 -0.744235 0
M  V30 319 H 29.328 -0.65863 -3.17541 0
M  V30 320 H 29.113 -2.43032 -3.07698 0
M  V30 321 H 30.603 -1.7466 -3.7932 0
M  V30 322 N 31.0401 0.771051 -1.3745 0
M  V30 323 C 31.9901 1.87456 -1.29785 0
M  V30 324 C 32.9741 1.59827 -0.185541 0
M  V30 325 O 34.1661 1.71945 -0.419997 0
M  V30 326 C 31.2951 3.24935 -1.1078 0
M  V30 327 C 30.3811 3.58514 -2.26558 0
M  V30 328 N 30.7721 3.6327 -3.5195 0
M  V30 329 C 29.0701 3.88683 -2.18727 0
M  V30 330 C 29.7711 3.93616 -4.283 0
M  V30 331 N 28.7471 4.09551 -3.57448 0
M  V30 332 H 32.5491 1.89386 -2.24745 0
M  V30 333 H 30.0631 0.967531 -1.30432 0
M  V30 334 H 32.0601 4.03881 -1.03374 0
M  V30 335 H 30.7201 3.24268 -0.16738 0
M  V30 336 H 31.7311 3.45458 -3.85848 0
M  V30 337 H 28.4081 3.95834 -1.32746 0
M  V30 338 H 29.7981 4.04066 -5.36824 0
M  V30 339 N 32.5182 1.22032 0.997298 0
M  V30 340 C 33.4812 0.987909 2.06816 0
M  V30 341 C 34.4812 -0.0440084 1.6074 0
M  V30 342 O 35.6712 0.194053 1.73116 0
M  V30 343 C 32.8032 0.49132 3.37341 0
M  V30 344 H 33.9962 1.93803 2.28868 0
M  V30 345 H 31.5492 1.03838 1.16822 0
M  V30 346 H 32.2842 -0.463364 3.20973 0
M  V30 347 H 32.0692 1.23575 3.72118 0
M  V30 348 H 33.5592 0.348824 4.16141 0
M  V30 349 N 33.9963 -1.19345 1.0293 0
M  V30 350 C 34.9593 -2.20793 0.615069 0
M  V30 351 C 35.9593 -1.57553 -0.321533 0
M  V30 352 O 37.1493 -1.73862 -0.108483 0
M  V30 353 C 34.2813 -3.40754 -0.0999222 0
M  V30 354 H 35.4743 -2.58955 1.51269 0
M  V30 355 H 33.0273 -1.3303 0.820534 0
M  V30 356 H 33.7623 -3.0811 -1.01187 0
M  V30 357 H 33.5473 -3.87889 0.57309 0
M  V30 358 H 35.0373 -4.15898 -0.376645 0
M  V30 359 N 35.4744 -0.807222 -1.35358 0
M  V30 360 C 36.7514 -0.311126 -1.9311 0
M  V30 361 C 37.1314 1.19937 -1.73719 0
M  V30 362 O 36.4794 1.99918 -1.10657 0
M  V30 363 C 36.6894 -0.723226 -3.41424 0
M  V30 364 C 38.0374 -0.713078 -4.18569 0
M  V30 365 O 39.0614 -0.664811 -3.49941 0
M  V30 366 O 37.9204 -0.772022 -5.41019 0
M  V30 367 H 35.0144 -0.081526 -0.822972 0
M  V30 368 H 37.5604 -0.890962 -1.4443 0
M  V30 369 H 36.3324 -1.76426 -3.4927 0
M  V30 370 H 35.9554 -0.118232 -3.97424 0
M  V30 371 N 36.9525 1.47285 -0.560781 0
M  V30 372 C 38.1805 2.06855 -0.0430262 0
M  V30 373 C 38.5955 1.41291 1.25229 0
M  V30 374 O 37.9525 0.510648 1.7521 0
M  V30 375 C 38.0035 3.61178 0.152518 0
M  V30 376 O 37.7245 4.24285 -1.0915 0
M  V30 377 C 39.2255 4.37624 0.707145 0
M  V30 378 H 36.4455 0.669319 -0.0474652 0
M  V30 379 H 38.9895 1.89237 -0.77521 0
M  V30 380 H 37.1445 3.78298 0.834843 0
M  V30 381 H 37.5585 5.16868 -0.891482 0
M  V30 382 H 39.0325 5.46271 0.793244 0
M  V30 383 H 39.5095 4.04152 1.71923 0
M  V30 384 H 40.1155 4.25257 0.0604027 0
M  V30 385 N 38.4306 0.297415 1.54768 0
M  V30 386 C 39.8466 -0.0560823 1.59501 0
M  V30 387 C 40.0466 -1.52725 1.31444 0
M  V30 388 O 39.1026 -2.27947 1.08611 0
M  V30 389 C 40.4156 0.338631 2.98787 0
M  V30 390 C 41.9636 0.287097 3.11681 0
M  V30 391 C 42.4386 0.656579 4.53269 0
M  V30 392 N 43.9296 0.608977 4.59179 0
M  V30 393 C 44.6646 0.867385 5.66802 0
M  V30 394 N 44.1606 1.19157 6.82476 0
M  V30 395 N 45.9536 0.794687 5.56454 0
M  V30 396 H 38.1046 1.25624 1.71267 0
M  V30 397 H 40.3676 0.509057 0.799728 0
M  V30 398 H 40.0736 1.36263 3.2423 0
M  V30 399 H 39.9476 -0.309508 3.75928 0
M  V30 400 H 42.3346 -0.727649 2.85988 0
M  V30 401 H 42.4156 0.969809 2.36703 0
M  V30 402 H 42.0596 1.66912 4.7969 0
M  V30 403 H 41.9896 -0.0481649 5.26578 0
M  V30 404 H 44.4806 0.369198 3.76092 0
M  V30 405 H 44.7936 1.37482 7.60473 0
M  V30 406 H 43.1386 1.22958 6.84037 0
M  V30 407 H 46.3296 0.541098 4.64962 0
M  V30 408 H 46.5026 0.999445 6.40246 0
M  V30 409 N 39.9087 -1.5758 0.0250728 0
M  V30 410 C 41.1577 -1.90811 -0.653767 0
M  V30 411 C 41.4707 -0.90273 -1.73523 0
M  V30 412 O 42.6767 -1.12614 -2.47043 0
M  V30 413 C 41.1327 -3.38804 -1.21409 0
M  V30 414 C 40.7407 -4.47692 -0.166126 0
M  V30 415 C 42.4847 -3.81108 -1.86967 0
M  V30 416 C 40.3917 -5.86779 -0.737856 0
M  V30 417 H 39.3217 -0.712063 -0.247956 0
M  V30 418 H 41.9727 -1.83281 0.0897137 0
M  V30 419 H 40.3547 -3.41252 -2.00905 0
M  V30 420 H 41.5287 -4.56797 0.606079 0
M  V30 421 H 39.8437 -4.14565 0.390466 0
M  V30 422 H 42.4407 -4.82375 -2.30692 0
M  V30 423 H 42.7837 -3.15953 -2.71071 0
M  V30 424 H 43.3167 -3.81065 -1.14167 0
M  V30 425 H 40.0557 -6.55468 0.0649577 0
M  V30 426 H 39.5757 -5.81288 -1.47864 0
M  V30 427 H 41.2547 -6.35223 -1.22884 0
M  V30 428 N 41.3868 0.248026 -1.55636 0
M  V30 429 C 42.6348 0.974295 -1.77065 0
M  V30 430 C 42.9558 1.85897 -0.588849 0
M  V30 431 O 42.2258 1.91868 0.395407 0
M  V30 432 H 40.8058 0.362733 -0.653019 0
M  V30 433 H 43.4678 0.266244 -1.93073 0
M  V30 434 H 42.5638 1.59667 -2.68166 0
M  V30 435 N 42.8649 1.48995 0.513639 0
M  V30 436 C 44.1109 1.58076 1.27042 0
M  V30 437 C 44.4439 0.261026 1.92438 0
M  V30 438 O 43.7189 -0.734393 1.80103 0
M  V30 439 C 44.0019 2.73091 2.34719 0
M  V30 440 C 43.8549 4.14821 1.73907 0
M  V30 441 C 45.1739 2.83796 3.36375 0
M  V30 442 H 42.2929 0.575391 0.460536 0
M  V30 443 H 44.9349 1.81232 0.570516 0
M  V30 444 H 43.0849 2.53479 2.94416 0
M  V30 445 H 44.7569 4.45917 1.18135 0
M  V30 446 H 42.9999 4.21058 1.0437 0
M  V30 447 H 43.6709 4.91147 2.51949 0
M  V30 448 H 46.1469 3.01611 2.86653 0
M  V30 449 H 45.0229 3.65971 4.09093 0
M  V30 450 H 45.2839 1.92624 3.9793 0
M  V30 451 N 44.343 -0.763751 1.37857 0
M  V30 452 C 45.571 -1.55293 1.36718 0
M  V30 453 C 45.986 -1.88745 -0.0455434 0
M  V30 454 O 45.343 -1.52039 -1.00947 0
M  V30 455 C 45.394 -2.85831 2.2132 0
M  V30 456 O 45.115 -2.5381 3.57089 0
M  V30 457 C 46.616 -3.80023 2.28249 0
M  V30 458 H 43.836 -0.480841 0.468009 0
M  V30 459 H 46.38 -0.946009 1.81303 0
M  V30 460 H 44.535 -3.42926 1.80223 0
M  V30 461 H 44.949 -3.37459 4.01524 0
M  V30 462 H 46.423 -4.68599 2.91752 0
M  V30 463 H 46.9 -4.1973 1.2932 0
M  V30 464 H 47.506 -3.28855 2.69693 0
M  V30 465 N 45.8211 -1.22559 -0.990812 0
M  V30 466 C 47.0701 -1.04553 -1.72486 0
M  V30 467 C 47.3831 0.419349 -1.91052 0
M  V30 468 O 48.5891 0.719121 -2.61803 0
M  V30 469 C 47.0451 -1.82231 -3.10355 0
M  V30 470 C 46.6531 -3.32981 -2.99713 0
M  V30 471 C 48.3971 -1.7268 -3.87791 0
M  V30 472 C 46.3041 -4.03091 -4.32748 0
M  V30 473 H 45.2341 -0.387614 -0.646739 0
M  V30 474 H 47.8851 -1.46429 -1.10593 0
M  V30 475 H 46.2671 -1.33155 -3.72942 0
M  V30 476 H 47.4411 -3.89466 -2.46278 0
M  V30 477 H 45.7561 -3.43231 -2.35758 0
M  V30 478 H 48.3531 -2.22381 -4.86262 0
M  V30 479 H 48.6961 -0.687607 -4.10582 0
M  V30 480 H 49.2291 -2.1931 -3.31885 0
M  V30 481 H 45.9681 -5.07273 -4.15156 0
M  V30 482 H 45.4881 -3.51394 -4.86089 0
M  V30 483 H 47.1671 -4.08804 -5.01486 0
M  V30 484 N 47.2992 1.18797 -1.03562 0
M  V30 485 C 48.5292 1.92319 -0.754773 0
M  V30 486 C 48.9372 1.7612 0.691248 0
M  V30 487 O 48.2802 1.08491 1.48241 0
M  V30 488 C 48.3422 3.44284 -1.03484 0
M  V30 489 C 48.0062 3.84258 -2.47376 0
M  V30 490 C 49.0032 3.88459 -3.45537 0
M  V30 491 C 46.6882 4.15701 -2.81954 0
M  V30 492 C 48.6822 4.23545 -4.76328 0
M  V30 493 C 46.3692 4.50458 -4.12954 0
M  V30 494 C 47.3672 4.54356 -5.09951 0
M  V30 495 O 47.0552 4.88305 -6.38603 0
M  V30 496 H 46.7872 0.617527 -0.275021 0
M  V30 497 H 49.3412 1.51683 -1.38497 0
M  V30 498 H 47.5712 3.85135 -0.347513 0
M  V30 499 H 49.2602 3.99049 -0.7426 0
M  V30 500 H 50.0262 3.6431 -3.20162 0
M  V30 501 H 45.9052 4.11847 -2.0713 0
M  V30 502 H 49.4492 4.26502 -5.52035 0
M  V30 503 H 45.3462 4.74067 -4.38099 0
M  V30 504 H 46.1142 5.06227 -6.43177 0
M  V30 505 N 48.7773 0.814389 1.34928 0
M  V30 506 C 49.7243 0.22822 2.29669 0
M  V30 507 C 50.6943 -0.642164 1.53184 0
M  V30 508 O 51.8793 -0.585605 1.81591 0
M  V30 509 C 49.0193 -0.61089 3.3965 0
M  V30 510 C 48.1323 0.280792 4.31086 0
M  V30 511 C 47.2673 -0.567067 5.28165 0
M  V30 512 C 46.3063 0.324531 6.11239 0
M  V30 513 N 45.4433 -0.483756 7.00431 0
M  V30 514 H 50.2833 1.04153 2.79206 0
M  V30 515 H 47.8203 0.525133 1.37407 0
M  V30 516 H 49.7783 -1.11263 4.0209 0
M  V30 517 H 48.4083 -1.38939 2.91369 0
M  V30 518 H 47.4603 0.900688 3.69583 0
M  V30 519 H 48.7723 0.966723 4.89342 0
M  V30 520 H 47.9263 -1.13363 5.96015 0
M  V30 521 H 46.6653 -1.28654 4.70425 0
M  V30 522 H 45.6703 0.903298 5.42329 0
M  V30 523 H 46.8953 1.04198 6.71059 0
M  V30 524 H 44.8413 -1.18706 6.45171 0
M  V30 525 H 44.7583 0.143965 7.55863 0
M  V30 526 H 46.0263 -1.03334 7.7262 0
M  V30 527 N 50.2554 -1.46986 0.568584 0
M  V30 528 C 51.4854 -2.0653 0.0539173 0
M  V30 529 C 51.8934 -1.42004 -1.25026 0
M  V30 530 O 51.2364 -0.514541 -1.76347 0
M  V30 531 C 51.2984 -3.58938 -0.200854 0
M  V30 532 C 50.9624 -4.45572 1.01559 0
M  V30 533 C 51.9594 -4.82986 1.92407 0
M  V30 534 C 49.6444 -4.8692 1.23346 0
M  V30 535 C 51.6384 -5.60559 3.03402 0
M  V30 536 C 49.3254 -5.64255 2.34649 0
M  V30 537 C 50.3234 -6.00986 3.24507 0
M  V30 538 O 50.0114 -6.76761 4.33878 0
M  V30 539 H 49.7434 -0.674292 0.0480234 0
M  V30 540 H 52.2974 -1.89812 0.784896 0
M  V30 541 H 50.5274 -3.73911 -0.986279 0
M  V30 542 H 52.2164 -4.0046 -0.662294 0
M  V30 543 H 52.9824 -4.51633 1.76785 0
M  V30 544 H 48.8614 -4.57789 0.543178 0
M  V30 545 H 52.4054 -5.89147 3.73565 0
M  V30 546 H 48.3024 -5.95021 2.5024 0
M  V30 547 H 49.0704 -6.95168 4.32068 0
M  V30 548 N 51.7335 -0.305618 -1.54608 0
M  V30 549 C 53.0105 0.355652 -1.92339 0
M  V30 550 C 53.3905 1.71324 -1.23335 0
M  V30 551 O 52.7385 2.25473 -0.370702 0
M  V30 552 C 52.9485 0.46572 -3.45879 0
M  V30 553 C 54.2965 0.734426 -4.182 0
M  V30 554 O 55.3205 0.54935 -3.51938 0
M  V30 555 O 54.1795 1.09024 -5.35515 0
M  V30 556 H 51.2735 0.199666 -0.802535 0
M  V30 557 H 53.8195 -0.354017 -1.65966 0
M  V30 558 H 52.5915 -0.488461 -3.88239 0
M  V30 559 H 52.2145 1.22367 -3.78301 0
M  V30 560 N 53.2116 1.57565 -0.0334293 0
M  V30 561 C 54.4886 1.83282 0.683163 0
M  V30 562 C 54.8686 0.91823 1.90084 0
M  V30 563 O 54.2166 -0.025113 2.28486 0
M  V30 564 C 54.4266 3.32599 1.0573 0
M  V30 565 C 55.7746 3.99179 1.44711 0
M  V30 566 O 56.7986 3.3712 1.15015 0
M  V30 567 O 55.6576 5.08565 2.0006 0
M  V30 568 H 52.7516 0.755869 0.335546 0
M  V30 569 H 55.2976 1.69589 -0.0614402 0
M  V30 570 H 54.0696 3.90834 0.190828 0
M  V30 571 H 53.6926 3.51415 1.85993 0
M  V30 572 N 54.6897 -0.239769 1.55765 0
M  V30 573 C 55.6377 -1.31668 1.91745 0
M  V30 574 C 56.6317 -1.49462 0.797338 0
M  V30 575 O 57.8377 -1.50852 0.982021 0
M  V30 576 H 54.2127 -0.441048 0.609082 0
M  V30 577 H 56.1837 -0.985923 2.81642 0
M  V30 578 C 54.9327 -2.66368 2.2348 0
M  V30 579 H 54.2557 -2.53478 3.09175 0
M  V30 580 H 55.6957 -3.40578 2.52553 0
M  V30 581 C 54.1547 -3.20002 1.05359 0
M  V30 582 O 54.6847 -4.00538 0.305261 0
M  V30 583 N 52.8907 -2.78126 0.842292 0
M  V30 584 H 52.4377 -2.12742 1.45253 0
M  V30 585 H 52.3957 -3.14354 0.053652 0
M  V30 586 N 56.1678 -1.49265 -0.50573 0
M  V30 587 C 57.4148 -1.58513 -1.26015 0
M  V30 588 C 57.7428 -0.26972 -1.92621 0
M  V30 589 O 56.9978 0.741997 -1.81088 0
M  V30 590 C 57.2968 -2.69008 -2.35308 0
M  V30 591 C 56.9628 -4.10662 -1.86192 0
M  V30 592 C 55.6248 -4.49212 -1.72516 0
M  V30 593 C 57.9768 -4.99336 -1.49375 0
M  V30 594 C 55.3048 -5.74214 -1.20394 0
M  V30 595 C 57.6568 -6.24852 -0.987072 0
M  V30 596 C 56.3208 -6.62236 -0.836669 0
M  V30 597 H 55.5908 -0.580041 -0.461122 0
M  V30 598 H 58.2378 -1.83078 -0.561665 0
M  V30 599 H 56.5428 -2.38396 -3.10926 0
M  V30 600 H 58.2398 -2.73373 -2.93374 0
M  V30 601 H 54.8298 -3.8023 -1.97795 0
M  V30 602 H 59.0138 -4.70212 -1.5879 0
M  V30 603 H 54.2698 -6.01883 -1.07458 0
M  V30 604 H 58.4438 -6.92944 -0.692983 0
M  V30 605 H 56.0708 -7.58979 -0.430607 0
M  V30 606 N 57.6459 0.756429 -1.3826 0
M  V30 607 C 58.5789 1.87802 -1.29637 0
M  V30 608 C 59.5569 1.61667 -0.173939 0
M  V30 609 O 60.7409 1.85208 -0.350775 0
M  V30 610 C 57.8679 3.23354 -1.00797 0
M  V30 611 C 56.9139 3.68379 -2.14939 0
M  V30 612 S 57.7469 3.8025 -3.77054 0
M  V30 613 C 58.9029 5.18626 -3.50396 0
M  V30 614 H 59.1359 1.94829 -2.24564 0
M  V30 615 H 56.6689 0.919117 -1.24063 0
M  V30 616 H 58.6269 4.01637 -0.848413 0
M  V30 617 H 57.2879 3.14008 -0.0759369 0
M  V30 618 H 56.4809 4.66693 -1.90299 0
M  V30 619 H 56.0829 2.97242 -2.26988 0
M  V30 620 H 58.3749 6.04289 -3.06334 0
M  V30 621 H 59.3179 5.48286 -4.48094 0
M  V30 622 H 59.7259 4.87289 -2.84973 0
M  V30 623 N 59.124 1.23083 0.984299 0
M  V30 624 C 60.349 1.088 1.76571 0
M  V30 625 C 60.774 -0.356657 1.84688 0
M  V30 626 O 60.132 -1.25788 1.30565 0
M  V30 627 C 60.18 1.71371 3.17277 0
M  V30 628 O 59.284 0.973213 4.00752 0
M  V30 629 H 58.625 0.381599 0.543395 0
M  V30 630 H 61.155 1.63057 1.23587 0
M  V30 631 H 61.165 1.76449 3.67872 0
M  V30 632 H 59.84 2.76493 3.10684 0
M  V30 633 H 58.417 0.999078 3.59267 0
M  V30 634 N 60.6021 -1.18246 1.0419 0
M  V30 635 C 61.8481 -1.88536 0.747122 0
M  V30 636 C 62.1811 -1.80223 -0.723409 0
M  V30 637 O 61.4561 -1.20337 -1.52804 0
M  V30 638 C 61.7391 -3.38968 1.21544 0
M  V30 639 C 61.5921 -3.56084 2.74816 0
M  V30 640 C 62.9111 -4.32648 0.806482 0
M  V30 641 H 60.0301 -0.684619 0.272883 0
M  V30 642 H 62.6721 -1.39113 1.29413 0
M  V30 643 H 60.8221 -3.8119 0.750081 0
M  V30 644 H 62.4941 -3.22946 3.29399 0
M  V30 645 H 60.7371 -2.98699 3.14582 0
M  V30 646 H 61.4081 -4.61639 3.02644 0
M  V30 647 H 63.8841 -3.98211 1.20695 0
M  V30 648 H 62.7601 -5.36462 1.1619 0
M  V30 649 H 63.0211 -4.41146 -0.29029 0
M  V30 650 N 62.0802 -0.821533 -1.34494 0
M  V30 651 C 63.3262 -0.409552 -1.98622 0
M  V30 652 C 63.6592 1.0244 -1.64984 0
M  V30 653 O 62.9342 1.71325 -0.920758 0
M  V30 654 C 63.2172 -0.610458 -3.54888 0
M  V30 655 C 63.0702 -2.09043 -3.98273 0
M  V30 656 C 64.3892 -0.0455379 -4.40076 0
M  V30 657 H 61.5082 -0.15028 -0.721516 0
M  V30 658 H 64.1502 -1.03384 -1.59411 0
M  V30 659 H 62.3002 -0.079044 -3.8842 0
M  V30 660 H 63.9722 -2.68537 -3.75081 0
M  V30 661 H 62.2152 -2.58139 -3.48635 0
M  V30 662 H 62.8862 -2.18182 -5.07051 0
M  V30 663 H 65.3622 -0.499557 -4.1309 0
M  V30 664 H 64.2382 -0.215922 -5.48475 0
M  V30 665 H 64.4992 1.04939 -4.29465 0
M  V30 666 N 63.5583 1.46682 -0.576371 0
M  V30 667 C 64.9743 1.57822 -0.237562 0
M  V30 668 C 65.1743 1.57237 1.26011 0
M  V30 669 O 64.2303 1.48596 2.04146 0
M  V30 670 C 65.5433 2.87499 -0.881168 0
M  V30 671 C 67.0913 3.01119 -0.85417 0
M  V30 672 C 67.5663 4.33524 -1.4772 0
M  V30 673 N 69.0573 4.40207 -1.44125 0
M  V30 674 C 69.7923 5.4126 -1.89276 0
M  V30 675 N 69.2883 6.49021 -2.42371 0
M  V30 676 N 71.0813 5.32422 -1.80231 0
M  V30 677 H 63.2323 1.45306 -1.54919 0
M  V30 678 H 65.4953 0.692733 -0.647167 0
M  V30 679 H 65.2013 2.9372 -1.93447 0
M  V30 680 H 65.0753 3.75224 -0.385592 0
M  V30 681 H 67.4623 2.94485 0.190491 0
M  V30 682 H 67.5433 2.14887 -1.3877 0
M  V30 683 H 67.1873 4.40916 -2.52103 0
M  V30 684 H 67.1173 5.1852 -0.918947 0
M  V30 685 H 69.6083 3.62931 -1.05307 0
M  V30 686 H 69.9213 7.2233 -2.74698 0
M  V30 687 H 68.2663 6.49858 -2.46393 0
M  V30 688 H 71.4573 4.47137 -1.38514 0
M  V30 689 H 71.6303 6.11034 -2.15735 0
M  V30 690 N 65.0364 0.313813 1.54444 0
M  V30 691 C 65.9834 -0.55655 2.23989 0
M  V30 692 C 66.9534 -1.11943 1.22711 0
M  V30 693 O 68.1384 -1.16158 1.51367 0
M  V30 694 C 65.2784 -1.71635 2.99392 0
M  V30 695 C 64.3914 -1.18364 4.15468 0
M  V30 696 C 63.5264 -2.30834 4.78424 0
M  V30 697 C 62.5654 -1.74762 5.86622 0
M  V30 698 N 61.7024 -2.80855 6.43479 0
M  V30 699 H 66.5424 0.0430893 2.97969 0
M  V30 700 H 64.0794 0.0330359 1.47063 0
M  V30 701 H 66.0374 -2.39868 3.41349 0
M  V30 702 H 64.6674 -2.28742 2.27765 0
M  V30 703 H 63.7194 -0.393163 3.78363 0
M  V30 704 H 65.0314 -0.733262 4.93381 0
M  V30 705 H 64.1854 -3.0699 5.23299 0
M  V30 706 H 62.9244 -2.79204 3.99871 0
M  V30 707 H 61.9294 -0.970995 5.41158 0
M  V30 708 H 63.1544 -1.2728 6.67066 0
M  V30 709 H 61.1004 -3.28535 5.67804 0
M  V30 710 H 61.0174 -2.40351 7.16776 0
M  V30 711 H 62.2854 -3.5687 6.93011 0
M  V30 712 N 66.5145 -1.57545 0.0417849 0
M  V30 713 C 67.4775 -2.09885 -0.92093 0
M  V30 714 C 68.4775 -1.01648 -1.24596 0
M  V30 715 O 69.6675 -1.27759 -1.1842 0
M  V30 716 C 66.7995 -2.57527 -2.23367 0
M  V30 717 H 67.9925 -2.96236 -0.467382 0
M  V30 718 H 65.5455 -1.5493 -0.206467 0
M  V30 719 H 66.2805 -1.74542 -2.73323 0
M  V30 720 H 66.0655 -3.36613 -2.01083 0
M  V30 721 H 67.5555 -2.98201 -2.92346 0
M  V30 722 N 67.9926 0.231505 -1.5589 0
M  V30 723 C 69.2416 0.955346 -1.7764 0
M  V30 724 C 69.5546 1.85893 -0.608546 0
M  V30 725 O 70.7606 2.62067 -0.70943 0
M  V30 726 C 69.2166 1.74886 -3.14552 0
M  V30 727 C 68.8246 0.891915 -4.39032 0
M  V30 728 C 70.5686 2.46452 -3.45633 0
M  V30 729 C 68.4756 1.68221 -5.66971 0
M  V30 730 H 67.4056 0.360446 -0.662265 0
M  V30 731 H 70.0566 0.209516 -1.823 0
M  V30 732 H 68.4386 2.53723 -3.04041 0
M  V30 733 H 69.6126 0.144793 -4.60572 0
M  V30 734 H 67.9276 0.288863 -4.15397 0
M  V30 735 H 70.5246 3.06061 -4.38441 0
M  V30 736 H 70.8676 3.18841 -2.67668 0
M  V30 737 H 71.4006 1.74613 -3.57428 0
M  V30 738 H 68.1396 1.00178 -6.478 0
M  V30 739 H 67.6596 2.4042 -5.49507 0
M  V30 740 H 69.3386 2.24544 -6.06786 0
M  V30 741 N 69.4707 1.49531 0.497807 0
M  V30 742 C 70.3807 1.69176 1.62532 0
M  V30 743 C 71.3967 0.5744 1.64246 0
M  V30 744 O 72.5727 0.849497 1.82608 0
M  V30 745 C 69.6377 1.75695 2.98885 0
M  V30 746 C 68.6987 2.9929 3.07773 0
M  V30 747 C 67.9317 3.05488 4.37622 0
M  V30 748 O 68.1547 2.19192 5.26603 0
M  V30 749 O 67.0887 3.9798 4.51548 0
M  V30 750 H 70.9147 2.647 1.48887 0
M  V30 751 H 68.4997 1.3331 0.674441 0
M  V30 752 H 70.3817 1.82317 3.79919 0
M  V30 753 H 69.0567 0.8335 3.12785 0
M  V30 754 H 67.9637 2.98183 2.25915 0
M  V30 755 H 69.2967 3.91125 2.98801 0
M  V30 756 N 70.9488 -0.749086 1.3866 0
M  V30 757 C 71.8958 -1.86291 1.36251 0
M  V30 758 C 72.8658 -1.64578 0.224347 0
M  V30 759 O 74.0508 -1.86181 0.417279 0
M  V30 760 C 71.1908 -3.23644 1.19786 0
M  V30 761 C 70.3038 -3.57158 2.43027 0
M  V30 762 C 69.4388 -4.83838 2.19258 0
M  V30 763 C 68.4778 -5.10152 3.38247 0
M  V30 764 N 67.6148 -6.28029 3.13884 0
M  V30 765 H 72.4548 -1.87685 2.3147 0
M  V30 766 H 69.9918 -0.917287 1.14997 0
M  V30 767 H 71.9498 -4.0291 1.08254 0
M  V30 768 H 70.5798 -3.21566 0.282031 0
M  V30 769 H 69.6318 -2.72701 2.65214 0
M  V30 770 H 70.9438 -3.7253 3.31697 0
M  V30 771 H 70.0978 -5.71057 2.04888 0
M  V30 772 H 68.8368 -4.70614 1.2796 0
M  V30 773 H 67.8418 -4.21401 3.53131 0
M  V30 774 H 69.0668 -5.25271 4.30427 0
M  V30 775 H 67.0128 -6.1612 2.25238 0
M  V30 776 H 66.9298 -6.43922 3.96106 0
M  V30 777 H 68.1978 -7.18124 3.03179 0
M  V30 778 N 72.4269 -1.23603 -0.977757 0
M  V30 779 C 73.7039 -0.977897 -1.69401 0
M  V30 780 C 74.0839 0.502738 -2.05026 0
M  V30 781 O 73.4319 1.47459 -1.74551 0
M  V30 782 C 73.6419 -1.89077 -2.93345 0
M  V30 783 C 74.9899 -2.15579 -3.65802 0
M  V30 784 O 76.0139 -1.86648 -3.03383 0
M  V30 785 O 74.8729 -2.64658 -4.78141 0
M  V30 786 H 71.9669 -0.369025 -0.740101 0
M  V30 787 H 74.5129 -1.34657 -1.03274 0
M  V30 788 H 73.2849 -2.89158 -2.63634 0
M  V30 789 H 72.9079 -1.52463 -3.67207 0
M  V30 790 N 73.905 1.17692 -1.04816 0
M  V30 791 C 75.153 1.87488 -0.754497 0
M  V30 792 C 75.474 1.81205 0.720407 0
M  V30 793 O 74.744 1.23544 1.52032 0
M  V30 794 H 73.324 0.694101 -0.276102 0
M  V30 795 H 75.986 1.42793 -1.32651 0
M  V30 796 H 75.082 2.93328 -1.06606 0
M  V30 797 N 75.3831 0.828654 1.34056 0
M  V30 798 C 76.3301 0.252567 2.29414 0
M  V30 799 C 77.3001 -0.62588 1.53857 0
M  V30 800 O 78.4851 -0.566312 1.82202 0
M  V30 801 C 75.6251 -0.574831 3.40279 0
M  V30 802 C 74.7381 0.326499 4.30764 0
M  V30 803 C 73.8731 -0.511016 5.28736 0
M  V30 804 C 72.9121 0.389342 6.1086 0
M  V30 805 N 72.0491 -0.409439 7.00905 0
M  V30 806 H 76.8891 1.07108 2.78086 0
M  V30 807 H 74.4261 0.539677 1.36843 0
M  V30 808 H 76.3841 -1.06992 4.03248 0
M  V30 809 H 75.0141 -1.35841 2.92826 0
M  V30 810 H 74.0661 0.939837 3.68607 0
M  V30 811 H 75.3781 1.01857 4.88289 0
M  V30 812 H 74.5321 -1.07035 5.97184 0
M  V30 813 H 73.2711 -1.23657 4.71763 0
M  V30 814 H 72.2761 0.960769 5.4134 0
M  V30 815 H 73.5011 1.1131 6.69916 0
M  V30 816 H 71.4471 -1.11856 6.46393 0
M  V30 817 H 71.3641 0.224126 7.55668 0
M  V30 818 H 72.6321 -0.951336 7.73673 0
M  V30 819 N 76.8612 -1.46375 0.584142 0
M  V30 820 C 78.0862 -2.07268 0.0740405 0
M  V30 821 C 78.5112 -1.42979 -1.22223 0
M  V30 822 O 77.8692 -0.514092 -1.73859 0
M  V30 823 C 77.9172 -3.60518 -0.0767769 0
M  V30 824 O 77.0212 -3.96533 -1.13292 0
M  V30 825 H 76.3622 -0.660961 0.0634524 0
M  V30 826 H 78.8922 -1.87991 0.807492 0
M  V30 827 H 78.9022 -4.07021 -0.282489 0
M  V30 828 H 77.5772 -4.06702 0.86986 0
M  V30 829 H 76.1542 -3.61738 -0.905553 0
M  V30 830 N 78.3393 -0.321999 -1.54275 0
M  V30 831 C 79.3023 0.531975 -2.22941 0
M  V30 832 C 80.3023 1.04478 -1.22234 0
M  V30 833 O 81.4923 0.937452 -1.46825 0
M  V30 834 C 78.6243 1.73874 -2.93224 0
M  V30 835 H 79.8173 -0.0682612 -2.99822 0
M  V30 836 H 77.3703 -0.0730644 -1.56129 0
M  V30 837 H 78.1053 2.37825 -2.20476 0
M  V30 838 H 77.8903 1.37847 -3.6707 0
M  V30 839 H 79.3803 2.34496 -3.45545 0
M  V30 840 N 79.8174 1.5752 -0.0501392 0
M  V30 841 C 81.2284 1.80271 0.485705 0
M  V30 842 C 81.5794 0.96228 1.70981 0
M  V30 843 O 80.7044 0.178578 2.15662 0
M  V30 844 C 81.2994 3.26957 0.887938 0
M  V30 845 C 79.8584 3.5063 1.36877 0
M  V30 846 C 79.0054 2.75165 0.343468 0
M  V30 847 H 81.9564 1.56281 -0.276028 0
M  V30 848 H 81.9774 3.37821 1.75093 0
M  V30 849 H 81.4894 3.881 -0.0031809 0
M  V30 850 H 79.5904 2.94766 2.27911 0
M  V30 851 H 79.7034 4.59343 1.36164 0
M  V30 852 H 78.0674 2.4127 0.816128 0
M  V30 853 H 78.8504 3.39034 -0.539548 0
M  V30 854 N 81.2955 -0.223234 1.56011 0
M  V30 855 C 82.5725 -0.972108 1.69733 0
M  V30 856 C 82.9525 -2.02485 0.59691 0
M  V30 857 O 82.3005 -2.25037 -0.396324 0
M  V30 858 C 82.5105 -1.58407 3.10979 0
M  V30 859 C 83.8585 -2.07696 3.70334 0
M  V30 860 O 84.8825 -1.68304 3.1393 0
M  V30 861 O 83.7415 -2.80096 4.69264 0
M  V30 862 H 80.8355 -0.453993 0.691245 0
M  V30 863 H 83.3815 -0.215149 1.68331 0
M  V30 864 H 82.1535 -0.823831 3.82529 0
M  V30 865 H 81.7765 -2.40661 3.16493 0
M  V30 866 N 82.7736 -1.49793 -0.48987 0
M  V30 867 C 84.0196 -1.60078 -1.24511 0
M  V30 868 C 84.3526 -0.291608 -1.91998 0
M  V30 869 O 83.6276 0.705647 -1.81248 0
M  V30 870 C 83.9106 -2.76791 -2.30345 0
M  V30 871 C 83.7636 -4.17535 -1.67286 0
M  V30 872 C 85.0826 -2.89111 -3.31817 0
M  V30 873 H 82.2016 -0.582645 -0.451324 0
M  V30 874 H 84.8436 -1.82117 -0.541612 0
M  V30 875 H 82.9936 -2.5813 -2.90346 0
M  V30 876 H 84.6656 -4.4774 -1.11026 0
M  V30 877 H 82.9086 -4.22665 -0.976577 0
M  V30 878 H 83.5796 -4.95094 -2.44103 0
M  V30 879 H 86.0556 -3.06133 -2.81819 0
M  V30 880 H 84.9316 -3.72433 -4.03219 0
M  V30 881 H 85.1926 -1.9893 -3.94815 0
M  V30 882 N 84.2517 0.741722 -1.39055 0
M  V30 883 C 85.1837 1.8657 -1.33133 0
M  V30 884 C 86.1967 1.61001 -0.241329 0
M  V30 885 O 87.3857 1.7136 -0.499784 0
M  V30 886 C 84.4857 3.22457 -1.04283 0
M  V30 887 C 83.6587 3.75435 -2.24427 0
M  V30 888 C 82.7177 4.89867 -1.92138 0
M  V30 889 O 81.7437 5.03879 -2.64754 0
M  V30 890 N 82.9457 5.73738 -0.88347 0
M  V30 891 H 85.7107 1.92156 -2.29991 0
M  V30 892 H 83.2717 0.922172 -1.3307 0
M  V30 893 H 85.2637 3.9657 -0.807128 0
M  V30 894 H 83.8337 3.12181 -0.161807 0
M  V30 895 H 83.0537 2.92751 -2.6399 0
M  V30 896 H 84.3417 4.07563 -3.04581 0
M  V30 897 H 83.7397 5.64999 -0.281517 0
M  V30 898 H 82.2967 6.47947 -0.707662 0
M  V30 899 N 85.7298 1.2412 0.971189 0
M  V30 900 C 86.6598 1.05508 2.08304 0
M  V30 901 C 87.6408 -0.0308864 1.70072 0
M  V30 902 O 88.8258 0.135521 1.93727 0
M  V30 903 C 85.9558 0.655365 3.4106 0
M  V30 904 C 84.9098 1.68971 3.93234 0
M  V30 905 C 84.2358 1.14516 5.22293 0
M  V30 906 C 85.5358 3.08487 4.21465 0
M  V30 907 H 87.2298 1.98507 2.24132 0
M  V30 908 H 84.7758 0.955821 1.07704 0
M  V30 909 H 86.7288 0.51217 4.18276 0
M  V30 910 H 85.4528 -0.31032 3.25122 0
M  V30 911 H 84.1118 1.82106 3.18171 0
M  V30 912 H 83.7598 0.170189 5.02712 0
M  V30 913 H 83.4598 1.83635 5.58168 0
M  V30 914 H 84.9838 1.01401 6.02121 0
M  V30 915 H 86.3978 2.98601 4.89398 0
M  V30 916 H 84.7948 3.74926 4.68562 0
M  V30 917 H 85.8648 3.56787 3.28376 0
M  V30 918 N 87.2079 -1.17134 1.05439 0
M  V30 919 C 88.1379 -2.2342 0.678649 0
M  V30 920 C 89.1189 -1.66971 -0.32476 0
M  V30 921 O 90.3039 -1.93149 -0.201802 0
M  V30 922 C 87.4339 -3.47256 0.0552099 0
M  V30 923 C 86.3879 -4.16543 0.98365 0
M  V30 924 C 85.7139 -5.34231 0.223961 0
M  V30 925 C 87.0139 -4.68495 2.3089 0
M  V30 926 H 88.7079 -2.55105 1.56722 0
M  V30 927 H 86.2539 -1.2262 0.754998 0
M  V30 928 H 88.2069 -4.20828 -0.21946 0
M  V30 929 H 86.9309 -3.14846 -0.868319 0
M  V30 930 H 85.5899 -3.44887 1.24293 0
M  V30 931 H 85.2379 -4.98071 -0.702412 0
M  V30 932 H 84.9379 -5.81527 0.842627 0
M  V30 933 H 86.4619 -6.10585 -0.0433671 0
M  V30 934 H 87.8759 -5.33691 2.09396 0
M  V30 935 H 86.2729 -5.26379 2.88176 0
M  V30 936 H 87.3429 -3.85169 2.94572 0
M  V30 937 N 88.686 -0.835752 -1.33615 0
M  V30 938 C 89.619 -0.211815 -2.27215 0
M  V30 939 C 90.597 0.639249 -1.49507 0
M  V30 940 O 91.781 0.600193 -1.78689 0
M  V30 941 C 88.908 0.702893 -3.31326 0
M  V30 942 C 87.954 -0.0723049 -4.26439 0
M  V30 943 S 88.787 -1.42811 -5.16106 0
M  V30 944 C 89.943 -0.518613 -6.23748 0
M  V30 945 H 90.176 -1.00533 -2.79786 0
M  V30 946 H 87.709 -0.632336 -1.40858 0
M  V30 947 H 89.667 1.22505 -3.91794 0
M  V30 948 H 88.328 1.47004 -2.77576 0
M  V30 949 H 87.521 0.62359 -5.00127 0
M  V30 950 H 87.123 -0.525424 -3.70291 0
M  V30 951 H 89.415 0.284778 -6.76901 0
M  V30 952 H 90.358 -1.22556 -6.97413 0
M  V30 953 H 90.766 -0.101344 -5.64409 0
M  V30 954 N 90.1641 1.46063 -0.591896 0
M  V30 955 C 91.1121 2.32124 0.148739 0
M  V30 956 C 92.1061 1.45035 0.875286 0
M  V30 957 O 93.3121 1.61609 0.792632 0
M  V30 958 H 89.6871 0.749024 0.066832 0
M  V30 959 H 91.6581 2.92392 -0.595783 0
M  V30 960 C 90.4071 3.28373 1.1431 0
M  V30 961 H 89.7301 3.95371 0.59346 0
M  V30 962 H 91.1701 3.91352 1.63155 0
M  V30 963 C 89.6291 2.54393 2.20875 0
M  V30 964 O 90.1591 2.31373 3.28374 0
M  V30 965 N 88.3651 2.14797 1.95731 0
M  V30 966 H 87.9121 2.33719 1.08319 0
M  V30 967 H 87.8701 1.65619 2.67241 0
M  V30 968 N 91.6422 0.330177 1.54103 0
M  V30 969 C 92.9192 -0.325007 1.92881 0
M  V30 970 C 93.2992 -1.6934 1.26045 0
M  V30 971 O 92.6472 -2.24855 0.406526 0
M  V30 972 C 92.8572 -0.410634 3.46576 0
M  V30 973 C 94.2052 -0.667801 4.19316 0
M  V30 974 O 95.2292 -0.49329 3.52768 0
M  V30 975 O 94.0882 -1.00491 5.37181 0
M  V30 976 H 91.1822 -0.186873 0.80561 0
M  V30 977 H 93.7282 0.380376 1.65382 0
M  V30 978 H 92.5002 0.550164 3.87413 0
M  V30 979 H 92.1232 -1.16333 3.802 0
M  V30 980 N 93.1203 -1.57491 0.0584922 0
M  V30 981 C 94.3453 -1.97711 -0.62652 0
M  V30 982 C 94.7703 -0.936132 -1.63151 0
M  V30 983 O 94.1283 0.099811 -1.81025 0
M  V30 984 C 94.1763 -3.36989 -1.28338 0
M  V30 985 O 93.2803 -3.35433 -2.39913 0
M  V30 986 H 92.6213 -0.643868 -0.162266 0
M  V30 987 H 95.1513 -2.04193 0.129064 0
M  V30 988 H 95.1613 -3.73879 -1.63335 0
M  V30 989 H 93.8363 -4.12289 -0.546889 0
M  V30 990 H 92.4133 -3.10298 -2.06809 0
M  V30 991 N 94.5984 0.214957 -1.56127 0
M  V30 992 C 95.5304 1.29004 -1.89448 0
M  V30 993 C 96.5434 1.42716 -0.783326 0
M  V30 994 O 97.7324 1.43496 -1.06166 0
M  V30 995 C 94.8324 2.66482 -2.09381 0
M  V30 996 C 94.0054 2.74633 -3.40434 0
M  V30 997 C 93.0644 3.9317 -3.49719 0
M  V30 998 O 92.0904 3.812 -4.227 0
M  V30 999 N 93.2924 5.07765 -2.81346 0
M  V30 1000 H 96.0574 1.00743 -2.82261 0
M  V30 1001 H 93.6184 0.40497 -1.56753 0
M  V30 1002 H 95.6104 3.44173 -2.12901 0
M  V30 1003 H 94.1804 2.87314 -1.23163 0
M  V30 1004 H 93.4004 1.83368 -3.48955 0
M  V30 1005 H 94.6884 2.77054 -4.26754 0
M  V30 1006 H 94.0864 5.20386 -2.21843 0
M  V30 1007 H 92.6434 5.83474 -2.90519 0
M  V30 1008 N 96.0765 1.50051 0.48192 0
M  V30 1009 C 97.0245 1.68635 1.60203 0
M  V30 1010 C 98.0185 0.552184 1.60148 0
M  V30 1011 O 99.2245 0.732377 1.64427 0
M  V30 1012 H 95.5995 0.532081 0.531407 0
M  V30 1013 H 97.5705 2.62616 1.41688 0
M  V30 1014 C 96.3195 1.78775 2.9822 0
M  V30 1015 H 95.6425 2.6543 2.98976 0
M  V30 1016 H 97.0825 1.95806 3.7608 0
M  V30 1017 C 95.5415 0.536849 3.32595 0
M  V30 1018 O 96.0715 -0.328897 4.00351 0
M  V30 1019 N 94.2775 0.394091 2.87915 0
M  V30 1020 H 93.8245 1.09962 2.32951 0
M  V30 1021 H 93.7825 -0.441737 3.11281 0
M  V30 1022 N 97.5546 -0.734337 1.39446 0
M  V30 1023 C 98.8316 -1.48579 1.27215 0
M  V30 1024 C 99.2116 -2.1077 -0.117968 0
M  V30 1025 O 98.5596 -1.98646 -1.12924 0
M  V30 1026 C 98.7696 -2.53667 2.39696 0
M  V30 1027 C 100.118 -3.20031 2.79044 0
M  V30 1028 O 101.142 -2.6398 2.39151 0
M  V30 1029 O 100.001 -4.21455 3.47905 0
M  V30 1030 H 97.0946 -0.659816 0.49857 0
M  V30 1031 H 99.6406 -0.768106 1.51322 0
M  V30 1032 H 98.4126 -2.06096 3.32626 0
M  V30 1033 H 98.0356 -3.32994 2.17258 0
M  V30 1034 N 99.0327 -1.24633 -0.964593 0
M  V30 1035 C 99.9647 -0.999302 -2.06268 0
M  V30 1036 C 100.978 0.0323226 -1.62768 0
M  V30 1037 O 102.167 -0.205079 -1.77318 0
M  V30 1038 C 99.2667 -0.486816 -3.35385 0
M  V30 1039 C 98.4397 -1.5823 -4.07777 0
M  V30 1040 C 97.4987 -1.07191 -5.15166 0
M  V30 1041 O 96.5247 -1.76426 -5.41168 0
M  V30 1042 N 97.7267 0.0920373 -5.80427 0
M  V30 1043 H 100.492 -1.94477 -2.28033 0
M  V30 1044 H 98.0527 -1.15704 -1.13244 0
M  V30 1045 H 100.045 -0.130066 -4.04491 0
M  V30 1046 H 98.6147 0.364459 -3.10468 0
M  V30 1047 H 97.8347 -2.11109 -3.32906 0
M  V30 1048 H 99.1227 -2.31854 -4.52903 0
M  V30 1049 H 98.5207 0.670784 -5.61709 0
M  V30 1050 H 97.0777 0.389905 -6.50633 0
M  V30 1051 N 100.511 1.16574 -1.06058 0
M  V30 1052 C 101.736 1.91493 -0.796562 0
M  V30 1053 C 102.161 1.76773 0.642868 0
M  V30 1054 O 101.519 1.09142 1.44768 0
M  V30 1055 C 101.567 3.40293 -1.19303 0
M  V30 1056 O 100.671 4.11074 -0.330394 0
M  V30 1057 H 100.012 0.596678 -0.291326 0
M  V30 1058 H 102.542 1.47708 -1.41575 0
M  V30 1059 H 102.552 3.91057 -1.16356 0
M  V30 1060 H 101.227 3.50326 -2.24153 0
M  V30 1061 H 99.8038 3.70513 -0.421225 0
M  V30 1062 N 101.989 0.842826 1.3317 0
M  V30 1063 C 102.936 0.276885 2.29133 0
M  V30 1064 C 103.906 -0.609527 1.54512 0
M  V30 1065 O 105.091 -0.546955 1.82792 0
M  V30 1066 C 102.231 -0.538707 3.40869 0
M  V30 1067 C 101.344 0.372169 4.30394 0
M  V30 1068 C 100.479 -0.454908 5.29249 0
M  V30 1069 C 99.5179 0.45411 6.10413 0
M  V30 1070 N 98.6549 -0.335075 7.013 0
M  V30 1071 H 103.495 1.10052 2.76934 0
M  V30 1072 H 101.032 0.554161 1.36262 0
M  V30 1073 H 102.99 -1.02709 4.0436 0
M  V30 1074 H 101.62 -1.32727 2.9425 0
M  V30 1075 H 100.672 0.97888 3.6759 0
M  V30 1076 H 101.984 1.0703 4.87182 0
M  V30 1077 H 101.138 -1.00695 5.98285 0
M  V30 1078 H 99.8769 -1.18646 4.73048 0
M  V30 1079 H 98.8819 1.01813 5.40291 0
M  V30 1080 H 100.107 1.18409 6.68697 0
M  V30 1081 H 98.0529 -1.04994 6.47543 0
M  V30 1082 H 97.9699 0.304262 7.55387 0
M  V30 1083 H 99.2379 -0.869224 7.74638 0
M  V30 1084 N 103.467 -1.45747 0.599634 0
M  V30 1085 C 104.399 -2.28628 -0.161879 0
M  V30 1086 C 105.412 -1.39494 -0.839367 0
M  V30 1087 O 106.601 -1.63941 -0.706089 0
M  V30 1088 C 103.701 -3.15014 -1.24976 0
M  V30 1089 C 102.874 -4.32378 -0.660935 0
M  V30 1090 C 101.933 -5.00033 -1.63869 0
M  V30 1091 O 100.959 -5.57085 -1.1681 0
M  V30 1092 N 102.161 -4.98589 -2.97303 0
M  V30 1093 H 104.926 -2.94624 0.549265 0
M  V30 1094 H 102.487 -1.55847 0.438565 0
M  V30 1095 H 104.479 -3.5714 -1.9035 0
M  V30 1096 H 103.049 -2.5098 -1.86354 0
M  V30 1097 H 102.269 -3.9383 0.170688 0
M  V30 1098 H 103.557 -5.08197 -0.247619 0
M  V30 1099 H 102.955 -4.53514 -3.38145 0
M  V30 1100 H 101.512 -5.44603 -3.58121 0
M  V30 1101 N 104.945 -0.338344 -1.53925 0
M  V30 1102 C 105.893 0.536231 -2.26335 0
M  V30 1103 C 106.887 1.1063 -1.28286 0
M  V30 1104 O 108.093 1.05264 -1.46012 0
M  V30 1105 H 104.468 0.191602 -0.727181 0
M  V30 1106 H 106.439 -0.0965747 -2.98244 0
M  V30 1107 C 105.188 1.67803 -3.04528 0
M  V30 1108 H 104.511 1.24864 -3.79801 0
M  V30 1109 H 105.951 2.26526 -3.58416 0
M  V30 1110 C 104.41 2.60439 -2.13712 0
M  V30 1111 O 104.94 3.6255 -1.72975 0
M  V30 1112 N 103.146 2.29006 -1.78898 0
M  V30 1113 H 102.693 1.46011 -2.12223 0
M  V30 1114 H 102.651 2.91248 -1.18416 0
M  V30 1115 N 106.423 1.57458 -0.0668435 0
M  V30 1116 C 107.7 1.8469 0.644132 0
M  V30 1117 C 108.08 0.958343 1.88093 0
M  V30 1118 O 107.428 0.0233579 2.28488 0
M  V30 1119 C 107.638 3.34767 0.986509 0
M  V30 1120 C 108.986 4.02159 1.36212 0
M  V30 1121 O 110.01 3.39484 1.07839 0
M  V30 1122 O 108.869 5.12694 1.89227 0
M  V30 1123 H 105.963 0.762816 0.319437 0
M  V30 1124 H 108.509 1.6942 -0.0973986 0
M  V30 1125 H 107.281 3.91151 0.107883 0
M  V30 1126 H 106.904 3.55281 1.78497 0
M  V30 1127 N 107.901 -0.206675 1.56239 0
M  V30 1128 C 108.833 -1.27997 1.9013 0
M  V30 1129 C 109.846 -1.42299 0.790883 0
M  V30 1130 O 111.035 -1.42931 1.06925 0
M  V30 1131 C 108.135 -2.65368 2.10792 0
M  V30 1132 C 107.308 -2.72824 3.41886 0
M  V30 1133 C 106.367 -3.9131 3.51799 0
M  V30 1134 O 105.393 -3.78953 4.24716 0
M  V30 1135 N 106.595 -5.06265 2.84035 0
M  V30 1136 H 109.36 -0.992444 2.82791 0
M  V30 1137 H 106.921 -0.396652 1.56966 0
M  V30 1138 H 108.913 -3.43039 2.14724 0
M  V30 1139 H 107.483 -2.86657 1.24685 0
M  V30 1140 H 106.703 -1.81515 3.49923 0
M  V30 1141 H 107.991 -2.74786 4.28217 0
M  V30 1142 H 107.389 -5.19203 2.246 0
M  V30 1143 H 105.946 -5.81925 2.93609 0
M  V30 1144 N 109.379 -1.50304 -0.473955 0
M  V30 1145 C 110.628 -1.60392 -1.22301 0
M  V30 1146 C 110.941 -0.308411 -1.93153 0
M  V30 1147 O 112.147 -0.288156 -2.69966 0
M  V30 1148 C 110.603 -2.83109 -2.2221 0
M  V30 1149 C 110.211 -4.19524 -1.57173 0
M  V30 1150 C 111.955 -3.0254 -2.97775 0
M  V30 1151 C 109.862 -5.33431 -2.55353 0
M  V30 1152 H 108.792 -0.597286 -0.460179 0
M  V30 1153 H 111.443 -1.76731 -0.493803 0
M  V30 1154 H 109.825 -2.60322 -2.9841 0
M  V30 1155 H 110.999 -4.52554 -0.867824 0
M  V30 1156 H 109.314 -4.05674 -0.939002 0
M  V30 1157 H 111.911 -3.84811 -3.71248 0
M  V30 1158 H 112.254 -2.14154 -3.56992 0
M  V30 1159 H 112.787 -3.25494 -2.28688 0
M  V30 1160 H 109.526 -6.23962 -2.00878 0
M  V30 1161 H 109.046 -5.04823 -3.23904 0
M  V30 1162 H 110.725 -5.63887 -3.17239 0
M  V30 1163 N 110.857 0.726932 -1.39834 0
M  V30 1164 C 112.134 1.47902 -1.28001 0
M  V30 1165 C 112.514 2.1083 0.106789 0
M  V30 1166 O 111.862 1.99242 1.11869 0
M  V30 1167 C 112.072 2.52392 -2.41038 0
M  V30 1168 C 113.42 3.18546 -2.80737 0
M  V30 1169 O 114.444 2.62708 -2.40547 0
M  V30 1170 O 113.303 4.19604 -3.50135 0
M  V30 1171 H 110.397 0.657163 -0.502062 0
M  V30 1172 H 112.943 0.760071 -1.51727 0
M  V30 1173 H 111.715 2.04329 -3.33715 0
M  V30 1174 H 111.338 3.31837 -2.19021 0
M  V30 1175 N 112.336 1.25143 0.95797 0
M  V30 1176 C 113.582 1.09855 1.70469 0
M  V30 1177 C 113.915 -0.360187 1.90831 0
M  V30 1178 O 113.19 -1.26568 1.47685 0
M  V30 1179 C 113.473 1.8497 3.08963 0
M  V30 1180 C 113.326 3.38652 2.96032 0
M  V30 1181 C 114.645 1.63016 4.08795 0
M  V30 1182 H 111.764 0.400465 0.618706 0
M  V30 1183 H 114.406 1.53933 1.11376 0
M  V30 1184 H 112.556 1.47505 3.59409 0
M  V30 1185 H 114.228 3.85772 2.52938 0
M  V30 1186 H 112.471 3.66534 2.32025 0
M  V30 1187 H 113.142 3.8642 3.94187 0
M  V30 1188 H 115.618 1.95625 3.67247 0
M  V30 1189 H 114.494 2.18015 5.03747 0
M  V30 1190 H 114.755 0.570692 4.38401 0
M  V30 1191 N 113.814 -1.1601 1.06675 0
M  V30 1192 C 114.744 -2.22688 0.702307 0
M  V30 1193 C 115.725 -1.67306 -0.307032 0
M  V30 1194 O 116.91 -1.93352 -0.181305 0
M  V30 1195 C 114.04 -3.47178 0.092038 0
M  V30 1196 C 112.994 -4.15477 1.02777 0
M  V30 1197 C 112.32 -5.33963 0.28061 0
M  V30 1198 C 113.62 -4.66019 2.35846 0
M  V30 1199 H 115.314 -2.53429 1.59419 0
M  V30 1200 H 112.86 -1.21813 0.767961 0
M  V30 1201 H 114.813 -4.21037 -0.174814 0
M  V30 1202 H 113.537 -3.15749 -0.834877 0
M  V30 1203 H 112.196 -3.43549 1.27944 0
M  V30 1204 H 111.844 -4.98788 -0.649545 0
M  V30 1205 H 111.544 -5.806 0.904258 0
M  V30 1206 H 113.068 -6.10596 0.021396 0
M  V30 1207 H 114.482 -5.3144 2.15045 0
M  V30 1208 H 112.879 -5.23293 2.93743 0
M  V30 1209 H 113.949 -3.82023 2.98641 0
M  V30 1210 N 115.292 -0.849877 -1.32721 0
M  V30 1211 C 116.222 -0.306308 -2.31482 0
M  V30 1212 C 117.203 0.591952 -1.59468 0
M  V30 1213 O 118.388 0.513199 -1.87296 0
M  V30 1214 C 115.518 0.510204 -3.43532 0
M  V30 1215 C 114.472 -0.293209 -4.26994 0
M  V30 1216 C 113.798 0.647743 -5.30762 0
M  V30 1217 C 115.098 -1.51634 -4.99804 0
M  V30 1218 H 116.792 -1.13153 -2.77195 0
M  V30 1219 H 114.338 -0.545553 -1.33266 0
M  V30 1220 H 116.291 0.900856 -4.11658 0
M  V30 1221 H 115.015 1.36874 -2.96535 0
M  V30 1222 H 113.674 -0.665555 -3.60508 0
M  V30 1223 H 113.322 1.50299 -4.8002 0
M  V30 1224 H 113.022 0.11422 -5.87489 0
M  V30 1225 H 114.546 1.03567 -6.01753 0
M  V30 1226 H 115.96 -1.19824 -5.60638 0
M  V30 1227 H 114.357 -1.98745 -5.66234 0
M  V30 1228 H 115.427 -2.28018 -4.27943 0
M  V30 1229 N 116.77 1.45427 -0.607355 0
M  V30 1230 C 117.733 2.28974 0.101693 0
M  V30 1231 C 118.733 1.39754 0.795329 0
M  V30 1232 O 119.923 1.61878 0.643527 0
M  V30 1233 C 117.055 3.20768 1.15414 0
M  V30 1234 H 118.248 2.93147 -0.632844 0
M  V30 1235 H 115.801 1.51945 -0.366391 0
M  V30 1236 H 116.536 2.61395 1.91945 0
M  V30 1237 H 116.321 3.86489 0.66098 0
M  V30 1238 H 117.811 3.83589 1.65073 0
M  V30 1239 N 118.248 0.346503 1.53744 0
M  V30 1240 C 119.195 -0.508914 2.25119 0
M  V30 1241 C 120.165 -1.09315 1.25058 0
M  V30 1242 O 121.35 -1.12921 1.53797 0
M  V30 1243 C 118.49 -1.65246 3.02965 0
M  V30 1244 C 117.603 -1.09525 4.17886 0
M  V30 1245 C 116.738 -2.20634 4.83212 0
M  V30 1246 C 115.777 -1.62279 5.90196 0
M  V30 1247 N 114.914 -2.67143 6.49291 0
M  V30 1248 H 119.754 0.106283 2.9781 0
M  V30 1249 H 117.291 0.0642227 1.4696 0
M  V30 1250 H 119.249 -2.32574 3.4636 0
M  V30 1251 H 117.879 -2.2386 2.32565 0
M  V30 1252 H 116.931 -0.312818 3.79112 0
M  V30 1253 H 118.243 -0.628444 4.94825 0
M  V30 1254 H 117.397 -2.95821 5.29693 0
M  V30 1255 H 116.136 -2.70659 4.05703 0
M  V30 1256 H 115.141 -0.855989 5.43096 0
M  V30 1257 H 116.366 -1.13102 6.69615 0
M  V30 1258 H 114.312 -3.16417 5.74645 0
M  V30 1259 H 114.229 -2.25093 7.21713 0
M  V30 1260 H 115.497 -3.4209 7.00425 0
M  V30 1261 N 119.726 -1.57421 0.075193 0
M  V30 1262 C 120.974 -1.93236 -0.591974 0
M  V30 1263 C 121.295 -0.956241 -1.69944 0
M  V30 1264 O 120.565 -0.00494792 -1.95899 0
M  V30 1265 H 119.145 -0.713355 -0.22166 0
M  V30 1266 H 121.807 -1.9444 0.133848 0
M  V30 1267 H 120.903 -2.95131 -1.01509 0
M  V30 1268 N 121.204 0.198386 -1.56346 0
M  V30 1269 C 122.45 0.920648 -1.80698 0
M  V30 1270 C 122.783 1.83045 -0.648697 0
M  V30 1271 O 122.058 1.91308 0.350925 0
M  V30 1272 C 122.341 1.73971 -3.15287 0
M  V30 1273 C 122.194 0.85485 -4.41602 0
M  V30 1274 C 123.513 2.71296 -3.46535 0
M  V30 1275 H 120.632 0.333261 -0.657348 0
M  V30 1276 H 123.274 0.188198 -1.89066 0
M  V30 1277 H 121.424 2.36416 -3.08285 0
M  V30 1278 H 123.096 0.245362 -4.60647 0
M  V30 1279 H 121.339 0.161398 -4.335 0
M  V30 1280 H 122.01 1.46286 -5.32264 0
M  V30 1281 H 124.486 2.18983 -3.53816 0
M  V30 1282 H 123.362 3.2569 -4.41834 0
M  V30 1283 H 123.623 3.5018 -2.69864 0
M  V30 1284 N 122.682 1.50554 0.465978 0
M  V30 1285 C 123.629 1.6979 1.56333 0
M  V30 1286 C 124.599 0.539239 1.57103 0
M  V30 1287 O 125.784 0.770401 1.74555 0
M  V30 1288 C 122.924 1.80273 2.94271 0
M  V30 1289 C 122.037 3.07674 3.0325 0
M  V30 1290 C 121.172 3.08922 4.32135 0
M  V30 1291 C 120.211 4.30755 4.34875 0
M  V30 1292 N 119.348 4.29714 5.55239 0
M  V30 1293 H 124.188 2.63472 1.39235 0
M  V30 1294 H 121.725 1.30602 0.676873 0
M  V30 1295 H 123.683 1.84332 3.74269 0
M  V30 1296 H 122.313 0.900258 3.09992 0
M  V30 1297 H 121.365 3.13062 2.16094 0
M  V30 1298 H 122.677 3.97642 3.01135 0
M  V30 1299 H 121.831 3.11738 5.20485 0
M  V30 1300 H 120.57 2.16792 4.36866 0
M  V30 1301 H 119.575 4.28146 3.44922 0
M  V30 1302 H 120.8 5.24117 4.31831 0
M  V30 1303 H 118.746 3.4044 5.60746 0
M  V30 1304 H 118.663 5.13456 5.54886 0
M  V30 1305 H 119.931 4.36683 6.457 0
M  V30 1306 N 124.16 -0.719506 1.40217 0
M  V30 1307 C 125.123 -1.8153 1.39927 0
M  V30 1308 C 126.123 -1.58095 0.293723 0
M  V30 1309 O 127.313 -1.65209 0.552429 0
M  V30 1310 C 124.445 -3.19561 1.18716 0
M  V30 1311 H 125.638 -1.83186 2.37451 0
M  V30 1312 H 123.191 -0.924746 1.26008 0
M  V30 1313 H 123.926 -3.23557 0.219366 0
M  V30 1314 H 123.711 -3.3797 1.98793 0
M  V30 1315 H 125.201 -3.99598 1.21291 0
M  V30 1316 N 125.638 -1.25649 -0.95132 0
M  V30 1317 C 126.568 -1.08808 -2.06599 0
M  V30 1318 C 127.549 0.00382547 -1.701 0
M  V30 1319 O 128.734 -0.166325 -1.93486 0
M  V30 1320 C 125.864 -0.709542 -3.39975 0
M  V30 1321 C 124.818 -1.75206 -3.90496 0
M  V30 1322 C 124.144 -1.22811 -5.20405 0
M  V30 1323 C 125.444 -3.15153 -4.16504 0
M  V30 1324 H 127.138 -2.02048 -2.20946 0
M  V30 1325 H 124.684 -0.972835 -1.06169 0
M  V30 1326 H 126.637 -0.578649 -4.17408 0
M  V30 1327 H 125.361 0.258556 -3.25575 0
M  V30 1328 H 124.02 -1.87145 -3.15234 0
M  V30 1329 H 123.668 -0.250145 -5.02378 0
M  V30 1330 H 123.368 -1.92492 -5.55176 0
M  V30 1331 H 124.892 -1.10968 -6.00432 0
M  V30 1332 H 126.306 -3.06349 -4.84586 0
M  V30 1333 H 124.703 -3.82333 -4.62538 0
M  V30 1334 H 125.773 -3.61966 -3.22658 0
M  V30 1335 N 127.117 1.15442 -1.07289 0
M  V30 1336 C 128.08 2.18358 -0.696591 0
M  V30 1337 C 129.08 1.58637 0.262837 0
M  V30 1338 O 130.27 1.74145 0.0438809 0
M  V30 1339 C 127.402 3.4089 -0.0266151 0
M  V30 1340 H 128.595 2.53162 -1.60776 0
M  V30 1341 H 126.148 1.29893 -0.869342 0
M  V30 1342 H 126.883 3.11653 0.896822 0
M  V30 1343 H 126.668 3.85495 -0.716657 0
M  V30 1344 H 128.158 4.17009 0.222028 0
M  V30 1345 N 128.595 0.856903 1.32268 0
M  V30 1346 C 129.844 0.457599 1.96441 0
M  V30 1347 C 130.157 -0.992426 1.68553 0
M  V30 1348 O 131.363 -1.49727 2.26482 0
M  V30 1349 C 129.819 0.767358 3.51624 0
M  V30 1350 C 129.427 2.23326 3.88367 0
M  V30 1351 C 131.171 0.435887 4.22256 0
M  V30 1352 C 129.078 2.48613 5.36606 0
M  V30 1353 H 128.008 0.167387 0.735185 0
M  V30 1354 H 130.659 1.048 1.5063 0
M  V30 1355 H 129.041 0.106367 3.95857 0
M  V30 1356 H 130.215 2.93623 3.55137 0
M  V30 1357 H 128.53 2.52948 3.30766 0
M  V30 1358 H 131.127 0.602202 5.31298 0
M  V30 1359 H 131.47 -0.622672 4.11617 0
M  V30 1360 H 132.003 1.05286 3.83614 0
M  V30 1361 H 128.742 3.53101 5.52268 0
M  V30 1362 H 128.262 1.82896 5.71235 0
M  V30 1363 H 129.941 2.32676 6.03714 0
M  V30 1364 N 130.073 -1.45103 0.615059 0
M  V30 1365 C 131.021 -2.32331 -0.111791 0
M  V30 1366 C 132.015 -1.46409 -0.852102 0
M  V30 1367 O 133.221 -1.62849 -0.766821 0
M  V30 1368 H 129.596 -0.749993 -0.0549072 0
M  V30 1369 H 131.567 -2.91407 0.642225 0
M  V30 1370 C 130.316 -3.3015 -1.09071 0
M  V30 1371 H 129.639 -3.96265 -0.530485 0
M  V30 1372 H 131.079 -3.93898 -1.56908 0
M  V30 1373 C 129.538 -2.57875 -2.168 0
M  V30 1374 O 130.068 -2.36567 -3.24652 0
M  V30 1375 N 128.274 -2.17884 -1.92289 0
M  V30 1376 H 127.821 -2.35413 -1.04587 0
M  V30 1377 H 127.779 -1.6985 -2.64572 0
M  V30 1378 N 131.551 -0.354651 -1.53558 0
M  V30 1379 C 132.481 0.489091 -2.2832 0
M  V30 1380 C 133.462 1.09324 -1.30316 0
M  V30 1381 O 134.647 1.11255 -1.59173 0
M  V30 1382 C 131.777 1.63456 -3.0643 0
M  V30 1383 C 130.731 1.1582 -4.12031 0
M  V30 1384 C 130.057 2.39305 -4.7816 0
M  V30 1385 C 131.357 0.250731 -5.21698 0
M  V30 1386 H 133.051 -0.134614 -2.99097 0
M  V30 1387 H 130.597 -0.0661826 -1.43848 0
M  V30 1388 H 132.55 2.23136 -3.57475 0
M  V30 1389 H 131.274 2.28533 -2.33325 0
M  V30 1390 H 129.933 0.584146 -3.61916 0
M  V30 1391 H 129.581 3.02814 -4.01637 0
M  V30 1392 H 129.281 2.08109 -5.49513 0
M  V30 1393 H 130.805 2.99691 -5.31994 0
M  V30 1394 H 132.219 0.754695 -5.68311 0
M  V30 1395 H 130.616 0.0301468 -6.00092 0
M  V30 1396 H 131.686 -0.710125 -4.79672 0
M  V30 1397 N 133.029 1.57378 -0.0835403 0
M  V30 1398 C 134.275 1.94217 0.583733 0
M  V30 1399 C 134.608 0.964653 1.68547 0
M  V30 1400 O 133.883 -0.00422258 1.945 0
M  V30 1401 C 134.166 3.41253 1.14972 0
M  V30 1402 C 134.019 4.49768 0.0538277 0
M  V30 1403 C 135.338 3.89352 2.05166 0
M  V30 1404 H 132.457 0.706233 0.210724 0
M  V30 1405 H 135.099 1.89392 -0.1519 0
M  V30 1406 H 133.249 3.45496 1.77665 0
M  V30 1407 H 134.921 4.57641 -0.579851 0
M  V30 1408 H 133.164 4.29432 -0.614068 0
M  V30 1409 H 133.835 5.49817 0.490452 0
M  V30 1410 H 136.311 3.87189 1.52393 0
M  V30 1411 H 135.187 4.92822 2.41698 0
M  V30 1412 H 135.448 3.27973 2.96456 0
M  V30 1413 N 134.507 -0.190092 1.56449 0
M  V30 1414 C 135.784 -0.935886 1.71757 0
M  V30 1415 C 136.164 -2.01173 0.639726 0
M  V30 1416 O 135.512 -2.25827 -0.348502 0
M  V30 1417 C 135.722 -1.51775 3.1427 0
M  V30 1418 C 137.07 -1.99794 3.74656 0
M  V30 1419 O 138.094 -1.61607 3.1743 0
M  V30 1420 O 136.953 -2.70079 4.751 0
M  V30 1421 H 134.047 -0.439229 0.700719 0
M  V30 1422 H 136.593 -0.179395 1.68749 0
M  V30 1423 H 135.365 -0.742505 3.84191 0
M  V30 1424 H 134.988 -2.33894 3.21527 0
M  V30 1425 N 135.985 -1.50799 -0.457987 0
M  V30 1426 C 137.396 -1.55152 -1.0385 0
M  V30 1427 C 137.747 -0.362719 -1.92818 0
M  V30 1428 O 136.872 0.522915 -2.09987 0
M  V30 1429 C 137.467 -2.81173 -1.89017 0
M  V30 1430 C 136.026 -2.88164 -2.42154 0
M  V30 1431 C 135.173 -2.49591 -1.20829 0
M  V30 1432 H 138.124 -1.56874 -0.240068 0
M  V30 1433 H 138.145 -2.63769 -2.74238 0
M  V30 1434 H 137.657 -3.67677 -1.24238 0
M  V30 1435 H 135.758 -2.06042 -3.10447 0
M  V30 1436 H 135.871 -3.91356 -2.76364 0
M  V30 1437 H 134.235 -2.02322 -1.54719 0
M  V30 1438 H 135.018 -3.38418 -0.576927 0
M  V30 1439 N 137.463 0.71206 -1.40597 0
M  V30 1440 C 138.426 1.80785 -1.40888 0
M  V30 1441 C 139.426 1.57937 -0.302103 0
M  V30 1442 O 140.616 1.64913 -0.561182 0
M  V30 1443 C 137.748 3.18927 -1.20409 0
M  V30 1444 H 138.941 1.81924 -2.38419 0
M  V30 1445 H 136.494 0.91805 -1.26497 0
M  V30 1446 H 137.229 3.23436 -0.236522 0
M  V30 1447 H 137.014 3.36911 -2.00582 0
M  V30 1448 H 138.504 3.98949 -1.23408 0
M  V30 1449 N 138.941 1.26152 0.944643 0
M  V30 1450 C 139.904 1.07474 2.0244 0
M  V30 1451 C 140.904 0.0242064 1.60782 0
M  V30 1452 O 142.094 0.267302 1.72137 0
M  V30 1453 C 139.226 0.633956 3.34953 0
M  V30 1454 H 140.419 2.03336 2.20442 0
M  V30 1455 H 137.972 1.087 1.12312 0
M  V30 1456 H 138.707 -0.326811 3.22649 0
M  V30 1457 H 138.492 1.39247 3.66542 0
M  V30 1458 H 139.982 0.52501 4.14287 0
M  V30 1459 N 140.419 -1.14872 1.07899 0
M  V30 1460 C 141.382 -2.17986 0.708161 0
M  V30 1461 C 142.382 -1.58775 -0.25442 0
M  V30 1462 O 143.572 -1.74166 -0.034645 0
M  V30 1463 C 140.704 -3.40871 0.0446929 0
M  V30 1464 H 141.897 -2.52306 1.62116 0
M  V30 1465 H 139.45 -1.2943 0.876218 0
M  V30 1466 H 140.185 -3.12124 -0.880281 0
M  V30 1467 H 139.97 -3.8511 0.737091 0
M  V30 1468 H 141.46 -4.17121 -0.19991 0
M  V30 1469 N 141.898 -0.863906 -1.31812 0
M  V30 1470 C 143.146 -0.470904 -1.96537 0
M  V30 1471 C 143.467 0.978771 -1.68657 0
M  V30 1472 O 142.737 1.6853 -0.998717 0
M  V30 1473 H 141.317 -0.171148 -0.72713 0
M  V30 1474 H 143.979 -1.10236 -1.60729 0
M  V30 1475 H 143.075 -0.623616 -3.05806 0
M  V30 1476 N 143.376 1.44774 -0.622745 0
M  V30 1477 C 144.604 2.06487 -0.130722 0
M  V30 1478 C 145.019 1.46476 1.19123 0
M  V30 1479 O 144.376 0.584502 1.72887 0
M  V30 1480 C 144.427 3.615 -0.000807207 0
M  V30 1481 O 144.148 4.19274 -1.27048 0
M  V30 1482 C 145.649 4.40229 0.520898 0
M  V30 1483 H 142.869 0.666704 -0.0758106 0
M  V30 1484 H 145.413 1.85779 -0.854774 0
M  V30 1485 H 143.568 3.81498 0.673643 0
M  V30 1486 H 143.982 5.12622 -1.1099 0
M  V30 1487 H 145.456 5.49144 0.560838 0
M  V30 1488 H 145.933 4.1108 1.54627 0
M  V30 1489 H 146.539 4.25131 -0.120018 0
M  V30 1490 N 144.854 0.36279 1.53368 0
M  V30 1491 C 146.1 -0.228113 2.01513 0
M  V30 1492 C 146.433 -1.48648 1.2497 0
M  V30 1493 O 145.708 -1.91459 0.342616 0
M  V30 1494 C 145.991 -0.522884 3.56284 0
M  V30 1495 C 145.844 0.74892 4.43521 0
M  V30 1496 C 147.163 -1.32461 4.19693 0
M  V30 1497 H 144.282 -0.0814343 0.732487 0
M  V30 1498 H 146.924 0.48713 1.83649 0
M  V30 1499 H 145.074 -1.1322 3.71636 0
M  V30 1500 H 146.746 1.38648 4.39971 0
M  V30 1501 H 144.989 1.36986 4.11603 0
M  V30 1502 H 145.66 0.497667 5.49752 0
M  V30 1503 H 148.136 -0.809203 4.08156 0
M  V30 1504 H 147.012 -1.49961 5.28018 0
M  V30 1505 H 147.273 -2.33232 3.75573 0
M  V30 1506 N 146.332 -1.57332 0.0918853 0
M  V30 1507 C 147.581 -1.93412 -0.572249 0
M  V30 1508 C 147.894 -0.975515 -1.69538 0
M  V30 1509 O 149.1 -1.22991 -2.42045 0
M  V30 1510 C 147.556 -3.43648 -1.0693 0
M  V30 1511 C 147.164 -4.47994 0.0239049 0
M  V30 1512 C 148.908 -3.88695 -1.70635 0
M  V30 1513 C 146.815 -5.89381 -0.488319 0
M  V30 1514 H 145.745 -0.721939 -0.217532 0
M  V30 1515 H 148.396 -1.82735 0.167369 0
M  V30 1516 H 146.778 -3.49466 -1.8625 0
M  V30 1517 H 147.952 -4.53815 0.799277 0
M  V30 1518 H 146.267 -4.12536 0.565946 0
M  V30 1519 H 148.864 -4.91725 -2.10025 0
M  V30 1520 H 149.207 -3.27166 -2.57426 0
M  V30 1521 H 149.74 -3.85564 -0.979023 0
M  V30 1522 H 146.479 -6.54602 0.342906 0
M  V30 1523 H 145.999 -5.87037 -1.23077 0
M  V30 1524 H 147.678 -6.39863 -0.958317 0
M  V30 1525 N 147.81 0.181792 -1.56548 0
M  V30 1526 C 148.72 1.24538 -1.98815 0
M  V30 1527 C 149.736 1.49045 -0.897861 0
M  V30 1528 O 150.912 1.61399 -1.20467 0
M  V30 1529 C 147.977 2.56683 -2.33055 0
M  V30 1530 C 147.038 2.40131 -3.55859 0
M  V30 1531 C 146.271 3.65975 -3.88456 0
M  V30 1532 O 146.494 4.70711 -3.22161 0
M  V30 1533 O 145.428 3.6071 -4.81842 0
M  V30 1534 H 149.254 0.916647 -2.89536 0
M  V30 1535 H 146.839 0.387842 -1.44278 0
M  V30 1536 H 148.721 3.34655 -2.56094 0
M  V30 1537 H 147.396 2.89157 -1.45498 0
M  V30 1538 H 146.303 1.60226 -3.38051 0
M  V30 1539 H 147.636 2.12585 -4.43924 0
M  V30 1540 N 149.288 1.51039 0.449983 0
M  V30 1541 C 150.235 1.71439 1.54523 0
M  V30 1542 C 151.205 0.555871 1.56522 0
M  V30 1543 O 152.39 0.788871 1.73728 0
M  V30 1544 C 149.53 1.83384 2.92343 0
M  V30 1545 C 148.643 3.10873 2.9997 0
M  V30 1546 C 147.778 3.13488 4.28834 0
M  V30 1547 C 146.817 4.35343 4.30282 0
M  V30 1548 N 145.954 4.35579 5.5065 0
M  V30 1549 H 150.794 2.64934 1.36433 0
M  V30 1550 H 148.331 1.31312 0.662982 0
M  V30 1551 H 150.289 1.88291 3.72293 0
M  V30 1552 H 148.919 0.933086 3.0902 0
M  V30 1553 H 147.971 3.15336 2.12761 0
M  V30 1554 H 149.283 4.00814 2.96901 0
M  V30 1555 H 148.437 3.17241 5.17149 0
M  V30 1556 H 147.176 2.21414 4.34543 0
M  V30 1557 H 146.181 4.3178 3.40362 0
M  V30 1558 H 147.406 5.28668 4.26248 0
M  V30 1559 H 145.352 3.46369 5.57104 0
M  V30 1560 H 145.269 5.19313 5.49409 0
M  V30 1561 H 146.537 4.43507 6.41032 0
M  V30 1562 N 150.766 -0.704594 1.40972 0
M  V30 1563 C 151.729 -1.80035 1.41845 0
M  V30 1564 C 152.729 -1.57774 0.310474 0
M  V30 1565 O 153.919 -1.64613 0.56992 0
M  V30 1566 C 151.051 -3.18284 1.22098 0
M  V30 1567 H 152.244 -1.80658 2.3938 0
M  V30 1568 H 149.797 -0.911329 1.26982 0
M  V30 1569 H 150.532 -3.23306 0.253672 0
M  V30 1570 H 150.317 -3.35843 2.02366 0
M  V30 1571 H 151.807 -3.98289 1.25522 0
M  V30 1572 N 152.244 -1.26651 -0.937939 0
M  V30 1573 C 153.66 -1.03834 -1.21205 0
M  V30 1574 C 153.86 0.234502 -2.00131 0
M  V30 1575 O 152.916 0.942767 -2.3424 0
M  V30 1576 C 154.229 -2.27167 -1.97017 0
M  V30 1577 C 155.777 -2.32101 -2.09996 0
M  V30 1578 C 156.252 -3.55136 -2.8921 0
M  V30 1579 N 157.743 -3.55632 -2.96783 0
M  V30 1580 C 158.478 -4.475 -3.58512 0
M  V30 1581 N 157.974 -5.4966 -4.21717 0
M  V30 1582 N 159.767 -4.35145 -3.55816 0
M  V30 1583 H 151.918 -2.08398 -0.410391 0
M  V30 1584 H 154.181 -0.916031 -0.244114 0
M  V30 1585 H 153.887 -3.19765 -1.46434 0
M  V30 1586 H 153.761 -2.31672 -2.97671 0
M  V30 1587 H 156.148 -1.40015 -2.59769 0
M  V30 1588 H 156.229 -2.31605 -1.08594 0
M  V30 1589 H 155.873 -4.47553 -2.40123 0
M  V30 1590 H 155.803 -3.5288 -3.90875 0
M  V30 1591 H 158.294 -2.81743 -2.51852 0
M  V30 1592 H 158.607 -6.15943 -4.66727 0
M  V30 1593 H 156.952 -5.53514 -4.20294 0
M  V30 1594 H 160.143 -3.5455 -3.05634 0
M  V30 1595 H 160.316 -5.06934 -4.03636 0
M  V30 1596 N 153.722 1.14298 -1.08507 0
M  V30 1597 C 154.97 1.84993 -0.813763 0
M  V30 1598 C 155.291 1.83405 0.662393 0
M  V30 1599 O 154.561 1.28319 1.48024 0
M  V30 1600 H 153.141 0.684966 -0.298045 0
M  V30 1601 H 155.803 1.385 -1.37126 0
M  V30 1602 H 154.899 2.89788 -1.15884 0
M  V30 1603 N 155.201 0.870884 1.31352 0
M  V30 1604 C 156.133 0.28455 2.27427 0
M  V30 1605 C 157.146 -0.552927 1.53123 0
M  V30 1606 O 158.335 -0.374771 1.74521 0
M  V30 1607 C 155.435 -0.615164 3.3327 0
M  V30 1608 C 154.608 0.190079 4.36987 0
M  V30 1609 C 153.667 -0.637917 5.22319 0
M  V30 1610 O 152.693 -0.065626 5.69162 0
M  V30 1611 N 153.895 -1.94973 5.46778 0
M  V30 1612 H 156.66 1.11017 2.7838 0
M  V30 1613 H 154.221 0.732458 1.44384 0
M  V30 1614 H 156.213 -1.1748 3.87273 0
M  V30 1615 H 154.783 -1.34146 2.82354 0
M  V30 1616 H 154.003 0.931165 3.83044 0
M  V30 1617 H 155.291 0.742579 5.03352 0
M  V30 1618 H 154.689 -2.4378 5.10478 0
M  V30 1619 H 153.246 -2.45713 6.03712 0
M  V30 1620 N 156.679 -1.44442 0.630414 0
M  V30 1621 C 157.627 -2.32437 -0.0871428 0
M  V30 1622 C 158.621 -1.47304 -0.836525 0
M  V30 1623 O 159.827 -1.63653 -0.749506 0
M  V30 1624 H 156.202 -0.750533 -0.0469495 0
M  V30 1625 H 158.173 -2.90709 0.673096 0
M  V30 1626 C 156.922 -3.31288 -1.05563 0
M  V30 1627 H 156.245 -3.96805 -0.488426 0
M  V30 1628 H 157.685 -3.9554 -1.52721 0
M  V30 1629 C 156.144 -2.6016 -2.14052 0
M  V30 1630 O 156.674 -2.39997 -3.22124 0
M  V30 1631 N 154.88 -2.19911 -1.89967 0
M  V30 1632 H 154.427 -2.36509 -1.02085 0
M  V30 1633 H 154.385 -1.72646 -2.62756 0
M  V30 1634 N 158.157 -0.370918 -1.53173 0
M  V30 1635 C 159.403 0.217423 -2.01631 0
M  V30 1636 C 159.736 1.47983 -1.25756 0
M  V30 1637 O 159.011 1.91274 -0.352764 0
M  V30 1638 C 159.294 0.503982 -3.56556 0
M  V30 1639 C 159.147 -0.77243 -4.43118 0
M  V30 1640 C 160.466 1.30234 -4.20389 0
M  V30 1641 H 157.585 0.0775486 -0.732909 0
M  V30 1642 H 160.227 -0.496863 -1.83388 0
M  V30 1643 H 158.377 1.11248 -3.72231 0
M  V30 1644 H 160.049 -1.4098 -4.39229 0
M  V30 1645 H 158.292 -1.39167 -4.10871 0
M  V30 1646 H 158.963 -0.526815 -5.4948 0
M  V30 1647 H 161.439 0.787546 -4.08579 0
M  V30 1648 H 160.315 1.47158 -5.28806 0
M  V30 1649 H 160.576 2.31237 -3.76805 0
M  V30 1650 N 159.635 1.57281 -0.100228 0
M  V30 1651 C 161.046 1.81725 0.428107 0
M  V30 1652 C 161.397 1.01619 1.67833 0
M  V30 1653 O 160.522 0.247098 2.14985 0
M  V30 1654 C 161.117 3.29617 0.78347 0
M  V30 1655 C 159.676 3.54808 1.25653 0
M  V30 1656 C 158.823 2.76118 0.255752 0
M  V30 1657 H 161.774 1.55324 -0.325608 0
M  V30 1658 H 161.795 3.4322 1.64256 0
M  V30 1659 H 161.307 3.87893 -0.12665 0
M  V30 1660 H 159.408 3.01868 2.18418 0
M  V30 1661 H 159.521 4.63443 1.21482 0
M  V30 1662 H 157.885 2.43745 0.738956 0
M  V30 1663 H 158.668 3.37145 -0.647136 0
M  V30 1664 N 161.113 -0.173488 1.56642 0
M  V30 1665 C 162.359 -0.891784 1.8214 0
M  V30 1666 C 162.692 -1.8199 0.677736 0
M  V30 1667 O 161.967 -1.91842 -0.320446 0
M  V30 1668 C 162.25 -1.68933 3.18015 0
M  V30 1669 C 162.103 -0.784487 4.42906 0
M  V30 1670 C 163.422 -2.65748 3.50808 0
M  V30 1671 H 160.541 -0.322761 0.662567 0
M  V30 1672 H 163.183 -0.158095 1.89341 0
M  V30 1673 H 161.333 -2.31482 3.12007 0
M  V30 1674 H 163.005 -0.172046 4.60979 0
M  V30 1675 H 161.248 -0.0924117 4.33702 0
M  V30 1676 H 161.919 -1.37799 5.34524 0
M  V30 1677 H 164.395 -2.13327 3.57255 0
M  V30 1678 H 163.271 -3.18619 4.4696 0
M  V30 1679 H 163.532 -3.45842 2.75401 0
M  V30 1680 N 162.591 -1.51276 -0.441967 0
M  V30 1681 C 163.837 -1.63958 -1.19355 0
M  V30 1682 C 164.17 -0.352543 -1.90973 0
M  V30 1683 O 163.445 0.647627 -1.83401 0
M  V30 1684 C 163.728 -2.83979 -2.21422 0
M  V30 1685 C 163.581 -4.22646 -1.53918 0
M  V30 1686 C 164.9 -2.99521 -3.22451 0
M  V30 1687 H 162.019 -0.596709 -0.432559 0
M  V30 1688 H 164.661 -1.83748 -0.483398 0
M  V30 1689 H 162.811 -2.67237 -2.81987 0
M  V30 1690 H 164.483 -4.51045 -0.967256 0
M  V30 1691 H 162.726 -4.25558 -0.841615 0
M  V30 1692 H 163.397 -5.02609 -2.28229 0
M  V30 1693 H 165.873 -3.14944 -2.71937 0
M  V30 1694 H 164.749 -3.85072 -3.91166 0
M  V30 1695 H 165.01 -2.11391 -3.88287 0
M  V30 1696 N 164.069 0.697108 -1.41344 0
M  V30 1697 C 165.316 1.45714 -1.40619 0
M  V30 1698 C 165.644 1.94494 -0.0147907 0
M  V30 1699 O 164.899 1.69794 0.973066 0
M  V30 1700 C 165.198 2.68553 -2.35826 0
M  V30 1701 C 164.864 2.38438 -3.82698 0
M  V30 1702 C 163.526 2.29936 -4.22709 0
M  V30 1703 C 165.878 2.13567 -4.75435 0
M  V30 1704 C 163.206 1.94656 -5.53467 0
M  V30 1705 C 165.558 1.79797 -6.06511 0
M  V30 1706 C 164.222 1.69789 -6.45545 0
M  V30 1707 H 163.492 0.533206 -0.51456 0
M  V30 1708 H 166.139 0.796901 -1.74131 0
M  V30 1709 H 164.444 3.39503 -1.95563 0
M  V30 1710 H 166.141 3.2669 -2.32539 0
M  V30 1711 H 162.731 2.4595 -3.51008 0
M  V30 1712 H 166.915 2.19082 -4.45328 0
M  V30 1713 H 162.171 1.8546 -5.82593 0
M  V30 1714 H 166.345 1.59572 -6.77872 0
M  V30 1715 H 163.972 1.4222 -7.46778 0
M  V30 1716 N 165.547 1.27147 0.931209 0
M  V30 1717 C 166.794 1.13278 1.67852 0
M  V30 1718 C 167.122 -0.32204 1.91815 0
M  V30 1719 O 166.377 -1.25224 1.50391 0
M  V30 1720 C 166.676 1.8579 3.05314 0
M  V30 1721 C 166.342 3.35657 3.01073 0
M  V30 1722 C 165.004 3.76536 2.99623 0
M  V30 1723 C 167.356 4.31299 2.92627 0
M  V30 1724 C 164.684 5.11426 2.87506 0
M  V30 1725 C 167.036 5.66242 2.82051 0
M  V30 1726 C 165.7 6.06418 2.7895 0
M  V30 1727 H 164.97 0.414515 0.614214 0
M  V30 1728 H 167.617 1.57712 1.08624 0
M  V30 1729 H 165.922 1.33854 3.68226 0
M  V30 1730 H 167.619 1.72491 3.62005 0
M  V30 1731 H 164.209 3.03146 3.02986 0
M  V30 1732 H 168.393 4.00692 2.92848 0
M  V30 1733 H 163.649 5.41705 2.83489 0
M  V30 1734 H 167.823 6.40026 2.74481 0
M  V30 1735 H 165.45 7.10895 2.69318 0
M  V30 1736 N 167.025 -1.13721 1.09112 0
M  V30 1737 C 167.973 -2.21103 0.722219 0
M  V30 1738 C 168.967 -1.67147 -0.275374 0
M  V30 1739 O 170.173 -1.79477 -0.137176 0
M  V30 1740 H 166.548 -0.720445 0.215553 0
M  V30 1741 H 168.519 -2.49483 1.63709 0
M  V30 1742 C 167.268 -3.47352 0.15543 0
M  V30 1743 H 166.591 -3.89206 0.914246 0
M  V30 1744 H 168.031 -4.2395 -0.0647967 0
M  V30 1745 C 166.49 -3.1814 -1.10852 0
M  V30 1746 O 167.02 -3.36604 -2.19227 0
M  V30 1747 N 165.226 -2.72045 -1.02176 0
M  V30 1748 H 164.773 -2.57221 -0.139764 0
M  V30 1749 H 164.731 -2.52875 -1.8682 0
M  V30 1750 N 168.503 -0.877838 -1.30888 0
M  V30 1751 C 169.45 -0.337538 -2.28318 0
M  V30 1752 C 170.42 0.568346 -1.56074 0
M  V30 1753 O 171.605 0.498298 -1.84178 0
M  V30 1754 C 168.745 0.448142 -3.42178 0
M  V30 1755 C 167.858 -0.48615 -4.29256 0
M  V30 1756 C 166.993 0.314427 -5.30269 0
M  V30 1757 C 166.032 -0.615791 -6.08995 0
M  V30 1758 N 165.169 0.14902 -7.01942 0
M  V30 1759 H 170.009 -1.17356 -2.73919 0
M  V30 1760 H 167.546 -0.590094 -1.34745 0
M  V30 1761 H 169.504 0.919517 -4.06941 0
M  V30 1762 H 168.134 1.24879 -2.97666 0
M  V30 1763 H 167.186 -1.076 -3.64865 0
M  V30 1764 H 168.498 -1.19909 -4.84173 0
M  V30 1765 H 167.652 0.847969 -6.00745 0
M  V30 1766 H 166.391 1.06062 -4.76027 0
M  V30 1767 H 165.396 -1.16102 -5.37401 0
M  V30 1768 H 166.621 -1.36097 -6.65323 0
M  V30 1769 H 164.567 0.877884 -6.50099 0
M  V30 1770 H 164.484 -0.504433 -7.54315 0
M  V30 1771 H 165.752 0.663537 -7.76671 0
M  V30 1772 N 169.982 1.44106 -0.638065 0
M  V30 1773 C 170.892 2.34513 0.0637334 0
M  V30 1774 C 171.908 1.53018 0.828346 0
M  V30 1775 O 173.084 1.85723 0.779036 0
M  V30 1776 C 170.149 3.31095 1.02844 0
M  V30 1777 C 169.21 4.28497 0.26244 0
M  V30 1778 C 168.443 5.20465 1.1812 0
M  V30 1779 O 168.666 5.16514 2.42011 0
M  V30 1780 O 167.6 5.98251 0.661774 0
M  V30 1781 H 171.426 2.95989 -0.68003 0
M  V30 1782 H 169.011 1.43994 -0.398252 0
M  V30 1783 H 170.893 3.90526 1.58327 0
M  V30 1784 H 169.568 2.72144 1.7527 0
M  V30 1785 H 168.475 3.72592 -0.335602 0
M  V30 1786 H 169.808 4.90388 -0.421936 0
M  V30 1787 N 171.46 0.379036 1.52974 0
M  V30 1788 C 172.871 -0.0972525 1.86447 0
M  V30 1789 C 173.222 -1.47027 1.29914 0
M  V30 1790 O 172.347 -2.07135 0.626433 0
M  V30 1791 C 172.942 -0.183248 3.38304 0
M  V30 1792 C 171.501 -0.603812 3.71525 0
M  V30 1793 C 170.648 0.240632 2.76254 0
M  V30 1794 H 173.599 0.597316 1.4703 0
M  V30 1795 H 173.62 -1.00432 3.67006 0
M  V30 1796 H 173.132 0.816191 3.79421 0
M  V30 1797 H 171.233 -1.61099 3.35973 0
M  V30 1798 H 171.346 -0.369086 4.77676 0
M  V30 1799 H 169.71 -0.292548 2.53014 0
M  V30 1800 H 170.493 1.23786 3.20206 0
M  V30 1801 N 172.938 -1.57226 0.108567 0
M  V30 1802 C 174.163 -1.99604 -0.563303 0
M  V30 1803 C 174.588 -0.987563 -1.6009 0
M  V30 1804 O 173.946 0.0421687 -1.81251 0
M  V30 1805 C 173.994 -3.40902 -1.17552 0
M  V30 1806 O 173.098 -3.42896 -2.2912 0
M  V30 1807 H 172.439 -0.648704 -0.1417 0
M  V30 1808 H 174.969 -2.03679 0.193961 0
M  V30 1809 H 174.979 -3.78886 -1.51357 0
M  V30 1810 H 173.654 -4.1382 -0.415445 0
M  V30 1811 H 172.231 -3.1672 -1.96832 0
M  V30 1812 N 174.416 0.165178 -1.56732 0
M  V30 1813 C 175.832 0.517174 -1.50988 0
M  V30 1814 C 176.032 1.84331 -0.813894 0
M  V30 1815 O 175.088 2.49672 -0.37682 0
M  V30 1816 C 176.401 0.544261 -2.95733 0
M  V30 1817 C 177.949 0.631039 -3.06573 0
M  V30 1818 C 178.424 0.68896 -4.52788 0
M  V30 1819 N 179.915 0.751683 -4.5706 0
M  V30 1820 C 180.65 0.817177 -5.67547 0
M  V30 1821 N 180.146 0.843129 -6.8765 0
M  V30 1822 N 181.939 0.856668 -5.55534 0
M  V30 1823 H 174.09 -0.704318 -2.00382 0
M  V30 1824 H 176.353 -0.254687 -0.913148 0
M  V30 1825 H 176.059 -0.361607 -3.49836 0
M  V30 1826 H 175.933 1.3886 -3.5071 0
M  V30 1827 H 178.32 1.52733 -2.52501 0
M  V30 1828 H 178.401 -0.240095 -2.54671 0
M  V30 1829 H 178.045 -0.2031 -5.07494 0
M  V30 1830 H 177.975 1.57633 -5.02454 0
M  V30 1831 H 180.466 0.739661 -3.70591 0
M  V30 1832 H 180.779 0.894448 -7.67606 0
M  V30 1833 H 179.124 0.811304 -6.90248 0
M  V30 1834 H 182.315 0.833437 -4.60621 0
M  V30 1835 H 182.488 0.904247 -6.4166 0
M  V30 1836 N 175.894 1.51508 0.433938 0
M  V30 1837 C 176.841 1.73068 1.52696 0
M  V30 1838 C 177.811 0.572441 1.55924 0
M  V30 1839 O 178.996 0.807253 1.72882 0
M  V30 1840 C 176.136 1.86474 2.90381 0
M  V30 1841 C 175.249 3.14037 2.96656 0
M  V30 1842 C 174.384 3.18019 4.25485 0
M  V30 1843 C 173.423 4.39882 4.2564 0
M  V30 1844 N 172.56 4.41394 5.45999 0
M  V30 1845 H 177.4 2.66366 1.33615 0
M  V30 1846 H 174.937 1.32008 0.649018 0
M  V30 1847 H 176.895 1.92229 3.70275 0
M  V30 1848 H 175.525 0.965809 3.08013 0
M  V30 1849 H 174.577 3.17575 2.09404 0
M  V30 1850 H 175.889 4.0394 2.92633 0
M  V30 1851 H 175.043 3.22708 5.13755 0
M  V30 1852 H 173.782 2.2601 4.3217 0
M  V30 1853 H 172.787 4.35366 3.35763 0
M  V30 1854 H 174.012 5.33159 4.20617 0
M  V30 1855 H 171.958 3.52258 5.53399 0
M  V30 1856 H 171.875 5.25111 5.4387 0
M  V30 1857 H 173.143 4.50281 6.36292 0
M  V30 1858 N 177.372 -0.689602 1.41712 0
M  V30 1859 C 178.335 -1.78521 1.43746 0
M  V30 1860 C 179.335 -1.57436 0.327191 0
M  V30 1861 O 180.525 -1.64 0.587348 0
M  V30 1862 C 177.657 -3.16971 1.25467 0
M  V30 1863 H 178.85 -1.78108 2.41283 0
M  V30 1864 H 176.403 -0.89781 1.27942 0
M  V30 1865 H 177.138 -3.23019 0.287948 0
M  V30 1866 H 176.923 -3.33678 2.05917 0
M  V30 1867 H 178.413 -3.96935 1.2974 0
M  V30 1868 N 178.85 -1.27639 -0.924453 0
M  V30 1869 C 179.78 -1.13166 -2.04244 0
M  V30 1870 C 180.761 -0.032256 -1.70069 0
M  V30 1871 O 181.946 -0.207328 -1.9309 0
M  V30 1872 C 179.076 -0.781496 -3.38393 0
M  V30 1873 C 178.03 -1.83449 -3.86692 0
M  V30 1874 C 177.356 -1.33822 -5.17683 0
M  V30 1875 C 178.656 -3.23917 -4.09726 0
M  V30 1876 H 180.35 -2.06689 -2.1661 0
M  V30 1877 H 177.896 -0.995136 -1.04082 0
M  V30 1878 H 179.849 -0.667057 -4.16087 0
M  V30 1879 H 178.573 0.189439 -3.2605 0
M  V30 1880 H 177.232 -1.93789 -3.11193 0
M  V30 1881 H 176.88 -0.35665 -5.01734 0
M  V30 1882 H 176.58 -2.04224 -5.50968 0
M  V30 1883 H 178.104 -1.23679 -5.97943 0
M  V30 1884 H 179.518 -3.16559 -4.77978 0
M  V30 1885 H 177.915 -3.92059 -4.54324 0
M  V30 1886 H 178.985 -3.68729 -3.14908 0
M  V30 1887 N 180.328 1.1314 -1.09713 0
M  V30 1888 C 181.605 1.80762 -0.747302 0
M  V30 1889 C 181.985 1.96663 0.767265 0
M  V30 1890 O 181.333 1.53706 1.69076 0
M  V30 1891 C 181.543 3.15606 -1.48975 0
M  V30 1892 C 182.891 3.90914 -1.65746 0
M  V30 1893 O 183.915 3.25239 -1.45251 0
M  V30 1894 O 182.774 5.08718 -1.9967 0
M  V30 1895 H 179.868 0.782103 -0.268782 0
M  V30 1896 H 182.414 1.20041 -1.19951 0
M  V30 1897 H 181.186 2.99278 -2.52088 0
M  V30 1898 H 180.809 3.84029 -1.02991 0
M  V30 1899 N 181.806 0.884767 1.30421 0
M  V30 1900 C 183.031 0.517288 2.00845 0
M  V30 1901 C 183.456 -0.886779 1.65885 0
M  V30 1902 O 182.814 -1.58768 0.875354 0
M  V30 1903 C 182.862 0.698994 3.5376 0
M  V30 1904 O 181.966 -0.255208 4.1161 0
M  V30 1905 H 181.307 0.203872 0.631927 0
M  V30 1906 H 183.837 1.19225 1.66272 0
M  V30 1907 H 183.847 0.597912 4.03595 0
M  V30 1908 H 182.522 1.72271 3.78544 0
M  V30 1909 H 181.099 -0.10784 3.72744 0
M  V30 1910 N 183.284 -1.43765 0.645699 0
M  V30 1911 C 184.514 -2.05953 0.163318 0
M  V30 1912 C 184.922 -1.48432 -1.17322 0
M  V30 1913 O 184.265 -0.607295 -1.73371 0
M  V30 1914 C 184.327 -3.59499 -0.0103065 0
M  V30 1915 C 183.991 -4.39563 1.25035 0
M  V30 1916 C 184.988 -4.72108 2.17739 0
M  V30 1917 C 182.673 -4.79697 1.48983 0
M  V30 1918 C 184.667 -5.43688 3.3269 0
M  V30 1919 C 182.354 -5.51023 2.64229 0
M  V30 1920 C 183.352 -5.8294 3.55908 0
M  V30 1921 O 183.04 -6.5281 4.69142 0
M  V30 1922 H 182.772 -0.670798 0.0836986 0
M  V30 1923 H 185.326 -1.85384 0.884407 0
M  V30 1924 H 183.556 -3.78613 -0.78669 0
M  V30 1925 H 185.245 -4.03408 -0.449087 0
M  V30 1926 H 186.011 -4.41627 2.00476 0
M  V30 1927 H 181.89 -4.54266 0.785078 0
M  V30 1928 H 185.434 -5.68517 4.04269 0
M  V30 1929 H 181.331 -5.8092 2.81429 0
M  V30 1930 H 182.099 -6.71288 4.6831 0
M  V30 1931 N 184.763 -0.387143 -1.52771 0
M  V30 1932 C 186.04 0.253197 -1.93954 0
M  V30 1933 C 186.42 1.64545 -1.32243 0
M  V30 1934 O 185.768 2.23191 -0.489699 0
M  V30 1935 C 185.978 0.281722 -3.47861 0
M  V30 1936 C 187.326 0.511715 -4.21505 0
M  V30 1937 O 188.35 0.362023 -3.54356 0
M  V30 1938 O 187.209 0.804847 -5.40541 0
M  V30 1939 H 184.303 0.156845 -0.811991 0
M  V30 1940 H 186.849 -0.441494 -1.63856 0
M  V30 1941 H 185.621 -0.693571 -3.85104 0
M  V30 1942 H 185.244 1.02142 -3.84256 0
M  V30 1943 N 186.241 1.57166 -0.116904 0
M  V30 1944 C 187.188 2.15202 0.83408 0
M  V30 1945 C 188.158 1.07644 1.26499 0
M  V30 1946 O 189.343 1.35541 1.34288 0
M  V30 1947 C 186.483 2.75405 2.07957 0
M  V30 1948 C 185.596 3.97264 1.69721 0
M  V30 1949 C 184.731 4.45561 2.89221 0
M  V30 1950 C 183.77 5.59956 2.47215 0
M  V30 1951 N 182.907 6.03006 3.59622 0
M  V30 1952 H 187.747 2.96141 0.332335 0
M  V30 1953 H 185.284 1.46309 0.152349 0
M  V30 1954 H 187.242 3.08439 2.80929 0
M  V30 1955 H 185.872 1.97159 2.55594 0
M  V30 1956 H 184.924 3.70404 0.866316 0
M  V30 1957 H 186.236 4.80226 1.34849 0
M  V30 1958 H 185.39 4.80493 3.7042 0
M  V30 1959 H 184.129 3.61544 3.27318 0
M  V30 1960 H 183.134 5.2463 1.64448 0
M  V30 1961 H 184.359 6.45738 2.10238 0
M  V30 1962 H 182.305 5.21931 3.97396 0
M  V30 1963 H 182.222 6.80819 3.28667 0
M  V30 1964 H 183.49 6.42576 4.41267 0
M  V30 1965 N 187.719 -0.156864 1.56817 0
M  V30 1966 C 188.682 -1.17781 1.96622 0
M  V30 1967 C 189.682 -1.36401 0.851555 0
M  V30 1968 O 190.872 -1.33561 1.11836 0
M  V30 1969 C 188.004 -2.54008 2.27361 0
M  V30 1970 H 189.197 -0.836564 2.87996 0
M  V30 1971 H 186.75 -0.39985 1.51099 0
M  V30 1972 H 187.485 -2.9312 1.38748 0
M  V30 1973 H 187.27 -2.41856 3.08623 0
M  V30 1974 H 188.76 -3.27558 2.59029 0
M  V30 1975 N 189.197 -1.51736 -0.425897 0
M  V30 1976 C 190.427 -1.68549 -1.19476 0
M  V30 1977 C 190.835 -0.387288 -1.85194 0
M  V30 1978 O 190.178 0.645142 -1.71999 0
M  V30 1979 C 190.24 -2.75275 -2.31223 0
M  V30 1980 C 189.904 -4.17534 -1.8578 0
M  V30 1981 C 190.901 -5.01936 -1.35485 0
M  V30 1982 C 188.586 -4.6369 -1.93123 0
M  V30 1983 C 190.58 -6.30559 -0.931347 0
M  V30 1984 C 188.267 -5.92307 -1.50384 0
M  V30 1985 C 189.265 -6.75569 -1.00473 0
M  V30 1986 O 188.953 -8.0178 -0.583452 0
M  V30 1987 H 188.685 -0.568525 -0.365725 0
M  V30 1988 H 191.239 -1.98982 -0.509444 0
M  V30 1989 H 189.469 -2.40182 -3.03067 0
M  V30 1990 H 191.158 -2.80853 -2.93047 0
M  V30 1991 H 191.924 -4.67475 -1.29197 0
M  V30 1992 H 187.803 -3.98997 -2.30916 0
M  V30 1993 H 191.347 -6.95498 -0.541084 0
M  V30 1994 H 187.244 -6.2628 -1.56346 0
M  V30 1995 H 188.012 -8.1543 -0.708275 0
M  V30 1996 N 190.675 0.682077 -1.42076 0
M  V30 1997 C 191.905 1.46844 -1.45329 0
M  V30 1998 C 192.313 1.89102 -0.0609328 0
M  V30 1999 O 191.656 1.58238 0.933082 0
M  V30 2000 C 191.718 2.75375 -2.31104 0
M  V30 2001 C 191.382 2.55238 -3.79081 0
M  V30 2002 C 192.379 2.20309 -4.70914 0
M  V30 2003 C 190.064 2.70459 -4.2327 0
M  V30 2004 C 192.058 2.00859 -6.04925 0
M  V30 2005 C 189.745 2.50624 -5.57343 0
M  V30 2006 C 190.743 2.15876 -6.47986 0
M  V30 2007 O 190.431 1.96227 -7.79583 0
M  V30 2008 H 190.163 0.4586 -0.496651 0
M  V30 2009 H 192.717 0.846131 -1.87162 0
M  V30 2010 H 190.947 3.40061 -1.84107 0
M  V30 2011 H 192.636 3.37231 -2.25898 0
M  V30 2012 H 193.402 2.08153 -4.38061 0
M  V30 2013 H 189.281 2.96485 -3.53012 0
M  V30 2014 H 192.825 1.7366 -6.75639 0
M  V30 2015 H 188.722 2.62375 -5.89771 0
M  V30 2016 H 189.49 2.10883 -7.90867 0
M  V30 2017 N 192.153 1.28127 0.917671 0
M  V30 2018 C 193.399 1.15223 1.66888 0
M  V30 2019 C 193.732 -0.299293 1.9188 0
M  V30 2020 O 193.007 -1.21805 1.51637 0
M  V30 2021 C 193.29 1.94706 3.02922 0
M  V30 2022 C 193.143 3.47898 2.85109 0
M  V30 2023 C 194.462 1.75939 4.03402 0
M  V30 2024 H 191.581 0.419946 0.605652 0
M  V30 2025 H 194.223 1.57398 1.06423 0
M  V30 2026 H 192.373 1.58864 3.54534 0
M  V30 2027 H 194.045 3.93624 2.40537 0
M  V30 2028 H 192.288 3.7373 2.20246 0
M  V30 2029 H 192.959 3.98765 3.81694 0
M  V30 2030 H 195.435 2.07209 3.60837 0
M  V30 2031 H 194.311 2.33931 4.96556 0
M  V30 2032 H 194.572 0.709877 4.36364 0
M  V30 2033 N 193.631 -1.12557 1.10312 0
M  V30 2034 C 194.879 -1.83675 0.843091 0
M  V30 2035 C 195.2 -1.84435 -0.633131 0
M  V30 2036 O 194.47 -1.30657 -1.45964 0
M  V30 2037 H 193.05 -0.680138 0.308904 0
M  V30 2038 H 195.712 -1.36301 1.39313 0
M  V30 2039 H 194.808 -2.87908 1.2048 0
M  V30 2040 N 195.109 -0.891671 -1.2995 0
M  V30 2041 C 196.337 -0.52866 -2.00032 0
M  V30 2042 C 196.752 0.884574 -1.66795 0
M  V30 2043 O 196.109 1.5827 -0.908669 0
M  V30 2044 C 196.16 -0.701814 -3.54622 0
M  V30 2045 O 195.881 -2.05942 -3.86678 0
M  V30 2046 C 197.382 -0.342683 -4.41973 0
M  V30 2047 H 194.602 -0.203659 -0.639347 0
M  V30 2048 H 197.146 -1.19881 -1.65677 0
M  V30 2049 H 195.301 -0.0789468 -3.8732 0
M  V30 2050 H 195.715 -2.08291 -4.81368 0
M  V30 2051 H 197.189 -0.514709 -5.49595 0
M  V30 2052 H 197.666 0.71975 -4.33262 0
M  V30 2053 H 198.272 -0.942154 -4.14733 0
M  V30 2054 N 196.587 1.43421 -0.653314 0
M  V30 2055 C 197.864 1.95361 -0.0966581 0
M  V30 2056 C 198.244 1.59461 1.38331 0
M  V30 2057 O 197.592 0.879777 2.10884 0
M  V30 2058 C 197.802 3.47311 -0.342988 0
M  V30 2059 C 199.15 4.23875 -0.24798 0
M  V30 2060 O 200.174 3.55133 -0.275553 0
M  V30 2061 O 199.033 5.4623 -0.171771 0
M  V30 2062 H 196.127 0.826945 0.00956291 0
M  V30 2063 H 198.673 1.5336 -0.726558 0
M  V30 2064 H 197.445 3.66569 -1.36906 0
M  V30 2065 H 197.068 3.9631 0.319975 0
M  V30 2066 N 198.065 0.39524 1.52563 0
M  V30 2067 C 199.29 -0.187456 2.06551 0
M  V30 2068 C 199.715 -1.39249 1.26457 0
M  V30 2069 O 199.073 -1.78947 0.291151 0
M  V30 2070 C 199.121 -0.529985 3.56684 0
M  V30 2071 O 198.225 -1.62307 3.79118 0
M  V30 2072 H 197.566 -0.0202537 0.663691 0
M  V30 2073 H 200.096 0.564426 1.96661 0
M  V30 2074 H 200.106 -0.792598 4.00227 0
M  V30 2075 H 198.781 0.350987 4.14416 0
M  V30 2076 H 197.358 -1.3537 3.47461 0
M  V30 2077 N 199.544 -1.57102 0.125237 0
M  V30 2078 C 200.491 -2.15641 -0.822655 0
M  V30 2079 C 201.461 -1.08313 -1.25927 0
M  V30 2080 O 202.646 -1.36251 -1.33567 0
M  V30 2081 C 199.786 -2.76504 -2.06494 0
M  V30 2082 C 198.899 -3.98158 -1.67612 0
M  V30 2083 C 198.034 -4.47088 -2.86854 0
M  V30 2084 C 197.073 -5.6126 -2.44242 0
M  V30 2085 N 196.21 -6.04905 -3.56419 0
M  V30 2086 H 201.05 -2.96313 -0.316625 0
M  V30 2087 H 198.587 -1.46388 -0.144588 0
M  V30 2088 H 200.545 -3.09925 -2.79289 0
M  V30 2089 H 199.175 -1.98512 -2.54545 0
M  V30 2090 H 198.227 -3.70858 -0.846661 0
M  V30 2091 H 199.539 -4.80934 -1.32301 0
M  V30 2092 H 198.693 -4.82451 -3.67867 0
M  V30 2093 H 197.432 -3.63275 -3.25396 0
M  V30 2094 H 196.437 -5.25495 -1.61663 0
M  V30 2095 H 197.662 -6.46843 -2.0681 0
M  V30 2096 H 195.608 -5.24032 -3.94623 0
M  V30 2097 H 195.525 -6.82552 -3.25051 0
M  V30 2098 H 196.793 -6.44907 -4.37853 0
M  V30 2099 N 201.022 0.148545 -1.56898 0
M  V30 2100 C 201.932 1.20293 -2.01412 0
M  V30 2101 C 202.948 1.47107 -0.929273 0
M  V30 2102 O 204.124 1.58807 -1.23863 0
M  V30 2103 C 201.189 2.51682 -2.38447 0
M  V30 2104 C 200.25 2.32529 -3.60872 0
M  V30 2105 C 199.483 3.57653 -3.96132 0
M  V30 2106 O 199.706 4.63771 -3.32073 0
M  V30 2107 O 198.64 3.50408 -4.89385 0
M  V30 2108 H 202.466 0.855025 -2.91416 0
M  V30 2109 H 200.051 0.357151 -1.45068 0
M  V30 2110 H 201.933 3.29147 -2.63135 0
M  V30 2111 H 200.608 2.86006 -1.51599 0
M  V30 2112 H 199.515 1.53019 -3.41373 0
M  V30 2113 H 200.848 2.03121 -4.48333 0
M  V30 2114 N 202.5 1.5196 0.417844 0
M  V30 2115 C 203.725 1.69717 1.1921 0
M  V30 2116 C 204.15 0.402148 1.83751 0
M  V30 2117 O 203.508 -0.639593 1.69643 0
M  V30 2118 C 203.556 2.82794 2.2374 0
M  V30 2119 O 202.66 2.47756 3.29683 0
M  V30 2120 H 202.001 0.565263 0.348387 0
M  V30 2121 H 204.531 1.98621 0.490985 0
M  V30 2122 H 204.541 3.07452 2.68212 0
M  V30 2123 H 203.216 3.76756 1.76146 0
M  V30 2124 H 201.793 2.33739 2.90552 0
M  V30 2125 N 203.978 -0.674533 1.42435 0
M  V30 2126 C 205.226 -1.43175 1.42637 0
M  V30 2127 C 205.547 -1.94951 0.0438992 0
M  V30 2128 O 204.817 -1.7308 -0.917607 0
M  V30 2129 H 203.397 -0.531307 0.525092 0
M  V30 2130 H 206.059 -0.797006 1.77859 0
M  V30 2131 H 205.155 -2.28463 2.12629 0
M  V30 2132 N 205.456 -1.28612 -0.910864 0
M  V30 2133 C 206.702 -1.16106 -1.66274 0
M  V30 2134 C 207.035 0.289113 -1.92036 0
M  V30 2135 O 206.31 1.21 -1.52281 0
M  V30 2136 C 206.593 -1.96309 -3.01885 0
M  V30 2137 C 206.446 -3.49405 -2.8326 0
M  V30 2138 C 207.765 -1.78076 -4.02463 0
M  V30 2139 H 204.884 -0.423152 -0.603417 0
M  V30 2140 H 207.526 -1.57961 -1.05586 0
M  V30 2141 H 205.676 -1.60742 -3.53687 0
M  V30 2142 H 207.348 -3.94894 -2.38446 0
M  V30 2143 H 205.591 -3.74893 -2.18261 0
M  V30 2144 H 206.262 -4.00784 -3.79574 0
M  V30 2145 H 208.738 -2.0912 -3.59733 0
M  V30 2146 H 207.614 -2.36561 -4.95308 0
M  V30 2147 H 207.875 -0.733008 -4.35981 0
M  V30 2148 N 206.934 1.1197 -1.10907 0
M  V30 2149 C 208.183 1.82947 -0.849302 0
M  V30 2150 C 208.496 1.85275 0.627112 0
M  V30 2151 O 209.702 2.52296 1.00295 0
M  V30 2152 C 208.158 3.28529 -1.46959 0
M  V30 2153 C 207.766 3.34546 -2.97965 0
M  V30 2154 C 209.51 4.04443 -1.28942 0
M  V30 2155 C 207.417 4.74491 -3.53004 0
M  V30 2156 H 206.347 0.685477 -0.314065 0
M  V30 2157 H 208.998 1.2604 -1.33365 0
M  V30 2158 H 207.38 3.85333 -0.912917 0
M  V30 2159 H 208.554 2.87654 -3.59989 0
M  V30 2160 H 206.869 2.72108 -3.15192 0
M  V30 2161 H 209.466 5.07787 -1.67502 0
M  V30 2162 H 209.809 4.15656 -0.231456 0
M  V30 2163 H 210.342 3.5401 -1.81443 0
M  V30 2164 H 207.081 4.68474 -4.58489 0
M  V30 2165 H 206.601 5.21816 -2.9575 0
M  V30 2166 H 208.28 5.4344 -3.51115 0
M  V30 2167 N 208.412 0.89855 1.29475 0
M  V30 2168 C 209.344 0.332726 2.26772 0
M  V30 2169 C 210.357 -0.520323 1.54261 0
M  V30 2170 O 211.546 -0.337668 1.75277 0
M  V30 2171 C 208.646 -0.544334 3.345 0
M  V30 2172 C 207.819 0.282728 4.36485 0
M  V30 2173 C 206.878 -0.526982 5.23555 0
M  V30 2174 O 205.904 0.0551165 5.69173 0
M  V30 2175 N 207.106 -1.83331 5.5079 0
M  V30 2176 H 209.871 1.16897 2.75962 0
M  V30 2177 H 207.432 0.762919 1.42798 0
M  V30 2178 H 209.424 -1.09239 3.89678 0
M  V30 2179 H 207.994 -1.28127 2.85136 0
M  V30 2180 H 207.214 1.01221 3.80983 0
M  V30 2181 H 208.502 0.84918 5.01664 0
M  V30 2182 H 207.9 -2.32898 5.15534 0
M  V30 2183 H 206.457 -2.32852 6.08788 0
M  V30 2184 N 209.89 -1.43072 0.660911 0
M  V30 2185 C 211.138 -2.01323 0.177094 0
M  V30 2186 C 211.459 -1.5245 -1.2159 0
M  V30 2187 O 210.729 -0.740322 -1.81373 0
M  V30 2188 H 209.309 -0.744382 0.0624804 0
M  V30 2189 H 211.971 -1.75179 0.854305 0
M  V30 2190 H 211.067 -3.11649 0.167641 0
M  V30 2191 N 211.368 -0.403325 -1.52352 0
M  V30 2192 C 212.645 0.232611 -1.94212 0
M  V30 2193 C 213.025 1.63133 -1.33981 0
M  V30 2194 O 212.373 2.22659 -0.513344 0
M  V30 2195 C 212.583 0.244811 -3.4814 0
M  V30 2196 C 213.931 0.46698 -4.22024 0
M  V30 2197 O 214.955 0.324419 -3.5472 0
M  V30 2198 O 213.814 0.74747 -5.41364 0
M  V30 2199 H 210.908 0.148223 -0.813609 0
M  V30 2200 H 213.454 -0.458848 -1.63379 0
M  V30 2201 H 212.226 -0.734378 -3.84347 0
M  V30 2202 H 211.849 0.980611 -3.85318 0
M  V30 2203 N 212.846 1.57033 -0.133567 0
M  V30 2204 C 213.776 2.1909 0.807567 0
M  V30 2205 C 214.757 1.13517 1.26681 0
M  V30 2206 O 215.942 1.41809 1.32679 0
M  V30 2207 C 213.072 2.80188 2.05212 0
M  V30 2208 C 212.026 3.91471 1.73015 0
M  V30 2209 C 211.352 4.39443 3.04622 0
M  V30 2210 C 212.652 5.12886 0.987168 0
M  V30 2211 H 214.346 2.97988 0.290403 0
M  V30 2212 H 211.892 1.43335 0.138239 0
M  V30 2213 H 213.845 3.22264 2.71521 0
M  V30 2214 H 212.569 1.98601 2.59278 0
M  V30 2215 H 211.228 3.49993 1.0909 0
M  V30 2216 H 210.876 3.54695 3.56651 0
M  V30 2217 H 210.576 5.14495 2.83847 0
M  V30 2218 H 212.1 4.8418 3.72024 0
M  V30 2219 H 213.514 5.51891 1.55208 0
M  V30 2220 H 211.911 5.93615 0.87985 0
M  V30 2221 H 212.981 4.84894 -0.0235286 0
M  V30 2222 N 214.325 -0.140222 1.56975 0
M  V30 2223 C 215.574 -0.850152 1.82908 0
M  V30 2224 C 215.887 -1.82028 0.715892 0
M  V30 2225 O 217.093 -2.57485 0.861016 0
M  V30 2226 C 215.549 -1.5625 3.24213 0
M  V30 2227 C 215.157 -0.63443 4.43485 0
M  V30 2228 C 216.901 -2.25881 3.59413 0
M  V30 2229 C 214.808 -1.34879 5.75814 0
M  V30 2230 H 213.738 -0.321221 0.682153 0
M  V30 2231 H 216.389 -0.102874 1.83211 0
M  V30 2232 H 214.771 -2.35565 3.18316 0
M  V30 2233 H 215.945 0.12398 4.60633 0
M  V30 2234 H 214.26 -0.0461836 4.16374 0
M  V30 2235 H 216.857 -2.79978 4.5554 0
M  V30 2236 H 217.2 -3.02693 2.85802 0
M  V30 2237 H 217.733 -1.53477 3.67001 0
M  V30 2238 H 214.472 -0.622385 6.52539 0
M  V30 2239 H 213.992 -2.07974 5.6259 0
M  V30 2240 H 215.671 -1.88784 6.18845 0
M  V30 2241 N 215.803 -1.52179 -0.40978 0
M  V30 2242 C 216.766 -1.74853 -1.48186 0
M  V30 2243 C 217.766 -0.618417 -1.48433 0
M  V30 2244 O 218.956 -0.886286 -1.49969 0
M  V30 2245 C 216.088 -1.8303 -2.87598 0
M  V30 2246 H 217.281 -2.70559 -1.29374 0
M  V30 2247 H 214.834 -1.42586 -0.640233 0
M  V30 2248 H 215.569 -0.89236 -3.11781 0
M  V30 2249 H 215.354 -2.65187 -2.88822 0
M  V30 2250 H 216.844 -2.02316 -3.65319 0
M  V30 2251 N 217.281 0.66697 -1.42791 0
M  V30 2252 C 218.228 1.7803 -1.4688 0
M  V30 2253 C 219.198 1.6299 -0.319919 0
M  V30 2254 O 220.383 1.83432 -0.525118 0
M  V30 2255 C 217.523 3.1611 -1.38451 0
M  V30 2256 C 216.636 3.42381 -2.63437 0
M  V30 2257 C 215.771 4.70232 -2.47094 0
M  V30 2258 C 214.81 4.89564 -3.67415 0
M  V30 2259 N 213.947 6.08661 -3.49966 0
M  V30 2260 H 218.787 1.7387 -2.42019 0
M  V30 2261 H 216.324 0.84868 -1.20149 0
M  V30 2262 H 218.282 3.95914 -1.31561 0
M  V30 2263 H 216.912 3.19374 -0.469033 0
M  V30 2264 H 215.964 2.56774 -2.80662 0
M  V30 2265 H 217.276 3.52557 -3.52853 0
M  V30 2266 H 216.43 5.5814 -2.37834 0
M  V30 2267 H 215.169 4.62353 -1.5518 0
M  V30 2268 H 214.174 4.00096 -3.77099 0
M  V30 2269 H 215.399 4.99282 -4.6032 0
M  V30 2270 H 213.345 6.0194 -2.60776 0
M  V30 2271 H 213.262 6.19733 -4.32975 0
M  V30 2272 H 214.53 6.99226 -3.44532 0
M  V30 2273 N 218.759 1.29093 0.90403 0
M  V30 2274 C 219.709 1.10482 1.99443 0
M  V30 2275 C 220.693 0.0255401 1.6088 0
M  V30 2276 O 221.885 0.24677 1.75271 0
M  V30 2277 C 219.014 0.778882 3.34348 0
M  V30 2278 C 218.1 1.89749 3.79284 0
M  V30 2279 N 218.491 3.14045 3.96497 0
M  V30 2280 C 216.789 1.78955 4.08523 0
M  V30 2281 C 217.49 3.86996 4.34292 0
M  V30 2282 N 216.466 3.14909 4.43095 0
M  V30 2283 H 220.268 2.04778 2.10815 0
M  V30 2284 H 217.782 1.20155 1.09255 0
M  V30 2285 H 219.779 0.62661 4.12164 0
M  V30 2286 H 218.439 -0.156205 3.24324 0
M  V30 2287 H 219.45 3.49548 3.82148 0
M  V30 2288 H 216.127 0.926886 4.07081 0
M  V30 2289 H 217.517 4.93941 4.55491 0
M  V30 2290 N 220.237 -1.11381 1.11499 0
M  V30 2291 C 221.483 -1.83597 0.875423 0
M  V30 2292 C 221.838 -1.83048 -0.592555 0
M  V30 2293 O 221.131 -1.27304 -1.43193 0
M  V30 2294 C 221.325 -3.30026 1.37177 0
M  V30 2295 C 221.154 -3.44837 2.88647 0
M  V30 2296 C 219.924 -3.57825 3.56776 0
M  V30 2297 C 222.122 -3.3907 3.86699 0
M  V30 2298 N 220.104 -3.61113 4.96458 0
M  V30 2299 C 221.475 -3.48986 5.12454 0
M  V30 2300 C 223.53 -3.22605 3.7925 0
M  V30 2301 C 222.233 -3.44135 6.31636 0
M  V30 2302 C 224.259 -3.19072 4.97943 0
M  V30 2303 C 223.621 -3.29559 6.22551 0
M  V30 2304 H 219.72 -0.687044 0.37349 0
M  V30 2305 H 222.304 -1.33265 1.41946 0
M  V30 2306 H 220.475 -3.78874 0.854919 0
M  V30 2307 H 222.207 -3.90153 1.07529 0
M  V30 2308 H 218.962 -3.60414 3.07244 0
M  V30 2309 H 219.386 -3.66394 5.69284 0
M  V30 2310 H 224.028 -3.13382 2.83816 0
M  V30 2311 H 221.746 -3.52126 7.27347 0
M  V30 2312 H 225.332 -3.07498 4.93899 0
M  V30 2313 H 224.212 -3.26815 7.12855 0
M  V30 2314 N 221.715 -0.905404 -1.28997 0
M  V30 2315 C 222.647 -0.344748 -2.26592 0
M  V30 2316 C 223.66 0.512135 -1.54535 0
M  V30 2317 O 224.849 0.328368 -1.75454 0
M  V30 2318 C 221.949 0.526587 -3.34784 0
M  V30 2319 C 221.122 -0.305871 -4.36329 0
M  V30 2320 C 220.181 0.499209 -5.23827 0
M  V30 2321 O 219.207 -0.0853004 -5.69136 0
M  V30 2322 N 220.409 1.80408 -5.51755 0
M  V30 2323 H 223.174 -1.18359 -2.75338 0
M  V30 2324 H 220.735 -0.770481 -1.42391 0
M  V30 2325 H 222.727 1.07171 -3.90252 0
M  V30 2326 H 221.297 1.26613 -2.85811 0
M  V30 2327 H 220.517 -1.0324 -3.80441 0
M  V30 2328 H 221.805 -0.875773 -5.01206 0
M  V30 2329 H 221.203 2.3016 -5.16762 0
M  V30 2330 H 219.76 2.29621 -6.10014 0
M  V30 2331 N 223.193 1.4272 -0.668489 0
M  V30 2332 C 224.156 2.292 0.00448567 0
M  V30 2333 C 225.156 1.43001 0.735339 0
M  V30 2334 O 226.346 1.64461 0.57429 0
M  V30 2335 C 223.478 3.25375 1.01705 0
M  V30 2336 H 224.671 2.90199 -0.756608 0
M  V30 2337 H 222.224 1.50254 -0.430506 0
M  V30 2338 H 222.959 2.69301 1.80686 0
M  V30 2339 H 222.744 3.88944 0.496463 0
M  V30 2340 H 224.234 3.90245 1.48655 0
M  V30 2341 N 224.671 0.411399 1.52136 0
M  V30 2342 C 225.619 -0.427633 2.28635 0
M  V30 2343 C 226.613 -1.04383 1.33419 0
M  V30 2344 O 227.819 -0.981772 1.50868 0
M  V30 2345 H 224.194 -0.156689 0.735495 0
M  V30 2346 H 226.165 0.238761 2.97443 0
M  V30 2347 C 224.914 -1.53082 3.12188 0
M  V30 2348 H 224.237 -1.06601 3.85326 0
M  V30 2349 H 225.677 -2.09167 3.68816 0
M  V30 2350 C 224.136 -2.49946 2.25895 0
M  V30 2351 O 224.666 -3.53884 1.90076 0
M  V30 2352 N 222.872 -2.2021 1.8962 0
M  V30 2353 H 222.419 -1.35719 2.18948 0
M  V30 2354 H 222.377 -2.85266 1.32176 0
M  V30 2355 N 226.149 -1.5696 0.141893 0
M  V30 2356 C 227.081 -2.13619 -0.830627 0
M  V30 2357 C 228.094 -1.08439 -1.21428 0
M  V30 2358 O 229.283 -1.35734 -1.15925 0
M  V30 2359 C 226.383 -2.63978 -2.12529 0
M  V30 2360 C 225.556 -3.93504 -1.9098 0
M  V30 2361 C 224.615 -4.29225 -3.04388 0
M  V30 2362 O 223.641 -4.97641 -2.76302 0
M  V30 2363 N 224.843 -3.88393 -4.31429 0
M  V30 2364 H 227.608 -2.97691 -0.34641 0
M  V30 2365 H 225.169 -1.61846 -0.0418375 0
M  V30 2366 H 227.161 -2.84891 -2.87436 0
M  V30 2367 H 225.731 -1.84659 -2.52229 0
M  V30 2368 H 224.951 -3.81269 -1.00139 0
M  V30 2369 H 226.239 -4.78154 -1.73914 0
M  V30 2370 H 225.637 -3.33257 -4.57117 0
M  V30 2371 H 224.194 -4.14368 -5.03133 0
M  V30 2372 N 227.627 0.131896 -1.57047 0
M  V30 2373 C 228.875 0.840269 -1.83804 0
M  V30 2374 C 229.196 1.81017 -0.72512 0
M  V30 2375 O 228.466 1.94272 0.251995 0
M  V30 2376 H 227.046 0.313294 -0.678127 0
M  V30 2377 H 229.708 0.122294 -1.94516 0
M  V30 2378 H 228.804 1.39335 -2.79271 0
M  V30 2379 N 229.106 1.52395 0.401703 0
M  V30 2380 C 230.352 1.68019 1.14635 0
M  V30 2381 C 230.707 0.408722 1.88009 0
M  V30 2382 O 230 -0.597133 1.82057 0
M  V30 2383 C 230.194 2.84578 2.16217 0
M  V30 2384 C 230.023 4.22938 1.5282 0
M  V30 2385 C 228.793 4.88352 1.29772 0
M  V30 2386 C 230.991 5.04778 0.985094 0
M  V30 2387 N 228.973 6.10726 0.623455 0
M  V30 2388 C 230.344 6.1845 0.438172 0
M  V30 2389 C 232.399 4.90057 0.880275 0
M  V30 2390 C 231.102 7.19013 -0.203306 0
M  V30 2391 C 233.128 5.9086 0.252639 0
M  V30 2392 C 232.49 7.03829 -0.283573 0
M  V30 2393 H 228.589 0.668413 0.405892 0
M  V30 2394 H 231.173 1.89717 0.437674 0
M  V30 2395 H 229.344 2.64483 2.84435 0
M  V30 2396 H 231.076 2.89202 2.83098 0
M  V30 2397 H 227.831 4.46846 1.56926 0
M  V30 2398 H 228.255 6.76323 0.302733 0
M  V30 2399 H 232.897 4.02938 1.28065 0
M  V30 2400 H 230.615 8.05751 -0.615726 0
M  V30 2401 H 234.201 5.81543 0.172954 0
M  V30 2402 H 233.081 7.80493 -0.761575 0
M  V30 2403 N 230.584 -0.659388 1.43143 0
M  V30 2404 C 231.861 -1.41627 1.34912 0
M  V30 2405 C 232.241 -2.11099 -0.00607785 0
M  V30 2406 O 231.589 -2.04353 -1.02236 0
M  V30 2407 C 231.799 -2.40604 2.52805 0
M  V30 2408 C 233.147 -3.04789 2.95616 0
M  V30 2409 O 234.171 -2.50932 2.52807 0
M  V30 2410 O 233.03 -4.02421 3.69756 0
M  V30 2411 H 230.124 -0.63246 0.532844 0
M  V30 2412 H 232.67 -0.686814 1.5518 0
M  V30 2413 H 231.442 -1.88174 3.43083 0
M  V30 2414 H 231.065 -3.21009 2.34604 0
M  V30 2415 N 232.062 -1.29571 -0.897171 0
M  V30 2416 C 232.992 -1.17473 -2.01798 0
M  V30 2417 C 233.973 -0.068323 -1.69963 0
M  V30 2418 O 235.158 -0.248239 -1.92607 0
M  V30 2419 C 232.288 -0.853099 -3.36659 0
M  V30 2420 C 231.242 -1.9161 -3.82713 0
M  V30 2421 C 230.568 -1.44773 -5.14728 0
M  V30 2422 C 231.868 -3.32535 -4.02763 0
M  V30 2423 H 233.562 -2.11237 -2.12177 0
M  V30 2424 H 231.108 -1.01699 -1.01948 0
M  V30 2425 H 233.061 -0.755165 -4.14578 0
M  V30 2426 H 231.785 0.120236 -3.26379 0
M  V30 2427 H 230.444 -2.00346 -3.07013 0
M  V30 2428 H 230.092 -0.462995 -5.00865 0
M  V30 2429 H 229.792 -2.15865 -5.46513 0
M  V30 2430 H 231.316 -1.36334 -5.95185 0
M  V30 2431 H 232.73 -3.26626 -4.71156 0
M  V30 2432 H 231.127 -4.01607 -4.45905 0
M  V30 2433 H 232.197 -3.75326 -3.07016 0
M  V30 2434 N 233.54 1.10788 -1.12088 0
M  V30 2435 C 234.488 2.19111 -0.780587 0
M  V30 2436 C 235.482 1.67818 0.230961 0
M  V30 2437 O 236.688 1.79777 0.0895427 0
M  V30 2438 H 233.063 0.714477 -0.234578 0
M  V30 2439 H 235.034 2.45055 -1.70266 0
M  V30 2440 C 233.783 3.46818 -0.24747 0
M  V30 2441 H 233.106 3.86646 -1.01712 0
M  V30 2442 H 234.546 4.23973 -0.0476291 0
M  V30 2443 C 233.005 3.20968 1.02378 0
M  V30 2444 O 233.535 3.42298 2.10226 0
M  V30 2445 N 231.741 2.74658 0.949271 0
M  V30 2446 H 231.288 2.57501 0.0715173 0
M  V30 2447 H 231.246 2.57739 1.80049 0
M  V30 2448 N 235.018 0.912232 1.28515 0
M  V30 2449 C 235.965 0.397954 2.27343 0
M  V30 2450 C 236.935 -0.526766 1.57526 0
M  V30 2451 O 238.12 -0.449292 1.85435 0
M  V30 2452 C 235.26 -0.357263 3.43246 0
M  V30 2453 C 234.373 0.599788 4.27816 0
M  V30 2454 C 233.508 -0.173725 5.30916 0
M  V30 2455 C 232.547 0.777039 6.07148 0
M  V30 2456 N 231.684 0.0371398 7.0209 0
M  V30 2457 H 236.524 1.24577 2.70711 0
M  V30 2458 H 234.061 0.625612 1.33133 0
M  V30 2459 H 236.019 -0.8113 4.09236 0
M  V30 2460 H 234.649 -1.16943 3.00872 0
M  V30 2461 H 233.701 1.17235 3.61884 0
M  V30 2462 H 235.013 1.32704 4.80823 0
M  V30 2463 H 234.167 -0.688394 6.02782 0
M  V30 2464 H 232.906 -0.934041 4.78672 0
M  V30 2465 H 231.911 1.3031 5.34134 0
M  V30 2466 H 233.136 1.53689 6.61481 0
M  V30 2467 H 231.082 -0.705213 6.52198 0
M  V30 2468 H 230.999 0.704249 7.52713 0
M  V30 2469 H 232.267 -0.457383 7.78157 0
M  V30 2470 N 236.496 -1.42363 0.676048 0
M  V30 2471 C 237.773 -1.95183 0.127726 0
M  V30 2472 C 238.153 -1.61641 -1.35777 0
M  V30 2473 O 237.501 -0.913216 -2.09458 0
M  V30 2474 C 237.711 -3.46721 0.398199 0
M  V30 2475 C 239.059 -4.23427 0.315383 0
M  V30 2476 O 240.083 -3.54649 0.332016 0
M  V30 2477 O 238.942 -5.45888 0.25865 0
M  V30 2478 H 236.036 -0.826992 0.00359427 0
M  V30 2479 H 238.582 -1.52184 0.750864 0
M  V30 2480 H 237.354 -3.64344 1.4272 0
M  V30 2481 H 236.977 -3.96769 -0.256885 0
M  V30 2482 N 237.974 -0.419461 -1.51915 0
M  V30 2483 C 239.222 0.152637 -2.01523 0
M  V30 2484 C 239.543 1.44762 -1.30649 0
M  V30 2485 O 238.813 1.90997 -0.435535 0
M  V30 2486 H 237.393 0.0593966 -0.744635 0
M  V30 2487 H 240.055 -0.558073 -1.86739 0
M  V30 2488 H 239.151 0.341369 -3.10227 0
M  V30 2489 N 239.452 1.56882 -0.150215 0
M  V30 2490 C 240.399 2.16922 0.788244 0
M  V30 2491 C 241.369 1.10303 1.24187 0
M  V30 2492 O 242.554 1.38359 1.31383 0
M  V30 2493 C 239.694 2.79754 2.02068 0
M  V30 2494 C 238.807 4.00775 1.61257 0
M  V30 2495 C 237.942 4.51595 2.79705 0
M  V30 2496 C 236.981 5.65074 2.35282 0
M  V30 2497 N 236.118 6.10499 3.4675 0
M  V30 2498 H 240.958 2.96779 0.269444 0
M  V30 2499 H 238.495 1.46599 0.12128 0
M  V30 2500 H 240.453 3.14329 2.74323 0
M  V30 2501 H 239.083 2.02536 2.51354 0
M  V30 2502 H 238.135 3.72158 0.787553 0
M  V30 2503 H 239.447 4.82978 1.24633 0
M  V30 2504 H 238.601 4.88242 3.60145 0
M  V30 2505 H 237.34 3.68406 3.19576 0
M  V30 2506 H 236.345 5.28 1.53283 0
M  V30 2507 H 237.57 6.50052 1.96493 0
M  V30 2508 H 235.516 5.30243 3.86236 0
M  V30 2509 H 235.433 6.87637 3.14152 0
M  V30 2510 H 236.701 6.51791 4.27537 0
M  V30 2511 N 240.93 -0.123565 1.57115 0
M  V30 2512 C 242.179 -0.830704 1.83799 0
M  V30 2513 C 242.492 -1.81259 0.735158 0
M  V30 2514 O 243.698 -2.56558 0.888278 0
M  V30 2515 C 242.154 -1.52802 3.25852 0
M  V30 2516 C 241.762 -0.587356 4.44133 0
M  V30 2517 C 243.506 -2.22056 3.61789 0
M  V30 2518 C 241.413 -1.28764 5.77212 0
M  V30 2519 H 240.343 -0.313967 0.685522 0
M  V30 2520 H 242.994 -0.0834359 1.8331 0
M  V30 2521 H 241.376 -2.32175 3.20797 0
M  V30 2522 H 242.55 0.172829 4.60476 0
M  V30 2523 H 240.865 -0.00201892 4.164 0
M  V30 2524 H 243.462 -2.75131 4.58483 0
M  V30 2525 H 243.805 -2.99644 2.88997 0
M  V30 2526 H 244.338 -1.49576 3.68608 0
M  V30 2527 H 241.077 -0.55314 6.53162 0
M  V30 2528 H 240.597 -2.01995 5.64764 0
M  V30 2529 H 242.276 -1.8221 6.20813 0
M  V30 2530 N 242.408 -1.52605 -0.393616 0
M  V30 2531 C 243.34 -1.73303 -1.49995 0
M  V30 2532 C 244.353 -0.613473 -1.50799 0
M  V30 2533 O 245.542 -0.889049 -1.54784 0
M  V30 2534 C 242.642 -1.77245 -2.88855 0
M  V30 2535 C 241.815 -3.06483 -3.12069 0
M  V30 2536 C 240.874 -3.02033 -4.30886 0
M  V30 2537 O 239.9 -3.75907 -4.27414 0
M  V30 2538 N 241.102 -2.20897 -5.36828 0
M  V30 2539 H 243.867 -2.68756 -1.32629 0
M  V30 2540 H 241.428 -1.51036 -0.583083 0
M  V30 2541 H 243.42 -1.7178 -3.66434 0
M  V30 2542 H 241.99 -0.891993 -2.99603 0
M  V30 2543 H 241.21 -3.25474 -2.22396 0
M  V30 2544 H 242.498 -3.91947 -3.2443 0
M  V30 2545 H 241.896 -1.60336 -5.42502 0
M  V30 2546 H 240.453 -2.21275 -6.13091 0
M  V30 2547 N 243.887 0.651787 -1.4349 0
M  V30 2548 C 245.117 1.43728 -1.48411 0
M  V30 2549 C 245.525 1.8893 -0.10103 0
M  V30 2550 O 244.868 1.60182 0.899307 0
M  V30 2551 C 244.93 2.70411 -2.36893 0
M  V30 2552 C 244.594 2.4714 -3.8441 0
M  V30 2553 C 245.591 2.10271 -4.75481 0
M  V30 2554 C 243.276 2.6142 -4.28912 0
M  V30 2555 C 245.27 1.87982 -6.0905 0
M  V30 2556 C 242.957 2.38746 -5.62533 0
M  V30 2557 C 243.955 2.02083 -6.5242 0
M  V30 2558 O 243.643 1.79647 -7.8357 0
M  V30 2559 H 243.375 0.447962 -0.506267 0
M  V30 2560 H 245.929 0.80624 -1.88915 0
M  V30 2561 H 244.159 3.36079 -1.91278 0
M  V30 2562 H 245.848 3.32364 -2.33 0
M  V30 2563 H 246.614 1.98814 -4.42378 0
M  V30 2564 H 242.493 2.88931 -3.59222 0
M  V30 2565 H 246.037 1.5929 -6.7917 0
M  V30 2566 H 241.934 2.49806 -5.95203 0
M  V30 2567 H 242.702 1.9406 -7.95162 0
M  V30 2568 N 245.365 1.30045 0.890287 0
M  V30 2569 C 246.611 1.18737 1.64406 0
M  V30 2570 C 246.944 -0.258525 1.92472 0
M  V30 2571 O 246.219 -1.18562 1.54186 0
M  V30 2572 C 246.502 2.01087 2.98724 0
M  V30 2573 C 246.355 3.53867 2.77665 0
M  V30 2574 C 247.674 1.84457 3.9958 0
M  V30 2575 H 244.793 0.432698 0.596608 0
M  V30 2576 H 247.435 1.5962 1.0306 0
M  V30 2577 H 245.585 1.66349 3.51084 0
M  V30 2578 H 247.257 3.98637 2.32133 0
M  V30 2579 H 245.5 3.78318 2.12269 0
M  V30 2580 H 246.171 4.06772 3.7315 0
M  V30 2581 H 248.647 2.14817 3.56361 0
M  V30 2582 H 247.523 2.44411 4.91482 0
M  V30 2583 H 247.784 0.802276 4.3476 0
M  V30 2584 N 246.843 -1.10192 1.12674 0
M  V30 2585 C 247.773 -2.18652 0.819362 0
M  V30 2586 C 248.754 -1.68698 -0.217915 0
M  V30 2587 O 249.939 -1.94041 -0.0785581 0
M  V30 2588 C 247.069 -3.46202 0.27594 0
M  V30 2589 C 246.023 -4.09444 1.24656 0
M  V30 2590 C 245.349 -5.31725 0.563258 0
M  V30 2591 C 246.649 -4.52863 2.60217 0
M  V30 2592 H 248.343 -2.44622 1.72628 0
M  V30 2593 H 245.889 -1.17571 0.831451 0
M  V30 2594 H 247.842 -4.21372 0.0486149 0
M  V30 2595 H 246.566 -3.1973 -0.666331 0
M  V30 2596 H 245.225 -3.36284 1.45974 0
M  V30 2597 H 244.873 -5.0153 -0.384235 0
M  V30 2598 H 244.573 -5.74991 1.21075 0
M  V30 2599 H 246.097 -6.09624 0.34503 0
M  V30 2600 H 247.511 -5.19294 2.42913 0
M  V30 2601 H 245.908 -5.06986 3.21068 0
M  V30 2602 H 246.978 -3.65656 3.18471 0
M  V30 2603 N 248.321 -0.919034 -1.28029 0
M  V30 2604 C 249.251 -0.428581 -2.29533 0
M  V30 2605 C 250.232 0.50659 -1.62381 0
M  V30 2606 O 251.417 0.413195 -1.89753 0
M  V30 2607 C 248.547 0.327388 -3.45753 0
M  V30 2608 C 247.501 -0.519137 -4.2484 0
M  V30 2609 C 246.827 0.365486 -5.33449 0
M  V30 2610 C 248.127 -1.77914 -4.91064 0
M  V30 2611 H 249.821 -1.27687 -2.70807 0
M  V30 2612 H 247.367 -0.615428 -1.30186 0
M  V30 2613 H 249.32 0.681378 -4.15855 0
M  V30 2614 H 248.044 1.20963 -3.03374 0
M  V30 2615 H 246.703 -0.855717 -3.56473 0
M  V30 2616 H 246.351 1.24642 -4.87312 0
M  V30 2617 H 246.051 -0.197356 -5.87268 0
M  V30 2618 H 247.575 0.715241 -6.06396 0
M  V30 2619 H 248.989 -1.49374 -5.53498 0
M  V30 2620 H 247.386 -2.2848 -5.54903 0
M  V30 2621 H 248.456 -2.50382 -4.15255 0
M  V30 2622 N 249.799 1.42003 -0.683588 0
M  V30 2623 C 250.746 2.30798 -0.0107309 0
M  V30 2624 C 251.716 1.4645 0.783688 0
M  V30 2625 O 252.901 1.75263 0.754156 0
M  V30 2626 C 250.041 3.3238 0.928306 0
M  V30 2627 C 249.154 4.31814 0.126776 0
M  V30 2628 C 248.289 5.20468 1.06236 0
M  V30 2629 C 247.328 6.11577 0.253035 0
M  V30 2630 N 246.465 6.92754 1.14179 0
M  V30 2631 H 251.305 2.8778 -0.773727 0
M  V30 2632 H 248.842 1.41745 -0.393283 0
M  V30 2633 H 250.8 3.89813 1.48666 0
M  V30 2634 H 249.43 2.76976 1.65783 0
M  V30 2635 H 248.482 3.76427 -0.54833 0
M  V30 2636 H 249.794 4.96276 -0.501192 0
M  V30 2637 H 248.948 5.82677 1.69035 0
M  V30 2638 H 247.687 4.56204 1.7242 0
M  V30 2639 H 246.692 5.48428 -0.388108 0
M  V30 2640 H 247.917 6.77892 -0.404839 0
M  V30 2641 H 245.863 6.3111 1.78987 0
M  V30 2642 H 245.78 7.53855 0.569111 0
M  V30 2643 H 247.048 7.59441 1.75697 0
M  V30 2644 N 251.277 0.427512 1.51691 0
M  V30 2645 C 252.525 -0.141948 2.01601 0
M  V30 2646 C 252.846 -1.44067 1.31414 0
M  V30 2647 O 252.116 -1.90763 0.445658 0
M  V30 2648 H 250.696 -0.0554468 0.744939 0
M  V30 2649 H 253.358 0.567968 1.86441 0
M  V30 2650 H 252.454 -0.324913 3.10404 0
M  V30 2651 N 252.755 -1.56801 0.158532 0
M  V30 2652 C 253.665 -2.20916 -0.789518 0
M  V30 2653 C 254.681 -1.1969 -1.26294 0
M  V30 2654 O 255.857 -1.52308 -1.31773 0
M  V30 2655 C 252.922 -2.82727 -2.00665 0
M  V30 2656 C 251.983 -3.99114 -1.58134 0
M  V30 2657 C 251.216 -4.57968 -2.74045 0
M  V30 2658 O 251.439 -4.15704 -3.90572 0
M  V30 2659 O 250.373 -5.48047 -2.48855 0
M  V30 2660 H 254.199 -3.02464 -0.273681 0
M  V30 2661 H 251.784 -1.4924 -0.0690548 0
M  V30 2662 H 253.666 -3.21968 -2.71872 0
M  V30 2663 H 252.341 -2.04184 -2.51179 0
M  V30 2664 H 251.248 -3.64567 -0.839155 0
M  V30 2665 H 252.581 -4.79212 -1.12325 0
M  V30 2666 N 254.233 0.115231 -1.57178 0
M  V30 2667 C 255.644 0.67197 -1.74188 0
M  V30 2668 C 255.995 1.80125 -0.777777 0
M  V30 2669 O 255.12 2.16346 0.0484376 0
M  V30 2670 C 255.715 1.22573 -3.1585 0
M  V30 2671 C 254.274 1.72872 -3.34353 0
M  V30 2672 C 253.421 0.629972 -2.70049 0
M  V30 2673 H 256.372 -0.110712 -1.58313 0
M  V30 2674 H 256.393 2.09535 -3.17609 0
M  V30 2675 H 255.905 0.403598 -3.85996 0
M  V30 2676 H 254.006 2.5755 -2.69256 0
M  V30 2677 H 254.119 1.83557 -4.42542 0
M  V30 2678 H 252.483 1.0645 -2.31388 0
M  V30 2679 H 253.266 -0.181241 -3.42821 0
M  V30 2680 N 255.711 1.52812 0.385517 0
M  V30 2681 C 256.959 1.67694 1.12797 0
M  V30 2682 C 257.28 0.421115 1.90399 0
M  V30 2683 O 256.55 -0.564551 1.87589 0
M  V30 2684 H 255.13 0.618155 0.419396 0
M  V30 2685 H 257.792 1.89938 0.436972 0
M  V30 2686 H 256.888 2.52896 1.82894 0
M  V30 2687 N 257.189 -0.644168 1.43834 0
M  V30 2688 C 258.139 -1.7501 1.46135 0
M  V30 2689 C 259.123 -1.57507 0.328685 0
M  V30 2690 O 260.315 -1.67465 0.5731 0
M  V30 2691 C 257.444 -3.13641 1.39585 0
M  V30 2692 C 256.53 -3.3666 2.57916 0
M  V30 2693 N 256.921 -3.30107 3.83227 0
M  V30 2694 C 255.219 -3.67411 2.52834 0
M  V30 2695 C 255.92 -3.53456 4.61999 0
M  V30 2696 N 254.896 -3.75705 3.9287 0
M  V30 2697 H 258.698 -1.68382 2.40883 0
M  V30 2698 H 256.212 -0.846169 1.38614 0
M  V30 2699 H 258.209 -3.92933 1.39317 0
M  V30 2700 H 256.869 -3.21444 0.45865 0
M  V30 2701 H 257.88 -3.09316 4.15384 0
M  V30 2702 H 254.557 -3.82275 1.67845 0
M  V30 2703 H 255.947 -3.54093 5.71024 0
M  V30 2704 N 258.668 -1.30515 -0.883378 0
M  V30 2705 C 260.079 -1.17509 -1.45081 0
M  V30 2706 C 260.43 0.223605 -1.94922 0
M  V30 2707 O 259.555 1.12041 -1.85137 0
M  V30 2708 C 260.15 -2.12715 -2.63701 0
M  V30 2709 C 258.709 -2.03682 -3.16529 0
M  V30 2710 C 257.856 -2.02706 -1.89224 0
M  V30 2711 H 260.807 -1.42762 -0.693165 0
M  V30 2712 H 260.828 -1.70891 -3.39965 0
M  V30 2713 H 260.34 -3.14505 -2.27395 0
M  V30 2714 H 258.441 -1.05039 -3.57488 0
M  V30 2715 H 258.554 -2.92146 -3.7972 0
M  V30 2716 H 256.918 -1.4753 -2.07622 0
M  V30 2717 H 257.701 -3.06229 -1.55174 0
M  V30 2718 N 260.146 1.09593 -1.13257 0
M  V30 2719 C 261.423 1.78293 -0.804432 0
M  V30 2720 C 261.803 1.99004 0.70431 0
M  V30 2721 O 261.151 1.59007 1.641 0
M  V30 2722 C 261.361 3.10707 -1.5894 0
M  V30 2723 C 262.709 3.85443 -1.78099 0
M  V30 2724 O 263.733 3.20454 -1.55525 0
M  V30 2725 O 262.592 5.02108 -2.15753 0
M  V30 2726 H 259.686 0.773156 -0.293528 0
M  V30 2727 H 262.232 1.16164 -1.23709 0
M  V30 2728 H 261.004 2.91106 -2.61482 0
M  V30 2729 H 260.627 3.80558 -1.15157 0
M  V30 2730 N 261.624 0.925811 1.2754 0
M  V30 2731 C 262.587 0.428129 2.25166 0
M  V30 2732 C 263.587 -0.452261 1.54309 0
M  V30 2733 O 264.777 -0.253608 1.72344 0
M  V30 2734 C 261.909 -0.384749 3.38722 0
M  V30 2735 H 263.102 1.29066 2.70706 0
M  V30 2736 H 260.655 0.706323 1.3943 0
M  V30 2737 H 261.39 -1.26618 2.98561 0
M  V30 2738 H 261.175 0.246454 3.91325 0
M  V30 2739 H 262.665 -0.723389 4.11287 0
M  V30 2740 N 263.102 -1.41638 0.69111 0
M  V30 2741 C 264.012 -2.34588 0.0233487 0
M  V30 2742 C 265.028 -1.55987 -0.770984 0
M  V30 2743 O 266.204 -1.88486 -0.709569 0
M  V30 2744 C 263.269 -3.34684 -0.904851 0
M  V30 2745 C 262.33 -4.29176 -0.103225 0
M  V30 2746 C 261.563 -5.2449 -0.987216 0
M  V30 2747 O 261.786 -5.2514 -2.22674 0
M  V30 2748 O 260.72 -6.00295 -0.439281 0
M  V30 2749 H 264.546 -2.93261 0.789416 0
M  V30 2750 H 262.131 -1.42417 0.45142 0
M  V30 2751 H 264.013 -3.96133 -1.43724 0
M  V30 2752 H 262.688 -2.78461 -1.65049 0
M  V30 2753 H 261.595 -3.71089 0.473655 0
M  V30 2754 H 262.928 -4.88484 0.60365 0
M  V30 2755 N 264.58 -0.43555 -1.51462 0
M  V30 2756 C 265.543 0.365137 -2.26273 0
M  V30 2757 C 266.543 0.951227 -1.29647 0
M  V30 2758 O 267.733 0.825958 -1.53374 0
M  V30 2759 C 264.865 1.51645 -3.05314 0
M  V30 2760 H 266.058 -0.290474 -2.9849 0
M  V30 2761 H 263.611 -0.188676 -1.55157 0
M  V30 2762 H 264.346 2.20816 -2.3751 0
M  V30 2763 H 264.131 1.10238 -3.76284 0
M  V30 2764 H 265.621 2.08218 -3.61987 0
M  V30 2765 N 266.058 1.56714 -0.166846 0
M  V30 2766 C 267.474 1.58473 0.189372 0
M  V30 2767 C 267.674 1.18201 1.63189 0
M  V30 2768 O 266.73 0.891528 2.36237 0
M  V30 2769 C 268.043 3.00573 -0.0873872 0
M  V30 2770 C 269.591 3.1299 -0.0252443 0
M  V30 2771 C 270.066 4.57174 -0.274934 0
M  V30 2772 N 271.557 4.62665 -0.222553 0
M  V30 2773 C 272.292 5.72072 -0.389985 0
M  V30 2774 N 271.788 6.90054 -0.616229 0
M  V30 2775 N 273.581 5.61153 -0.326202 0
M  V30 2776 H 265.732 1.8118 -1.10849 0
M  V30 2777 H 267.995 0.839525 -0.440342 0
M  V30 2778 H 267.701 3.34497 -1.0865 0
M  V30 2779 H 267.575 3.72019 0.623037 0
M  V30 2780 H 269.962 2.78895 0.96444 0
M  V30 2781 H 270.043 2.43989 -0.768309 0
M  V30 2782 H 269.687 4.91976 -1.26181 0
M  V30 2783 H 269.617 5.24328 0.48869 0
M  V30 2784 H 272.108 3.77863 -0.0531512 0
M  V30 2785 H 272.421 7.69311 -0.733559 0
M  V30 2786 H 270.766 6.91927 -0.652791 0
M  V30 2787 H 273.957 4.67859 -0.150072 0
M  V30 2788 H 274.13 6.46364 -0.460116 0
M  V30 2789 N 267.536 -0.106894 1.57237 0
M  V30 2790 C 268.764 -0.826389 1.8968 0
M  V30 2791 C 269.179 -1.72856 0.759353 0
M  V30 2792 O 268.536 -1.80503 -0.269263 0
M  V30 2793 C 268.587 -1.64967 3.21665 0
M  V30 2794 O 268.308 -0.783804 4.31031 0
M  V30 2795 C 269.809 -2.47326 3.67892 0
M  V30 2796 H 267.029 -0.236927 0.627779 0
M  V30 2797 H 269.573 -0.0876593 2.04312 0
M  V30 2798 H 267.728 -2.34103 3.08666 0
M  V30 2799 H 268.142 -1.35284 5.06753 0
M  V30 2800 H 269.616 -3.00604 4.6297 0
M  V30 2801 H 270.093 -3.25247 2.95146 0
M  V30 2802 H 270.699 -1.83411 3.83719 0
M  V30 2803 N 269.014 -1.53014 -0.377408 0
M  V30 2804 C 270.242 -1.72515 -1.14219 0
M  V30 2805 C 270.657 -0.448735 -1.8339 0
M  V30 2806 O 270.014 0.577592 -1.73119 0
M  V30 2807 C 270.065 -2.8826 -2.18148 0
M  V30 2808 O 269.786 -4.10962 -1.51795 0
M  V30 2809 C 271.287 -3.19536 -3.07264 0
M  V30 2810 H 268.507 -0.577301 -0.342001 0
M  V30 2811 H 271.051 -1.99712 -0.439935 0
M  V30 2812 H 269.206 -2.63492 -2.83991 0
M  V30 2813 H 269.62 -4.75693 -2.20945 0
M  V30 2814 H 271.094 -4.03959 -3.76193 0
M  V30 2815 H 271.571 -2.34403 -3.71419 0
M  V30 2816 H 272.177 -3.46186 -2.47053 0
M  V30 2817 N 270.492 0.636531 -1.44174 0
M  V30 2818 C 271.722 1.42146 -1.49927 0
M  V30 2819 C 272.13 1.88812 -0.121063 0
M  V30 2820 O 271.473 1.61126 0.882267 0
M  V30 2821 C 271.535 2.67883 -2.39748 0
M  V30 2822 C 271.199 2.43048 -3.8701 0
M  V30 2823 C 272.196 2.05216 -4.77684 0
M  V30 2824 C 269.881 2.56856 -4.3166 0
M  V30 2825 C 271.875 1.81512 -6.11009 0
M  V30 2826 C 269.562 2.32766 -5.65034 0
M  V30 2827 C 270.56 1.95152 -6.54526 0
M  V30 2828 O 270.248 1.71326 -7.85431 0
M  V30 2829 H 269.98 0.442567 -0.51099 0
M  V30 2830 H 272.534 0.786158 -1.8976 0
M  V30 2831 H 270.764 3.34032 -1.94832 0
M  V30 2832 H 272.453 3.29874 -2.36513 0
M  V30 2833 H 273.219 1.94111 -4.44462 0
M  V30 2834 H 269.098 2.85104 -3.62266 0
M  V30 2835 H 272.642 1.52077 -6.80822 0
M  V30 2836 H 268.539 2.43479 -5.97819 0
M  V30 2837 H 269.307 1.85616 -7.97176 0
M  V30 2838 N 271.97 1.30982 0.876444 0
M  V30 2839 C 273.216 1.20474 1.63138 0
M  V30 2840 C 273.549 -0.238096 1.92735 0
M  V30 2841 O 272.824 -1.1692 1.55435 0
M  V30 2842 C 273.107 2.04244 2.96574 0
M  V30 2843 C 272.96 3.56793 2.73896 0
M  V30 2844 C 274.279 1.88684 3.97601 0
M  V30 2845 H 271.398 0.439001 0.591985 0
M  V30 2846 H 274.04 1.60704 1.01361 0
M  V30 2847 H 272.19 1.70063 3.493 0
M  V30 2848 H 273.862 4.01077 2.27892 0
M  V30 2849 H 272.105 3.80548 2.08245 0
M  V30 2850 H 272.776 4.10706 3.68815 0
M  V30 2851 H 275.252 2.18584 3.54062 0
M  V30 2852 H 274.128 2.4961 4.88862 0
M  V30 2853 H 274.389 0.848343 4.33884 0
M  V30 2854 N 273.449 -1.08991 1.13837 0
M  V30 2855 C 274.695 -1.81526 0.90422 0
M  V30 2856 C 275.028 -1.85706 -0.568066 0
M  V30 2857 O 274.303 -1.32855 -1.42056 0
M  V30 2858 C 274.586 -3.27447 1.49835 0
M  V30 2859 C 274.439 -3.31512 3.04006 0
M  V30 2860 C 275.758 -4.24256 1.17025 0
M  V30 2861 H 272.877 -0.659029 0.329923 0
M  V30 2862 H 275.519 -1.27644 1.40737 0
M  V30 2863 H 273.669 -3.73462 1.07044 0
M  V30 2864 H 275.341 -2.93867 3.55584 0
M  V30 2865 H 273.584 -2.70963 3.38765 0
M  V30 2866 H 274.255 -4.34329 3.40679 0
M  V30 2867 H 276.731 -3.86549 1.54009 0
M  V30 2868 H 275.607 -5.24684 1.61237 0
M  V30 2869 H 275.868 -4.42019 0.0846274 0
M  V30 2870 N 274.927 -0.932562 -1.27047 0
M  V30 2871 C 275.874 -0.434072 -2.26681 0
M  V30 2872 C 276.844 0.501639 -1.58344 0
M  V30 2873 O 278.029 0.419734 -1.86126 0
M  V30 2874 C 275.169 0.30261 -3.43771 0
M  V30 2875 C 274.282 -0.667774 -4.26808 0
M  V30 2876 C 273.417 0.0892393 -5.31125 0
M  V30 2877 C 272.456 -0.873532 -6.05835 0
M  V30 2878 N 271.593 -0.148832 -7.01942 0
M  V30 2879 H 276.433 -1.28868 -2.68695 0
M  V30 2880 H 273.97 -0.646713 -1.32121 0
M  V30 2881 H 275.928 0.746092 -4.10474 0
M  V30 2882 H 274.558 1.12142 -3.02695 0
M  V30 2883 H 273.61 -1.22978 -3.59973 0
M  V30 2884 H 274.922 -1.40337 -4.78651 0
M  V30 2885 H 274.076 0.592409 -6.03801 0
M  V30 2886 H 272.815 0.85777 -4.80097 0
M  V30 2887 H 271.82 -1.38791 -5.31994 0
M  V30 2888 H 273.045 -1.64193 -6.58952 0
M  V30 2889 H 270.991 0.601365 -6.53238 0
M  V30 2890 H 270.908 -0.82391 -7.51497 0
M  V30 2891 H 272.176 0.333527 -7.78786 0
M  V30 2892 N 276.405 1.4127 -0.698611 0
M  V30 2893 C 277.315 2.34573 -0.0357891 0
M  V30 2894 C 278.331 1.56393 0.762701 0
M  V30 2895 O 279.507 1.8886 0.699564 0
M  V30 2896 C 276.572 3.35159 0.887089 0
M  V30 2897 C 275.633 4.29225 0.0804634 0
M  V30 2898 C 274.866 5.25006 0.959387 0
M  V30 2899 O 275.089 5.26314 2.19886 0
M  V30 2900 O 274.023 6.00519 0.407439 0
M  V30 2901 H 277.849 2.92838 -0.804957 0
M  V30 2902 H 275.434 1.42175 -0.458966 0
M  V30 2903 H 277.316 3.9689 1.41621 0
M  V30 2904 H 275.991 2.79333 1.6357 0
M  V30 2905 H 274.898 3.70833 -0.493328 0
M  V30 2906 H 276.231 4.88157 -0.629547 0
M  V30 2907 N 277.883 0.443576 1.51229 0
M  V30 2908 C 278.813 -0.355142 2.30783 0
M  V30 2909 C 279.794 -1.0154 1.36468 0
M  V30 2910 O 280.979 -1.01785 1.65389 0
M  V30 2911 C 278.109 -1.45312 3.15439 0
M  V30 2912 C 277.063 -0.916002 4.18083 0
M  V30 2913 C 276.389 -2.1102 4.91299 0
M  V30 2914 C 277.689 0.0538602 5.22272 0
M  V30 2915 H 279.383 0.308767 2.97804 0
M  V30 2916 H 276.929 0.149937 1.43217 0
M  V30 2917 H 278.882 -2.01914 3.69876 0
M  V30 2918 H 277.606 -2.14541 2.46252 0
M  V30 2919 H 276.265 -0.372145 3.64706 0
M  V30 2920 H 275.913 -2.78882 4.18609 0
M  V30 2921 H 275.613 -1.75717 5.60712 0
M  V30 2922 H 277.137 -2.68164 5.48562 0
M  V30 2923 H 278.551 -0.422069 5.71744 0
M  V30 2924 H 276.948 0.319776 5.99247 0
M  V30 2925 H 278.018 0.98858 4.74716 0
M  V30 2926 N 279.361 -1.56624 0.175154 0
M  V30 2927 C 280.309 -2.19468 -0.770495 0
M  V30 2928 C 281.303 -1.15985 -1.23466 0
M  V30 2929 O 282.509 -1.34176 -1.19987 0
M  V30 2930 H 278.884 -0.703095 -0.266761 0
M  V30 2931 H 280.855 -2.97613 -0.216542 0
M  V30 2932 C 279.604 -2.85264 -1.98796 0
M  V30 2933 H 278.927 -3.64623 -1.63983 0
M  V30 2934 H 280.367 -3.327 -2.62843 0
M  V30 2935 C 278.826 -1.85239 -2.81404 0
M  V30 2936 O 279.356 -1.34024 -3.78682 0
M  V30 2937 N 277.562 -1.53911 -2.46495 0
M  V30 2938 H 277.109 -1.95751 -1.67449 0
M  V30 2939 H 277.067 -0.872382 -3.02054 0
M  V30 2940 N 280.839 0.0985539 -1.57292 0
M  V30 2941 C 282.116 0.834155 -1.76921 0
M  V30 2942 C 282.496 1.97101 -0.755928 0
M  V30 2943 O 281.844 2.27474 0.216245 0
M  V30 2944 C 282.054 1.33194 -3.22584 0
M  V30 2945 C 283.402 1.77611 -3.85668 0
M  V30 2946 O 284.426 1.42825 -3.26312 0
M  V30 2947 O 283.285 2.4192 -4.90038 0
M  V30 2948 H 280.379 0.397628 -0.725135 0
M  V30 2949 H 282.925 0.0807044 -1.69508 0
M  V30 2950 H 281.697 0.517248 -3.87866 0
M  V30 2951 H 281.32 2.1475 -3.34616 0
M  V30 2952 N 282.317 1.53212 0.369288 0
M  V30 2953 C 283.264 1.79388 1.45219 0
M  V30 2954 C 284.234 0.638059 1.53356 0
M  V30 2955 O 285.419 0.879852 1.69302 0
M  V30 2956 C 282.559 1.98623 2.82211 0
M  V30 2957 C 281.672 3.26337 2.8307 0
M  V30 2958 C 280.807 3.35779 4.11614 0
M  V30 2959 C 279.846 4.5754 4.06601 0
M  V30 2960 N 278.983 4.64155 5.26787 0
M  V30 2961 H 283.823 2.71794 1.22198 0
M  V30 2962 H 281.36 1.34642 0.592444 0
M  V30 2963 H 283.318 2.07761 3.61789 0
M  V30 2964 H 281.948 1.09558 3.03639 0
M  V30 2965 H 281 3.26171 1.95747 0
M  V30 2966 H 282.312 4.15988 2.75237 0
M  V30 2967 H 281.466 3.44208 4.99606 0
M  V30 2968 H 280.205 2.44137 4.22195 0
M  V30 2969 H 279.21 4.49215 3.16996 0
M  V30 2970 H 280.435 5.50519 3.97625 0
M  V30 2971 H 278.381 3.75413 5.3796 0
M  V30 2972 H 278.298 5.47706 5.21109 0
M  V30 2973 H 279.566 4.76863 6.16621 0
M  V30 2974 N 283.795 -0.628877 1.44509 0
M  V30 2975 C 285.043 -1.38565 1.4712 0
M  V30 2976 C 285.364 -1.94712 0.105899 0
M  V30 2977 O 284.634 -1.75912 -0.862079 0
M  V30 2978 H 283.214 -0.514333 0.541729 0
M  V30 2979 H 285.876 -0.740018 1.80305 0
M  V30 2980 H 284.972 -2.21583 2.19789 0
M  V30 2981 N 285.273 -1.31445 -0.869486 0
M  V30 2982 C 286.522 -1.20517 -1.61736 0
M  V30 2983 C 286.835 0.235341 -1.94179 0
M  V30 2984 O 288.041 0.466312 -2.67465 0
M  V30 2985 C 286.497 -2.10982 -2.91573 0
M  V30 2986 C 286.105 -3.60032 -2.66611 0
M  V30 2987 C 287.849 -2.08856 -3.69567 0
M  V30 2988 C 285.756 -4.42503 -3.92358 0
M  V30 2989 H 284.686 -0.447493 -0.606849 0
M  V30 2990 H 287.337 -1.56303 -0.96133 0
M  V30 2991 H 285.719 -1.68095 -3.58553 0
M  V30 2992 H 286.893 -4.11167 -2.08035 0
M  V30 2993 H 285.208 -3.64139 -2.0197 0
M  V30 2994 H 287.805 -2.67716 -4.62852 0
M  V30 2995 H 288.148 -1.07582 -4.02159 0
M  V30 2996 H 288.681 -2.49945 -3.09471 0
M  V30 2997 H 285.42 -5.44533 -3.64916 0
M  V30 2998 H 284.94 -3.96125 -4.50383 0
M  V30 2999 H 286.619 -4.54741 -4.60238 0
M  V30 3000 N 286.751 1.08385 -1.14413 0
M  V30 3001 C 287.683 2.1519 -0.789036 0
M  V30 3002 C 288.696 1.61638 0.19417 0
M  V30 3003 O 289.885 1.78479 -0.0275711 0
M  V30 3004 C 286.985 3.38565 -0.15058 0
M  V30 3005 C 286.158 4.21501 -1.16857 0
M  V30 3006 C 285.217 5.23277 -0.553832 0
M  V30 3007 O 284.243 5.56041 -1.21686 0
M  V30 3008 N 285.445 5.76629 0.669296 0
M  V30 3009 H 288.21 2.46257 -1.70814 0
M  V30 3010 H 285.771 1.24198 -1.03858 0
M  V30 3011 H 287.763 4.03777 0.273181 0
M  V30 3012 H 286.333 3.05299 0.671667 0
M  V30 3013 H 285.553 3.52265 -1.76926 0
M  V30 3014 H 286.841 4.73731 -1.85624 0
M  V30 3015 H 286.239 5.52243 1.22654 0
M  V30 3016 H 284.796 6.43521 1.03556 0
M  V30 3017 N 288.23 0.939286 1.26551 0
M  V30 3018 C 289.458 0.602536 1.97932 0
M  V30 3019 C 289.873 -0.82206 1.69964 0
M  V30 3020 O 289.23 -1.54789 0.966784 0
M  V30 3021 C 289.281 0.832946 3.51773 0
M  V30 3022 O 289.002 2.20151 3.78768 0
M  V30 3023 C 290.503 0.506483 4.40397 0
M  V30 3024 H 287.723 0.227248 0.631347 0
M  V30 3025 H 290.267 1.25948 1.61113 0
M  V30 3026 H 288.422 0.222644 3.8676 0
M  V30 3027 H 288.836 2.26013 4.73306 0
M  V30 3028 H 290.31 0.718333 5.47306 0
M  V30 3029 H 290.787 -0.558451 4.35635 0
M  V30 3030 H 291.393 1.09543 4.10951 0
M  V30 3031 N 289.708 -1.40897 0.706093 0
M  V30 3032 C 290.618 -2.3455 0.0482286 0
M  V30 3033 C 291.634 -1.56796 -0.754396 0
M  V30 3034 O 292.81 -1.89228 -0.689538 0
M  V30 3035 C 289.875 -3.35625 -0.869303 0
M  V30 3036 C 288.936 -4.29261 -0.0576994 0
M  V30 3037 C 288.169 -5.25508 -0.931531 0
M  V30 3038 O 288.392 -5.27472 -2.17092 0
M  V30 3039 O 287.326 -6.00727 -0.375587 0
M  V30 3040 H 291.152 -2.92407 0.820476 0
M  V30 3041 H 288.737 -1.4193 0.4665 0
M  V30 3042 H 290.619 -3.97635 -1.39514 0
M  V30 3043 H 289.294 -2.80196 -1.62086 0
M  V30 3044 H 288.201 -3.70566 0.512988 0
M  V30 3045 H 289.534 -4.87817 0.655426 0
M  V30 3046 N 291.186 -0.45159 -1.50991 0
M  V30 3047 C 292.118 0.388634 -2.25881 0
M  V30 3048 C 293.131 0.974041 -1.30446 0
M  V30 3049 O 294.32 0.865758 -1.56099 0
M  V30 3050 C 291.42 1.5571 -3.01011 0
M  V30 3051 C 290.593 1.08801 -4.23652 0
M  V30 3052 C 289.652 2.12825 -4.8124 0
M  V30 3053 O 288.678 1.71678 -5.42693 0
M  V30 3054 N 289.88 3.45453 -4.66522 0
M  V30 3055 H 292.645 -0.25329 -2.98628 0
M  V30 3056 H 290.206 -0.281268 -1.59438 0
M  V30 3057 H 292.198 2.24952 -3.3642 0
M  V30 3058 H 290.768 2.10409 -2.31186 0
M  V30 3059 H 289.988 0.22215 -3.93574 0
M  V30 3060 H 291.276 0.752213 -5.03209 0
M  V30 3061 H 290.674 3.81605 -4.17605 0
M  V30 3062 H 289.231 4.10549 -5.06254 0
M  V30 3063 N 292.664 1.56529 -0.183458 0
M  V30 3064 C 293.594 2.21549 0.737456 0
M  V30 3065 C 294.575 1.17489 1.23005 0
M  V30 3066 O 295.76 1.45959 1.281 0
M  V30 3067 C 292.89 2.86575 1.96194 0
M  V30 3068 C 291.844 3.96778 1.60473 0
M  V30 3069 C 291.17 4.48911 2.90487 0
M  V30 3070 C 292.47 5.15767 0.823497 0
M  V30 3071 H 294.164 2.98761 0.195453 0
M  V30 3072 H 291.71 1.43702 0.0925686 0
M  V30 3073 H 293.663 3.30739 2.61131 0
M  V30 3074 H 292.387 2.06749 2.52828 0
M  V30 3075 H 291.046 3.53286 0.978997 0
M  V30 3076 H 290.694 3.65862 3.45186 0
M  V30 3077 H 290.394 5.23265 2.67335 0
M  V30 3078 H 291.918 4.95771 3.56432 0
M  V30 3079 H 293.332 5.56549 1.37571 0
M  V30 3080 H 291.729 5.96114 0.690551 0
M  V30 3081 H 292.799 4.84574 -0.177782 0
M  V30 3082 N 294.142 -0.090211 1.57342 0
M  V30 3083 C 295.105 -1.09335 2.01441 0
M  V30 3084 C 296.105 -1.32666 0.908641 0
M  V30 3085 O 297.295 -1.28697 1.174 0
M  V30 3086 C 294.427 -2.44136 2.3793 0
M  V30 3087 H 295.62 -0.713662 2.91285 0
M  V30 3088 H 293.173 -0.335404 1.52659 0
M  V30 3089 H 293.908 -2.86972 1.51055 0
M  V30 3090 H 293.693 -2.28548 3.18603 0
M  V30 3091 H 295.183 -3.16277 2.72688 0
M  V30 3092 N 295.62 -1.53406 -0.361157 0
M  V30 3093 C 296.55 -1.83136 -1.44857 0
M  V30 3094 C 297.531 -0.685174 -1.5569 0
M  V30 3095 O 298.716 -0.93544 -1.70186 0
M  V30 3096 C 295.846 -2.02522 -2.82138 0
M  V30 3097 C 294.8 -3.18302 -2.86126 0
M  V30 3098 C 294.126 -3.22989 -4.26125 0
M  V30 3099 C 295.426 -4.56796 -2.53248 0
M  V30 3100 H 297.12 -2.74201 -1.20226 0
M  V30 3101 H 294.666 -1.31938 -0.576922 0
M  V30 3102 H 296.619 -2.21904 -3.58241 0
M  V30 3103 H 295.343 -1.08172 -3.08166 0
M  V30 3104 H 294.002 -2.98747 -2.12475 0
M  V30 3105 H 293.65 -2.26267 -4.49235 0
M  V30 3106 H 293.35 -4.00781 -4.29708 0
M  V30 3107 H 294.874 -3.44559 -5.04094 0
M  V30 3108 H 296.288 -4.7631 -3.19064 0
M  V30 3109 H 294.685 -5.36862 -2.68141 0
M  V30 3110 H 295.755 -4.61606 -1.48484 0
M  V30 3111 N 297.098 0.621204 -1.44841 0
M  V30 3112 C 298.375 1.38 -1.38619 0
M  V30 3113 C 298.755 2.11041 -0.0498935 0
M  V30 3114 O 298.103 2.06992 0.967816 0
M  V30 3115 C 298.313 2.33817 -2.59096 0
M  V30 3116 C 299.661 2.96844 -3.03593 0
M  V30 3117 O 300.685 2.44141 -2.59371 0
M  V30 3118 O 299.544 3.92476 -3.80296 0
M  V30 3119 H 296.638 0.61811 -0.549426 0
M  V30 3120 H 299.184 0.645429 -1.56947 0
M  V30 3121 H 297.956 1.79012 -3.47952 0
M  V30 3122 H 297.579 3.14676 -2.43032 0
M  V30 3123 N 298.576 1.31904 0.862503 0
M  V30 3124 C 299.804 1.24998 1.64873 0
M  V30 3125 C 300.219 -0.183425 1.87907 0
M  V30 3126 O 299.576 -1.11794 1.44251 0
M  V30 3127 C 299.627 1.99829 3.01248 0
M  V30 3128 O 299.348 3.37575 2.79239 0
M  V30 3129 C 300.849 1.99852 3.95694 0
M  V30 3130 H 298.069 0.431599 0.513773 0
M  V30 3131 H 300.613 1.73901 1.07604 0
M  V30 3132 H 298.768 1.54668 3.55185 0
M  V30 3133 H 299.182 3.75776 3.65914 0
M  V30 3134 H 300.656 2.56709 4.88676 0
M  V30 3135 H 301.133 0.982852 4.28062 0
M  V30 3136 H 301.739 2.44926 3.47694 0
M  V30 3137 N 300.054 -1.07777 1.14986 0
M  V30 3138 C 301.017 -2.13041 0.845358 0
M  V30 3139 C 302.017 -1.60071 -0.152931 0
M  V30 3140 O 303.207 -1.74033 0.0761879 0
M  V30 3141 C 300.339 -3.39896 0.261383 0
M  V30 3142 H 301.532 -2.41485 1.77834 0
M  V30 3143 H 299.085 -1.23595 0.956757 0
M  V30 3144 H 299.82 -3.17091 -0.68 0
M  V30 3145 H 299.605 -3.79642 0.980514 0
M  V30 3146 H 301.095 -4.17548 0.0657687 0
M  V30 3147 N 301.532 -0.945985 -1.26051 0
M  V30 3148 C 302.465 -0.403619 -2.24602 0
M  V30 3149 C 303.443 0.510241 -1.54387 0
M  V30 3150 O 304.627 0.446593 -1.83133 0
M  V30 3151 C 301.754 0.419564 -3.36091 0
M  V30 3152 C 300.8 -0.433454 -4.24292 0
M  V30 3153 S 301.633 -1.86037 -5.02146 0
M  V30 3154 C 302.789 -1.04538 -6.17108 0
M  V30 3155 H 303.022 -1.23883 -2.7026 0
M  V30 3156 H 300.555 -0.749438 -1.34992 0
M  V30 3157 H 302.513 0.888595 -4.00767 0
M  V30 3158 H 301.174 1.22951 -2.89036 0
M  V30 3159 H 300.367 0.197486 -5.03613 0
M  V30 3160 H 299.969 -0.837357 -3.64506 0
M  V30 3161 H 302.261 -0.289923 -6.76879 0
M  V30 3162 H 303.204 -1.81222 -6.84518 0
M  V30 3163 H 303.612 -0.579319 -5.61519 0
M  V30 3164 N 303.011 1.40521 -0.713556 0
M  V30 3165 C 304.257 2.01714 -0.261382 0
M  V30 3166 C 304.612 1.55562 1.13217 0
M  V30 3167 O 303.905 0.764893 1.7567 0
M  V30 3168 C 304.099 3.56317 -0.278 0
M  V30 3169 C 303.928 4.17476 -1.67163 0
M  V30 3170 C 302.698 4.50998 -2.2788 0
M  V30 3171 C 304.896 4.42472 -2.6215 0
M  V30 3172 N 302.878 4.9754 -3.5962 0
M  V30 3173 C 304.249 4.90985 -3.78594 0
M  V30 3174 C 306.304 4.24508 -2.60188 0
M  V30 3175 C 305.007 5.2342 -4.9338 0
M  V30 3176 C 307.033 4.58043 -3.741 0
M  V30 3177 C 306.395 5.06743 -4.89276 0
M  V30 3178 H 302.494 0.769104 -0.141434 0
M  V30 3179 H 305.078 1.70785 -0.934915 0
M  V30 3180 H 303.249 3.8668 0.36509 0
M  V30 3181 H 304.981 4.0425 0.190695 0
M  V30 3182 H 301.736 4.38062 -1.79997 0
M  V30 3183 H 302.16 5.25196 -4.27198 0
M  V30 3184 H 306.802 3.86078 -1.72348 0
M  V30 3185 H 304.52 5.60765 -5.81866 0
M  V30 3186 H 308.106 4.45785 -3.73854 0
M  V30 3187 H 306.986 5.32204 -5.75959 0
M  V30 3188 N 304.489 0.459591 1.5075 0
M  V30 3189 C 305.766 -0.160371 1.94941 0
M  V30 3190 C 306.146 -1.58048 1.39943 0
M  V30 3191 O 305.494 -2.206 0.595629 0
M  V30 3192 C 305.704 -0.115432 3.48809 0
M  V30 3193 C 307.052 -0.310026 4.23467 0
M  V30 3194 O 308.076 -0.192543 3.55679 0
M  V30 3195 O 306.935 -0.546031 5.43765 0
M  V30 3196 H 304.029 -0.117925 0.818549 0
M  V30 3197 H 306.575 0.519169 1.61563 0
M  V30 3198 H 305.347 0.87652 3.81357 0
M  V30 3199 H 304.97 -0.836928 3.88692 0
M  V30 3200 N 305.967 -1.56429 0.191757 0
M  V30 3201 C 307.195 -2.01867 -0.453586 0
M  V30 3202 C 307.61 -1.07191 -1.5542 0
M  V30 3203 O 306.967 -0.0762108 -1.82341 0
M  V30 3204 C 307.018 -3.47017 -1.013 0
M  V30 3205 O 306.739 -4.38078 0.0437005 0
M  V30 3206 C 308.24 -4.07956 -1.73456 0
M  V30 3207 H 305.46 -0.661211 -0.114199 0
M  V30 3208 H 308.004 -2.02295 0.299483 0
M  V30 3209 H 306.159 -3.47298 -1.71647 0
M  V30 3210 H 306.573 -5.23178 -0.372212 0
M  V30 3211 H 308.047 -5.1138 -2.07833 0
M  V30 3212 H 308.524 -3.51222 -2.63704 0
M  V30 3213 H 309.13 -4.11437 -1.07702 0
M  V30 3214 N 307.445 0.0818655 -1.57387 0
M  V30 3215 C 308.408 1.08265 -2.02018 0
M  V30 3216 C 309.408 1.32183 -0.915664 0
M  V30 3217 O 310.598 1.28073 -1.18081 0
M  V30 3218 C 307.73 2.42871 -2.39221 0
M  V30 3219 H 308.923 0.698204 -2.91659 0
M  V30 3220 H 306.476 0.327303 -1.52835 0
M  V30 3221 H 307.211 2.86167 -1.52575 0
M  V30 3222 H 306.996 2.26855 -3.19811 0
M  V30 3223 H 308.486 3.14826 -2.74362 0
M  V30 3224 N 308.923 1.53595 0.353017 0
M  V30 3225 C 309.855 1.77219 1.45348 0
M  V30 3226 C 310.868 0.65324 1.49119 0
M  V30 3227 O 312.057 0.929775 1.52373 0
M  V30 3228 C 309.157 1.84841 2.84055 0
M  V30 3229 C 308.33 3.14649 3.03833 0
M  V30 3230 C 307.389 3.13351 4.22727 0
M  V30 3231 O 306.415 3.87107 4.17297 0
M  V30 3232 N 307.617 2.35052 5.30783 0
M  V30 3233 H 310.382 2.72178 1.25457 0
M  V30 3234 H 307.943 1.52528 0.542833 0
M  V30 3235 H 309.935 1.81435 3.61751 0
M  V30 3236 H 308.505 0.971114 2.97133 0
M  V30 3237 H 307.725 3.31256 2.13689 0
M  V30 3238 H 309.013 4.00411 3.13925 0
M  V30 3239 H 308.411 1.74663 5.38061 0
M  V30 3240 H 306.968 2.37453 6.07009 0
M  V30 3241 N 310.401 -0.613514 1.45168 0
M  V30 3242 C 311.364 -1.7065 1.53007 0
M  V30 3243 C 312.364 -1.5548 0.410184 0
M  V30 3244 O 313.554 -1.60656 0.673455 0
M  V30 3245 C 310.686 -3.09875 1.42093 0
M  V30 3246 H 311.879 -1.65068 2.50385 0
M  V30 3247 H 309.432 -0.828728 1.32521 0
M  V30 3248 H 310.167 -3.21039 0.458769 0
M  V30 3249 H 309.952 -3.22293 2.23315 0
M  V30 3250 H 311.442 -3.895 1.50598 0
M  V30 3251 N 311.879 -1.3236 -0.855495 0
M  V30 3252 C 312.826 -1.21225 -1.964 0
M  V30 3253 C 313.796 -0.0946204 -1.6583 0
M  V30 3254 O 314.981 -0.27002 -1.8888 0
M  V30 3255 C 312.121 -0.940419 -3.32039 0
M  V30 3256 C 311.234 -2.14276 -3.75113 0
M  V30 3257 C 310.369 -1.80648 -4.9954 0
M  V30 3258 C 309.408 -2.97208 -5.35102 0
M  V30 3259 N 308.545 -2.63678 -6.50706 0
M  V30 3260 H 313.385 -2.16042 -2.05255 0
M  V30 3261 H 310.922 -1.07451 -1.00463 0
M  V30 3262 H 312.88 -0.763311 -4.10158 0
M  V30 3263 H 311.51 -0.0290413 -3.22787 0
M  V30 3264 H 310.562 -2.43017 -2.92655 0
M  V30 3265 H 311.874 -3.01468 -3.97389 0
M  V30 3266 H 311.028 -1.59484 -5.85363 0
M  V30 3267 H 309.767 -0.906678 -4.79198 0
M  V30 3268 H 308.772 -3.19004 -4.47791 0
M  V30 3269 H 309.997 -3.87918 -5.57401 0
M  V30 3270 H 307.943 -1.76238 -6.31883 0
M  V30 3271 H 307.86 -3.444 -6.72997 0
M  V30 3272 H 309.128 -2.45942 -7.39684 0
M  V30 3273 N 313.357 1.07166 -1.15556 0
M  V30 3274 C 314.634 1.76546 -0.842069 0
M  V30 3275 C 315.014 2.00453 0.661939 0
M  V30 3276 O 314.362 1.62452 1.60691 0
M  V30 3277 C 314.572 3.07266 -1.65495 0
M  V30 3278 C 315.92 3.81578 -1.86234 0
M  V30 3279 O 316.944 3.17083 -1.62287 0
M  V30 3280 O 315.803 4.97419 -2.26355 0
M  V30 3281 H 312.897 0.766756 -0.309862 0
M  V30 3282 H 315.443 1.13514 -1.26145 0
M  V30 3283 H 314.215 2.85494 -2.67598 0
M  V30 3284 H 313.838 3.7803 -1.23203 0
M  V30 3285 N 314.835 0.952656 1.25548 0
M  V30 3286 C 315.782 0.47008 2.25962 0
M  V30 3287 C 316.752 -0.476384 1.59122 0
M  V30 3288 O 317.937 -0.39007 1.8677 0
M  V30 3289 C 315.077 -0.247881 3.44209 0
M  V30 3290 C 314.19 0.735591 4.25691 0
M  V30 3291 C 313.325 -0.0047306 5.312 0
M  V30 3292 C 312.364 0.969805 6.04368 0
M  V30 3293 N 311.501 0.260486 7.01617 0
M  V30 3294 H 316.341 1.33126 2.66611 0
M  V30 3295 H 313.878 0.66765 1.31076 0
M  V30 3296 H 315.836 -0.680695 4.1161 0
M  V30 3297 H 314.466 -1.07312 3.0444 0
M  V30 3298 H 313.518 1.28689 3.57971 0
M  V30 3299 H 314.83 1.47934 4.76358 0
M  V30 3300 H 313.984 -0.496275 6.04667 0
M  V30 3301 H 312.723 -0.781282 4.81401 0
M  V30 3302 H 311.728 1.47237 5.29718 0
M  V30 3303 H 312.953 1.74655 6.56256 0
M  V30 3304 H 310.899 -0.497364 6.54112 0
M  V30 3305 H 310.816 0.943362 7.50091 0
M  V30 3306 H 312.084 -0.209587 7.79218 0
M  V30 3307 N 316.313 -1.40141 0.720998 0
M  V30 3308 C 317.246 -2.2819 0.020916 0
M  V30 3309 C 318.224 -1.43633 -0.762129 0
M  V30 3310 O 319.408 -1.7304 -0.747633 0
M  V30 3311 C 316.535 -3.24281 -0.977715 0
M  V30 3312 C 315.581 -4.25548 -0.284836 0
M  V30 3313 S 316.414 -5.26247 0.991169 0
M  V30 3314 C 317.57 -6.259 -0.0052214 0
M  V30 3315 H 317.803 -2.87218 0.767649 0
M  V30 3316 H 315.336 -1.45656 0.512233 0
M  V30 3317 H 317.294 -3.80167 -1.54865 0
M  V30 3318 H 315.955 -2.643 -1.69719 0
M  V30 3319 H 315.148 -4.93154 -1.03996 0
M  V30 3320 H 314.75 -3.73389 0.213684 0
M  V30 3321 H 317.042 -6.72143 -0.850279 0
M  V30 3322 H 317.985 -7.05224 0.637599 0
M  V30 3323 H 318.393 -5.63277 -0.371366 0
M  V30 3324 N 317.792 -0.46758 -1.50504 0
M  V30 3325 C 319.069 0.15003 -1.95024 0
M  V30 3326 C 319.449 1.57304 -1.40779 0
M  V30 3327 O 318.797 2.20281 -0.607319 0
M  V30 3328 C 319.007 0.0969324 -3.48865 0
M  V30 3329 C 320.355 0.287565 -4.23625 0
M  V30 3330 O 321.379 0.173678 -3.55776 0
M  V30 3331 O 320.238 0.517186 -5.44047 0
M  V30 3332 H 317.332 0.113582 -0.819163 0
M  V30 3333 H 319.878 -0.52773 -1.61286 0
M  V30 3334 H 318.65 -0.896732 -3.80886 0
M  V30 3335 H 318.273 0.816303 -3.8913 0
M  V30 3336 N 319.27 1.56325 -0.20005 0
M  V30 3337 C 320.233 2.18084 0.705132 0
M  V30 3338 C 321.233 1.13666 1.1374 0
M  V30 3339 O 322.423 1.39023 1.04968 0
M  V30 3340 C 319.555 2.78689 1.96329 0
M  V30 3341 H 320.748 2.99435 0.167023 0
M  V30 3342 H 318.301 1.56221 0.0495725 0
M  V30 3343 H 319.036 2.0115 2.5438 0
M  V30 3344 H 318.821 3.55133 1.66202 0
M  V30 3345 H 320.311 3.26096 2.60866 0
M  V30 3346 N 320.748 -0.0735177 1.57428 0
M  V30 3347 C 321.994 -0.768909 1.88307 0
M  V30 3348 C 322.349 -1.75273 0.793535 0
M  V30 3349 O 321.642 -1.90527 -0.202466 0
M  V30 3350 C 321.836 -1.51799 3.23561 0
M  V30 3351 C 321.665 -0.608217 4.45568 0
M  V30 3352 C 320.435 -0.245808 5.04702 0
M  V30 3353 C 322.633 0.0942904 5.14214 0
M  V30 3354 N 320.615 0.66987 6.10234 0
M  V30 3355 C 321.986 0.867222 6.13905 0
M  V30 3356 C 324.041 0.165943 4.97623 0
M  V30 3357 C 322.744 1.70515 6.98797 0
M  V30 3358 C 324.77 0.990837 5.83041 0
M  V30 3359 C 324.132 1.75182 6.82269 0
M  V30 3360 H 320.231 -0.25685 0.738615 0
M  V30 3361 H 322.815 -0.030499 1.94676 0
M  V30 3362 H 320.986 -2.22713 3.18203 0
M  V30 3363 H 322.718 -2.16226 3.42094 0
M  V30 3364 H 319.473 -0.598284 4.69806 0
M  V30 3365 H 319.897 1.1209 6.67656 0
M  V30 3366 H 324.539 -0.408064 4.20826 0
M  V30 3367 H 322.257 2.29013 7.7497 0
M  V30 3368 H 325.843 1.04923 5.72261 0
M  V30 3369 H 324.723 2.37983 7.47217 0
M  V30 3370 N 322.226 -1.5378 -0.344866 0
M  V30 3371 C 323.156 -1.84662 -1.42906 0
M  V30 3372 C 324.137 -0.701648 -1.54955 0
M  V30 3373 O 325.322 -0.953438 -1.69184 0
M  V30 3374 C 322.452 -2.05503 -2.79974 0
M  V30 3375 C 321.406 -3.21318 -2.82734 0
M  V30 3376 C 320.732 -3.2749 -4.22675 0
M  V30 3377 C 322.032 -4.59456 -2.48389 0
M  V30 3378 H 323.726 -2.75461 -1.17311 0
M  V30 3379 H 321.272 -1.32542 -0.562896 0
M  V30 3380 H 323.225 -2.25691 -3.55867 0
M  V30 3381 H 321.949 -1.11434 -3.07002 0
M  V30 3382 H 320.608 -3.00984 -2.09294 0
M  V30 3383 H 320.256 -2.31019 -4.4681 0
M  V30 3384 H 319.956 -4.05316 -4.25433 0
M  V30 3385 H 321.48 -3.49887 -5.00412 0
M  V30 3386 H 322.894 -4.79667 -3.13995 0
M  V30 3387 H 321.291 -5.39675 -2.62432 0
M  V30 3388 H 322.361 -4.63155 -1.4358 0
M  V30 3389 N 323.704 0.605807 -1.45491 0
M  V30 3390 C 324.929 1.39625 -1.53361 0
M  V30 3391 C 325.354 1.87351 -0.167645 0
M  V30 3392 O 324.712 1.60243 0.848051 0
M  V30 3393 C 324.76 2.57559 -2.5238 0
M  V30 3394 O 323.864 3.58248 -2.04285 0
M  V30 3395 H 323.205 0.416771 -0.516912 0
M  V30 3396 H 325.735 0.737103 -1.90861 0
M  V30 3397 H 325.745 3.0478 -2.71244 0
M  V30 3398 H 324.42 2.22171 -3.51586 0
M  V30 3399 H 322.997 3.17664 -1.95305 0
M  V30 3400 N 325.182 1.32811 0.848464 0
M  V30 3401 C 326.43 1.23479 1.59991 0
M  V30 3402 C 326.751 -0.201853 1.93952 0
M  V30 3403 O 326.021 -1.12818 1.60153 0
M  V30 3404 H 324.601 0.454034 0.593179 0
M  V30 3405 H 327.263 1.66412 1.01455 0
M  V30 3406 H 326.359 1.82178 2.53412 0
M  V30 3407 N 326.66 -1.06551 1.16123 0
M  V30 3408 C 328.071 -1.60768 0.949232 0
M  V30 3409 C 328.422 -1.89523 -0.507508 0
M  V30 3410 O 327.547 -1.66671 -1.38021 0
M  V30 3411 C 328.142 -2.92086 1.71671 0
M  V30 3412 C 326.701 -3.43015 1.54977 0
M  V30 3413 C 325.848 -2.16947 1.72711 0
M  V30 3414 H 328.799 -0.895354 1.31031 0
M  V30 3415 H 328.82 -3.6138 1.19099 0
M  V30 3416 H 328.332 -2.71127 2.7769 0
M  V30 3417 H 326.433 -3.69039 0.513873 0
M  V30 3418 H 326.546 -4.18516 2.33198 0
M  V30 3419 H 324.91 -2.27041 1.15431 0
M  V30 3420 H 325.693 -1.98473 2.80113 0
M  V30 3421 N 328.138 -0.959301 -1.25041 0
M  V30 3422 C 329.086 -0.474437 -2.2771 0
M  V30 3423 C 330.08 0.457697 -1.631 0
M  V30 3424 O 331.286 0.333912 -1.76876 0
M  V30 3425 H 327.661 -0.134936 -0.739795 0
M  V30 3426 H 329.632 -1.35251 -2.65988 0
M  V30 3427 C 328.381 0.227884 -3.46952 0
M  V30 3428 H 327.704 -0.480248 -3.96905 0
M  V30 3429 H 329.144 0.531091 -4.20661 0
M  V30 3430 C 327.603 1.452 -3.04004 0
M  V30 3431 O 328.133 2.54949 -3.10426 0
M  V30 3432 N 326.339 1.31502 -2.59144 0
M  V30 3433 H 325.886 0.422065 -2.54119 0
M  V30 3434 H 325.844 2.13521 -2.30773 0
M  V30 3435 N 329.616 1.39756 -0.72842 0
M  V30 3436 C 330.579 2.29012 -0.0927297 0
M  V30 3437 C 331.579 1.45992 0.674025 0
M  V30 3438 O 332.769 1.66749 0.50402 0
M  V30 3439 C 329.901 3.29396 0.878137 0
M  V30 3440 H 331.094 2.86729 -0.879011 0
M  V30 3441 H 328.647 1.48293 -0.493847 0
M  V30 3442 H 329.382 2.76722 1.69101 0
M  V30 3443 H 329.167 3.907 0.331051 0
M  V30 3444 H 330.657 3.96199 1.3197 0
M  V30 3445 N 331.094 0.475555 1.50254 0
M  V30 3446 C 332.042 -0.330276 2.30243 0
M  V30 3447 C 333.036 -0.986306 1.37726 0
M  V30 3448 O 334.242 -0.9169 1.54897 0
M  V30 3449 H 330.617 -0.125353 0.741479 0
M  V30 3450 H 332.588 0.364702 2.96163 0
M  V30 3451 C 331.337 -1.39704 3.18399 0
M  V30 3452 H 330.66 -0.901621 3.89501 0
M  V30 3453 H 332.1 -1.93336 3.77355 0
M  V30 3454 C 330.559 -2.4014 2.36293 0
M  V30 3455 O 331.089 -3.45504 2.04914 0
M  V30 3456 N 329.295 -2.1197 1.98789 0
M  V30 3457 H 328.842 -1.2631 2.24507 0
M  V30 3458 H 328.8 -2.79403 1.44157 0
M  V30 3459 N 332.573 -1.56217 0.208337 0
M  V30 3460 C 333.52 -2.19699 -0.707192 0
M  V30 3461 C 334.49 -1.14836 -1.20008 0
M  V30 3462 O 335.675 -1.4314 -1.26157 0
M  V30 3463 C 332.815 -2.87061 -1.91546 0
M  V30 3464 C 331.928 -4.06483 -1.46271 0
M  V30 3465 C 331.063 -4.61665 -2.62752 0
M  V30 3466 C 330.102 -5.73417 -2.14147 0
M  V30 3467 N 329.239 -6.22948 -3.23853 0
M  V30 3468 H 334.079 -2.97575 -0.159111 0
M  V30 3469 H 331.616 -1.46948 -0.0667874 0
M  V30 3470 H 333.574 -3.24294 -2.62468 0
M  V30 3471 H 332.204 -2.11725 -2.43664 0
M  V30 3472 H 331.256 -3.74825 -0.648886 0
M  V30 3473 H 332.568 -4.87271 -1.06622 0
M  V30 3474 H 331.722 -5.01272 -3.41776 0
M  V30 3475 H 330.461 -3.80013 -3.05682 0
M  V30 3476 H 329.466 -5.33326 -1.33581 0
M  V30 3477 H 330.691 -6.56897 -1.72232 0
M  V30 3478 H 328.637 -5.44213 -3.6629 0
M  V30 3479 H 328.554 -6.98823 -2.88414 0
M  V30 3480 H 329.822 -6.6721 -4.03052 0
M  V30 3481 N 334.051 0.0651679 -1.57465 0
M  V30 3482 C 335.3 0.761916 -1.86756 0
M  V30 3483 C 335.613 1.78406 -0.801925 0
M  V30 3484 O 336.819 2.53084 -0.982885 0
M  V30 3485 C 335.275 1.40603 -3.31299 0
M  V30 3486 C 334.883 0.422115 -4.46007 0
M  V30 3487 C 336.627 2.08476 -3.69781 0
M  V30 3488 C 334.534 1.07252 -5.81593 0
M  V30 3489 H 333.464 0.288308 -0.696702 0
M  V30 3490 H 336.115 0.015344 -1.83494 0
M  V30 3491 H 334.497 2.20109 -3.29193 0
M  V30 3492 H 335.671 -0.343613 -4.59517 0
M  V30 3493 H 333.986 -0.152527 -4.16121 0
M  V30 3494 H 336.583 2.57925 -4.68379 0
M  V30 3495 H 336.926 2.88712 -2.99919 0
M  V30 3496 H 337.459 1.35792 -3.73905 0
M  V30 3497 H 334.198 0.310342 -6.54765 0
M  V30 3498 H 333.718 1.80895 -5.71872 0
M  V30 3499 H 335.397 1.59043 -6.27148 0
M  V30 3500 N 335.529 1.53961 0.336706 0
M  V30 3501 C 336.439 1.85432 1.43708 0
M  V30 3502 C 337.455 0.745053 1.57242 0
M  V30 3503 O 338.631 1.03804 1.72588 0
M  V30 3504 C 335.696 2.06349 2.78605 0
M  V30 3505 C 334.757 3.30191 2.74358 0
M  V30 3506 C 333.99 3.50101 4.02822 0
M  V30 3507 O 334.213 2.7371 5.00439 0
M  V30 3508 O 333.147 4.43547 4.06878 0
M  V30 3509 H 336.973 2.78975 1.20028 0
M  V30 3510 H 334.558 1.39701 0.52952 0
M  V30 3511 H 336.44 2.21513 3.58483 0
M  V30 3512 H 335.115 1.15995 3.02203 0
M  V30 3513 H 334.022 3.20425 1.93078 0
M  V30 3514 H 335.355 4.2056 2.55715 0
M  V30 3515 N 337.007 -0.598083 1.45811 0
M  V30 3516 C 338.253 -1.35882 1.50545 0
M  V30 3517 C 338.586 -1.93616 0.150445 0
M  V30 3518 O 337.861 -1.75604 -0.83628 0
M  V30 3519 C 338.144 -2.49966 2.59208 0
M  V30 3520 C 337.997 -1.97367 4.04186 0
M  V30 3521 C 339.316 -3.52068 2.64076 0
M  V30 3522 H 336.435 -0.492717 0.548087 0
M  V30 3523 H 339.077 -0.673319 1.77669 0
M  V30 3524 H 337.227 -3.08443 2.3621 0
M  V30 3525 H 338.899 -1.43466 4.38423 0
M  V30 3526 H 337.142 -1.283 4.14393 0
M  V30 3527 H 337.813 -2.79649 4.75921 0
M  V30 3528 H 340.289 -3.03448 2.84708 0
M  V30 3529 H 339.165 -4.2937 3.41954 0
M  V30 3530 H 339.426 -4.08304 1.69531 0
M  V30 3531 N 338.485 -1.33259 -0.841409 0
M  V30 3532 C 339.731 -1.24757 -1.59886 0
M  V30 3533 C 340.064 0.186913 -1.93298 0
M  V30 3534 O 339.339 1.12757 -1.5848 0
M  V30 3535 C 339.622 -2.12036 -2.91055 0
M  V30 3536 C 339.475 -3.63929 -2.6434 0
M  V30 3537 C 340.794 -1.9916 -3.92458 0
M  V30 3538 H 337.913 -0.454542 -0.580138 0
M  V30 3539 H 340.555 -1.63335 -0.970647 0
M  V30 3540 H 338.705 -1.79265 -3.44669 0
M  V30 3541 H 340.377 -4.06978 -2.17178 0
M  V30 3542 H 338.62 -3.85935 -1.98082 0
M  V30 3543 H 339.291 -4.20341 -3.57796 0
M  V30 3544 H 341.767 -2.27895 -3.48143 0
M  V30 3545 H 340.643 -2.62484 -4.82072 0
M  V30 3546 H 340.904 -0.963082 -4.31482 0
M  V30 3547 N 339.963 1.05934 -1.16686 0
M  V30 3548 C 341.212 1.78188 -0.945085 0
M  V30 3549 C 341.525 1.88338 0.528021 0
M  V30 3550 O 342.731 2.57258 0.867799 0
M  V30 3551 C 341.187 3.20277 -1.64167 0
M  V30 3552 C 340.795 3.18281 -3.15279 0
M  V30 3553 C 342.539 3.97039 -1.502 0
M  V30 3554 C 340.446 4.55112 -3.7766 0
M  V30 3555 H 339.376 0.667866 -0.349959 0
M  V30 3556 H 342.027 1.18794 -1.39858 0
M  V30 3557 H 340.409 3.79952 -1.11589 0
M  V30 3558 H 341.583 2.68167 -3.74731 0
M  V30 3559 H 339.898 2.55018 -3.29173 0
M  V30 3560 H 342.495 4.98194 -1.94183 0
M  V30 3561 H 342.838 4.13845 -0.451461 0
M  V30 3562 H 343.371 3.43894 -1.99954 0
M  V30 3563 H 340.11 4.43512 -4.82677 0
M  V30 3564 H 339.63 5.05406 -3.22994 0
M  V30 3565 H 341.309 5.24064 -3.79428 0
M  V30 3566 N 341.441 0.965919 1.2453 0
M  V30 3567 C 342.404 0.499547 2.2369 0
M  V30 3568 C 343.404 -0.40294 1.5567 0
M  V30 3569 O 344.594 -0.19865 1.73064 0
M  V30 3570 C 341.726 -0.276792 3.39774 0
M  V30 3571 H 342.919 1.37613 2.66463 0
M  V30 3572 H 340.472 0.750324 1.37112 0
M  V30 3573 H 341.207 -1.17055 3.02438 0
M  V30 3574 H 340.992 0.370826 3.90343 0
M  V30 3575 H 342.482 -0.592175 4.1338 0
M  V30 3576 N 342.919 -1.39368 0.735821 0
M  V30 3577 C 343.867 -2.32443 0.0855131 0
M  V30 3578 C 344.861 -1.53104 -0.724954 0
M  V30 3579 O 346.067 -1.68762 -0.626047 0
M  V30 3580 H 342.442 -0.751948 0.00885257 0
M  V30 3581 H 344.413 -2.84916 0.886883 0
M  V30 3582 C 343.162 -3.38206 -0.806983 0
M  V30 3583 H 342.485 -3.99335 -0.19274 0
M  V30 3584 H 343.925 -4.05779 -1.2296 0
M  V30 3585 C 342.384 -2.75321 -1.94165 0
M  V30 3586 O 342.914 -2.63231 -3.03435 0
M  V30 3587 N 341.12 -2.33396 -1.73132 0
M  V30 3588 H 340.667 -2.4343 -0.842596 0
M  V30 3589 H 340.625 -1.91661 -2.49225 0
M  V30 3590 N 344.397 -0.483516 -1.5 0
M  V30 3591 C 345.345 0.318061 -2.30415 0
M  V30 3592 C 346.339 0.978988 -1.38247 0
M  V30 3593 O 347.545 0.908673 -1.55381 0
M  V30 3594 H 343.92 0.121419 -0.742133 0
M  V30 3595 H 345.891 -0.380403 -2.95965 0
M  V30 3596 C 344.64 1.38013 -3.19136 0
M  V30 3597 H 343.963 0.880952 -3.89973 0
M  V30 3598 H 345.403 1.91332 -3.78375 0
M  V30 3599 C 343.862 2.38884 -2.37563 0
M  V30 3600 O 344.392 3.44412 -2.06744 0
M  V30 3601 N 342.598 2.10912 -1.99911 0
M  V30 3602 H 342.145 1.25118 -2.25174 0
M  V30 3603 H 342.103 2.78635 -1.45636 0
M  V30 3604 N 345.875 1.56104 -0.216619 0
M  V30 3605 C 347.152 1.89988 0.465165 0
M  V30 3606 C 347.532 1.13326 1.78102 0
M  V30 3607 O 346.88 0.241033 2.27225 0
M  V30 3608 C 347.09 3.42646 0.662939 0
M  V30 3609 C 348.438 4.13311 0.972602 0
M  V30 3610 O 349.462 3.48217 0.749901 0
M  V30 3611 O 348.321 5.28396 1.39499 0
M  V30 3612 H 345.415 0.78979 0.245276 0
M  V30 3613 H 347.961 1.67721 -0.258436 0
M  V30 3614 H 346.733 3.90399 -0.26543 0
M  V30 3615 H 346.356 3.70677 1.43821 0
M  V30 3616 N 347.353 -0.0568162 1.57498 0
M  V30 3617 C 348.316 -1.05038 2.03715 0
M  V30 3618 C 349.316 -1.30709 0.936577 0
M  V30 3619 O 350.506 -1.26178 1.20103 0
M  V30 3620 C 347.638 -2.39034 2.43055 0
M  V30 3621 H 348.831 -0.651715 2.92733 0
M  V30 3622 H 346.384 -0.302947 1.53336 0
M  V30 3623 H 347.119 -2.83703 1.57108 0
M  V30 3624 H 346.904 -2.21739 3.2338 0
M  V30 3625 H 348.394 -3.10421 2.79336 0
M  V30 3626 N 348.832 -1.54138 -0.328536 0
M  V30 3627 C 349.765 -1.78014 -1.4278 0
M  V30 3628 C 350.743 -0.629889 -1.49904 0
M  V30 3629 O 351.927 -0.866763 -1.6739 0
M  V30 3630 C 349.054 -1.89225 -2.80912 0
M  V30 3631 C 348.1 -3.11483 -2.91343 0
M  V30 3632 S 348.933 -4.70201 -2.56263 0
M  V30 3633 C 350.089 -4.84312 -3.96476 0
M  V30 3634 H 350.322 -2.70974 -1.22313 0
M  V30 3635 H 347.855 -1.45197 -0.525084 0
M  V30 3636 H 349.813 -1.9637 -3.60485 0
M  V30 3637 H 348.474 -0.972518 -2.98665 0
M  V30 3638 H 347.667 -3.16046 -3.92595 0
M  V30 3639 H 347.269 -3.02642 -2.19736 0
M  V30 3640 H 349.561 -4.66643 -4.91173 0
M  V30 3641 H 350.504 -5.86411 -3.96898 0
M  V30 3642 H 350.912 -4.12652 -3.85199 0
M  V30 3643 N 350.31 0.590341 -1.46126 0
M  V30 3644 C 351.273 1.68194 -1.55703 0
M  V30 3645 C 352.273 1.54808 -0.434868 0
M  V30 3646 O 353.463 1.59564 -0.698928 0
M  V30 3647 C 350.595 3.07575 -1.47005 0
M  V30 3648 H 351.788 1.61064 -2.52979 0
M  V30 3649 H 349.341 0.807541 -1.33823 0
M  V30 3650 H 350.076 3.20268 -0.509785 0
M  V30 3651 H 349.861 3.187 -2.28414 0
M  V30 3652 H 351.351 3.87055 -1.56776 0
M  V30 3653 N 351.788 1.33704 0.83433 0
M  V30 3654 C 352.721 1.18675 1.94914 0
M  V30 3655 C 353.699 0.0811145 1.62398 0
M  V30 3656 O 354.883 0.244186 1.86912 0
M  V30 3657 C 352.01 0.821231 3.28593 0
M  V30 3658 C 351.056 1.93501 3.80079 0
M  V30 3659 S 351.889 3.54671 4.01209 0
M  V30 3660 C 353.045 3.20136 5.37833 0
M  V30 3661 H 353.278 2.13043 2.07364 0
M  V30 3662 H 350.811 1.18598 0.988624 0
M  V30 3663 H 352.769 0.617123 4.05835 0
M  V30 3664 H 351.43 -0.103927 3.13928 0
M  V30 3665 H 350.623 1.63273 4.76821 0
M  V30 3666 H 350.225 2.09601 3.09747 0
M  V30 3667 H 352.517 2.71242 6.20833 0
M  V30 3668 H 353.46 4.15975 5.73036 0
M  V30 3669 H 353.868 2.56613 5.02802 0
M  V30 3670 N 353.266 -1.05314 1.17247 0
M  V30 3671 C 354.514 -1.77941 0.958194 0
M  V30 3672 C 354.835 -1.88089 -0.514556 0
M  V30 3673 O 354.105 -1.39676 -1.37359 0
M  V30 3674 H 352.685 -0.659116 0.351533 0
M  V30 3675 H 355.347 -1.27166 1.47699 0
M  V30 3676 H 354.443 -2.79663 1.38546 0
M  V30 3677 N 354.744 -0.972509 -1.24016 0
M  V30 3678 C 355.707 -0.511403 -2.23422 0
M  V30 3679 C 356.707 0.394679 -1.55881 0
M  V30 3680 O 357.897 0.189469 -1.73167 0
M  V30 3681 C 355.029 0.258769 -3.39916 0
M  V30 3682 H 356.222 -1.39024 -2.6573 0
M  V30 3683 H 353.775 -0.757585 -1.36713 0
M  V30 3684 H 354.51 1.1545 -3.03054 0
M  V30 3685 H 354.295 -0.391522 -3.9014 0
M  V30 3686 H 355.785 0.570244 -4.13688 0
M  V30 3687 N 356.222 1.38976 -0.743202 0
M  V30 3688 C 357.468 2.0064 -0.295189 0
M  V30 3689 C 357.801 1.5885 1.11716 0
M  V30 3690 O 357.076 0.821181 1.76315 0
M  V30 3691 C 357.359 3.578 -0.406318 0
M  V30 3692 C 357.212 4.09586 -1.85903 0
M  V30 3693 C 358.531 4.39616 0.206439 0
M  V30 3694 H 355.65 0.728935 -0.108733 0
M  V30 3695 H 358.292 1.65067 -0.940897 0
M  V30 3696 H 356.442 3.88235 0.143419 0
M  V30 3697 H 358.114 3.89837 -2.46627 0
M  V30 3698 H 356.357 3.6284 -2.3776 0
M  V30 3699 H 357.028 5.18708 -1.888 0
M  V30 3700 H 359.504 4.15273 -0.262283 0
M  V30 3701 H 358.38 5.48812 0.0983819 0
M  V30 3702 H 358.641 4.22754 1.2935 0
M  V30 3703 N 357.7 0.491464 1.49741 0
M  V30 3704 C 358.61 -0.296835 2.32715 0
M  V30 3705 C 359.626 -0.976536 1.44013 0
M  V30 3706 O 360.802 -0.960023 1.77047 0
M  V30 3707 C 357.867 -1.35288 3.19215 0
M  V30 3708 C 356.928 -0.687632 4.23757 0
M  V30 3709 C 356.161 -1.69336 5.06123 0
M  V30 3710 O 356.384 -2.92219 4.89861 0
M  V30 3711 O 355.318 -1.25394 5.88693 0
M  V30 3712 H 359.144 0.382048 3.01287 0
M  V30 3713 H 356.729 0.252953 1.47243 0
M  V30 3714 H 358.611 -1.96411 3.72828 0
M  V30 3715 H 357.286 -2.01487 2.53347 0
M  V30 3716 H 356.193 -0.0369159 3.74082 0
M  V30 3717 H 357.526 -0.0682566 4.92153 0
M  V30 3718 N 359.178 -1.55987 0.224894 0
M  V30 3719 C 360.141 -2.19178 -0.670348 0
M  V30 3720 C 361.141 -1.15461 -1.11917 0
M  V30 3721 O 362.331 -1.40675 -1.02743 0
M  V30 3722 C 359.463 -2.81777 -1.9187 0
M  V30 3723 H 360.656 -2.99662 -0.119364 0
M  V30 3724 H 358.209 -1.5628 -0.0247128 0
M  V30 3725 H 358.944 -2.05172 -2.51147 0
M  V30 3726 H 358.729 -3.57732 -1.60531 0
M  V30 3727 H 360.219 -3.30205 -2.55645 0
M  V30 3728 N 360.656 0.0484629 -1.57525 0
M  V30 3729 C 361.586 1.0549 -2.08313 0
M  V30 3730 C 362.567 1.38929 -0.981463 0
M  V30 3731 O 363.752 1.48151 -1.25558 0
M  V30 3732 C 360.882 2.36162 -2.54646 0
M  V30 3733 C 359.836 2.17016 -3.68901 0
M  V30 3734 C 359.162 3.53278 -4.01371 0
M  V30 3735 C 360.462 1.57219 -4.98076 0
M  V30 3736 H 362.156 0.632195 -2.92649 0
M  V30 3737 H 359.702 0.302654 -1.40784 0
M  V30 3738 H 361.655 3.06882 -2.88793 0
M  V30 3739 H 360.379 2.80456 -1.67368 0
M  V30 3740 H 359.038 1.48733 -3.35073 0
M  V30 3741 H 358.686 3.95185 -3.11188 0
M  V30 3742 H 358.386 3.41299 -4.78318 0
M  V30 3743 H 359.91 4.25391 -4.38035 0
M  V30 3744 H 361.324 2.17832 -5.30304 0
M  V30 3745 H 359.721 1.55871 -5.79503 0
M  V30 3746 H 360.791 0.535956 -4.81929 0
M  V30 3747 N 362.134 1.5431 0.320358 0
M  V30 3748 C 363.081 1.83918 1.39438 0
M  V30 3749 C 364.051 0.686525 1.51248 0
M  V30 3750 O 365.236 0.933269 1.66417 0
M  V30 3751 C 362.376 2.075 2.75749 0
M  V30 3752 C 361.489 3.35177 2.72544 0
M  V30 3753 C 360.624 3.48704 4.00723 0
M  V30 3754 C 359.663 4.70244 3.91838 0
M  V30 3755 N 358.8 4.80679 5.11754 0
M  V30 3756 H 363.64 2.75544 1.13489 0
M  V30 3757 H 361.177 1.36459 0.549309 0
M  V30 3758 H 363.135 2.19166 3.54996 0
M  V30 3759 H 361.765 1.19163 3 0
M  V30 3760 H 360.817 3.32233 1.85271 0
M  V30 3761 H 362.129 4.24534 2.61863 0
M  V30 3762 H 361.283 3.59928 4.88402 0
M  V30 3763 H 360.022 2.57445 4.14214 0
M  V30 3764 H 359.027 4.59072 3.02544 0
M  V30 3765 H 360.252 5.6289 3.7991 0
M  V30 3766 H 358.198 3.92337 5.25745 0
M  V30 3767 H 358.115 5.64007 5.0342 0
M  V30 3768 H 359.383 4.96239 6.01138 0
M  V30 3769 N 363.613 -0.582584 1.46437 0
M  V30 3770 C 364.576 -1.67366 1.56592 0
M  V30 3771 C 365.576 -1.54575 0.443072 0
M  V30 3772 O 366.766 -1.59191 0.707381 0
M  V30 3773 C 363.898 -3.06791 1.48634 0
M  V30 3774 H 365.091 -1.5972 2.5383 0
M  V30 3775 H 362.644 -0.800432 1.34249 0
M  V30 3776 H 363.379 -3.19993 0.526763 0
M  V30 3777 H 363.164 -3.17484 2.30101 0
M  V30 3778 H 364.654 -3.86218 1.58826 0
M  V30 3779 N 365.091 -1.34144 -0.827227 0
M  V30 3780 C 366.041 -1.21923 -1.92663 0
M  V30 3781 C 367.025 -0.119294 -1.60457 0
M  V30 3782 O 368.217 -0.348539 -1.73534 0
M  V30 3783 C 365.346 -0.972492 -3.29238 0
M  V30 3784 C 364.432 -2.1154 -3.67576 0
M  V30 3785 N 364.823 -3.36627 -3.77512 0
M  V30 3786 C 363.121 -2.02468 -3.97395 0
M  V30 3787 C 363.822 -4.11658 -4.1099 0
M  V30 3788 N 362.798 -3.40207 -4.23981 0
M  V30 3789 H 366.6 -2.16721 -1.98517 0
M  V30 3790 H 364.114 -1.2632 -1.02064 0
M  V30 3791 H 366.111 -0.865847 -4.0781 0
M  V30 3792 H 364.771 -0.0331509 -3.24683 0
M  V30 3793 H 365.782 -3.71234 -3.61118 0
M  V30 3794 H 362.459 -1.16265 -4.00985 0
M  V30 3795 H 363.849 -5.19657 -4.25918 0
M  V30 3796 N 366.569 1.04691 -1.17803 0
M  V30 3797 C 367.517 2.14665 -0.895635 0
M  V30 3798 C 368.511 1.68806 0.141679 0
M  V30 3799 O 369.717 1.79999 -0.00587914 0
M  V30 3800 H 366.092 0.701038 -0.272121 0
M  V30 3801 H 368.063 2.35685 -1.83017 0
M  V30 3802 C 366.812 3.45019 -0.430962 0
M  V30 3803 H 366.135 3.8071 -1.22064 0
M  V30 3804 H 367.575 4.23125 -0.272301 0
M  V30 3805 C 366.034 3.25943 0.852207 0
M  V30 3806 O 366.564 3.5296 1.91786 0
M  V30 3807 N 364.77 2.79304 0.802346 0
M  V30 3808 H 364.317 2.57518 -0.0650788 0
M  V30 3809 H 364.275 2.66921 1.66134 0
M  V30 3810 N 368.047 0.979072 1.23499 0
M  V30 3811 C 368.994 0.517904 2.24914 0
M  V30 3812 C 369.964 -0.442525 1.60097 0
M  V30 3813 O 371.149 -0.350365 1.87556 0
M  V30 3814 C 368.289 -0.174813 3.44657 0
M  V30 3815 C 367.402 0.825721 4.24035 0
M  V30 3816 C 366.537 0.107946 5.3109 0
M  V30 3817 C 365.576 1.09778 6.02175 0
M  V30 3818 N 364.713 0.40925 7.00906 0
M  V30 3819 H 369.553 1.38751 2.63727 0
M  V30 3820 H 367.09 0.695303 1.2963 0
M  V30 3821 H 369.048 -0.593233 4.12961 0
M  V30 3822 H 367.678 -1.0083 3.06648 0
M  V30 3823 H 366.73 1.36253 3.55161 0
M  V30 3824 H 368.042 1.58005 4.73113 0
M  V30 3825 H 367.196 -0.367904 6.05583 0
M  V30 3826 H 365.935 -0.678994 4.8295 0
M  V30 3827 H 364.94 1.5844 5.26476 0
M  V30 3828 H 366.165 1.88536 6.52404 0
M  V30 3829 H 364.111 -0.358506 6.5502 0
M  V30 3830 H 364.028 1.10226 7.47921 0
M  V30 3831 H 365.296 -0.0442557 7.79487 0
M  V30 3832 N 369.525 -1.3858 0.750561 0
M  V30 3833 C 370.75 -2.04997 0.314812 0
M  V30 3834 C 371.175 -1.56235 -1.04749 0
M  V30 3835 O 370.533 -0.712981 -1.66692 0
M  V30 3836 C 370.581 -3.58961 0.343415 0
M  V30 3837 O 369.685 -4.07025 -0.663628 0
M  V30 3838 H 369.026 -0.649081 0.139962 0
M  V30 3839 H 371.556 -1.77313 1.02084 0
M  V30 3840 H 371.566 -4.07542 0.193233 0
M  V30 3841 H 370.241 -3.93811 1.33738 0
M  V30 3842 H 368.818 -3.6982 -0.478307 0
M  V30 3843 N 371.003 -0.499398 -1.49478 0
M  V30 3844 C 372.228 0.044722 -2.07352 0
M  V30 3845 C 372.653 1.30207 -1.35749 0
M  V30 3846 O 372.011 1.76516 -0.413732 0
M  V30 3847 C 372.059 0.283013 -3.59488 0
M  V30 3848 O 371.163 1.35804 -3.89398 0
M  V30 3849 H 370.504 -0.0255147 -0.66351 0
M  V30 3850 H 373.034 -0.698561 -1.92305 0
M  V30 3851 H 373.044 0.515007 -4.04737 0
M  V30 3852 H 371.719 -0.635636 -4.11014 0
M  V30 3853 H 370.296 1.11113 -3.55961 0
M  V30 3854 N 372.481 1.55866 -0.233164 0
M  V30 3855 C 373.73 1.97779 0.39579 0
M  V30 3856 C 374.043 1.12419 1.60066 0
M  V30 3857 O 375.249 1.44283 2.29988 0
M  V30 3858 C 373.705 3.5188 0.755556 0
M  V30 3859 C 373.313 4.45959 -0.427152 0
M  V30 3860 C 375.057 4.02479 1.34946 0
M  V30 3861 C 372.964 5.91383 -0.0443043 0
M  V30 3862 H 371.894 0.738592 0.15165 0
M  V30 3863 H 374.545 1.80486 -0.331212 0
M  V30 3864 H 372.927 3.64816 1.5403 0
M  V30 3865 H 374.101 4.44776 -1.20462 0
M  V30 3866 H 372.416 4.05765 -0.935068 0
M  V30 3867 H 375.013 5.08637 1.649 0
M  V30 3868 H 375.356 3.49014 2.26925 0
M  V30 3869 H 375.889 3.92813 0.62791 0
M  V30 3870 H 372.628 6.48857 -0.930874 0
M  V30 3871 H 372.148 5.95734 0.697238 0
M  V30 3872 H 373.827 6.45893 0.378334 0
M  V30 3873 N 373.959 -0.0401083 1.57549 0
M  V30 3874 C 375.37 -0.588097 1.77196 0
M  V30 3875 C 375.721 -1.76209 0.862832 0
M  V30 3876 O 374.846 -2.16331 0.0548389 0
M  V30 3877 C 375.441 -1.07363 3.21339 0
M  V30 3878 C 374 -1.56723 3.42221 0
M  V30 3879 C 373.147 -0.50041 2.72747 0
M  V30 3880 H 376.098 0.186119 1.57605 0
M  V30 3881 H 376.119 -1.94143 3.27244 0
M  V30 3882 H 375.631 -0.218975 3.87482 0
M  V30 3883 H 373.732 -2.4441 2.81237 0
M  V30 3884 H 373.845 -1.62234 4.50796 0
M  V30 3885 H 372.209 -0.952894 2.36203 0
M  V30 3886 H 372.992 0.344599 3.41566 0
M  V30 3887 N 375.437 -1.54477 -0.31217 0
M  V30 3888 C 376.683 -1.73483 -1.0503 0
M  V30 3889 C 377.016 -0.513125 -1.87298 0
M  V30 3890 O 376.291 0.489864 -1.8823 0
M  V30 3891 C 376.574 -3.01723 -1.96558 0
M  V30 3892 C 376.427 -4.3417 -1.17545 0
M  V30 3893 C 377.746 -3.25772 -2.95907 0
M  V30 3894 H 374.865 -0.631222 -0.380432 0
M  V30 3895 H 377.507 -1.87184 -0.325932 0
M  V30 3896 H 375.657 -2.90174 -2.58324 0
M  V30 3897 H 377.329 -4.5762 -0.581513 0
M  V30 3898 H 375.572 -4.31159 -0.477925 0
M  V30 3899 H 376.243 -5.20143 -1.84811 0
M  V30 3900 H 378.719 -3.36857 -2.44267 0
M  V30 3901 H 377.595 -4.16838 -3.57123 0
M  V30 3902 H 377.856 -2.43537 -3.68974 0
M  V30 3903 N 376.915 0.57481 -1.46744 0
M  V30 3904 C 378.162 1.33272 -1.52462 0
M  V30 3905 C 378.49 1.93669 -0.179572 0
M  V30 3906 O 377.745 1.7743 0.825664 0
M  V30 3907 C 378.044 2.476 -2.57738 0
M  V30 3908 C 377.71 2.05146 -4.01529 0
M  V30 3909 C 376.372 1.93284 -4.40676 0
M  V30 3910 C 378.724 1.72506 -4.91824 0
M  V30 3911 C 376.052 1.47049 -5.67973 0
M  V30 3912 C 378.404 1.27748 -6.19567 0
M  V30 3913 C 377.068 1.14468 -6.57612 0
M  V30 3914 H 376.338 0.487678 -0.557899 0
M  V30 3915 H 378.985 0.646456 -1.80259 0
M  V30 3916 H 377.29 3.21708 -2.23632 0
M  V30 3917 H 378.987 3.05807 -2.5939 0
M  V30 3918 H 375.577 2.15316 -3.7059 0
M  V30 3919 H 379.761 1.80552 -4.62293 0
M  V30 3920 H 375.017 1.35417 -5.96215 0
M  V30 3921 H 379.191 1.01547 -6.88957 0
M  V30 3922 H 376.818 0.78419 -7.56145 0
M  V30 3923 N 378.394 1.34581 0.820102 0
M  V30 3924 C 379.642 1.26845 1.57336 0
M  V30 3925 C 379.963 -0.160667 1.94337 0
M  V30 3926 O 379.233 -1.09396 1.6251 0
M  V30 3927 H 377.813 0.466514 0.583415 0
M  V30 3928 H 380.475 1.68526 0.979027 0
M  V30 3929 H 379.571 1.87513 2.4949 0
M  V30 3930 N 379.872 -1.04064 1.18357 0
M  V30 3931 C 381.118 -1.77528 0.980397 0
M  V30 3932 C 381.451 -1.87948 -0.48879 0
M  V30 3933 O 380.726 -1.3876 -1.36293 0
M  V30 3934 C 381.009 -3.20797 1.63588 0
M  V30 3935 C 380.862 -3.1832 3.17793 0
M  V30 3936 C 382.181 -4.18911 1.34914 0
M  V30 3937 H 379.3 -0.644443 0.357578 0
M  V30 3938 H 381.942 -1.2156 1.46024 0
M  V30 3939 H 380.092 -3.68586 1.22788 0
M  V30 3940 H 381.764 -2.78521 3.67728 0
M  V30 3941 H 380.007 -2.56351 3.49952 0
M  V30 3942 H 380.678 -4.19489 3.58794 0
M  V30 3943 H 383.154 -3.7967 1.70265 0
M  V30 3944 H 382.03 -5.17374 1.83346 0
M  V30 3945 H 382.291 -4.41262 0.272027 0
M  V30 3946 N 381.35 -0.985608 -1.22978 0
M  V30 3947 C 382.627 -0.573599 -1.87001 0
M  V30 3948 C 383.007 0.949213 -1.88555 0
M  V30 3949 O 382.355 1.82811 -1.37086 0
M  V30 3950 C 382.565 -1.18564 -3.28243 0
M  V30 3951 C 383.913 -1.28163 -4.04796 0
M  V30 3952 O 384.937 -1.13949 -3.37482 0
M  V30 3953 O 383.796 -1.50832 -5.25273 0
M  V30 3954 H 380.89 -0.193868 -0.803955 0
M  V30 3955 H 383.436 -1.08102 -1.30813 0
M  V30 3956 H 382.208 -2.22758 -3.21706 0
M  V30 3957 H 381.831 -0.663363 -3.92027 0
M  V30 3958 N 382.828 1.3818 -0.7579 0
M  V30 3959 C 383.791 2.28764 -0.141286 0
M  V30 3960 C 384.791 1.47388 0.642907 0
M  V30 3961 O 385.981 1.67781 0.468536 0
M  V30 3962 C 383.113 3.31184 0.808069 0
M  V30 3963 H 384.306 2.848 -0.939633 0
M  V30 3964 H 381.859 1.47212 -0.525191 0
M  V30 3965 H 382.594 2.80247 1.63193 0
M  V30 3966 H 382.379 3.91314 0.248104 0
M  V30 3967 H 383.869 3.98909 1.23536 0
M  V30 3968 N 384.306 0.507319 1.49211 0
M  V30 3969 C 385.236 -0.256939 2.32082 0
M  V30 3970 C 386.217 -0.956609 1.40652 0
M  V30 3971 O 387.402 -0.946788 1.69557 0
M  V30 3972 C 384.532 -1.31802 3.21318 0
M  V30 3973 C 383.486 -0.737855 4.21592 0
M  V30 3974 C 382.812 -1.89992 4.99807 0
M  V30 3975 C 384.112 0.275325 5.21574 0
M  V30 3976 H 385.806 0.434798 2.96226 0
M  V30 3977 H 383.352 0.210546 1.42452 0
M  V30 3978 H 385.305 -1.86045 3.78107 0
M  V30 3979 H 384.029 -2.03903 2.5513 0
M  V30 3980 H 382.688 -0.217126 3.65956 0
M  V30 3981 H 382.336 -2.60877 4.30061 0
M  V30 3982 H 382.036 -1.51777 5.6766 0
M  V30 3983 H 383.56 -2.44657 5.59442 0
M  V30 3984 H 384.974 -0.179193 5.7302 0
M  V30 3985 H 383.371 0.573649 5.97352 0
M  V30 3986 H 384.441 1.18903 4.70096 0
M  V30 3987 N 385.784 -1.5574 0.241426 0
M  V30 3988 C 387.195 -1.84842 -0.262755 0
M  V30 3989 C 387.546 -1.16317 -1.58003 0
M  V30 3990 O 386.671 -0.439653 -2.11887 0
M  V30 3991 C 387.266 -3.35332 -0.483523 0
M  V30 3992 C 385.825 -3.6468 -0.931977 0
M  V30 3993 C 384.972 -2.77299 -0.0061151 0
M  V30 3994 H 387.923 -1.51761 0.464129 0
M  V30 3995 H 387.944 -3.56615 -1.32688 0
M  V30 3996 H 387.456 -3.85178 0.47537 0
M  V30 3997 H 385.557 -3.20307 -1.90353 0
M  V30 3998 H 385.67 -4.72498 -0.792628 0
M  V30 3999 H 384.034 -2.49408 -0.516503 0
M  V30 4000 H 384.817 -3.2995 0.948052 0
M  V30 4001 N 387.262 0.0317525 -1.57568 0
M  V30 4002 C 388.172 1.05021 -2.0978 0
M  V30 4003 C 389.188 1.39809 -1.03583 0
M  V30 4004 O 390.364 1.49182 -1.35302 0
M  V30 4005 C 387.429 2.33301 -2.56459 0
M  V30 4006 C 386.49 2.0512 -3.77127 0
M  V30 4007 C 385.723 3.27283 -4.2157 0
M  V30 4008 O 385.946 4.37861 -3.65559 0
M  V30 4009 O 384.88 3.13141 -5.14029 0
M  V30 4010 H 388.706 0.636505 -2.96955 0
M  V30 4011 H 386.291 0.248559 -1.47318 0
M  V30 4012 H 388.173 3.08722 -2.86825 0
M  V30 4013 H 386.848 2.73973 -1.72397 0
M  V30 4014 H 385.755 1.27276 -3.51784 0
M  V30 4015 H 387.088 1.69305 -4.62165 0
M  V30 4016 N 388.74 1.54641 0.303973 0
M  V30 4017 C 389.703 1.84646 1.35789 0
M  V30 4018 C 390.703 0.7192 1.4382 0
M  V30 4019 O 391.893 0.987491 1.43507 0
M  V30 4020 C 389.025 2.02407 2.74307 0
M  V30 4021 H 390.218 2.78829 1.10429 0
M  V30 4022 H 387.771 1.46658 0.540487 0
M  V30 4023 H 388.506 1.10502 3.04893 0
M  V30 4024 H 388.291 2.84453 2.69868 0
M  V30 4025 H 389.781 2.27002 3.50514 0
M  V30 4026 N 390.218 -0.567019 1.47046 0
M  V30 4027 C 391.148 -1.68482 1.61667 0
M  V30 4028 C 392.129 -1.6358 0.466418 0
M  V30 4029 O 393.314 -1.81354 0.694574 0
M  V30 4030 C 390.444 -3.07124 1.62148 0
M  V30 4031 C 389.398 -3.26867 2.76301 0
M  V30 4032 C 388.724 -4.66196 2.61849 0
M  V30 4033 C 390.024 -3.13186 4.17986 0
M  V30 4034 H 391.718 -1.56502 2.5524 0
M  V30 4035 H 389.264 -0.751486 1.22836 0
M  V30 4036 H 391.217 -3.8516 1.70968 0
M  V30 4037 H 389.941 -3.2004 0.651287 0
M  V30 4038 H 388.6 -2.51237 2.66975 0
M  V30 4039 H 388.248 -4.75898 1.62879 0
M  V30 4040 H 387.948 -4.80356 3.38425 0
M  V30 4041 H 389.472 -5.46379 2.72584 0
M  V30 4042 H 390.886 -3.81049 4.2834 0
M  V30 4043 H 389.283 -3.3886 4.95272 0
M  V30 4044 H 390.353 -2.10057 4.3704 0
M  V30 4045 N 391.696 -1.35014 -0.812953 0
M  V30 4046 C 392.659 -1.27292 -1.90602 0
M  V30 4047 C 393.659 -0.185817 -1.59723 0
M  V30 4048 O 394.849 -0.439102 -1.68575 0
M  V30 4049 C 391.981 -0.967676 -3.26877 0
M  V30 4050 H 393.174 -2.24479 -1.9887 0
M  V30 4051 H 390.727 -1.19446 -1.00808 0
M  V30 4052 H 391.462 0.0005954 -3.243 0
M  V30 4053 H 391.247 -1.75412 -3.50675 0
M  V30 4054 H 392.737 -0.939085 -4.06904 0
M  V30 4055 N 393.175 1.03435 -1.18907 0
M  V30 4056 C 394.105 2.13503 -0.945448 0
M  V30 4057 C 395.086 1.69682 0.119189 0
M  V30 4058 O 396.271 1.94169 -0.034707 0
M  V30 4059 C 393.401 3.44004 -0.477316 0
M  V30 4060 C 392.355 4.0148 -1.48316 0
M  V30 4061 C 391.681 5.27537 -0.872311 0
M  V30 4062 C 392.981 4.36921 -2.86177 0
M  V30 4063 H 394.675 2.34141 -1.86597 0
M  V30 4064 H 392.221 1.12523 -0.898584 0
M  V30 4065 H 394.174 4.20372 -0.294204 0
M  V30 4066 H 392.898 3.23072 0.478786 0
M  V30 4067 H 391.557 3.27201 -1.65332 0
M  V30 4068 H 391.205 5.02917 0.0911752 0
M  V30 4069 H 390.905 5.66954 -1.54393 0
M  V30 4070 H 392.429 6.06576 -0.699871 0
M  V30 4071 H 393.843 5.04248 -2.72776 0
M  V30 4072 H 392.24 4.87405 -3.50081 0
M  V30 4073 H 393.31 3.46466 -3.39248 0
M  V30 4074 N 394.653 0.992116 1.22453 0
M  V30 4075 C 395.899 0.668523 1.91464 0
M  V30 4076 C 396.232 -0.797313 1.77078 0
M  V30 4077 O 395.507 -1.5765 1.13916 0
M  V30 4078 C 395.79 1.07424 3.43703 0
M  V30 4079 C 395.643 2.59857 3.67143 0
M  V30 4080 C 396.962 0.626891 4.35612 0
M  V30 4081 H 394.081 0.244341 0.695318 0
M  V30 4082 H 396.723 1.2355 1.44345 0
M  V30 4083 H 394.873 0.591816 3.83966 0
M  V30 4084 H 396.545 3.15764 3.3629 0
M  V30 4085 H 394.788 3.01961 3.11451 0
M  V30 4086 H 395.459 2.83296 4.73759 0
M  V30 4087 H 397.935 1.04125 4.02861 0
M  V30 4088 H 396.811 0.939076 5.40807 0
M  V30 4089 H 397.072 -0.472457 4.39568 0
M  V30 4090 N 396.131 -1.37776 0.765217 0
M  V30 4091 C 397.078 -2.30342 0.145274 0
M  V30 4092 C 398.048 -1.5077 -0.696971 0
M  V30 4093 O 399.233 -1.79362 -0.650689 0
M  V30 4094 C 396.373 -3.37227 -0.732939 0
M  V30 4095 C 395.486 -4.31819 0.125199 0
M  V30 4096 C 394.621 -5.25777 -0.757107 0
M  V30 4097 C 393.66 -6.12012 0.103963 0
M  V30 4098 N 392.797 -6.98232 -0.735953 0
M  V30 4099 H 397.637 -2.8278 0.940195 0
M  V30 4100 H 395.174 -1.39211 0.475255 0
M  V30 4101 H 397.132 -3.97818 -1.25686 0
M  V30 4102 H 395.762 -2.86171 -1.49353 0
M  V30 4103 H 394.814 -3.7259 0.766865 0
M  V30 4104 H 396.126 -4.92509 0.789683 0
M  V30 4105 H 395.28 -5.91541 -1.34776 0
M  V30 4106 H 394.019 -4.65481 -1.45529 0
M  V30 4107 H 393.024 -5.45233 0.707197 0
M  V30 4108 H 394.249 -6.74379 0.799381 0
M  V30 4109 H 392.195 -6.40472 -1.41887 0
M  V30 4110 H 392.112 -7.55891 -0.128624 0
M  V30 4111 H 393.38 -7.68393 -1.31121 0
M  V30 4112 N 397.609 -0.515225 -1.4894 0
M  V30 4113 C 398.834 0.022727 -2.07388 0
M  V30 4114 C 399.259 1.2876 -1.37122 0
M  V30 4115 O 398.617 1.76067 -0.432431 0
M  V30 4116 C 398.665 0.244869 -3.59768 0
M  V30 4117 O 397.769 1.31667 -3.90817 0
M  V30 4118 H 397.11 -0.0325506 -0.663202 0
M  V30 4119 H 399.64 -0.718918 -1.91553 0
M  V30 4120 H 399.65 0.47205 -4.0526 0
M  V30 4121 H 398.325 -0.679194 -4.10317 0
M  V30 4122 H 396.902 1.07331 -3.5712 0
M  V30 4123 N 399.087 1.5561 -0.249682 0
M  V30 4124 C 400.335 1.98618 0.373548 0
M  V30 4125 C 400.656 1.13919 1.58264 0
M  V30 4126 O 399.926 0.222637 1.94631 0
M  V30 4127 H 398.506 0.733571 0.141006 0
M  V30 4128 H 401.168 1.91748 -0.349117 0
M  V30 4129 H 400.264 3.04584 0.680796 0
M  V30 4130 N 400.565 -0.0233959 1.57583 0
M  V30 4131 C 401.528 -1.00693 2.05897 0
M  V30 4132 C 402.528 -1.28693 0.964092 0
M  V30 4133 O 403.718 -1.23602 1.22753 0
M  V30 4134 C 400.85 -2.33825 2.4807 0
M  V30 4135 H 402.043 -0.589476 2.9405 0
M  V30 4136 H 399.596 -0.270354 1.53944 0
M  V30 4137 H 400.331 -2.80307 1.6309 0
M  V30 4138 H 400.116 -2.1483 3.2801 0
M  V30 4139 H 401.606 -3.04426 2.85857 0
M  V30 4140 N 402.043 -1.548 -0.295768 0
M  V30 4141 C 402.976 -1.81003 -1.38972 0
M  V30 4142 C 403.954 -0.661544 -1.48534 0
M  V30 4143 O 405.138 -0.902074 -1.65514 0
M  V30 4144 C 402.265 -1.95141 -2.76835 0
M  V30 4145 C 401.311 -3.17592 -2.84671 0
M  V30 4146 S 402.144 -4.75531 -2.46232 0
M  V30 4147 C 403.3 -4.92613 -3.86114 0
M  V30 4148 H 403.533 -2.73507 -1.16537 0
M  V30 4149 H 401.066 -1.46278 -0.494168 0
M  V30 4150 H 403.024 -2.03972 -3.56238 0
M  V30 4151 H 401.685 -1.03565 -2.96535 0
M  V30 4152 H 400.878 -3.24303 -3.85803 0
M  V30 4153 H 400.48 -3.07235 -2.13267 0
M  V30 4154 H 402.772 -4.76957 -4.81164 0
M  V30 4155 H 403.715 -5.94698 -3.8437 0
M  V30 4156 H 404.123 -4.2073 -3.76359 0
M  V30 4157 N 403.521 0.559213 -1.47345 0
M  V30 4158 C 404.484 1.64854 -1.59235 0
M  V30 4159 C 405.484 1.53851 -0.467607 0
M  V30 4160 O 406.674 1.58045 -0.732617 0
M  V30 4161 C 403.806 3.04388 -1.53496 0
M  V30 4162 H 404.999 1.55662 -2.56339 0
M  V30 4163 H 402.552 0.778973 -1.35505 0
M  V30 4164 H 403.287 3.19115 -0.577604 0
M  V30 4165 H 403.072 3.13783 -2.35123 0
M  V30 4166 H 404.562 3.83642 -1.6495 0
M  V30 4167 N 404.999 1.35443 0.805782 0
M  V30 4168 C 406.247 1.28507 1.55982 0
M  V30 4169 C 406.568 -0.140046 1.94496 0
M  V30 4170 O 405.838 -1.07666 1.63661 0
M  V30 4171 H 404.418 0.472676 0.578434 0
M  V30 4172 H 407.08 1.69555 0.961098 0
M  V30 4173 H 406.176 1.90148 2.47488 0
M  V30 4174 N 406.477 -1.02803 1.19454 0
M  V30 4175 C 407.705 -1.79841 1.02297 0
M  V30 4176 C 408.12 -1.83879 -0.428259 0
M  V30 4177 O 407.477 -1.28345 -1.29745 0
M  V30 4178 C 407.528 -3.24852 1.58598 0
M  V30 4179 O 407.249 -3.21097 2.98041 0
M  V30 4180 C 408.75 -4.18485 1.46236 0
M  V30 4181 H 405.97 -0.565936 0.360496 0
M  V30 4182 H 408.514 -1.2948 1.58288 0
M  V30 4183 H 406.669 -3.72401 1.06753 0
M  V30 4184 H 407.083 -4.12033 3.24545 0
M  V30 4185 H 408.557 -5.18121 1.90407 0
M  V30 4186 H 409.034 -4.37254 0.41301 0
M  V30 4187 H 409.64 -3.76811 1.97215 0
M  V30 4188 N 407.956 -0.998596 -1.21925 0
M  V30 4189 C 409.202 -0.678667 -1.91107 0
M  V30 4190 C 409.535 0.78791 -1.77498 0
M  V30 4191 O 408.81 1.57043 -1.1475 0
M  V30 4192 C 409.093 -1.09245 -3.43129 0
M  V30 4193 C 408.946 -2.61801 -3.6576 0
M  V30 4194 C 410.265 -0.649984 -4.35274 0
M  V30 4195 H 407.384 -0.248025 -0.694012 0
M  V30 4196 H 410.026 -1.24314 -1.43688 0
M  V30 4197 H 408.176 -0.612171 -3.83647 0
M  V30 4198 H 409.848 -3.17543 -3.34611 0
M  V30 4199 H 408.091 -3.03609 -3.09845 0
M  V30 4200 H 408.762 -2.85804 -4.7225 0
M  V30 4201 H 411.238 -1.0626 -4.02303 0
M  V30 4202 H 410.114 -0.967743 -5.40302 0
M  V30 4203 H 410.375 0.449139 -4.39813 0
M  V30 4204 N 409.434 1.37368 -0.772513 0
M  V30 4205 C 410.364 2.32856 -0.173304 0
M  V30 4206 C 411.345 1.55818 0.682262 0
M  V30 4207 O 412.53 1.84052 0.619566 0
M  V30 4208 C 409.66 3.40048 0.706007 0
M  V30 4209 C 408.614 4.27973 -0.0483144 0
M  V30 4210 C 407.94 5.26184 0.950491 0
M  V30 4211 C 409.24 5.07665 -1.22776 0
M  V30 4212 H 410.934 2.83217 -0.971002 0
M  V30 4213 H 408.48 1.3617 -0.468377 0
M  V30 4214 H 410.433 4.05827 1.13501 0
M  V30 4215 H 409.157 2.88214 1.53623 0
M  V30 4216 H 407.816 3.63726 -0.458107 0
M  V30 4217 H 407.464 4.7063 1.77529 0
M  V30 4218 H 407.164 5.85872 0.450314 0
M  V30 4219 H 408.688 5.94838 1.37842 0
M  V30 4220 H 410.102 5.66578 -0.875366 0
M  V30 4221 H 408.499 5.76681 -1.66007 0
M  V30 4222 H 409.569 4.40294 -2.03149 0
M  V30 4223 N 410.912 0.523116 1.48665 0
M  V30 4224 C 411.86 -0.256859 2.31177 0
M  V30 4225 C 412.854 -0.94199 1.40794 0
M  V30 4226 O 414.06 -0.867157 1.57735 0
M  V30 4227 H 410.435 -0.1017 0.745091 0
M  V30 4228 H 412.406 0.458739 2.94853 0
M  V30 4229 C 411.155 -1.29503 3.22683 0
M  V30 4230 H 410.478 -0.777248 3.92172 0
M  V30 4231 H 411.918 -1.81233 3.83315 0
M  V30 4232 C 410.377 -2.32501 2.43813 0
M  V30 4233 O 410.907 -3.3881 2.15803 0
M  V30 4234 N 409.113 -2.05538 2.05432 0
M  V30 4235 H 408.66 -1.19104 2.28412 0
M  V30 4236 H 408.618 -2.74676 1.52973 0
M  V30 4237 N 412.39 -1.55475 0.257931 0
M  V30 4238 C 413.667 -1.91155 -0.414629 0
M  V30 4239 C 414.047 -1.18008 -1.75035 0
M  V30 4240 O 413.395 -0.301193 -2.26506 0
M  V30 4241 C 413.605 -3.44283 -0.571859 0
M  V30 4242 C 414.953 -4.15744 -0.862678 0
M  V30 4243 O 415.977 -3.50083 -0.657314 0
M  V30 4244 O 414.836 -5.31909 -1.2544 0
M  V30 4245 H 411.93 -0.796016 -0.22425 0
M  V30 4246 H 414.476 -1.66976 0.302814 0
M  V30 4247 H 413.248 -3.89558 0.368844 0
M  V30 4248 H 412.871 -3.7436 -1.33943 0
M  V30 4249 N 413.868 0.0150385 -1.57593 0
M  V30 4250 C 414.831 0.995996 -2.06428 0
M  V30 4251 C 415.831 1.2818 -0.970903 0
M  V30 4252 O 417.021 1.22949 -1.23406 0
M  V30 4253 C 414.153 2.32506 -2.49307 0
M  V30 4254 H 415.346 0.573873 -2.94358 0
M  V30 4255 H 412.899 0.262186 -1.54085 0
M  V30 4256 H 413.634 2.79438 -1.64575 0
M  V30 4257 H 413.419 2.13087 -3.29145 0
M  V30 4258 H 414.909 3.02906 -2.87468 0
M  V30 4259 N 415.346 1.54954 0.287554 0
M  V30 4260 C 416.294 1.87606 1.37502 0
M  V30 4261 C 417.288 0.751001 1.51843 0
M  V30 4262 O 418.494 0.935169 1.53801 0
M  V30 4263 H 414.869 0.595231 0.459569 0
M  V30 4264 H 416.84 2.78477 1.07206 0
M  V30 4265 C 415.589 2.15183 2.73115 0
M  V30 4266 H 414.912 3.01234 2.62866 0
M  V30 4267 H 416.352 2.4196 3.48183 0
M  V30 4268 C 414.811 0.954686 3.2309 0
M  V30 4269 O 415.341 0.181949 4.01288 0
M  V30 4270 N 413.547 0.756368 2.80584 0
M  V30 4271 H 413.094 1.38643 2.17108 0
M  V30 4272 H 413.052 -0.0430391 3.14371 0
M  V30 4273 N 416.824 -0.551391 1.4764 0
M  V30 4274 C 417.772 -1.67896 1.60978 0
M  V30 4275 C 418.766 -1.62549 0.476877 0
M  V30 4276 O 419.972 -1.67664 0.654878 0
M  V30 4277 H 416.347 -0.555649 0.506713 0
M  V30 4278 H 418.318 -1.53784 2.55721 0
M  V30 4279 C 417.067 -3.06234 1.64669 0
M  V30 4280 H 416.39 -3.11033 2.51194 0
M  V30 4281 H 417.83 -3.84804 1.7805 0
M  V30 4282 C 416.289 -3.34737 0.381115 0
M  V30 4283 O 416.819 -3.98381 -0.515297 0
M  V30 4284 N 415.025 -2.8944 0.259354 0
M  V30 4285 H 414.572 -2.37827 0.98976 0
M  V30 4286 H 414.53 -3.08882 -0.586464 0
M  V30 4287 N 418.302 -1.35869 -0.798587 0
M  V30 4288 C 419.234 -1.25305 -1.91915 0
M  V30 4289 C 420.247 -0.174548 -1.61862 0
M  V30 4290 O 421.436 -0.428499 -1.73281 0
M  V30 4291 C 418.536 -0.9086 -3.26493 0
M  V30 4292 C 417.709 -2.08711 -3.84394 0
M  V30 4293 C 416.768 -1.71717 -4.97393 0
M  V30 4294 O 415.794 -2.43692 -5.14396 0
M  V30 4295 N 416.996 -0.645473 -5.769 0
M  V30 4296 H 419.761 -2.21849 -2.01502 0
M  V30 4297 H 417.322 -1.29143 -0.976408 0
M  V30 4298 H 419.314 -0.642455 -3.99568 0
M  V30 4299 H 417.884 -0.0325815 -3.12583 0
M  V30 4300 H 417.104 -2.51659 -3.03416 0
M  V30 4301 H 418.392 -2.87468 -4.19809 0
M  V30 4302 H 417.79 -0.047648 -5.6568 0
M  V30 4303 H 416.347 -0.43913 -6.50319 0
M  V30 4304 N 419.78 1.02168 -1.19998 0
M  V30 4305 C 420.743 2.08765 -0.94604 0
M  V30 4306 C 421.743 1.60618 0.0763846 0
M  V30 4307 O 422.933 1.73472 -0.159135 0
M  V30 4308 C 420.065 3.38262 -0.423255 0
M  V30 4309 H 421.258 2.32726 -1.89153 0
M  V30 4310 H 418.811 1.1889 -1.01464 0
M  V30 4311 H 419.546 3.19974 0.527938 0
M  V30 4312 H 419.331 3.74532 -1.16053 0
M  V30 4313 H 420.821 4.16759 -0.264911 0
M  V30 4314 N 421.258 1.00505 1.21394 0
M  V30 4315 C 422.205 0.565496 2.23765 0
M  V30 4316 C 423.175 -0.408466 1.60999 0
M  V30 4317 O 424.36 -0.310503 1.88257 0
M  V30 4318 C 421.5 -0.101667 3.4495 0
M  V30 4319 C 420.613 0.915479 4.22188 0
M  V30 4320 C 419.748 0.220574 5.30742 0
M  V30 4321 C 418.787 1.22527 5.99711 0
M  V30 4322 N 417.924 0.557831 6.9988 0
M  V30 4323 H 422.764 1.44314 2.60725 0
M  V30 4324 H 420.301 0.722643 1.28126 0
M  V30 4325 H 422.259 -0.505504 4.14126 0
M  V30 4326 H 420.889 -0.94303 3.08718 0
M  V30 4327 H 419.941 1.43756 3.52191 0
M  V30 4328 H 421.253 1.68005 4.69655 0
M  V30 4329 H 420.407 -0.239368 6.06228 0
M  V30 4330 H 419.146 -0.576401 4.84282 0
M  V30 4331 H 418.151 1.69571 5.22997 0
M  V30 4332 H 419.376 2.02332 6.48258 0
M  V30 4333 H 417.322 -0.219486 6.55633 0
M  V30 4334 H 417.239 1.26065 7.45415 0
M  V30 4335 H 418.507 0.121095 7.79406 0
M  V30 4336 N 422.737 -1.36956 0.779787 0
M  V30 4337 C 423.7 -2.2851 0.177662 0
M  V30 4338 C 424.7 -1.48393 -0.619377 0
M  V30 4339 O 425.89 -1.68505 -0.441785 0
M  V30 4340 C 423.022 -3.32428 -0.755279 0
M  V30 4341 H 424.215 -2.83269 0.984823 0
M  V30 4342 H 421.768 -1.46358 0.548544 0
M  V30 4343 H 422.503 -2.82808 -1.58714 0
M  V30 4344 H 422.288 -3.91659 -0.185817 0
M  V30 4345 H 423.778 -4.00824 -1.17174 0
M  V30 4346 N 424.215 -0.530993 -1.48385 0
M  V30 4347 C 425.443 -0.00134122 -2.069 0
M  V30 4348 C 425.858 1.2805 -1.3874 0
M  V30 4349 O 425.215 1.76204 -0.475244 0
M  V30 4350 C 425.266 0.225256 -3.60798 0
M  V30 4351 O 424.987 -1.0058 -4.26398 0
M  V30 4352 C 426.488 0.795172 -4.3611 0
M  V30 4353 H 423.708 -0.0339704 -0.67014 0
M  V30 4354 H 426.252 -0.736926 -1.90761 0
M  V30 4355 H 424.407 0.910891 -3.76539 0
M  V30 4356 H 424.821 -0.787165 -5.1856 0
M  V30 4357 H 426.295 0.903143 -5.44562 0
M  V30 4358 H 426.772 1.80031 -4.00606 0
M  V30 4359 H 427.378 0.146069 -4.25049 0
M  V30 4360 N 425.693 1.55336 -0.266172 0
M  V30 4361 C 426.94 1.99397 0.353158 0
M  V30 4362 C 427.268 1.15451 1.56529 0
M  V30 4363 O 426.523 0.209974 1.9457 0
M  V30 4364 C 426.822 3.48606 0.787957 0
M  V30 4365 C 426.488 4.49773 -0.318541 0
M  V30 4366 C 425.15 4.77158 -0.62239 0
M  V30 4367 C 427.502 5.10212 -1.06459 0
M  V30 4368 C 424.83 5.62251 -1.67602 0
M  V30 4369 C 427.182 5.96449 -2.10788 0
M  V30 4370 C 425.846 6.22158 -2.41817 0
M  V30 4371 H 425.116 0.729644 0.12923 0
M  V30 4372 H 427.763 1.87732 -0.37802 0
M  V30 4373 H 426.068 3.57701 1.59866 0
M  V30 4374 H 427.765 3.80098 1.27775 0
M  V30 4375 H 424.355 4.2854 -0.0715925 0
M  V30 4376 H 428.539 4.89086 -0.843098 0
M  V30 4377 H 423.795 5.80419 -1.92155 0
M  V30 4378 H 427.969 6.42317 -2.69076 0
M  V30 4379 H 425.596 6.87888 -3.23596 0
M  V30 4380 N 427.171 -0.0066808 1.57599 0
M  V30 4381 C 428.448 -0.729586 1.81484 0
M  V30 4382 C 428.828 -1.92359 0.869558 0
M  V30 4383 O 428.176 -2.28348 -0.0832533 0
M  V30 4384 C 428.386 -1.1416 3.29801 0
M  V30 4385 C 429.734 -1.54823 3.95367 0
M  V30 4386 O 430.758 -1.23558 3.34084 0
M  V30 4387 O 429.617 -2.12937 5.03309 0
M  V30 4388 H 426.711 -0.354674 0.747085 0
M  V30 4389 H 429.257 0.0182609 1.6969 0
M  V30 4390 H 428.029 -0.290231 3.90222 0
M  V30 4391 H 427.652 -1.94876 3.46568 0
M  V30 4392 N 428.649 -1.55105 -0.279332 0
M  V30 4393 C 429.579 -1.90557 -1.34945 0
M  V30 4394 C 430.56 -0.766738 -1.51839 0
M  V30 4395 O 431.745 -1.02434 -1.64988 0
M  V30 4396 C 428.875 -2.17193 -2.71006 0
M  V30 4397 C 427.829 -3.33021 -2.68851 0
M  V30 4398 C 427.155 -3.45123 -4.08405 0
M  V30 4399 C 428.455 -4.69578 -2.28678 0
M  V30 4400 H 430.149 -2.80188 -1.05522 0
M  V30 4401 H 427.695 -1.34811 -0.506173 0
M  V30 4402 H 429.648 -2.40581 -3.45975 0
M  V30 4403 H 428.372 -1.24355 -3.01999 0
M  V30 4404 H 427.031 -3.0959 -1.9634 0
M  V30 4405 H 426.679 -2.49762 -4.3661 0
M  V30 4406 H 426.379 -4.22995 -4.07859 0
M  V30 4407 H 427.903 -3.70796 -4.85121 0
M  V30 4408 H 429.317 -4.92553 -2.93368 0
M  V30 4409 H 427.714 -5.5032 -2.39306 0
M  V30 4410 H 428.784 -4.68828 -1.23807 0
M  V30 4411 N 430.127 0.543554 -1.4793 0
M  V30 4412 C 431.09 1.63156 -1.60975 0
M  V30 4413 C 432.09 1.53346 -0.483899 0
M  V30 4414 O 433.28 1.5726 -0.749339 0
M  V30 4415 C 430.412 3.02743 -1.56716 0
M  V30 4416 H 431.605 1.52934 -2.57975 0
M  V30 4417 H 429.158 0.764557 -1.36324 0
M  V30 4418 H 429.893 3.18484 -0.611418 0
M  V30 4419 H 429.678 3.11272 -2.38438 0
M  V30 4420 H 431.168 3.81871 -1.6901 0
M  V30 4421 N 431.605 1.3629 0.791371 0
M  V30 4422 C 432.552 1.30458 1.90393 0
M  V30 4423 C 433.522 0.173632 1.6519 0
M  V30 4424 O 434.707 0.35983 1.87376 0
M  V30 4425 C 431.847 1.09777 3.27174 0
M  V30 4426 C 430.96 2.31929 3.64462 0
M  V30 4427 C 430.095 2.04276 4.90352 0
M  V30 4428 C 429.134 3.224 5.20312 0
M  V30 4429 N 428.271 2.94424 6.37385 0
M  V30 4430 H 433.111 2.25589 1.94714 0
M  V30 4431 H 430.648 1.12122 0.952216 0
M  V30 4432 H 432.606 0.958133 4.06049 0
M  V30 4433 H 431.236 0.183014 3.22281 0
M  V30 4434 H 430.288 2.56703 2.80727 0
M  V30 4435 H 431.6 3.20085 3.82553 0
M  V30 4436 H 430.754 1.87231 5.77087 0
M  V30 4437 H 429.493 1.13428 4.74326 0
M  V30 4438 H 428.498 3.40005 4.32061 0
M  V30 4439 H 429.723 4.14071 5.38258 0
M  V30 4440 H 427.669 2.06185 6.22755 0
M  V30 4441 H 427.586 3.76118 6.55798 0
M  V30 4442 H 428.854 2.80953 7.27108 0
M  V30 4443 N 433.083 -1.0153 1.20538 0
M  V30 4444 C 434.031 -2.12215 0.952235 0
M  V30 4445 C 435.025 -1.69123 -0.0968735 0
M  V30 4446 O 436.231 -1.7992 0.0536006 0
M  V30 4447 H 432.606 -0.693576 0.290613 0
M  V30 4448 H 434.577 -2.3075 1.89201 0
M  V30 4449 C 433.326 -3.43755 0.522287 0
M  V30 4450 H 432.649 -3.7734 1.32115 0
M  V30 4451 H 434.089 -4.22254 0.384389 0
M  V30 4452 C 432.548 -3.28088 -0.765489 0
M  V30 4453 O 433.078 -3.57921 -1.8236 0
M  V30 4454 N 431.284 -2.81333 -0.728011 0
M  V30 4455 H 430.831 -2.57255 0.133332 0
M  V30 4456 H 430.789 -2.71232 -1.58999 0
M  V30 4457 N 434.561 -1.01147 -1.20859 0
M  V30 4458 C 435.491 -0.597663 -2.25722 0
M  V30 4459 C 436.472 0.384744 -1.65692 0
M  V30 4460 O 437.657 0.271303 -1.92296 0
M  V30 4461 C 434.787 0.0700149 -3.47229 0
M  V30 4462 C 433.741 -0.832843 -4.19819 0
M  V30 4463 C 433.067 -0.0312202 -5.34691 0
M  V30 4464 C 434.367 -2.1385 -4.76514 0
M  V30 4465 H 436.061 -1.47423 -2.60589 0
M  V30 4466 H 433.607 -0.710301 -1.25263 0
M  V30 4467 H 435.56 0.37103 -4.19763 0
M  V30 4468 H 434.284 0.981259 -3.11511 0
M  V30 4469 H 432.943 -1.11778 -3.49144 0
M  V30 4470 H 432.591 0.881515 -4.95215 0
M  V30 4471 H 432.291 -0.632434 -5.84187 0
M  V30 4472 H 433.815 0.26346 -6.10031 0
M  V30 4473 H 435.229 -1.9002 -5.40893 0
M  V30 4474 H 433.626 -2.69012 -5.36426 0
M  V30 4475 H 434.696 -2.80495 -3.95538 0
M  V30 4476 N 436.039 1.36541 -0.78704 0
M  V30 4477 C 437.002 2.28413 -0.189778 0
M  V30 4478 C 438.002 1.48719 0.611499 0
M  V30 4479 O 439.192 1.68737 0.432842 0
M  V30 4480 C 436.324 3.32824 0.737638 0
M  V30 4481 H 437.517 2.82743 -0.999831 0
M  V30 4482 H 435.07 1.46065 -0.556298 0
M  V30 4483 H 435.805 2.83646 1.57212 0
M  V30 4484 H 435.59 3.91752 0.165044 0
M  V30 4485 H 437.08 4.0144 1.15047 0
M  V30 4486 N 437.518 0.538854 1.48102 0
M  V30 4487 C 438.428 -0.222648 2.33541 0
M  V30 4488 C 439.444 -0.930225 1.47047 0
M  V30 4489 O 440.62 -0.903211 1.80011 0
M  V30 4490 C 437.685 -1.25064 3.23357 0
M  V30 4491 C 436.746 -0.552469 4.2573 0
M  V30 4492 C 435.979 -1.53149 5.11254 0
M  V30 4493 O 436.202 -2.76487 4.9891 0
M  V30 4494 O 435.136 -1.06602 5.92385 0
M  V30 4495 H 438.962 0.477707 2.99919 0
M  V30 4496 H 436.547 0.299669 1.46364 0
M  V30 4497 H 438.429 -1.8445 3.78888 0
M  V30 4498 H 437.104 -1.93325 2.59629 0
M  V30 4499 H 436.011 0.082114 3.7401 0
M  V30 4500 H 437.344 0.0883526 4.92121 0
M  V30 4501 N 438.996 -1.55193 0.274407 0
M  V30 4502 C 440.244 -1.99187 -0.341902 0
M  V30 4503 C 440.565 -1.16422 -1.56431 0
M  V30 4504 O 439.835 -0.253573 -1.94252 0
M  V30 4505 H 438.415 -0.735721 -0.129317 0
M  V30 4506 H 441.077 -1.91168 0.379578 0
M  V30 4507 H 440.173 -3.05629 -0.632253 0
M  V30 4508 N 440.474 -0.00167713 -1.576 0
M  V30 4509 C 441.421 0.989195 -2.08527 0
M  V30 4510 C 442.391 1.34031 -0.981065 0
M  V30 4511 O 443.576 1.43839 -1.2536 0
M  V30 4512 C 440.716 2.27537 -2.59463 0
M  V30 4513 C 439.829 1.98314 -3.83791 0
M  V30 4514 C 438.964 3.21025 -4.23222 0
M  V30 4515 C 438.003 2.87495 -5.40382 0
M  V30 4516 N 437.14 4.02749 -5.75098 0
M  V30 4517 H 441.98 0.547973 -2.92919 0
M  V30 4518 H 439.517 0.258917 -1.44803 0
M  V30 4519 H 441.475 3.02729 -2.87073 0
M  V30 4520 H 440.105 2.69325 -1.77943 0
M  V30 4521 H 439.157 1.13482 -3.63078 0
M  V30 4522 H 440.469 1.69601 -4.69081 0
M  V30 4523 H 439.623 4.04561 -4.52123 0
M  V30 4524 H 438.362 3.52877 -3.36644 0
M  V30 4525 H 437.367 2.02367 -5.11202 0
M  V30 4526 H 438.592 2.56889 -6.28637 0
M  V30 4527 H 436.538 4.34494 -4.91478 0
M  V30 4528 H 436.455 3.77566 -6.54966 0
M  V30 4529 H 437.723 4.87068 -6.08592 0
M  V30 4530 N 441.952 1.55251 0.271103 0
M  V30 4531 C 443.2 1.75599 1.00047 0
M  V30 4532 C 443.521 0.561188 1.8675 0
M  V30 4533 O 442.791 -0.423846 1.9126 0
M  V30 4534 H 441.371 0.647562 0.372387 0
M  V30 4535 H 444.033 1.92656 0.294876 0
M  V30 4536 H 443.129 2.65766 1.6363 0
M  V30 4537 N 443.43 -0.535701 1.48216 0
M  V30 4538 C 444.393 -1.623 1.61838 0
M  V30 4539 C 445.393 -1.53087 0.492024 0
M  V30 4540 O 446.583 -1.5686 0.757668 0
M  V30 4541 C 443.715 -3.01907 1.58319 0
M  V30 4542 H 444.908 -1.51564 2.58783 0
M  V30 4543 H 442.461 -0.757317 1.36727 0
M  V30 4544 H 443.196 -3.18155 0.628299 0
M  V30 4545 H 442.981 -3.10003 2.40085 0
M  V30 4546 H 444.471 -3.80969 1.71033 0
M  V30 4547 N 444.908 -1.36708 -0.784132 0
M  V30 4548 C 445.871 -1.31307 -1.87859 0
M  V30 4549 C 446.871 -0.219654 -1.59293 0
M  V30 4550 O 448.061 -0.47476 -1.67606 0
M  V30 4551 C 445.193 -1.03679 -3.24751 0
M  V30 4552 H 446.386 -2.28647 -1.94064 0
M  V30 4553 H 443.939 -1.21558 -0.98252 0
M  V30 4554 H 444.674 -0.0681936 -3.24228 0
M  V30 4555 H 444.459 -1.82811 -3.46876 0
M  V30 4556 H 445.949 -1.02518 -4.04821 0
M  V30 4557 N 446.386 1.0089 -1.21074 0
M  V30 4558 C 447.663 1.71834 -0.934469 0
M  V30 4559 C 448.043 2.0368 0.554753 0
M  V30 4560 O 447.391 1.70742 1.51854 0
M  V30 4561 C 447.601 2.98061 -1.8155 0
M  V30 4562 C 448.949 3.7117 -2.06199 0
M  V30 4563 O 449.973 3.08034 -1.78867 0
M  V30 4564 O 448.832 4.84721 -2.52404 0
M  V30 4565 H 445.926 0.749253 -0.35007 0
M  V30 4566 H 448.472 1.06668 -1.31985 0
M  V30 4567 H 447.244 2.70908 -2.82355 0
M  V30 4568 H 446.867 3.70968 -1.43068 0
M  V30 4569 N 447.864 1.01787 1.20321 0
M  V30 4570 C 449.112 0.706538 1.89347 0
M  V30 4571 C 449.433 -0.766289 1.79313 0
M  V30 4572 O 448.703 -1.55126 1.19635 0
M  V30 4573 H 447.283 0.258348 0.700903 0
M  V30 4574 H 449.945 1.28974 1.46122 0
M  V30 4575 H 449.041 0.991066 2.95946 0
M  V30 4576 N 449.342 -1.36122 0.79427 0
M  V30 4577 C 450.57 -2.03362 0.380989 0
M  V30 4578 C 450.985 -1.59881 -1.00416 0
M  V30 4579 O 450.342 -0.790515 -1.6449 0
M  V30 4580 C 450.393 -3.58804 0.440649 0
M  V30 4581 O 450.114 -4.007 1.77118 0
M  V30 4582 C 451.615 -4.43296 0.0186117 0
M  V30 4583 H 448.835 -0.652526 0.156367 0
M  V30 4584 H 451.379 -1.73998 1.07447 0
M  V30 4585 H 449.534 -3.8686 -0.204458 0
M  V30 4586 H 449.948 -4.95309 1.72538 0
M  V30 4587 H 451.422 -5.51887 0.111488 0
M  V30 4588 H 451.899 -4.2684 -1.03461 0
M  V30 4589 H 452.505 -4.20512 0.636395 0
M  V30 4590 N 450.82 -0.546701 -1.47814 0
M  V30 4591 C 452.045 -0.021268 -2.07389 0
M  V30 4592 C 452.47 1.25822 -1.39822 0
M  V30 4593 O 451.828 1.75111 -0.46968 0
M  V30 4594 C 451.876 0.168502 -3.60206 0
M  V30 4595 O 450.98 1.23347 -3.93522 0
M  V30 4596 H 450.321 -0.0466108 -0.662362 0
M  V30 4597 H 452.851 -0.759387 -1.89985 0
M  V30 4598 H 452.861 0.385982 -4.0617 0
M  V30 4599 H 451.536 -0.766075 -4.08784 0
M  V30 4600 H 450.113 0.997319 -3.59316 0
M  V30 4601 N 452.299 1.55045 -0.282633 0
M  V30 4602 C 453.545 2.0078 0.325436 0
M  V30 4603 C 453.9 1.1676 1.52921 0
M  V30 4604 O 453.193 0.231475 1.90197 0
M  V30 4605 C 453.387 3.49422 0.750938 0
M  V30 4606 C 453.216 4.47827 -0.410056 0
M  V30 4607 C 451.986 4.97288 -0.896239 0
M  V30 4608 C 454.184 4.98903 -1.24902 0
M  V30 4609 N 452.166 5.79508 -2.02591 0
M  V30 4610 C 453.537 5.78644 -2.22646 0
M  V30 4611 C 455.592 4.81126 -1.2815 0
M  V30 4612 C 454.295 6.42502 -3.23393 0
M  V30 4613 C 456.321 5.45789 -2.27745 0
M  V30 4614 C 455.683 6.25348 -3.24222 0
M  V30 4615 H 451.782 0.77747 0.08405 0
M  V30 4616 H 454.366 1.90369 -0.408368 0
M  V30 4617 H 452.537 3.60159 1.45395 0
M  V30 4618 H 454.269 3.81978 1.33698 0
M  V30 4619 H 451.024 4.71219 -0.474277 0
M  V30 4620 H 451.448 6.25308 -2.59459 0
M  V30 4621 H 456.09 4.19215 -0.549397 0
M  V30 4622 H 453.808 7.03558 -3.97533 0
M  V30 4623 H 457.394 5.33972 -2.31009 0
M  V30 4624 H 456.274 6.74498 -4.00027 0
M  V30 4625 N 453.777 0.010035 1.57597 0
M  V30 4626 C 454.724 -0.978122 2.09049 0
M  V30 4627 C 455.694 -1.33509 0.988159 0
M  V30 4628 O 456.879 -1.43172 1.26121 0
M  V30 4629 C 454.019 -2.26158 2.60666 0
M  V30 4630 C 453.132 -1.96275 3.84838 0
M  V30 4631 C 452.267 -3.18776 4.24918 0
M  V30 4632 C 451.306 -2.84625 5.41899 0
M  V30 4633 N 450.443 -3.99693 5.77226 0
M  V30 4634 H 455.283 -0.532431 2.93205 0
M  V30 4635 H 452.82 -0.251234 1.44939 0
M  V30 4636 H 454.778 -3.01202 2.88675 0
M  V30 4637 H 453.408 -2.68378 1.79369 0
M  V30 4638 H 452.46 -1.11555 3.63675 0
M  V30 4639 H 453.772 -1.67111 4.69974 0
M  V30 4640 H 452.926 -4.02157 4.54262 0
M  V30 4641 H 451.665 -3.51087 3.38511 0
M  V30 4642 H 450.67 -1.99653 5.12268 0
M  V30 4643 H 451.895 -2.53551 6.29991 0
M  V30 4644 H 449.841 -4.31882 4.93776 0
M  V30 4645 H 449.758 -3.74087 6.56959 0
M  V30 4646 H 451.026 -4.83834 6.11167 0
M  V30 4647 N 455.255 -1.55392 -0.262866 0
M  V30 4648 C 456.504 -1.75679 -0.990943 0
M  V30 4649 C 456.817 -0.57097 -1.87081 0
M  V30 4650 O 458.023 -0.656486 -2.63444 0
M  V30 4651 C 456.479 -3.10964 -1.81188 0
M  V30 4652 C 456.087 -4.37146 -0.980188 0
M  V30 4653 C 457.831 -3.40597 -2.53365 0
M  V30 4654 C 455.738 -5.63466 -1.7961 0
M  V30 4655 H 454.668 -0.654868 -0.373716 0
M  V30 4656 H 457.319 -1.81841 -0.246203 0
M  V30 4657 H 455.701 -2.98867 -2.59797 0
M  V30 4658 H 456.875 -4.60187 -0.237558 0
M  V30 4659 H 455.19 -4.14731 -0.372497 0
M  V30 4660 H 457.787 -4.32186 -3.14833 0
M  V30 4661 H 458.13 -2.6119 -3.24169 0
M  V30 4662 H 458.663 -3.53838 -1.81779 0
M  V30 4663 H 455.402 -6.4565 -1.13209 0
M  V30 4664 H 454.922 -5.44552 -2.51443 0
M  V30 4665 H 456.601 -6.02139 -2.36723 0
M  V30 4666 N 456.733 0.527833 -1.48498 0
M  V30 4667 C 457.643 1.65907 -1.65867 0
M  V30 4668 C 458.659 1.6537 -0.541192 0
M  V30 4669 O 459.835 1.84282 -0.812534 0
M  V30 4670 C 456.9 3.02364 -1.69637 0
M  V30 4671 C 455.961 3.1374 -2.93028 0
M  V30 4672 C 455.194 4.43688 -2.96609 0
M  V30 4673 O 455.417 5.30913 -2.08538 0
M  V30 4674 O 454.351 4.59475 -3.88802 0
M  V30 4675 H 458.177 1.5419 -2.61647 0
M  V30 4676 H 455.762 0.701163 -1.31924 0
M  V30 4677 H 457.644 3.83515 -1.74625 0
M  V30 4678 H 456.319 3.14401 -0.770312 0
M  V30 4679 H 455.226 2.31877 -2.93571 0
M  V30 4680 H 456.559 3.06621 -3.85026 0
M  V30 4681 N 458.211 1.37122 0.776871 0
M  V30 4682 C 459.159 1.32549 1.91138 0
M  V30 4683 C 460.153 0.215119 1.68029 0
M  V30 4684 O 461.359 0.382852 1.75881 0
M  V30 4685 H 457.734 0.412952 0.62847 0
M  V30 4686 H 459.705 2.28332 1.92112 0
M  V30 4687 C 458.454 1.14422 3.28333 0
M  V30 4688 H 457.777 1.99115 3.46689 0
M  V30 4689 H 459.217 1.15272 4.0803 0
M  V30 4690 C 457.676 -0.150434 3.36564 0
M  V30 4691 O 458.206 -1.13584 3.85307 0
M  V30 4692 N 456.412 -0.19939 2.89915 0
M  V30 4693 H 455.959 0.603142 2.5044 0
M  V30 4694 H 455.917 -1.06526 2.95803 0
M  V30 4695 N 459.689 -1.00246 1.21608 0
M  V30 4696 C 460.636 -2.09073 0.977613 0
M  V30 4697 C 461.606 -1.65815 -0.097297 0
M  V30 4698 O 462.791 -1.90734 0.0503445 0
M  V30 4699 C 459.931 -3.40671 0.551133 0
M  V30 4700 C 459.044 -3.97326 1.69576 0
M  V30 4701 C 458.179 -5.17043 1.2182 0
M  V30 4702 C 457.218 -5.65813 2.335 0
M  V30 4703 N 456.355 -6.76778 1.86859 0
M  V30 4704 H 461.195 -2.28806 1.90924 0
M  V30 4705 H 458.732 -1.12186 0.951452 0
M  V30 4706 H 460.69 -4.16225 0.285097 0
M  V30 4707 H 459.32 -3.20967 -0.343489 0
M  V30 4708 H 458.372 -3.18734 2.07637 0
M  V30 4709 H 459.684 -4.29511 2.53617 0
M  V30 4710 H 458.838 -5.99852 0.908975 0
M  V30 4711 H 457.577 -4.86458 0.347869 0
M  V30 4712 H 456.582 -4.81599 2.65222 0
M  V30 4713 H 457.807 -5.98427 3.21033 0
M  V30 4714 H 455.753 -6.47994 1.02174 0
M  V30 4715 H 455.67 -7.08231 2.64471 0
M  V30 4716 H 456.938 -7.63116 1.58978 0
M  V30 4717 N 461.167 -1.02423 -1.1978 0
M  V30 4718 C 462.416 -0.713265 -1.88667 0
M  V30 4719 C 462.729 0.7609 -1.80193 0
M  V30 4720 O 463.935 1.18473 -2.44288 0
M  V30 4721 C 462.391 -1.22545 -3.38394 0
M  V30 4722 C 461.999 -2.72706 -3.55437 0
M  V30 4723 C 463.743 -0.990257 -4.12788 0
M  V30 4724 C 461.65 -3.17367 -4.99031 0
M  V30 4725 H 460.58 -0.263105 -0.706606 0
M  V30 4726 H 463.231 -1.23792 -1.35454 0
M  V30 4727 H 461.613 -0.628732 -3.90977 0
M  V30 4728 H 462.787 -3.37993 -3.13205 0
M  V30 4729 H 461.102 -2.94453 -2.94425 0
M  V30 4730 H 463.699 -1.29926 -5.18675 0
M  V30 4731 H 464.042 0.0730761 -4.16236 0
M  V30 4732 H 464.575 -1.55074 -3.66329 0
M  V30 4733 H 461.314 -4.23009 -5.00743 0
M  V30 4734 H 460.834 -2.56805 -5.42044 0
M  V30 4735 H 462.513 -3.10441 -5.67658 0
M  V30 4736 N 462.645 1.35699 -0.801477 0
M  V30 4737 C 463.891 1.99208 -0.380022 0
M  V30 4738 C 464.224 1.63445 1.04878 0
M  V30 4739 O 463.499 0.895223 1.72673 0
M  V30 4740 C 463.782 3.55755 -0.557708 0
M  V30 4741 C 463.635 4.01332 -2.03107 0
M  V30 4742 C 464.954 4.40096 0.0197968 0
M  V30 4743 H 462.073 0.723667 -0.139552 0
M  V30 4744 H 464.715 1.60928 -1.01006 0
M  V30 4745 H 462.865 3.88494 -0.0213741 0
M  V30 4746 H 464.537 3.79026 -2.62939 0
M  V30 4747 H 462.78 3.52429 -2.52936 0
M  V30 4748 H 463.451 5.10234 -2.1063 0
M  V30 4749 H 465.927 4.13786 -0.438179 0
M  V30 4750 H 464.803 5.48735 -0.134477 0
M  V30 4751 H 465.064 4.2786 1.11303 0
M  V30 4752 N 464.123 0.554532 1.47522 0
M  V30 4753 C 465.539 0.214107 1.58157 0
M  V30 4754 C 465.739 -1.28331 1.55349 0
M  V30 4755 O 464.795 -2.06329 1.45549 0
M  V30 4756 C 466.108 0.838391 2.88776 0
M  V30 4757 C 467.656 0.809374 3.02354 0
M  V30 4758 C 468.131 1.41268 4.35669 0
M  V30 4759 N 469.622 1.37574 4.42298 0
M  V30 4760 C 470.357 1.8122 5.4401 0
M  V30 4761 N 469.853 2.3271 6.52547 0
M  V30 4762 N 471.646 1.72307 5.35039 0
M  V30 4763 H 463.797 1.52744 1.4759 0
M  V30 4764 H 466.06 0.636812 0.702264 0
M  V30 4765 H 465.766 1.89065 2.96559 0
M  V30 4766 H 465.64 0.329847 3.75755 0
M  V30 4767 H 468.027 -0.234187 2.94169 0
M  V30 4768 H 468.108 1.35565 2.16924 0
M  V30 4769 H 467.752 2.45529 4.4461 0
M  V30 4770 H 467.682 0.841871 5.19827 0
M  V30 4771 H 470.173 0.999081 3.64454 0
M  V30 4772 H 470.486 2.63944 7.26329 0
M  V30 4773 H 468.831 2.36719 6.53444 0
M  V30 4774 H 472.022 1.3186 4.49144 0
M  V30 4775 H 472.195 2.06641 6.14169 0
M  V30 4776 N 465.601 -1.54893 0.290851 0
M  V30 4777 C 466.847 -2.0023 -0.321867 0
M  V30 4778 C 467.18 -1.179 -1.54316 0
M  V30 4779 O 466.455 -0.25293 -1.92848 0
M  V30 4780 C 466.738 -3.53456 -0.688515 0
M  V30 4781 C 466.591 -4.46532 0.541209 0
M  V30 4782 C 467.91 -4.13057 -1.51895 0
M  V30 4783 H 465.029 -0.727891 -0.115515 0
M  V30 4784 H 467.671 -1.85722 0.400931 0
M  V30 4785 H 465.821 -3.6595 -1.30433 0
M  V30 4786 H 467.493 -4.4596 1.17973 0
M  V30 4787 H 465.736 -4.17545 1.17636 0
M  V30 4788 H 466.407 -5.51475 0.240675 0
M  V30 4789 H 468.883 -4.03937 -0.99872 0
M  V30 4790 H 467.759 -5.20448 -1.74429 0
M  V30 4791 H 468.02 -3.64284 -2.50498 0
M  V30 4792 N 467.08 -0.0183926 -1.57589 0
M  V30 4793 C 468.491 0.521927 -1.79256 0
M  V30 4794 C 468.842 1.72885 -0.927636 0
M  V30 4795 O 467.967 2.15978 -0.135091 0
M  V30 4796 C 468.562 0.953632 -3.25102 0
M  V30 4797 C 467.121 1.43913 -3.47801 0
M  V30 4798 C 466.268 0.398837 -2.74417 0
M  V30 4799 H 469.219 -0.244485 -1.56805 0
M  V30 4800 H 469.24 1.81863 -3.34224 0
M  V30 4801 H 468.752 0.0750123 -3.88028 0
M  V30 4802 H 466.853 2.33804 -2.90115 0
M  V30 4803 H 466.966 1.45391 -4.56507 0
M  V30 4804 H 465.33 0.864572 -2.39577 0
M  V30 4805 H 466.113 -0.471132 -3.40052 0
M  V30 4806 N 468.558 1.5553 0.254621 0
M  V30 4807 C 469.788 1.80784 1.00004 0
M  V30 4808 C 470.196 0.59071 1.79742 0
M  V30 4809 O 469.539 -0.449988 1.78103 0
M  V30 4810 C 469.601 2.99268 1.99196 0
M  V30 4811 C 469.265 4.35595 1.38224 0
M  V30 4812 C 470.262 5.13884 0.788611 0
M  V30 4813 C 467.947 4.82281 1.40393 0
M  V30 4814 C 469.941 6.37004 0.224783 0
M  V30 4815 C 467.628 6.05351 0.836243 0
M  V30 4816 C 468.626 6.82551 0.24769 0
M  V30 4817 O 468.314 8.03297 -0.311249 0
M  V30 4818 H 468.046 0.60565 0.300274 0
M  V30 4819 H 470.6 2.03411 0.285143 0
M  V30 4820 H 468.83 2.72377 2.74496 0
M  V30 4821 H 470.519 3.11682 2.60018 0
M  V30 4822 H 471.285 4.78938 0.764423 0
M  V30 4823 H 467.164 4.22189 1.85142 0
M  V30 4824 H 470.708 6.97203 -0.235235 0
M  V30 4825 H 466.605 6.39776 0.857733 0
M  V30 4826 H 467.373 8.1825 -0.20237 0
M  V30 4827 N 470.036 -0.519951 1.48776 0
M  V30 4828 C 471.282 -1.27711 1.57536 0
M  V30 4829 C 471.615 -1.92547 0.252866 0
M  V30 4830 O 470.89 -1.7979 -0.742021 0
M  V30 4831 C 471.173 -2.35875 2.72094 0
M  V30 4832 C 471.026 -1.75664 4.1408 0
M  V30 4833 C 472.345 -3.37575 2.82367 0
M  V30 4834 H 469.464 -0.462971 0.573434 0
M  V30 4835 H 472.106 -0.578194 1.80989 0
M  V30 4836 H 470.256 -2.95488 2.52228 0
M  V30 4837 H 471.928 -1.20025 4.45412 0
M  V30 4838 H 470.171 -1.06154 4.20611 0
M  V30 4839 H 470.842 -2.54029 4.90075 0
M  V30 4840 H 473.318 -2.87929 3.00393 0
M  V30 4841 H 472.194 -4.1064 3.64233 0
M  V30 4842 H 472.455 -3.98743 1.90936 0
M  V30 4843 N 471.514 -1.37532 -0.769588 0
M  V30 4844 C 472.762 -1.32597 -1.5252 0
M  V30 4845 C 473.083 0.0884294 -1.94799 0
M  V30 4846 O 472.353 1.03289 -1.66458 0
M  V30 4847 H 470.933 -0.487846 -0.565699 0
M  V30 4848 H 473.595 -1.72044 -0.915806 0
M  V30 4849 H 472.691 -1.96643 -2.42359 0
M  V30 4850 N 472.992 0.995999 -1.22138 0
M  V30 4851 C 474.238 1.73767 -1.04561 0
M  V30 4852 C 474.571 1.89633 0.418698 0
M  V30 4853 O 473.846 1.43723 1.3105 0
M  V30 4854 C 474.129 3.14505 -1.75382 0
M  V30 4855 C 473.982 3.06306 -3.29388 0
M  V30 4856 C 475.301 4.13615 -1.50369 0
M  V30 4857 H 472.42 0.630728 -0.38125 0
M  V30 4858 H 475.062 1.16057 -1.50435 0
M  V30 4859 H 473.212 3.63775 -1.36383 0
M  V30 4860 H 474.884 2.64681 -3.77812 0
M  V30 4861 H 473.127 2.43186 -3.59226 0
M  V30 4862 H 473.798 4.05884 -3.74116 0
M  V30 4863 H 476.274 3.73089 -1.84239 0
M  V30 4864 H 475.15 5.10212 -2.02421 0
M  V30 4865 H 475.411 4.39949 -0.435611 0
M  V30 4866 N 474.47 1.03057 1.19235 0
M  V30 4867 C 475.747 0.642608 1.84743 0
M  V30 4868 C 476.127 -0.878577 1.91948 0
M  V30 4869 O 475.475 -1.77597 1.43776 0
M  V30 4870 C 475.685 1.30665 3.23616 0
M  V30 4871 C 477.033 1.43098 3.9976 0
M  V30 4872 O 478.057 1.26396 3.3302 0
M  V30 4873 O 476.916 1.70223 5.19313 0
M  V30 4874 H 474.01 0.223573 0.796206 0
M  V30 4875 H 476.556 1.12883 1.26711 0
M  V30 4876 H 475.328 2.34544 3.13217 0
M  V30 4877 H 474.951 0.808405 3.89295 0
M  V30 4878 N 475.948 -1.35272 0.808662 0
M  V30 4879 C 476.895 -2.29764 0.218482 0
M  V30 4880 C 477.865 -1.52911 -0.648652 0
M  V30 4881 O 479.05 -1.81341 -0.593297 0
M  V30 4882 C 476.19 -3.39388 -0.625282 0
M  V30 4883 C 475.303 -4.31202 0.262516 0
M  V30 4884 C 474.438 -5.27919 -0.589451 0
M  V30 4885 C 473.477 -6.11371 0.298617 0
M  V30 4886 N 472.614 -7.0022 -0.513443 0
M  V30 4887 H 477.454 -2.79645 1.02968 0
M  V30 4888 H 474.991 -1.37629 0.519303 0
M  V30 4889 H 476.949 -4.01615 -1.12966 0
M  V30 4890 H 475.579 -2.90777 -1.40173 0
M  V30 4891 H 474.631 -3.69962 0.885013 0
M  V30 4892 H 475.943 -4.89748 0.945971 0
M  V30 4893 H 475.097 -5.95529 -1.15888 0
M  V30 4894 H 473.836 -4.69875 -1.30647 0
M  V30 4895 H 472.841 -5.42707 0.880301 0
M  V30 4896 H 474.066 -6.71494 1.01352 0
M  V30 4897 H 472.012 -6.44662 -1.21439 0
M  V30 4898 H 471.929 -7.55917 0.111922 0
M  V30 4899 H 473.197 -7.72175 -1.06608 0
M  V30 4900 N 477.426 -0.562348 -1.47226 0
M  V30 4901 C 478.703 0.0256985 -1.95583 0
M  V30 4902 C 479.083 1.48032 -1.50498 0
M  V30 4903 O 478.431 2.15973 -0.746181 0
M  V30 4904 C 478.641 -0.125129 -3.48776 0
M  V30 4905 C 479.989 0.0175728 -4.24596 0
M  V30 4906 O 481.013 -0.0529341 -3.56161 0
M  V30 4907 O 479.872 0.170145 -5.46235 0
M  V30 4908 H 476.966 0.0612565 -0.824728 0
M  V30 4909 H 479.512 -0.629233 -1.57603 0
M  V30 4910 H 478.284 -1.13715 -3.74412 0
M  V30 4911 H 477.907 0.567178 -3.93534 0
M  V30 4912 N 478.904 1.54736 -0.299062 0
M  V30 4913 C 479.852 2.24897 0.593658 0
M  V30 4914 C 480.846 1.25429 1.13859 0
M  V30 4915 O 482.052 1.43286 1.08945 0
M  V30 4916 H 478.427 0.72207 0.210046 0
M  V30 4917 H 480.398 2.98393 -0.0206421 0
M  V30 4918 C 479.147 3.00159 1.75499 0
M  V30 4919 H 478.47 3.76501 1.34489 0
M  V30 4920 H 479.91 3.52535 2.35574 0
M  V30 4921 C 478.369 2.07015 2.65794 0
M  V30 4922 O 478.899 1.63692 3.66835 0
M  V30 4923 N 477.105 1.73012 2.33485 0
M  V30 4924 H 476.652 2.08439 1.51364 0
M  V30 4925 H 476.61 1.10965 2.94167 0
M  V30 4926 N 480.382 0.0267497 1.57577 0
M  V30 4927 C 481.312 -0.954308 2.13108 0
M  V30 4928 C 482.293 -1.34088 1.04663 0
M  V30 4929 O 483.478 -1.41992 1.32484 0
M  V30 4930 C 480.608 -2.23744 2.65624 0
M  V30 4931 C 479.562 -1.99168 3.78835 0
M  V30 4932 C 478.888 -3.33726 4.17769 0
M  V30 4933 C 480.188 -1.33277 5.0501 0
M  V30 4934 H 481.882 -0.491848 2.95332 0
M  V30 4935 H 479.428 -0.23514 1.42067 0
M  V30 4936 H 481.381 -2.92754 3.03106 0
M  V30 4937 H 480.105 -2.72151 1.80558 0
M  V30 4938 H 478.764 -1.32577 3.41788 0
M  V30 4939 H 478.412 -3.79888 3.29688 0
M  V30 4940 H 478.112 -3.18089 4.94058 0
M  V30 4941 H 479.636 -4.04008 4.57832 0
M  V30 4942 H 481.05 -1.92283 5.40093 0
M  V30 4943 H 479.447 -1.28045 5.8628 0
M  V30 4944 H 480.517 -0.305411 4.83937 0
M  V30 4945 N 481.861 -1.55662 -0.24637 0
M  V30 4946 C 483.086 -1.81914 -0.996093 0
M  V30 4947 C 483.511 -0.603875 -1.78143 0
M  V30 4948 O 482.869 0.447091 -1.75701 0
M  V30 4949 C 482.917 -3.05908 -1.90925 0
M  V30 4950 O 482.021 -2.82861 -3.00105 0
M  V30 4951 H 481.362 -0.600481 -0.283406 0
M  V30 4952 H 483.892 -2.02848 -0.267199 0
M  V30 4953 H 483.902 -3.35356 -2.3238 0
M  V30 4954 H 482.577 -3.93999 -1.33183 0
M  V30 4955 H 481.154 -2.64583 -2.62775 0
M  V30 4956 N 483.339 0.512053 -1.4905 0
M  V30 4957 C 484.249 1.64139 -1.67617 0
M  V30 4958 C 485.265 1.64786 -0.558701 0
M  V30 4959 O 486.441 1.8341 -0.832034 0
M  V30 4960 C 483.506 3.00548 -1.72835 0
M  V30 4961 C 482.567 3.10615 -2.96339 0
M  V30 4962 C 481.8 4.40517 -3.01298 0
M  V30 4963 O 482.023 5.28671 -2.14157 0
M  V30 4964 O 480.957 4.55325 -3.93653 0
M  V30 4965 H 484.783 1.51407 -2.63267 0
M  V30 4966 H 482.368 0.687131 -1.32661 0
M  V30 4967 H 484.25 3.81641 -1.78683 0
M  V30 4968 H 482.925 3.13566 -0.803616 0
M  V30 4969 H 481.832 2.2875 -2.96014 0
M  V30 4970 H 483.165 3.0252 -3.88256 0
M  V30 4971 N 484.817 1.37938 0.762283 0
M  V30 4972 C 486.064 1.33668 1.52115 0
M  V30 4973 C 486.392 -0.0759538 1.94352 0
M  V30 4974 O 485.647 -1.05121 1.6507 0
M  V30 4975 C 485.946 2.23042 2.79261 0
M  V30 4976 C 485.612 3.71159 2.56031 0
M  V30 4977 C 484.274 4.11523 2.49404 0
M  V30 4978 C 486.626 4.64955 2.35513 0
M  V30 4979 C 483.954 5.43784 2.20263 0
M  V30 4980 C 486.306 5.97464 2.07894 0
M  V30 4981 C 484.97 6.36922 1.99718 0
M  V30 4982 H 484.24 0.489127 0.556629 0
M  V30 4983 H 486.887 1.70224 0.877262 0
M  V30 4984 H 485.192 1.79512 3.48256 0
M  V30 4985 H 486.889 2.17047 3.37182 0
M  V30 4986 H 483.479 3.39153 2.62056 0
M  V30 4987 H 487.663 4.34623 2.39617 0
M  V30 4988 H 482.919 5.73307 2.12435 0
M  V30 4989 H 487.093 6.6969 1.91019 0
M  V30 4990 H 484.72 7.39331 1.76902 0
M  V30 4991 N 486.295 -0.989507 1.22664 0
M  V30 4992 C 487.523 -1.76496 1.07967 0
M  V30 4993 C 487.938 -1.85148 -0.369543 0
M  V30 4994 O 487.295 -1.32408 -1.25596 0
M  V30 4995 C 487.346 -3.19642 1.68853 0
M  V30 4996 O 487.067 -3.11453 3.08105 0
M  V30 4997 C 488.568 -4.13621 1.59475 0
M  V30 4998 H 485.788 -0.55418 0.378319 0
M  V30 4999 H 488.332 -1.24378 1.62328 0
M  V30 5000 H 486.487 -3.68816 1.18547 0
M  V30 5001 H 486.901 -4.01499 3.37489 0
M  V30 5002 H 488.375 -5.11801 2.06795 0
M  V30 5003 H 488.852 -4.35718 0.55191 0
M  V30 5004 H 489.458 -3.70346 2.09103 0
M  V30 5005 N 487.773 -1.03688 -1.18687 0
M  V30 5006 C 488.705 -0.582696 -2.21669 0
M  V30 5007 C 489.718 0.345656 -1.59088 0
M  V30 5008 O 490.907 0.140776 -1.77944 0
M  V30 5009 C 488.007 0.169204 -3.38477 0
M  V30 5010 C 487.18 -0.766079 -4.30639 0
M  V30 5011 C 486.239 -0.0581541 -5.26168 0
M  V30 5012 O 485.265 -0.687346 -5.65035 0
M  V30 5013 N 486.467 1.20981 -5.67753 0
M  V30 5014 H 489.232 -1.46843 -2.61261 0
M  V30 5015 H 486.793 -0.916896 -1.33434 0
M  V30 5016 H 488.785 0.652543 -3.99405 0
M  V30 5017 H 487.355 0.956435 -2.97609 0
M  V30 5018 H 486.575 -1.42935 -3.67373 0
M  V30 5019 H 487.863 -1.40146 -4.89118 0
M  V30 5020 H 487.261 1.74159 -5.38224 0
M  V30 5021 H 485.818 1.6375 -6.30896 0
M  V30 5022 N 489.251 1.34841 -0.815825 0
M  V30 5023 C 490.198 2.29644 -0.230664 0
M  V30 5024 C 491.168 1.53253 0.640533 0
M  V30 5025 O 492.353 1.81653 0.583672 0
M  V30 5026 C 489.493 3.39715 0.607275 0
M  V30 5027 C 488.606 4.31056 -0.28538 0
M  V30 5028 C 487.741 5.28225 0.561446 0
M  V30 5029 C 486.78 6.11204 -0.331035 0
M  V30 5030 N 485.917 7.00483 0.476302 0
M  V30 5031 H 490.757 2.79095 -1.0445 0
M  V30 5032 H 488.294 1.37351 -0.526595 0
M  V30 5033 H 490.252 4.02208 1.10835 0
M  V30 5034 H 488.882 2.91517 1.38629 0
M  V30 5035 H 487.934 3.69487 -0.904621 0
M  V30 5036 H 489.246 4.89239 -0.97193 0
M  V30 5037 H 488.4 5.96135 1.12728 0
M  V30 5038 H 487.139 4.70562 1.28153 0
M  V30 5039 H 486.144 5.42232 -0.909069 0
M  V30 5040 H 487.369 6.70947 -1.04912 0
M  V30 5041 H 485.315 6.45296 1.18019 0
M  V30 5042 H 485.232 7.55847 -0.152008 0
M  V30 5043 H 486.5 7.7273 1.02512 0
M  V30 5044 O 490.768 0.711044 1.45005 0
M  V30 5045 H 491.459 0.254759 1.92017 0
M  V30 END ATOM
M  V30 BEGIN BOND
M  V30 END BOND
M  V30 END CTAB
M  END
$$$$
