drugbank_target|P24092 High-molecular-weight cytochrome c (DB03317)
 OpenBabel12092119593D

  0  0  0     0  0            999 V3000
M  V30 BEGIN CTAB
M  V30 COUNTS 8186 8276 0 0 0
M  V30 BEGIN ATOM
M  V30 1 H -0.908 1.98254 -0.117106 0
M  V30 2 N 0 1.576 0 0
M  V30 3 C 0.933 2.03868 1.02534 0
M  V30 4 C 1.911 0.928543 1.3348 0
M  V30 5 O 3.095 1.19667 1.45644 0
M  V30 6 C 0.222 2.43627 2.35294 0
M  V30 7 C -0.732 3.65373 2.2001 0
M  V30 8 S 0.101 5.13292 1.52614 0
M  V30 9 C 1.257 5.56322 2.86805 0
M  V30 10 H 1.49 2.90518 0.631377 0
M  V30 11 H -0.977 1.52953 0.210867 0
M  V30 12 H 0.981 2.67203 3.11629 0
M  V30 13 H -0.358 1.57376 2.7183 0
M  V30 14 H -1.165 3.90944 3.18086 0
M  V30 15 H -1.563 3.418 1.51819 0
M  V30 16 H 0.729 5.58782 3.83104 0
M  V30 17 H 1.672 6.56266 2.65933 0
M  V30 18 H 2.08 4.83886 2.90714 0
M  V30 19 N 1.4781 -0.272755 1.55222 0
M  V30 20 C 2.8941 -0.619959 1.47067 0
M  V30 21 C 3.0941 -1.895 0.684978 0
M  V30 22 O 2.1501 -2.51675 0.203931 0
M  V30 23 C 3.4631 -0.746693 2.91282 0
M  V30 24 C 5.0111 -0.840731 3.01497 0
M  V30 25 C 5.4861 -0.99924 4.46967 0
M  V30 26 N 6.9771 -1.06476 4.50796 0
M  V30 27 C 7.7121 -1.20621 5.6057 0
M  V30 28 N 7.2081 -1.31483 6.80209 0
M  V30 29 N 9.0011 -1.23733 5.48312 0
M  V30 30 H 1.1521 0.564606 2.04758 0
M  V30 31 H 3.4151 0.191177 0.928523 0
M  V30 32 H 3.1211 0.119753 3.51496 0
M  V30 33 H 2.9951 -1.6269 3.40311 0
M  V30 34 H 5.3821 -1.69764 2.41379 0
M  V30 35 H 5.4631 0.0640874 2.5572 0
M  V30 36 H 5.1071 -0.146984 5.07687 0
M  V30 37 H 5.0371 -1.91871 4.90401 0
M  V30 38 H 7.5281 -0.993196 3.64615 0
M  V30 39 H 7.8411 -1.42111 7.59621 0
M  V30 40 H 6.1861 -1.28487 6.8302 0
M  V30 41 H 9.3771 -1.14877 4.53785 0
M  V30 42 H 9.5501 -1.34412 6.33906 0
M  V30 43 N 2.9562 -1.48159 -0.537278 0
M  V30 44 C 3.9042 -1.62573 -1.66352 0
M  V30 45 C 4.8982 -0.492366 -1.62087 0
M  V30 46 O 6.1042 -0.670847 -1.67032 0
M  V30 47 H 2.4792 -0.511992 -0.550789 0
M  V30 48 H 4.4502 -2.57176 -1.51337 0
M  V30 49 C 3.1992 -1.67583 -3.04649 0
M  V30 50 H 2.5222 -2.54151 -3.08622 0
M  V30 51 H 3.9622 -1.81713 -3.83088 0
M  V30 52 C 2.4212 -0.413039 -3.34358 0
M  V30 53 O 2.9512 0.477259 -3.98855 0
M  V30 54 N 1.1572 -0.286961 -2.8918 0
M  V30 55 H 0.7042 -1.01241 -2.36871 0
M  V30 56 H 0.6622 0.556963 -3.09427 0
M  V30 57 N 4.4343 0.785586 -1.36625 0
M  V30 58 C 5.6823 1.54057 -1.30808 0
M  V30 59 C 6.0033 1.94683 0.111157 0
M  V30 60 O 5.2733 1.65241 1.05224 0
M  V30 61 H 3.8533 0.571354 -0.481211 0
M  V30 62 H 6.5153 0.935821 -1.70963 0
M  V30 63 H 5.6113 2.44637 -1.93801 0
M  V30 64 N 5.9124 1.20967 1.01018 0
M  V30 65 C 7.3284 0.965905 1.27053 0
M  V30 66 C 7.5284 -0.350785 1.98423 0
M  V30 67 O 6.5844 -1.07773 2.28344 0
M  V30 68 C 7.8974 2.15294 2.09926 0
M  V30 69 C 9.4454 2.19463 2.23171 0
M  V30 70 C 9.9204 3.3767 3.09424 0
M  V30 71 N 11.4114 3.37724 3.17012 0
M  V30 72 C 12.1464 4.25837 3.83993 0
M  V30 73 N 11.6424 5.24138 4.53047 0
M  V30 74 N 13.4354 4.1366 3.80581 0
M  V30 75 H 5.5864 2.0565 0.531194 0
M  V30 76 H 7.8494 0.90024 0.297106 0
M  V30 77 H 7.5554 3.10684 1.64828 0
M  V30 78 H 7.4294 2.13923 3.10672 0
M  V30 79 H 9.8164 1.24632 2.6749 0
M  V30 80 H 9.8974 2.2488 1.21912 0
M  V30 81 H 9.5414 4.32791 2.65808 0
M  V30 82 H 9.4714 3.29491 4.10784 0
M  V30 83 H 11.9624 2.6658 2.6785 0
M  V30 84 H 12.2754 5.87684 5.01844 0
M  V30 85 H 10.6204 5.28068 4.5185 0
M  V30 86 H 13.8114 3.36127 3.25785 0
M  V30 87 H 13.9844 4.82538 4.32505 0
M  V30 88 N 7.3905 -1.2043 1.01659 0
M  V30 89 C 8.6185 -1.93777 0.725132 0
M  V30 90 C 9.0335 -1.74772 -0.714166 0
M  V30 91 O 8.3905 -1.06169 -1.4844 0
M  V30 92 C 8.4415 -3.45876 1.05129 0
M  V30 93 O 8.1625 -3.6426 2.43406 0
M  V30 94 C 9.6635 -4.36368 0.780891 0
M  V30 95 H 6.8835 -0.615901 0.266284 0
M  V30 96 H 9.4275 -1.52922 1.35776 0
M  V30 97 H 7.5825 -3.8461 0.464065 0
M  V30 98 H 7.9965 -4.58246 2.55169 0
M  V30 99 H 9.4705 -5.41743 1.05918 0
M  V30 100 H 9.9475 -4.38275 -0.284937 0
M  V30 101 H 10.5535 -4.03296 1.35027 0
M  V30 102 N 8.8686 -0.792821 -1.36206 0
M  V30 103 C 9.7986 -0.207853 -2.32573 0
M  V30 104 C 10.7796 0.659055 -1.56813 0
M  V30 105 O 11.9646 0.592176 -1.84951 0
M  V30 106 C 9.0946 0.655449 -3.41059 0
M  V30 107 C 8.0486 -0.111842 -4.27854 0
M  V30 108 C 7.3746 0.872274 -5.27537 0
M  V30 109 C 8.6746 -1.30299 -5.05786 0
M  V30 110 H 10.3686 -1.01294 -2.81744 0
M  V30 111 H 7.9146 -0.48854 -1.3546 0
M  V30 112 H 9.8676 1.07464 -4.07467 0
M  V30 113 H 8.5916 1.49328 -2.90463 0
M  V30 114 H 7.2506 -0.512053 -3.63006 0
M  V30 115 H 6.8986 1.70523 -4.73214 0
M  V30 116 H 6.5986 0.363291 -5.86476 0
M  V30 117 H 8.1226 1.28996 -5.96818 0
M  V30 118 H 9.5366 -0.959379 -5.65216 0
M  V30 119 H 7.9336 -1.7455 -5.74154 0
M  V30 120 H 9.0036 -2.09663 -4.37229 0
M  V30 121 N 10.3467 1.47872 -0.545128 0
M  V30 122 C 11.2767 2.32661 0.197793 0
M  V30 123 C 12.2577 1.43041 0.920504 0
M  V30 124 O 13.4427 1.71912 0.90333 0
M  V30 125 C 10.5727 3.24569 1.23582 0
M  V30 126 C 9.5267 4.23333 0.630323 0
M  V30 127 C 8.8527 5.0448 1.77211 0
M  V30 128 C 10.1527 5.20704 -0.407974 0
M  V30 129 H 11.8467 2.95024 -0.510045 0
M  V30 130 H 9.3927 1.4187 -0.246731 0
M  V30 131 H 11.3457 3.8272 1.76362 0
M  V30 132 H 10.0697 2.60236 1.97344 0
M  V30 133 H 8.7287 3.6639 0.123922 0
M  V30 134 H 8.3767 4.36561 2.49847 0
M  V30 135 H 8.0767 5.71339 1.37281 0
M  V30 136 H 9.6007 5.65487 2.3034 0
M  V30 137 H 11.0147 5.7329 0.033305 0
M  V30 138 H 9.4117 5.95699 -0.725486 0
M  V30 139 H 10.4817 4.66917 -1.30828 0
M  V30 140 N 11.8248 0.280983 1.55075 0
M  V30 141 C 13.2408 -0.0729964 1.59433 0
M  V30 142 C 13.4408 -1.5411 1.29817 0
M  V30 143 O 12.4968 -2.29086 1.06187 0
M  V30 144 C 13.8098 0.306921 2.9913 0
M  V30 145 C 15.3578 0.254023 3.11968 0
M  V30 146 C 15.8328 0.608467 4.5394 0
M  V30 147 N 17.3238 0.560241 4.59799 0
M  V30 148 C 18.0588 0.80722 5.6769 0
M  V30 149 N 17.5548 1.11912 6.83701 0
M  V30 150 N 19.3478 0.735623 5.57266 0
M  V30 151 H 11.4988 1.238 1.7259 0
M  V30 152 H 13.7618 0.500547 0.805082 0
M  V30 153 H 13.4678 1.32816 3.25657 0
M  V30 154 H 13.3418 -0.349363 3.75579 0
M  V30 155 H 15.7288 -0.75794 2.852 0
M  V30 156 H 15.8098 0.944649 2.37718 0
M  V30 157 H 15.4538 1.61814 4.81434 0
M  V30 158 H 15.3838 -0.104013 5.26497 0
M  V30 159 H 17.8748 0.329288 3.76463 0
M  V30 160 H 18.1878 1.29409 7.61888 0
M  V30 161 H 16.5328 1.15695 6.85303 0
M  V30 162 H 19.7238 0.491752 4.6551 0
M  V30 163 H 19.8968 0.931482 6.4127 0
M  V30 164 N 13.3029 -1.57598 0.00835791 0
M  V30 165 C 14.5489 -1.92046 -0.670055 0
M  V30 166 C 14.9039 -0.88351 -1.70915 0
M  V30 167 O 14.1969 0.103223 -1.91322 0
M  V30 168 C 14.3909 -3.3101 -1.34787 0
M  V30 169 C 14.2199 -4.48126 -0.375945 0
M  V30 170 C 12.9899 -5.05297 0.0166914 0
M  V30 171 C 15.1879 -5.1303 0.361272 0
M  V30 172 N 13.1699 -6.05931 0.985952 0
M  V30 173 C 14.5409 -6.08571 1.18495 0
M  V30 174 C 16.5959 -4.9609 0.42421 0
M  V30 175 C 15.2989 -6.88996 2.06584 0
M  V30 176 C 17.3249 -5.77107 1.29236 0
M  V30 177 C 16.6869 -6.72248 2.10386 0
M  V30 178 H 12.7859 -0.75096 -0.218136 0
M  V30 179 H 15.3699 -1.94572 0.0706669 0
M  V30 180 H 13.5409 -3.29342 -2.05884 0
M  V30 181 H 15.2729 -3.52864 -1.98164 0
M  V30 182 H 12.0279 -4.72279 -0.353435 0
M  V30 183 H 12.4519 -6.60932 1.4662 0
M  V30 184 H 17.0939 -4.22378 -0.188915 0
M  V30 185 H 14.8119 -7.62028 2.6896 0
M  V30 186 H 18.3979 -5.66038 1.34508 0
M  V30 187 H 17.2779 -7.33846 2.76476 0
M  V30 188 N 14.781 0.264519 -1.55364 0
M  V30 189 C 15.744 1.31046 -1.88042 0
M  V30 190 C 16.744 1.41943 -0.755569 0
M  V30 191 O 17.934 1.40947 -1.02369 0
M  V30 192 C 15.066 2.69067 -2.09323 0
M  V30 193 H 16.259 1.03297 -2.81549 0
M  V30 194 H 13.812 0.502989 -1.47986 0
M  V30 195 H 14.547 3.01982 -1.18226 0
M  V30 196 H 14.332 2.62542 -2.91229 0
M  V30 197 H 15.822 3.44623 -2.35848 0
M  V30 198 N 16.2591 1.48442 0.529413 0
M  V30 199 C 17.5071 1.56179 1.28267 0
M  V30 200 C 17.8281 0.237721 1.93546 0
M  V30 201 O 17.0981 -0.740779 1.81354 0
M  V30 202 H 15.6781 0.575367 0.476405 0
M  V30 203 H 18.3401 1.84909 0.61602 0
M  V30 204 H 17.4361 2.34312 2.06165 0
M  V30 205 N 17.7372 -0.778329 1.37039 0
M  V30 206 C 18.9832 -1.53892 1.32079 0
M  V30 207 C 19.3162 -1.9396 -0.0965386 0
M  V30 208 O 18.5912 -1.63568 -1.05242 0
M  V30 209 C 18.8742 -2.80847 2.25382 0
M  V30 210 C 18.7272 -2.47076 3.75864 0
M  V30 211 C 20.0462 -3.82741 2.1725 0
M  V30 212 H 17.1652 -0.558303 0.48111 0
M  V30 213 H 19.8072 -0.893397 1.67685 0
M  V30 214 H 17.9572 -3.35931 1.95148 0
M  V30 215 H 19.6292 -1.97957 4.16666 0
M  V30 216 H 17.8722 -1.79863 3.94755 0
M  V30 217 H 18.5432 -3.37798 4.36574 0
M  V30 218 H 21.0192 -3.37133 2.43887 0
M  V30 219 H 19.8952 -4.69303 2.84686 0
M  V30 220 H 20.1562 -4.2652 1.16331 0
M  V30 221 N 19.2153 -1.21501 -1.00376 0
M  V30 222 C 20.1453 -0.999478 -2.11028 0
M  V30 223 C 21.1263 0.0759671 -1.6993 0
M  V30 224 O 22.3113 -0.0841106 -1.94018 0
M  V30 225 C 19.4413 -0.564709 -3.42678 0
M  V30 226 C 18.3953 -1.58486 -3.97576 0
M  V30 227 C 17.7213 -1.00628 -5.25146 0
M  V30 228 C 19.0213 -2.97204 -4.29496 0
M  V30 229 H 20.7153 -1.92495 -2.29317 0
M  V30 230 H 18.2613 -0.92693 -1.102 0
M  V30 231 H 20.2143 -0.401091 -4.19487 0
M  V30 232 H 18.9383 0.396411 -3.24185 0
M  V30 233 H 17.5973 -1.73606 -3.22888 0
M  V30 234 H 17.2453 -0.0368439 -5.02987 0
M  V30 235 H 16.9453 -1.68771 -5.62841 0
M  V30 236 H 18.4693 -0.854015 -6.04598 0
M  V30 237 H 19.8833 -2.8552 -4.97143 0
M  V30 238 H 18.2803 -3.62372 -4.78338 0
M  V30 239 H 19.3503 -3.47956 -3.3772 0
M  V30 240 N 20.6934 1.19889 -1.02296 0
M  V30 241 C 21.6564 2.21116 -0.603351 0
M  V30 242 C 22.6564 1.5738 0.329884 0
M  V30 243 O 23.8464 1.73802 0.117702 0
M  V30 244 C 20.9784 3.40696 0.117992 0
M  V30 245 H 22.1714 2.59754 -1.49893 0
M  V30 246 H 19.7244 1.33463 -0.813468 0
M  V30 247 H 20.4594 3.07569 1.0282 0
M  V30 248 H 20.2444 3.88188 -0.552511 0
M  V30 249 H 21.7344 4.15692 0.398696 0
M  V30 250 N 22.1715 0.800033 1.35784 0
M  V30 251 C 23.1345 0.211565 2.28221 0
M  V30 252 C 24.1345 -0.59728 1.49296 0
M  V30 253 O 25.3245 -0.416721 1.69142 0
M  V30 254 C 22.4565 -0.705846 3.33513 0
M  V30 255 H 23.6495 1.02677 2.81776 0
M  V30 256 H 21.2025 0.570211 1.45528 0
M  V30 257 H 21.9375 -1.54498 2.85133 0
M  V30 258 H 21.7225 -0.127655 3.91892 0
M  V30 259 H 23.2125 -1.11211 4.02519 0
M  V30 260 N 23.6496 -1.47581 0.552962 0
M  V30 261 C 24.8776 -2.06875 0.0320556 0
M  V30 262 C 25.2926 -1.40625 -1.25976 0
M  V30 263 O 24.6496 -0.501349 -1.75479 0
M  V30 264 C 24.7006 -3.61092 -0.17167 0
M  V30 265 O 24.4216 -4.24858 1.06899 0
M  V30 266 C 25.9226 -4.37242 -0.730344 0
M  V30 267 H 23.1426 -0.669561 0.043915 0
M  V30 268 H 25.6866 -1.89646 0.765163 0
M  V30 269 H 23.8416 -3.7785 -0.854894 0
M  V30 270 H 24.2556 -5.17334 0.864059 0
M  V30 271 H 25.7296 -5.45842 -0.822203 0
M  V30 272 H 26.2066 -4.03235 -1.74064 0
M  V30 273 H 26.8126 -4.25219 -0.0829543 0
M  V30 274 N 25.1277 -0.289203 -1.54924 0
M  V30 275 C 26.0907 0.579144 -2.21762 0
M  V30 276 C 27.0907 1.07047 -1.1999 0
M  V30 277 O 28.2807 0.968384 -1.44803 0
M  V30 278 C 25.4127 1.80055 -2.8947 0
M  V30 279 H 26.6057 -0.00464908 -2.999 0
M  V30 280 H 24.1587 -0.0399306 -1.56249 0
M  V30 281 H 24.8937 2.42449 -2.15381 0
M  V30 282 H 24.6787 1.45602 -3.64064 0
M  V30 283 H 26.1687 2.41773 -3.40493 0
M  V30 284 N 26.6058 1.57591 -0.0167156 0
M  V30 285 C 27.8548 1.90461 0.663877 0
M  V30 286 C 28.1678 0.893515 1.73999 0
M  V30 287 O 29.3738 1.11302 2.47637 0
M  V30 288 C 27.8298 3.38155 1.23204 0
M  V30 289 C 27.4378 4.47597 0.189866 0
M  V30 290 C 29.1818 3.80111 1.88986 0
M  V30 291 C 27.0888 5.86379 0.768964 0
M  V30 292 H 26.0188 0.710738 0.251729 0
M  V30 293 H 28.6698 1.83326 -0.0799926 0
M  V30 294 H 27.0518 3.40182 2.02712 0
M  V30 295 H 28.2258 4.57112 -0.581846 0
M  V30 296 H 26.5408 4.14766 -0.368475 0
M  V30 297 H 29.1378 4.81145 2.33247 0
M  V30 298 H 29.4808 3.14511 2.72743 0
M  V30 299 H 30.0138 3.80454 1.16187 0
M  V30 300 H 26.7528 6.55493 -0.0301957 0
M  V30 301 H 26.2728 5.80496 1.50945 0
M  V30 302 H 27.9518 6.34563 1.26251 0
M  V30 303 N 28.0839 -0.256276 1.55502 0
M  V30 304 C 29.3329 -0.983486 1.76098 0
M  V30 305 C 29.6459 -1.86837 0.578896 0
M  V30 306 O 30.8519 -2.63163 0.667648 0
M  V30 307 C 29.3079 -1.79868 3.1173 0
M  V30 308 C 28.9159 -0.961648 4.37557 0
M  V30 309 C 30.6599 -2.51919 3.41668 0
M  V30 310 C 28.5669 -1.77219 5.64223 0
M  V30 311 H 27.4969 -0.370936 0.656447 0
M  V30 312 H 30.1479 -0.238492 1.81944 0
M  V30 313 H 28.5299 -2.58527 2.99966 0
M  V30 314 H 29.7039 -0.218048 4.60284 0
M  V30 315 H 28.0189 -0.354913 4.14885 0
M  V30 316 H 30.6159 -3.12998 4.33516 0
M  V30 317 H 30.9589 -3.23059 2.62562 0
M  V30 318 H 31.4919 -1.80278 3.54605 0
M  V30 319 H 28.2309 -1.10471 6.46124 0
M  V30 320 H 27.7509 -2.49132 5.45613 0
M  V30 321 H 29.4299 -2.34169 6.03137 0
M  V30 322 N 29.562 -1.4872 -0.521534 0
M  V30 323 C 30.81 -1.56857 -1.27437 0
M  V30 324 C 31.131 -0.247982 -1.93417 0
M  V30 325 O 30.401 0.731151 -1.81744 0
M  V30 326 H 28.981 -0.577885 -0.473347 0
M  V30 327 H 31.643 -1.85233 -0.606205 0
M  V30 328 H 30.739 -2.35402 -2.0492 0
M  V30 329 N 31.0401 0.771051 -1.3745 0
M  V30 330 C 32.2861 1.5319 -1.32894 0
M  V30 331 C 32.6191 1.94008 0.0862511 0
M  V30 332 O 31.8941 1.64124 1.04373 0
M  V30 333 C 32.1771 2.79648 -2.26868 0
M  V30 334 C 32.0301 2.45079 -3.77169 0
M  V30 335 C 33.3491 3.81583 -2.19277 0
M  V30 336 H 30.4681 0.555744 -0.484064 0
M  V30 337 H 33.1101 0.884492 -1.68157 0
M  V30 338 H 31.2601 3.34891 -1.96926 0
M  V30 339 H 32.9321 1.95745 -4.1771 0
M  V30 340 H 31.1751 1.77767 -3.95704 0
M  V30 341 H 31.8461 3.35478 -4.38359 0
M  V30 342 H 34.3221 3.35835 -2.45671 0
M  V30 343 H 33.1981 4.67787 -2.87171 0
M  V30 344 H 33.4591 4.25897 -1.18592 0
M  V30 345 N 32.5182 1.22032 0.997298 0
M  V30 346 C 33.7662 1.04016 1.73278 0
M  V30 347 C 34.0872 -0.426255 1.90284 0
M  V30 348 O 33.3572 -1.30694 1.45931 0
M  V30 349 H 31.9372 0.381897 0.642 0
M  V30 350 H 34.5992 1.5347 1.20137 0
M  V30 351 H 33.6952 1.51441 2.72896 0
M  V30 352 N 33.9963 -1.19345 1.0293 0
M  V30 353 C 35.2443 -1.88665 0.724574 0
M  V30 354 C 35.5653 -1.80036 -0.749144 0
M  V30 355 O 34.8353 -1.2111 -1.53978 0
M  V30 356 H 33.4153 -0.698406 0.265025 0
M  V30 357 H 36.0773 -1.44885 1.30362 0
M  V30 358 H 35.1733 -2.94987 1.01926 0
M  V30 359 N 35.4744 -0.807222 -1.35358 0
M  V30 360 C 36.7214 -0.387888 -1.9875 0
M  V30 361 C 37.0494 1.04509 -1.64037 0
M  V30 362 O 36.3044 1.73986 -0.895946 0
M  V30 363 C 36.6034 -0.519036 -3.53611 0
M  V30 364 C 36.2694 -1.91542 -4.08194 0
M  V30 365 C 34.9314 -2.29745 -4.22813 0
M  V30 366 C 37.2834 -2.82896 -4.37744 0
M  V30 367 C 34.6114 -3.58668 -4.643 0
M  V30 368 C 36.9634 -4.11265 -4.8067 0
M  V30 369 C 35.6274 -4.49466 -4.93494 0
M  V30 370 H 34.8974 -0.141938 -0.727279 0
M  V30 371 H 37.5444 -1.02814 -1.6156 0
M  V30 372 H 35.8494 0.204658 -3.91265 0
M  V30 373 H 37.5464 -0.175345 -4.00616 0
M  V30 374 H 34.1364 -1.60862 -3.97268 0
M  V30 375 H 38.3204 -2.54629 -4.26002 0
M  V30 376 H 33.5764 -3.88113 -4.72418 0
M  V30 377 H 37.7504 -4.82153 -5.02496 0
M  V30 378 H 35.3774 -5.49418 -5.25399 0
M  V30 379 N 36.9525 1.47285 -0.560781 0
M  V30 380 C 38.1985 2.03347 -0.0463654 0
M  V30 381 C 38.5535 1.42702 1.2905 0
M  V30 382 O 37.8465 0.574619 1.8278 0
M  V30 383 C 38.0405 3.57258 0.100784 0
M  V30 384 C 37.8695 4.32827 -1.22027 0
M  V30 385 C 36.6395 4.72588 -1.78854 0
M  V30 386 C 38.8375 4.67739 -2.13834 0
M  V30 387 N 36.8195 5.32816 -3.04927 0
M  V30 388 C 38.1905 5.28307 -3.24487 0
M  V30 389 C 40.2455 4.49667 -2.13784 0
M  V30 390 C 38.9485 5.72711 -4.35194 0
M  V30 391 C 40.9745 4.95073 -3.23506 0
M  V30 392 C 40.3365 5.55693 -4.32879 0
M  V30 393 H 36.4355 0.779755 -0.0592166 0
M  V30 394 H 39.0195 1.79723 -0.748857 0
M  V30 395 H 37.1905 3.80642 0.772404 0
M  V30 396 H 38.9225 3.9996 0.617589 0
M  V30 397 H 35.6775 4.54656 -1.32609 0
M  V30 398 H 36.1015 5.67471 -3.69197 0
M  V30 399 H 40.7435 4.02154 -1.30507 0
M  V30 400 H 38.4615 6.19214 -5.1923 0
M  V30 401 H 42.0475 4.82859 -3.24559 0
M  V30 402 H 40.9275 5.90188 -5.1638 0
M  V30 403 N 38.4306 0.297415 1.54768 0
M  V30 404 C 39.6556 -0.318435 2.04941 0
M  V30 405 C 40.0806 -1.4701 1.17345 0
M  V30 406 O 39.4386 -1.80436 0.176758 0
M  V30 407 C 39.4866 -0.755749 3.52592 0
M  V30 408 O 38.5906 -1.86088 3.68028 0
M  V30 409 H 37.9316 -0.062421 0.661059 0
M  V30 410 H 40.4616 0.438215 1.99852 0
M  V30 411 H 40.4716 -1.04552 3.94376 0
M  V30 412 H 39.1466 0.0867233 4.1581 0
M  V30 413 H 37.7236 -1.57193 3.38149 0
M  V30 414 N 39.9087 -1.5758 0.0250728 0
M  V30 415 C 40.8407 -2.06869 -0.986796 0
M  V30 416 C 41.8537 -0.991332 -1.29137 0
M  V30 417 O 43.0427 -1.26761 -1.25674 0
M  V30 418 C 40.1427 -2.47486 -2.31525 0
M  V30 419 C 39.3157 -3.78253 -2.19643 0
M  V30 420 C 38.3747 -4.05464 -3.35388 0
M  V30 421 O 37.4007 -4.75774 -3.12454 0
M  V30 422 N 38.6027 -3.55321 -4.59051 0
M  V30 423 H 41.3677 -2.94302 -0.566276 0
M  V30 424 H 38.9287 -1.6109 -0.161776 0
M  V30 425 H 40.9207 -2.62785 -3.07776 0
M  V30 426 H 39.4907 -1.65441 -2.65232 0
M  V30 427 H 38.7107 -3.7279 -1.28144 0
M  V30 428 H 39.9987 -4.63936 -2.08903 0
M  V30 429 H 39.3967 -2.98431 -4.80578 0
M  V30 430 H 37.9537 -3.75905 -5.32483 0
M  V30 431 N 41.3868 0.248026 -1.55636 0
M  V30 432 C 42.6348 0.974295 -1.77065 0
M  V30 433 C 42.9558 1.85897 -0.588849 0
M  V30 434 O 42.2258 1.91868 0.395407 0
M  V30 435 H 40.8058 0.362733 -0.653019 0
M  V30 436 H 43.4678 0.266244 -1.93073 0
M  V30 437 H 42.5638 1.59667 -2.68166 0
M  V30 438 N 42.8649 1.48995 0.513639 0
M  V30 439 C 44.0929 1.61531 1.29288 0
M  V30 440 C 44.5079 0.281801 1.86685 0
M  V30 441 O 43.8649 -0.731111 1.67215 0
M  V30 442 C 43.9159 2.67449 2.43215 0
M  V30 443 O 43.6369 3.95626 1.88179 0
M  V30 444 C 45.1379 2.90575 3.34785 0
M  V30 445 H 42.3579 0.544165 0.392588 0
M  V30 446 H 44.9019 1.9494 0.617956 0
M  V30 447 H 43.0569 2.36853 3.0656 0
M  V30 448 H 43.4709 4.53868 2.62876 0
M  V30 449 H 44.9449 3.68449 4.11035 0
M  V30 450 H 45.4219 2.00011 3.91015 0
M  V30 451 H 46.0279 3.22538 2.77218 0
M  V30 452 N 44.343 -0.763751 1.37857 0
M  V30 453 C 45.571 -1.55293 1.36718 0
M  V30 454 C 45.986 -1.88745 -0.0455434 0
M  V30 455 O 45.343 -1.52039 -1.00947 0
M  V30 456 C 45.394 -2.85831 2.2132 0
M  V30 457 O 45.115 -2.5381 3.57089 0
M  V30 458 C 46.616 -3.80023 2.28249 0
M  V30 459 H 43.836 -0.480841 0.468009 0
M  V30 460 H 46.38 -0.946009 1.81303 0
M  V30 461 H 44.535 -3.42926 1.80223 0
M  V30 462 H 44.949 -3.37459 4.01524 0
M  V30 463 H 46.423 -4.68599 2.91752 0
M  V30 464 H 46.9 -4.1973 1.2932 0
M  V30 465 H 47.506 -3.28855 2.69693 0
M  V30 466 N 45.8211 -1.22559 -0.990812 0
M  V30 467 C 46.7681 -0.997519 -2.0813 0
M  V30 468 C 47.7381 0.0814702 -1.659 0
M  V30 469 O 48.9231 -0.0685424 -1.90677 0
M  V30 470 C 46.0631 -0.583615 -3.40129 0
M  V30 471 C 45.1761 -1.7336 -3.9569 0
M  V30 472 C 44.3111 -1.26748 -5.15857 0
M  V30 473 C 43.3501 -2.38888 -5.63559 0
M  V30 474 N 42.4871 -1.93308 -6.74964 0
M  V30 475 H 47.3271 -1.93099 -2.26973 0
M  V30 476 H 44.8641 -0.962114 -1.11273 0
M  V30 477 H 46.8221 -0.324801 -4.15934 0
M  V30 478 H 45.4521 0.312845 -3.2128 0
M  V30 479 H 44.5041 -2.10669 -3.16738 0
M  V30 480 H 45.8161 -2.57704 -4.27071 0
M  V30 481 H 44.9701 -0.966173 -5.98957 0
M  V30 482 H 43.7091 -0.394272 -4.86104 0
M  V30 483 H 42.7141 -2.69805 -4.79046 0
M  V30 484 H 43.9391 -3.26728 -5.95336 0
M  V30 485 H 41.8851 -1.08352 -6.4699 0
M  V30 486 H 41.8021 -2.71217 -7.05675 0
M  V30 487 H 43.0701 -1.66252 -7.61564 0
M  V30 488 N 47.2992 1.18797 -1.03562 0
M  V30 489 C 48.2622 2.20464 -0.626769 0
M  V30 490 C 49.2622 1.57721 0.313173 0
M  V30 491 O 50.4522 1.73917 0.0992615 0
M  V30 492 C 47.5842 3.40802 0.0818498 0
M  V30 493 H 48.7772 2.58149 -1.5264 0
M  V30 494 H 46.3302 1.32593 -0.827578 0
M  V30 495 H 47.0652 3.08642 0.995518 0
M  V30 496 H 46.8502 3.8758 -0.593652 0
M  V30 497 H 48.3402 4.16092 0.354584 0
M  V30 498 N 48.7773 0.814389 1.34928 0
M  V30 499 C 49.7073 0.244827 2.32213 0
M  V30 500 C 50.6883 -0.634024 1.57842 0
M  V30 501 O 51.8733 -0.562676 1.8587 0
M  V30 502 C 49.0033 -0.601106 3.42058 0
M  V30 503 C 47.9573 0.179896 4.27622 0
M  V30 504 C 47.2833 -0.788237 5.28858 0
M  V30 505 C 48.5833 1.38329 5.03649 0
M  V30 506 H 50.2773 1.05763 2.80097 0
M  V30 507 H 47.8233 0.510029 1.34665 0
M  V30 508 H 49.7763 -1.00968 4.09125 0
M  V30 509 H 48.5003 -1.44688 2.92802 0
M  V30 510 H 47.1593 0.569739 3.62146 0
M  V30 511 H 46.8073 -1.62973 4.75866 0
M  V30 512 H 46.5073 -0.269942 5.8698 0
M  V30 513 H 48.0313 -1.19485 5.98795 0
M  V30 514 H 49.4453 1.04918 5.63618 0
M  V30 515 H 47.8423 1.83662 5.71304 0
M  V30 516 H 48.9123 2.16592 4.33839 0
M  V30 517 N 50.2554 -1.46986 0.568584 0
M  V30 518 C 51.6664 -1.86188 0.138219 0
M  V30 519 C 52.0174 -1.47388 -1.29504 0
M  V30 520 O 51.1424 -0.88219 -1.97602 0
M  V30 521 C 51.7374 -3.3792 0.244065 0
M  V30 522 C 50.2964 -3.76171 -0.131335 0
M  V30 523 C 49.4434 -2.71027 0.586465 0
M  V30 524 H 52.3944 -1.38342 0.777645 0
M  V30 525 H 52.4154 -3.76729 -0.534351 0
M  V30 526 H 51.9274 -3.66128 1.28731 0
M  V30 527 H 50.0284 -3.5358 -1.17526 0
M  V30 528 H 50.1414 -4.78523 0.235146 0
M  V30 529 H 48.5054 -2.54684 0.0282722 0
M  V30 530 H 49.2884 -3.02077 1.63109 0
M  V30 531 N 51.7335 -0.305618 -1.54608 0
M  V30 532 C 52.6435 0.57778 -2.27374 0
M  V30 533 C 53.6595 1.14451 -1.31061 0
M  V30 534 O 54.8355 1.16831 -1.6405 0
M  V30 535 C 51.9005 1.73123 -3.00382 0
M  V30 536 C 50.9615 1.19812 -4.12242 0
M  V30 537 C 50.1945 2.2966 -4.81759 0
M  V30 538 O 50.4175 3.49651 -4.50666 0
M  V30 539 O 49.3515 1.96091 -5.69062 0
M  V30 540 H 53.1775 -0.012624 -3.03697 0
M  V30 541 H 50.7625 -0.0719184 -1.49227 0
M  V30 542 H 52.6445 2.40315 -3.4616 0
M  V30 543 H 51.3195 2.30815 -2.26949 0
M  V30 544 H 50.2265 0.491798 -3.70853 0
M  V30 545 H 51.5595 0.666566 -4.87666 0
M  V30 546 N 53.2116 1.57565 -0.0334293 0
M  V30 547 C 54.4596 1.91598 0.642999 0
M  V30 548 C 54.7806 0.910847 1.7242 0
M  V30 549 O 54.0506 -0.0469931 1.95844 0
M  V30 550 H 52.6306 0.707228 0.240496 0
M  V30 551 H 55.2926 1.94726 -0.0822488 0
M  V30 552 H 54.3886 2.92336 1.09298 0
M  V30 553 N 54.6897 -0.239769 1.55765 0
M  V30 554 C 56.1007 -0.808263 1.68297 0
M  V30 555 C 56.4517 -1.85736 0.632181 0
M  V30 556 O 55.5767 -2.15277 -0.220204 0
M  V30 557 C 56.1717 -1.47284 3.05111 0
M  V30 558 C 54.7307 -1.98895 3.19559 0
M  V30 559 C 53.8777 -0.842575 2.64189 0
M  V30 560 H 56.8287 -0.0154422 1.58692 0
M  V30 561 H 56.8497 -2.34111 2.99954 0
M  V30 562 H 56.3617 -0.709053 3.81568 0
M  V30 563 H 54.4627 -2.78132 2.47938 0
M  V30 564 H 54.5757 -2.18143 4.26556 0
M  V30 565 H 52.9397 -1.24501 2.22197 0
M  V30 566 H 53.7227 -0.0917552 3.43177 0
M  V30 567 N 56.1678 -1.49265 -0.50573 0
M  V30 568 C 57.4158 -1.582 -1.25766 0
M  V30 569 C 57.7368 -0.268482 -1.93143 0
M  V30 570 O 57.0068 0.711833 -1.8251 0
M  V30 571 H 55.5868 -0.582873 -0.467191 0
M  V30 572 H 58.2488 -1.85865 -0.586525 0
M  V30 573 H 57.3448 -2.37563 -2.02412 0
M  V30 574 N 57.6459 0.756429 -1.3826 0
M  V30 575 C 58.5559 1.9009 -1.37488 0
M  V30 576 C 59.5719 1.71855 -0.272366 0
M  V30 577 O 60.7479 1.94827 -0.510318 0
M  V30 578 C 57.8129 3.25421 -1.19592 0
M  V30 579 C 56.8739 3.56202 -2.39622 0
M  V30 580 C 56.1069 4.85075 -2.2257 0
M  V30 581 O 56.3299 5.57246 -1.21793 0
M  V30 582 O 55.2639 5.15269 -3.11098 0
M  V30 583 H 59.0899 1.93695 -2.33914 0
M  V30 584 H 56.6749 0.901313 -1.1915 0
M  V30 585 H 58.5569 4.06337 -1.11661 0
M  V30 586 H 57.2319 3.22634 -0.262486 0
M  V30 587 H 56.1389 2.75458 -2.53128 0
M  V30 588 H 57.4719 3.63747 -3.31586 0
M  V30 589 N 59.124 1.23083 0.984299 0
M  V30 590 C 60.071 1.00854 2.07598 0
M  V30 591 C 61.041 -0.0726709 1.65941 0
M  V30 592 O 62.226 0.0786535 1.90638 0
M  V30 593 C 59.366 0.601645 3.39815 0
M  V30 594 C 58.479 1.75456 3.94765 0
M  V30 595 C 57.614 1.29482 5.15177 0
M  V30 596 C 56.653 2.41873 5.62284 0
M  V30 597 N 55.79 1.96885 6.73929 0
M  V30 598 H 60.63 1.943 2.25946 0
M  V30 599 H 58.167 0.968001 1.10762 0
M  V30 600 H 60.125 0.346854 4.15756 0
M  V30 601 H 58.755 -0.295803 3.21442 0
M  V30 602 H 57.807 2.12346 3.15616 0
M  V30 603 H 59.119 2.59965 4.25699 0
M  V30 604 H 58.273 0.997923 5.98437 0
M  V30 605 H 57.012 0.420046 4.85888 0
M  V30 606 H 56.017 2.72342 4.77608 0
M  V30 607 H 57.242 3.29881 5.93595 0
M  V30 608 H 55.188 1.11782 6.46406 0
M  V30 609 H 55.105 2.74956 7.04227 0
M  V30 610 H 56.373 1.70289 7.60672 0
M  V30 611 N 60.6021 -1.18246 1.0419 0
M  V30 612 C 62.0181 -1.40269 0.761366 0
M  V30 613 C 62.2181 -1.90777 -0.648578 0
M  V30 614 O 61.2741 -2.0929 -1.41258 0
M  V30 615 C 62.5871 -2.40237 1.8085 0
M  V30 616 C 64.1351 -2.53961 1.82955 0
M  V30 617 C 64.6101 -3.57194 2.86664 0
M  V30 618 N 66.1011 -3.64702 2.85563 0
M  V30 619 C 66.8361 -4.44309 3.6246 0
M  V30 620 N 66.3321 -5.27514 4.49111 0
M  V30 621 N 68.1251 -4.39084 3.50944 0
M  V30 622 H 60.2761 -0.837882 1.95175 0
M  V30 623 H 62.5391 -0.430608 0.84456 0
M  V30 624 H 62.2451 -2.10176 2.81991 0
M  V30 625 H 62.1191 -3.39601 1.64168 0
M  V30 626 H 64.5061 -2.83338 0.824855 0
M  V30 627 H 64.5871 -1.54706 2.03715 0
M  V30 628 H 64.2311 -3.28558 3.87314 0
M  V30 629 H 64.1611 -4.5613 2.6316 0
M  V30 630 H 66.6521 -3.05289 2.22727 0
M  V30 631 H 66.9651 -5.85411 5.04493 0
M  V30 632 H 65.3101 -5.2693 4.53178 0
M  V30 633 H 68.5011 -3.7313 2.82651 0
M  V30 634 H 68.6741 -5.00883 4.11121 0
M  V30 635 N 62.0802 -0.821533 -1.34494 0
M  V30 636 C 63.0432 -0.247847 -2.27856 0
M  V30 637 C 64.0432 0.573453 -1.50227 0
M  V30 638 O 65.2332 0.389759 -1.69784 0
M  V30 639 C 62.3652 0.652698 -3.34593 0
M  V30 640 H 63.5582 -1.07146 -2.80107 0
M  V30 641 H 61.1112 -0.593291 -1.44602 0
M  V30 642 H 61.8462 1.49943 -2.87555 0
M  V30 643 H 61.6312 0.065292 -3.92046 0
M  V30 644 H 63.1212 1.04793 -4.04238 0
M  V30 645 N 63.5583 1.46682 -0.576371 0
M  V30 646 C 64.8353 1.95599 0.00703437 0
M  V30 647 C 65.2153 1.51904 1.46589 0
M  V30 648 O 64.5633 0.766755 2.15251 0
M  V30 649 C 64.7733 3.4864 -0.158404 0
M  V30 650 C 66.1213 4.24594 -0.0229439 0
M  V30 651 O 67.1453 3.56094 -0.0869173 0
M  V30 652 O 66.0043 5.46373 0.118015 0
M  V30 653 H 63.0983 0.825275 0.053384 0
M  V30 654 H 65.6443 1.56996 -0.644244 0
M  V30 655 H 64.4163 3.7331 -1.17282 0
M  V30 656 H 64.0393 3.94057 0.5296 0
M  V30 657 N 65.0364 0.313813 1.54444 0
M  V30 658 C 65.9664 -0.549454 2.26943 0
M  V30 659 C 66.9474 -1.12741 1.27372 0
M  V30 660 O 68.1324 -1.15436 1.56167 0
M  V30 661 C 65.2624 -1.71523 3.01989 0
M  V30 662 C 64.2164 -1.26703 4.08816 0
M  V30 663 C 63.5424 -2.51898 4.71647 0
M  V30 664 C 64.8424 -0.388962 5.2085 0
M  V30 665 H 66.5364 0.0552661 2.99349 0
M  V30 666 H 64.0824 0.0280207 1.43973 0
M  V30 667 H 66.0354 -2.32535 3.51433 0
M  V30 668 H 64.7594 -2.34639 2.27183 0
M  V30 669 H 63.4184 -0.679896 3.6024 0
M  V30 670 H 63.0664 -3.13356 3.93468 0
M  V30 671 H 62.7664 -2.22605 5.43802 0
M  V30 672 H 64.2904 -3.1369 5.23861 0
M  V30 673 H 65.7044 -0.905107 5.6611 0
M  V30 674 H 64.1014 -0.18924 5.99802 0
M  V30 675 H 65.1714 0.582699 4.81386 0
M  V30 676 N 66.5145 -1.57545 0.0417849 0
M  V30 677 C 67.7635 -1.91494 -0.633492 0
M  V30 678 C 68.0765 -0.921084 -1.72556 0
M  V30 679 O 69.2825 -1.15228 -2.45835 0
M  V30 680 C 67.7385 -3.40072 -1.17808 0
M  V30 681 C 67.3465 -4.47843 -0.118633 0
M  V30 682 C 69.0905 -3.8307 -1.82915 0
M  V30 683 C 66.9975 -5.87529 -0.675578 0
M  V30 684 H 65.9275 -0.714653 -0.24039 0
M  V30 685 H 68.5785 -1.83175 0.109148 0
M  V30 686 H 66.9605 -3.43364 -1.97274 0
M  V30 687 H 68.1345 -4.56128 0.654494 0
M  V30 688 H 66.4495 -4.14128 0.434414 0
M  V30 689 H 69.0465 -4.84794 -2.25563 0
M  V30 690 H 69.3895 -3.1881 -2.67705 0
M  V30 691 H 69.9225 -3.82255 -1.10119 0
M  V30 692 H 66.6615 -6.55362 0.134475 0
M  V30 693 H 66.1815 -5.82824 -1.4169 0
M  V30 694 H 67.8605 -6.36491 -1.1614 0
M  V30 695 N 67.9926 0.231505 -1.5589 0
M  V30 696 C 68.9026 1.308 -1.94752 0
M  V30 697 C 69.9186 1.51826 -0.849989 0
M  V30 698 O 71.0946 1.6515 -1.15271 0
M  V30 699 C 68.1596 2.63968 -2.24771 0
M  V30 700 C 67.2206 2.51331 -3.48039 0
M  V30 701 C 66.4536 3.78148 -3.76616 0
M  V30 702 O 66.6766 4.80722 -3.07022 0
M  V30 703 O 65.6106 3.75857 -4.70123 0
M  V30 704 H 69.4366 1.0083 -2.86474 0
M  V30 705 H 67.0216 0.433547 -1.42971 0
M  V30 706 H 68.9036 3.42633 -2.45318 0
M  V30 707 H 67.5786 2.9364 -1.36225 0
M  V30 708 H 66.4856 1.709 -3.32782 0
M  V30 709 H 67.8186 2.26601 -4.36936 0
M  V30 710 N 69.4707 1.49531 0.497807 0
M  V30 711 C 70.7197 1.58426 1.24837 0
M  V30 712 C 71.0327 0.277643 1.93619 0
M  V30 713 O 72.2387 0.24517 2.70391 0
M  V30 714 C 70.6947 2.79538 2.26686 0
M  V30 715 C 70.3027 4.16971 1.63828 0
M  V30 716 C 72.0467 2.97764 3.0255 0
M  V30 717 C 69.9537 5.29301 2.63807 0
M  V30 718 H 68.8837 0.58989 0.469623 0
M  V30 719 H 71.5347 1.75923 0.521857 0
M  V30 720 H 69.9167 2.55542 3.02514 0
M  V30 721 H 71.0907 4.51116 0.939711 0
M  V30 722 H 69.4057 4.04129 1.00342 0
M  V30 723 H 72.0027 3.78856 3.77323 0
M  V30 724 H 72.3457 2.08448 3.60354 0
M  V30 725 H 72.8787 3.21815 2.33838 0
M  V30 726 H 69.6177 6.20687 2.10779 0
M  V30 727 H 69.1377 4.99606 3.31894 0
M  V30 728 H 70.8167 5.58768 3.2617 0
M  V30 729 N 70.9488 -0.749086 1.3866 0
M  V30 730 C 72.1968 -1.50535 1.34847 0
M  V30 731 C 72.5178 -1.94909 -0.0595016 0
M  V30 732 O 71.7878 -1.67973 -1.00806 0
M  V30 733 H 70.3678 -0.558395 0.49619 0
M  V30 734 H 73.0298 -0.890165 1.73384 0
M  V30 735 H 72.1258 -2.39413 2.00219 0
M  V30 736 N 72.4269 -1.23603 -0.977757 0
M  V30 737 C 73.3899 -1.02069 -2.05218 0
M  V30 738 C 74.3899 0.0184305 -1.60789 0
M  V30 739 O 75.5799 -0.221569 -1.72785 0
M  V30 740 C 72.7119 -0.544926 -3.36517 0
M  V30 741 H 73.9049 -1.9742 -2.25755 0
M  V30 742 H 71.4579 -1.05684 -1.15155 0
M  V30 743 H 72.1929 0.412241 -3.21669 0
M  V30 744 H 71.9779 -1.2948 -3.70105 0
M  V30 745 H 73.4679 -0.414985 -4.15533 0
M  V30 746 N 73.905 1.17692 -1.04816 0
M  V30 747 C 74.838 2.20436 -0.590173 0
M  V30 748 C 75.816 1.58115 0.379244 0
M  V30 749 O 77 1.86228 0.291762 0
M  V30 750 C 74.127 3.38424 0.136817 0
M  V30 751 C 73.173 4.19176 -0.787023 0
M  V30 752 S 74.006 4.84815 -2.27409 0
M  V30 753 C 75.162 6.06195 -1.55817 0
M  V30 754 H 75.395 2.58944 -1.46067 0
M  V30 755 H 72.928 1.28246 -0.859784 0
M  V30 756 H 74.886 4.06798 0.550076 0
M  V30 757 H 73.547 2.98312 0.983299 0
M  V30 758 H 72.74 5.03499 -0.224681 0
M  V30 759 H 72.342 3.56219 -1.13947 0
M  V30 760 H 74.634 6.72078 -0.855387 0
M  V30 761 H 75.577 6.6695 -2.37873 0
M  V30 762 H 75.985 5.54701 -1.04722 0
M  V30 763 N 75.3831 0.828654 1.34056 0
M  V30 764 C 76.2931 0.256725 2.33191 0
M  V30 765 C 77.3091 -0.611898 1.62886 0
M  V30 766 O 78.4851 -0.51844 1.94613 0
M  V30 767 C 75.5501 -0.567238 3.42028 0
M  V30 768 C 74.6111 0.324458 4.28072 0
M  V30 769 C 73.8441 -0.460274 5.31712 0
M  V30 770 O 74.0671 -1.693 5.44696 0
M  V30 771 O 73.0011 0.160391 6.01686 0
M  V30 772 H 76.8271 1.07739 2.83947 0
M  V30 773 H 74.4121 0.59093 1.37217 0
M  V30 774 H 76.2941 -1.03582 4.08471 0
M  V30 775 H 74.9691 -1.36513 2.93506 0
M  V30 776 H 73.8761 0.840659 3.64532 0
M  V30 777 H 75.2091 1.08685 4.8005 0
M  V30 778 N 76.8612 -1.46375 0.584142 0
M  V30 779 C 78.2772 -1.57694 0.245929 0
M  V30 780 C 78.4772 -1.57903 -1.25175 0
M  V30 781 O 77.5332 -1.49676 -2.03355 0
M  V30 782 C 78.8462 -2.87028 0.896402 0
M  V30 783 C 80.3942 -3.00662 0.870127 0
M  V30 784 C 80.8692 -4.32734 1.50017 0
M  V30 785 N 82.3602 -4.39436 1.46458 0
M  V30 786 C 83.0952 -5.40248 1.92144 0
M  V30 787 N 82.5912 -6.47726 2.4581 0
M  V30 788 N 84.3842 -5.31459 1.83052 0
M  V30 789 H 76.5352 -1.44483 1.55687 0
M  V30 790 H 78.7982 -0.689291 0.650831 0
M  V30 791 H 78.5042 -2.9269 1.95002 0
M  V30 792 H 78.3782 -3.75014 0.405486 0
M  V30 793 H 80.7652 -2.94581 -0.174871 0
M  V30 794 H 80.8462 -2.14148 1.39908 0
M  V30 795 H 80.4902 -4.39573 2.54437 0
M  V30 796 H 80.4202 -5.18025 0.946432 0
M  V30 797 H 82.9112 -3.62367 1.07231 0
M  V30 798 H 83.2242 -7.20863 2.78525 0
M  V30 799 H 81.5692 -6.48542 2.49836 0
M  V30 800 H 84.7602 -4.46396 1.40883 0
M  V30 801 H 84.9332 -6.09881 2.18973 0
M  V30 802 N 78.3393 -0.321999 -1.54275 0
M  V30 803 C 79.5863 0.281044 -2.0054 0
M  V30 804 C 79.9143 1.52265 -1.21019 0
M  V30 805 O 79.1693 1.93687 -0.279982 0
M  V30 806 C 79.4683 0.661769 -3.5122 0
M  V30 807 C 79.1343 -0.480482 -4.48333 0
M  V30 808 C 77.7963 -0.794005 -4.74604 0
M  V30 809 C 80.1483 -1.24783 -5.06042 0
M  V30 810 C 77.4763 -1.87763 -5.55844 0
M  V30 811 C 79.8283 -2.32153 -5.88462 0
M  V30 812 C 78.4923 -2.64089 -6.13036 0
M  V30 813 H 77.7623 0.102841 -0.733829 0
M  V30 814 H 80.4093 -0.445453 -1.86247 0
M  V30 815 H 78.7143 1.46867 -3.63232 0
M  V30 816 H 80.4113 1.13989 -3.84457 0
M  V30 817 H 77.0013 -0.226039 -4.28004 0
M  V30 818 H 81.1853 -1.01887 -4.85729 0
M  V30 819 H 76.4413 -2.12954 -5.73115 0
M  V30 820 H 80.6153 -2.92057 -6.32199 0
M  V30 821 H 78.2423 -3.48185 -6.75775 0
M  V30 822 N 79.8174 1.5752 -0.0501392 0
M  V30 823 C 81.0654 1.9227 0.622642 0
M  V30 824 C 81.3864 0.929083 1.71444 0
M  V30 825 O 80.6564 -0.0262186 1.95882 0
M  V30 826 H 79.2364 0.709739 0.232981 0
M  V30 827 H 81.8984 1.94628 -0.102898 0
M  V30 828 H 80.9944 2.93479 1.06191 0
M  V30 829 N 81.2955 -0.223234 1.56011 0
M  V30 830 C 82.2425 -1.27664 1.92277 0
M  V30 831 C 83.2125 -1.46659 0.779763 0
M  V30 832 O 84.3975 -1.60256 1.03551 0
M  V30 833 C 81.5375 -2.62234 2.24338 0
M  V30 834 C 80.6505 -2.51051 3.51564 0
M  V30 835 C 79.7855 -3.78133 3.7308 0
M  V30 836 C 78.8245 -3.61665 4.93827 0
M  V30 837 N 77.9615 -4.80693 5.11741 0
M  V30 838 H 82.8015 -0.960358 2.82101 0
M  V30 839 H 80.3385 -0.462901 1.39627 0
M  V30 840 H 82.2965 -3.40596 2.40936 0
M  V30 841 H 80.9265 -2.91961 1.3769 0
M  V30 842 H 79.9785 -1.64132 3.43169 0
M  V30 843 H 81.2905 -2.34803 4.40079 0
M  V30 844 H 80.4445 -4.64938 3.89766 0
M  V30 845 H 79.1835 -3.97304 2.82844 0
M  V30 846 H 78.1885 -2.73244 4.77093 0
M  V30 847 H 79.4135 -3.43966 5.85546 0
M  V30 848 H 77.3595 -5.00181 4.24446 0
M  V30 849 H 77.2765 -4.67165 5.94384 0
M  V30 850 H 78.5445 -5.6893 5.3286 0
M  V30 851 N 82.7736 -1.49793 -0.48987 0
M  V30 852 C 83.7036 -1.70201 -1.59856 0
M  V30 853 C 84.6846 -0.55076 -1.60937 0
M  V30 854 O 85.8696 -0.787841 -1.77501 0
M  V30 855 C 82.9996 -1.77882 -2.98287 0
M  V30 856 C 81.9536 -2.92907 -3.12073 0
M  V30 857 C 81.2796 -2.85712 -4.51965 0
M  V30 858 C 82.5796 -4.3369 -2.91051 0
M  V30 859 H 84.2736 -2.63025 -1.43032 0
M  V30 860 H 81.8196 -1.26574 -0.686664 0
M  V30 861 H 83.7726 -1.90744 -3.75759 0
M  V30 862 H 82.4966 -0.816653 -3.16225 0
M  V30 863 H 81.1556 -2.79665 -2.37029 0
M  V30 864 H 80.8036 -1.8738 -4.66795 0
M  V30 865 H 80.5036 -3.62921 -4.62128 0
M  V30 866 H 82.0276 -3.00598 -5.31482 0
M  V30 867 H 83.4416 -4.47555 -3.58284 0
M  V30 868 H 81.8386 -5.12205 -3.12675 0
M  V30 869 H 82.9086 -4.47362 -1.87071 0
M  V30 870 N 84.2517 0.741722 -1.39055 0
M  V30 871 C 85.5287 1.49252 -1.26425 0
M  V30 872 C 85.9087 2.10705 0.129144 0
M  V30 873 O 85.2567 1.98045 1.13976 0
M  V30 874 C 85.4667 2.54934 -2.38347 0
M  V30 875 C 86.8147 3.21506 -2.77343 0
M  V30 876 O 87.8387 2.65245 -2.37747 0
M  V30 877 O 86.6977 4.23294 -3.45665 0
M  V30 878 H 83.7917 0.662451 -0.495064 0
M  V30 879 H 86.3377 0.776121 -1.50912 0
M  V30 880 H 85.1097 2.07857 -3.31529 0
M  V30 881 H 84.7327 3.34141 -2.15489 0
M  V30 882 N 85.7298 1.2412 0.971189 0
M  V30 883 C 86.6598 1.05508 2.08304 0
M  V30 884 C 87.6408 -0.0308864 1.70072 0
M  V30 885 O 88.8258 0.135521 1.93727 0
M  V30 886 C 85.9558 0.655365 3.4106 0
M  V30 887 C 84.9098 1.68971 3.93234 0
M  V30 888 C 84.2358 1.14516 5.22293 0
M  V30 889 C 85.5358 3.08487 4.21465 0
M  V30 890 H 87.2298 1.98507 2.24132 0
M  V30 891 H 84.7758 0.955821 1.07704 0
M  V30 892 H 86.7288 0.51217 4.18276 0
M  V30 893 H 85.4528 -0.31032 3.25122 0
M  V30 894 H 84.1118 1.82106 3.18171 0
M  V30 895 H 83.7598 0.170189 5.02712 0
M  V30 896 H 83.4598 1.83635 5.58168 0
M  V30 897 H 84.9838 1.01401 6.02121 0
M  V30 898 H 86.3978 2.98601 4.89398 0
M  V30 899 H 84.7948 3.74926 4.68562 0
M  V30 900 H 85.8648 3.56787 3.28376 0
M  V30 901 N 87.2079 -1.17134 1.05439 0
M  V30 902 C 88.6189 -1.69084 0.791676 0
M  V30 903 C 88.9699 -1.83822 -0.685839 0
M  V30 904 O 88.0949 -1.52757 -1.53278 0
M  V30 905 C 88.6899 -3.07119 1.4305 0
M  V30 906 C 87.2489 -3.56225 1.21577 0
M  V30 907 C 86.3959 -2.32421 1.51247 0
M  V30 908 H 89.3469 -1.01617 1.219 0
M  V30 909 H 89.3679 -3.71087 0.84112 0
M  V30 910 H 88.8799 -2.9636 2.50584 0
M  V30 911 H 86.9809 -3.72257 0.159787 0
M  V30 912 H 87.0939 -4.38837 1.92246 0
M  V30 913 H 85.4579 -2.3701 0.932653 0
M  V30 914 H 86.2409 -2.24268 2.5992 0
M  V30 915 N 88.686 -0.835752 -1.33615 0
M  V30 916 C 89.633 -0.26473 -2.29277 0
M  V30 917 C 90.603 0.617712 -1.54187 0
M  V30 918 O 91.788 0.556641 -1.825 0
M  V30 919 C 88.928 0.556777 -3.40579 0
M  V30 920 C 88.041 -0.349339 -4.30585 0
M  V30 921 C 87.176 0.482969 -5.29 0
M  V30 922 C 86.215 -0.421732 -6.10645 0
M  V30 923 N 85.352 0.372262 -7.01112 0
M  V30 924 H 90.192 -1.08582 -2.77514 0
M  V30 925 H 87.729 -0.546927 -1.36554 0
M  V30 926 H 89.687 1.04852 -4.03809 0
M  V30 927 H 88.317 1.34286 -2.93542 0
M  V30 928 H 87.369 -0.959372 -3.68104 0
M  V30 929 H 88.681 -1.04445 -4.87742 0
M  V30 930 H 87.835 1.03866 -5.97743 0
M  V30 931 H 86.574 1.21153 -4.72412 0
M  V30 932 H 85.579 -0.989464 -5.40823 0
M  V30 933 H 86.804 -1.14861 -6.69316 0
M  V30 934 H 84.75 1.08426 -6.46977 0
M  V30 935 H 84.667 -0.264198 -7.55538 0
M  V30 936 H 85.935 0.910293 -7.74167 0
M  V30 937 N 90.1641 1.46063 -0.591896 0
M  V30 938 C 91.4101 2.02638 -0.0811191 0
M  V30 939 C 91.7431 1.4613 1.27905 0
M  V30 940 O 91.0181 0.629908 1.84017 0
M  V30 941 C 91.3011 3.60091 -0.0252436 0
M  V30 942 C 91.1541 4.26965 -1.41496 0
M  V30 943 C 92.4731 4.3496 0.670685 0
M  V30 944 H 89.5921 0.73635 -0.0309524 0
M  V30 945 H 92.2341 1.741 -0.760859 0
M  V30 946 H 90.3841 3.84535 0.553624 0
M  V30 947 H 92.0561 4.13756 -2.0397 0
M  V30 948 H 90.2991 3.85971 -1.98011 0
M  V30 949 H 90.9701 5.35781 -1.32825 0
M  V30 950 H 93.4461 4.15716 0.178825 0
M  V30 951 H 92.3221 5.44686 0.678837 0
M  V30 952 H 92.5831 4.06685 1.73379 0
M  V30 953 N 91.6422 0.330177 1.54103 0
M  V30 954 C 92.6052 -0.520144 2.2322 0
M  V30 955 C 93.6052 -1.03828 1.22786 0
M  V30 956 O 94.7952 -0.929652 1.4732 0
M  V30 957 C 91.9272 -1.72317 2.94142 0
M  V30 958 H 93.1202 0.0841605 2.99782 0
M  V30 959 H 90.6732 0.0813433 1.56088 0
M  V30 960 H 91.4082 -2.36653 2.21734 0
M  V30 961 H 91.1932 -1.35898 3.67796 0
M  V30 962 H 92.6832 -2.3266 3.46784 0
M  V30 963 N 93.1203 -1.57491 0.0584922 0
M  V30 964 C 94.3673 -1.92978 -0.613648 0
M  V30 965 C 94.6953 -0.937461 -1.70417 0
M  V30 966 O 93.9503 0.049078 -1.95638 0
M  V30 967 C 94.2493 -3.3513 -1.24188 0
M  V30 968 C 93.9153 -4.50037 -0.278826 0
M  V30 969 C 92.5773 -4.81198 -0.0138447 0
M  V30 970 C 94.9293 -5.19807 0.380777 0
M  V30 971 C 92.2573 -5.79473 0.918052 0
M  V30 972 C 94.6093 -6.19079 1.30091 0
M  V30 973 C 93.2733 -6.48665 1.57449 0
M  V30 974 H 92.5433 -0.706157 -0.22455 0
M  V30 975 H 95.1903 -1.91082 0.126533 0
M  V30 976 H 93.4953 -3.33429 -2.05749 0
M  V30 977 H 95.1923 -3.59871 -1.769 0
M  V30 978 H 91.7823 -4.25726 -0.495539 0
M  V30 979 H 95.9663 -4.95939 0.189158 0
M  V30 980 H 91.2223 -6.00727 1.1374 0
M  V30 981 H 95.3963 -6.7225 1.81804 0
M  V30 982 H 93.0233 -7.24628 2.29822 0
M  V30 983 N 94.5984 0.214957 -1.56127 0
M  V30 984 C 96.0144 0.564948 -1.49267 0
M  V30 985 C 96.2144 1.86827 -0.754838 0
M  V30 986 O 95.2704 2.50745 -0.297198 0
M  V30 987 C 96.5834 0.638071 -2.93852 0
M  V30 988 C 98.1314 0.728253 -3.0441 0
M  V30 989 C 98.6064 0.832663 -4.50367 0
M  V30 990 N 100.097 0.896712 -4.54437 0
M  V30 991 C 100.832 0.997324 -5.6466 0
M  V30 992 N 100.328 1.06147 -6.8462 0
M  V30 993 N 102.121 1.03297 -5.52527 0
M  V30 994 H 94.2724 -0.640211 -2.02522 0
M  V30 995 H 96.5354 -0.225507 -0.920788 0
M  V30 996 H 96.2414 -0.250126 -3.50809 0
M  V30 997 H 96.1154 1.49947 -3.46115 0
M  V30 998 H 98.5024 1.60689 -2.47514 0
M  V30 999 H 98.5834 -0.158952 -2.55306 0
M  V30 1000 H 98.2274 -0.0415417 -5.07883 0
M  V30 1001 H 98.1574 1.73538 -4.97184 0
M  V30 1002 H 100.648 0.857188 -3.6805 0
M  V30 1003 H 100.961 1.1382 -7.64372 0
M  V30 1004 H 99.3064 1.03049 -6.87318 0
M  V30 1005 H 102.497 0.979558 -4.57736 0
M  V30 1006 H 102.67 1.10793 -6.38458 0
M  V30 1007 N 96.0765 1.50051 0.48192 0
M  V30 1008 C 97.0265 1.64512 1.5786 0
M  V30 1009 C 98.0105 0.500073 1.52932 0
M  V30 1010 O 99.2025 0.753964 1.60139 0
M  V30 1011 C 96.3315 1.73263 2.9637 0
M  V30 1012 C 95.4175 2.93409 3.06222 0
M  V30 1013 N 95.8085 4.17236 2.85915 0
M  V30 1014 C 94.1065 2.91742 3.37346 0
M  V30 1015 C 94.8075 4.981 3.00451 0
M  V30 1016 N 93.7835 4.3184 3.30174 0
M  V30 1017 H 97.5855 2.57955 1.40842 0
M  V30 1018 H 95.0995 1.47086 0.688439 0
M  V30 1019 H 97.0965 1.81724 3.75209 0
M  V30 1020 H 95.7565 0.809711 3.14442 0
M  V30 1021 H 96.7675 4.46909 2.6171 0
M  V30 1022 H 93.4445 2.08907 3.61475 0
M  V30 1023 H 94.8345 6.06532 2.89082 0
M  V30 1024 N 97.5546 -0.734337 1.39446 0
M  V30 1025 C 98.8316 -1.48579 1.27215 0
M  V30 1026 C 99.2116 -2.1077 -0.117968 0
M  V30 1027 O 98.5596 -1.98646 -1.12924 0
M  V30 1028 C 98.7696 -2.53667 2.39696 0
M  V30 1029 C 100.118 -3.20031 2.79044 0
M  V30 1030 O 101.142 -2.6398 2.39151 0
M  V30 1031 O 100.001 -4.21455 3.47905 0
M  V30 1032 H 97.0946 -0.659816 0.49857 0
M  V30 1033 H 99.6406 -0.768106 1.51322 0
M  V30 1034 H 98.4126 -2.06096 3.32626 0
M  V30 1035 H 98.0356 -3.32994 2.17258 0
M  V30 1036 N 99.0327 -1.24633 -0.964593 0
M  V30 1037 C 99.9647 -0.999302 -2.06268 0
M  V30 1038 C 100.978 0.0323226 -1.62768 0
M  V30 1039 O 102.167 -0.205079 -1.77318 0
M  V30 1040 C 99.2667 -0.486816 -3.35385 0
M  V30 1041 C 98.4397 -1.5823 -4.07777 0
M  V30 1042 C 97.4987 -1.07191 -5.15166 0
M  V30 1043 O 96.5247 -1.76426 -5.41168 0
M  V30 1044 N 97.7267 0.0920373 -5.80427 0
M  V30 1045 H 100.492 -1.94477 -2.28033 0
M  V30 1046 H 98.0527 -1.15704 -1.13244 0
M  V30 1047 H 100.045 -0.130066 -4.04491 0
M  V30 1048 H 98.6147 0.364459 -3.10468 0
M  V30 1049 H 97.8347 -2.11109 -3.32906 0
M  V30 1050 H 99.1227 -2.31854 -4.52903 0
M  V30 1051 H 98.5207 0.670784 -5.61709 0
M  V30 1052 H 97.0777 0.389905 -6.50633 0
M  V30 1053 N 100.511 1.16574 -1.06058 0
M  V30 1054 C 101.461 2.18854 -0.63929 0
M  V30 1055 C 102.445 1.57505 0.328798 0
M  V30 1056 O 103.637 1.76408 0.144623 0
M  V30 1057 C 100.766 3.43291 -0.0247203 0
M  V30 1058 C 99.8518 4.11722 -1.01716 0
M  V30 1059 N 100.243 4.55841 -2.19186 0
M  V30 1060 C 98.5408 4.37872 -0.847569 0
M  V30 1061 C 99.2418 5.08751 -2.82042 0
M  V30 1062 N 98.2178 5.01489 -2.09784 0
M  V30 1063 H 102.02 2.5068 -1.53417 0
M  V30 1064 H 99.5338 1.32999 -0.931935 0
M  V30 1065 H 101.531 4.15856 0.294915 0
M  V30 1066 H 100.191 3.12954 0.865448 0
M  V30 1067 H 101.202 4.49649 -2.56975 0
M  V30 1068 H 97.8788 4.17499 -0.00918848 0
M  V30 1069 H 99.2688 5.52944 -3.81709 0
M  V30 1070 N 101.989 0.842826 1.3317 0
M  V30 1071 C 103.217 0.454055 2.01856 0
M  V30 1072 C 103.632 -0.94587 1.63397 0
M  V30 1073 O 102.989 -1.61534 0.849302 0
M  V30 1074 C 103.04 0.569715 3.56982 0
M  V30 1075 O 102.761 1.91448 3.94055 0
M  V30 1076 C 104.262 0.178412 4.42941 0
M  V30 1077 H 101.482 0.17979 0.646465 0
M  V30 1078 H 104.026 1.1365 1.70012 0
M  V30 1079 H 102.181 -0.0648587 3.87346 0
M  V30 1080 H 102.595 1.90282 4.88767 0
M  V30 1081 H 104.069 0.310376 5.51127 0
M  V30 1082 H 104.546 -0.880056 4.30293 0
M  V30 1083 H 105.152 0.787579 4.17944 0
M  V30 1084 N 103.467 -1.45747 0.599634 0
M  V30 1085 C 104.695 -2.06668 0.0978551 0
M  V30 1086 C 105.11 -1.44562 -1.21439 0
M  V30 1087 O 104.467 -0.556923 -1.73795 0
M  V30 1088 C 104.518 -3.61456 -0.0567044 0
M  V30 1089 O 104.239 -4.21242 1.20361 0
M  V30 1090 C 105.74 -4.39345 -0.590869 0
M  V30 1091 H 102.96 -0.667825 0.0651943 0
M  V30 1092 H 105.504 -1.87115 0.82511 0
M  V30 1093 H 103.659 -3.80378 -0.734251 0
M  V30 1094 H 104.073 -5.14323 1.02821 0
M  V30 1095 H 105.547 -5.48182 -0.648131 0
M  V30 1096 H 106.024 -4.08568 -1.61147 0
M  V30 1097 H 106.63 -4.25268 0.0523679 0
M  V30 1098 N 104.945 -0.338344 -1.53925 0
M  V30 1099 C 105.908 0.508299 -2.23493 0
M  V30 1100 C 106.908 1.03175 -1.23335 0
M  V30 1101 O 108.098 0.921826 -1.47811 0
M  V30 1102 C 105.23 1.70754 -2.95052 0
M  V30 1103 H 106.423 -0.100058 -2.99733 0
M  V30 1104 H 103.976 -0.0896198 -1.56043 0
M  V30 1105 H 104.711 2.35474 -2.22986 0
M  V30 1106 H 104.496 1.33946 -3.68512 0
M  V30 1107 H 105.986 2.30818 -3.48013 0
M  V30 1108 N 106.423 1.57458 -0.0668435 0
M  V30 1109 C 107.669 1.93587 0.6043 0
M  V30 1110 C 108.002 0.946722 1.69561 0
M  V30 1111 O 107.277 -0.0248516 1.94484 0
M  V30 1112 C 107.56 3.40014 1.18585 0
M  V30 1113 C 107.413 4.49685 0.101529 0
M  V30 1114 C 108.732 3.87154 2.09284 0
M  V30 1115 H 105.851 0.703958 0.218202 0
M  V30 1116 H 108.493 1.89542 -0.131804 0
M  V30 1117 H 106.643 3.43592 1.81319 0
M  V30 1118 H 108.315 4.5823 -0.531279 0
M  V30 1119 H 106.558 4.30059 -0.568487 0
M  V30 1120 H 107.229 5.49266 0.54874 0
M  V30 1121 H 109.705 3.85551 1.56491 0
M  V30 1122 H 108.581 4.90231 2.46911 0
M  V30 1123 H 108.842 3.2481 2.99918 0
M  V30 1124 N 107.901 -0.206675 1.56239 0
M  V30 1125 C 109.129 -0.945345 1.8404 0
M  V30 1126 C 109.544 -1.77336 0.647885 0
M  V30 1127 O 108.901 -1.78425 -0.383511 0
M  V30 1128 C 108.952 -1.8509 3.10522 0
M  V30 1129 O 108.673 -1.05634 4.25174 0
M  V30 1130 C 110.174 -2.70222 3.51418 0
M  V30 1131 H 107.394 -0.276372 0.61144 0
M  V30 1132 H 109.938 -0.217417 2.03341 0
M  V30 1133 H 108.093 -2.53259 2.93153 0
M  V30 1134 H 108.507 -1.67238 4.97124 0
M  V30 1135 H 109.981 -3.29438 4.42916 0
M  V30 1136 H 110.458 -3.43358 2.73864 0
M  V30 1137 H 111.064 -2.07443 3.71278 0
M  V30 1138 N 109.379 -1.50304 -0.473955 0
M  V30 1139 C 110.627 -1.60832 -1.22382 0
M  V30 1140 C 110.948 -0.30939 -1.9253 0
M  V30 1141 O 110.218 0.67296 -1.83978 0
M  V30 1142 H 108.798 -0.592652 -0.454723 0
M  V30 1143 H 111.46 -1.87068 -0.546968 0
M  V30 1144 H 110.556 -2.41803 -1.97327 0
M  V30 1145 N 110.857 0.726932 -1.39834 0
M  V30 1146 C 111.79 1.8501 -1.33592 0
M  V30 1147 C 112.768 1.61262 -0.208191 0
M  V30 1148 O 113.952 1.84422 -0.389981 0
M  V30 1149 C 111.079 3.21143 -1.07633 0
M  V30 1150 C 110.125 3.63737 -2.22705 0
M  V30 1151 S 110.958 3.72167 -3.85035 0
M  V30 1152 C 112.114 5.11077 -3.61318 0
M  V30 1153 H 112.347 1.90022 -2.28646 0
M  V30 1154 H 109.88 0.892595 -1.25985 0
M  V30 1155 H 111.838 3.99747 -0.933415 0
M  V30 1156 H 110.499 3.13776 -0.142526 0
M  V30 1157 H 109.692 4.62551 -2.00155 0
M  V30 1158 H 109.294 2.9236 -2.33242 0
M  V30 1159 H 111.586 5.97656 -3.19083 0
M  V30 1160 H 112.529 5.38658 -4.59623 0
M  V30 1161 H 112.937 4.81135 -2.95245 0
M  V30 1162 N 112.336 1.25143 0.95797 0
M  V30 1163 C 113.584 1.09476 1.69881 0
M  V30 1164 C 113.905 -0.365502 1.91544 0
M  V30 1165 O 113.175 -1.25985 1.50015 0
M  V30 1166 H 111.755 0.402128 0.629525 0
M  V30 1167 H 114.417 1.57214 1.15194 0
M  V30 1168 H 113.513 1.60046 2.6794 0
M  V30 1169 N 113.814 -1.1601 1.06675 0
M  V30 1170 C 114.761 -2.20525 0.680967 0
M  V30 1171 C 115.731 -1.62904 -0.324283 0
M  V30 1172 O 116.916 -1.89615 -0.212294 0
M  V30 1173 C 114.056 -3.45013 0.0776551 0
M  V30 1174 C 113.169 -4.16863 1.13355 0
M  V30 1175 C 112.304 -5.2888 0.49597 0
M  V30 1176 C 111.343 -5.92537 1.53513 0
M  V30 1177 N 110.48 -6.96038 0.920631 0
M  V30 1178 H 115.32 -2.52876 1.57663 0
M  V30 1179 H 112.857 -1.24199 0.788223 0
M  V30 1180 H 114.815 -4.16193 -0.289704 0
M  V30 1181 H 113.445 -3.132 -0.781393 0
M  V30 1182 H 112.497 -3.44248 1.61857 0
M  V30 1183 H 113.809 -4.60294 1.92174 0
M  V30 1184 H 112.963 -6.06653 0.0758604 0
M  V30 1185 H 111.702 -4.86622 -0.324062 0
M  V30 1186 H 110.707 -5.13482 1.9651 0
M  V30 1187 H 111.932 -6.36873 2.35733 0
M  V30 1188 H 109.878 -6.55888 0.12138 0
M  V30 1189 H 109.795 -7.3786 1.64616 0
M  V30 1190 H 111.063 -7.77725 0.525795 0
M  V30 1191 N 115.292 -0.849877 -1.32721 0
M  V30 1192 C 116.569 -0.372405 -1.92022 0
M  V30 1193 C 116.949 1.1435 -1.77447 0
M  V30 1194 O 116.297 1.96296 -1.16962 0
M  V30 1195 C 116.507 -0.831482 -3.3895 0
M  V30 1196 C 117.855 -0.845882 -4.16089 0
M  V30 1197 O 118.879 -0.775806 -3.47649 0
M  V30 1198 O 117.738 -0.943753 -5.38289 0
M  V30 1199 H 114.832 -0.107667 -0.819961 0
M  V30 1200 H 117.378 -0.93646 -1.41522 0
M  V30 1201 H 116.15 -1.87448 -3.4348 0
M  V30 1202 H 115.773 -0.24461 -3.96847 0
M  V30 1203 N 116.77 1.45427 -0.607355 0
M  V30 1204 C 118.01 2.04128 -0.105458 0
M  V30 1205 C 118.374 1.46555 1.24039 0
M  V30 1206 O 119.575 1.96608 1.833 0
M  V30 1207 C 117.846 3.57338 -0.0665324 0
M  V30 1208 S 119.405 4.37201 0.374207 0
M  V30 1209 H 116.223 0.709278 -0.0494575 0
M  V30 1210 H 118.825 1.78139 -0.805404 0
M  V30 1211 H 117.529 3.96752 -1.04957 0
M  V30 1212 H 117.06 3.87902 0.655415 0
M  V30 1213 H 119.075 4.6888 1.62377 0
M  V30 1214 N 118.248 0.346503 1.53744 0
M  V30 1215 C 119.211 -0.496439 2.23759 0
M  V30 1216 C 120.211 -1.0252 1.2388 0
M  V30 1217 O 121.401 -0.913974 1.48297 0
M  V30 1218 C 118.533 -1.69187 2.95954 0
M  V30 1219 H 119.726 0.115952 2.99676 0
M  V30 1220 H 117.279 0.0978939 1.55993 0
M  V30 1221 H 118.014 -2.34288 2.24231 0
M  V30 1222 H 117.799 -1.31989 3.69217 0
M  V30 1223 H 119.289 -2.28969 3.49232 0
M  V30 1224 N 119.726 -1.57421 0.075193 0
M  V30 1225 C 120.689 -2.11791 -0.876203 0
M  V30 1226 C 121.689 -1.04268 -1.22412 0
M  V30 1227 O 122.879 -1.30242 -1.15684 0
M  V30 1228 C 120.011 -2.62207 -2.17854 0
M  V30 1229 H 121.204 -2.9716 -0.40444 0
M  V30 1230 H 118.757 -1.55333 -0.173557 0
M  V30 1231 H 119.492 -1.803 -2.6956 0
M  V30 1232 H 119.277 -3.40802 -1.93897 0
M  V30 1233 H 120.767 -3.04335 -2.85955 0
M  V30 1234 N 121.204 0.198386 -1.56346 0
M  V30 1235 C 122.444 0.92609 -1.82217 0
M  V30 1236 C 122.808 1.80584 -0.652195 0
M  V30 1237 O 124.009 2.56907 -0.790716 0
M  V30 1238 C 122.28 1.72354 -3.13096 0
M  V30 1239 S 123.839 2.50371 -3.6036 0
M  V30 1240 H 120.657 0.310677 -0.639532 0
M  V30 1241 H 123.259 0.189755 -1.94577 0
M  V30 1242 H 121.963 1.0678 -3.96265 0
M  V30 1243 H 121.494 2.50175 -3.03605 0
M  V30 1244 H 123.509 3.74488 -3.25535 0
M  V30 1245 N 122.682 1.50554 0.465978 0
M  V30 1246 C 123.632 1.66177 1.56106 0
M  V30 1247 C 124.616 0.516265 1.52393 0
M  V30 1248 O 125.808 0.770906 1.5933 0
M  V30 1249 C 122.937 1.76396 2.94515 0
M  V30 1250 C 122.023 2.9664 3.03093 0
M  V30 1251 N 122.414 4.20245 2.81474 0
M  V30 1252 C 120.712 2.95304 3.34233 0
M  V30 1253 C 121.413 5.01259 2.95151 0
M  V30 1254 N 120.389 4.35318 3.25576 0
M  V30 1255 H 124.191 2.59434 1.38099 0
M  V30 1256 H 121.705 1.47808 0.6728 0
M  V30 1257 H 123.702 1.85694 3.73261 0
M  V30 1258 H 122.362 0.843017 3.13565 0
M  V30 1259 H 123.373 4.4966 2.56956 0
M  V30 1260 H 120.05 2.12729 3.59239 0
M  V30 1261 H 121.44 6.09564 2.82632 0
M  V30 1262 N 124.16 -0.719506 1.40217 0
M  V30 1263 C 125.107 -1.83359 1.40172 0
M  V30 1264 C 126.077 -1.64065 0.259206 0
M  V30 1265 O 127.262 -1.85254 0.456677 0
M  V30 1266 C 124.402 -3.2103 1.26624 0
M  V30 1267 C 123.515 -3.51923 2.50548 0
M  V30 1268 C 122.65 -4.79079 2.29471 0
M  V30 1269 C 121.689 -5.02863 3.48992 0
M  V30 1270 N 120.826 -6.2123 3.27135 0
M  V30 1271 H 125.666 -1.82733 2.35399 0
M  V30 1272 H 123.203 -0.892688 1.16917 0
M  V30 1273 H 125.161 -4.00524 1.16776 0
M  V30 1274 H 123.791 -3.20895 0.350176 0
M  V30 1275 H 122.843 -2.67014 2.70939 0
M  V30 1276 H 124.155 -3.6541 3.39525 0
M  V30 1277 H 123.309 -5.66582 2.16955 0
M  V30 1278 H 122.048 -4.67794 1.37913 0
M  V30 1279 H 121.053 -4.13816 3.6199 0
M  V30 1280 H 122.278 -5.16023 4.41472 0
M  V30 1281 H 120.224 -6.11204 2.38256 0
M  V30 1282 H 120.141 -6.35375 4.09675 0
M  V30 1283 H 121.409 -7.11532 3.18344 0
M  V30 1284 N 125.638 -1.25649 -0.95132 0
M  V30 1285 C 126.863 -1.13443 -1.73624 0
M  V30 1286 C 127.288 0.307565 -1.85568 0
M  V30 1287 O 126.646 1.22282 -1.33854 0
M  V30 1288 C 126.694 -1.79723 -3.12621 0
M  V30 1289 O 125.798 -1.07912 -3.98031 0
M  V30 1290 H 125.139 -0.395872 -0.533086 0
M  V30 1291 H 127.669 -1.66276 -1.1922 0
M  V30 1292 H 127.679 -1.86141 -3.63064 0
M  V30 1293 H 126.354 -2.84633 -3.03244 0
M  V30 1294 H 124.931 -1.09398 -3.56492 0
M  V30 1295 N 127.117 1.15442 -1.07289 0
M  V30 1296 C 128.064 2.20161 -0.692653 0
M  V30 1297 C 129.034 1.63073 0.31564 0
M  V30 1298 O 130.219 1.89725 0.202235 0
M  V30 1299 C 127.359 3.44967 -0.0959509 0
M  V30 1300 C 126.472 4.16256 -1.15564 0
M  V30 1301 C 125.607 5.28609 -0.524011 0
M  V30 1302 C 124.646 5.91715 -1.56653 0
M  V30 1303 N 123.783 6.9554 -0.957531 0
M  V30 1304 H 128.623 2.52037 -1.59002 0
M  V30 1305 H 126.16 1.2378 -0.794798 0
M  V30 1306 H 128.118 4.16341 0.267628 0
M  V30 1307 H 126.748 3.1361 0.764772 0
M  V30 1308 H 125.8 3.43385 -1.6368 0
M  V30 1309 H 127.112 4.59268 -1.94613 0
M  V30 1310 H 126.266 6.06604 -0.108032 0
M  V30 1311 H 125.005 4.86787 0.29825 0
M  V30 1312 H 124.01 5.12433 -1.9923 0
M  V30 1313 H 125.235 6.35614 -2.39107 0
M  V30 1314 H 123.181 6.55814 -0.156162 0
M  V30 1315 H 123.098 7.36977 -1.68526 0
M  V30 1316 H 124.366 7.77435 -0.567032 0
M  V30 1317 N 128.595 0.856903 1.32268 0
M  V30 1318 C 129.872 0.382583 1.91822 0
M  V30 1319 C 130.252 -1.13407 1.78051 0
M  V30 1320 O 129.6 -1.95673 1.18001 0
M  V30 1321 C 129.81 0.849446 3.38505 0
M  V30 1322 C 131.158 0.867936 4.15634 0
M  V30 1323 O 132.182 0.794232 3.47232 0
M  V30 1324 O 131.041 0.972286 5.37781 0
M  V30 1325 H 128.135 0.112014 0.819379 0
M  V30 1326 H 130.681 0.943952 1.41024 0
M  V30 1327 H 129.453 1.89267 3.42482 0
M  V30 1328 H 129.076 0.265652 3.96712 0
M  V30 1329 N 130.073 -1.45103 0.615059 0
M  V30 1330 C 131.321 -2.01784 0.112955 0
M  V30 1331 C 131.642 -1.48504 -1.26378 0
M  V30 1332 O 130.912 -0.682245 -1.83636 0
M  V30 1333 H 129.492 -0.745993 0.0387668 0
M  V30 1334 H 132.154 -1.77808 0.798141 0
M  V30 1335 H 131.25 -3.12025 0.0684069 0
M  V30 1336 N 131.551 -0.354651 -1.53558 0
M  V30 1337 C 132.498 0.496968 -2.25386 0
M  V30 1338 C 133.468 1.0865 -1.25636 0
M  V30 1339 O 134.653 1.12104 -1.54394 0
M  V30 1340 C 131.793 1.63637 -3.03837 0
M  V30 1341 C 130.906 1.07307 -4.18461 0
M  V30 1342 C 130.041 2.18068 -4.84376 0
M  V30 1343 C 129.08 1.59147 -5.91049 0
M  V30 1344 N 128.217 2.63695 -6.50699 0
M  V30 1345 H 133.057 -0.122075 -2.9775 0
M  V30 1346 H 130.594 -0.0720154 -1.46924 0
M  V30 1347 H 132.552 2.30734 -3.47589 0
M  V30 1348 H 131.182 2.22623 -2.33749 0
M  V30 1349 H 130.234 0.292708 -3.79272 0
M  V30 1350 H 131.546 0.602193 -4.95152 0
M  V30 1351 H 130.7 2.93007 -5.31255 0
M  V30 1352 H 129.439 2.68504 -4.07133 0
M  V30 1353 H 128.444 0.827175 -5.43542 0
M  V30 1354 H 129.669 1.09549 -6.70206 0
M  V30 1355 H 127.615 3.13365 -5.76315 0
M  V30 1356 H 127.532 2.21263 -7.22896 0
M  V30 1357 H 128.8 3.3837 -7.02229 0
M  V30 1358 N 133.029 1.57378 -0.0835403 0
M  V30 1359 C 133.962 2.09016 0.915833 0
M  V30 1360 C 134.94 0.997993 1.2837 0
M  V30 1361 O 136.124 1.27219 1.39096 0
M  V30 1362 C 133.251 2.55757 2.22049 0
M  V30 1363 C 132.297 3.76522 2.00333 0
M  V30 1364 S 133.13 5.20661 1.25191 0
M  V30 1365 C 134.286 5.70743 2.56912 0
M  V30 1366 H 134.519 2.93457 0.476492 0
M  V30 1367 H 132.052 1.53856 0.129493 0
M  V30 1368 H 134.01 2.83346 2.97027 0
M  V30 1369 H 132.671 1.71564 2.63106 0
M  V30 1370 H 131.864 4.07256 2.96916 0
M  V30 1371 H 131.466 3.49367 1.33488 0
M  V30 1372 H 133.758 5.78304 3.52946 0
M  V30 1373 H 134.701 6.6944 2.30772 0
M  V30 1374 H 135.109 4.98616 2.64655 0
M  V30 1375 N 134.507 -0.190092 1.56449 0
M  V30 1376 C 135.732 -0.929864 1.85387 0
M  V30 1377 C 136.157 -1.7585 0.667704 0
M  V30 1378 O 135.515 -1.77198 -0.383459 0
M  V30 1379 C 135.563 -1.79773 3.12593 0
M  V30 1380 O 134.667 -2.89713 2.93496 0
M  V30 1381 H 134.008 -0.261574 0.610307 0
M  V30 1382 H 136.538 -0.193896 2.03679 0
M  V30 1383 H 136.548 -2.20139 3.43515 0
M  V30 1384 H 135.223 -1.18892 3.98544 0
M  V30 1385 H 133.8 -2.53065 2.73884 0
M  V30 1386 N 135.985 -1.50799 -0.457987 0
M  V30 1387 C 136.915 -1.73553 -1.5621 0
M  V30 1388 C 137.896 -0.584774 -1.59732 0
M  V30 1389 O 139.081 -0.825314 -1.7579 0
M  V30 1390 C 136.211 -1.84169 -2.94447 0
M  V30 1391 C 135.165 -2.99461 -3.0579 0
M  V30 1392 C 134.491 -2.95235 -4.45803 0
M  V30 1393 C 135.791 -4.39766 -2.81786 0
M  V30 1394 H 137.485 -2.66 -1.37421 0
M  V30 1395 H 135.031 -1.28002 -0.659662 0
M  V30 1396 H 136.984 -1.98672 -3.71628 0
M  V30 1397 H 135.708 -0.883545 -3.14422 0
M  V30 1398 H 134.367 -2.8463 -2.31044 0
M  V30 1399 H 134.015 -1.97239 -4.62715 0
M  V30 1400 H 133.715 -3.72642 -4.54326 0
M  V30 1401 H 135.239 -3.11803 -5.24987 0
M  V30 1402 H 136.653 -4.55054 -3.4871 0
M  V30 1403 H 135.05 -5.18722 -3.0174 0
M  V30 1404 H 136.12 -4.51229 -1.7754 0
M  V30 1405 N 137.463 0.71206 -1.40597 0
M  V30 1406 C 138.41 1.82613 -1.41142 0
M  V30 1407 C 139.38 1.63925 -0.267903 0
M  V30 1408 O 140.565 1.85009 -0.466495 0
M  V30 1409 C 137.705 3.20354 -1.28324 0
M  V30 1410 C 136.818 3.50589 -2.52411 0
M  V30 1411 C 135.953 4.77855 -2.32009 0
M  V30 1412 C 134.992 5.01005 -3.51654 0
M  V30 1413 N 134.129 6.19487 -3.30425 0
M  V30 1414 H 138.969 1.81482 -2.36365 0
M  V30 1415 H 136.506 0.886475 -1.17388 0
M  V30 1416 H 138.464 3.99899 -1.18899 0
M  V30 1417 H 137.094 3.20705 -0.367189 0
M  V30 1418 H 136.146 2.65573 -2.72351 0
M  V30 1419 H 137.458 3.63604 -3.41458 0
M  V30 1420 H 136.612 5.65424 -2.19956 0
M  V30 1421 H 135.351 4.67056 -1.40392 0
M  V30 1422 H 134.356 4.1189 -3.64179 0
M  V30 1423 H 135.581 5.13674 -4.44202 0
M  V30 1424 H 133.527 6.09932 -2.41494 0
M  V30 1425 H 133.444 6.33194 -4.13039 0
M  V30 1426 H 134.712 7.09834 -3.22113 0
M  V30 1427 N 138.941 1.26152 0.944643 0
M  V30 1428 C 140.188 1.11492 1.69044 0
M  V30 1429 C 140.516 -0.342366 1.91463 0
M  V30 1430 O 139.771 -1.26812 1.49054 0
M  V30 1431 C 140.07 1.82541 3.07268 0
M  V30 1432 C 139.736 3.32445 3.04616 0
M  V30 1433 C 138.398 3.73337 3.036 0
M  V30 1434 C 140.75 4.28171 2.97185 0
M  V30 1435 C 138.078 5.08348 2.92915 0
M  V30 1436 C 140.43 5.63218 2.88041 0
M  V30 1437 C 139.094 6.03426 2.85366 0
M  V30 1438 H 138.364 0.407977 0.618576 0
M  V30 1439 H 141.011 1.56551 1.10291 0
M  V30 1440 H 139.316 1.29941 3.69625 0
M  V30 1441 H 141.013 1.68642 3.63815 0
M  V30 1442 H 137.603 2.99915 3.06185 0
M  V30 1443 H 141.787 3.97563 2.97081 0
M  V30 1444 H 137.043 5.38667 2.89219 0
M  V30 1445 H 141.217 6.37078 2.81254 0
M  V30 1446 H 138.844 7.07999 2.76842 0
M  V30 1447 N 140.419 -1.14872 1.07899 0
M  V30 1448 C 141.352 -2.18794 0.64841 0
M  V30 1449 C 142.33 -1.59065 -0.337189 0
M  V30 1450 O 143.514 -1.86936 -0.242284 0
M  V30 1451 C 140.641 -3.38667 -0.0470417 0
M  V30 1452 C 139.687 -4.16942 0.897884 0
M  V30 1453 S 140.52 -4.78615 2.40183 0
M  V30 1454 C 141.676 -6.0185 1.71834 0
M  V30 1455 H 141.909 -2.5498 1.52881 0
M  V30 1456 H 139.442 -1.25922 0.893484 0
M  V30 1457 H 141.4 -4.08113 -0.442027 0
M  V30 1458 H 140.061 -3.00814 -0.903861 0
M  V30 1459 H 139.254 -5.02726 0.358096 0
M  V30 1460 H 138.856 -3.53073 1.23352 0
M  V30 1461 H 141.148 -6.69574 1.03328 0
M  V30 1462 H 142.091 -6.60408 2.55473 0
M  V30 1463 H 142.499 -5.5173 1.19392 0
M  V30 1464 N 141.898 -0.863906 -1.31812 0
M  V30 1465 C 143.314 -0.555004 -1.49639 0
M  V30 1466 C 143.514 0.912266 -1.79666 0
M  V30 1467 O 142.57 1.69479 -1.87171 0
M  V30 1468 C 143.883 -1.44998 -2.63431 0
M  V30 1469 C 145.431 -1.45138 -2.77316 0
M  V30 1470 C 145.906 -2.33179 -3.94197 0
M  V30 1471 N 147.397 -2.31025 -4.01474 0
M  V30 1472 C 148.132 -2.95871 -4.9117 0
M  V30 1473 N 147.628 -3.69863 -5.8581 0
M  V30 1474 N 149.421 -2.85211 -4.84367 0
M  V30 1475 H 141.572 -1.81339 -1.10589 0
M  V30 1476 H 143.835 -0.77505 -0.545895 0
M  V30 1477 H 143.541 -2.49377 -2.48 0
M  V30 1478 H 143.415 -1.14409 -3.59431 0
M  V30 1479 H 145.802 -0.415201 -2.92164 0
M  V30 1480 H 145.883 -1.79747 -1.82001 0
M  V30 1481 H 145.527 -3.3687 -3.80107 0
M  V30 1482 H 145.457 -1.95897 -4.88807 0
M  V30 1483 H 147.948 -1.77238 -3.33759 0
M  V30 1484 H 148.261 -4.16486 -6.50968 0
M  V30 1485 H 146.606 -3.73971 -5.85808 0
M  V30 1486 H 149.797 -2.26948 -4.09405 0
M  V30 1487 H 149.97 -3.36027 -5.54066 0
M  V30 1488 N 143.376 1.44774 -0.622745 0
M  V30 1489 C 144.306 2.33382 0.0741861 0
M  V30 1490 C 145.287 1.47719 0.843387 0
M  V30 1491 O 146.472 1.76458 0.810934 0
M  V30 1492 C 143.602 3.30663 1.06204 0
M  V30 1493 C 142.556 4.26079 0.405037 0
M  V30 1494 C 141.882 5.13165 1.5022 0
M  V30 1495 C 143.182 5.1781 -0.683414 0
M  V30 1496 H 144.876 2.91905 -0.665713 0
M  V30 1497 H 142.422 1.40363 -0.321587 0
M  V30 1498 H 144.375 3.9153 1.55827 0
M  V30 1499 H 143.099 2.70331 1.83272 0
M  V30 1500 H 141.758 3.66532 -0.0704683 0
M  V30 1501 H 141.406 4.49191 2.26355 0
M  V30 1502 H 141.106 5.77812 1.06803 0
M  V30 1503 H 142.63 5.76902 2.00041 0
M  V30 1504 H 144.044 5.72661 -0.270631 0
M  V30 1505 H 142.441 5.91015 -1.04023 0
M  V30 1506 H 143.511 4.59326 -1.55395 0
M  V30 1507 N 144.854 0.36279 1.53368 0
M  V30 1508 C 146.131 -0.284021 1.93527 0
M  V30 1509 C 146.511 -1.66628 1.29608 0
M  V30 1510 O 145.859 -2.23942 0.45413 0
M  V30 1511 C 146.069 -0.337028 3.47369 0
M  V30 1512 C 147.417 -0.578708 4.20638 0
M  V30 1513 O 148.441 -0.418352 3.53735 0
M  V30 1514 O 147.3 -0.89074 5.39192 0
M  V30 1515 H 144.394 -0.169743 0.809393 0
M  V30 1516 H 146.94 0.41537 1.64538 0
M  V30 1517 H 145.712 0.632217 3.86159 0
M  V30 1518 H 145.335 -1.08243 3.82582 0
M  V30 1519 N 146.332 -1.57332 0.0918853 0
M  V30 1520 C 147.609 -1.85691 -0.614668 0
M  V30 1521 C 147.989 -0.988146 -1.86545 0
M  V30 1522 O 147.337 -0.0597055 -2.28422 0
M  V30 1523 C 147.547 -3.36294 -0.933126 0
M  V30 1524 C 148.895 -4.04275 -1.29796 0
M  V30 1525 O 149.919 -3.41157 -1.02424 0
M  V30 1526 O 148.778 -5.1564 -1.81047 0
M  V30 1527 H 145.872 -0.767802 -0.307261 0
M  V30 1528 H 148.418 -1.69244 0.12434 0
M  V30 1529 H 147.19 -3.91273 -0.0456404 0
M  V30 1530 H 146.813 -3.58076 -1.72822 0
M  V30 1531 N 147.81 0.181792 -1.56548 0
M  V30 1532 C 148.758 1.24461 -1.965 0
M  V30 1533 C 149.752 1.464 -0.852261 0
M  V30 1534 O 150.958 1.47103 -1.03733 0
M  V30 1535 H 147.333 0.418138 -0.625031 0
M  V30 1536 H 149.304 0.880714 -2.85107 0
M  V30 1537 C 148.053 2.57891 -2.33212 0
M  V30 1538 H 147.376 2.41829 -3.18369 0
M  V30 1539 H 148.816 3.3097 -2.65019 0
M  V30 1540 C 147.275 3.15871 -1.17163 0
M  V30 1541 O 147.805 3.9913 -0.453708 0
M  V30 1542 N 146.011 2.74808 -0.944936 0
M  V30 1543 H 145.558 2.07205 -1.53049 0
M  V30 1544 H 145.516 3.13939 -0.170286 0
M  V30 1545 N 149.288 1.51039 0.449983 0
M  V30 1546 C 150.513 1.6715 1.22783 0
M  V30 1547 C 150.938 0.363081 1.84563 0
M  V30 1548 O 150.296 -0.675433 1.68249 0
M  V30 1549 C 150.344 2.77985 2.29689 0
M  V30 1550 O 149.448 2.40707 3.34864 0
M  V30 1551 H 148.789 0.557746 0.360299 0
M  V30 1552 H 151.319 1.97535 0.533005 0
M  V30 1553 H 151.329 3.01693 2.74673 0
M  V30 1554 H 150.004 3.72935 1.84098 0
M  V30 1555 H 148.581 2.27523 2.95445 0
M  V30 1556 N 150.766 -0.704594 1.40972 0
M  V30 1557 C 151.729 -1.80035 1.41845 0
M  V30 1558 C 152.729 -1.57774 0.310474 0
M  V30 1559 O 153.919 -1.64613 0.56992 0
M  V30 1560 C 151.051 -3.18284 1.22098 0
M  V30 1561 H 152.244 -1.80658 2.3938 0
M  V30 1562 H 149.797 -0.911329 1.26982 0
M  V30 1563 H 150.532 -3.23306 0.253672 0
M  V30 1564 H 150.317 -3.35843 2.02366 0
M  V30 1565 H 151.807 -3.98289 1.25522 0
M  V30 1566 N 152.244 -1.26651 -0.937939 0
M  V30 1567 C 153.207 -1.08546 -2.01867 0
M  V30 1568 C 154.207 -0.0327327 -1.60767 0
M  V30 1569 O 155.397 -0.276427 -1.71993 0
M  V30 1570 C 152.529 -0.651711 -3.34613 0
M  V30 1571 H 153.722 -2.04502 -2.1936 0
M  V30 1572 H 151.275 -1.09294 -1.11734 0
M  V30 1573 H 152.01 0.309696 -3.22818 0
M  V30 1574 H 151.795 -1.41189 -3.65798 0
M  V30 1575 H 153.285 -0.546973 -4.14002 0
M  V30 1576 N 153.722 1.14298 -1.08507 0
M  V30 1577 C 154.632 2.23027 -0.727753 0
M  V30 1578 C 155.648 1.71952 0.26619 0
M  V30 1579 O 156.824 2.011 0.109882 0
M  V30 1580 C 153.889 3.46403 -0.143541 0
M  V30 1581 C 152.95 4.12413 -1.19223 0
M  V30 1582 C 152.183 5.29899 -0.635798 0
M  V30 1583 O 152.406 5.67796 0.544393 0
M  V30 1584 O 151.34 5.85717 -1.38634 0
M  V30 1585 H 155.166 2.55945 -1.63481 0
M  V30 1586 H 152.751 1.22248 -0.858817 0
M  V30 1587 H 154.633 4.21018 0.179404 0
M  V30 1588 H 153.308 3.15206 0.736659 0
M  V30 1589 H 152.215 3.39667 -1.56772 0
M  V30 1590 H 153.548 4.47718 -2.04474 0
M  V30 1591 N 155.201 0.870884 1.31352 0
M  V30 1592 C 156.131 0.343096 2.30966 0
M  V30 1593 C 157.112 -0.566507 1.60389 0
M  V30 1594 O 158.297 -0.483336 1.88089 0
M  V30 1595 C 155.427 -0.455487 3.443 0
M  V30 1596 C 154.381 0.361103 4.26474 0
M  V30 1597 C 153.707 -0.563221 5.31725 0
M  V30 1598 C 155.007 1.59566 4.97329 0
M  V30 1599 H 156.701 1.17548 2.75359 0
M  V30 1600 H 154.247 0.566686 1.32381 0
M  V30 1601 H 156.2 -0.83525 4.13039 0
M  V30 1602 H 154.924 -1.32139 2.98675 0
M  V30 1603 H 153.583 0.722825 3.59403 0
M  V30 1604 H 153.231 -1.42643 4.82351 0
M  V30 1605 H 152.931 -0.0207409 5.87596 0
M  V30 1606 H 154.455 -0.939808 6.03324 0
M  V30 1607 H 155.869 1.28728 5.58661 0
M  V30 1608 H 154.266 2.07728 5.63 0
M  V30 1609 H 155.336 2.34798 4.24262 0
M  V30 1610 N 156.679 -1.44442 0.630414 0
M  V30 1611 C 157.626 -2.30678 -0.0749355 0
M  V30 1612 C 158.596 -1.4344 -0.837502 0
M  V30 1613 O 159.781 -1.72343 -0.818684 0
M  V30 1614 C 156.921 -3.28706 -1.05103 0
M  V30 1615 C 156.034 -4.31046 -0.286954 0
M  V30 1616 C 155.169 -5.16167 -1.2548 0
M  V30 1617 C 154.208 -6.10216 -0.479843 0
M  V30 1618 N 153.345 -6.88039 -1.39811 0
M  V30 1619 H 158.185 -2.90454 0.666386 0
M  V30 1620 H 155.722 -1.43107 0.340404 0
M  V30 1621 H 157.68 -3.84027 -1.63031 0
M  V30 1622 H 156.31 -2.70632 -1.75949 0
M  V30 1623 H 155.362 -3.78203 0.408243 0
M  V30 1624 H 156.674 -4.97794 0.316657 0
M  V30 1625 H 155.828 -5.76002 -1.90544 0
M  V30 1626 H 154.567 -4.49491 -1.89233 0
M  V30 1627 H 153.572 -5.49491 0.184295 0
M  V30 1628 H 154.797 -6.78928 0.152965 0
M  V30 1629 H 152.743 -6.24032 -2.02287 0
M  V30 1630 H 152.66 -7.51223 -0.848508 0
M  V30 1631 H 153.928 -7.52397 -2.03762 0
M  V30 1632 N 158.157 -0.370918 -1.53173 0
M  V30 1633 C 159.067 0.480823 -2.2962 0
M  V30 1634 C 160.083 1.08789 -1.35798 0
M  V30 1635 O 161.259 1.09768 -1.68858 0
M  V30 1636 C 158.324 1.60227 -3.07454 0
M  V30 1637 C 157.385 1.0222 -4.16953 0
M  V30 1638 C 156.618 2.0902 -4.91066 0
M  V30 1639 O 156.841 3.30222 -4.65091 0
M  V30 1640 O 155.775 1.71778 -5.76867 0
M  V30 1641 H 159.601 -0.141421 -3.03371 0
M  V30 1642 H 157.186 -0.135146 -1.48787 0
M  V30 1643 H 159.068 2.25417 -3.56041 0
M  V30 1644 H 157.743 2.20982 -2.36535 0
M  V30 1645 H 156.65 0.334064 -3.72605 0
M  V30 1646 H 157.983 0.459131 -4.90054 0
M  V30 1647 N 159.635 1.57281 -0.100228 0
M  V30 1648 C 160.884 1.93713 0.561984 0
M  V30 1649 C 161.197 0.984492 1.69018 0
M  V30 1650 O 162.403 1.24273 2.41389 0
M  V30 1651 C 160.859 3.4421 1.05106 0
M  V30 1652 C 160.467 4.47975 -0.0476628 0
M  V30 1653 C 162.211 3.89595 1.68571 0
M  V30 1654 C 160.118 5.89631 0.457055 0
M  V30 1655 H 159.048 0.723082 0.2137 0
M  V30 1656 H 161.699 1.82644 -0.177057 0
M  V30 1657 H 160.081 3.50449 1.84395 0
M  V30 1658 H 161.255 4.53385 -0.823333 0
M  V30 1659 H 159.57 4.1223 -0.587816 0
M  V30 1660 H 162.167 4.92832 2.07414 0
M  V30 1661 H 162.51 3.28526 2.55688 0
M  V30 1662 H 163.043 3.86078 0.958562 0
M  V30 1663 H 159.782 6.54411 -0.377616 0
M  V30 1664 H 159.302 5.87681 1.19962 0
M  V30 1665 H 160.981 6.40363 0.92437 0
M  V30 1666 N 161.113 -0.173488 1.56642 0
M  V30 1667 C 162.343 -0.904781 1.85734 0
M  V30 1668 C 162.751 -1.76431 0.68328 0
M  V30 1669 O 162.094 -1.802 -0.356865 0
M  V30 1670 C 162.156 -1.83382 3.09211 0
M  V30 1671 C 161.82 -1.15411 4.42187 0
M  V30 1672 C 162.817 -0.520609 5.17287 0
M  V30 1673 C 160.502 -1.15151 4.88923 0
M  V30 1674 C 162.496 0.106412 6.37311 0
M  V30 1675 C 160.183 -0.520664 6.08878 0
M  V30 1676 C 161.181 0.107196 6.82916 0
M  V30 1677 O 160.869 0.728102 8.00596 0
M  V30 1678 H 160.601 -0.268408 0.62043 0
M  V30 1679 H 163.155 -0.179096 2.04618 0
M  V30 1680 H 161.385 -2.59976 2.86268 0
M  V30 1681 H 163.074 -2.43476 3.24768 0
M  V30 1682 H 163.84 -0.514606 4.82262 0
M  V30 1683 H 159.719 -1.62961 4.31236 0
M  V30 1684 H 163.263 0.597081 6.9504 0
M  V30 1685 H 159.16 -0.524242 6.43368 0
M  V30 1686 H 159.928 0.627138 8.16094 0
M  V30 1687 N 162.591 -1.51276 -0.441967 0
M  V30 1688 C 163.541 -1.6864 -1.53442 0
M  V30 1689 C 164.525 -0.540444 -1.51552 0
M  V30 1690 O 165.717 -0.796157 -1.58083 0
M  V30 1691 C 162.846 -1.8106 -2.91672 0
M  V30 1692 C 161.932 -3.01424 -2.98336 0
M  V30 1693 N 162.323 -4.2467 -2.74752 0
M  V30 1694 C 160.621 -3.00584 -3.29493 0
M  V30 1695 C 161.322 -5.05891 -2.87139 0
M  V30 1696 N 160.298 -4.40442 -3.18609 0
M  V30 1697 H 164.1 -2.61598 -1.33954 0
M  V30 1698 H 161.614 -1.4886 -0.6492 0
M  V30 1699 H 163.611 -1.91609 -3.70259 0
M  V30 1700 H 162.271 -0.892795 -3.12185 0
M  V30 1701 H 163.282 -4.53691 -2.49769 0
M  V30 1702 H 159.959 -2.18417 -3.55809 0
M  V30 1703 H 161.349 -6.13983 -2.72899 0
M  V30 1704 N 164.069 0.697108 -1.41344 0
M  V30 1705 C 165.032 1.79281 -1.42797 0
M  V30 1706 C 166.032 1.57607 -0.318837 0
M  V30 1707 O 167.222 1.64309 -0.578642 0
M  V30 1708 C 164.354 3.17632 -1.23785 0
M  V30 1709 H 165.547 1.79385 -2.40335 0
M  V30 1710 H 163.1 0.904582 -1.27464 0
M  V30 1711 H 163.835 3.23167 -0.270814 0
M  V30 1712 H 163.62 3.34765 -2.04144 0
M  V30 1713 H 165.11 3.97617 -1.27633 0
M  V30 1714 N 165.547 1.27147 0.931209 0
M  V30 1715 C 166.495 1.09398 2.05268 0
M  V30 1716 C 167.489 0.0180591 1.6939 0
M  V30 1717 O 168.695 0.17551 1.79142 0
M  V30 1718 H 165.07 0.336986 0.672268 0
M  V30 1719 H 167.041 2.04416 2.17386 0
M  V30 1720 C 165.79 0.75424 3.39421 0
M  V30 1721 H 165.113 1.57404 3.67511 0
M  V30 1722 H 166.553 0.669903 4.18674 0
M  V30 1723 C 165.012 -0.541197 3.32525 0
M  V30 1724 O 165.542 -1.57664 3.69466 0
M  V30 1725 N 163.748 -0.535517 2.85623 0
M  V30 1726 H 163.295 0.307511 2.55758 0
M  V30 1727 H 163.253 -1.40236 2.81392 0
M  V30 1728 N 167.025 -1.13721 1.09112 0
M  V30 1729 C 168.265 -1.86576 0.834801 0
M  V30 1730 C 168.629 -1.81435 -0.628122 0
M  V30 1731 O 169.83 -2.49497 -1.00024 0
M  V30 1732 C 168.101 -3.30872 1.35124 0
M  V30 1733 S 169.66 -4.21257 1.22832 0
M  V30 1734 H 166.478 -0.643666 0.302017 0
M  V30 1735 H 169.08 -1.37085 1.39385 0
M  V30 1736 H 167.784 -3.32166 2.41027 0
M  V30 1737 H 167.315 -3.85423 0.788185 0
M  V30 1738 H 169.33 -4.95884 0.177191 0
M  V30 1739 N 168.503 -0.877838 -1.30888 0
M  V30 1740 C 169.752 -0.488793 -1.95688 0
M  V30 1741 C 170.065 0.965485 -1.70111 0
M  V30 1742 O 171.271 1.46104 -2.28836 0
M  V30 1743 C 169.727 -0.823201 -3.50359 0
M  V30 1744 C 169.335 -2.29477 -3.84765 0
M  V30 1745 C 171.079 -0.503009 -4.21509 0
M  V30 1746 C 168.986 -2.57118 -5.32583 0
M  V30 1747 H 167.916 -0.179062 -0.732429 0
M  V30 1748 H 170.567 -1.07183 -1.48943 0
M  V30 1749 H 168.949 -0.169331 -3.95638 0
M  V30 1750 H 170.123 -2.99236 -3.5042 0
M  V30 1751 H 168.438 -2.58178 -3.267 0
M  V30 1752 H 171.035 -0.68665 -5.30273 0
M  V30 1753 H 171.378 0.557109 -4.12555 0
M  V30 1754 H 171.911 -1.11376 -3.8189 0
M  V30 1755 H 168.65 -3.61843 -5.4658 0
M  V30 1756 H 168.17 -1.91961 -5.68253 0
M  V30 1757 H 169.849 -2.42251 -5.99936 0
M  V30 1758 N 169.982 1.44106 -0.638065 0
M  V30 1759 C 171.23 2.01579 -0.145043 0
M  V30 1760 C 171.551 1.50496 1.24 0
M  V30 1761 O 170.821 0.711374 1.82527 0
M  V30 1762 H 169.401 0.745282 -0.05063 0
M  V30 1763 H 172.063 1.76516 -0.826327 0
M  V30 1764 H 171.159 3.11877 -0.118039 0
M  V30 1765 N 171.46 0.379036 1.52974 0
M  V30 1766 C 172.7 -0.206325 2.03356 0
M  V30 1767 C 173.064 -1.44892 1.25977 0
M  V30 1768 O 174.265 -2.11078 1.66432 0
M  V30 1769 C 172.536 -0.477887 3.54191 0
M  V30 1770 S 174.095 -1.035 4.26419 0
M  V30 1771 H 170.913 -0.0590259 0.708546 0
M  V30 1772 H 173.515 0.525013 1.88319 0
M  V30 1773 H 172.219 0.433745 4.08101 0
M  V30 1774 H 171.75 -1.23793 3.73415 0
M  V30 1775 H 173.765 -2.31821 4.38718 0
M  V30 1776 N 172.938 -1.57226 0.108567 0
M  V30 1777 C 173.888 -2.11305 -0.856396 0
M  V30 1778 C 174.872 -1.03129 -1.23504 0
M  V30 1779 O 176.064 -1.29381 -1.20787 0
M  V30 1780 C 173.193 -2.70771 -2.11041 0
M  V30 1781 C 172.279 -3.86011 -1.7566 0
M  V30 1782 N 172.67 -4.93492 -1.10902 0
M  V30 1783 C 170.968 -3.95999 -2.05185 0
M  V30 1784 C 171.669 -5.73984 -0.944308 0
M  V30 1785 N 170.645 -5.2346 -1.46596 0
M  V30 1786 H 174.447 -2.91784 -0.352002 0
M  V30 1787 H 171.961 -1.62126 -0.0942324 0
M  V30 1788 H 173.958 -3.07851 -2.81128 0
M  V30 1789 H 172.618 -1.91751 -2.62034 0
M  V30 1790 H 173.629 -5.1208 -0.774235 0
M  V30 1791 H 170.306 -3.28007 -2.58298 0
M  V30 1792 H 171.696 -6.70479 -0.436813 0
M  V30 1793 N 174.416 0.165178 -1.56732 0
M  V30 1794 C 175.644 0.896218 -1.86482 0
M  V30 1795 C 176.059 1.75555 -0.694675 0
M  V30 1796 O 175.416 1.79379 0.33607 0
M  V30 1797 C 175.467 1.76792 -3.1532 0
M  V30 1798 O 175.188 0.943239 -4.27825 0
M  V30 1799 C 176.689 2.6081 -3.58459 0
M  V30 1800 H 173.909 0.260064 -0.618553 0
M  V30 1801 H 176.453 0.163428 -2.03846 0
M  V30 1802 H 174.608 2.45398 -2.99764 0
M  V30 1803 H 175.022 1.53998 -5.01383 0
M  V30 1804 H 176.496 3.17579 -4.51495 0
M  V30 1805 H 176.973 3.35977 -2.82872 0
M  V30 1806 H 177.579 1.97526 -3.76648 0
M  V30 1807 N 175.894 1.51508 0.433938 0
M  V30 1808 C 177.171 1.54888 1.19453 0
M  V30 1809 C 177.551 0.315154 2.08734 0
M  V30 1810 O 176.899 -0.699558 2.17528 0
M  V30 1811 C 177.109 2.86467 1.99342 0
M  V30 1812 C 178.457 3.38545 2.56267 0
M  V30 1813 O 179.481 2.88041 2.0955 0
M  V30 1814 O 178.34 4.26675 3.41483 0
M  V30 1815 H 175.434 0.622863 0.544032 0
M  V30 1816 H 177.98 1.63823 0.442732 0
M  V30 1817 H 176.752 3.67718 1.33788 0
M  V30 1818 H 176.375 2.8071 2.8158 0
M  V30 1819 N 177.372 -0.689602 1.41712 0
M  V30 1820 C 178.302 -1.81577 1.46806 0
M  V30 1821 C 179.283 -1.66945 0.326105 0
M  V30 1822 O 180.468 -1.86588 0.538377 0
M  V30 1823 C 177.598 -3.19762 1.35535 0
M  V30 1824 C 176.552 -3.49107 2.47605 0
M  V30 1825 C 175.878 -4.86711 2.21397 0
M  V30 1826 C 177.178 -3.47483 3.89939 0
M  V30 1827 H 178.872 -1.7757 2.41058 0
M  V30 1828 H 176.418 -0.852887 1.16025 0
M  V30 1829 H 178.371 -3.98263 1.3771 0
M  V30 1830 H 177.095 -3.24409 0.377708 0
M  V30 1831 H 175.754 -2.72959 2.44722 0
M  V30 1832 H 175.402 -4.8799 1.21961 0
M  V30 1833 H 175.102 -5.0731 2.96497 0
M  V30 1834 H 176.626 -5.67515 2.25297 0
M  V30 1835 H 178.04 -4.1598 3.94505 0
M  V30 1836 H 176.437 -3.79615 4.64771 0
M  V30 1837 H 177.507 -2.46341 4.17665 0
M  V30 1838 N 178.85 -1.27639 -0.924453 0
M  V30 1839 C 179.813 -1.10681 -2.00705 0
M  V30 1840 C 180.813 -0.0497823 -1.60723 0
M  V30 1841 O 182.003 -0.294654 -1.7169 0
M  V30 1842 C 179.135 -0.687164 -3.33902 0
M  V30 1843 H 180.328 -2.06817 -2.17179 0
M  V30 1844 H 177.881 -1.10473 -1.10569 0
M  V30 1845 H 178.616 0.275439 -3.23128 0
M  V30 1846 H 178.401 -1.45061 -3.6428 0
M  V30 1847 H 179.891 -0.590853 -4.13399 0
M  V30 1848 N 180.328 1.1314 -1.09713 0
M  V30 1849 C 181.275 2.18642 -0.739196 0
M  V30 1850 C 182.245 1.63706 0.280978 0
M  V30 1851 O 183.43 1.90111 0.161946 0
M  V30 1852 C 180.57 3.44685 -0.169102 0
M  V30 1853 C 179.683 4.13711 -1.24367 0
M  V30 1854 C 178.818 5.27379 -0.636019 0
M  V30 1855 C 177.857 5.88259 -1.69169 0
M  V30 1856 N 176.994 6.93352 -1.10485 0
M  V30 1857 H 181.834 2.48607 -1.64312 0
M  V30 1858 H 179.371 1.22066 -0.820875 0
M  V30 1859 H 181.329 4.16815 0.179256 0
M  V30 1860 H 179.959 3.15161 0.698079 0
M  V30 1861 H 179.011 3.39835 -1.70927 0
M  V30 1862 H 180.323 4.55037 -2.04311 0
M  V30 1863 H 179.477 6.06238 -0.236677 0
M  V30 1864 H 178.216 4.8731 0.194928 0
M  V30 1865 H 177.221 5.08092 -2.10055 0
M  V30 1866 H 178.446 6.30399 -2.52536 0
M  V30 1867 H 176.392 6.55335 -0.295234 0
M  V30 1868 H 176.309 7.33236 -1.84121 0
M  V30 1869 H 177.577 7.76057 -0.73181 0
M  V30 1870 N 181.806 0.884767 1.30421 0
M  V30 1871 C 182.769 0.356277 2.26414 0
M  V30 1872 C 183.769 -0.501124 1.52792 0
M  V30 1873 O 184.959 -0.30831 1.7145 0
M  V30 1874 C 182.091 -0.492316 3.37326 0
M  V30 1875 H 183.284 1.20389 2.74675 0
M  V30 1876 H 180.837 0.661607 1.41607 0
M  V30 1877 H 181.572 -1.36052 2.94381 0
M  V30 1878 H 181.357 0.121832 3.91911 0
M  V30 1879 H 182.847 -0.853871 4.08777 0
M  V30 1880 N 183.284 -1.43765 0.645699 0
M  V30 1881 C 184.532 -2.01499 0.155731 0
M  V30 1882 C 184.853 -1.51151 -1.232 0
M  V30 1883 O 184.123 -0.721044 -1.82148 0
M  V30 1884 H 182.703 -0.745003 0.0545817 0
M  V30 1885 H 185.365 -1.76075 0.835677 0
M  V30 1886 H 184.461 -3.1181 0.134577 0
M  V30 1887 N 184.763 -0.387143 -1.52771 0
M  V30 1888 C 185.71 0.449048 -2.26389 0
M  V30 1889 C 186.68 1.05961 -1.27912 0
M  V30 1890 O 187.865 1.08804 -1.56737 0
M  V30 1891 C 185.005 1.57155 -3.0724 0
M  V30 1892 C 184.118 0.984066 -4.20643 0
M  V30 1893 C 183.253 2.07745 -4.88892 0
M  V30 1894 C 182.292 1.46574 -5.94292 0
M  V30 1895 N 181.429 2.49834 -6.56146 0
M  V30 1896 H 186.269 -0.185205 -2.97424 0
M  V30 1897 H 183.806 -0.103164 -1.46738 0
M  V30 1898 H 185.764 2.23309 -3.52405 0
M  V30 1899 H 184.394 2.17615 -2.38419 0
M  V30 1900 H 183.446 0.212193 -3.79808 0
M  V30 1901 H 184.758 0.497029 -4.96318 0
M  V30 1902 H 183.912 2.81673 -5.3735 0
M  V30 1903 H 182.651 2.59807 -4.12737 0
M  V30 1904 H 181.656 0.711696 -5.45174 0
M  V30 1905 H 182.881 0.953088 -6.72379 0
M  V30 1906 H 180.827 3.0107 -5.82832 0
M  V30 1907 H 180.744 2.05879 -7.27427 0
M  V30 1908 H 182.012 3.23399 -7.09249 0
M  V30 1909 N 186.241 1.57166 -0.116904 0
M  V30 1910 C 187.188 2.15202 0.83408 0
M  V30 1911 C 188.158 1.07644 1.26499 0
M  V30 1912 O 189.343 1.35541 1.34288 0
M  V30 1913 C 186.483 2.75405 2.07957 0
M  V30 1914 C 185.596 3.97264 1.69721 0
M  V30 1915 C 184.731 4.45561 2.89221 0
M  V30 1916 C 183.77 5.59956 2.47215 0
M  V30 1917 N 182.907 6.03006 3.59622 0
M  V30 1918 H 187.747 2.96141 0.332335 0
M  V30 1919 H 185.284 1.46309 0.152349 0
M  V30 1920 H 187.242 3.08439 2.80929 0
M  V30 1921 H 185.872 1.97159 2.55594 0
M  V30 1922 H 184.924 3.70404 0.866316 0
M  V30 1923 H 186.236 4.80226 1.34849 0
M  V30 1924 H 185.39 4.80493 3.7042 0
M  V30 1925 H 184.129 3.61544 3.27318 0
M  V30 1926 H 183.134 5.2463 1.64448 0
M  V30 1927 H 184.359 6.45738 2.10238 0
M  V30 1928 H 182.305 5.21931 3.97396 0
M  V30 1929 H 182.222 6.80819 3.28667 0
M  V30 1930 H 183.49 6.42576 4.41267 0
M  V30 1931 N 187.719 -0.156864 1.56817 0
M  V30 1932 C 188.947 -0.886316 1.86955 0
M  V30 1933 C 189.362 -1.75185 0.703975 0
M  V30 1934 O 188.719 -1.79555 -0.326552 0
M  V30 1935 C 188.77 -1.75117 3.16253 0
M  V30 1936 O 188.491 -0.920537 4.2832 0
M  V30 1937 C 189.992 -2.58905 3.59837 0
M  V30 1938 H 187.212 -0.25678 0.619923 0
M  V30 1939 H 189.756 -0.152615 2.0393 0
M  V30 1940 H 187.911 -2.43805 3.01062 0
M  V30 1941 H 188.325 -1.51337 5.02192 0
M  V30 1942 H 189.799 -3.1518 4.53172 0
M  V30 1943 H 190.276 -3.34472 2.84649 0
M  V30 1944 H 190.882 -1.95526 3.7769 0
M  V30 1945 N 189.197 -1.51736 -0.425897 0
M  V30 1946 C 190.445 -1.64644 -1.17204 0
M  V30 1947 C 190.766 -0.370486 -1.91448 0
M  V30 1948 O 190.036 0.614088 -1.86026 0
M  V30 1949 H 188.616 -0.606819 -0.435638 0
M  V30 1950 H 191.278 -1.88713 -0.487177 0
M  V30 1951 H 190.374 -2.47958 -1.89534 0
M  V30 1952 N 190.675 0.682077 -1.42076 0
M  V30 1953 C 192.086 1.26246 -1.37546 0
M  V30 1954 C 192.437 1.96092 -0.0651481 0
M  V30 1955 O 191.562 1.99587 0.836297 0
M  V30 1956 C 192.157 2.29594 -2.49143 0
M  V30 1957 C 190.716 2.83175 -2.47969 0
M  V30 1958 C 189.863 1.57395 -2.28303 0
M  V30 1959 H 192.814 0.475937 -1.51395 0
M  V30 1960 H 192.835 3.11175 -2.18976 0
M  V30 1961 H 192.347 1.78729 -3.44496 0
M  V30 1962 H 190.448 3.3818 -1.56413 0
M  V30 1963 H 190.561 3.32687 -3.44755 0
M  V30 1964 H 188.925 1.83699 -1.76428 0
M  V30 1965 H 189.708 1.08507 -3.25701 0
M  V30 1966 N 192.153 1.28127 0.917671 0
M  V30 1967 C 193.085 1.07517 2.02417 0
M  V30 1968 C 194.098 0.0281099 1.62776 0
M  V30 1969 O 195.287 0.270748 1.76435 0
M  V30 1970 C 192.387 0.610957 3.33347 0
M  V30 1971 C 191.56 1.73255 4.01624 0
M  V30 1972 C 190.619 1.26238 5.10833 0
M  V30 1973 O 189.645 1.96389 5.34247 0
M  V30 1974 N 190.847 0.123448 5.80369 0
M  V30 1975 H 193.612 2.02806 2.20658 0
M  V30 1976 H 191.173 1.19827 1.08871 0
M  V30 1977 H 193.165 0.280101 4.0373 0
M  V30 1978 H 191.735 -0.24898 3.11607 0
M  V30 1979 H 190.955 2.23319 3.24842 0
M  V30 1980 H 192.243 2.48503 4.43986 0
M  V30 1981 H 191.641 -0.461847 5.63812 0
M  V30 1982 H 190.198 -0.148158 6.51632 0
M  V30 1983 N 193.631 -1.12557 1.10312 0
M  V30 1984 C 194.908 -1.80363 0.756878 0
M  V30 1985 C 195.288 -1.97067 -0.756824 0
M  V30 1986 O 194.636 -1.54601 -1.68259 0
M  V30 1987 C 194.846 -3.14812 1.50647 0
M  V30 1988 C 196.194 -3.90029 1.67817 0
M  V30 1989 O 197.218 -3.24464 1.46974 0
M  V30 1990 O 196.077 -5.07652 2.02365 0
M  V30 1991 H 193.171 -0.780667 0.272926 0
M  V30 1992 H 195.717 -1.19404 1.20586 0
M  V30 1993 H 194.489 -2.97936 2.53672 0
M  V30 1994 H 194.112 -3.83478 1.05026 0
M  V30 1995 N 195.109 -0.891671 -1.2995 0
M  V30 1996 C 196.357 -0.512486 -1.95494 0
M  V30 1997 C 196.678 0.942776 -1.70695 0
M  V30 1998 O 195.948 1.66374 -1.03424 0
M  V30 1999 H 194.528 -0.186533 -0.723336 0
M  V30 2000 H 197.19 -1.13621 -1.58355 0
M  V30 2001 H 196.286 -0.688342 -3.04415 0
M  V30 2002 N 196.587 1.43421 -0.653314 0
M  V30 2003 C 197.497 2.34568 0.0388565 0
M  V30 2004 C 198.513 1.53888 0.81207 0
M  V30 2005 O 199.689 1.86539 0.759294 0
M  V30 2006 C 196.754 3.32167 0.993269 0
M  V30 2007 C 195.815 4.28751 0.216977 0
M  V30 2008 C 195.048 5.21688 1.12593 0
M  V30 2009 O 195.271 5.19052 2.36519 0
M  V30 2010 O 194.205 5.98919 0.598284 0
M  V30 2011 H 198.031 2.95251 -0.711386 0
M  V30 2012 H 195.616 1.43564 -0.413502 0
M  V30 2013 H 197.498 3.92183 1.54176 0
M  V30 2014 H 196.173 2.73987 1.72374 0
M  V30 2015 H 195.08 3.72215 -0.375101 0
M  V30 2016 H 196.413 4.89913 -0.473924 0
M  V30 2017 N 198.065 0.39524 1.52563 0
M  V30 2018 C 199.305 -0.184744 2.03563 0
M  V30 2019 C 199.669 -1.43548 1.27507 0
M  V30 2020 O 200.87 -2.093 1.68662 0
M  V30 2021 C 199.141 -0.440294 3.54678 0
M  V30 2022 S 200.7 -0.989712 4.27493 0
M  V30 2023 H 197.518 -0.0515075 0.709132 0
M  V30 2024 H 200.12 0.544957 1.87751 0
M  V30 2025 H 198.824 0.477005 4.07618 0
M  V30 2026 H 198.355 -1.19825 3.74707 0
M  V30 2027 H 200.37 -2.27155 4.41152 0
M  V30 2028 N 199.544 -1.57102 0.125237 0
M  V30 2029 C 200.96 -1.57915 -0.231322 0
M  V30 2030 C 201.16 -1.13833 -1.66266 0
M  V30 2031 O 200.216 -0.828581 -2.38518 0
M  V30 2032 C 201.529 -3.00699 0.00766489 0
M  V30 2033 C 203.077 -3.12947 -0.0577483 0
M  V30 2034 C 203.552 -4.57742 0.153626 0
M  V30 2035 N 205.043 -4.63092 0.0998073 0
M  V30 2036 C 205.778 -5.72905 0.238174 0
M  V30 2037 N 205.274 -6.91445 0.433057 0
M  V30 2038 N 207.067 -5.6182 0.177308 0
M  V30 2039 H 199.218 -1.84055 1.06007 0
M  V30 2040 H 201.481 -0.850905 0.417929 0
M  V30 2041 H 201.187 -3.3726 0.997431 0
M  V30 2042 H 201.061 -3.70236 -0.721452 0
M  V30 2043 H 203.448 -2.7624 -1.03804 0
M  V30 2044 H 203.529 -2.4594 0.70335 0
M  V30 2045 H 203.173 -4.95149 1.13092 0
M  V30 2046 H 203.103 -5.22848 -0.627534 0
M  V30 2047 H 205.594 -3.77871 -0.047051 0
M  V30 2048 H 205.907 -7.70985 0.529332 0
M  V30 2049 H 204.252 -6.93415 0.469109 0
M  V30 2050 H 207.443 -4.68093 0.0259748 0
M  V30 2051 H 207.616 -6.47357 0.288582 0
M  V30 2052 N 201.022 0.148545 -1.56898 0
M  V30 2053 C 202.247 0.880385 -1.87787 0
M  V30 2054 C 202.672 1.74018 -0.714093 0
M  V30 2055 O 202.03 1.78153 0.336343 0
M  V30 2056 C 202.078 1.71422 -3.17249 0
M  V30 2057 O 201.182 2.8183 -3.01074 0
M  V30 2058 H 200.523 0.245301 -0.617028 0
M  V30 2059 H 203.053 0.139826 -2.04122 0
M  V30 2060 H 203.063 2.10954 -3.49231 0
M  V30 2061 H 201.738 1.08284 -4.01556 0
M  V30 2062 H 200.315 2.45715 -2.80497 0
M  V30 2063 N 202.5 1.5196 0.417844 0
M  V30 2064 C 203.74 1.67262 1.17486 0
M  V30 2065 C 204.104 0.38983 1.88001 0
M  V30 2066 O 205.305 0.418845 2.65517 0
M  V30 2067 C 203.576 2.85526 2.14965 0
M  V30 2068 S 205.135 3.21263 2.98891 0
M  V30 2069 H 201.953 0.589077 0.398132 0
M  V30 2070 H 204.555 1.89927 0.463452 0
M  V30 2071 H 203.259 3.77145 1.61833 0
M  V30 2072 H 202.79 2.65107 2.90657 0
M  V30 2073 H 204.805 2.69208 4.16823 0
M  V30 2074 N 203.978 -0.674533 1.42435 0
M  V30 2075 C 204.928 -1.7807 1.4239 0
M  V30 2076 C 205.912 -1.58169 0.295202 0
M  V30 2077 O 207.104 -1.68643 0.537449 0
M  V30 2078 C 204.233 -3.16532 1.32901 0
M  V30 2079 C 203.319 -3.42055 2.50717 0
M  V30 2080 N 203.71 -3.38162 3.76139 0
M  V30 2081 C 202.008 -3.72692 2.44983 0
M  V30 2082 C 202.709 -3.63177 4.54398 0
M  V30 2083 N 201.685 -3.83954 3.84812 0
M  V30 2084 H 205.487 -1.73454 2.37257 0
M  V30 2085 H 203.001 -0.875381 1.36788 0
M  V30 2086 H 204.998 -3.958 1.30951 0
M  V30 2087 H 203.658 -3.22345 0.390363 0
M  V30 2088 H 204.669 -3.18057 4.0873 0
M  V30 2089 H 201.346 -3.85749 1.59699 0
M  V30 2090 H 202.736 -3.66125 5.63384 0
M  V30 2091 N 205.456 -1.28612 -0.910864 0
M  V30 2092 C 206.404 -1.1265 -2.03501 0
M  V30 2093 C 207.398 -0.0450054 -1.6934 0
M  V30 2094 O 208.604 -0.203988 -1.7884 0
M  V30 2095 H 204.979 -0.347639 -0.666822 0
M  V30 2096 H 206.95 -2.07849 -2.14106 0
M  V30 2097 C 205.699 -0.808143 -3.38178 0
M  V30 2098 H 205.022 -1.63231 -3.6496 0
M  V30 2099 H 206.462 -0.736426 -4.17556 0
M  V30 2100 C 204.921 0.488226 -3.33344 0
M  V30 2101 O 205.451 1.51766 -3.71927 0
M  V30 2102 N 203.657 0.490009 -2.86439 0
M  V30 2103 H 203.204 -0.348161 -2.55236 0
M  V30 2104 H 203.162 1.35741 -2.83587 0
M  V30 2105 N 206.934 1.1197 -1.10907 0
M  V30 2106 C 208.345 1.65114 -0.871446 0
M  V30 2107 C 208.696 1.86885 0.597353 0
M  V30 2108 O 207.821 1.59896 1.45816 0
M  V30 2109 C 208.416 2.99944 -1.5754 0
M  V30 2110 C 206.975 3.50018 -1.38435 0
M  V30 2111 C 206.122 2.24941 -1.62164 0
M  V30 2112 H 209.073 0.956851 -1.2661 0
M  V30 2113 H 209.094 3.66651 -1.01721 0
M  V30 2114 H 208.606 2.84067 -2.64438 0
M  V30 2115 H 206.707 3.71071 -0.337214 0
M  V30 2116 H 206.82 4.29165 -2.12965 0
M  V30 2117 H 205.184 2.3229 -1.04467 0
M  V30 2118 H 205.967 2.11612 -2.70324 0
M  V30 2119 N 208.412 0.89855 1.29475 0
M  V30 2120 C 209.359 0.373819 2.27753 0
M  V30 2121 C 210.329 -0.543444 1.56958 0
M  V30 2122 O 211.514 -0.468934 1.84948 0
M  V30 2123 C 208.654 -0.393648 3.42848 0
M  V30 2124 C 207.767 0.554379 4.28428 0
M  V30 2125 C 206.902 -0.230026 5.30702 0
M  V30 2126 C 205.941 0.712599 6.07938 0
M  V30 2127 N 205.078 -0.0373283 7.0209 0
M  V30 2128 H 209.918 1.21699 2.72017 0
M  V30 2129 H 207.455 0.611456 1.33789 0
M  V30 2130 H 209.413 -0.85466 4.08352 0
M  V30 2131 H 208.043 -1.20128 2.99615 0
M  V30 2132 H 207.095 1.13391 3.63107 0
M  V30 2133 H 208.407 1.27597 4.82204 0
M  V30 2134 H 207.561 -0.752288 6.02018 0
M  V30 2135 H 206.3 -0.984758 4.77654 0
M  V30 2136 H 205.305 1.24637 5.35486 0
M  V30 2137 H 206.53 1.46664 6.63074 0
M  V30 2138 H 204.476 -0.774348 6.51414 0
M  V30 2139 H 204.393 0.624374 7.53417 0
M  V30 2140 H 205.661 -0.539891 7.77628 0
M  V30 2141 N 209.89 -1.43072 0.660911 0
M  V30 2142 C 211.301 -1.84932 0.256348 0
M  V30 2143 C 211.652 -1.55325 -1.19868 0
M  V30 2144 O 210.777 -1.00607 -1.91591 0
M  V30 2145 C 211.372 -3.35684 0.458475 0
M  V30 2146 C 209.931 -3.76245 0.108161 0
M  V30 2147 C 209.078 -2.66749 0.757641 0
M  V30 2148 H 212.029 -1.33116 0.864051 0
M  V30 2149 H 212.05 -3.79365 -0.293683 0
M  V30 2150 H 211.562 -3.572 1.51755 0
M  V30 2151 H 209.663 -3.60338 -0.948014 0
M  V30 2152 H 209.776 -4.76058 0.538992 0
M  V30 2153 H 208.14 -2.53989 0.190185 0
M  V30 2154 H 208.923 -2.91092 1.81989 0
M  V30 2155 N 211.368 -0.403325 -1.52352 0
M  V30 2156 C 212.593 0.176499 -2.06648 0
M  V30 2157 C 213.018 1.38577 -1.27193 0
M  V30 2158 O 212.376 1.7879 -0.300637 0
M  V30 2159 C 212.424 0.511061 -3.5696 0
M  V30 2160 O 211.528 1.60294 -3.79973 0
M  V30 2161 H 210.869 0.0167337 -0.663789 0
M  V30 2162 H 213.399 -0.574848 -1.96359 0
M  V30 2163 H 213.409 0.771362 -4.00642 0
M  V30 2164 H 212.084 -0.37296 -4.14224 0
M  V30 2165 H 210.661 1.33526 -3.48174 0
M  V30 2166 N 212.846 1.57033 -0.133567 0
M  V30 2167 C 213.809 2.14897 0.796995 0
M  V30 2168 C 214.809 1.0874 1.18458 0
M  V30 2169 O 215.999 1.34446 1.1077 0
M  V30 2170 C 213.131 2.70112 2.07973 0
M  V30 2171 H 214.324 2.98457 0.293873 0
M  V30 2172 H 211.877 1.55871 0.115787 0
M  V30 2173 H 212.612 1.9018 2.62682 0
M  V30 2174 H 212.397 3.47764 1.81115 0
M  V30 2175 H 213.887 3.14738 2.74462 0
M  V30 2176 N 214.325 -0.140222 1.56975 0
M  V30 2177 C 215.288 -1.15689 1.97861 0
M  V30 2178 C 216.288 -1.3549 0.865974 0
M  V30 2179 O 217.478 -1.32367 1.13246 0
M  V30 2180 C 214.61 -2.51582 2.30042 0
M  V30 2181 H 215.803 -0.805971 2.88867 0
M  V30 2182 H 213.356 -0.383801 1.51515 0
M  V30 2183 H 214.091 -2.91632 1.41849 0
M  V30 2184 H 213.876 -2.38569 3.11171 0
M  V30 2185 H 215.366 -3.24792 2.62488 0
M  V30 2186 N 215.803 -1.52179 -0.40978 0
M  V30 2187 C 217.028 -1.70347 -1.18308 0
M  V30 2188 C 217.453 -0.411887 -1.83535 0
M  V30 2189 O 216.811 0.630587 -1.6998 0
M  V30 2190 C 216.859 -2.83977 -2.22238 0
M  V30 2191 O 215.963 -2.495 -3.28365 0
M  V30 2192 H 215.304 -0.567103 -0.345384 0
M  V30 2193 H 217.834 -1.98879 -0.480445 0
M  V30 2194 H 217.844 -3.0887 -2.66577 0
M  V30 2195 H 216.519 -3.77685 -1.74146 0
M  V30 2196 H 215.096 -2.35277 -2.89308 0
M  V30 2197 N 217.281 0.66697 -1.42791 0
M  V30 2198 C 218.506 1.46004 -1.47301 0
M  V30 2199 C 218.931 1.87894 -0.0880317 0
M  V30 2200 O 218.289 1.56502 0.915253 0
M  V30 2201 C 218.337 2.68031 -2.41229 0
M  V30 2202 O 217.441 3.6659 -1.88906 0
M  V30 2203 H 216.782 0.43832 -0.49877 0
M  V30 2204 H 219.312 0.817391 -1.87563 0
M  V30 2205 H 219.322 3.1601 -2.58073 0
M  V30 2206 H 217.997 2.36883 -3.41847 0
M  V30 2207 H 216.574 3.25661 -1.81656 0
M  V30 2208 N 218.759 1.29093 0.90403 0
M  V30 2209 C 220.005 1.17996 1.65676 0
M  V30 2210 C 220.36 -0.266816 1.90541 0
M  V30 2211 O 219.653 -1.19 1.50165 0
M  V30 2212 C 219.847 1.92224 3.01305 0
M  V30 2213 C 219.676 3.43972 2.89678 0
M  V30 2214 C 218.446 4.1332 2.90679 0
M  V30 2215 C 220.644 4.39546 2.67028 0
M  V30 2216 N 218.626 5.51463 2.69743 0
M  V30 2217 C 219.997 5.65119 2.5503 0
M  V30 2218 C 222.052 4.29359 2.52101 0
M  V30 2219 C 220.755 6.81663 2.29626 0
M  V30 2220 C 222.781 5.4565 2.28079 0
M  V30 2221 C 222.143 6.70193 2.16843 0
M  V30 2222 H 218.242 0.486759 0.612037 0
M  V30 2223 H 220.826 1.62868 1.06688 0
M  V30 2224 H 218.997 1.49773 3.58361 0
M  V30 2225 H 220.729 1.73429 3.65656 0
M  V30 2226 H 217.484 3.64984 3.01801 0
M  V30 2227 H 217.908 6.24105 2.6234 0
M  V30 2228 H 222.55 3.33769 2.59534 0
M  V30 2229 H 220.268 7.77313 2.20932 0
M  V30 2230 H 223.854 5.39664 2.1738 0
M  V30 2231 H 222.734 7.58659 1.98511 0
M  V30 2232 N 220.237 -1.11381 1.11499 0
M  V30 2233 C 221.184 -2.17439 0.773887 0
M  V30 2234 C 222.154 -1.64132 -0.254899 0
M  V30 2235 O 223.339 -1.90345 -0.13168 0
M  V30 2236 C 220.479 -3.44373 0.223917 0
M  V30 2237 C 219.592 -4.1168 1.30934 0
M  V30 2238 C 218.727 -5.263 0.71984 0
M  V30 2239 C 217.766 -5.85493 1.78507 0
M  V30 2240 N 216.903 -6.91507 1.21502 0
M  V30 2241 H 221.743 -2.45962 1.68246 0
M  V30 2242 H 219.28 -1.20744 0.840191 0
M  V30 2243 H 221.238 -4.17047 -0.112921 0
M  V30 2244 H 219.868 -3.16232 -0.647851 0
M  V30 2245 H 218.92 -3.37073 1.76312 0
M  V30 2246 H 220.232 -4.51729 2.11524 0
M  V30 2247 H 219.386 -6.05785 0.333094 0
M  V30 2248 H 218.125 -4.87559 -0.117377 0
M  V30 2249 H 217.13 -5.04686 2.18111 0
M  V30 2250 H 218.355 -6.26301 2.62533 0
M  V30 2251 H 216.301 -6.54783 0.399455 0
M  V30 2252 H 216.218 -7.30214 1.95763 0
M  V30 2253 H 217.486 -7.74795 0.855181 0
M  V30 2254 N 221.715 -0.905404 -1.28997 0
M  V30 2255 C 222.625 -0.392246 -2.31298 0
M  V30 2256 C 223.641 0.515889 -1.66176 0
M  V30 2257 O 224.817 0.404093 -1.97304 0
M  V30 2258 C 221.882 0.36686 -3.44754 0
M  V30 2259 C 220.943 -0.573485 -4.25452 0
M  V30 2260 C 220.176 0.149488 -5.33491 0
M  V30 2261 O 220.399 1.37255 -5.5364 0
M  V30 2262 O 219.333 -0.510919 -5.99728 0
M  V30 2263 H 223.159 -1.2411 -2.77183 0
M  V30 2264 H 220.744 -0.669926 -1.33538 0
M  V30 2265 H 222.626 0.795907 -4.13816 0
M  V30 2266 H 221.301 1.19169 -3.00966 0
M  V30 2267 H 220.208 -1.05176 -3.59011 0
M  V30 2268 H 221.541 -1.36489 -4.72897 0
M  V30 2269 N 223.193 1.4272 -0.668489 0
M  V30 2270 C 224.442 2.00846 -0.185389 0
M  V30 2271 C 224.755 1.53442 1.21305 0
M  V30 2272 O 225.961 2.03944 1.79218 0
M  V30 2273 C 224.417 3.58805 -0.280591 0
M  V30 2274 C 224.025 4.15198 -1.68268 0
M  V30 2275 C 225.769 4.24255 0.14412 0
M  V30 2276 C 223.676 5.655 -1.73099 0
M  V30 2277 H 222.606 0.751145 -0.0655475 0
M  V30 2278 H 225.257 1.63516 -0.832752 0
M  V30 2279 H 223.639 3.93608 0.434553 0
M  V30 2280 H 224.813 3.91866 -2.42441 0
M  V30 2281 H 223.128 3.62176 -2.05469 0
M  V30 2282 H 225.725 5.34547 0.128086 0
M  V30 2283 H 226.068 3.99277 1.17827 0
M  V30 2284 H 226.601 3.94389 -0.519798 0
M  V30 2285 H 223.34 5.95268 -2.74475 0
M  V30 2286 H 222.86 5.90842 -1.03274 0
M  V30 2287 H 224.539 6.29808 -1.48158 0
M  V30 2288 N 224.671 0.411399 1.52136 0
M  V30 2289 C 225.919 -0.163322 2.01439 0
M  V30 2290 C 226.24 -1.45453 1.29879 0
M  V30 2291 O 225.51 -1.91225 0.4254 0
M  V30 2292 H 224.09 -0.0633447 0.744309 0
M  V30 2293 H 226.752 0.548161 1.87033 0
M  V30 2294 H 225.848 -0.357817 3.10042 0
M  V30 2295 N 226.149 -1.5696 0.141893 0
M  V30 2296 C 227.396 -1.9596 -0.510492 0
M  V30 2297 C 227.724 -1.02648 -1.65208 0
M  V30 2298 O 226.979 -0.0546947 -1.95624 0
M  V30 2299 C 227.278 -3.41242 -1.06249 0
M  V30 2300 C 226.944 -4.50882 -0.0398791 0
M  V30 2301 C 225.606 -4.80595 0.241247 0
M  V30 2302 C 227.958 -5.17058 0.65578 0
M  V30 2303 C 225.286 -5.73792 1.22393 0
M  V30 2304 C 227.638 -6.11313 1.62724 0
M  V30 2305 C 226.302 -6.39407 1.91612 0
M  V30 2306 H 225.572 -0.717068 -0.186802 0
M  V30 2307 H 228.219 -1.90142 0.227643 0
M  V30 2308 H 226.524 -3.43866 -1.87785 0
M  V30 2309 H 228.221 -3.68742 -1.57576 0
M  V30 2310 H 224.811 -4.27754 -0.269174 0
M  V30 2311 H 228.995 -4.94239 0.451779 0
M  V30 2312 H 224.251 -5.93853 1.45424 0
M  V30 2313 H 228.425 -6.61668 2.17183 0
M  V30 2314 H 226.052 -7.11427 2.6791 0
M  V30 2315 N 227.627 0.131896 -1.57047 0
M  V30 2316 C 228.904 0.871495 -1.75112 0
M  V30 2317 C 229.284 1.9866 -0.713949 0
M  V30 2318 O 228.632 2.26965 0.264447 0
M  V30 2319 C 228.842 1.40007 -3.19686 0
M  V30 2320 C 230.19 1.85752 -3.81813 0
M  V30 2321 O 231.214 1.49715 -3.23209 0
M  V30 2322 O 230.073 2.5226 -4.84796 0
M  V30 2323 H 227.167 0.412919 -0.716538 0
M  V30 2324 H 229.713 0.116641 -1.69299 0
M  V30 2325 H 228.485 0.599404 -3.86682 0
M  V30 2326 H 228.108 2.218 -3.29986 0
M  V30 2327 N 229.106 1.52395 0.401703 0
M  V30 2328 C 230.053 1.76268 1.48991 0
M  V30 2329 C 231.023 0.605386 1.54675 0
M  V30 2330 O 232.208 0.843742 1.7113 0
M  V30 2331 C 229.348 1.92592 2.86361 0
M  V30 2332 C 228.461 3.20259 2.89928 0
M  V30 2333 C 227.596 3.26972 4.18644 0
M  V30 2334 C 226.635 4.48812 4.16214 0
M  V30 2335 N 225.772 4.52877 5.36514 0
M  V30 2336 H 230.612 2.6914 1.27935 0
M  V30 2337 H 228.149 1.33355 0.620871 0
M  V30 2338 H 230.107 2.0004 3.66115 0
M  V30 2339 H 228.737 1.03093 3.05895 0
M  V30 2340 H 227.789 3.21945 2.02621 0
M  V30 2341 H 229.101 4.10056 2.83999 0
M  V30 2342 H 228.255 3.33533 5.06794 0
M  V30 2343 H 226.994 2.35126 4.27278 0
M  V30 2344 H 225.999 4.4239 3.26453 0
M  V30 2345 H 227.224 5.41961 4.09213 0
M  V30 2346 H 225.17 3.63917 5.45802 0
M  V30 2347 H 225.087 5.36529 5.32609 0
M  V30 2348 H 226.355 4.63676 6.26597 0
M  V30 2349 N 230.584 -0.659388 1.43143 0
M  V30 2350 C 231.809 -1.45221 1.48073 0
M  V30 2351 C 232.234 -1.87845 0.097995 0
M  V30 2352 O 231.592 -1.56985 -0.90694 0
M  V30 2353 C 231.64 -2.66748 2.42647 0
M  V30 2354 O 230.744 -3.65583 1.90848 0
M  V30 2355 H 230.085 -0.435669 0.501088 0
M  V30 2356 H 232.615 -0.807432 1.87994 0
M  V30 2357 H 232.625 -3.14637 2.59745 0
M  V30 2358 H 231.3 -2.35067 3.43098 0
M  V30 2359 H 229.877 -3.24693 1.83381 0
M  V30 2360 N 232.062 -1.29571 -0.897171 0
M  V30 2361 C 232.992 -1.17473 -2.01798 0
M  V30 2362 C 233.973 -0.068323 -1.69963 0
M  V30 2363 O 235.158 -0.248239 -1.92607 0
M  V30 2364 C 232.288 -0.853099 -3.36659 0
M  V30 2365 C 231.242 -1.9161 -3.82713 0
M  V30 2366 C 230.568 -1.44773 -5.14728 0
M  V30 2367 C 231.868 -3.32535 -4.02763 0
M  V30 2368 H 233.562 -2.11237 -2.12177 0
M  V30 2369 H 231.108 -1.01699 -1.01948 0
M  V30 2370 H 233.061 -0.755165 -4.14578 0
M  V30 2371 H 231.785 0.120236 -3.26379 0
M  V30 2372 H 230.444 -2.00346 -3.07013 0
M  V30 2373 H 230.092 -0.462995 -5.00865 0
M  V30 2374 H 229.792 -2.15865 -5.46513 0
M  V30 2375 H 231.316 -1.36334 -5.95185 0
M  V30 2376 H 232.73 -3.26626 -4.71156 0
M  V30 2377 H 231.127 -4.01607 -4.45905 0
M  V30 2378 H 232.197 -3.75326 -3.07016 0
M  V30 2379 N 233.54 1.10788 -1.12088 0
M  V30 2380 C 234.49 2.15158 -0.754401 0
M  V30 2381 C 235.474 1.59026 0.244846 0
M  V30 2382 O 236.666 1.76927 0.0509097 0
M  V30 2383 C 233.795 3.42677 -0.206657 0
M  V30 2384 C 232.881 4.05751 -1.23398 0
M  V30 2385 N 233.272 4.43582 -2.43041 0
M  V30 2386 C 231.57 4.32764 -1.07848 0
M  V30 2387 C 232.271 4.93085 -3.08613 0
M  V30 2388 N 231.247 4.89664 -2.36072 0
M  V30 2389 H 235.049 2.42195 -1.6649 0
M  V30 2390 H 232.563 1.27872 -1.00112 0
M  V30 2391 H 234.56 4.16834 0.0740646 0
M  V30 2392 H 233.22 3.17101 0.698342 0
M  V30 2393 H 234.231 4.35395 -2.80449 0
M  V30 2394 H 230.908 4.16863 -0.230483 0
M  V30 2395 H 232.298 5.31933 -4.10483 0
M  V30 2396 N 235.018 0.912232 1.28515 0
M  V30 2397 C 236.248 0.559604 1.98877 0
M  V30 2398 C 236.656 -0.863113 1.68366 0
M  V30 2399 O 235.999 -1.58304 0.931969 0
M  V30 2400 C 236.061 0.68703 3.52874 0
M  V30 2401 C 235.725 2.07901 4.06972 0
M  V30 2402 C 236.722 3.05157 4.20922 0
M  V30 2403 C 234.407 2.39178 4.417 0
M  V30 2404 C 236.401 4.31806 4.68852 0
M  V30 2405 C 234.088 3.66068 4.89324 0
M  V30 2406 C 235.086 4.62195 5.02856 0
M  V30 2407 O 234.774 5.86829 5.49442 0
M  V30 2408 H 234.506 0.212191 0.641834 0
M  V30 2409 H 237.06 1.22712 1.64715 0
M  V30 2410 H 235.29 -0.0375486 3.86682 0
M  V30 2411 H 236.979 0.341727 4.04459 0
M  V30 2412 H 237.745 2.82311 3.94367 0
M  V30 2413 H 233.624 1.65109 4.30418 0
M  V30 2414 H 237.168 5.06842 4.79329 0
M  V30 2415 H 233.065 3.88739 5.15318 0
M  V30 2416 H 233.833 5.89597 5.6773 0
M  V30 2417 N 236.496 -1.42363 0.676048 0
M  V30 2418 C 237.912 -1.55811 0.345718 0
M  V30 2419 C 238.112 -1.65544 -1.14879 0
M  V30 2420 O 237.168 -1.62306 -1.93424 0
M  V30 2421 C 238.481 -2.80746 1.07713 0
M  V30 2422 C 240.029 -2.9452 1.05958 0
M  V30 2423 C 240.504 -4.22318 1.77233 0
M  V30 2424 N 241.995 -4.29233 1.74108 0
M  V30 2425 C 242.73 -5.26935 2.26113 0
M  V30 2426 N 242.226 -6.30783 2.86505 0
M  V30 2427 N 244.019 -5.18741 2.1648 0
M  V30 2428 H 236.17 -1.34289 1.6456 0
M  V30 2429 H 238.433 -0.646506 0.69335 0
M  V30 2430 H 238.139 -2.79696 2.13221 0
M  V30 2431 H 238.013 -3.71676 0.64316 0
M  V30 2432 H 240.4 -2.95097 0.0128255 0
M  V30 2433 H 240.481 -2.04817 1.53244 0
M  V30 2434 H 240.125 -4.22502 2.81877 0
M  V30 2435 H 240.055 -5.10958 1.27396 0
M  V30 2436 H 242.546 -3.54814 1.30059 0
M  V30 2437 H 242.859 -7.01691 3.23805 0
M  V30 2438 H 241.204 -6.31341 2.90575 0
M  V30 2439 H 244.395 -4.36533 1.68987 0
M  V30 2440 H 244.568 -5.94721 2.57316 0
M  V30 2441 N 237.974 -0.419461 -1.51915 0
M  V30 2442 C 238.924 0.418496 -2.24126 0
M  V30 2443 C 239.908 1.00495 -1.25656 0
M  V30 2444 O 241.1 0.926058 -1.50842 0
M  V30 2445 C 238.229 1.52899 -3.07371 0
M  V30 2446 C 237.315 0.952797 -4.13258 0
M  V30 2447 N 237.706 0.104175 -5.05693 0
M  V30 2448 C 236.004 1.22224 -4.28926 0
M  V30 2449 C 236.705 -0.21752 -5.81293 0
M  V30 2450 N 235.681 0.394293 -5.42168 0
M  V30 2451 H 239.483 -0.236048 -2.92951 0
M  V30 2452 H 236.997 -0.230481 -1.60756 0
M  V30 2453 H 238.994 2.14199 -3.57665 0
M  V30 2454 H 237.654 2.18605 -2.40088 0
M  V30 2455 H 238.665 -0.260924 -5.17242 0
M  V30 2456 H 235.342 1.87812 -3.72871 0
M  V30 2457 H 236.732 -0.906992 -6.6575 0
M  V30 2458 N 239.452 1.56882 -0.150215 0
M  V30 2459 C 240.698 1.96518 0.500834 0
M  V30 2460 C 241.031 1.03527 1.64304 0
M  V30 2461 O 240.306 0.0782751 1.94342 0
M  V30 2462 C 240.589 3.45822 1.00395 0
M  V30 2463 C 240.442 4.49591 -0.136983 0
M  V30 2464 C 241.761 3.97704 1.88467 0
M  V30 2465 H 238.88 0.714535 0.18058 0
M  V30 2466 H 241.522 1.88577 -0.232091 0
M  V30 2467 H 239.672 3.5272 1.62851 0
M  V30 2468 H 241.344 4.5477 -0.77343 0
M  V30 2469 H 239.587 4.26441 -0.795652 0
M  V30 2470 H 240.258 5.51402 0.256815 0
M  V30 2471 H 242.734 3.93304 1.35834 0
M  V30 2472 H 241.61 5.0263 2.20578 0
M  V30 2473 H 241.871 3.40252 2.82279 0
M  V30 2474 N 240.93 -0.123565 1.57115 0
M  V30 2475 C 241.893 -1.13583 1.99076 0
M  V30 2476 C 242.893 -1.34564 0.880296 0
M  V30 2477 O 244.083 -1.31158 1.14644 0
M  V30 2478 C 241.215 -2.49128 2.32698 0
M  V30 2479 H 242.408 -0.775287 2.89706 0
M  V30 2480 H 239.961 -0.36771 1.51913 0
M  V30 2481 H 240.696 -2.90111 1.44934 0
M  V30 2482 H 240.481 -2.35255 3.13684 0
M  V30 2483 H 241.971 -3.2199 2.65918 0
M  V30 2484 N 242.408 -1.52605 -0.393616 0
M  V30 2485 C 243.633 -1.71592 -1.16495 0
M  V30 2486 C 244.058 -0.43133 -1.83088 0
M  V30 2487 O 243.416 0.612523 -1.7064 0
M  V30 2488 C 243.464 -2.86318 -2.19213 0
M  V30 2489 O 242.568 -2.52969 -3.257 0
M  V30 2490 H 241.909 -0.570734 -0.33935 0
M  V30 2491 H 244.439 -1.99377 -0.459324 0
M  V30 2492 H 244.449 -3.1168 -2.63286 0
M  V30 2493 H 243.124 -3.79511 -1.7013 0
M  V30 2494 H 241.701 -2.38332 -2.86797 0
M  V30 2495 N 243.887 0.651787 -1.4349 0
M  V30 2496 C 244.834 1.76462 -1.4876 0
M  V30 2497 C 245.804 1.62641 -0.337189 0
M  V30 2498 O 246.989 1.82864 -0.544544 0
M  V30 2499 C 244.129 3.14623 -1.41796 0
M  V30 2500 C 243.242 3.39568 -2.67053 0
M  V30 2501 C 242.377 4.67585 -2.52068 0
M  V30 2502 C 241.416 4.85639 -3.72587 0
M  V30 2503 N 240.553 6.04915 -3.56402 0
M  V30 2504 H 245.393 1.71293 -2.43849 0
M  V30 2505 H 242.93 0.835889 -1.21043 0
M  V30 2506 H 244.888 3.94496 -1.35753 0
M  V30 2507 H 243.518 3.18859 -0.50288 0
M  V30 2508 H 242.57 2.53783 -2.8337 0
M  V30 2509 H 243.882 3.48795 -3.56572 0
M  V30 2510 H 243.036 5.55586 -2.4374 0
M  V30 2511 H 241.775 4.60681 -1.60075 0
M  V30 2512 H 240.78 3.96073 -3.81321 0
M  V30 2513 H 242.005 4.94372 -4.65589 0
M  V30 2514 H 239.951 5.9914 -2.67146 0
M  V30 2515 H 239.868 6.15106 -4.39524 0
M  V30 2516 H 241.136 6.95533 -3.51929 0
M  V30 2517 N 245.365 1.30045 0.890287 0
M  V30 2518 C 246.328 1.15963 1.977 0
M  V30 2519 C 247.328 0.0923777 1.60534 0
M  V30 2520 O 248.518 0.340071 1.70848 0
M  V30 2521 C 245.65 0.775451 3.31963 0
M  V30 2522 H 246.843 2.12502 2.11619 0
M  V30 2523 H 244.396 1.13366 1.07601 0
M  V30 2524 H 245.131 -0.189671 3.23745 0
M  V30 2525 H 244.916 1.54668 3.60306 0
M  V30 2526 H 246.406 0.700251 4.11687 0
M  V30 2527 N 246.843 -1.10192 1.12674 0
M  V30 2528 C 248.092 -1.81573 0.8783 0
M  V30 2529 C 248.405 -1.86249 -0.597557 0
M  V30 2530 O 249.611 -2.5386 -0.962681 0
M  V30 2531 C 248.067 -3.26149 1.52167 0
M  V30 2532 C 247.675 -3.29763 3.03249 0
M  V30 2533 C 249.419 -4.0234 1.3536 0
M  V30 2534 C 247.326 -4.68815 3.60508 0
M  V30 2535 H 246.256 -0.680394 0.324931 0
M  V30 2536 H 248.907 -1.23902 1.35353 0
M  V30 2537 H 247.289 -3.83832 0.974104 0
M  V30 2538 H 248.463 -2.8189 3.6452 0
M  V30 2539 H 246.778 -2.67059 3.19481 0
M  V30 2540 H 249.375 -5.05058 1.75559 0
M  V30 2541 H 249.718 -4.15235 0.297554 0
M  V30 2542 H 250.251 -3.51079 1.87052 0
M  V30 2543 H 246.99 -4.61121 4.65884 0
M  V30 2544 H 246.51 -5.17045 3.04014 0
M  V30 2545 H 248.189 -5.37785 3.59717 0
M  V30 2546 N 248.321 -0.919034 -1.28029 0
M  V30 2547 C 249.268 -0.410005 -2.27129 0
M  V30 2548 C 250.238 0.518405 -1.57803 0
M  V30 2549 O 251.423 0.439451 -1.8567 0
M  V30 2550 C 248.563 0.339054 -3.4343 0
M  V30 2551 C 247.676 -0.622468 -4.27492 0
M  V30 2552 C 246.811 0.145567 -5.31001 0
M  V30 2553 C 245.85 -0.809226 -6.06727 0
M  V30 2554 N 244.987 -0.0743728 -7.02061 0
M  V30 2555 H 249.827 -1.26011 -2.70047 0
M  V30 2556 H 247.364 -0.632663 -1.328 0
M  V30 2557 H 249.322 0.789586 -4.0966 0
M  V30 2558 H 247.952 1.15346 -3.01488 0
M  V30 2559 H 247.004 -1.19153 -3.61257 0
M  V30 2560 H 248.316 -1.35252 -4.80113 0
M  V30 2561 H 247.47 0.656417 -6.03139 0
M  V30 2562 H 246.209 0.908643 -4.79161 0
M  V30 2563 H 245.214 -1.3314 -5.33436 0
M  V30 2564 H 246.439 -1.57194 -6.60656 0
M  V30 2565 H 244.385 0.670616 -6.52563 0
M  V30 2566 H 244.302 -0.744157 -7.52329 0
M  V30 2567 H 245.57 0.416109 -7.78389 0
M  V30 2568 N 249.799 1.42003 -0.683588 0
M  V30 2569 C 251.21 1.84501 -0.285736 0
M  V30 2570 C 251.561 1.57213 1.17382 0
M  V30 2571 O 250.686 1.03642 1.89966 0
M  V30 2572 C 251.281 3.34912 -0.511821 0
M  V30 2573 C 249.84 3.76025 -0.168005 0
M  V30 2574 C 248.987 2.6551 -0.799983 0
M  V30 2575 H 251.938 1.31724 -0.885119 0
M  V30 2576 H 251.959 3.79784 0.233292 0
M  V30 2577 H 251.471 3.54741 -1.57418 0
M  V30 2578 H 249.572 3.61801 0.890567 0
M  V30 2579 H 249.685 4.75141 -0.614661 0
M  V30 2580 H 248.049 2.53654 -0.230568 0
M  V30 2581 H 248.832 2.8816 -1.86597 0
M  V30 2582 N 251.277 0.427512 1.51691 0
M  V30 2583 C 252.523 -0.142439 2.02299 0
M  V30 2584 C 252.856 -1.43214 1.31162 0
M  V30 2585 O 252.131 -1.89833 0.423511 0
M  V30 2586 C 252.414 -0.371301 3.58181 0
M  V30 2587 C 252.267 0.936358 4.39946 0
M  V30 2588 C 253.586 -1.14542 4.24933 0
M  V30 2589 H 250.705 -0.0502937 0.735282 0
M  V30 2590 H 253.347 0.564584 1.81418 0
M  V30 2591 H 251.497 -0.973559 3.76104 0
M  V30 2592 H 253.169 1.57184 4.33694 0
M  V30 2593 H 251.412 1.5432 4.05423 0
M  V30 2594 H 252.083 0.730388 5.47147 0
M  V30 2595 H 254.559 -0.635362 4.11221 0
M  V30 2596 H 253.435 -1.27431 5.33903 0
M  V30 2597 H 253.696 -2.17093 3.85127 0
M  V30 2598 N 252.755 -1.56801 0.158532 0
M  V30 2599 C 254.003 -1.96102 -0.488712 0
M  V30 2600 C 254.324 -1.04498 -1.64636 0
M  V30 2601 O 253.594 -0.108783 -1.95598 0
M  V30 2602 H 252.174 -0.724102 -0.183535 0
M  V30 2603 H 254.836 -1.93457 0.236728 0
M  V30 2604 H 253.932 -3.00097 -0.857219 0
M  V30 2605 N 254.233 0.115231 -1.57178 0
M  V30 2606 C 255.51 0.852873 -1.76027 0
M  V30 2607 C 255.89 1.97892 -0.73498 0
M  V30 2608 O 255.238 2.27232 0.24036 0
M  V30 2609 C 255.448 1.36608 -3.21153 0
M  V30 2610 C 256.796 1.81692 -3.83762 0
M  V30 2611 O 257.82 1.46278 -3.24779 0
M  V30 2612 O 256.679 2.47104 -4.87444 0
M  V30 2613 H 253.773 0.405296 -0.720877 0
M  V30 2614 H 256.319 0.0986785 -1.69413 0
M  V30 2615 H 255.091 0.558357 -3.87296 0
M  V30 2616 H 254.714 2.18287 -3.3232 0
M  V30 2617 N 255.711 1.52812 0.385517 0
M  V30 2618 C 257.122 1.5993 0.963293 0
M  V30 2619 C 257.473 0.454302 1.90868 0
M  V30 2620 O 256.598 -0.422132 2.12243 0
M  V30 2621 C 257.193 2.89871 1.75387 0
M  V30 2622 C 255.752 2.99389 2.28129 0
M  V30 2623 C 254.899 2.55071 1.08783 0
M  V30 2624 H 257.85 1.5784 0.164948 0
M  V30 2625 H 257.871 2.76553 2.61341 0
M  V30 2626 H 257.383 3.73186 1.06554 0
M  V30 2627 H 255.484 2.20619 3.00263 0
M  V30 2628 H 255.597 4.04096 2.57377 0
M  V30 2629 H 253.961 2.09473 1.4489 0
M  V30 2630 H 254.744 3.40785 0.414807 0
M  V30 2631 N 257.189 -0.644168 1.43834 0
M  V30 2632 C 258.121 -1.76955 1.45669 0
M  V30 2633 C 259.134 -1.58956 0.351666 0
M  V30 2634 O 260.323 -1.6751 0.616644 0
M  V30 2635 C 257.423 -3.14507 1.26248 0
M  V30 2636 C 256.596 -3.59083 2.49757 0
M  V30 2637 C 255.655 -4.75467 2.25427 0
M  V30 2638 O 254.681 -4.84444 2.98836 0
M  V30 2639 N 255.883 -5.66289 1.27661 0
M  V30 2640 H 258.648 -1.75856 2.42682 0
M  V30 2641 H 256.209 -0.828312 1.39106 0
M  V30 2642 H 258.201 -3.90067 1.0784 0
M  V30 2643 H 256.771 -3.10325 0.376478 0
M  V30 2644 H 255.991 -2.7387 2.8353 0
M  V30 2645 H 257.279 -3.85613 3.31934 0
M  V30 2646 H 256.677 -5.61718 0.670064 0
M  V30 2647 H 255.234 -6.41533 1.15234 0
M  V30 2648 N 258.668 -1.30515 -0.883378 0
M  V30 2649 C 259.615 -1.17032 -1.98927 0
M  V30 2650 C 260.585 -0.0594241 -1.65994 0
M  V30 2651 O 261.77 -0.229895 -1.8941 0
M  V30 2652 C 258.91 -0.869777 -3.33959 0
M  V30 2653 C 258.023 -2.06271 -3.79574 0
M  V30 2654 C 257.158 -1.70011 -5.03259 0
M  V30 2655 C 256.197 -2.8579 -5.41286 0
M  V30 2656 N 255.334 -2.49816 -6.56153 0
M  V30 2657 H 260.174 -2.1164 -2.09792 0
M  V30 2658 H 257.711 -1.05296 -1.02719 0
M  V30 2659 H 259.669 -0.676138 -4.11685 0
M  V30 2660 H 258.299 0.0394332 -3.22776 0
M  V30 2661 H 257.351 -2.36755 -2.97744 0
M  V30 2662 H 258.663 -2.92971 -4.03694 0
M  V30 2663 H 257.817 -1.47032 -5.88614 0
M  V30 2664 H 256.556 -0.804829 -4.81013 0
M  V30 2665 H 255.561 -3.09434 -4.54456 0
M  V30 2666 H 256.786 -3.76008 -5.65504 0
M  V30 2667 H 254.732 -1.62795 -6.35479 0
M  V30 2668 H 254.649 -3.30048 -6.8015 0
M  V30 2669 H 255.917 -2.30197 -7.44735 0
M  V30 2670 N 260.146 1.09593 -1.13257 0
M  V30 2671 C 261.094 2.18271 -0.803783 0
M  V30 2672 C 262.088 1.68054 0.213148 0
M  V30 2673 O 263.294 1.79862 0.0704699 0
M  V30 2674 H 259.669 0.711949 -0.242143 0
M  V30 2675 H 261.64 2.43235 -1.72856 0
M  V30 2676 C 260.389 3.46536 -0.28424 0
M  V30 2677 H 259.712 3.85545 -1.05807 0
M  V30 2678 H 261.152 4.23899 -0.0925945 0
M  V30 2679 C 259.611 3.22036 0.989684 0
M  V30 2680 O 260.141 3.44509 2.06584 0
M  V30 2681 N 258.347 2.7565 0.920086 0
M  V30 2682 H 257.894 2.57562 0.0442019 0
M  V30 2683 H 257.852 2.59635 1.77306 0
M  V30 2684 N 261.624 0.925811 1.2754 0
M  V30 2685 C 262.864 0.572521 1.96218 0
M  V30 2686 C 263.228 -0.869719 1.71172 0
M  V30 2687 O 264.429 -1.33119 2.33523 0
M  V30 2688 C 262.7 0.887325 3.4621 0
M  V30 2689 S 264.259 0.642266 4.34074 0
M  V30 2690 H 261.077 0.211403 0.678845 0
M  V30 2691 H 263.679 1.19384 1.54815 0
M  V30 2692 H 262.383 1.93469 3.61936 0
M  V30 2693 H 261.914 0.255123 3.92572 0
M  V30 2694 H 263.929 -0.500822 4.93666 0
M  V30 2695 N 263.102 -1.41638 0.69111 0
M  V30 2696 C 264.35 -2.00902 0.219758 0
M  V30 2697 C 264.671 -1.54994 -1.18329 0
M  V30 2698 O 263.941 -0.778628 -1.79762 0
M  V30 2699 H 262.521 -0.74289 0.0782558 0
M  V30 2700 H 265.183 -1.73327 0.891271 0
M  V30 2701 H 264.279 -3.11224 0.233708 0
M  V30 2702 N 264.58 -0.43555 -1.51462 0
M  V30 2703 C 265.543 0.365137 -2.26273 0
M  V30 2704 C 266.543 0.951227 -1.29647 0
M  V30 2705 O 267.733 0.825958 -1.53374 0
M  V30 2706 C 264.865 1.51645 -3.05314 0
M  V30 2707 H 266.058 -0.290474 -2.9849 0
M  V30 2708 H 263.611 -0.188676 -1.55157 0
M  V30 2709 H 264.346 2.20816 -2.3751 0
M  V30 2710 H 264.131 1.10238 -3.76284 0
M  V30 2711 H 265.621 2.08218 -3.61987 0
M  V30 2712 N 266.058 1.56714 -0.166846 0
M  V30 2713 C 267.298 1.98641 0.481763 0
M  V30 2714 C 267.662 1.05038 1.6072 0
M  V30 2715 O 268.863 1.36087 2.31805 0
M  V30 2716 C 267.134 3.44362 0.956517 0
M  V30 2717 S 268.693 4.08317 1.60694 0
M  V30 2718 H 265.511 0.693873 0.155116 0
M  V30 2719 H 268.113 1.93719 -0.263251 0
M  V30 2720 H 266.817 4.10204 0.126936 0
M  V30 2721 H 266.348 3.53041 1.73568 0
M  V30 2722 H 268.363 4.02999 2.89494 0
M  V30 2723 N 267.536 -0.106894 1.57237 0
M  V30 2724 C 268.486 -1.1366 1.9765 0
M  V30 2725 C 269.47 -1.36416 0.853203 0
M  V30 2726 O 270.662 -1.37305 1.11697 0
M  V30 2727 C 267.791 -2.46 2.39455 0
M  V30 2728 C 266.877 -2.26668 3.58445 0
M  V30 2729 N 267.268 -1.77176 4.73754 0
M  V30 2730 C 265.566 -2.57279 3.64312 0
M  V30 2731 C 266.267 -1.71836 5.5574 0
M  V30 2732 N 265.243 -2.16623 4.98573 0
M  V30 2733 H 269.045 -0.74669 2.84256 0
M  V30 2734 H 266.559 -0.314483 1.59326 0
M  V30 2735 H 268.556 -3.2049 2.6663 0
M  V30 2736 H 267.216 -2.85738 1.54219 0
M  V30 2737 H 268.227 -1.46545 4.96734 0
M  V30 2738 H 264.904 -3.00622 2.89711 0
M  V30 2739 H 266.294 -1.34723 6.58255 0
M  V30 2740 N 269.014 -1.53014 -0.377408 0
M  V30 2741 C 269.964 -1.74996 -1.46152 0
M  V30 2742 C 270.948 -0.604236 -1.49123 0
M  V30 2743 O 272.14 -0.862489 -1.54564 0
M  V30 2744 C 269.269 -1.93267 -2.8373 0
M  V30 2745 C 268.355 -3.13807 -2.85283 0
M  V30 2746 N 268.746 -4.35941 -2.56493 0
M  V30 2747 C 267.044 -3.14288 -3.16448 0
M  V30 2748 C 267.745 -5.17615 -2.65424 0
M  V30 2749 N 266.721 -4.53559 -2.99641 0
M  V30 2750 H 270.523 -2.67044 -1.22738 0
M  V30 2751 H 268.037 -1.51479 -0.585479 0
M  V30 2752 H 270.034 -2.0714 -3.61799 0
M  V30 2753 H 268.694 -1.0244 -3.08117 0
M  V30 2754 H 269.705 -4.63876 -2.30302 0
M  V30 2755 H 266.382 -2.33312 -3.46225 0
M  V30 2756 H 267.772 -6.25006 -2.46612 0
M  V30 2757 N 270.492 0.636531 -1.44174 0
M  V30 2758 C 271.738 1.39826 -1.4689 0
M  V30 2759 C 272.071 1.93947 -0.0990585 0
M  V30 2760 O 271.346 1.73325 0.882544 0
M  V30 2761 C 271.629 2.56751 -2.5249 0
M  V30 2762 C 271.482 2.08014 -3.98811 0
M  V30 2763 C 272.801 3.58946 -2.54649 0
M  V30 2764 H 269.92 0.507075 -0.53483 0
M  V30 2765 H 272.562 0.720188 -1.75822 0
M  V30 2766 H 270.712 3.14597 -2.2795 0
M  V30 2767 H 272.384 1.5504 -4.34466 0
M  V30 2768 H 270.627 1.39242 -4.10846 0
M  V30 2769 H 271.298 2.92169 -4.68339 0
M  V30 2770 H 273.774 3.1089 -2.76563 0
M  V30 2771 H 272.65 4.38286 -3.3045 0
M  V30 2772 H 272.911 4.12655 -1.58646 0
M  V30 2773 N 271.97 1.30982 0.876444 0
M  V30 2774 C 273.2 1.23063 1.65949 0
M  V30 2775 C 273.608 -0.207537 1.88058 0
M  V30 2776 O 272.951 -1.14781 1.43426 0
M  V30 2777 C 273.013 1.89768 3.05333 0
M  V30 2778 C 272.677 3.39106 3.0636 0
M  V30 2779 C 273.674 4.3496 2.84791 0
M  V30 2780 C 271.359 3.80693 3.27686 0
M  V30 2781 C 273.353 5.70375 2.84519 0
M  V30 2782 C 271.04 5.16223 3.27043 0
M  V30 2783 C 272.038 6.10875 3.05485 0
M  V30 2784 O 271.726 7.43928 3.04674 0
M  V30 2785 H 271.458 0.426685 0.524324 0
M  V30 2786 H 274.012 1.7329 1.10271 0
M  V30 2787 H 272.242 1.34082 3.6271 0
M  V30 2788 H 273.931 1.75853 3.65829 0
M  V30 2789 H 274.697 4.0416 2.68103 0
M  V30 2790 H 270.576 3.07457 3.43499 0
M  V30 2791 H 274.12 6.44228 2.67611 0
M  V30 2792 H 270.017 5.4666 3.43269 0
M  V30 2793 H 270.785 7.53022 3.2078 0
M  V30 2794 N 273.449 -1.08991 1.13837 0
M  V30 2795 C 274.726 -1.77863 0.813876 0
M  V30 2796 C 275.106 -1.99375 -0.693746 0
M  V30 2797 O 274.454 -1.59875 -1.63255 0
M  V30 2798 C 274.664 -3.0986 1.60586 0
M  V30 2799 C 276.012 -3.84493 1.8014 0
M  V30 2800 O 277.036 -3.19624 1.57222 0
M  V30 2801 O 275.895 -5.00957 2.18413 0
M  V30 2802 H 272.989 -0.771589 0.297624 0
M  V30 2803 H 275.535 -1.15507 1.24323 0
M  V30 2804 H 274.307 -2.89715 2.63022 0
M  V30 2805 H 273.93 -3.79942 1.17173 0
M  V30 2806 N 274.927 -0.932562 -1.27047 0
M  V30 2807 C 275.837 -0.441219 -2.30414 0
M  V30 2808 C 276.853 0.480525 -1.67233 0
M  V30 2809 O 278.029 0.362151 -1.98117 0
M  V30 2810 C 275.094 0.293651 -3.45454 0
M  V30 2811 C 274.155 -0.663601 -4.2414 0
M  V30 2812 C 273.388 0.0362932 -5.33688 0
M  V30 2813 O 273.611 1.2548 -5.56427 0
M  V30 2814 O 272.545 -0.638015 -5.98509 0
M  V30 2815 H 276.371 -1.29962 -2.74488 0
M  V30 2816 H 273.956 -0.6981 -1.32087 0
M  V30 2817 H 275.838 0.707951 -4.15411 0
M  V30 2818 H 274.513 1.12758 -3.03426 0
M  V30 2819 H 273.42 -1.12768 -3.56699 0
M  V30 2820 H 274.753 -1.46489 -4.69896 0
M  V30 2821 N 276.405 1.4127 -0.698611 0
M  V30 2822 C 277.368 2.29158 -0.044132 0
M  V30 2823 C 278.368 1.44529 0.704841 0
M  V30 2824 O 279.558 1.65643 0.539276 0
M  V30 2825 C 276.69 3.27459 0.947809 0
M  V30 2826 H 277.883 2.88529 -0.817994 0
M  V30 2827 H 275.436 1.49307 -0.46228 0
M  V30 2828 H 276.171 2.73073 1.74933 0
M  V30 2829 H 275.956 3.8991 0.41385 0
M  V30 2830 H 277.446 3.93311 1.40344 0
M  V30 2831 N 277.883 0.443576 1.51229 0
M  V30 2832 C 279.108 -0.121648 2.07043 0
M  V30 2833 C 279.533 -1.35156 1.30823 0
M  V30 2834 O 278.891 -1.7793 0.347934 0
M  V30 2835 C 278.939 -0.41624 3.5819 0
M  V30 2836 O 278.043 -1.50163 3.8409 0
M  V30 2837 H 277.384 0.000871367 0.663999 0
M  V30 2838 H 279.914 0.626706 1.94765 0
M  V30 2839 H 279.924 -0.664867 4.02546 0
M  V30 2840 H 278.599 0.482653 4.1309 0
M  V30 2841 H 277.176 -1.24248 3.51592 0
M  V30 2842 N 279.361 -1.56624 0.175154 0
M  V30 2843 C 280.308 -2.18149 -0.753634 0
M  V30 2844 C 281.278 -1.12265 -1.22417 0
M  V30 2845 O 282.463 -1.40432 -1.29165 0
M  V30 2846 C 279.603 -2.82933 -1.97592 0
M  V30 2847 C 278.716 -4.03289 -1.5486 0
M  V30 2848 C 277.851 -4.55988 -2.72485 0
M  V30 2849 C 276.89 -5.68746 -2.26262 0
M  V30 2850 N 276.027 -6.15938 -3.36994 0
M  V30 2851 H 280.867 -2.9717 -0.222195 0
M  V30 2852 H 278.404 -1.46774 -0.0979422 0
M  V30 2853 H 280.362 -3.18653 -2.69288 0
M  V30 2854 H 278.992 -2.06509 -2.481 0
M  V30 2855 H 278.044 -3.73364 -0.728246 0
M  V30 2856 H 279.356 -4.849 -1.16933 0
M  V30 2857 H 278.51 -4.9391 -3.52332 0
M  V30 2858 H 277.249 -3.73443 -3.13674 0
M  V30 2859 H 276.254 -5.30372 -1.44863 0
M  V30 2860 H 277.479 -6.53095 -1.86127 0
M  V30 2861 H 275.425 -5.36321 -3.77751 0
M  V30 2862 H 275.342 -6.92548 -3.03172 0
M  V30 2863 H 276.61 -6.58511 -4.17114 0
M  V30 2864 N 280.839 0.0985539 -1.57292 0
M  V30 2865 C 281.786 1.11981 -2.01814 0
M  V30 2866 C 282.756 1.39999 -0.89384 0
M  V30 2867 O 283.941 1.5152 -1.15958 0
M  V30 2868 C 281.081 2.43577 -2.44467 0
M  V30 2869 C 280.194 2.2232 -3.70402 0
M  V30 2870 C 279.329 3.4729 -4.01949 0
M  V30 2871 C 278.368 3.2128 -5.21005 0
M  V30 2872 N 277.505 4.38507 -5.48321 0
M  V30 2873 H 282.345 0.733149 -2.88841 0
M  V30 2874 H 279.882 0.350482 -1.42864 0
M  V30 2875 H 281.84 3.20373 -2.6724 0
M  V30 2876 H 280.47 2.80097 -1.60455 0
M  V30 2877 H 279.522 1.36343 -3.55126 0
M  V30 2878 H 280.834 1.99089 -4.57345 0
M  V30 2879 H 279.988 4.32495 -4.25479 0
M  V30 2880 H 278.727 3.73572 -3.13521 0
M  V30 2881 H 277.732 2.34468 -4.97298 0
M  V30 2882 H 278.957 2.96348 -6.11028 0
M  V30 2883 H 276.903 4.64871 -4.62851 0
M  V30 2884 H 276.82 4.18455 -6.29628 0
M  V30 2885 H 278.088 5.24787 -5.76385 0
M  V30 2886 N 282.317 1.53212 0.369288 0
M  V30 2887 C 283.247 1.82365 1.45826 0
M  V30 2888 C 284.228 0.676907 1.56051 0
M  V30 2889 O 285.413 0.926401 1.70679 0
M  V30 2890 C 282.543 2.01023 2.83208 0
M  V30 2891 C 281.497 3.1678 2.8781 0
M  V30 2892 C 280.823 3.20724 4.27832 0
M  V30 2893 C 282.123 4.55447 2.55667 0
M  V30 2894 H 283.817 2.73559 1.21678 0
M  V30 2895 H 281.363 1.3163 0.583911 0
M  V30 2896 H 283.316 2.20001 3.59413 0
M  V30 2897 H 282.04 1.06536 3.08736 0
M  V30 2898 H 280.699 2.97616 2.14056 0
M  V30 2899 H 280.347 2.23882 4.50429 0
M  V30 2900 H 280.047 3.98496 4.31827 0
M  V30 2901 H 281.571 3.41881 5.05915 0
M  V30 2902 H 282.985 4.74611 3.21586 0
M  V30 2903 H 281.382 5.35432 2.70984 0
M  V30 2904 H 282.452 4.60812 1.5093 0
M  V30 2905 N 283.795 -0.628877 1.44509 0
M  V30 2906 C 285.041 -1.39045 1.47629 0
M  V30 2907 C 285.374 -1.93892 0.109343 0
M  V30 2908 O 284.649 -1.7379 -0.87334 0
M  V30 2909 C 284.932 -2.55408 2.53848 0
M  V30 2910 C 284.785 -2.05896 3.99909 0
M  V30 2911 C 286.104 -3.5759 2.56549 0
M  V30 2912 H 283.223 -0.504232 0.537512 0
M  V30 2913 H 285.865 -0.710854 1.76201 0
M  V30 2914 H 284.015 -3.13384 2.29615 0
M  V30 2915 H 285.687 -1.52734 4.35282 0
M  V30 2916 H 283.93 -1.37061 4.11578 0
M  V30 2917 H 284.601 -2.89681 4.69882 0
M  V30 2918 H 287.077 -3.09419 2.78207 0
M  V30 2919 H 285.953 -4.36527 3.32769 0
M  V30 2920 H 286.214 -4.11808 1.60832 0
M  V30 2921 N 285.273 -1.31445 -0.869486 0
M  V30 2922 C 286.519 -1.22347 -1.62489 0
M  V30 2923 C 286.874 0.216204 -1.91181 0
M  V30 2924 O 286.167 1.14977 -1.53268 0
M  V30 2925 C 286.361 -2.00145 -2.96102 0
M  V30 2926 C 286.19 -3.51531 -2.80456 0
M  V30 2927 C 284.96 -4.20882 -2.79618 0
M  V30 2928 C 287.158 -4.46471 -2.5528 0
M  V30 2929 N 285.14 -5.58421 -2.55027 0
M  V30 2930 C 286.511 -5.71682 -2.39957 0
M  V30 2931 C 288.566 -4.35892 -2.40629 0
M  V30 2932 C 287.269 -6.87511 -2.11472 0
M  V30 2933 C 289.295 -5.51505 -2.13532 0
M  V30 2934 C 288.657 -6.75707 -1.98998 0
M  V30 2935 H 284.756 -0.502815 -0.598917 0
M  V30 2936 H 287.34 -1.65639 -1.02332 0
M  V30 2937 H 285.511 -1.59221 -3.54264 0
M  V30 2938 H 287.243 -1.83063 -3.60929 0
M  V30 2939 H 283.998 -3.72857 -2.92018 0
M  V30 2940 H 284.422 -6.30841 -2.45701 0
M  V30 2941 H 289.064 -3.40533 -2.50593 0
M  V30 2942 H 286.782 -7.82897 -2.00245 0
M  V30 2943 H 290.368 -5.45238 -2.02995 0
M  V30 2944 H 289.248 -7.63655 -1.78326 0
M  V30 2945 N 286.751 1.08385 -1.14413 0
M  V30 2946 C 287.999 1.80419 -0.910679 0
M  V30 2947 C 288.32 1.86658 0.564243 0
M  V30 2948 O 287.59 1.35985 1.41014 0
M  V30 2949 H 286.17 0.668204 -0.333934 0
M  V30 2950 H 288.832 1.31037 -1.44275 0
M  V30 2951 H 287.928 2.83238 -1.31082 0
M  V30 2952 N 288.23 0.939286 1.26551 0
M  V30 2953 C 289.177 0.446088 2.26448 0
M  V30 2954 C 290.147 -0.493234 1.58608 0
M  V30 2955 O 291.332 -0.409857 1.86346 0
M  V30 2956 C 288.472 -0.284375 3.43926 0
M  V30 2957 C 287.585 0.690399 4.26448 0
M  V30 2958 C 286.72 -0.0610712 5.31165 0
M  V30 2959 C 285.759 0.905649 6.05363 0
M  V30 2960 N 284.896 0.186055 7.01853 0
M  V30 2961 H 289.736 1.30291 2.68008 0
M  V30 2962 H 287.273 0.65371 1.31776 0
M  V30 2963 H 289.231 -0.724313 4.10864 0
M  V30 2964 H 287.861 -1.10535 3.03285 0
M  V30 2965 H 286.913 1.24885 3.59316 0
M  V30 2966 H 288.225 1.42873 4.779 0
M  V30 2967 H 287.379 -0.56038 6.04106 0
M  V30 2968 H 286.118 -0.832297 4.80546 0
M  V30 2969 H 285.123 1.4161 5.3125 0
M  V30 2970 H 286.348 1.67685 6.58072 0
M  V30 2971 H 284.294 -0.566714 6.53548 0
M  V30 2972 H 284.211 0.863752 7.51049 0
M  V30 2973 H 285.479 -0.292221 7.78952 0
M  V30 2974 N 289.708 -1.40897 0.706093 0
M  V30 2975 C 290.656 -2.32572 0.0361893 0
M  V30 2976 C 291.65 -1.51532 -0.757266 0
M  V30 2977 O 292.856 -1.67396 -0.661703 0
M  V30 2978 H 289.231 -0.751966 -0.00709935 0
M  V30 2979 H 291.202 -2.86733 0.826249 0
M  V30 2980 C 289.951 -3.36418 -0.87854 0
M  V30 2981 H 289.274 -3.98836 -0.277401 0
M  V30 2982 H 290.714 -4.0308 -1.3154 0
M  V30 2983 C 289.173 -2.71141 -1.99961 0
M  V30 2984 O 289.703 -2.56735 -3.0895 0
M  V30 2985 N 287.909 -2.29671 -1.78043 0
M  V30 2986 H 287.456 -2.41588 -0.894042 0
M  V30 2987 H 287.414 -1.86332 -2.53235 0
M  V30 2988 N 291.186 -0.45159 -1.50991 0
M  V30 2989 C 292.133 0.352625 -2.2809 0
M  V30 2990 C 293.103 1.0044 -1.32291 0
M  V30 2991 O 294.288 1.02058 -1.6121 0
M  V30 2992 C 291.428 1.43983 -3.13629 0
M  V30 2993 C 290.541 0.804772 -4.24438 0
M  V30 2994 C 289.676 1.86822 -4.97263 0
M  V30 2995 C 288.715 1.21236 -5.99973 0
M  V30 2996 N 287.852 2.2178 -6.66152 0
M  V30 2997 H 292.692 -0.311186 -2.96371 0
M  V30 2998 H 290.229 -0.165308 -1.46168 0
M  V30 2999 H 292.187 2.08161 -3.61559 0
M  V30 3000 H 290.817 2.07307 -2.47434 0
M  V30 3001 H 289.869 0.0509129 -3.80366 0
M  V30 3002 H 291.181 0.286076 -4.97979 0
M  V30 3003 H 290.335 2.58628 -5.48813 0
M  V30 3004 H 289.074 2.42068 -4.23385 0
M  V30 3005 H 288.079 0.479828 -5.47702 0
M  V30 3006 H 289.304 0.667051 -6.75816 0
M  V30 3007 H 287.25 2.76079 -5.95077 0
M  V30 3008 H 287.167 1.74841 -7.35504 0
M  V30 3009 H 288.435 2.93026 -7.22327 0
M  V30 3010 N 292.664 1.56529 -0.183458 0
M  V30 3011 C 293.574 2.22144 0.754272 0
M  V30 3012 C 294.59 1.21684 1.24374 0
M  V30 3013 O 295.766 1.54385 1.29333 0
M  V30 3014 C 292.831 2.85884 1.96141 0
M  V30 3015 C 291.892 4.01579 1.51765 0
M  V30 3016 C 291.125 4.6227 2.66725 0
M  V30 3017 O 291.348 4.21865 3.83909 0
M  V30 3018 O 290.282 5.51936 2.40104 0
M  V30 3019 H 294.108 3.02861 0.225527 0
M  V30 3020 H 291.693 1.49331 0.0453032 0
M  V30 3021 H 293.575 3.26253 2.66715 0
M  V30 3022 H 292.25 2.08154 2.47899 0
M  V30 3023 H 291.157 3.65856 0.781049 0
M  V30 3024 H 292.49 4.80938 1.04686 0
M  V30 3025 N 294.142 -0.090211 1.57342 0
M  V30 3026 C 295.419 -0.824761 1.77361 0
M  V30 3027 C 295.799 -1.96698 0.76637 0
M  V30 3028 O 295.147 -2.27586 -0.204179 0
M  V30 3029 C 295.357 -1.31481 3.23286 0
M  V30 3030 C 296.705 -1.75563 3.86604 0
M  V30 3031 O 297.729 -1.41093 3.27065 0
M  V30 3032 O 296.588 -2.39317 4.91314 0
M  V30 3033 H 293.682 -0.393776 0.727234 0
M  V30 3034 H 296.228 -0.0717138 1.69548 0
M  V30 3035 H 295 -0.496671 3.88135 0
M  V30 3036 H 294.623 -2.12973 3.35751 0
M  V30 3037 N 295.62 -1.53406 -0.361157 0
M  V30 3038 C 296.845 -1.74024 -1.12829 0
M  V30 3039 C 297.27 -0.470069 -1.82132 0
M  V30 3040 O 296.628 0.57619 -1.719 0
M  V30 3041 C 296.676 -2.90903 -2.13091 0
M  V30 3042 O 295.78 -2.59821 -3.20261 0
M  V30 3043 H 295.121 -0.577804 -0.327168 0
M  V30 3044 H 297.651 -2.00307 -0.41693 0
M  V30 3045 H 297.661 -3.17194 -2.56616 0
M  V30 3046 H 296.336 -3.83034 -1.62042 0
M  V30 3047 H 294.913 -2.44362 -2.81677 0
M  V30 3048 N 297.098 0.621204 -1.44841 0
M  V30 3049 C 298.338 1.39201 -1.49674 0
M  V30 3050 C 298.702 1.91561 -0.129764 0
M  V30 3051 O 299.903 2.68748 -0.0527814 0
M  V30 3052 C 298.174 2.519 -2.53537 0
M  V30 3053 S 299.733 3.39916 -2.77494 0
M  V30 3054 H 296.551 0.474758 -0.529269 0
M  V30 3055 H 299.153 0.718171 -1.81831 0
M  V30 3056 H 297.857 2.11761 -3.51547 0
M  V30 3057 H 297.388 3.241 -2.22986 0
M  V30 3058 H 299.403 4.49646 -2.0984 0
M  V30 3059 N 298.576 1.31904 0.862503 0
M  V30 3060 C 299.992 1.10724 1.14945 0
M  V30 3061 C 300.192 -0.117421 2.01158 0
M  V30 3062 O 299.248 -0.804595 2.39338 0
M  V30 3063 C 300.561 2.38267 1.83437 0
M  V30 3064 C 302.109 2.43949 1.96106 0
M  V30 3065 C 302.584 3.71394 2.68013 0
M  V30 3066 N 304.075 3.72331 2.75543 0
M  V30 3067 C 304.81 4.67641 3.31812 0
M  V30 3068 N 304.306 5.73313 3.88953 0
M  V30 3069 N 306.099 4.5515 3.29841 0
M  V30 3070 H 298.25 2.10436 0.288191 0
M  V30 3071 H 300.513 0.928705 0.190292 0
M  V30 3072 H 300.219 3.27759 1.27542 0
M  V30 3073 H 300.093 2.48633 2.83657 0
M  V30 3074 H 302.48 1.54922 2.51164 0
M  V30 3075 H 302.561 2.37543 0.949059 0
M  V30 3076 H 302.205 4.60791 2.13621 0
M  V30 3077 H 302.135 3.75069 3.69636 0
M  V30 3078 H 304.626 2.95947 2.34997 0
M  V30 3079 H 304.939 6.42107 4.30022 0
M  V30 3080 H 303.284 5.77077 3.87308 0
M  V30 3081 H 306.475 3.71766 2.84443 0
M  V30 3082 H 306.648 5.29604 3.73394 0
M  V30 3083 N 300.054 -1.07777 1.14986 0
M  V30 3084 C 301.017 -2.13041 0.845358 0
M  V30 3085 C 302.017 -1.60071 -0.152931 0
M  V30 3086 O 303.207 -1.74033 0.0761879 0
M  V30 3087 C 300.339 -3.39896 0.261383 0
M  V30 3088 H 301.532 -2.41485 1.77834 0
M  V30 3089 H 299.085 -1.23595 0.956757 0
M  V30 3090 H 299.82 -3.17091 -0.68 0
M  V30 3091 H 299.605 -3.79642 0.980514 0
M  V30 3092 H 301.095 -4.17548 0.0657687 0
M  V30 3093 N 301.532 -0.945985 -1.26051 0
M  V30 3094 C 302.772 -0.603665 -1.95282 0
M  V30 3095 C 303.136 0.842377 -1.72534 0
M  V30 3096 O 304.337 1.29387 -2.35611 0
M  V30 3097 C 302.608 -0.942292 -3.44754 0
M  V30 3098 S 304.167 -0.711242 -4.32997 0
M  V30 3099 H 300.985 -0.222176 -0.675395 0
M  V30 3100 H 303.587 -1.21832 -1.52896 0
M  V30 3101 H 302.291 -1.99203 -3.58812 0
M  V30 3102 H 301.822 -0.317546 -3.92116 0
M  V30 3103 H 303.837 0.422221 -4.944 0
M  V30 3104 N 303.011 1.40521 -0.713556 0
M  V30 3105 C 303.961 2.27971 -0.036165 0
M  V30 3106 C 304.945 1.43151 0.734623 0
M  V30 3107 O 306.137 1.66261 0.607158 0
M  V30 3108 C 303.266 3.31661 0.886331 0
M  V30 3109 C 302.352 4.23955 0.110836 0
M  V30 3110 N 302.743 4.97641 -0.904847 0
M  V30 3111 C 301.041 4.44674 0.343692 0
M  V30 3112 C 301.742 5.65322 -1.37064 0
M  V30 3113 N 300.718 5.39162 -0.693168 0
M  V30 3114 H 304.52 2.82384 -0.814645 0
M  V30 3115 H 302.034 1.52948 -0.545963 0
M  V30 3116 H 304.031 3.93154 1.38692 0
M  V30 3117 H 302.691 2.78808 1.66421 0
M  V30 3118 H 303.702 5.01689 -1.28563 0
M  V30 3119 H 300.379 4.02801 1.09805 0
M  V30 3120 H 301.769 6.34359 -2.21447 0
M  V30 3121 N 304.489 0.459591 1.5075 0
M  V30 3122 C 305.737 -0.0991532 2.01857 0
M  V30 3123 C 306.058 -1.41247 1.34441 0
M  V30 3124 O 305.328 -1.89775 0.486022 0
M  V30 3125 H 303.908 -0.039633 0.745948 0
M  V30 3126 H 306.57 0.607387 1.85194 0
M  V30 3127 H 305.666 -0.258998 3.11023 0
M  V30 3128 N 305.967 -1.56429 0.191757 0
M  V30 3129 C 306.877 -2.22541 -0.742481 0
M  V30 3130 C 307.893 -1.22342 -1.23727 0
M  V30 3131 O 309.069 -1.55069 -1.28513 0
M  V30 3132 C 306.134 -2.8692 -1.94623 0
M  V30 3133 C 305.195 -4.02378 -1.49633 0
M  V30 3134 C 304.428 -4.63678 -2.6427 0
M  V30 3135 O 304.651 -4.23895 -3.81666 0
M  V30 3136 O 303.585 -5.53202 -2.37174 0
M  V30 3137 H 307.411 -3.02977 -0.209462 0
M  V30 3138 H 304.996 -1.49353 -0.0373832 0
M  V30 3139 H 306.878 -3.27663 -2.64982 0
M  V30 3140 H 305.553 -2.09466 -2.46791 0
M  V30 3141 H 304.46 -3.66265 -0.761636 0
M  V30 3142 H 305.793 -4.81487 -1.02134 0
M  V30 3143 N 307.445 0.0818655 -1.57387 0
M  V30 3144 C 308.392 1.09834 -2.0299 0
M  V30 3145 C 309.362 1.39043 -0.908639 0
M  V30 3146 O 310.547 1.50282 -1.17559 0
M  V30 3147 C 307.687 2.40971 -2.47037 0
M  V30 3148 C 306.8 2.18379 -3.7274 0
M  V30 3149 C 305.935 3.43008 -4.0561 0
M  V30 3150 C 304.974 3.15736 -5.24383 0
M  V30 3151 N 304.111 4.32667 -5.52941 0
M  V30 3152 H 308.951 0.702472 -2.89602 0
M  V30 3153 H 306.488 0.33531 -1.43227 0
M  V30 3154 H 308.446 3.1752 -2.70623 0
M  V30 3155 H 307.076 2.78379 -1.63417 0
M  V30 3156 H 306.128 1.32569 -3.56552 0
M  V30 3157 H 307.44 1.94227 -4.59431 0
M  V30 3158 H 306.594 4.27958 -4.30043 0
M  V30 3159 H 305.333 3.70225 -3.17466 0
M  V30 3160 H 304.338 2.2918 -4.99757 0
M  V30 3161 H 305.563 2.8985 -6.14136 0
M  V30 3162 H 303.509 4.59935 -4.67756 0
M  V30 3163 H 303.426 4.11753 -6.34031 0
M  V30 3164 H 304.694 5.18644 -5.81918 0
M  V30 3165 N 308.923 1.53595 0.353017 0
M  V30 3166 C 310.334 1.61937 0.929153 0
M  V30 3167 C 310.685 0.494686 1.89861 0
M  V30 3168 O 309.81 -0.377017 2.1309 0
M  V30 3169 C 310.405 2.93526 1.69199 0
M  V30 3170 C 308.964 3.04161 2.21727 0
M  V30 3171 C 308.111 2.57322 1.03348 0
M  V30 3172 H 311.062 1.58155 0.131431 0
M  V30 3173 H 311.083 2.82034 2.55416 0
M  V30 3174 H 310.595 3.75362 0.986144 0
M  V30 3175 H 308.696 2.26938 2.95516 0
M  V30 3176 H 308.809 4.09465 2.48748 0
M  V30 3177 H 307.173 2.12499 1.40414 0
M  V30 3178 H 307.956 3.41588 0.342428 0
M  V30 3179 N 310.401 -0.613514 1.45168 0
M  V30 3180 C 311.647 -1.37471 1.49096 0
M  V30 3181 C 311.98 -1.93765 0.129901 0
M  V30 3182 O 311.255 -1.74707 -0.854858 0
M  V30 3183 C 311.538 -2.52701 2.56542 0
M  V30 3184 C 311.391 -2.01643 4.0207 0
M  V30 3185 C 312.71 -3.54849 2.60327 0
M  V30 3186 H 309.829 -0.498502 0.54283 0
M  V30 3187 H 312.471 -0.692125 1.76945 0
M  V30 3188 H 310.621 -3.10931 2.32926 0
M  V30 3189 H 312.293 -1.48108 4.36877 0
M  V30 3190 H 310.536 -1.32688 4.13009 0
M  V30 3191 H 311.207 -2.84681 4.72928 0
M  V30 3192 H 313.683 -3.0645 2.81474 0
M  V30 3193 H 312.559 -4.32973 3.37381 0
M  V30 3194 H 312.82 -4.10079 1.6519 0
M  V30 3195 N 311.879 -1.3236 -0.855495 0
M  V30 3196 C 313.156 -1.13491 -1.59309 0
M  V30 3197 C 313.536 0.30503 -2.08885 0
M  V30 3198 O 312.884 1.30151 -1.87811 0
M  V30 3199 C 313.094 -2.16176 -2.73987 0
M  V30 3200 C 314.442 -2.49463 -3.43589 0
M  V30 3201 O 315.466 -2.14715 -2.84211 0
M  V30 3202 O 314.325 -3.09027 -4.50738 0
M  V30 3203 H 311.419 -0.437887 -0.701559 0
M  V30 3204 H 313.965 -1.43887 -0.899696 0
M  V30 3205 H 312.737 -3.1297 -2.34873 0
M  V30 3206 H 312.36 -1.86769 -3.51003 0
M  V30 3207 N 313.357 1.07166 -1.15556 0
M  V30 3208 C 314.304 2.14417 -0.854055 0
M  V30 3209 C 315.274 1.64965 0.193806 0
M  V30 3210 O 316.459 1.90703 0.0609443 0
M  V30 3211 C 313.599 3.43304 -0.351574 0
M  V30 3212 C 312.712 4.06537 -1.46123 0
M  V30 3213 C 311.847 5.23266 -0.914677 0
M  V30 3214 C 310.886 5.78464 -2.00114 0
M  V30 3215 N 310.023 6.86521 -1.47083 0
M  V30 3216 H 314.863 2.39548 -1.77259 0
M  V30 3217 H 312.4 1.17543 -0.884425 0
M  V30 3218 H 314.358 4.17179 -0.0419409 0
M  V30 3219 H 312.988 3.18419 0.530037 0
M  V30 3220 H 312.04 3.30297 -1.88701 0
M  V30 3221 H 313.352 4.43567 -2.28144 0
M  V30 3222 H 312.506 6.04131 -0.557698 0
M  V30 3223 H 311.245 4.87658 -0.0636583 0
M  V30 3224 H 310.25 4.96243 -2.36692 0
M  V30 3225 H 311.475 6.16126 -2.85597 0
M  V30 3226 H 309.421 6.52849 -0.642198 0
M  V30 3227 H 309.338 7.22446 -2.22729 0
M  V30 3228 H 310.606 7.71087 -1.14215 0
M  V30 3229 N 314.835 0.952656 1.25548 0
M  V30 3230 C 316.251 0.656769 1.4546 0
M  V30 3231 C 316.451 -0.78633 1.85524 0
M  V30 3232 O 315.507 -1.56183 1.98402 0
M  V30 3233 C 316.82 1.62801 2.52817 0
M  V30 3234 C 318.368 1.63897 2.66659 0
M  V30 3235 C 318.843 2.5978 3.77198 0
M  V30 3236 N 320.334 2.58133 3.84606 0
M  V30 3237 C 321.069 3.29003 4.69621 0
M  V30 3238 N 320.565 4.09339 5.58939 0
M  V30 3239 N 322.358 3.179 4.63569 0
M  V30 3240 H 314.509 1.88526 0.978344 0
M  V30 3241 H 316.772 0.810815 0.491206 0
M  V30 3242 H 316.478 2.65869 2.30232 0
M  V30 3243 H 316.352 1.38898 3.50695 0
M  V30 3244 H 318.739 0.615481 2.8861 0
M  V30 3245 H 318.82 1.91858 1.69187 0
M  V30 3246 H 318.464 3.62254 3.55997 0
M  V30 3247 H 318.394 2.29105 4.7415 0
M  V30 3248 H 320.885 1.99809 3.20757 0
M  V30 3249 H 321.198 4.6034 6.20731 0
M  V30 3250 H 319.543 4.13438 5.58654 0
M  V30 3251 H 322.734 2.54612 3.92798 0
M  V30 3252 H 322.907 3.73398 5.29602 0
M  V30 3253 N 316.313 -1.40141 0.720998 0
M  V30 3254 C 317.724 -1.83678 0.334553 0
M  V30 3255 C 318.075 -1.6027 -1.13173 0
M  V30 3256 O 317.2 -1.08643 -1.87152 0
M  V30 3257 C 317.795 -3.33437 0.600437 0
M  V30 3258 C 316.354 -3.75447 0.267642 0
M  V30 3259 C 315.501 -2.63296 0.870097 0
M  V30 3260 H 318.452 -1.29331 0.919732 0
M  V30 3261 H 318.473 -3.80269 -0.132517 0
M  V30 3262 H 317.985 -3.50442 1.66768 0
M  V30 3263 H 316.086 -3.64035 -0.794329 0
M  V30 3264 H 316.199 -4.73344 0.74042 0
M  V30 3265 H 314.563 -2.52954 0.297739 0
M  V30 3266 H 315.346 -2.83112 1.94172 0
M  V30 3267 N 317.792 -0.46758 -1.50504 0
M  V30 3268 C 318.755 0.317059 -2.26996 0
M  V30 3269 C 319.755 0.923513 -1.31635 0
M  V30 3270 O 320.945 0.793239 -1.55091 0
M  V30 3271 C 318.077 1.45134 -3.08462 0
M  V30 3272 H 319.27 -0.353723 -2.97807 0
M  V30 3273 H 316.823 -0.221545 -1.54722 0
M  V30 3274 H 317.558 2.15728 -2.4214 0
M  V30 3275 H 317.343 1.02232 -3.78538 0
M  V30 3276 H 318.833 2.00493 -3.66323 0
M  V30 3277 N 319.27 1.56325 -0.20005 0
M  V30 3278 C 320.2 2.22318 0.713916 0
M  V30 3279 C 321.181 1.18788 1.21752 0
M  V30 3280 O 322.366 1.47309 1.26545 0
M  V30 3281 C 319.496 2.88639 1.93144 0
M  V30 3282 C 318.45 3.98457 1.56255 0
M  V30 3283 C 317.776 4.51967 2.85709 0
M  V30 3284 C 319.076 5.16612 0.768747 0
M  V30 3285 H 320.77 2.98952 0.163755 0
M  V30 3286 H 318.316 1.43792 0.0773219 0
M  V30 3287 H 320.269 3.33491 2.57608 0
M  V30 3288 H 318.993 2.09419 2.50621 0
M  V30 3289 H 317.652 3.54305 0.941471 0
M  V30 3290 H 317.3 3.69503 3.41287 0
M  V30 3291 H 317 5.26071 2.6177 0
M  V30 3292 H 318.524 4.99523 3.51154 0
M  V30 3293 H 319.938 5.57977 1.3166 0
M  V30 3294 H 318.335 5.96812 0.627286 0
M  V30 3295 H 319.405 4.84358 -0.229168 0
M  V30 3296 N 320.748 -0.0735177 1.57428 0
M  V30 3297 C 322.025 -0.805903 1.78226 0
M  V30 3298 C 322.405 -1.95874 0.787189 0
M  V30 3299 O 321.753 -2.2779 -0.180029 0
M  V30 3300 C 321.963 -1.28045 3.24662 0
M  V30 3301 C 323.311 -1.71453 3.88444 0
M  V30 3302 O 324.335 -1.37616 3.28543 0
M  V30 3303 O 323.194 -2.34093 4.93825 0
M  V30 3304 H 320.288 -0.386041 0.73137 0
M  V30 3305 H 322.834 -0.0537269 1.69615 0
M  V30 3306 H 321.606 -0.455476 3.8864 0
M  V30 3307 H 321.229 -2.094 3.37991 0
M  V30 3308 N 322.226 -1.5378 -0.344866 0
M  V30 3309 C 323.454 -1.74899 -1.10534 0
M  V30 3310 C 323.869 -0.487534 -1.82397 0
M  V30 3311 O 323.226 0.540741 -1.74305 0
M  V30 3312 C 323.277 -2.92822 -2.11984 0
M  V30 3313 O 322.998 -4.14089 -1.43044 0
M  V30 3314 C 324.499 -3.25982 -3.00417 0
M  V30 3315 H 321.719 -0.584426 -0.329678 0
M  V30 3316 H 324.263 -2.006 -0.397474 0
M  V30 3317 H 322.418 -2.69457 -2.78338 0
M  V30 3318 H 322.832 -4.80272 -2.10805 0
M  V30 3319 H 324.306 -4.11848 -3.67539 0
M  V30 3320 H 324.783 -2.42228 -3.66363 0
M  V30 3321 H 325.389 -3.51349 -2.39654 0
M  V30 3322 N 323.704 0.605807 -1.45491 0
M  V30 3323 C 324.667 1.69836 -1.5391 0
M  V30 3324 C 325.667 1.55261 -0.418424 0
M  V30 3325 O 326.857 1.60296 -0.681965 0
M  V30 3326 C 323.989 3.09117 -1.43734 0
M  V30 3327 H 325.182 1.63738 -2.51257 0
M  V30 3328 H 322.735 0.821689 -1.32959 0
M  V30 3329 H 323.47 3.20791 -0.475788 0
M  V30 3330 H 323.255 3.21104 -2.25021 0
M  V30 3331 H 324.745 3.88696 -1.52661 0
M  V30 3332 N 325.182 1.32811 0.848464 0
M  V30 3333 C 326.145 1.22194 1.9391 0
M  V30 3334 C 327.145 0.143404 1.60159 0
M  V30 3335 O 328.335 0.394253 1.6968 0
M  V30 3336 C 325.467 0.88067 3.29328 0
M  V30 3337 H 326.66 2.19127 2.04752 0
M  V30 3338 H 324.213 1.16731 1.0394 0
M  V30 3339 H 324.948 -0.0865776 3.24184 0
M  V30 3340 H 324.733 1.66052 3.55203 0
M  V30 3341 H 326.223 0.830871 4.09251 0
M  V30 3342 N 326.66 -1.06551 1.16123 0
M  V30 3343 C 327.61 -2.12209 0.833736 0
M  V30 3344 C 328.594 -1.59825 -0.185656 0
M  V30 3345 O 329.786 -1.76994 0.0147906 0
M  V30 3346 C 326.915 -3.41674 0.333697 0
M  V30 3347 C 326.001 -4.00892 1.38372 0
M  V30 3348 N 326.392 -4.34256 2.59337 0
M  V30 3349 C 324.69 -4.28463 1.23836 0
M  V30 3350 C 325.391 -4.81291 3.26701 0
M  V30 3351 N 324.367 -4.80565 2.54083 0
M  V30 3352 H 328.169 -2.35849 1.75364 0
M  V30 3353 H 325.683 -1.24068 1.04789 0
M  V30 3354 H 327.68 -4.16822 0.0806918 0
M  V30 3355 H 326.34 -3.19475 -0.58017 0
M  V30 3356 H 327.351 -4.24687 2.96415 0
M  V30 3357 H 324.028 -4.15721 0.38504 0
M  V30 3358 H 325.418 -5.16332 4.29943 0
M  V30 3359 N 328.138 -0.959301 -1.25041 0
M  V30 3360 C 329.366 -0.633949 -1.96948 0
M  V30 3361 C 329.781 0.794916 -1.7125 0
M  V30 3362 O 329.138 1.53231 -0.991287 0
M  V30 3363 C 329.189 -0.888805 -3.50403 0
M  V30 3364 O 328.91 -2.26149 -3.75218 0
M  V30 3365 C 330.411 -0.576482 -4.39536 0
M  V30 3366 H 327.631 -0.237263 -0.627652 0
M  V30 3367 H 330.175 -1.28495 -1.59089 0
M  V30 3368 H 328.33 -0.284145 -3.86357 0
M  V30 3369 H 328.744 -2.33514 -4.6965 0
M  V30 3370 H 330.218 -0.805314 -5.46094 0
M  V30 3371 H 330.695 0.489075 -4.36468 0
M  V30 3372 H 331.301 -1.16067 -4.09156 0
M  V30 3373 N 329.616 1.39756 -0.72842 0
M  V30 3374 C 330.579 2.29012 -0.0927297 0
M  V30 3375 C 331.579 1.45992 0.674025 0
M  V30 3376 O 332.769 1.66749 0.50402 0
M  V30 3377 C 329.901 3.29396 0.878137 0
M  V30 3378 H 331.094 2.86729 -0.879011 0
M  V30 3379 H 328.647 1.48293 -0.493847 0
M  V30 3380 H 329.382 2.76722 1.69101 0
M  V30 3381 H 329.167 3.907 0.331051 0
M  V30 3382 H 330.657 3.96199 1.3197 0
M  V30 3383 N 331.094 0.475555 1.50254 0
M  V30 3384 C 332.334 -0.0765802 2.04256 0
M  V30 3385 C 332.698 -1.36587 1.34937 0
M  V30 3386 O 333.899 -2.00066 1.79519 0
M  V30 3387 C 332.17 -0.251668 3.56513 0
M  V30 3388 S 333.729 -0.761716 4.32138 0
M  V30 3389 H 330.547 -0.0138456 0.710865 0
M  V30 3390 H 333.149 0.643714 1.84598 0
M  V30 3391 H 331.853 0.692404 4.04517 0
M  V30 3392 H 331.384 -0.997946 3.80532 0
M  V30 3393 H 333.399 -2.03451 4.52573 0
M  V30 3394 N 332.573 -1.56217 0.208337 0
M  V30 3395 C 333.822 -1.97124 -0.427204 0
M  V30 3396 C 334.135 -1.09859 -1.61835 0
M  V30 3397 O 335.341 -1.40606 -2.32255 0
M  V30 3398 C 333.797 -3.50633 -0.811442 0
M  V30 3399 C 333.405 -4.46582 0.35615 0
M  V30 3400 C 335.149 -4.00282 -1.41332 0
M  V30 3401 C 333.056 -5.91379 -0.0497852 0
M  V30 3402 H 331.986 -0.736086 -0.163381 0
M  V30 3403 H 334.637 -1.8099 0.302456 0
M  V30 3404 H 333.019 -3.62319 -1.59815 0
M  V30 3405 H 334.193 -4.46636 1.1337 0
M  V30 3406 H 332.508 -4.07202 0.870396 0
M  V30 3407 H 335.105 -5.0595 -1.72972 0
M  V30 3408 H 335.448 -3.45359 -2.32449 0
M  V30 3409 H 335.981 -3.91764 -0.690323 0
M  V30 3410 H 332.72 -6.50255 0.827529 0
M  V30 3411 H 332.24 -5.94549 -0.791926 0
M  V30 3412 H 333.919 -6.45209 -0.481042 0
M  V30 3413 N 334.051 0.0651679 -1.57465 0
M  V30 3414 C 335.276 0.779605 -1.9219 0
M  V30 3415 C 335.701 1.69988 -0.805333 0
M  V30 3416 O 335.059 1.79685 0.241435 0
M  V30 3417 C 335.107 1.54364 -3.2589 0
M  V30 3418 O 334.211 2.65474 -3.1559 0
M  V30 3419 H 333.552 0.212249 -0.629163 0
M  V30 3420 H 336.082 0.0314294 -2.04576 0
M  V30 3421 H 336.092 1.92146 -3.59922 0
M  V30 3422 H 334.767 0.868457 -4.06732 0
M  V30 3423 H 333.344 2.30501 -2.93128 0
M  V30 3424 N 335.529 1.53961 0.336706 0
M  V30 3425 C 336.769 1.73254 1.08454 0
M  V30 3426 C 337.133 0.488937 1.8567 0
M  V30 3427 O 338.334 0.559001 2.62923 0
M  V30 3428 C 336.605 2.96519 1.99528 0
M  V30 3429 S 338.164 3.36655 2.81441 0
M  V30 3430 H 334.982 0.609353 0.366347 0
M  V30 3431 H 337.584 1.92117 0.362124 0
M  V30 3432 H 336.288 3.85193 1.41614 0
M  V30 3433 H 335.819 2.80142 2.76196 0
M  V30 3434 H 337.834 2.90925 4.01967 0
M  V30 3435 N 337.007 -0.598083 1.45811 0
M  V30 3436 C 337.957 -1.70272 1.51629 0
M  V30 3437 C 338.941 -1.56382 0.378629 0
M  V30 3438 O 340.133 -1.65557 0.626087 0
M  V30 3439 C 337.262 -3.09042 1.49493 0
M  V30 3440 C 336.348 -3.28284 2.68496 0
M  V30 3441 N 336.739 -3.17748 3.93535 0
M  V30 3442 C 335.037 -3.59182 2.64394 0
M  V30 3443 C 335.738 -3.38579 4.7301 0
M  V30 3444 N 334.714 -3.63016 4.04624 0
M  V30 3445 H 338.516 -1.60634 2.46118 0
M  V30 3446 H 336.03 -0.801642 1.41235 0
M  V30 3447 H 338.027 -3.88302 1.51747 0
M  V30 3448 H 336.687 -3.19823 0.560683 0
M  V30 3449 H 337.698 -2.95944 4.25014 0
M  V30 3450 H 334.375 -3.76742 1.79922 0
M  V30 3451 H 335.765 -3.35747 5.82 0
M  V30 3452 N 338.485 -1.33259 -0.841409 0
M  V30 3453 C 339.418 -1.1764 -1.95541 0
M  V30 3454 C 340.396 -0.072501 -1.62438 0
M  V30 3455 O 341.58 -0.23427 -1.87039 0
M  V30 3456 C 338.707 -0.803794 -3.29024 0
M  V30 3457 C 337.753 -1.91482 -3.81099 0
M  V30 3458 S 338.586 -3.52538 -4.03085 0
M  V30 3459 C 339.742 -3.17279 -5.39523 0
M  V30 3460 H 339.975 -2.11941 -2.08491 0
M  V30 3461 H 337.508 -1.18072 -0.9949 0
M  V30 3462 H 339.466 -0.595592 -4.06156 0
M  V30 3463 H 338.127 0.120574 -3.13868 0
M  V30 3464 H 337.32 -1.60742 -4.7768 0
M  V30 3465 H 336.922 -2.07956 -3.10854 0
M  V30 3466 H 339.214 -2.67946 -6.22263 0
M  V30 3467 H 340.157 -4.1293 -5.75234 0
M  V30 3468 H 340.565 -2.53943 -5.04156 0
M  V30 3469 N 339.963 1.05934 -1.16686 0
M  V30 3470 C 341.24 1.75643 -0.860747 0
M  V30 3471 C 341.62 2.01144 0.640641 0
M  V30 3472 O 340.968 1.64147 1.58959 0
M  V30 3473 C 341.178 3.05493 -1.68745 0
M  V30 3474 C 342.526 3.79581 -1.90271 0
M  V30 3475 O 343.55 3.15344 -1.65641 0
M  V30 3476 O 342.409 4.9499 -2.31618 0
M  V30 3477 H 339.503 0.763426 -0.317977 0
M  V30 3478 H 342.049 1.1217 -1.27342 0
M  V30 3479 H 340.821 2.8264 -2.70611 0
M  V30 3480 H 340.444 3.76702 -1.27206 0
M  V30 3481 N 341.441 0.965919 1.2453 0
M  V30 3482 C 342.687 0.62776 1.92839 0
M  V30 3483 C 343.02 -0.834694 1.75347 0
M  V30 3484 O 342.295 -1.60031 1.10546 0
M  V30 3485 C 342.578 1.00109 3.45905 0
M  V30 3486 C 342.431 2.52011 3.72573 0
M  V30 3487 C 343.75 0.53435 4.36844 0
M  V30 3488 H 340.869 0.229537 0.700344 0
M  V30 3489 H 343.511 1.2046 1.46933 0
M  V30 3490 H 341.661 0.510238 3.85135 0
M  V30 3491 H 343.333 3.08559 3.42912 0
M  V30 3492 H 341.576 2.95287 3.17786 0
M  V30 3493 H 342.247 2.73183 4.79661 0
M  V30 3494 H 344.723 0.955565 4.04979 0
M  V30 3495 H 343.599 0.824152 5.42678 0
M  V30 3496 H 343.86 -0.565589 4.38467 0
M  V30 3497 N 342.919 -1.39368 0.735821 0
M  V30 3498 C 343.882 -2.2896 0.104874 0
M  V30 3499 C 344.882 -1.46347 -0.666274 0
M  V30 3500 O 346.072 -1.67014 -0.49517 0
M  V30 3501 C 343.204 -3.29857 -0.860656 0
M  V30 3502 H 344.397 -2.86259 0.894205 0
M  V30 3503 H 341.95 -1.48029 0.501704 0
M  V30 3504 H 342.685 -2.77615 -1.67631 0
M  V30 3505 H 342.47 -3.9087 -0.310327 0
M  V30 3506 H 343.96 -3.96893 -1.29867 0
M  V30 3507 N 344.397 -0.483516 -1.5 0
M  V30 3508 C 345.344 0.304164 -2.28787 0
M  V30 3509 C 346.314 0.976114 -1.34392 0
M  V30 3510 O 347.499 0.986156 -1.63339 0
M  V30 3511 C 344.639 1.37298 -3.16612 0
M  V30 3512 C 343.752 0.714561 -4.26049 0
M  V30 3513 C 342.887 1.76232 -5.01114 0
M  V30 3514 C 341.926 1.08483 -6.0241 0
M  V30 3515 N 341.063 2.076 -6.70706 0
M  V30 3516 H 345.903 -0.373981 -2.95644 0
M  V30 3517 H 343.44 -0.196275 -1.45785 0
M  V30 3518 H 345.398 2.00445 -3.65893 0
M  V30 3519 H 344.028 2.02012 -2.51776 0
M  V30 3520 H 343.08 -0.0297798 -3.80388 0
M  V30 3521 H 344.392 0.180383 -4.98474 0
M  V30 3522 H 343.546 2.46929 -5.54176 0
M  V30 3523 H 342.285 2.33033 -4.28424 0
M  V30 3524 H 341.29 0.363545 -5.48597 0
M  V30 3525 H 342.515 0.523551 -6.77079 0
M  V30 3526 H 340.461 2.63394 -6.00799 0
M  V30 3527 H 340.378 1.59201 -7.39047 0
M  V30 3528 H 341.646 2.77639 -7.2838 0
M  V30 3529 N 345.875 1.56104 -0.216619 0
M  V30 3530 C 347.103 2.02563 0.421413 0
M  V30 3531 C 347.518 1.0965 1.53695 0
M  V30 3532 O 346.875 0.10521 1.82196 0
M  V30 3533 C 346.926 3.48584 0.957665 0
M  V30 3534 O 346.647 4.37953 -0.113389 0
M  V30 3535 C 348.148 4.10664 1.66943 0
M  V30 3536 H 345.368 0.662944 0.103665 0
M  V30 3537 H 347.912 2.01793 -0.331629 0
M  V30 3538 H 346.067 3.49985 1.661 0
M  V30 3539 H 346.481 5.23704 0.288932 0
M  V30 3540 H 347.955 5.14622 1.99671 0
M  V30 3541 H 348.432 3.55373 2.58083 0
M  V30 3542 H 349.038 4.13098 1.01142 0
M  V30 3543 N 347.353 -0.0568162 1.57498 0
M  V30 3544 C 348.3 -1.06591 2.04712 0
M  V30 3545 C 349.27 -1.3758 0.930644 0
M  V30 3546 O 350.455 -1.48392 1.19935 0
M  V30 3547 C 347.595 -2.3701 2.50839 0
M  V30 3548 C 346.708 -2.12421 3.76167 0
M  V30 3549 C 345.843 -3.36511 4.11015 0
M  V30 3550 C 344.882 -3.07353 5.2934 0
M  V30 3551 N 344.019 -4.23816 5.59754 0
M  V30 3552 H 348.859 -0.65631 2.90683 0
M  V30 3553 H 346.396 -0.312481 1.43743 0
M  V30 3554 H 348.354 -3.13175 2.7564 0
M  V30 3555 H 346.984 -2.75744 1.67825 0
M  V30 3556 H 346.036 -1.2688 3.58616 0
M  V30 3557 H 347.348 -1.86894 4.62463 0
M  V30 3558 H 346.502 -4.21062 4.36797 0
M  V30 3559 H 345.241 -3.65128 3.23315 0
M  V30 3560 H 344.246 -2.212 5.03339 0
M  V30 3561 H 345.471 -2.80043 6.1867 0
M  V30 3562 H 343.417 -4.52436 4.75014 0
M  V30 3563 H 343.334 -4.01614 6.40501 0
M  V30 3564 H 344.602 -5.0932 5.90096 0
M  V30 3565 N 348.832 -1.54138 -0.328536 0
M  V30 3566 C 349.795 -1.82462 -1.38709 0
M  V30 3567 C 350.795 -0.696229 -1.44946 0
M  V30 3568 O 351.985 -0.964535 -1.4506 0
M  V30 3569 C 349.117 -1.98018 -2.77492 0
M  V30 3570 H 350.31 -2.77037 -1.14851 0
M  V30 3571 H 347.863 -1.45779 -0.563751 0
M  V30 3572 H 348.598 -1.05637 -3.06613 0
M  V30 3573 H 348.383 -2.80124 -2.74359 0
M  V30 3574 H 349.873 -2.21396 -3.54081 0
M  V30 3575 N 350.31 0.590341 -1.46126 0
M  V30 3576 C 351.22 1.72793 -1.58681 0
M  V30 3577 C 352.236 1.67516 -0.470566 0
M  V30 3578 O 353.412 1.87562 -0.733642 0
M  V30 3579 C 350.477 3.09287 -1.5666 0
M  V30 3580 C 349.538 3.25886 -2.79458 0
M  V30 3581 C 348.771 4.55869 -2.77524 0
M  V30 3582 O 348.994 5.3928 -1.85832 0
M  V30 3583 O 347.928 4.75552 -3.68964 0
M  V30 3584 H 351.754 1.65149 -2.54872 0
M  V30 3585 H 349.339 0.756486 -1.28832 0
M  V30 3586 H 351.221 3.90577 -1.58202 0
M  V30 3587 H 349.896 3.17385 -0.636271 0
M  V30 3588 H 348.803 2.44119 -2.83472 0
M  V30 3589 H 350.136 3.22675 -3.71674 0
M  V30 3590 N 351.788 1.33704 0.83433 0
M  V30 3591 C 353.016 1.28467 1.62185 0
M  V30 3592 C 353.431 -0.143526 1.88254 0
M  V30 3593 O 352.788 -1.08709 1.4659 0
M  V30 3594 C 352.839 2.06174 2.96942 0
M  V30 3595 O 352.56 3.43422 2.72016 0
M  V30 3596 C 354.061 2.08201 3.91366 0
M  V30 3597 H 351.281 0.4424 0.504503 0
M  V30 3598 H 353.825 1.76145 1.03891 0
M  V30 3599 H 351.98 1.62167 3.51825 0
M  V30 3600 H 352.394 3.83453 3.57861 0
M  V30 3601 H 353.868 2.67017 4.83121 0
M  V30 3602 H 354.345 1.07343 4.2588 0
M  V30 3603 H 354.951 2.52246 3.42421 0
M  V30 3604 N 353.266 -1.05314 1.17247 0
M  V30 3605 C 354.514 -1.77941 0.958194 0
M  V30 3606 C 354.835 -1.88089 -0.514556 0
M  V30 3607 O 354.105 -1.39676 -1.37359 0
M  V30 3608 H 352.685 -0.659116 0.351533 0
M  V30 3609 H 355.347 -1.27166 1.47699 0
M  V30 3610 H 354.443 -2.79663 1.38546 0
M  V30 3611 N 354.744 -0.972509 -1.24016 0
M  V30 3612 C 356.155 -0.67517 -1.74064 0
M  V30 3613 C 356.506 0.808939 -1.78747 0
M  V30 3614 O 355.631 1.63286 -1.42009 0
M  V30 3615 C 356.226 -1.21889 -3.16115 0
M  V30 3616 C 354.785 -0.971358 -3.6365 0
M  V30 3617 C 353.932 -1.35134 -2.42145 0
M  V30 3618 H 356.883 -1.14727 -1.09651 0
M  V30 3619 H 356.904 -0.587489 -3.75937 0
M  V30 3620 H 356.416 -2.29906 -3.12674 0
M  V30 3621 H 354.517 0.0930686 -3.72484 0
M  V30 3622 H 354.63 -1.62039 -4.50866 0
M  V30 3623 H 352.994 -0.769751 -2.4279 0
M  V30 3624 H 353.777 -2.4411 -2.41381 0
M  V30 3625 N 356.222 1.38976 -0.743202 0
M  V30 3626 C 357.468 2.0064 -0.295189 0
M  V30 3627 C 357.801 1.5885 1.11716 0
M  V30 3628 O 357.076 0.821181 1.76315 0
M  V30 3629 C 357.359 3.578 -0.406318 0
M  V30 3630 C 357.212 4.09586 -1.85903 0
M  V30 3631 C 358.531 4.39616 0.206439 0
M  V30 3632 H 355.65 0.728935 -0.108733 0
M  V30 3633 H 358.292 1.65067 -0.940897 0
M  V30 3634 H 356.442 3.88235 0.143419 0
M  V30 3635 H 358.114 3.89837 -2.46627 0
M  V30 3636 H 356.357 3.6284 -2.3776 0
M  V30 3637 H 357.028 5.18708 -1.888 0
M  V30 3638 H 359.504 4.15273 -0.262283 0
M  V30 3639 H 358.38 5.48812 0.0983819 0
M  V30 3640 H 358.641 4.22754 1.2935 0
M  V30 3641 N 357.7 0.491464 1.49741 0
M  V30 3642 C 358.648 -0.305837 2.30581 0
M  V30 3643 C 359.642 -0.971642 1.38764 0
M  V30 3644 O 360.848 -0.90042 1.5586 0
M  V30 3645 H 357.223 -0.117482 0.742767 0
M  V30 3646 H 359.194 0.396093 2.95759 0
M  V30 3647 C 357.943 -1.36319 3.19863 0
M  V30 3648 H 357.266 -0.860258 3.90435 0
M  V30 3649 H 358.706 -1.89323 3.79385 0
M  V30 3650 C 357.165 -2.37621 2.38826 0
M  V30 3651 O 357.695 -3.43311 2.08567 0
M  V30 3652 N 355.901 -2.09849 2.01026 0
M  V30 3653 H 355.448 -1.23922 2.25834 0
M  V30 3654 H 355.406 -2.77859 1.47112 0
M  V30 3655 N 359.178 -1.55987 0.224894 0
M  V30 3656 C 360.418 -2.00293 -0.407706 0
M  V30 3657 C 360.782 -1.1093 -1.56711 0
M  V30 3658 O 361.983 -1.44597 -2.26595 0
M  V30 3659 C 360.254 -3.47675 -0.82805 0
M  V30 3660 S 361.813 -4.14 -1.45429 0
M  V30 3661 H 358.631 -0.699152 -0.129256 0
M  V30 3662 H 361.233 -1.92609 0.334967 0
M  V30 3663 H 359.937 -4.10392 0.0253964 0
M  V30 3664 H 359.468 -3.59239 -1.60345 0
M  V30 3665 H 361.483 -4.13465 -2.74337 0
M  V30 3666 N 360.656 0.0484629 -1.57525 0
M  V30 3667 C 361.619 1.03956 -2.04269 0
M  V30 3668 C 362.619 1.30211 -0.943496 0
M  V30 3669 O 363.809 1.25539 -1.20771 0
M  V30 3670 C 360.941 2.37742 -2.44319 0
M  V30 3671 H 362.134 0.636182 -2.93075 0
M  V30 3672 H 359.687 0.294811 -1.53494 0
M  V30 3673 H 360.422 2.82866 -1.5861 0
M  V30 3674 H 360.207 2.20021 -3.24551 0
M  V30 3675 H 361.697 3.08936 -2.80978 0
M  V30 3676 N 362.134 1.5431 0.320358 0
M  V30 3677 C 363.382 1.72327 1.05583 0
M  V30 3678 C 363.703 0.50149 1.88441 0
M  V30 3679 O 362.973 -0.48448 1.89815 0
M  V30 3680 H 361.553 0.635387 0.3928 0
M  V30 3681 H 364.215 1.91621 0.356019 0
M  V30 3682 H 363.311 2.60426 1.72003 0
M  V30 3683 N 363.613 -0.582584 1.46437 0
M  V30 3684 C 364.853 -1.35184 1.53312 0
M  V30 3685 C 365.217 -1.9115 0.180508 0
M  V30 3686 O 366.418 -2.68514 0.124017 0
M  V30 3687 C 364.689 -2.45089 2.60127 0
M  V30 3688 S 366.248 -3.32439 2.86408 0
M  V30 3689 H 363.066 -0.460559 0.54167 0
M  V30 3690 H 365.668 -0.669709 1.83671 0
M  V30 3691 H 364.372 -2.02366 3.57038 0
M  V30 3692 H 363.903 -3.18074 2.315 0
M  V30 3693 H 365.918 -4.43924 2.21688 0
M  V30 3694 N 365.091 -1.34144 -0.827227 0
M  V30 3695 C 366.041 -1.21923 -1.92663 0
M  V30 3696 C 367.025 -0.119294 -1.60457 0
M  V30 3697 O 368.217 -0.348539 -1.73534 0
M  V30 3698 C 365.346 -0.972492 -3.29238 0
M  V30 3699 C 364.432 -2.1154 -3.67576 0
M  V30 3700 N 364.823 -3.36627 -3.77512 0
M  V30 3701 C 363.121 -2.02468 -3.97395 0
M  V30 3702 C 363.822 -4.11658 -4.1099 0
M  V30 3703 N 362.798 -3.40207 -4.23981 0
M  V30 3704 H 366.6 -2.16721 -1.98517 0
M  V30 3705 H 364.114 -1.2632 -1.02064 0
M  V30 3706 H 366.111 -0.865847 -4.0781 0
M  V30 3707 H 364.771 -0.0331509 -3.24683 0
M  V30 3708 H 365.782 -3.71234 -3.61118 0
M  V30 3709 H 362.459 -1.16265 -4.00985 0
M  V30 3710 H 363.849 -5.19657 -4.25918 0
M  V30 3711 N 366.569 1.04691 -1.17803 0
M  V30 3712 C 367.532 2.10724 -0.901545 0
M  V30 3713 C 368.532 1.6042 0.110437 0
M  V30 3714 O 369.722 1.7377 -0.122303 0
M  V30 3715 C 366.854 3.39084 -0.351409 0
M  V30 3716 H 368.047 2.36686 -1.84174 0
M  V30 3717 H 365.6 1.21015 -0.98919 0
M  V30 3718 H 366.335 3.18782 0.59569 0
M  V30 3719 H 366.12 3.76909 -1.08083 0
M  V30 3720 H 367.61 4.17227 -0.176451 0
M  V30 3721 N 368.047 0.979072 1.23499 0
M  V30 3722 C 369.458 0.684391 1.73704 0
M  V30 3723 C 369.809 -0.799448 1.79174 0
M  V30 3724 O 368.934 -1.62531 1.42873 0
M  V30 3725 C 369.529 1.23564 3.15464 0
M  V30 3726 C 368.088 0.99063 3.6313 0
M  V30 3727 C 367.235 1.36416 2.41425 0
M  V30 3728 H 370.186 1.15307 1.09041 0
M  V30 3729 H 370.207 0.607417 3.7562 0
M  V30 3730 H 369.719 2.31561 3.1145 0
M  V30 3731 H 367.82 -0.0733136 3.72528 0
M  V30 3732 H 367.933 1.64427 4.5 0
M  V30 3733 H 366.297 0.782616 2.42378 0
M  V30 3734 H 367.08 2.45387 2.40083 0
M  V30 3735 N 369.525 -1.3858 0.750561 0
M  V30 3736 C 370.435 -2.34278 0.122825 0
M  V30 3737 C 371.451 -1.59116 -0.704131 0
M  V30 3738 O 372.627 -1.91326 -0.628987 0
M  V30 3739 C 369.692 -3.38221 -0.762086 0
M  V30 3740 C 368.753 -4.29227 0.078896 0
M  V30 3741 C 367.986 -5.28205 -0.763874 0
M  V30 3742 O 368.209 -5.34112 -2.00201 0
M  V30 3743 O 367.143 -6.01618 -0.18428 0
M  V30 3744 H 370.969 -2.89649 0.913088 0
M  V30 3745 H 368.554 -1.40374 0.511417 0
M  V30 3746 H 370.436 -4.01872 -1.26793 0
M  V30 3747 H 369.111 -2.85211 -1.5309 0
M  V30 3748 H 368.018 -3.68747 0.630621 0
M  V30 3749 H 369.351 -4.85484 0.810289 0
M  V30 3750 N 371.003 -0.499398 -1.49478 0
M  V30 3751 C 371.966 0.268838 -2.27618 0
M  V30 3752 C 372.966 0.895383 -1.33565 0
M  V30 3753 O 374.156 0.760164 -1.56739 0
M  V30 3754 C 371.288 1.38559 -3.11471 0
M  V30 3755 H 372.481 -0.416812 -2.96989 0
M  V30 3756 H 370.034 -0.254313 -1.54217 0
M  V30 3757 H 370.769 2.10544 -2.46661 0
M  V30 3758 H 370.554 0.941797 -3.80621 0
M  V30 3759 H 372.044 1.92678 -3.70493 0
M  V30 3760 N 372.481 1.55866 -0.233164 0
M  V30 3761 C 373.413 2.18099 0.704668 0
M  V30 3762 C 374.426 1.15334 1.14899 0
M  V30 3763 O 375.615 1.42262 1.07814 0
M  V30 3764 C 372.715 2.7592 1.96777 0
M  V30 3765 C 371.888 4.03969 1.67713 0
M  V30 3766 C 370.947 4.46242 2.78845 0
M  V30 3767 O 369.973 5.12903 2.46818 0
M  V30 3768 N 371.175 4.12886 4.08051 0
M  V30 3769 H 373.94 2.99205 0.172258 0
M  V30 3770 H 371.501 1.61815 -0.0525945 0
M  V30 3771 H 373.493 3.01165 2.70337 0
M  V30 3772 H 372.063 1.99051 2.41034 0
M  V30 3773 H 371.283 3.86459 0.777391 0
M  V30 3774 H 372.571 4.8748 1.4574 0
M  V30 3775 H 371.969 3.59342 4.3691 0
M  V30 3776 H 370.526 4.42997 4.78118 0
M  V30 3777 N 373.959 -0.0401083 1.57549 0
M  V30 3778 C 374.922 -1.02871 2.04817 0
M  V30 3779 C 375.922 -1.29708 0.950388 0
M  V30 3780 O 377.112 -1.24897 1.21435 0
M  V30 3781 C 374.244 -2.36443 2.45576 0
M  V30 3782 H 375.437 -0.620631 2.93408 0
M  V30 3783 H 372.99 -0.286667 1.53649 0
M  V30 3784 H 373.725 -2.82021 1.60108 0
M  V30 3785 H 373.51 -2.18296 3.25713 0
M  V30 3786 H 375 -3.07441 2.82612 0
M  V30 3787 N 375.437 -1.54477 -0.31217 0
M  V30 3788 C 376.384 -1.84655 -1.38461 0
M  V30 3789 C 377.354 -0.694536 -1.50882 0
M  V30 3790 O 378.539 -0.942081 -1.6592 0
M  V30 3791 C 375.679 -2.0896 -2.74645 0
M  V30 3792 C 374.792 -3.36618 -2.70763 0
M  V30 3793 C 373.927 -3.50824 -3.98868 0
M  V30 3794 C 372.966 -4.72315 -3.89339 0
M  V30 3795 N 372.103 -4.83387 -5.09197 0
M  V30 3796 H 376.943 -2.76142 -1.12026 0
M  V30 3797 H 374.48 -1.36748 -0.542065 0
M  V30 3798 H 376.438 -2.21045 -3.53829 0
M  V30 3799 H 375.068 -1.20752 -2.99364 0
M  V30 3800 H 374.12 -3.33211 -1.83506 0
M  V30 3801 H 375.432 -4.25917 -2.59608 0
M  V30 3802 H 374.586 -3.62513 -4.86486 0
M  V30 3803 H 373.325 -2.59638 -4.12843 0
M  V30 3804 H 372.33 -4.6067 -3.00105 0
M  V30 3805 H 373.555 -5.64897 -3.76919 0
M  V30 3806 H 371.501 -3.9512 -5.23657 0
M  V30 3807 H 371.418 -5.66669 -5.00422 0
M  V30 3808 H 372.686 -4.9942 -5.98498 0
M  V30 3809 N 376.915 0.57481 -1.46744 0
M  V30 3810 C 378.162 1.33272 -1.52462 0
M  V30 3811 C 378.49 1.93669 -0.179572 0
M  V30 3812 O 377.745 1.7743 0.825664 0
M  V30 3813 C 378.044 2.476 -2.57738 0
M  V30 3814 C 377.71 2.05146 -4.01529 0
M  V30 3815 C 376.372 1.93284 -4.40676 0
M  V30 3816 C 378.724 1.72506 -4.91824 0
M  V30 3817 C 376.052 1.47049 -5.67973 0
M  V30 3818 C 378.404 1.27748 -6.19567 0
M  V30 3819 C 377.068 1.14468 -6.57612 0
M  V30 3820 H 376.338 0.487678 -0.557899 0
M  V30 3821 H 378.985 0.646456 -1.80259 0
M  V30 3822 H 377.29 3.21708 -2.23632 0
M  V30 3823 H 378.987 3.05807 -2.5939 0
M  V30 3824 H 375.577 2.15316 -3.7059 0
M  V30 3825 H 379.761 1.80552 -4.62293 0
M  V30 3826 H 375.017 1.35417 -5.96215 0
M  V30 3827 H 379.191 1.01547 -6.88957 0
M  V30 3828 H 376.818 0.78419 -7.56145 0
M  V30 3829 N 378.394 1.34581 0.820102 0
M  V30 3830 C 379.341 1.2639 1.93117 0
M  V30 3831 C 380.311 0.138554 1.65521 0
M  V30 3832 O 381.496 0.320004 1.88097 0
M  V30 3833 C 378.636 1.02812 3.29429 0
M  V30 3834 C 377.749 2.24146 3.693 0
M  V30 3835 C 376.884 1.93829 4.94574 0
M  V30 3836 C 375.923 3.1129 5.27034 0
M  V30 3837 N 375.06 2.80838 6.43486 0
M  V30 3838 H 379.9 2.21408 1.99455 0
M  V30 3839 H 377.437 1.10077 0.975784 0
M  V30 3840 H 379.395 0.871788 4.0799 0
M  V30 3841 H 378.025 0.114612 3.22596 0
M  V30 3842 H 377.077 2.50691 2.86109 0
M  V30 3843 H 378.389 3.11899 3.89257 0
M  V30 3844 H 377.543 1.74948 5.80929 0
M  V30 3845 H 376.282 1.03341 4.76626 0
M  V30 3846 H 375.287 3.30764 4.39175 0
M  V30 3847 H 376.512 4.02561 5.4692 0
M  V30 3848 H 374.458 1.92929 6.26988 0
M  V30 3849 H 374.375 3.62123 6.63629 0
M  V30 3850 H 375.643 2.65467 7.32903 0
M  V30 3851 N 379.872 -1.04064 1.18357 0
M  V30 3852 C 381.118 -1.77528 0.980397 0
M  V30 3853 C 381.451 -1.87948 -0.48879 0
M  V30 3854 O 380.726 -1.3876 -1.36293 0
M  V30 3855 C 381.009 -3.20797 1.63588 0
M  V30 3856 C 380.862 -3.1832 3.17793 0
M  V30 3857 C 382.181 -4.18911 1.34914 0
M  V30 3858 H 379.3 -0.644443 0.357578 0
M  V30 3859 H 381.942 -1.2156 1.46024 0
M  V30 3860 H 380.092 -3.68586 1.22788 0
M  V30 3861 H 381.764 -2.78521 3.67728 0
M  V30 3862 H 380.007 -2.56351 3.49952 0
M  V30 3863 H 380.678 -4.19489 3.58794 0
M  V30 3864 H 383.154 -3.7967 1.70265 0
M  V30 3865 H 382.03 -5.17374 1.83346 0
M  V30 3866 H 382.291 -4.41262 0.272027 0
M  V30 3867 N 381.35 -0.985608 -1.22978 0
M  V30 3868 C 382.596 -0.65836 -1.91816 0
M  V30 3869 C 382.929 0.806692 -1.76653 0
M  V30 3870 O 382.204 1.58252 -1.13078 0
M  V30 3871 C 382.487 -1.056 -3.44268 0
M  V30 3872 C 382.34 -2.57906 -3.68516 0
M  V30 3873 C 383.659 -0.603781 -4.35939 0
M  V30 3874 H 380.778 -0.24065 -0.696604 0
M  V30 3875 H 383.42 -1.22783 -1.44998 0
M  V30 3876 H 381.57 -0.571445 -3.84274 0
M  V30 3877 H 383.242 -3.13976 -3.3796 0
M  V30 3878 H 381.485 -3.00305 -3.13048 0
M  V30 3879 H 382.156 -2.80779 -4.75255 0
M  V30 3880 H 384.632 -1.01987 -4.03408 0
M  V30 3881 H 383.508 -0.910383 -5.41298 0
M  V30 3882 H 383.769 0.495761 -4.39312 0
M  V30 3883 N 382.828 1.3818 -0.7579 0
M  V30 3884 C 384.244 1.5353 -0.435972 0
M  V30 3885 C 384.444 1.71961 1.05032 0
M  V30 3886 O 383.5 1.73307 1.83633 0
M  V30 3887 C 384.813 2.73989 -1.23898 0
M  V30 3888 C 386.361 2.87841 -1.22949 0
M  V30 3889 C 386.836 4.11266 -2.01554 0
M  V30 3890 N 388.327 4.18352 -1.98837 0
M  V30 3891 C 389.062 5.12856 -2.5645 0
M  V30 3892 N 388.558 6.13005 -3.22794 0
M  V30 3893 N 390.351 5.05238 -2.46356 0
M  V30 3894 H 382.502 1.24467 -1.7211 0
M  V30 3895 H 384.765 0.604982 -0.729864 0
M  V30 3896 H 384.471 2.66789 -2.29165 0
M  V30 3897 H 384.345 3.67294 -0.858764 0
M  V30 3898 H 386.732 2.9452 -0.184854 0
M  V30 3899 H 386.813 1.95534 -1.64924 0
M  V30 3900 H 386.457 4.05349 -3.06031 0
M  V30 3901 H 386.387 5.02661 -1.5697 0
M  V30 3902 H 388.878 3.46628 -1.50524 0
M  V30 3903 H 389.191 6.81619 -3.64165 0
M  V30 3904 H 387.536 6.13325 -3.2689 0
M  V30 3905 H 390.727 4.25938 -1.9415 0
M  V30 3906 H 390.9 5.78707 -2.91552 0
M  V30 3907 N 384.306 0.507319 1.49211 0
M  V30 3908 C 385.216 -0.272136 2.33016 0
M  V30 3909 C 386.232 -0.961206 1.45041 0
M  V30 3910 O 387.408 -0.941191 1.78055 0
M  V30 3911 C 384.473 -1.31895 3.20631 0
M  V30 3912 C 383.534 -0.642648 4.24463 0
M  V30 3913 C 382.767 -1.63959 5.07891 0
M  V30 3914 O 382.99 -2.87007 4.92933 0
M  V30 3915 O 381.924 -1.19143 5.8999 0
M  V30 3916 H 385.75 0.413982 3.00865 0
M  V30 3917 H 383.335 0.268556 1.46966 0
M  V30 3918 H 385.217 -1.92446 3.7489 0
M  V30 3919 H 383.892 -1.98788 2.5547 0
M  V30 3920 H 382.799 0.00276252 3.741 0
M  V30 3921 H 384.132 -0.0160534 4.92197 0
M  V30 3922 N 385.784 -1.5574 0.241426 0
M  V30 3923 C 387.03 -1.99104 -0.385406 0
M  V30 3924 C 387.363 -1.1293 -1.57988 0
M  V30 3925 O 386.638 -0.191449 -1.93555 0
M  V30 3926 C 386.921 -3.51087 -0.800616 0
M  V30 3927 C 386.774 -4.48028 0.398874 0
M  V30 3928 C 388.093 -4.08015 -1.64959 0
M  V30 3929 H 385.212 -0.723848 -0.138614 0
M  V30 3930 H 387.854 -1.86903 0.341642 0
M  V30 3931 H 386.004 -3.61615 -1.4201 0
M  V30 3932 H 387.676 -4.49487 1.03726 0
M  V30 3933 H 385.919 -4.21077 1.04293 0
M  V30 3934 H 386.59 -5.51962 0.0651056 0
M  V30 3935 H 389.066 -4.00555 -1.12672 0
M  V30 3936 H 387.942 -5.14635 -1.90898 0
M  V30 3937 H 388.203 -3.56131 -2.61961 0
M  V30 3938 N 387.262 0.0317525 -1.57568 0
M  V30 3939 C 388.673 0.578692 -1.77505 0
M  V30 3940 C 389.024 1.75749 -0.872164 0
M  V30 3941 O 388.149 2.16298 -0.0663106 0
M  V30 3942 C 388.744 1.05658 -3.21904 0
M  V30 3943 C 387.303 1.54906 -3.43047 0
M  V30 3944 C 386.45 0.485939 -2.73009 0
M  V30 3945 H 389.401 -0.194475 -1.57504 0
M  V30 3946 H 389.422 1.92404 -3.28269 0
M  V30 3947 H 388.934 0.198422 -3.87592 0
M  V30 3948 H 387.035 2.42915 -2.82529 0
M  V30 3949 H 387.148 1.59841 -4.5165 0
M  V30 3950 H 385.512 0.940354 -2.36705 0
M  V30 3951 H 386.295 -0.362709 -3.41379 0
M  V30 3952 N 388.74 1.54641 0.303973 0
M  V30 3953 C 390.156 1.45788 0.649463 0
M  V30 3954 C 390.356 0.64666 1.90842 0
M  V30 3955 O 389.412 0.153183 2.52035 0
M  V30 3956 C 390.725 2.89718 0.805227 0
M  V30 3957 C 392.273 2.99742 0.901305 0
M  V30 3958 C 392.748 4.44863 1.08909 0
M  V30 3959 N 394.239 4.48559 1.15536 0
M  V30 3960 C 394.974 5.58026 1.3189 0
M  V30 3961 N 394.47 6.77422 1.45161 0
M  V30 3962 N 396.263 5.45708 1.34755 0
M  V30 3963 H 388.414 2.05854 -0.523237 0
M  V30 3964 H 390.677 0.932186 -0.172431 0
M  V30 3965 H 390.383 3.51666 -0.0489108 0
M  V30 3966 H 390.257 3.36964 1.69513 0
M  V30 3967 H 392.644 2.3791 1.74593 0
M  V30 3968 H 392.725 2.55797 -0.0125531 0
M  V30 3969 H 392.369 5.07288 0.249241 0
M  V30 3970 H 392.299 4.86436 2.01713 0
M  V30 3971 H 394.79 3.6254 1.06646 0
M  V30 3972 H 395.103 7.56604 1.57387 0
M  V30 3973 H 393.448 6.80292 1.42223 0
M  V30 3974 H 396.639 4.51378 1.23996 0
M  V30 3975 H 396.812 6.3107 1.47157 0
M  V30 3976 N 390.218 -0.567019 1.47046 0
M  V30 3977 C 391.148 -1.68482 1.61667 0
M  V30 3978 C 392.129 -1.6358 0.466418 0
M  V30 3979 O 393.314 -1.81354 0.694574 0
M  V30 3980 C 390.444 -3.07124 1.62148 0
M  V30 3981 C 389.398 -3.26867 2.76301 0
M  V30 3982 C 388.724 -4.66196 2.61849 0
M  V30 3983 C 390.024 -3.13186 4.17986 0
M  V30 3984 H 391.718 -1.56502 2.5524 0
M  V30 3985 H 389.264 -0.751486 1.22836 0
M  V30 3986 H 391.217 -3.8516 1.70968 0
M  V30 3987 H 389.941 -3.2004 0.651287 0
M  V30 3988 H 388.6 -2.51237 2.66975 0
M  V30 3989 H 388.248 -4.75898 1.62879 0
M  V30 3990 H 387.948 -4.80356 3.38425 0
M  V30 3991 H 389.472 -5.46379 2.72584 0
M  V30 3992 H 390.886 -3.81049 4.2834 0
M  V30 3993 H 389.283 -3.3886 4.95272 0
M  V30 3994 H 390.353 -2.10057 4.3704 0
M  V30 3995 N 391.696 -1.35014 -0.812953 0
M  V30 3996 C 392.973 -1.18502 -1.55617 0
M  V30 3997 C 393.353 0.238421 -2.09749 0
M  V30 3998 O 392.701 1.2411 -1.91857 0
M  V30 3999 C 392.911 -2.24783 -2.66971 0
M  V30 4000 C 394.259 -2.60268 -3.35478 0
M  V30 4001 O 395.283 -2.23648 -2.77236 0
M  V30 4002 O 394.142 -3.2321 -4.40678 0
M  V30 4003 H 391.236 -0.459984 -0.687272 0
M  V30 4004 H 393.782 -1.46677 -0.853464 0
M  V30 4005 H 392.554 -3.20284 -2.24798 0
M  V30 4006 H 392.177 -1.97841 -3.44884 0
M  V30 4007 N 393.175 1.03435 -1.18907 0
M  V30 4008 C 394.591 1.28973 -0.940111 0
M  V30 4009 C 394.791 1.97676 0.390691 0
M  V30 4010 O 393.847 2.26127 1.12352 0
M  V30 4011 C 395.16 2.14221 -2.11021 0
M  V30 4012 C 396.708 2.27547 -2.14922 0
M  V30 4013 C 397.183 3.16164 -3.31367 0
M  V30 4014 N 398.674 3.23752 -3.31269 0
M  V30 4015 C 399.409 3.92495 -4.18014 0
M  V30 4016 N 398.905 4.63515 -5.14904 0
M  V30 4017 N 400.698 3.88838 -4.05908 0
M  V30 4018 H 392.849 0.57252 -2.04538 0
M  V30 4019 H 395.112 0.315184 -0.894071 0
M  V30 4020 H 394.818 1.71054 -3.073 0
M  V30 4021 H 394.692 3.14919 -2.0762 0
M  V30 4022 H 397.079 2.69947 -1.19217 0
M  V30 4023 H 397.16 1.26418 -2.22378 0
M  V30 4024 H 396.804 2.74474 -4.27348 0
M  V30 4025 H 396.734 4.17339 -3.21148 0
M  V30 4026 H 399.225 2.73167 -2.61129 0
M  V30 4027 H 399.538 5.13583 -5.77453 0
M  V30 4028 H 397.883 4.62398 -5.18857 0
M  V30 4029 H 401.074 3.32491 -3.29495 0
M  V30 4030 H 401.247 4.4214 -4.73726 0
M  V30 4031 N 394.653 0.992116 1.22453 0
M  V30 4032 C 395.901 0.666215 1.90804 0
M  V30 4033 C 396.222 -0.804152 1.77647 0
M  V30 4034 O 395.492 -1.57629 1.16318 0
M  V30 4035 H 394.072 0.243423 0.706225 0
M  V30 4036 H 396.734 1.25845 1.48825 0
M  V30 4037 H 395.83 0.928069 2.97982 0
M  V30 4038 N 396.131 -1.37776 0.765217 0
M  V30 4039 C 397.063 -2.28958 0.105361 0
M  V30 4040 C 398.076 -1.48316 -0.67128 0
M  V30 4041 O 399.265 -1.71046 -0.51045 0
M  V30 4042 C 396.365 -3.27421 -0.874569 0
M  V30 4043 C 395.538 -4.37132 -0.153123 0
M  V30 4044 C 394.597 -5.1571 -1.04547 0
M  V30 4045 O 393.623 -5.66896 -0.511672 0
M  V30 4046 N 394.825 -5.29808 -2.37243 0
M  V30 4047 H 397.59 -2.86227 0.888495 0
M  V30 4048 H 395.151 -1.49682 0.617 0
M  V30 4049 H 397.143 -3.7687 -1.47483 0
M  V30 4050 H 395.713 -2.70967 -1.55871 0
M  V30 4051 H 394.933 -3.89166 0.627975 0
M  V30 4052 H 396.221 -5.07625 0.345643 0
M  V30 4053 H 395.619 -4.89793 -2.83054 0
M  V30 4054 H 394.176 -5.82589 -2.9229 0
M  V30 4055 N 397.609 -0.515225 -1.4894 0
M  V30 4056 C 399.02 -0.0710067 -1.86565 0
M  V30 4057 C 399.371 1.34733 -1.42623 0
M  V30 4058 O 398.496 2.00653 -0.810379 0
M  V30 4059 C 399.091 -0.122083 -3.3858 0
M  V30 4060 C 397.65 0.266863 -3.75453 0
M  V30 4061 C 396.797 -0.488376 -2.72966 0
M  V30 4062 H 399.748 -0.727266 -1.41055 0
M  V30 4063 H 399.769 0.669818 -3.74558 0
M  V30 4064 H 399.281 -1.15448 -3.70531 0
M  V30 4065 H 397.382 1.30196 -3.49113 0
M  V30 4066 H 397.495 -0.0624811 -4.79059 0
M  V30 4067 H 395.859 0.0635622 -2.54621 0
M  V30 4068 H 396.642 -1.52113 -3.07761 0
M  V30 4069 N 399.087 1.5561 -0.249682 0
M  V30 4070 C 400.364 1.90932 0.424761 0
M  V30 4071 C 400.744 1.17078 1.75658 0
M  V30 4072 O 400.092 0.289176 2.26663 0
M  V30 4073 C 400.302 3.43975 0.590109 0
M  V30 4074 C 401.65 4.15281 0.884714 0
M  V30 4075 O 402.674 3.49729 0.67587 0
M  V30 4076 O 401.533 5.31236 1.28259 0
M  V30 4077 H 398.627 0.794815 0.228468 0
M  V30 4078 H 401.173 1.67135 -0.293954 0
M  V30 4079 H 399.945 3.89748 -0.34818 0
M  V30 4080 H 399.568 3.73644 1.35926 0
M  V30 4081 N 400.565 -0.0233959 1.57583 0
M  V30 4082 C 401.528 -1.00693 2.05897 0
M  V30 4083 C 402.528 -1.28693 0.964092 0
M  V30 4084 O 403.718 -1.23602 1.22753 0
M  V30 4085 C 400.85 -2.33825 2.4807 0
M  V30 4086 H 402.043 -0.589476 2.9405 0
M  V30 4087 H 399.596 -0.270354 1.53944 0
M  V30 4088 H 400.331 -2.80307 1.6309 0
M  V30 4089 H 400.116 -2.1483 3.2801 0
M  V30 4090 H 401.606 -3.04426 2.85857 0
M  V30 4091 N 402.043 -1.548 -0.295768 0
M  V30 4092 C 403.006 -1.85363 -1.34808 0
M  V30 4093 C 404.006 -0.726817 -1.43436 0
M  V30 4094 O 405.196 -0.995088 -1.42981 0
M  V30 4095 C 402.328 -2.03859 -2.73229 0
M  V30 4096 H 403.521 -2.7941 -1.08949 0
M  V30 4097 H 401.074 -1.46942 -0.532702 0
M  V30 4098 H 401.809 -1.12117 -3.04303 0
M  V30 4099 H 401.594 -2.8588 -2.68356 0
M  V30 4100 H 403.084 -2.28857 -3.49305 0
M  V30 4101 N 403.521 0.559213 -1.47345 0
M  V30 4102 C 404.451 1.67622 -1.62558 0
M  V30 4103 C 405.432 1.63331 -0.475087 0
M  V30 4104 O 406.617 1.80983 -0.704182 0
M  V30 4105 C 403.747 3.0626 -1.63774 0
M  V30 4106 C 402.701 3.25397 -2.7803 0
M  V30 4107 C 402.027 4.64801 -2.64318 0
M  V30 4108 C 403.327 3.10965 -4.19641 0
M  V30 4109 H 405.021 1.55146 -2.56067 0
M  V30 4110 H 402.567 0.744961 -1.23233 0
M  V30 4111 H 404.52 3.84247 -1.73008 0
M  V30 4112 H 403.244 3.1969 -0.66825 0
M  V30 4113 H 401.903 2.49817 -2.68304 0
M  V30 4114 H 401.551 4.75028 -1.65401 0
M  V30 4115 H 401.251 4.78555 -3.40968 0
M  V30 4116 H 402.775 5.44926 -2.75478 0
M  V30 4117 H 404.189 3.78772 -4.30354 0
M  V30 4118 H 402.586 3.36229 -4.97062 0
M  V30 4119 H 403.656 2.07736 -4.38148 0
M  V30 4120 N 404.999 1.35443 0.805782 0
M  V30 4121 C 406.248 1.28097 1.55801 0
M  V30 4122 C 406.561 -0.142428 1.95081 0
M  V30 4123 O 407.767 -0.33817 2.69386 0
M  V30 4124 C 406.223 2.24653 2.81174 0
M  V30 4125 C 405.831 3.72342 2.49129 0
M  V30 4126 C 407.575 2.2625 3.59181 0
M  V30 4127 C 405.482 4.60719 3.70799 0
M  V30 4128 H 404.412 0.475937 0.584808 0
M  V30 4129 H 407.063 1.60712 0.885661 0
M  V30 4130 H 405.445 1.85011 3.50124 0
M  V30 4131 H 406.619 4.20624 1.88181 0
M  V30 4132 H 404.934 3.73361 1.84366 0
M  V30 4133 H 407.531 2.89495 4.49552 0
M  V30 4134 H 407.874 1.26647 3.96568 0
M  V30 4135 H 408.407 2.64426 2.97193 0
M  V30 4136 H 405.146 5.61324 3.3852 0
M  V30 4137 H 404.666 4.17163 4.3097 0
M  V30 4138 H 406.345 4.76182 4.38018 0
M  V30 4139 N 406.477 -1.02803 1.19454 0
M  V30 4140 C 407.407 -2.12999 0.956758 0
M  V30 4141 C 408.388 -1.69743 -0.110188 0
M  V30 4142 O 409.573 -1.94148 0.0450038 0
M  V30 4143 C 406.703 -3.43746 0.495553 0
M  V30 4144 C 405.657 -4.00688 1.50443 0
M  V30 4145 C 404.983 -5.27067 0.900275 0
M  V30 4146 C 406.283 -4.35397 2.8849 0
M  V30 4147 H 407.977 -2.33148 1.87836 0
M  V30 4148 H 405.523 -1.12045 0.904539 0
M  V30 4149 H 407.476 -4.2021 0.316493 0
M  V30 4150 H 406.2 -3.23321 -0.461646 0
M  V30 4151 H 404.859 -3.2632 1.67065 0
M  V30 4152 H 404.507 -5.02959 -0.064503 0
M  V30 4153 H 404.207 -5.66127 1.57397 0
M  V30 4154 H 405.731 -6.06196 0.73203 0
M  V30 4155 H 407.145 -5.02795 2.75446 0
M  V30 4156 H 405.542 -4.85541 3.52661 0
M  V30 4157 H 406.612 -3.44662 3.41081 0
M  V30 4158 N 407.956 -0.998596 -1.21925 0
M  V30 4159 C 409.367 -0.711939 -1.72593 0
M  V30 4160 C 409.718 0.770842 -1.80423 0
M  V30 4161 O 408.843 1.60237 -1.4544 0
M  V30 4162 C 409.438 -1.28567 -3.13458 0
M  V30 4163 C 407.997 -1.04828 -3.61508 0
M  V30 4164 C 407.144 -1.4024 -2.39224 0
M  V30 4165 H 410.095 -1.17027 -1.07193 0
M  V30 4166 H 410.116 -0.667098 -3.74607 0
M  V30 4167 H 409.628 -2.36486 -3.07727 0
M  V30 4168 H 407.729 0.0140383 -3.72597 0
M  V30 4169 H 407.842 -1.71566 -4.47328 0
M  V30 4170 H 406.206 -0.821077 -2.41103 0
M  V30 4171 H 406.989 -2.49176 -2.36149 0
M  V30 4172 N 409.434 1.37368 -0.772513 0
M  V30 4173 C 410.68 1.99969 -0.337681 0
M  V30 4174 C 411.013 1.61184 1.08321 0
M  V30 4175 O 410.288 0.858395 1.74533 0
M  V30 4176 C 410.571 3.56858 -0.482121 0
M  V30 4177 C 410.424 4.0555 -1.94549 0
M  V30 4178 C 411.743 4.39955 0.113143 0
M  V30 4179 H 408.862 0.726464 -0.124171 0
M  V30 4180 H 411.504 1.63034 -0.975699 0
M  V30 4181 H 409.654 3.88452 0.0610361 0
M  V30 4182 H 411.326 3.84518 -2.54841 0
M  V30 4183 H 409.569 3.57715 -2.45403 0
M  V30 4184 H 410.24 5.14587 -1.9976 0
M  V30 4185 H 412.716 4.14623 -0.35031 0
M  V30 4186 H 411.592 5.48897 -0.0180514 0
M  V30 4187 H 411.853 4.25403 1.20354 0
M  V30 4188 N 410.912 0.523116 1.48665 0
M  V30 4189 C 412.323 0.0808997 1.86525 0
M  V30 4190 C 412.674 -1.33975 1.43336 0
M  V30 4191 O 411.799 -2.00221 0.821009 0
M  V30 4192 C 412.394 0.140037 3.3851 0
M  V30 4193 C 410.953 -0.246948 3.75589 0
M  V30 4194 C 410.1 0.502845 2.72703 0
M  V30 4195 H 413.051 0.734736 1.40667 0
M  V30 4196 H 413.072 -0.649945 3.74908 0
M  V30 4197 H 412.584 1.17412 3.69914 0
M  V30 4198 H 410.685 -1.28343 3.49798 0
M  V30 4199 H 410.798 0.0878859 4.79019 0
M  V30 4200 H 409.162 -0.0500581 2.54651 0
M  V30 4201 H 409.945 1.53743 3.0695 0
M  V30 4202 N 412.39 -1.55475 0.257931 0
M  V30 4203 C 413.638 -1.98813 -0.363009 0
M  V30 4204 C 413.959 -1.14757 -1.57657 0
M  V30 4205 O 413.229 -0.232956 -1.9451 0
M  V30 4206 H 411.809 -0.734308 -0.137113 0
M  V30 4207 H 414.471 -1.9156 0.359281 0
M  V30 4208 H 413.567 -3.04941 -0.664634 0
M  V30 4209 N 413.868 0.0150385 -1.57593 0
M  V30 4210 C 414.815 1.01126 -2.07466 0
M  V30 4211 C 415.785 1.35064 -0.966794 0
M  V30 4212 O 416.97 1.4516 -1.23827 0
M  V30 4213 C 414.11 2.30276 -2.57035 0
M  V30 4214 C 413.223 2.02373 -3.81666 0
M  V30 4215 C 412.358 3.25496 -4.19793 0
M  V30 4216 C 411.397 2.93211 -5.37303 0
M  V30 4217 N 410.534 4.08826 -5.70794 0
M  V30 4218 H 415.374 0.57901 -2.92321 0
M  V30 4219 H 412.911 0.27426 -1.44521 0
M  V30 4220 H 414.869 3.05757 -2.83846 0
M  V30 4221 H 413.499 2.71197 -1.75077 0
M  V30 4222 H 412.551 1.17327 -3.61854 0
M  V30 4223 H 413.863 1.74567 -4.67256 0
M  V30 4224 H 413.017 4.09333 -4.47807 0
M  V30 4225 H 411.756 3.56428 -3.32882 0
M  V30 4226 H 410.761 2.07777 -5.09027 0
M  V30 4227 H 411.986 2.63542 -6.25877 0
M  V30 4228 H 409.932 4.39682 -4.86842 0
M  V30 4229 H 409.849 3.84491 -6.50924 0
M  V30 4230 H 411.117 4.93496 -6.03392 0
M  V30 4231 N 415.346 1.54954 0.287554 0
M  V30 4232 C 416.623 1.65569 1.04146 0
M  V30 4233 C 417.003 0.512672 2.0478 0
M  V30 4234 O 416.351 -0.489038 2.23205 0
M  V30 4235 C 416.561 3.04163 1.71131 0
M  V30 4236 C 417.909 3.61429 2.22832 0
M  V30 4237 O 418.933 3.06702 1.81141 0
M  V30 4238 O 417.792 4.57281 2.9926 0
M  V30 4239 H 414.886 0.671881 0.482188 0
M  V30 4240 H 417.432 1.67297 0.28457 0
M  V30 4241 H 416.204 3.78796 0.981303 0
M  V30 4242 H 415.827 3.06271 2.53543 0
M  V30 4243 N 416.824 -0.551391 1.4764 0
M  V30 4244 C 417.787 -1.64007 1.60107 0
M  V30 4245 C 418.787 -1.53601 0.47576 0
M  V30 4246 O 419.977 -1.57655 0.740988 0
M  V30 4247 C 417.109 -3.03569 1.55108 0
M  V30 4248 H 418.302 -1.543 2.57161 0
M  V30 4249 H 415.855 -0.771776 1.35917 0
M  V30 4250 H 416.59 -3.18804 0.594519 0
M  V30 4251 H 416.375 -3.12532 2.36783 0
M  V30 4252 H 417.865 -3.82762 1.66982 0
M  V30 4253 N 418.302 -1.35869 -0.798587 0
M  V30 4254 C 419.713 -1.26498 -1.37314 0
M  V30 4255 C 420.064 0.0991899 -1.95949 0
M  V30 4256 O 419.189 1.0004 -1.91888 0
M  V30 4257 C 419.784 -2.29054 -2.49639 0
M  V30 4258 C 418.343 -2.234 -3.02935 0
M  V30 4259 C 417.49 -2.14329 -1.75949 0
M  V30 4260 H 420.441 -1.46881 -0.600971 0
M  V30 4261 H 420.462 -1.92166 -3.28409 0
M  V30 4262 H 419.974 -3.2833 -2.06933 0
M  V30 4263 H 418.075 -1.27562 -3.50084 0
M  V30 4264 H 418.188 -3.15703 -3.60372 0
M  V30 4265 H 416.552 -1.60435 -1.9782 0
M  V30 4266 H 417.335 -3.15477 -1.35384 0
M  V30 4267 N 419.78 1.02168 -1.19998 0
M  V30 4268 C 421.196 1.27969 -0.953737 0
M  V30 4269 C 421.396 1.98079 0.369703 0
M  V30 4270 O 420.452 2.27306 1.09947 0
M  V30 4271 C 421.765 2.11971 -2.13281 0
M  V30 4272 C 423.313 2.25255 -2.17323 0
M  V30 4273 C 423.788 3.12632 -3.34702 0
M  V30 4274 N 425.279 3.2022 -3.34684 0
M  V30 4275 C 426.014 3.88039 -4.22153 0
M  V30 4276 N 425.51 4.58027 -5.19791 0
M  V30 4277 N 427.303 3.84511 -4.10009 0
M  V30 4278 H 419.454 0.550794 -2.05134 0
M  V30 4279 H 421.717 0.305683 -0.897364 0
M  V30 4280 H 421.423 1.67785 -3.09097 0
M  V30 4281 H 421.297 3.12699 -2.10949 0
M  V30 4282 H 423.684 2.68667 -1.22073 0
M  V30 4283 H 423.765 1.24053 -2.23706 0
M  V30 4284 H 423.409 2.69926 -4.30235 0
M  V30 4285 H 423.339 4.13909 -3.25556 0
M  V30 4286 H 425.83 2.70382 -2.64012 0
M  V30 4287 H 426.143 5.07429 -5.82868 0
M  V30 4288 H 424.488 4.56869 -5.23733 0
M  V30 4289 H 427.679 3.28978 -3.33003 0
M  V30 4290 H 427.852 4.3709 -4.78389 0
M  V30 4291 N 421.258 1.00505 1.21394 0
M  V30 4292 C 422.168 0.574806 2.27449 0
M  V30 4293 C 423.184 -0.382206 1.6975 0
M  V30 4294 O 424.36 -0.246027 1.99892 0
M  V30 4295 C 421.425 -0.0917414 3.46579 0
M  V30 4296 C 420.486 0.909758 4.1955 0
M  V30 4297 C 419.719 0.274924 5.32991 0
M  V30 4298 O 419.942 -0.928254 5.62796 0
M  V30 4299 O 418.876 0.985877 5.93771 0
M  V30 4300 H 422.702 1.45744 2.66444 0
M  V30 4301 H 420.287 0.773923 1.27792 0
M  V30 4302 H 422.169 -0.464551 4.18832 0
M  V30 4303 H 420.844 -0.948755 3.09484 0
M  V30 4304 H 419.751 1.33372 3.49518 0
M  V30 4305 H 421.084 1.73636 4.60555 0
M  V30 4306 N 422.737 -1.36956 0.779787 0
M  V30 4307 C 423.67 -2.27896 0.117681 0
M  V30 4308 C 424.648 -1.46736 -0.700523 0
M  V30 4309 O 425.832 -1.76055 -0.673568 0
M  V30 4310 C 422.959 -3.28136 -0.839296 0
M  V30 4311 C 422.005 -4.26373 -0.10409 0
M  V30 4312 S 422.838 -5.2157 1.21348 0
M  V30 4313 C 423.994 -6.25359 0.260249 0
M  V30 4314 H 424.227 -2.83704 0.888778 0
M  V30 4315 H 421.76 -1.43352 0.57355 0
M  V30 4316 H 423.718 -3.86394 -1.38601 0
M  V30 4317 H 422.379 -2.7126 -1.58356 0
M  V30 4318 H 421.572 -4.97121 -0.82986 0
M  V30 4319 H 421.174 -3.72147 0.371858 0
M  V30 4320 H 423.466 -6.75145 -0.564435 0
M  V30 4321 H 424.409 -7.01885 0.936135 0
M  V30 4322 H 424.817 -5.64345 -0.132127 0
M  V30 4323 N 424.215 -0.530993 -1.48385 0
M  V30 4324 C 425.162 0.231223 -2.29639 0
M  V30 4325 C 426.132 0.932864 -1.37429 0
M  V30 4326 O 427.317 0.933692 -1.66394 0
M  V30 4327 C 424.457 1.27155 -3.2082 0
M  V30 4328 C 423.57 0.578655 -4.28107 0
M  V30 4329 C 422.705 1.602 -5.06467 0
M  V30 4330 C 421.744 0.892625 -6.05556 0
M  V30 4331 N 420.881 1.86157 -6.76971 0
M  V30 4332 H 425.721 -0.467848 -2.94305 0
M  V30 4333 H 423.258 -0.242556 -1.45086 0
M  V30 4334 H 425.216 1.88703 -3.72085 0
M  V30 4335 H 423.846 1.939 -2.58075 0
M  V30 4336 H 422.898 -0.150782 -3.80101 0
M  V30 4337 H 424.21 0.0217065 -4.98795 0
M  V30 4338 H 423.364 2.29173 -5.61751 0
M  V30 4339 H 422.103 2.19285 -4.35621 0
M  V30 4340 H 421.108 0.188829 -5.49476 0
M  V30 4341 H 422.333 0.307878 -6.78402 0
M  V30 4342 H 420.279 2.44147 -6.08875 0
M  V30 4343 H 420.196 1.35608 -7.43738 0
M  V30 4344 H 421.464 2.54325 -7.36844 0
M  V30 4345 N 425.693 1.55336 -0.266172 0
M  V30 4346 C 426.941 1.99003 0.35246 0
M  V30 4347 C 427.262 1.15591 1.57047 0
M  V30 4348 O 426.532 0.243268 1.94384 0
M  V30 4349 H 425.112 0.735025 0.133217 0
M  V30 4350 H 427.774 1.91367 -0.369434 0
M  V30 4351 H 426.87 3.05289 0.648453 0
M  V30 4352 N 427.171 -0.0066808 1.57599 0
M  V30 4353 C 428.399 -0.704087 1.94551 0
M  V30 4354 C 428.814 -1.67677 0.867746 0
M  V30 4355 O 428.171 -1.8185 -0.153925 0
M  V30 4356 C 428.222 -1.44177 3.31505 0
M  V30 4357 O 427.943 -0.508097 4.35144 0
M  V30 4358 C 429.444 -2.23429 3.82876 0
M  V30 4359 H 426.664 -0.196523 0.641576 0
M  V30 4360 H 429.208 0.042453 2.04456 0
M  V30 4361 H 427.363 -2.13999 3.22929 0
M  V30 4362 H 427.777 -1.02782 5.14331 0
M  V30 4363 H 429.251 -2.70552 4.8115 0
M  V30 4364 H 429.728 -3.05818 3.15233 0
M  V30 4365 H 430.334 -1.58636 3.94607 0
M  V30 4366 N 428.649 -1.55105 -0.279332 0
M  V30 4367 C 429.582 -1.82467 -1.37044 0
M  V30 4368 C 430.56 -0.677261 -1.47824 0
M  V30 4369 O 431.744 -0.919578 -1.64548 0
M  V30 4370 C 428.871 -1.98066 -2.7475 0
M  V30 4371 C 427.917 -3.20594 -2.81286 0
M  V30 4372 S 428.75 -4.78116 -2.41175 0
M  V30 4373 C 429.906 -4.9668 -3.80867 0
M  V30 4374 H 430.139 -2.74728 -1.1363 0
M  V30 4375 H 427.672 -1.46794 -0.478625 0
M  V30 4376 H 429.63 -2.07739 -3.54055 0
M  V30 4377 H 428.291 -1.06704 -2.9542 0
M  V30 4378 H 427.484 -3.28376 -3.82341 0
M  V30 4379 H 427.086 -3.09479 -2.09996 0
M  V30 4380 H 429.378 -4.82033 -4.76078 0
M  V30 4381 H 430.321 -5.98741 -3.78041 0
M  V30 4382 H 430.729 -4.24698 -3.71876 0
M  V30 4383 N 430.127 0.543554 -1.4793 0
M  V30 4384 C 431.074 1.64942 -1.6144 0
M  V30 4385 C 432.044 1.59692 -0.456903 0
M  V30 4386 O 433.229 1.78321 -0.678688 0
M  V30 4387 C 430.369 3.03238 -1.64744 0
M  V30 4388 C 429.482 3.18823 -2.91506 0
M  V30 4389 C 428.617 4.47599 -2.86057 0
M  V30 4390 C 427.656 4.56664 -4.07584 0
M  V30 4391 N 426.793 5.76811 -4.00292 0
M  V30 4392 H 431.633 1.52733 -2.55884 0
M  V30 4393 H 429.17 0.7438 -1.2691 0
M  V30 4394 H 431.128 3.83339 -1.64641 0
M  V30 4395 H 429.758 3.1425 -0.738017 0
M  V30 4396 H 428.81 2.32064 -3.01414 0
M  V30 4397 H 430.122 3.21384 -3.81463 0
M  V30 4398 H 429.276 5.35975 -2.84281 0
M  V30 4399 H 428.015 4.47538 -1.93807 0
M  V30 4400 H 427.02 3.66697 -4.09651 0
M  V30 4401 H 428.245 4.58474 -5.00978 0
M  V30 4402 H 426.191 5.77673 -3.10853 0
M  V30 4403 H 426.108 5.80808 -4.8394 0
M  V30 4404 H 427.376 6.67512 -4.02553 0
M  V30 4405 N 431.605 1.3629 0.791371 0
M  V30 4406 C 433.016 1.27225 1.36641 0
M  V30 4407 C 433.367 -0.0887968 1.95999 0
M  V30 4408 O 432.492 -0.990207 1.92416 0
M  V30 4409 C 433.087 2.30375 2.48421 0
M  V30 4410 C 431.646 2.25004 3.01746 0
M  V30 4411 C 430.793 2.15259 1.7481 0
M  V30 4412 H 433.744 1.47198 0.593173 0
M  V30 4413 H 433.765 1.93905 3.27385 0
M  V30 4414 H 433.277 3.29422 2.05189 0
M  V30 4415 H 431.378 1.29417 3.49403 0
M  V30 4416 H 431.491 3.1761 3.58693 0
M  V30 4417 H 429.855 1.61482 1.96966 0
M  V30 4418 H 430.638 3.16191 1.33709 0
M  V30 4419 N 433.083 -1.0153 1.20538 0
M  V30 4420 C 434.329 -1.75408 1.01783 0
M  V30 4421 C 434.662 -1.88943 -0.448814 0
M  V30 4422 O 433.937 -1.4162 -1.33319 0
M  V30 4423 C 434.22 -3.17255 1.70356 0
M  V30 4424 C 434.073 -3.11508 3.24473 0
M  V30 4425 C 435.392 -4.15955 1.43769 0
M  V30 4426 H 432.511 -0.636713 0.371167 0
M  V30 4427 H 435.153 -1.18436 1.4857 0
M  V30 4428 H 433.303 -3.65898 1.30578 0
M  V30 4429 H 434.975 -2.70658 3.73553 0
M  V30 4430 H 433.218 -2.4887 3.55311 0
M  V30 4431 H 433.889 -4.11784 3.67611 0
M  V30 4432 H 436.365 -3.75973 1.7828 0
M  V30 4433 H 435.241 -5.13368 1.94279 0
M  V30 4434 H 435.502 -4.40586 0.365564 0
M  V30 4435 N 434.561 -1.01147 -1.20859 0
M  V30 4436 C 435.524 -0.582224 -2.21682 0
M  V30 4437 C 436.524 0.344887 -1.57058 0
M  V30 4438 O 437.714 0.134281 -1.73682 0
M  V30 4439 C 434.846 0.150496 -3.40568 0
M  V30 4440 H 436.039 -1.47408 -2.61172 0
M  V30 4441 H 433.592 -0.800695 -1.34233 0
M  V30 4442 H 434.327 1.0575 -3.06574 0
M  V30 4443 H 434.112 -0.515444 -3.88697 0
M  V30 4444 H 435.602 0.438344 -4.15293 0
M  V30 4445 N 436.039 1.36541 -0.78704 0
M  V30 4446 C 437.286 1.99304 -0.358341 0
M  V30 4447 C 437.614 1.62467 1.06933 0
M  V30 4448 O 436.869 0.870019 1.75297 0
M  V30 4449 C 437.168 3.54343 -0.466485 0
M  V30 4450 C 436.834 4.10993 -1.85461 0
M  V30 4451 C 435.496 4.26177 -2.23443 0
M  V30 4452 C 437.848 4.41895 -2.76366 0
M  V30 4453 C 435.176 4.69573 -3.51736 0
M  V30 4454 C 437.528 4.86722 -4.04084 0
M  V30 4455 C 436.192 5.00112 -4.42091 0
M  V30 4456 H 435.462 0.729306 -0.131126 0
M  V30 4457 H 438.109 1.63068 -1.00404 0
M  V30 4458 H 436.414 3.90918 0.262719 0
M  V30 4459 H 438.111 4.00833 -0.115854 0
M  V30 4460 H 434.701 3.99612 -1.54946 0
M  V30 4461 H 438.885 4.29735 -2.48277 0
M  V30 4462 H 434.141 4.78127 -3.81057 0
M  V30 4463 H 438.315 5.09598 -4.7464 0
M  V30 4464 H 435.942 5.33498 -5.41557 0
M  V30 4465 N 437.518 0.538854 1.48102 0
M  V30 4466 C 438.795 -0.0568108 1.95517 0
M  V30 4467 C 439.175 -1.50408 1.48124 0
M  V30 4468 O 438.523 -2.17133 0.711727 0
M  V30 4469 C 438.733 0.0696262 3.48931 0
M  V30 4470 C 440.081 -0.0851202 4.24515 0
M  V30 4471 O 441.105 -0.0037347 3.562 0
M  V30 4472 O 439.964 -0.257025 5.45895 0
M  V30 4473 H 437.058 -0.0743695 0.823649 0
M  V30 4474 H 439.604 0.604081 1.58584 0
M  V30 4475 H 438.376 1.07744 3.76174 0
M  V30 4476 H 437.999 -0.629714 3.92582 0
M  V30 4477 N 438.996 -1.55193 0.274407 0
M  V30 4478 C 439.946 -2.19184 -0.627882 0
M  V30 4479 C 440.93 -1.15625 -1.11892 0
M  V30 4480 O 442.122 -1.41441 -1.06411 0
M  V30 4481 C 439.251 -2.91591 -1.81189 0
M  V30 4482 C 438.337 -4.02438 -1.33807 0
M  V30 4483 N 438.728 -5.0246 -0.580349 0
M  V30 4484 C 437.026 -4.15496 -1.62109 0
M  V30 4485 C 437.727 -5.80756 -0.331344 0
M  V30 4486 N 436.703 -5.36038 -0.903556 0
M  V30 4487 H 440.505 -2.93871 -0.0411216 0
M  V30 4488 H 438.019 -1.62213 0.0779348 0
M  V30 4489 H 440.016 -3.35883 -2.46957 0
M  V30 4490 H 438.676 -2.18414 -2.40261 0
M  V30 4491 H 439.687 -5.17399 -0.227762 0
M  V30 4492 H 436.364 -3.53509 -2.22121 0
M  V30 4493 H 437.754 -6.71335 0.275454 0
M  V30 4494 N 440.474 -0.00167713 -1.576 0
M  V30 4495 C 441.421 0.989195 -2.08527 0
M  V30 4496 C 442.391 1.34031 -0.981065 0
M  V30 4497 O 443.576 1.43839 -1.2536 0
M  V30 4498 C 440.716 2.27537 -2.59463 0
M  V30 4499 C 439.829 1.98314 -3.83791 0
M  V30 4500 C 438.964 3.21025 -4.23222 0
M  V30 4501 C 438.003 2.87495 -5.40382 0
M  V30 4502 N 437.14 4.02749 -5.75098 0
M  V30 4503 H 441.98 0.547973 -2.92919 0
M  V30 4504 H 439.517 0.258917 -1.44803 0
M  V30 4505 H 441.475 3.02729 -2.87073 0
M  V30 4506 H 440.105 2.69325 -1.77943 0
M  V30 4507 H 439.157 1.13482 -3.63078 0
M  V30 4508 H 440.469 1.69601 -4.69081 0
M  V30 4509 H 439.623 4.04561 -4.52123 0
M  V30 4510 H 438.362 3.52877 -3.36644 0
M  V30 4511 H 437.367 2.02367 -5.11202 0
M  V30 4512 H 438.592 2.56889 -6.28637 0
M  V30 4513 H 436.538 4.34494 -4.91478 0
M  V30 4514 H 436.455 3.77566 -6.54966 0
M  V30 4515 H 437.723 4.87068 -6.08592 0
M  V30 4516 N 441.952 1.55251 0.271103 0
M  V30 4517 C 442.915 1.87484 1.31842 0
M  V30 4518 C 443.915 0.749545 1.42262 0
M  V30 4519 O 445.105 1.01771 1.4138 0
M  V30 4520 C 442.237 2.0818 2.69951 0
M  V30 4521 H 443.43 2.81108 1.0449 0
M  V30 4522 H 440.983 1.47771 0.509258 0
M  V30 4523 H 441.718 1.16944 3.02481 0
M  V30 4524 H 441.503 2.90114 2.63774 0
M  V30 4525 H 442.993 2.34385 3.4562 0
M  V30 4526 N 443.43 -0.535701 1.48216 0
M  V30 4527 C 444.38 -1.63688 1.58714 0
M  V30 4528 C 445.364 -1.54635 0.444615 0
M  V30 4529 O 446.556 -1.62753 0.695742 0
M  V30 4530 C 443.685 -3.02423 1.62466 0
M  V30 4531 C 442.771 -3.16601 2.82178 0
M  V30 4532 N 443.162 -3.00771 4.06658 0
M  V30 4533 C 441.46 -3.47645 2.79391 0
M  V30 4534 C 442.161 -3.18213 4.86945 0
M  V30 4535 N 441.137 -3.45528 4.19656 0
M  V30 4536 H 444.939 -1.5005 2.5271 0
M  V30 4537 H 442.453 -0.741018 1.44508 0
M  V30 4538 H 444.45 -3.81517 1.6808 0
M  V30 4539 H 443.11 -3.17157 0.695826 0
M  V30 4540 H 444.121 -2.77652 4.37184 0
M  V30 4541 H 440.798 -3.68771 1.95739 0
M  V30 4542 H 442.188 -3.1076 5.95716 0
M  V30 4543 N 444.908 -1.36708 -0.784132 0
M  V30 4544 C 445.818 -1.3363 -1.92822 0
M  V30 4545 C 446.834 -0.237686 -1.72369 0
M  V30 4546 O 448.01 -0.470962 -1.95816 0
M  V30 4547 C 445.075 -1.13011 -3.27764 0
M  V30 4548 C 444.136 -2.32397 -3.60957 0
M  V30 4549 C 443.369 -2.12752 -4.89461 0
M  V30 4550 O 443.592 -1.10541 -5.59586 0
M  V30 4551 O 442.526 -3.00653 -5.21432 0
M  V30 4552 H 446.352 -2.29964 -1.98369 0
M  V30 4553 H 443.937 -1.1731 -0.925136 0
M  V30 4554 H 445.819 -1.03451 -4.08504 0
M  V30 4555 H 444.494 -0.19743 -3.23097 0
M  V30 4556 H 443.401 -2.47527 -2.80502 0
M  V30 4557 H 444.734 -3.2419 -3.70354 0
M  V30 4558 N 446.386 1.0089 -1.21074 0
M  V30 4559 C 447.349 2.0775 -0.968129 0
M  V30 4560 C 448.349 1.6069 0.0593445 0
M  V30 4561 O 449.539 1.73293 -0.177525 0
M  V30 4562 C 446.671 3.37794 -0.459108 0
M  V30 4563 H 447.864 2.30707 -1.9161 0
M  V30 4564 H 445.417 1.17807 -1.02719 0
M  V30 4565 H 446.152 3.20516 0.49397 0
M  V30 4566 H 445.937 3.7328 -1.20019 0
M  V30 4567 H 447.427 4.16454 -0.309099 0
M  V30 4568 N 447.864 1.01787 1.20321 0
M  V30 4569 C 448.811 0.589197 2.23153 0
M  V30 4570 C 449.781 -0.391367 1.61423 0
M  V30 4571 O 450.966 -0.290518 1.88575 0
M  V30 4572 C 448.106 -0.0650747 3.45039 0
M  V30 4573 C 447.219 0.960207 4.21194 0
M  V30 4574 C 446.354 0.276854 5.30478 0
M  V30 4575 C 445.393 1.2888 5.98378 0
M  V30 4576 N 444.53 0.632031 6.99249 0
M  V30 4577 H 449.37 1.47071 2.59179 0
M  V30 4578 H 446.907 0.736192 1.27352 0
M  V30 4579 H 448.865 -0.461552 4.14639 0
M  V30 4580 H 447.495 -0.910233 3.09701 0
M  V30 4581 H 446.547 1.47484 3.50646 0
M  V30 4582 H 447.859 1.72977 4.67847 0
M  V30 4583 H 447.013 -0.175056 6.06447 0
M  V30 4584 H 445.752 -0.525004 4.84866 0
M  V30 4585 H 444.757 1.75109 5.21169 0
M  V30 4586 H 445.982 2.09196 6.46076 0
M  V30 4587 H 443.928 -0.149935 6.55829 0
M  V30 4588 H 443.845 1.33964 7.44036 0
M  V30 4589 H 445.113 0.203755 7.79234 0
M  V30 4590 N 449.342 -1.36122 0.79427 0
M  V30 4591 C 450.305 -2.28309 0.201889 0
M  V30 4592 C 451.305 -1.49041 -0.603603 0
M  V30 4593 O 452.495 -1.68964 -0.423888 0
M  V30 4594 C 449.627 -3.3321 -0.719978 0
M  V30 4595 H 450.82 -2.82208 1.01481 0
M  V30 4596 H 448.373 -1.45768 0.564037 0
M  V30 4597 H 449.108 -2.84475 -1.55706 0
M  V30 4598 H 448.893 -3.91835 -0.144266 0
M  V30 4599 H 450.383 -4.02044 -1.12916 0
M  V30 4600 N 450.82 -0.546701 -1.47814 0
M  V30 4601 C 451.768 0.220048 -2.31557 0
M  V30 4602 C 452.762 0.919472 -1.42275 0
M  V30 4603 O 453.968 0.841953 -1.59095 0
M  V30 4604 H 450.343 0.0898334 -0.746615 0
M  V30 4605 H 452.314 -0.505589 -2.94086 0
M  V30 4606 C 451.063 1.24353 -3.24702 0
M  V30 4607 H 450.386 0.714758 -3.93359 0
M  V30 4608 H 451.826 1.75112 -3.8615 0
M  V30 4609 C 450.285 2.28593 -2.47481 0
M  V30 4610 O 450.815 3.35334 -2.21165 0
M  V30 4611 N 449.021 2.02244 -2.08676 0
M  V30 4612 H 448.568 1.15455 -2.30278 0
M  V30 4613 H 448.526 2.72207 -1.57323 0
M  V30 4614 N 452.299 1.55045 -0.282633 0
M  V30 4615 C 453.576 1.9179 0.384166 0
M  V30 4616 C 453.956 1.20778 1.73136 0
M  V30 4617 O 453.304 0.33719 2.25998 0
M  V30 4618 C 453.514 3.45149 0.517014 0
M  V30 4619 C 454.862 4.17064 0.796427 0
M  V30 4620 O 455.886 3.51084 0.601535 0
M  V30 4621 O 454.745 5.33837 1.16962 0
M  V30 4622 H 451.839 0.799483 0.211558 0
M  V30 4623 H 454.385 1.66474 -0.32934 0
M  V30 4624 H 453.157 3.88922 -0.430772 0
M  V30 4625 H 452.78 3.76443 1.2797 0
M  V30 4626 N 453.777 0.010035 1.57597 0
M  V30 4627 C 455.017 -0.677084 1.9286 0
M  V30 4628 C 455.381 -1.70377 0.885192 0
M  V30 4629 O 456.582 -2.44199 1.12339 0
M  V30 4630 C 454.853 -1.29452 3.33132 0
M  V30 4631 S 456.412 -2.00537 3.90295 0
M  V30 4632 H 453.23 -0.223409 0.674989 0
M  V30 4633 H 455.832 0.0691289 1.95378 0
M  V30 4634 H 454.536 -0.534593 4.06903 0
M  V30 4635 H 454.067 -2.07845 3.34012 0
M  V30 4636 H 456.082 -3.28168 3.72183 0
M  V30 4637 N 455.255 -1.55392 -0.262866 0
M  V30 4638 C 456.671 -1.47459 -0.610582 0
M  V30 4639 C 456.871 -0.697031 -1.8906 0
M  V30 4640 O 455.927 -0.219952 -2.5154 0
M  V30 4641 C 457.24 -2.91751 -0.728131 0
M  V30 4642 C 458.788 -3.02027 -0.821517 0
M  V30 4643 C 459.263 -4.47594 -0.97076 0
M  V30 4644 N 460.754 -4.51465 -1.03603 0
M  V30 4645 C 461.489 -5.61326 -1.17049 0
M  V30 4646 N 460.985 -6.81032 -1.2715 0
M  V30 4647 N 462.778 -5.49089 -1.20239 0
M  V30 4648 H 454.929 -2.04395 0.577632 0
M  V30 4649 H 457.192 -0.927287 0.197086 0
M  V30 4650 H 456.898 -3.51413 0.142132 0
M  V30 4651 H 456.772 -3.4134 -1.6052 0
M  V30 4652 H 459.159 -2.42456 -1.68224 0
M  V30 4653 H 459.24 -2.55674 0.0803688 0
M  V30 4654 H 458.884 -5.07771 -0.114655 0
M  V30 4655 H 458.814 -4.91613 -1.88745 0
M  V30 4656 H 461.305 -3.6524 -0.96996 0
M  V30 4657 H 461.618 -7.60511 -1.37271 0
M  V30 4658 H 459.963 -6.83824 -1.24136 0
M  V30 4659 H 463.154 -4.54507 -1.11985 0
M  V30 4660 H 463.327 -6.34749 -1.30373 0
M  V30 4661 N 456.733 0.527833 -1.48498 0
M  V30 4662 C 457.961 1.30823 -1.6029 0
M  V30 4663 C 458.376 1.86945 -0.263974 0
M  V30 4664 O 457.733 1.6651 0.747034 0
M  V30 4665 C 457.784 2.45756 -2.65116 0
M  V30 4666 O 457.505 1.91946 -3.93813 0
M  V30 4667 C 459.006 3.37543 -2.87367 0
M  V30 4668 H 456.226 0.397763 -0.540394 0
M  V30 4669 H 458.77 0.636529 -1.94341 0
M  V30 4670 H 456.925 3.08806 -2.33917 0
M  V30 4671 H 457.339 2.67195 -4.51339 0
M  V30 4672 H 458.813 4.14532 -3.6451 0
M  V30 4673 H 459.29 3.92905 -1.9627 0
M  V30 4674 H 459.896 2.80283 -3.19878 0
M  V30 4675 N 458.211 1.37122 0.776871 0
M  V30 4676 C 459.451 1.33441 1.54831 0
M  V30 4677 C 459.815 -0.0818963 1.91825 0
M  V30 4678 O 461.016 -0.24338 2.67696 0
M  V30 4679 C 459.287 2.24267 2.78279 0
M  V30 4680 S 460.846 2.38389 3.68397 0
M  V30 4681 H 457.664 0.473791 0.530135 0
M  V30 4682 H 460.266 1.7282 0.913968 0
M  V30 4683 H 458.97 3.261 2.49173 0
M  V30 4684 H 458.501 1.85953 3.46677 0
M  V30 4685 H 460.516 1.59068 4.70013 0
M  V30 4686 N 459.689 -1.00246 1.21608 0
M  V30 4687 C 460.639 -2.07492 0.945051 0
M  V30 4688 C 461.623 -1.60585 -0.100675 0
M  V30 4689 O 462.815 -1.76667 0.10859 0
M  V30 4690 C 459.944 -3.39425 0.514342 0
M  V30 4691 C 459.03 -3.92993 1.59428 0
M  V30 4692 N 459.421 -4.19898 2.81991 0
M  V30 4693 C 457.719 -4.21297 1.46374 0
M  V30 4694 C 458.42 -4.63297 3.51754 0
M  V30 4695 N 457.396 -4.66421 2.79199 0
M  V30 4696 H 461.198 -2.26222 1.87619 0
M  V30 4697 H 458.712 -1.18339 1.11219 0
M  V30 4698 H 460.709 -4.15808 0.301527 0
M  V30 4699 H 459.369 -3.22101 -0.410008 0
M  V30 4700 H 460.38 -4.08377 3.1851 0
M  V30 4701 H 457.057 -4.13095 0.604863 0
M  V30 4702 H 458.447 -4.92816 4.56708 0
M  V30 4703 N 461.167 -1.02423 -1.1978 0
M  V30 4704 C 462.117 -0.571689 -2.20716 0
M  V30 4705 C 463.101 0.377077 -1.56419 0
M  V30 4706 O 464.293 0.198801 -1.7588 0
M  V30 4707 C 461.422 0.0808555 -3.43205 0
M  V30 4708 C 460.508 -0.890073 -4.14655 0
M  V30 4709 N 460.899 -2.05065 -4.62366 0
M  V30 4710 C 459.197 -0.71252 -4.40272 0
M  V30 4711 C 459.898 -2.66264 -5.17183 0
M  V30 4712 N 458.874 -1.94264 -5.07703 0
M  V30 4713 H 462.676 -1.45636 -2.55279 0
M  V30 4714 H 460.19 -0.890596 -1.35802 0
M  V30 4715 H 462.187 0.422654 -4.14752 0
M  V30 4716 H 460.847 0.961274 -3.10144 0
M  V30 4717 H 461.858 -2.43026 -4.57339 0
M  V30 4718 H 458.535 0.119199 -4.1733 0
M  V30 4719 H 459.925 -3.64526 -5.64421 0
M  V30 4720 N 462.645 1.35699 -0.801477 0
M  V30 4721 C 463.891 1.99208 -0.380022 0
M  V30 4722 C 464.224 1.63445 1.04878 0
M  V30 4723 O 463.499 0.895223 1.72673 0
M  V30 4724 C 463.782 3.55755 -0.557708 0
M  V30 4725 C 463.635 4.01332 -2.03107 0
M  V30 4726 C 464.954 4.40096 0.0197968 0
M  V30 4727 H 462.073 0.723667 -0.139552 0
M  V30 4728 H 464.715 1.60928 -1.01006 0
M  V30 4729 H 462.865 3.88494 -0.0213741 0
M  V30 4730 H 464.537 3.79026 -2.62939 0
M  V30 4731 H 462.78 3.52429 -2.52936 0
M  V30 4732 H 463.451 5.10234 -2.1063 0
M  V30 4733 H 465.927 4.13786 -0.438179 0
M  V30 4734 H 464.803 5.48735 -0.134477 0
M  V30 4735 H 465.064 4.2786 1.11303 0
M  V30 4736 N 464.123 0.554532 1.47522 0
M  V30 4737 C 465.539 0.214107 1.58157 0
M  V30 4738 C 465.739 -1.28331 1.55349 0
M  V30 4739 O 464.795 -2.06329 1.45549 0
M  V30 4740 C 466.108 0.838391 2.88776 0
M  V30 4741 C 467.656 0.809374 3.02354 0
M  V30 4742 C 468.131 1.41268 4.35669 0
M  V30 4743 N 469.622 1.37574 4.42298 0
M  V30 4744 C 470.357 1.8122 5.4401 0
M  V30 4745 N 469.853 2.3271 6.52547 0
M  V30 4746 N 471.646 1.72307 5.35039 0
M  V30 4747 H 463.797 1.52744 1.4759 0
M  V30 4748 H 466.06 0.636812 0.702264 0
M  V30 4749 H 465.766 1.89065 2.96559 0
M  V30 4750 H 465.64 0.329847 3.75755 0
M  V30 4751 H 468.027 -0.234187 2.94169 0
M  V30 4752 H 468.108 1.35565 2.16924 0
M  V30 4753 H 467.752 2.45529 4.4461 0
M  V30 4754 H 467.682 0.841871 5.19827 0
M  V30 4755 H 470.173 0.999081 3.64454 0
M  V30 4756 H 470.486 2.63944 7.26329 0
M  V30 4757 H 468.831 2.36719 6.53444 0
M  V30 4758 H 472.022 1.3186 4.49144 0
M  V30 4759 H 472.195 2.06641 6.14169 0
M  V30 4760 N 465.601 -1.54893 0.290851 0
M  V30 4761 C 466.85 -1.99111 -0.322113 0
M  V30 4762 C 467.163 -1.18283 -1.55784 0
M  V30 4763 O 468.369 -1.5272 -2.24475 0
M  V30 4764 C 466.825 -3.54442 -0.624438 0
M  V30 4765 C 466.433 -4.44066 0.592373 0
M  V30 4766 C 468.177 -4.07211 -1.19916 0
M  V30 4767 C 466.084 -5.90812 0.263762 0
M  V30 4768 H 465.014 -0.743712 -0.124133 0
M  V30 4769 H 467.665 -1.79132 0.39797 0
M  V30 4770 H 466.047 -3.70281 -1.40384 0
M  V30 4771 H 467.221 -4.39999 1.36886 0
M  V30 4772 H 465.536 -4.02015 1.08502 0
M  V30 4773 H 468.133 -5.14407 -1.45909 0
M  V30 4774 H 468.476 -3.57196 -2.13815 0
M  V30 4775 H 469.009 -3.94873 -0.481687 0
M  V30 4776 H 465.748 -6.44955 1.17105 0
M  V30 4777 H 465.268 -5.97911 -0.475655 0
M  V30 4778 H 466.947 -6.46852 -0.138354 0
M  V30 4779 N 467.08 -0.0183926 -1.57589 0
M  V30 4780 C 468.357 0.700621 -1.82622 0
M  V30 4781 C 468.737 1.90951 -0.90005 0
M  V30 4782 O 468.085 2.28452 0.0469145 0
M  V30 4783 C 468.295 1.08899 -3.31575 0
M  V30 4784 C 469.643 1.48514 -3.9778 0
M  V30 4785 O 470.667 1.18227 -3.36007 0
M  V30 4786 O 469.526 2.04903 -5.06633 0
M  V30 4787 H 466.62 0.342743 -0.752633 0
M  V30 4788 H 469.166 -0.0452548 -1.6964 0
M  V30 4789 H 467.938 0.228113 -3.90635 0
M  V30 4790 H 467.561 1.89338 -3.49624 0
M  V30 4791 N 468.558 1.5553 0.254621 0
M  V30 4792 C 469.786 1.81046 1.00149 0
M  V30 4793 C 470.201 0.593047 1.79244 0
M  V30 4794 O 469.558 -0.438196 1.77161 0
M  V30 4795 C 469.609 3.04684 1.94551 0
M  V30 4796 O 469.33 4.21725 1.18658 0
M  V30 4797 C 470.831 3.42943 2.80901 0
M  V30 4798 H 468.051 0.602653 0.295044 0
M  V30 4799 H 470.595 2.02576 0.279842 0
M  V30 4800 H 468.75 2.85226 2.62154 0
M  V30 4801 H 469.164 4.91746 1.82445 0
M  V30 4802 H 470.638 4.32576 3.42902 0
M  V30 4803 H 471.115 2.63176 3.51617 0
M  V30 4804 H 471.721 3.64724 2.18762 0
M  V30 4805 N 470.036 -0.519951 1.48776 0
M  V30 4806 C 471.276 -1.2856 1.58908 0
M  V30 4807 C 471.64 -1.90212 0.261418 0
M  V30 4808 O 472.841 -2.67746 0.237791 0
M  V30 4809 C 471.112 -2.33836 2.70288 0
M  V30 4810 S 472.671 -3.19992 3.0025 0
M  V30 4811 H 469.489 -0.43717 0.560717 0
M  V30 4812 H 472.091 -0.591205 1.86346 0
M  V30 4813 H 470.795 -1.87041 3.653 0
M  V30 4814 H 470.326 -3.07969 2.44783 0
M  V30 4815 H 472.341 -4.34122 2.40317 0
M  V30 4816 N 471.514 -1.37532 -0.769588 0
M  V30 4817 C 472.742 -1.36059 -1.55871 0
M  V30 4818 C 473.157 0.053544 -1.88724 0
M  V30 4819 O 472.514 1.01591 -1.5161 0
M  V30 4820 C 472.565 -2.20107 -2.86767 0
M  V30 4821 O 472.286 -3.56009 -2.55321 0
M  V30 4822 C 473.787 -2.26636 -3.80987 0
M  V30 4823 H 471.007 -0.465967 -0.482821 0
M  V30 4824 H 473.551 -1.80901 -0.953686 0
M  V30 4825 H 471.706 -1.78768 -3.43687 0
M  V30 4826 H 472.12 -4.0009 -3.39158 0
M  V30 4827 H 473.594 -2.89763 -4.69831 0
M  V30 4828 H 474.071 -1.2754 -4.20274 0
M  V30 4829 H 474.677 -2.68296 -3.29996 0
M  V30 4830 N 472.992 0.995999 -1.22138 0
M  V30 4831 C 473.955 2.06711 -0.990109 0
M  V30 4832 C 474.955 1.60744 0.0422978 0
M  V30 4833 O 476.145 1.73095 -0.195895 0
M  V30 4834 C 473.277 3.37288 -0.49491 0
M  V30 4835 H 474.47 2.28661 -1.94047 0
M  V30 4836 H 472.023 1.16711 -1.03963 0
M  V30 4837 H 472.758 3.21022 0.459948 0
M  V30 4838 H 472.543 3.71986 -1.23971 0
M  V30 4839 H 474.033 4.16103 -0.353253 0
M  V30 4840 N 474.47 1.03057 1.19235 0
M  V30 4841 C 475.71 0.736757 1.9066 0
M  V30 4842 C 476.074 -0.721521 1.77927 0
M  V30 4843 O 477.275 -1.12849 2.43964 0
M  V30 4844 C 475.546 1.17755 3.37444 0
M  V30 4845 S 477.105 1.00783 4.27069 0
M  V30 4846 H 473.923 0.268174 0.658486 0
M  V30 4847 H 476.525 1.32076 1.4414 0
M  V30 4848 H 475.229 2.23448 3.44237 0
M  V30 4849 H 474.76 0.586912 3.88997 0
M  V30 4850 H 476.775 -0.0806356 4.96134 0
M  V30 4851 N 475.948 -1.35272 0.808662 0
M  V30 4852 C 476.898 -2.27181 0.193124 0
M  V30 4853 C 477.882 -1.47871 -0.634265 0
M  V30 4854 O 479.074 -1.70048 -0.491182 0
M  V30 4855 C 476.203 -3.36979 -0.655751 0
M  V30 4856 C 475.289 -4.23712 0.181481 0
M  V30 4857 N 475.68 -4.90225 1.24551 0
M  V30 4858 C 473.978 -4.45985 -0.0365493 0
M  V30 4859 C 474.679 -5.54537 1.75682 0
M  V30 4860 N 473.655 -5.33107 1.06294 0
M  V30 4861 H 477.457 -2.76101 1.00724 0
M  V30 4862 H 474.971 -1.48823 0.650029 0
M  V30 4863 H 476.968 -4.01774 -1.11279 0
M  V30 4864 H 475.628 -2.89611 -1.46819 0
M  V30 4865 H 476.639 -4.91641 1.62818 0
M  V30 4866 H 473.316 -4.09409 -0.817964 0
M  V30 4867 H 474.706 -6.17597 2.64621 0
M  V30 4868 N 477.426 -0.562348 -1.47226 0
M  V30 4869 C 478.654 -0.0452275 -2.06851 0
M  V30 4870 C 479.069 1.25078 -1.41424 0
M  V30 4871 O 478.426 1.75156 -0.512513 0
M  V30 4872 C 478.477 0.148674 -3.61194 0
M  V30 4873 O 478.198 -1.09602 -4.24169 0
M  V30 4874 C 479.699 0.702488 -4.37699 0
M  V30 4875 H 476.919 -0.0481775 -0.669268 0
M  V30 4876 H 479.463 -0.777223 -1.89155 0
M  V30 4877 H 477.618 0.830817 -3.78386 0
M  V30 4878 H 478.032 -0.896982 -5.16773 0
M  V30 4879 H 479.506 0.78743 -5.46355 0
M  V30 4880 H 479.983 1.71493 -4.04335 0
M  V30 4881 H 480.589 0.0558772 -4.25263 0
M  V30 4882 N 478.904 1.54736 -0.299062 0
M  V30 4883 C 480.15 2.00397 0.311244 0
M  V30 4884 C 480.483 1.18716 1.53688 0
M  V30 4885 O 479.758 0.263154 1.92712 0
M  V30 4886 C 480.041 3.53817 0.669761 0
M  V30 4887 C 479.894 4.46239 -0.564882 0
M  V30 4888 C 481.213 4.13856 1.49702 0
M  V30 4889 H 478.332 0.728493 0.111653 0
M  V30 4890 H 480.974 1.85506 -0.410774 0
M  V30 4891 H 479.124 3.66637 1.28491 0
M  V30 4892 H 480.796 4.45328 -1.20337 0
M  V30 4893 H 479.039 4.16916 -1.19849 0
M  V30 4894 H 479.71 5.5134 -0.269918 0
M  V30 4895 H 482.186 4.04461 0.977284 0
M  V30 4896 H 481.062 5.21365 1.71666 0
M  V30 4897 H 481.323 3.65608 2.48563 0
M  V30 4898 N 480.382 0.0267497 1.57577 0
M  V30 4899 C 481.33 -0.973923 2.11229 0
M  V30 4900 C 482.324 -1.33849 1.03831 0
M  V30 4901 O 483.53 -1.321 1.22269 0
M  V30 4902 H 479.905 -0.331844 0.674821 0
M  V30 4903 H 481.876 -0.496092 2.94247 0
M  V30 4904 C 480.625 -2.24798 2.65257 0
M  V30 4905 H 479.948 -1.9762 3.47543 0
M  V30 4906 H 481.388 -2.93031 3.06445 0
M  V30 4907 C 479.847 -2.97611 1.57891 0
M  V30 4908 O 480.377 -3.89629 0.97735 0
M  V30 4909 N 478.583 -2.59905 1.29992 0
M  V30 4910 H 478.13 -1.85154 1.79097 0
M  V30 4911 H 478.088 -3.08932 0.583798 0
M  V30 4912 N 481.861 -1.55662 -0.24637 0
M  V30 4913 C 483.109 -1.77168 -0.972411 0
M  V30 4914 C 483.43 -0.590827 -1.85834 0
M  V30 4915 O 482.7 0.393365 -1.9191 0
M  V30 4916 H 481.28 -0.653405 -0.362038 0
M  V30 4917 H 483.942 -1.93101 -0.264189 0
M  V30 4918 H 483.038 -2.68335 -1.59382 0
M  V30 4919 N 483.339 0.512053 -1.4905 0
M  V30 4920 C 484.567 1.29116 -1.61669 0
M  V30 4921 C 484.982 1.86655 -0.283787 0
M  V30 4922 O 484.339 1.67293 0.729331 0
M  V30 4923 C 484.39 2.4293 -2.67707 0
M  V30 4924 O 484.111 1.87758 -3.95826 0
M  V30 4925 C 485.612 3.34476 -2.90931 0
M  V30 4926 H 482.832 0.392009 -0.544583 0
M  V30 4927 H 485.376 0.615881 -1.95006 0
M  V30 4928 H 483.531 3.06308 -2.37179 0
M  V30 4929 H 483.945 2.62393 -4.54148 0
M  V30 4930 H 485.419 4.10642 -3.68886 0
M  V30 4931 H 485.896 3.90801 -2.00427 0
M  V30 4932 H 486.502 2.76874 -3.22832 0
M  V30 4933 N 484.817 1.37938 0.762283 0
M  V30 4934 C 485.78 1.34279 1.85747 0
M  V30 4935 C 486.78 0.244969 1.58923 0
M  V30 4936 O 487.97 0.501365 1.66829 0
M  V30 4937 C 485.102 1.08833 3.23061 0
M  V30 4938 H 486.295 2.31705 1.90401 0
M  V30 4939 H 483.848 1.23105 0.963057 0
M  V30 4940 H 484.583 0.119767 3.24079 0
M  V30 4941 H 484.368 1.88306 3.43923 0
M  V30 4942 H 485.858 1.08946 4.03138 0
M  V30 4943 N 486.295 -0.989507 1.22664 0
M  V30 4944 C 487.572 -1.70326 0.961688 0
M  V30 4945 C 487.952 -2.04537 -0.522279 0
M  V30 4946 O 487.3 -1.73136 -1.49118 0
M  V30 4947 C 487.51 -2.95135 1.86269 0
M  V30 4948 C 488.858 -3.67842 2.12078 0
M  V30 4949 O 489.882 -3.0515 1.83745 0
M  V30 4950 O 488.741 -4.80644 2.60083 0
M  V30 4951 H 485.835 -0.743589 0.361946 0
M  V30 4952 H 488.381 -1.04555 1.33665 0
M  V30 4953 H 487.153 -2.66382 2.8663 0
M  V30 4954 H 486.776 -3.68645 1.48952 0
M  V30 4955 N 487.773 -1.03688 -1.18687 0
M  V30 4956 C 488.998 -0.757819 -1.93059 0
M  V30 4957 C 489.423 0.678353 -1.75442 0
M  V30 4958 O 488.781 1.46938 -1.06203 0
M  V30 4959 C 488.829 -1.12423 -3.42627 0
M  V30 4960 O 487.933 -0.247505 -4.11657 0
M  V30 4961 H 487.274 -0.279245 -0.602427 0
M  V30 4962 H 489.804 -1.3857 -1.5053 0
M  V30 4963 H 489.814 -1.08454 -3.93322 0
M  V30 4964 H 488.489 -2.17049 -3.54771 0
M  V30 4965 H 487.066 -0.34649 -3.71287 0
M  V30 4966 N 489.251 1.34841 -0.815825 0
M  V30 4967 C 490.198 2.29644 -0.230664 0
M  V30 4968 C 491.168 1.53253 0.640533 0
M  V30 4969 O 492.353 1.81653 0.583672 0
M  V30 4970 C 489.493 3.39715 0.607275 0
M  V30 4971 C 488.606 4.31056 -0.28538 0
M  V30 4972 C 487.741 5.28225 0.561446 0
M  V30 4973 C 486.78 6.11204 -0.331035 0
M  V30 4974 N 485.917 7.00483 0.476302 0
M  V30 4975 H 490.757 2.79095 -1.0445 0
M  V30 4976 H 488.294 1.37351 -0.526595 0
M  V30 4977 H 490.252 4.02208 1.10835 0
M  V30 4978 H 488.882 2.91517 1.38629 0
M  V30 4979 H 487.934 3.69487 -0.904621 0
M  V30 4980 H 489.246 4.89239 -0.97193 0
M  V30 4981 H 488.4 5.96135 1.12728 0
M  V30 4982 H 487.139 4.70562 1.28153 0
M  V30 4983 H 486.144 5.42232 -0.909069 0
M  V30 4984 H 487.369 6.70947 -1.04912 0
M  V30 4985 H 485.315 6.45296 1.18019 0
M  V30 4986 H 485.232 7.55847 -0.152008 0
M  V30 4987 H 486.5 7.7273 1.02512 0
M  V30 4988 N 490.729 0.570148 1.46925 0
M  V30 4989 C 491.976 0.0509529 2.02436 0
M  V30 4990 C 492.304 -1.30405 1.44308 0
M  V30 4991 O 491.559 -1.86493 0.593198 0
M  V30 4992 C 491.858 -0.0780336 3.57315 0
M  V30 4993 C 491.524 1.20775 4.34424 0
M  V30 4994 C 490.186 1.56004 4.5521 0
M  V30 4995 C 492.538 2.0592 4.78797 0
M  V30 4996 C 489.866 2.76201 5.17619 0
M  V30 4997 C 492.218 3.25332 5.42533 0
M  V30 4998 C 490.882 3.60859 5.61549 0
M  V30 4999 H 490.152 0.018645 0.740765 0
M  V30 5000 H 492.799 0.744262 1.76445 0
M  V30 5001 H 491.104 -0.854394 3.82371 0
M  V30 5002 H 492.801 -0.495312 3.97929 0
M  V30 5003 H 489.391 0.923469 4.18533 0
M  V30 5004 H 493.575 1.80008 4.62505 0
M  V30 5005 H 488.831 3.0388 5.30535 0
M  V30 5006 H 493.005 3.91586 5.75876 0
M  V30 5007 H 490.632 4.54088 6.09678 0
M  V30 5008 N 492.207 -1.54576 0.307264 0
M  V30 5009 C 493.453 -2.0056 -0.300612 0
M  V30 5010 C 493.786 -1.1953 -1.53057 0
M  V30 5011 O 493.061 -0.27337 -1.92569 0
M  V30 5012 C 493.344 -3.54167 -0.650987 0
M  V30 5013 C 493.197 -4.45933 0.588539 0
M  V30 5014 C 494.516 -4.14645 -1.47506 0
M  V30 5015 H 491.635 -0.729075 -0.107788 0
M  V30 5016 H 494.277 -1.85286 0.420606 0
M  V30 5017 H 492.427 -3.67313 -1.26544 0
M  V30 5018 H 494.099 -4.44683 1.22697 0
M  V30 5019 H 492.342 -4.16274 1.22058 0
M  V30 5020 H 493.013 -5.51189 0.299153 0
M  V30 5021 H 495.489 -4.04973 -0.955821 0
M  V30 5022 H 494.365 -5.22269 -1.68899 0
M  V30 5023 H 494.626 -3.66921 -2.4662 0
M  V30 5024 N 493.685 -0.035106 -1.57561 0
M  V30 5025 C 494.617 0.973604 -2.07494 0
M  V30 5026 C 495.63 1.28504 -0.999534 0
M  V30 5027 O 496.819 1.24864 -1.27559 0
M  V30 5028 C 493.919 2.29945 -2.48955 0
M  V30 5029 C 493.092 2.1723 -3.79644 0
M  V30 5030 C 492.151 3.328 -4.07592 0
M  V30 5031 O 491.177 3.09418 -4.77754 0
M  V30 5032 N 492.379 4.56779 -3.58236 0
M  V30 5033 H 495.144 0.547525 -2.94656 0
M  V30 5034 H 492.705 0.151515 -1.61189 0
M  V30 5035 H 494.697 3.06097 -2.64739 0
M  V30 5036 H 493.267 2.64173 -1.67126 0
M  V30 5037 H 492.487 1.25768 -3.73599 0
M  V30 5038 H 493.775 2.05945 -4.65257 0
M  V30 5039 H 493.173 4.78668 -3.01485 0
M  V30 5040 H 491.73 5.30079 -3.79288 0
M  V30 5041 N 495.163 1.55791 0.238111 0
M  V30 5042 C 496.093 1.94068 1.29846 0
M  V30 5043 C 497.074 0.806726 1.49753 0
M  V30 5044 O 498.259 1.06772 1.62214 0
M  V30 5045 C 495.389 2.24302 2.65153 0
M  V30 5046 C 494.343 3.40032 2.59927 0
M  V30 5047 C 493.669 3.55829 3.99111 0
M  V30 5048 C 494.969 4.75476 2.16148 0
M  V30 5049 H 496.663 2.82887 0.980563 0
M  V30 5050 H 494.209 1.36105 0.470253 0
M  V30 5051 H 496.162 2.4967 3.39475 0
M  V30 5052 H 494.886 1.32318 2.98596 0
M  V30 5053 H 493.545 3.14687 1.88063 0
M  V30 5054 H 493.193 2.6125 4.29834 0
M  V30 5055 H 492.893 4.3366 3.96501 0
M  V30 5056 H 494.417 3.83528 4.7512 0
M  V30 5057 H 495.831 5.00158 2.80205 0
M  V30 5058 H 494.228 5.56472 2.24631 0
M  V30 5059 H 495.298 4.71946 1.11333 0
M  V30 5060 N 496.642 -0.504142 1.49319 0
M  V30 5061 C 497.552 -1.63248 1.68486 0
M  V30 5062 C 498.568 -1.64488 0.567432 0
M  V30 5063 O 499.744 -1.82966 0.841749 0
M  V30 5064 C 496.809 -2.99627 1.74426 0
M  V30 5065 C 495.87 -3.09039 2.97982 0
M  V30 5066 C 495.103 -4.38913 3.0363 0
M  V30 5067 O 495.326 -5.27528 2.16958 0
M  V30 5068 O 494.26 -4.53231 3.96062 0
M  V30 5069 H 498.086 -1.50008 2.64067 0
M  V30 5070 H 495.671 -0.680086 1.33023 0
M  V30 5071 H 497.553 -3.80689 1.80705 0
M  V30 5072 H 496.228 -3.13136 0.820233 0
M  V30 5073 H 495.135 -2.27177 2.97223 0
M  V30 5074 H 496.468 -3.00456 3.89855 0
M  V30 5075 N 498.12 -1.38341 -0.754957 0
M  V30 5076 C 499.067 -1.3546 -1.86867 0
M  V30 5077 C 500.037 -0.217369 -1.64672 0
M  V30 5078 O 501.222 -0.409383 -1.86356 0
M  V30 5079 C 498.362 -1.18413 -3.24149 0
M  V30 5080 C 497.475 -2.41511 -3.58185 0
M  V30 5081 C 496.61 -2.17205 -4.84763 0
M  V30 5082 C 495.649 -3.36081 -5.11582 0
M  V30 5083 N 494.786 -3.11219 -6.29354 0
M  V30 5084 H 499.626 -2.30672 -1.88664 0
M  V30 5085 H 497.163 -1.14607 -0.922154 0
M  V30 5086 H 499.121 -1.06545 -4.03366 0
M  V30 5087 H 497.751 -0.268397 -3.21682 0
M  V30 5088 H 496.803 -2.64056 -2.73822 0
M  V30 5089 H 498.115 -3.30115 -3.73932 0
M  V30 5090 H 497.269 -2.02465 -5.7192 0
M  V30 5091 H 496.008 -1.25964 -4.71152 0
M  V30 5092 H 495.013 -3.51341 -4.22894 0
M  V30 5093 H 496.238 -4.28196 -5.27091 0
M  V30 5094 H 494.184 -2.22624 -6.17069 0
M  V30 5095 H 494.101 -3.93373 -6.45596 0
M  V30 5096 H 495.369 -3.00132 -7.19403 0
M  V30 5097 N 499.598 0.982988 -1.23187 0
M  V30 5098 C 500.561 2.05649 -1.01198 0
M  V30 5099 C 501.561 1.6078 0.0252464 0
M  V30 5100 O 502.751 1.72878 -0.214243 0
M  V30 5101 C 499.883 3.36744 -0.530656 0
M  V30 5102 H 501.076 2.2659 -1.96461 0
M  V30 5103 H 498.629 1.15602 -1.05195 0
M  V30 5104 H 499.364 3.21492 0.425873 0
M  V30 5105 H 499.149 3.7065 -1.2791 0
M  V30 5106 H 500.639 4.15705 -0.397366 0
M  V30 5107 N 501.076 1.04316 1.18135 0
M  V30 5108 C 502.009 0.580823 2.20685 0
M  V30 5109 C 502.987 -0.385943 1.57953 0
M  V30 5110 O 504.171 -0.299654 1.86103 0
M  V30 5111 C 501.298 -0.151162 3.38363 0
M  V30 5112 C 500.344 0.769247 4.19505 0
M  V30 5113 S 501.177 2.25352 4.85774 0
M  V30 5114 C 502.333 1.53246 6.0685 0
M  V30 5115 H 502.566 1.44968 2.5956 0
M  V30 5116 H 500.099 0.85434 1.28609 0
M  V30 5117 H 502.057 -0.567315 4.06561 0
M  V30 5118 H 500.718 -0.995936 2.97892 0
M  V30 5119 H 499.911 0.203335 5.0359 0
M  V30 5120 H 499.513 1.12436 3.56699 0
M  V30 5121 H 501.805 0.82689 6.72435 0
M  V30 5122 H 502.748 2.35044 6.67952 0
M  V30 5123 H 503.156 1.0237 5.5514 0
M  V30 5124 N 502.554 -1.34406 0.822964 0
M  V30 5125 C 503.504 -2.26963 0.217208 0
M  V30 5126 C 504.488 -1.48536 -0.618545 0
M  V30 5127 O 505.68 -1.7056 -0.473118 0
M  V30 5128 C 502.809 -3.37655 -0.619973 0
M  V30 5129 C 501.895 -4.23495 0.226411 0
M  V30 5130 N 502.286 -4.88876 1.29744 0
M  V30 5131 C 500.584 -4.45999 0.0107554 0
M  V30 5132 C 501.285 -5.52642 1.81553 0
M  V30 5133 N 500.261 -5.31949 1.11942 0
M  V30 5134 H 504.063 -2.75017 1.03647 0
M  V30 5135 H 501.577 -1.48126 0.665777 0
M  V30 5136 H 503.574 -4.02932 -1.07011 0
M  V30 5137 H 502.234 -2.91151 -1.43739 0
M  V30 5138 H 503.245 -4.89886 1.68024 0
M  V30 5139 H 499.922 -4.10253 -0.774495 0
M  V30 5140 H 501.312 -6.14755 2.71156 0
M  V30 5141 N 504.032 -0.577932 -1.46621 0
M  V30 5142 C 504.964 0.195801 -2.28362 0
M  V30 5143 C 505.977 0.859983 -1.38232 0
M  V30 5144 O 507.166 0.730349 -1.62875 0
M  V30 5145 C 504.266 1.29639 -3.13124 0
M  V30 5146 C 503.439 0.725049 -4.31349 0
M  V30 5147 C 502.498 1.71274 -4.97546 0
M  V30 5148 O 501.524 1.25067 -5.5529 0
M  V30 5149 N 502.726 3.04672 -4.94121 0
M  V30 5150 H 505.491 -0.505468 -2.95407 0
M  V30 5151 H 503.052 -0.415381 -1.56481 0
M  V30 5152 H 505.044 1.95631 -3.54275 0
M  V30 5153 H 503.614 1.90059 -2.48186 0
M  V30 5154 H 502.834 -0.112205 -3.9404 0
M  V30 5155 H 504.122 0.323034 -5.07774 0
M  V30 5156 H 503.52 3.4484 -4.48444 0
M  V30 5157 H 502.077 3.66166 -5.39227 0
M  V30 5158 N 505.51 1.54411 -0.315457 0
M  V30 5159 C 506.921 1.85885 0.174265 0
M  V30 5160 C 507.272 1.23723 1.52273 0
M  V30 5161 O 506.397 0.540246 2.09548 0
M  V30 5162 C 506.992 3.37257 0.322981 0
M  V30 5163 C 505.551 3.68711 0.756922 0
M  V30 5164 C 504.698 2.77013 -0.126195 0
M  V30 5165 H 507.649 1.49374 -0.536007 0
M  V30 5166 H 507.67 3.62539 1.15522 0
M  V30 5167 H 507.182 3.82471 -0.658602 0
M  V30 5168 H 505.283 3.29024 1.74854 0
M  V30 5169 H 505.396 4.75741 0.566291 0
M  V30 5170 H 503.76 2.51588 0.39692 0
M  V30 5171 H 504.543 3.25051 -1.1044 0
M  V30 5172 N 506.988 0.0434614 1.5754 0
M  V30 5173 C 508.265 -0.671479 1.83713 0
M  V30 5174 C 508.645 -1.89495 0.930315 0
M  V30 5175 O 507.993 -2.28498 -0.0105639 0
M  V30 5176 C 508.203 -1.0361 3.33266 0
M  V30 5177 C 509.551 -1.42167 4.00092 0
M  V30 5178 O 510.575 -1.12866 3.37846 0
M  V30 5179 O 509.434 -1.96817 5.09829 0
M  V30 5180 H 506.528 -0.330726 0.75799 0
M  V30 5181 H 509.074 0.0722373 1.69546 0
M  V30 5182 H 507.846 -0.165938 3.90948 0
M  V30 5183 H 507.469 -1.83751 3.52592 0
M  V30 5184 N 508.466 -1.55915 -0.229846 0
M  V30 5185 C 509.691 -1.8296 -0.976743 0
M  V30 5186 C 510.116 -0.622735 -1.77493 0
M  V30 5187 O 509.474 0.428431 -1.76165 0
M  V30 5188 C 509.522 -3.07916 -1.8767 0
M  V30 5189 O 508.626 -2.86028 -2.97088 0
M  V30 5190 H 507.967 -0.603453 -0.277021 0
M  V30 5191 H 510.497 -2.0312 -0.245669 0
M  V30 5192 H 510.507 -3.37802 -2.2881 0
M  V30 5193 H 509.182 -3.95389 -1.28996 0
M  V30 5194 H 507.759 -2.67355 -2.59954 0
M  V30 5195 N 509.944 0.496216 -1.49584 0
M  V30 5196 C 510.877 1.61508 -1.61215 0
M  V30 5197 C 511.855 1.55927 -0.461045 0
M  V30 5198 O 513.039 1.75914 -0.677231 0
M  V30 5199 C 510.166 3.00035 -1.57152 0
M  V30 5200 C 509.212 3.23861 -2.77518 0
M  V30 5201 S 510.045 3.06466 -4.39134 0
M  V30 5202 C 511.201 4.4738 -4.37724 0
M  V30 5203 H 511.434 1.51398 -2.55863 0
M  V30 5204 H 508.967 0.681727 -1.38535 0
M  V30 5205 H 510.925 3.7991 -1.55494 0
M  V30 5206 H 509.586 3.07556 -0.637834 0
M  V30 5207 H 508.779 4.25 -2.70908 0
M  V30 5208 H 508.381 2.51716 -2.76614 0
M  V30 5209 H 510.673 5.39556 -4.09738 0
M  V30 5210 H 511.616 4.59038 -5.39156 0
M  V30 5211 H 512.024 4.28283 -3.67742 0
M  V30 5212 N 511.423 1.38739 0.74761 0
M  V30 5213 C 512.839 1.20067 1.05148 0
M  V30 5214 C 513.039 0.0534835 2.01429 0
M  V30 5215 O 512.095 -0.59886 2.45296 0
M  V30 5216 C 513.408 2.52957 1.62584 0
M  V30 5217 C 514.956 2.59692 1.74726 0
M  V30 5218 C 515.431 3.92772 2.35573 0
M  V30 5219 N 516.922 3.94343 2.42997 0
M  V30 5220 C 517.657 4.9408 2.90985 0
M  V30 5221 N 517.153 6.04214 3.38965 0
M  V30 5222 N 518.946 4.81466 2.9008 0
M  V30 5223 H 511.097 2.12121 0.108808 0
M  V30 5224 H 513.36 0.941491 0.110899 0
M  V30 5225 H 513.066 3.37389 0.993051 0
M  V30 5226 H 512.94 2.71779 2.61565 0
M  V30 5227 H 515.327 1.75651 2.3713 0
M  V30 5228 H 515.408 2.44731 0.744326 0
M  V30 5229 H 515.052 4.77238 1.738 0
M  V30 5230 H 514.982 4.05046 3.36519 0
M  V30 5231 H 517.473 3.14799 2.0907 0
M  V30 5232 H 517.786 6.76241 3.74056 0
M  V30 5233 H 516.131 6.07825 3.37007 0
M  V30 5234 H 519.322 3.94535 2.51912 0
M  V30 5235 H 519.495 5.59344 3.27166 0
M  V30 5236 N 512.901 -0.976442 1.23707 0
M  V30 5237 C 514.126 -1.75875 1.09922 0
M  V30 5238 C 514.551 -1.84911 -0.34489 0
M  V30 5239 O 513.909 -1.31363 -1.24954 0
M  V30 5240 C 513.957 -3.16179 1.73388 0
M  V30 5241 O 513.061 -4.00124 0.99871 0
M  V30 5242 H 512.402 -0.540954 0.385052 0
M  V30 5243 H 514.932 -1.22546 1.6384 0
M  V30 5244 H 514.942 -3.66741 1.78788 0
M  V30 5245 H 513.617 -3.08917 2.78466 0
M  V30 5246 H 512.194 -3.58624 1.02193 0
M  V30 5247 N 514.379 -1.04941 -1.1758 0
M  V30 5248 C 515.619 -0.766996 -1.89464 0
M  V30 5249 C 515.983 0.693123 -1.79053 0
M  V30 5250 O 517.184 1.08953 -2.45729 0
M  V30 5251 C 515.455 -1.23108 -3.35528 0
M  V30 5252 S 517.014 -1.07565 -4.25412 0
M  V30 5253 H 513.832 -0.278616 -0.654136 0
M  V30 5254 H 516.434 -1.34352 -1.4202 0
M  V30 5255 H 515.138 -2.28896 -3.40639 0
M  V30 5256 H 514.669 -0.648724 -3.88014 0
M  V30 5257 H 516.684 0.00169467 -4.962 0
M  V30 5258 N 515.857 1.33968 -0.830081 0
M  V30 5259 C 517.103 1.98357 -0.422191 0
M  V30 5260 C 517.436 1.65633 1.01387 0
M  V30 5261 O 516.711 0.931648 1.70735 0
M  V30 5262 C 516.994 3.54492 -0.633043 0
M  V30 5263 C 516.847 3.96934 -2.11574 0
M  V30 5264 C 518.166 4.40039 -0.0735584 0
M  V30 5265 H 515.285 0.720544 -0.154871 0
M  V30 5266 H 517.927 1.58749 -1.04397 0
M  V30 5267 H 516.077 3.88361 -0.103775 0
M  V30 5268 H 517.749 3.73363 -2.7092 0
M  V30 5269 H 515.992 3.46984 -2.60354 0
M  V30 5270 H 516.663 5.05651 -2.21406 0
M  V30 5271 H 519.139 4.12764 -0.52585 0
M  V30 5272 H 518.015 5.48327 -0.250841 0
M  V30 5273 H 518.276 4.30124 1.02202 0
M  V30 5274 N 517.335 0.585699 1.46312 0
M  V30 5275 C 518.583 0.072278 2.01971 0
M  V30 5276 C 518.904 -1.29345 1.45928 0
M  V30 5277 O 518.174 -1.84973 0.645109 0
M  V30 5278 H 516.754 0.023729 0.746623 0
M  V30 5279 H 519.416 0.762155 1.7938 0
M  V30 5280 H 518.512 0.00552767 3.121 0
M  V30 5281 N 518.813 -1.54241 0.323641 0
M  V30 5282 C 520.053 -2.0248 -0.279502 0
M  V30 5283 C 520.417 -1.20672 -1.49339 0
M  V30 5284 O 521.618 -1.58715 -2.1694 0
M  V30 5285 C 519.889 -3.52238 -0.605266 0
M  V30 5286 S 521.448 -4.22411 -1.18805 0
M  V30 5287 H 518.266 -0.705957 -0.0845313 0
M  V30 5288 H 520.868 -1.90089 0.456781 0
M  V30 5289 H 519.572 -4.094 0.286339 0
M  V30 5290 H 519.103 -3.6871 -1.37174 0
M  V30 5291 H 521.118 -4.30075 -2.47487 0
M  V30 5292 N 520.291 -0.0518155 -1.57515 0
M  V30 5293 C 521.241 0.932017 -2.0808 0
M  V30 5294 C 522.225 1.27141 -0.986098 0
M  V30 5295 O 523.417 1.25373 -1.24943 0
M  V30 5296 C 520.546 2.20665 -2.62986 0
M  V30 5297 C 519.632 1.89462 -3.79427 0
M  V30 5298 N 520.023 1.28621 -4.89173 0
M  V30 5299 C 518.321 2.19327 -3.88345 0
M  V30 5300 C 519.022 1.15062 -5.70207 0
M  V30 5301 N 517.998 1.65372 -5.17835 0
M  V30 5302 H 521.8 0.456964 -2.90326 0
M  V30 5303 H 519.314 0.152619 -1.61681 0
M  V30 5304 H 521.311 2.92044 -2.97516 0
M  V30 5305 H 519.971 2.68776 -1.8218 0
M  V30 5306 H 520.982 0.958341 -5.08956 0
M  V30 5307 H 517.659 2.69955 -3.18482 0
M  V30 5308 H 519.049 0.678243 -6.68468 0
M  V30 5309 N 521.769 1.56035 0.221574 0
M  V30 5310 C 522.717 1.93269 1.29421 0
M  V30 5311 C 523.711 0.814727 1.48521 0
M  V30 5312 O 524.917 0.999559 1.49696 0
M  V30 5313 H 521.292 0.614188 0.43391 0
M  V30 5314 H 523.263 2.82773 0.952987 0
M  V30 5315 C 522.012 2.26573 2.63742 0
M  V30 5316 H 521.335 3.12112 2.49853 0
M  V30 5317 H 522.775 2.5651 3.37607 0
M  V30 5318 C 521.234 1.09086 3.1875 0
M  V30 5319 O 521.764 0.351985 4.00155 0
M  V30 5320 N 519.97 0.874693 2.77124 0
M  V30 5321 H 519.517 1.47726 2.11033 0
M  V30 5322 H 519.475 0.0903349 3.1427 0
M  V30 5323 N 523.247 -0.488276 1.49845 0
M  V30 5324 C 524.475 -1.26527 1.63702 0
M  V30 5325 C 524.89 -1.8618 0.313447 0
M  V30 5326 O 524.247 -1.68432 -0.702624 0
M  V30 5327 C 524.298 -2.3864 2.71538 0
M  V30 5328 O 524.019 -1.81437 3.98763 0
M  V30 5329 C 525.52 -3.29805 2.96215 0
M  V30 5330 H 522.74 -0.383295 0.55075 0
M  V30 5331 H 525.284 -0.584779 1.95961 0
M  V30 5332 H 523.439 -3.02496 2.42023 0
M  V30 5333 H 523.853 -2.55135 4.58265 0
M  V30 5334 H 525.327 -4.04722 3.75372 0
M  V30 5335 H 525.804 -3.87563 2.06619 0
M  V30 5336 H 526.41 -2.71703 3.27196 0
M  V30 5337 N 524.725 -1.39134 -0.740242 0
M  V30 5338 C 526.141 -1.20623 -1.0451 0
M  V30 5339 C 526.341 -0.0641651 -2.01398 0
M  V30 5340 O 525.397 0.585843 -2.4561 0
M  V30 5341 C 526.71 -2.53815 -1.6124 0
M  V30 5342 C 528.258 -2.60615 -1.73346 0
M  V30 5343 C 528.733 -3.94015 -2.33486 0
M  V30 5344 N 530.224 -3.95627 -2.40902 0
M  V30 5345 C 530.959 -4.95616 -2.88361 0
M  V30 5346 N 530.455 -6.06003 -3.35756 0
M  V30 5347 N 532.248 -4.82998 -2.87523 0
M  V30 5348 H 524.399 -2.12176 -0.0975576 0
M  V30 5349 H 526.662 -0.942066 -0.105904 0
M  V30 5350 H 526.368 -3.37911 -0.975144 0
M  V30 5351 H 526.242 -2.73162 -2.6012 0
M  V30 5352 H 528.629 -1.76906 -2.36195 0
M  V30 5353 H 528.71 -2.45123 -0.731336 0
M  V30 5354 H 528.354 -4.78153 -1.71267 0
M  V30 5355 H 528.284 -4.06825 -3.34366 0
M  V30 5356 H 530.775 -3.15903 -2.07398 0
M  V30 5357 H 531.088 -6.78215 -3.70464 0
M  V30 5358 H 529.433 -6.09604 -3.33778 0
M  V30 5359 H 532.624 -3.95866 -2.49816 0
M  V30 5360 H 532.797 -5.61072 -3.24196 0
M  V30 5361 N 526.204 0.969867 -1.24223 0
M  V30 5362 C 527.45 1.7151 -1.08223 0
M  V30 5363 C 527.783 1.90478 0.37838 0
M  V30 5364 O 527.058 1.4647 1.27971 0
M  V30 5365 C 527.341 3.10714 -1.82013 0
M  V30 5366 C 527.194 2.9925 -3.35811 0
M  V30 5367 C 528.513 4.10332 -1.59108 0
M  V30 5368 H 525.632 0.622499 -0.394543 0
M  V30 5369 H 528.274 1.1284 -1.52863 0
M  V30 5370 H 526.424 3.608 -1.44068 0
M  V30 5371 H 528.096 2.56608 -3.83341 0
M  V30 5372 H 526.339 2.35512 -3.64303 0
M  V30 5373 H 527.01 3.97857 -3.82641 0
M  V30 5374 H 529.486 3.69097 -1.92111 0
M  V30 5375 H 528.362 5.05804 -2.13198 0
M  V30 5376 H 528.623 4.38926 -0.528832 0
M  V30 5377 N 527.682 1.05563 1.17022 0
M  V30 5378 C 528.614 0.617888 2.20714 0
M  V30 5379 C 529.627 -0.320303 1.59618 0
M  V30 5380 O 530.816 -0.112449 1.78145 0
M  V30 5381 C 527.916 -0.115333 3.38704 0
M  V30 5382 C 527.089 0.834493 4.29366 0
M  V30 5383 C 526.148 0.141855 5.26009 0
M  V30 5384 O 525.174 0.777151 5.6387 0
M  V30 5385 N 526.376 -1.11934 5.69606 0
M  V30 5386 H 529.141 1.50981 2.58892 0
M  V30 5387 H 526.702 0.938008 1.31958 0
M  V30 5388 H 528.694 -0.588918 4.00392 0
M  V30 5389 H 527.264 -0.908967 2.99093 0
M  V30 5390 H 526.484 1.48762 3.65053 0
M  V30 5391 H 527.772 1.4791 4.86827 0
M  V30 5392 H 527.17 -1.65574 5.40927 0
M  V30 5393 H 525.727 -1.53692 6.33421 0
M  V30 5394 N 529.16 -1.33526 0.837174 0
M  V30 5395 C 530.092 -2.28077 0.226579 0
M  V30 5396 C 531.105 -1.51666 -0.591717 0
M  V30 5397 O 532.294 -1.73511 -0.419064 0
M  V30 5398 C 529.394 -3.31597 -0.69978 0
M  V30 5399 C 528.567 -4.37329 0.0788067 0
M  V30 5400 C 527.626 -5.20526 -0.770637 0
M  V30 5401 O 526.652 -5.68811 -0.210453 0
M  V30 5402 N 527.854 -5.41639 -2.08825 0
M  V30 5403 H 530.619 -2.81115 1.03897 0
M  V30 5404 H 528.18 -1.46201 0.695476 0
M  V30 5405 H 530.172 -3.84158 -1.27298 0
M  V30 5406 H 528.742 -2.78848 -1.41288 0
M  V30 5407 H 527.962 -3.8529 0.833381 0
M  V30 5408 H 529.25 -5.05079 0.614238 0
M  V30 5409 H 528.648 -5.04108 -2.56693 0
M  V30 5410 H 527.205 -5.97263 -2.60998 0
M  V30 5411 N 530.638 -0.59345 -1.46 0
M  V30 5412 C 532.049 -0.169801 -1.85926 0
M  V30 5413 C 532.4 1.26984 -1.49565 0
M  V30 5414 O 531.525 1.96076 -0.915602 0
M  V30 5415 C 532.12 -0.301385 -3.37457 0
M  V30 5416 C 530.679 0.0674684 -3.7634 0
M  V30 5417 C 529.826 -0.632383 -2.69993 0
M  V30 5418 H 532.777 -0.801014 -1.37002 0
M  V30 5419 H 532.798 0.470331 -3.77582 0
M  V30 5420 H 532.31 -1.34927 -3.63891 0
M  V30 5421 H 530.411 1.11507 -3.55523 0
M  V30 5422 H 530.524 -0.316332 -4.78055 0
M  V30 5423 H 528.888 -0.0714961 -2.546 0
M  V30 5424 H 529.671 -1.68212 -2.99265 0
M  V30 5425 N 532.116 1.54067 -0.331816 0
M  V30 5426 C 533.344 2.05131 0.269996 0
M  V30 5427 C 533.759 1.20749 1.45138 0
M  V30 5428 O 533.116 0.240069 1.80914 0
M  V30 5429 C 533.167 3.54728 0.696456 0
M  V30 5430 O 532.888 4.35906 -0.43794 0
M  V30 5431 C 534.389 4.21916 1.36021 0
M  V30 5432 H 531.609 0.668807 0.0542042 0
M  V30 5433 H 534.153 1.98777 -0.4804 0
M  V30 5434 H 532.308 3.61342 1.39681 0
M  V30 5435 H 532.722 5.24404 -0.100334 0
M  V30 5436 H 534.196 5.28015 1.60947 0
M  V30 5437 H 534.673 3.73538 2.31011 0
M  V30 5438 H 535.279 4.19463 0.702212 0
M  V30 5439 N 533.594 0.0601682 1.57485 0
M  V30 5440 C 534.834 -0.615384 1.94916 0
M  V30 5441 C 535.198 -1.67475 0.938948 0
M  V30 5442 O 536.399 -2.40502 1.20051 0
M  V30 5443 C 534.67 -1.18788 3.37082 0
M  V30 5444 S 536.229 -1.88018 3.96478 0
M  V30 5445 H 533.047 -0.201821 0.681754 0
M  V30 5446 H 535.649 0.131252 1.95059 0
M  V30 5447 H 534.353 -0.404869 4.08398 0
M  V30 5448 H 533.884 -1.97114 3.40455 0
M  V30 5449 H 535.899 -3.16161 3.82435 0
M  V30 5450 N 535.072 -1.5615 -0.213296 0
M  V30 5451 C 536.035 -1.92249 -1.24792 0
M  V30 5452 C 537.035 -0.801828 -1.39382 0
M  V30 5453 O 538.225 -1.06948 -1.37506 0
M  V30 5454 C 535.357 -2.18056 -2.62039 0
M  V30 5455 H 536.55 -2.84793 -0.939845 0
M  V30 5456 H 534.103 -1.49559 -0.454062 0
M  V30 5457 H 534.838 -1.2809 -2.97932 0
M  V30 5458 H 534.623 -2.99703 -2.52825 0
M  V30 5459 H 536.113 -2.47051 -3.36683 0
M  V30 5460 N 536.55 0.480323 -1.50102 0
M  V30 5461 C 537.798 1.23063 -1.60312 0
M  V30 5462 C 538.119 1.92659 -0.301226 0
M  V30 5463 O 537.389 1.83691 0.680753 0
M  V30 5464 H 535.969 0.457231 -0.590719 0
M  V30 5465 H 538.631 0.554893 -1.86834 0
M  V30 5466 H 537.727 1.9835 -2.40964 0
M  V30 5467 N 538.028 1.39524 0.732853 0
M  V30 5468 C 539.268 1.383 1.50508 0
M  V30 5469 C 539.632 -0.0208271 1.91989 0
M  V30 5470 O 540.833 -0.158091 2.68335 0
M  V30 5471 C 539.104 2.33007 2.71003 0
M  V30 5472 S 540.663 2.49989 3.60626 0
M  V30 5473 H 537.481 0.490417 0.514794 0
M  V30 5474 H 540.083 1.75641 0.858524 0
M  V30 5475 H 538.787 3.33862 2.38672 0
M  V30 5476 H 538.318 1.96889 3.40585 0
M  V30 5477 H 540.333 1.7394 4.64714 0
M  V30 5478 N 539.506 -0.963266 1.24736 0
M  V30 5479 C 540.456 -2.0438 1.01058 0
M  V30 5480 C 541.44 -1.60824 -0.0495354 0
M  V30 5481 O 542.632 -1.76232 0.164741 0
M  V30 5482 C 539.761 -3.37617 0.622067 0
M  V30 5483 C 538.847 -3.87722 1.7185 0
M  V30 5484 N 539.238 -4.10715 2.95207 0
M  V30 5485 C 537.536 -4.16426 1.59703 0
M  V30 5486 C 538.237 -4.51872 3.66315 0
M  V30 5487 N 537.213 -4.57302 2.93897 0
M  V30 5488 H 541.015 -2.20138 1.94721 0
M  V30 5489 H 538.529 -1.14741 1.14927 0
M  V30 5490 H 540.526 -4.14638 0.43366 0
M  V30 5491 H 539.186 -3.23242 -0.307327 0
M  V30 5492 H 540.197 -3.98037 3.31341 0
M  V30 5493 H 536.874 -4.10962 0.73598 0
M  V30 5494 H 538.264 -4.78037 4.72155 0
M  V30 5495 N 540.985 -1.06182 -1.16461 0
M  V30 5496 C 542.233 -0.776326 -1.86595 0
M  V30 5497 C 542.554 0.69921 -1.82033 0
M  V30 5498 O 541.824 1.50579 -1.2531 0
M  V30 5499 H 540.404 -0.284184 -0.690832 0
M  V30 5500 H 543.066 -1.34308 -1.41235 0
M  V30 5501 H 542.162 -1.10022 -2.92064 0
M  V30 5502 N 542.463 1.3308 -0.844243 0
M  V30 5503 C 543.71 1.97605 -0.44255 0
M  V30 5504 C 544.038 1.66856 0.999458 0
M  V30 5505 O 543.293 0.943586 1.7145 0
M  V30 5506 C 543.592 3.52045 -0.616354 0
M  V30 5507 C 543.258 4.02757 -2.02726 0
M  V30 5508 C 541.92 4.16316 -2.41317 0
M  V30 5509 C 544.272 4.29776 -2.9486 0
M  V30 5510 C 541.6 4.54232 -3.71335 0
M  V30 5511 C 543.952 4.69146 -4.24364 0
M  V30 5512 C 542.616 4.80911 -4.62904 0
M  V30 5513 H 541.886 0.723088 -0.161941 0
M  V30 5514 H 544.533 1.58663 -1.0723 0
M  V30 5515 H 542.838 3.91681 0.0966812 0
M  V30 5516 H 544.535 3.99981 -0.285756 0
M  V30 5517 H 541.125 3.9268 -1.71756 0
M  V30 5518 H 545.309 4.18818 -2.6628 0
M  V30 5519 H 540.565 4.61535 -4.00993 0
M  V30 5520 H 544.739 4.89008 -4.95827 0
M  V30 5521 H 542.366 5.10048 -5.63698 0
M  V30 5522 N 543.941 0.601185 1.45683 0
M  V30 5523 C 545.19 0.0914953 2.01492 0
M  V30 5524 C 545.503 -1.28331 1.47616 0
M  V30 5525 O 546.709 -1.88537 1.95362 0
M  V30 5526 C 545.165 0.11291 3.59723 0
M  V30 5527 C 544.773 1.48717 4.22596 0
M  V30 5528 C 546.517 -0.341871 4.23121 0
M  V30 5529 C 544.424 1.46531 5.7296 0
M  V30 5530 H 543.354 0.0304365 0.753385 0
M  V30 5531 H 546.005 0.755568 1.67223 0
M  V30 5532 H 544.387 -0.617692 3.91153 0
M  V30 5533 H 545.561 2.23897 4.02749 0
M  V30 5534 H 543.876 1.88351 3.71366 0
M  V30 5535 H 546.473 -0.377304 5.33367 0
M  V30 5536 H 546.816 -1.36325 3.93346 0
M  V30 5537 H 547.349 0.335256 3.96385 0
M  V30 5538 H 544.088 2.46408 6.07423 0
M  V30 5539 H 543.608 0.755997 5.95017 0
M  V30 5540 H 545.287 1.18618 6.36034 0
M  V30 5541 N 545.419 -1.53889 0.339982 0
M  V30 5542 C 546.366 -2.24902 -0.518452 0
M  V30 5543 C 547.336 -1.24593 -1.09844 0
M  V30 5544 O 548.521 -1.53317 -1.13572 0
M  V30 5545 C 545.661 -3.02262 -1.66529 0
M  V30 5546 C 544.774 -4.17418 -1.11295 0
M  V30 5547 C 543.909 -4.82273 -2.2268 0
M  V30 5548 C 542.948 -5.89503 -1.6478 0
M  V30 5549 N 542.085 -6.48153 -2.69893 0
M  V30 5550 H 546.925 -2.97853 0.0936579 0
M  V30 5551 H 544.462 -1.46986 0.0579924 0
M  V30 5552 H 546.42 -3.45371 -2.3404 0
M  V30 5553 H 545.05 -2.31614 -2.24844 0
M  V30 5554 H 544.102 -3.78976 -0.328886 0
M  V30 5555 H 545.414 -4.94554 -0.649414 0
M  V30 5556 H 544.568 -5.28435 -2.98063 0
M  V30 5557 H 543.307 -4.04552 -2.72376 0
M  V30 5558 H 542.312 -5.42728 -0.879004 0
M  V30 5559 H 543.537 -6.6913 -1.1594 0
M  V30 5560 H 541.483 -5.73298 -3.1885 0
M  V30 5561 H 541.4 -7.20752 -2.28151 0
M  V30 5562 H 542.668 -6.98968 -3.45056 0
M  V30 5563 N 546.897 -0.0685191 -1.57451 0
M  V30 5564 C 548.308 0.464634 -1.80826 0
M  V30 5565 C 548.659 1.69847 -0.982169 0
M  V30 5566 O 547.784 2.15439 -0.203734 0
M  V30 5567 C 548.379 0.849721 -3.27971 0
M  V30 5568 C 546.938 1.32776 -3.52204 0
M  V30 5569 C 546.085 0.311332 -2.75547 0
M  V30 5570 H 549.036 -0.294248 -1.55948 0
M  V30 5571 H 549.057 1.71138 -3.39841 0
M  V30 5572 H 548.569 -0.0484736 -3.8807 0
M  V30 5573 H 546.67 2.24456 -2.97406 0
M  V30 5574 H 546.783 1.30794 -4.60901 0
M  V30 5575 H 545.147 0.787915 -2.42206 0
M  V30 5576 H 545.93 -0.579078 -3.38381 0
M  V30 5577 N 548.375 1.56261 0.205012 0
M  V30 5578 C 549.603 1.84141 0.943386 0
M  V30 5579 C 550.018 0.649772 1.77266 0
M  V30 5580 O 549.375 -0.381612 1.78466 0
M  V30 5581 C 549.426 3.10719 1.84759 0
M  V30 5582 O 549.147 4.25286 1.05181 0
M  V30 5583 C 550.648 3.51706 2.69848 0
M  V30 5584 H 547.868 0.611734 0.275721 0
M  V30 5585 H 550.412 2.03364 0.215253 0
M  V30 5586 H 548.567 2.93422 2.52947 0
M  V30 5587 H 548.981 4.97301 1.66709 0
M  V30 5588 H 550.455 4.43266 3.28967 0
M  V30 5589 H 550.932 2.7423 3.43067 0
M  V30 5590 H 551.538 3.71499 2.07047 0
M  V30 5591 N 549.853 -0.472356 1.50355 0
M  V30 5592 C 550.8 -1.57051 1.69126 0
M  V30 5593 C 551.77 -1.5733 0.532574 0
M  V30 5594 O 552.955 -1.7488 0.762994 0
M  V30 5595 C 550.095 -2.95033 1.79024 0
M  V30 5596 C 549.208 -3.04552 3.06386 0
M  V30 5597 C 548.343 -4.33441 3.07087 0
M  V30 5598 C 547.382 -4.36697 4.28908 0
M  V30 5599 N 546.519 -5.57056 4.27356 0
M  V30 5600 H 551.359 -1.40351 2.62879 0
M  V30 5601 H 548.896 -0.682403 1.30314 0
M  V30 5602 H 550.854 -3.75048 1.82744 0
M  V30 5603 H 549.484 -3.10371 0.887109 0
M  V30 5604 H 548.536 -2.17419 3.12143 0
M  V30 5605 H 549.848 -3.02818 3.96362 0
M  V30 5606 H 549.002 -5.21801 3.09529 0
M  V30 5607 H 547.741 -4.37782 2.14939 0
M  V30 5608 H 546.746 -3.46734 4.2668 0
M  V30 5609 H 547.971 -4.34049 5.22282 0
M  V30 5610 H 545.917 -5.62184 3.3806 0
M  V30 5611 H 545.834 -5.57058 5.111 0
M  V30 5612 H 547.102 -6.47545 4.33942 0
M  V30 5613 N 551.331 -1.39911 -0.725443 0
M  V30 5614 C 552.556 -1.41137 -1.5197 0
M  V30 5615 C 552.981 -0.010262 -1.88097 0
M  V30 5616 O 552.339 0.979184 -1.52583 0
M  V30 5617 C 552.387 -2.2994 -2.77777 0
M  V30 5618 O 551.491 -1.73586 -3.74088 0
M  V30 5619 H 550.832 -0.480219 -0.458569 0
M  V30 5620 H 553.362 -1.84023 -0.894249 0
M  V30 5621 H 553.372 -2.44785 -3.26411 0
M  V30 5622 H 552.047 -3.31759 -2.50816 0
M  V30 5623 H 550.624 -1.68035 -3.32894 0
M  V30 5624 N 552.809 0.956637 -1.25245 0
M  V30 5625 C 554.086 1.67716 -1.00651 0
M  V30 5626 C 554.466 2.0585 0.467866 0
M  V30 5627 O 553.814 1.77029 1.44475 0
M  V30 5628 C 554.024 2.90093 -1.94028 0
M  V30 5629 C 555.372 3.6209 -2.21756 0
M  V30 5630 O 556.396 3.00171 -1.9177 0
M  V30 5631 O 555.255 4.7358 -2.72735 0
M  V30 5632 H 552.349 0.733731 -0.381533 0
M  V30 5633 H 554.895 1.00974 -1.3639 0
M  V30 5634 H 553.667 2.58689 -2.93591 0
M  V30 5635 H 553.29 3.64566 -1.58674 0
M  V30 5636 N 554.287 1.06798 1.15896 0
M  V30 5637 C 555.25 0.687328 2.18651 0
M  V30 5638 C 556.25 -0.269559 1.58524 0
M  V30 5639 O 557.44 -0.0512627 1.74125 0
M  V30 5640 C 554.572 0.0121642 3.40898 0
M  V30 5641 H 555.765 1.59701 2.53842 0
M  V30 5642 H 553.318 0.863828 1.3026 0
M  V30 5643 H 554.053 -0.910025 3.1127 0
M  V30 5644 H 553.838 0.700309 3.85795 0
M  V30 5645 H 555.328 -0.239703 4.16911 0
M  V30 5646 N 555.766 -1.3263 0.851289 0
M  V30 5647 C 556.698 -2.27824 0.250757 0
M  V30 5648 C 557.711 -1.52285 -0.575598 0
M  V30 5649 O 558.9 -1.73946 -0.400638 0
M  V30 5650 C 556 -3.3232 -0.664571 0
M  V30 5651 C 555.173 -4.37221 0.125187 0
M  V30 5652 C 554.232 -5.21314 -0.715385 0
M  V30 5653 O 553.258 -5.69002 -0.150111 0
M  V30 5654 N 554.46 -5.43823 -2.03069 0
M  V30 5655 H 557.225 -2.79997 1.06873 0
M  V30 5656 H 554.786 -1.45455 0.710943 0
M  V30 5657 H 556.778 -3.85486 -1.23216 0
M  V30 5658 H 555.348 -2.80331 -1.38323 0
M  V30 5659 H 554.568 -3.84384 0.874199 0
M  V30 5660 H 555.856 -5.04399 0.667774 0
M  V30 5661 H 555.254 -5.06803 -2.51332 0
M  V30 5662 H 553.811 -5.99998 -2.54648 0
M  V30 5663 N 557.244 -0.608902 -1.45362 0
M  V30 5664 C 558.484 -0.10763 -2.04116 0
M  V30 5665 C 558.848 1.23883 -1.46686 0
M  V30 5666 O 560.049 1.83091 -1.96803 0
M  V30 5667 C 558.32 -0.0703351 -3.57331 0
M  V30 5668 S 559.879 0.369554 -4.37241 0
M  V30 5669 H 556.697 -0.0502123 -0.709225 0
M  V30 5670 H 559.299 -0.8073 -1.78053 0
M  V30 5671 H 558.003 -1.05379 -3.9664 0
M  V30 5672 H 557.534 0.651287 -3.87971 0
M  V30 5673 H 559.549 1.61878 -4.69052 0
M  V30 5674 N 558.722 1.53707 -0.348139 0
M  V30 5675 C 559.97 2.00591 0.246478 0
M  V30 5676 C 560.291 1.23753 1.50699 0
M  V30 5677 O 559.561 0.345964 1.92821 0
M  V30 5678 H 558.141 0.741053 0.0940679 0
M  V30 5679 H 560.803 1.89139 -0.470354 0
M  V30 5680 H 559.899 3.08297 0.485714 0
M  V30 5681 N 560.2 0.0768682 1.57412 0
M  V30 5682 C 561.446 -0.591961 1.93968 0
M  V30 5683 C 561.779 -1.68954 0.9575 0
M  V30 5684 O 561.054 -1.94496 -0.0124675 0
M  V30 5685 C 561.337 -1.16418 3.40762 0
M  V30 5686 C 561.19 -0.0728933 4.49741 0
M  V30 5687 C 562.509 -2.06814 3.88479 0
M  V30 5688 H 559.628 -0.213716 0.705333 0
M  V30 5689 H 562.27 0.14387 1.89455 0
M  V30 5690 H 560.42 -1.79128 3.4474 0
M  V30 5691 H 562.092 0.560446 4.57883 0
M  V30 5692 H 560.335 0.595859 4.29688 0
M  V30 5693 H 561.006 -0.513755 5.49604 0
M  V30 5694 H 563.482 -1.54033 3.8654 0
M  V30 5695 H 562.358 -2.43785 4.91793 0
M  V30 5696 H 562.619 -2.97844 3.26713 0
M  V30 5697 N 561.678 -1.56367 -0.196722 0
M  V30 5698 C 562.918 -1.82315 -0.92415 0
M  V30 5699 C 563.282 -0.654117 -1.80514 0
M  V30 5700 O 564.483 -0.79345 -2.56823 0
M  V30 5701 C 562.754 -3.13279 -1.72021 0
M  V30 5702 S 564.313 -3.60627 -2.49988 0
M  V30 5703 H 561.131 -0.639862 -0.309997 0
M  V30 5704 H 563.733 -1.94597 -0.187684 0
M  V30 5705 H 562.437 -3.96379 -1.06358 0
M  V30 5706 H 561.968 -3.03871 -2.49852 0
M  V30 5707 H 563.983 -3.25934 -3.74141 0
M  V30 5708 N 563.156 0.464375 -1.50603 0
M  V30 5709 C 564.106 1.55929 -1.66343 0
M  V30 5710 C 565.09 1.52338 -0.517887 0
M  V30 5711 O 566.282 1.59248 -0.772601 0
M  V30 5712 C 563.411 2.94327 -1.7671 0
M  V30 5713 C 562.497 3.02777 -2.96962 0
M  V30 5714 N 562.888 2.81026 -4.20545 0
M  V30 5715 C 561.186 3.33919 -2.95659 0
M  V30 5716 C 561.887 2.94618 -5.01573 0
M  V30 5717 N 560.863 3.25112 -4.35664 0
M  V30 5718 H 564.665 1.37822 -2.59581 0
M  V30 5719 H 562.179 0.671227 -1.47879 0
M  V30 5720 H 564.176 3.73063 -1.86091 0
M  V30 5721 H 562.836 3.13476 -0.846353 0
M  V30 5722 H 563.847 2.56477 -4.49933 0
M  V30 5723 H 560.524 3.59013 -2.13111 0
M  V30 5724 H 561.914 2.81984 -6.09865 0
M  V30 5725 N 564.634 1.40294 0.718013 0
M  V30 5726 C 565.88 1.38645 1.48005 0
M  V30 5727 C 566.213 -0.0121202 1.94196 0
M  V30 5728 O 565.488 -0.980309 1.67989 0
M  V30 5729 C 565.771 2.37379 2.70782 0
M  V30 5730 C 565.624 3.8625 2.30501 0
M  V30 5731 C 566.943 2.33685 3.72933 0
M  V30 5732 H 564.062 0.504928 0.536858 0
M  V30 5733 H 566.704 1.71411 0.819649 0
M  V30 5734 H 564.854 2.09568 3.27129 0
M  V30 5735 H 566.526 4.24879 1.79655 0
M  V30 5736 H 564.769 4.02202 1.6253 0
M  V30 5737 H 565.44 4.50847 3.18498 0
M  V30 5738 H 567.916 2.58314 3.2621 0
M  V30 5739 H 566.792 3.0482 4.56482 0
M  V30 5740 H 567.053 1.34765 4.21059 0
M  V30 5741 N 566.112 -0.949982 1.2575 0
M  V30 5742 C 567.075 -2.02894 1.06615 0
M  V30 5743 C 568.075 -1.60791 0.0173905 0
M  V30 5744 O 569.265 -1.72249 0.260003 0
M  V30 5745 C 566.397 -3.35219 0.619751 0
M  V30 5746 H 567.59 -2.21302 2.02399 0
M  V30 5747 H 565.143 -1.12772 1.08223 0
M  V30 5748 H 565.878 -3.22508 -0.340486 0
M  V30 5749 H 565.663 -3.67129 1.37692 0
M  V30 5750 H 567.153 -4.14505 0.507443 0
M  V30 5751 N 567.59 -1.07411 -1.15328 0
M  V30 5752 C 568.553 -0.698914 -2.18284 0
M  V30 5753 C 569.553 0.261149 -1.58665 0
M  V30 5754 O 570.743 0.0420277 -1.74149 0
M  V30 5755 C 567.875 -0.0302427 -3.40887 0
M  V30 5756 H 569.068 -1.61045 -2.52991 0
M  V30 5757 H 566.621 -0.870724 -1.298 0
M  V30 5758 H 567.356 0.893505 -3.11748 0
M  V30 5759 H 567.141 -0.720759 -3.85419 0
M  V30 5760 H 568.631 0.21759 -4.17033 0
M  V30 5761 N 569.068 1.32177 -0.85831 0
M  V30 5762 C 570.479 1.79381 -0.517621 0
M  V30 5763 C 570.83 1.70841 0.964769 0
M  V30 5764 O 569.955 1.26917 1.75274 0
M  V30 5765 C 570.55 3.25706 -0.932801 0
M  V30 5766 C 569.109 3.70851 -0.643953 0
M  V30 5767 C 568.256 2.53208 -1.13054 0
M  V30 5768 H 571.207 1.19424 -1.04516 0
M  V30 5769 H 571.228 3.79673 -0.250674 0
M  V30 5770 H 570.74 3.31889 -2.01174 0
M  V30 5771 H 568.841 3.70178 0.424112 0
M  V30 5772 H 568.954 4.63495 -1.21281 0
M  V30 5773 H 567.318 2.48676 -0.550679 0
M  V30 5774 H 568.101 2.62143 -2.21666 0
M  V30 5775 N 570.547 0.616602 1.45037 0
M  V30 5776 C 571.795 0.115103 2.01772 0
M  V30 5777 C 572.116 -1.2622 1.48639 0
M  V30 5778 O 571.386 -1.83563 0.684199 0
M  V30 5779 H 569.966 0.0395607 0.745952 0
M  V30 5780 H 572.628 0.800032 1.77723 0
M  V30 5781 H 571.724 0.0717274 3.12018 0
M  V30 5782 N 572.025 -1.5352 0.356285 0
M  V30 5783 C 573.272 -2.01117 -0.236303 0
M  V30 5784 C 573.6 -1.24381 -1.49531 0
M  V30 5785 O 572.855 -0.323057 -1.93015 0
M  V30 5786 C 573.154 -3.52607 -0.583369 0
M  V30 5787 C 572.82 -4.47151 0.58023 0
M  V30 5788 C 571.482 -4.72718 0.899528 0
M  V30 5789 C 573.834 -5.03137 1.36024 0
M  V30 5790 C 571.162 -5.51523 2.00098 0
M  V30 5791 C 573.514 -5.83145 2.45204 0
M  V30 5792 C 572.178 -6.07001 2.77679 0
M  V30 5793 H 571.448 -0.735938 -0.0864695 0
M  V30 5794 H 574.095 -1.85209 0.48683 0
M  V30 5795 H 572.4 -3.66413 -1.38739 0
M  V30 5796 H 574.097 -3.86901 -1.05397 0
M  V30 5797 H 570.687 -4.27394 0.321322 0
M  V30 5798 H 574.871 -4.83339 1.12682 0
M  V30 5799 H 570.127 -5.68229 2.25668 0
M  V30 5800 H 574.301 -6.25537 3.06067 0
M  V30 5801 H 571.928 -6.67851 3.63151 0
M  V30 5802 N 573.503 -0.0852151 -1.57369 0
M  V30 5803 C 574.78 0.622534 -1.85429 0
M  V30 5804 C 575.16 1.86962 -0.980229 0
M  V30 5805 O 574.508 2.28445 -0.0500219 0
M  V30 5806 C 574.718 0.947374 -3.35896 0
M  V30 5807 C 576.066 1.31509 -4.03721 0
M  V30 5808 O 577.09 1.03869 -3.40719 0
M  V30 5809 O 575.949 1.83231 -5.14868 0
M  V30 5810 H 573.043 0.310513 -0.766492 0
M  V30 5811 H 575.589 -0.117164 -1.69295 0
M  V30 5812 H 574.361 0.0622264 -3.91251 0
M  V30 5813 H 573.984 1.74338 -3.5734 0
M  V30 5814 N 574.981 1.5647 0.188427 0
M  V30 5815 C 575.944 1.9421 1.21718 0
M  V30 5816 C 576.944 0.823901 1.38089 0
M  V30 5817 O 578.134 1.09122 1.35787 0
M  V30 5818 C 575.266 2.22197 2.58537 0
M  V30 5819 H 576.459 2.86252 0.894418 0
M  V30 5820 H 574.012 1.50263 0.430211 0
M  V30 5821 H 574.747 1.32814 2.95856 0
M  V30 5822 H 574.532 3.03688 2.48025 0
M  V30 5823 H 576.022 2.52376 3.3271 0
M  V30 5824 N 576.459 -0.456382 1.50847 0
M  V30 5825 C 577.406 -1.55249 1.70782 0
M  V30 5826 C 578.376 -1.56757 0.549231 0
M  V30 5827 O 579.561 -1.74061 0.7815 0
M  V30 5828 C 576.701 -2.93118 1.82143 0
M  V30 5829 C 575.814 -3.01285 3.09598 0
M  V30 5830 C 574.949 -4.30159 3.11667 0
M  V30 5831 C 573.988 -4.32124 4.33515 0
M  V30 5832 N 573.125 -5.52492 4.3324 0
M  V30 5833 H 577.965 -1.37555 2.64353 0
M  V30 5834 H 575.502 -0.668543 1.3103 0
M  V30 5835 H 577.46 -3.73088 1.86711 0
M  V30 5836 H 576.09 -3.09413 0.919978 0
M  V30 5837 H 575.142 -2.14096 3.14431 0
M  V30 5838 H 576.454 -2.98597 3.99551 0
M  V30 5839 H 575.608 -5.18489 3.15046 0
M  V30 5840 H 574.347 -4.35477 2.1957 0
M  V30 5841 H 573.352 -3.42189 4.30333 0
M  V30 5842 H 574.577 -4.28485 5.26856 0
M  V30 5843 H 572.523 -5.58567 3.44004 0
M  V30 5844 H 572.44 -5.51605 5.16979 0
M  V30 5845 H 573.708 -6.42906 4.40786 0
M  V30 5846 N 577.937 -1.40673 -0.710563 0
M  V30 5847 C 578.869 -1.37256 -1.83558 0
M  V30 5848 C 579.882 -0.277133 -1.60424 0
M  V30 5849 O 581.071 -0.537831 -1.70205 0
M  V30 5850 C 578.171 -1.1144 -3.20054 0
M  V30 5851 C 577.344 -2.32734 -3.70342 0
M  V30 5852 C 576.403 -2.03002 -4.85465 0
M  V30 5853 O 575.429 -2.75912 -4.97857 0
M  V30 5854 N 576.631 -1.01105 -5.71627 0
M  V30 5855 H 579.396 -2.34215 -1.86985 0
M  V30 5856 H 576.957 -1.35091 -0.892301 0
M  V30 5857 H 578.949 -0.895265 -3.94673 0
M  V30 5858 H 577.519 -0.231307 -3.11743 0
M  V30 5859 H 576.739 -2.70446 -2.86798 0
M  V30 5860 H 578.027 -3.13584 -4.00678 0
M  V30 5861 H 577.425 -0.407303 -5.64232 0
M  V30 5862 H 575.982 -0.85182 -6.4621 0
M  V30 5863 N 579.415 0.9433 -1.26252 0
M  V30 5864 C 580.661 1.69175 -1.11837 0
M  V30 5865 C 580.994 1.91238 0.337891 0
M  V30 5866 O 580.269 1.49152 1.24836 0
M  V30 5867 C 580.552 3.06783 -1.88563 0
M  V30 5868 C 580.405 2.9206 -3.42083 0
M  V30 5869 C 581.724 4.06865 -1.67776 0
M  V30 5870 H 578.843 0.61399 -0.407658 0
M  V30 5871 H 581.485 1.09572 -1.55222 0
M  V30 5872 H 579.635 3.57663 -1.51689 0
M  V30 5873 H 581.307 2.48419 -3.88698 0
M  V30 5874 H 579.55 2.27731 -3.69217 0
M  V30 5875 H 580.221 3.89651 -3.90994 0
M  V30 5876 H 582.697 3.64939 -1.99897 0
M  V30 5877 H 581.573 5.01168 -2.23879 0
M  V30 5878 H 581.834 4.37705 -0.621816 0
M  V30 5879 N 580.893 1.08022 1.14757 0
M  V30 5880 C 581.803 0.718292 2.23333 0
M  V30 5881 C 582.819 -0.273477 1.71837 0
M  V30 5882 O 583.995 -0.118406 2.01052 0
M  V30 5883 C 581.06 0.128855 3.4646 0
M  V30 5884 C 580.121 1.17473 4.12915 0
M  V30 5885 C 579.354 0.61333 5.30164 0
M  V30 5886 O 579.577 -0.568458 5.6756 0
M  V30 5887 O 578.511 1.3615 5.86299 0
M  V30 5888 H 582.337 1.62394 2.56636 0
M  V30 5889 H 579.922 0.853628 1.22611 0
M  V30 5890 H 581.804 -0.197249 4.20938 0
M  V30 5891 H 580.479 -0.750014 3.14891 0
M  V30 5892 H 579.386 1.5533 3.40328 0
M  V30 5893 H 580.719 2.02574 4.48581 0
M  V30 5894 N 582.371 -1.3172 0.865308 0
M  V30 5895 C 583.334 -2.26918 0.322627 0
M  V30 5896 C 584.334 -1.52031 -0.523751 0
M  V30 5897 O 585.524 -1.70973 -0.333727 0
M  V30 5898 C 582.656 -3.36558 -0.542338 0
M  V30 5899 H 583.849 -2.76432 1.16298 0
M  V30 5900 H 581.402 -1.42573 0.640512 0
M  V30 5901 H 582.137 -2.92329 -1.40407 0
M  V30 5902 H 581.922 -3.92048 0.0636395 0
M  V30 5903 H 583.412 -4.07465 -0.91446 0
M  V30 5904 N 583.85 -0.624285 -1.44708 0
M  V30 5905 C 585.098 -0.125802 -2.01708 0
M  V30 5906 C 585.418 1.2543 -1.49306 0
M  V30 5907 O 584.689 1.83198 -0.693924 0
M  V30 5908 H 583.269 -0.0435161 -0.745731 0
M  V30 5909 H 585.931 -0.809446 -1.77296 0
M  V30 5910 H 585.027 -0.0882734 -3.11975 0
M  V30 5911 N 585.328 1.53329 -0.364422 0
M  V30 5912 C 586.291 2.24323 0.470292 0
M  V30 5913 C 587.291 1.25068 1.01067 0
M  V30 5914 O 588.481 1.49354 0.896605 0
M  V30 5915 C 585.613 2.97908 1.65722 0
M  V30 5916 H 586.806 2.9952 -0.150917 0
M  V30 5917 H 584.359 1.55868 -0.116092 0
M  V30 5918 H 585.094 2.2695 2.31655 0
M  V30 5919 H 584.879 3.70732 1.27671 0
M  V30 5920 H 586.369 3.5188 2.24878 0
M  V30 5921 N 586.806 0.0935595 1.57322 0
M  V30 5922 C 587.736 -0.863062 2.16964 0
M  V30 5923 C 588.717 -1.29528 1.10256 0
M  V30 5924 O 589.902 -1.36245 1.38387 0
M  V30 5925 C 587.032 -2.12276 2.74875 0
M  V30 5926 C 585.986 -1.82921 3.86942 0
M  V30 5927 C 585.312 -3.15707 4.31548 0
M  V30 5928 C 586.612 -1.11737 5.10208 0
M  V30 5929 H 588.306 -0.366145 2.97153 0
M  V30 5930 H 585.852 -0.174673 1.42937 0
M  V30 5931 H 587.805 -2.79634 3.1525 0
M  V30 5932 H 586.529 -2.64248 1.91938 0
M  V30 5933 H 585.188 -1.17961 3.47103 0
M  V30 5934 H 584.836 -3.65563 3.45504 0
M  V30 5935 H 584.536 -2.96849 5.07104 0
M  V30 5936 H 586.06 -3.84226 4.74555 0
M  V30 5937 H 587.474 -1.69203 5.47762 0
M  V30 5938 H 585.871 -1.03064 5.91183 0
M  V30 5939 H 586.941 -0.0998818 4.84797 0
M  V30 5940 N 588.284 -1.56567 -0.180126 0
M  V30 5941 C 589.214 -1.98753 -1.22553 0
M  V30 5942 C 590.195 -0.86175 -1.46656 0
M  V30 5943 O 591.38 -1.12719 -1.58139 0
M  V30 5944 C 588.51 -2.33988 -2.56645 0
M  V30 5945 C 587.464 -3.49445 -2.47128 0
M  V30 5946 C 586.79 -3.70397 -3.8563 0
M  V30 5947 C 588.09 -4.83171 -1.98352 0
M  V30 5948 H 589.784 -2.86332 -0.874896 0
M  V30 5949 H 587.33 -1.37757 -0.419414 0
M  V30 5950 H 589.283 -2.62097 -3.29974 0
M  V30 5951 H 588.007 -1.43309 -2.93479 0
M  V30 5952 H 586.666 -3.2145 -1.76254 0
M  V30 5953 H 586.314 -2.77023 -4.19842 0
M  V30 5954 H 586.014 -4.48077 -3.80132 0
M  V30 5955 H 587.538 -4.00897 -4.60558 0
M  V30 5956 H 588.952 -5.10213 -2.61449 0
M  V30 5957 H 587.349 -5.64425 -2.03823 0
M  V30 5958 H 588.419 -4.75753 -0.937402 0
M  V30 5959 N 589.762 0.448376 -1.51087 0
M  V30 5960 C 590.71 1.56407 -1.72161 0
M  V30 5961 C 591.704 1.58878 -0.587721 0
M  V30 5962 O 592.91 1.62755 -0.768822 0
M  V30 5963 H 589.285 0.519423 -0.543786 0
M  V30 5964 H 591.256 1.35803 -2.65707 0
M  V30 5965 C 590.005 2.94163 -1.85373 0
M  V30 5966 H 589.328 2.9299 -2.72024 0
M  V30 5967 H 590.768 3.71625 -2.04135 0
M  V30 5968 C 589.227 3.31317 -0.610803 0
M  V30 5969 O 589.757 4.00985 0.239636 0
M  V30 5970 N 587.963 2.86966 -0.458127 0
M  V30 5971 H 587.51 2.30443 -1.15124 0
M  V30 5972 H 587.468 3.12188 0.372289 0
M  V30 5973 N 591.24 1.41047 0.703093 0
M  V30 5974 C 592.17 1.45067 1.82969 0
M  V30 5975 C 593.151 0.31016 1.67248 0
M  V30 5976 O 594.336 0.520548 1.87093 0
M  V30 5977 C 591.466 1.32478 3.2104 0
M  V30 5978 C 590.42 2.44262 3.51454 0
M  V30 5979 C 589.746 2.16742 4.88801 0
M  V30 5980 C 591.046 3.86606 3.51189 0
M  V30 5981 H 592.74 2.39353 1.79863 0
M  V30 5982 H 590.286 1.15206 0.863919 0
M  V30 5983 H 592.239 1.33904 3.99559 0
M  V30 5984 H 590.963 0.346735 3.24754 0
M  V30 5985 H 589.622 2.42107 2.75282 0
M  V30 5986 H 589.27 1.17299 4.89132 0
M  V30 5987 H 588.97 2.91643 5.10116 0
M  V30 5988 H 590.494 2.19872 5.69639 0
M  V30 5989 H 591.908 3.90517 4.19725 0
M  V30 5990 H 590.305 4.61128 3.84033 0
M  V30 5991 H 591.375 4.15296 2.50315 0
M  V30 5992 N 592.718 -0.936591 1.26751 0
M  V30 5993 C 593.665 -2.03597 1.08706 0
M  V30 5994 C 594.635 -1.66097 -0.00926542 0
M  V30 5995 O 595.82 -1.90199 0.151377 0
M  V30 5996 C 592.96 -3.3727 0.73094 0
M  V30 5997 C 592.073 -3.87778 1.90399 0
M  V30 5998 C 591.208 -5.09859 1.49056 0
M  V30 5999 C 590.247 -5.5264 2.63164 0
M  V30 6000 N 589.384 -6.65921 2.22471 0
M  V30 6001 H 594.224 -2.18364 2.02784 0
M  V30 6002 H 591.761 -1.06985 1.00958 0
M  V30 6003 H 593.719 -4.14128 0.505328 0
M  V30 6004 H 592.349 -3.22337 -0.172868 0
M  V30 6005 H 591.401 -3.07279 2.2424 0
M  V30 6006 H 592.713 -4.15464 2.76028 0
M  V30 6007 H 591.867 -5.9419 1.22567 0
M  V30 6008 H 590.606 -4.8393 0.60524 0
M  V30 6009 H 589.611 -4.66863 2.90377 0
M  V30 6010 H 590.836 -5.80568 3.52303 0
M  V30 6011 H 588.782 -6.41667 1.36379 0
M  V30 6012 H 588.699 -6.93216 3.01641 0
M  V30 6013 H 589.967 -7.53616 1.99205 0
M  V30 6014 N 594.196 -1.08629 -1.14182 0
M  V30 6015 C 595.159 -0.722027 -2.1753 0
M  V30 6016 C 596.159 0.244305 -1.58933 0
M  V30 6017 O 597.349 0.0235545 -1.74184 0
M  V30 6018 C 594.481 -0.0663966 -3.40835 0
M  V30 6019 H 595.674 -1.63719 -2.51269 0
M  V30 6020 H 593.227 -0.884442 -1.28869 0
M  V30 6021 H 593.962 0.860389 -3.12678 0
M  V30 6022 H 593.747 -0.761598 -3.84632 0
M  V30 6023 H 595.237 0.173346 -4.1724 0
M  V30 6024 N 595.674 1.31259 -0.872281 0
M  V30 6025 C 596.584 2.32221 -0.333255 0
M  V30 6026 C 597.6 1.6481 0.558013 0
M  V30 6027 O 598.776 1.96212 0.454175 0
M  V30 6028 C 595.841 3.43708 0.454479 0
M  V30 6029 C 594.902 4.26774 -0.465024 0
M  V30 6030 C 594.135 5.32937 0.28521 0
M  V30 6031 O 594.358 5.49968 1.513 0
M  V30 6032 O 593.292 6.00834 -0.358126 0
M  V30 6033 H 597.118 2.80252 -1.17016 0
M  V30 6034 H 594.703 1.352 -0.635724 0
M  V30 6035 H 596.585 4.11656 0.900963 0
M  V30 6036 H 595.26 2.97836 1.26789 0
M  V30 6037 H 594.167 3.61571 -0.960055 0
M  V30 6038 H 595.5 4.76217 -1.2441 0
M  V30 6039 N 597.152 0.631951 1.44375 0
M  V30 6040 C 598.084 -0.110911 2.28931 0
M  V30 6041 C 599.097 -0.808086 1.41329 0
M  V30 6042 O 600.286 -0.669396 1.65473 0
M  V30 6043 C 597.386 -1.17928 3.1772 0
M  V30 6044 C 596.559 -0.564458 4.33743 0
M  V30 6045 C 595.618 -1.5269 5.0356 0
M  V30 6046 O 594.644 -1.04372 5.59549 0
M  V30 6047 N 595.846 -2.86123 5.05088 0
M  V30 6048 H 598.611 0.614758 2.93327 0
M  V30 6049 H 596.172 0.473171 1.54831 0
M  V30 6050 H 598.164 -1.82348 3.61291 0
M  V30 6051 H 596.734 -1.80717 2.55069 0
M  V30 6052 H 595.954 0.258373 3.93352 0
M  V30 6053 H 597.242 -0.134355 5.08623 0
M  V30 6054 H 596.64 -3.27959 4.60933 0
M  V30 6055 H 595.197 -3.45901 5.52445 0
M  V30 6056 N 598.631 -1.53133 0.372548 0
M  V30 6057 C 600.047 -1.59585 0.02178 0
M  V30 6058 C 600.247 -1.38736 -1.46132 0
M  V30 6059 O 599.303 -1.19599 -2.22379 0
M  V30 6060 C 600.616 -2.9678 0.483959 0
M  V30 6061 C 602.164 -3.09909 0.438775 0
M  V30 6062 C 602.639 -4.49527 0.876876 0
M  V30 6063 N 604.13 -4.55663 0.832214 0
M  V30 6064 C 604.865 -5.61896 1.14281 0
M  V30 6065 N 604.361 -6.75852 1.52303 0
M  V30 6066 N 606.154 -5.51916 1.06515 0
M  V30 6067 H 598.305 -1.64936 1.33827 0
M  V30 6068 H 600.568 -0.773947 0.547458 0
M  V30 6069 H 600.274 -3.17198 1.51915 0
M  V30 6070 H 600.148 -3.7699 -0.125784 0
M  V30 6071 H 602.535 -2.89197 -0.587294 0
M  V30 6072 H 602.616 -2.31691 1.0841 0
M  V30 6073 H 602.26 -4.70979 1.90109 0
M  V30 6074 H 602.19 -5.26186 0.208727 0
M  V30 6075 H 604.681 -3.73844 0.552195 0
M  V30 6076 H 604.994 -7.52862 1.7441 0
M  V30 6077 H 603.339 -6.77226 1.56175 0
M  V30 6078 H 606.53 -4.6177 0.767235 0
M  V30 6079 H 606.703 -6.34609 1.31053 0
M  V30 6080 N 600.109 -0.101901 -1.5727 0
M  V30 6081 C 601.334 0.571759 -1.99363 0
M  V30 6082 C 601.759 1.60507 -0.980768 0
M  V30 6083 O 601.117 1.81231 0.0498517 0
M  V30 6084 C 601.165 1.18996 -3.404 0
M  V30 6085 O 600.269 2.30572 -3.41922 0
M  V30 6086 H 599.61 0.144449 -0.648098 0
M  V30 6087 H 602.14 -0.185325 -2.03759 0
M  V30 6088 H 602.15 1.52962 -3.78241 0
M  V30 6089 H 600.825 0.432984 -4.1364 0
M  V30 6090 H 599.402 1.98173 -3.15883 0
M  V30 6091 N 601.587 1.56661 0.17182 0
M  V30 6092 C 602.519 1.92934 1.2373 0
M  V30 6093 C 603.532 0.822385 1.40502 0
M  V30 6094 O 604.721 1.10083 1.40514 0
M  V30 6095 C 601.821 2.16651 2.60607 0
M  V30 6096 C 600.994 3.47878 2.6514 0
M  V30 6097 C 600.053 3.60429 3.83377 0
M  V30 6098 O 599.079 4.33051 3.69398 0
M  V30 6099 N 600.281 2.95241 4.99813 0
M  V30 6100 H 603.046 2.84931 0.929205 0
M  V30 6101 H 600.607 1.5781 0.361588 0
M  V30 6102 H 602.599 2.22312 3.38171 0
M  V30 6103 H 601.169 1.3104 2.83809 0
M  V30 6104 H 600.389 3.53879 1.73675 0
M  V30 6105 H 601.677 4.34232 2.6518 0
M  V30 6106 H 601.075 2.3611 5.14071 0
M  V30 6107 H 599.632 3.06499 5.75241 0
M  V30 6108 N 603.065 -0.440357 1.51323 0
M  V30 6109 C 604.311 -1.19181 1.64085 0
M  V30 6110 C 604.644 -1.90936 0.354575 0
M  V30 6111 O 603.919 -1.8347 -0.645675 0
M  V30 6112 C 604.202 -2.2112 2.84215 0
M  V30 6113 C 604.055 -1.53468 4.22809 0
M  V30 6114 C 605.374 -3.22133 2.99864 0
M  V30 6115 H 602.493 -0.431924 0.597169 0
M  V30 6116 H 605.135 -0.481443 1.83799 0
M  V30 6117 H 603.285 -2.81703 2.67537 0
M  V30 6118 H 604.957 -0.962455 4.51148 0
M  V30 6119 H 603.2 -0.837086 4.25647 0
M  V30 6120 H 603.871 -2.27694 5.02852 0
M  V30 6121 H 606.347 -2.71601 3.15233 0
M  V30 6122 H 605.223 -3.90756 3.85488 0
M  V30 6123 H 605.484 -3.88061 2.11804 0
M  V30 6124 N 604.543 -1.41418 -0.695603 0
M  V30 6125 C 605.506 -1.42988 -1.79129 0
M  V30 6126 C 606.506 -0.320514 -1.57573 0
M  V30 6127 O 607.696 -0.58039 -1.64247 0
M  V30 6128 C 604.828 -1.24122 -3.175 0
M  V30 6129 H 606.021 -2.40526 -1.7913 0
M  V30 6130 H 603.574 -1.2756 -0.903225 0
M  V30 6131 H 604.309 -0.274253 -3.23138 0
M  V30 6132 H 604.094 -2.045 -3.34547 0
M  V30 6133 H 605.584 -1.28056 -3.97481 0
M  V30 6134 N 606.021 0.929856 -1.27246 0
M  V30 6135 C 606.984 2.01172 -1.09829 0
M  V30 6136 C 607.984 1.60743 -0.0429687 0
M  V30 6137 O 609.174 1.71813 -0.287373 0
M  V30 6138 C 606.306 3.34191 -0.673003 0
M  V30 6139 H 607.499 2.18054 -2.05895 0
M  V30 6140 H 605.052 1.11036 -1.10003 0
M  V30 6141 H 605.787 3.23009 0.289134 0
M  V30 6142 H 605.572 3.64892 -1.43515 0
M  V30 6143 H 607.062 4.13646 -0.573323 0
M  V30 6144 N 607.499 1.09233 1.13605 0
M  V30 6145 C 608.724 0.849067 1.89224 0
M  V30 6146 C 609.149 -0.593875 1.78479 0
M  V30 6147 O 608.507 -1.41703 1.13092 0
M  V30 6148 C 608.555 1.28642 3.36873 0
M  V30 6149 O 607.659 0.44363 4.10007 0
M  V30 6150 H 607 0.30767 0.588417 0
M  V30 6151 H 609.53 1.45595 1.43748 0
M  V30 6152 H 609.54 1.27096 3.87699 0
M  V30 6153 H 608.215 2.33729 3.44011 0
M  V30 6154 H 606.792 0.523241 3.69211 0
M  V30 6155 N 608.977 -1.30795 0.87923 0
M  V30 6156 C 609.91 -2.26396 0.286404 0
M  V30 6157 C 610.888 -1.51528 -0.589748 0
M  V30 6158 O 612.072 -1.80566 -0.541119 0
M  V30 6159 C 609.199 -3.33458 -0.593581 0
M  V30 6160 C 608.245 -4.2597 0.21247 0
M  V30 6161 S 609.078 -5.11132 1.59702 0
M  V30 6162 C 610.234 -6.21705 0.723408 0
M  V30 6163 H 610.467 -2.7633 1.09677 0
M  V30 6164 H 608 -1.38703 0.678305 0
M  V30 6165 H 609.958 -3.9561 -1.09557 0
M  V30 6166 H 608.619 -2.82259 -1.37799 0
M  V30 6167 H 607.812 -5.01907 -0.458822 0
M  V30 6168 H 607.414 -3.68363 0.646883 0
M  V30 6169 H 609.706 -6.77472 -0.0620739 0
M  V30 6170 H 610.649 -6.93007 1.4542 0
M  V30 6171 H 611.057 -5.63771 0.286855 0
M  V30 6172 N 610.455 -0.639598 -1.44038 0
M  V30 6173 C 611.385 0.0469443 -2.33453 0
M  V30 6174 C 612.366 0.82609 -1.48694 0
M  V30 6175 O 613.551 0.790285 -1.77393 0
M  V30 6176 C 610.681 1.02338 -3.3188 0
M  V30 6177 C 609.635 0.355284 -4.26523 0
M  V30 6178 C 608.961 1.44221 -5.14883 0
M  V30 6179 C 610.261 -0.743798 -5.16977 0
M  V30 6180 H 611.955 -0.699735 -2.91108 0
M  V30 6181 H 609.501 -0.337946 -1.39978 0
M  V30 6182 H 611.454 1.51247 -3.93322 0
M  V30 6183 H 610.178 1.80105 -2.72451 0
M  V30 6184 H 608.837 -0.113239 -3.66425 0
M  V30 6185 H 608.485 2.21097 -4.51802 0
M  V30 6186 H 608.185 1.00052 -5.79019 0
M  V30 6187 H 609.709 1.93295 -5.79197 0
M  V30 6188 H 611.123 -0.337444 -5.72306 0
M  V30 6189 H 609.52 -1.10914 -5.89761 0
M  V30 6190 H 610.59 -1.60745 -4.57481 0
M  V30 6191 N 611.933 1.52934 -0.380664 0
M  V30 6192 C 613.158 2.06363 0.207157 0
M  V30 6193 C 613.583 1.25122 1.4045 0
M  V30 6194 O 612.941 0.274062 1.79217 0
M  V30 6195 C 612.989 3.56162 0.563996 0
M  V30 6196 O 612.093 3.77552 1.65917 0
M  V30 6197 H 611.434 0.663468 0.0265859 0
M  V30 6198 H 613.964 1.9719 -0.545635 0
M  V30 6199 H 613.974 3.99453 0.830752 0
M  V30 6200 H 612.649 4.14732 -0.311427 0
M  V30 6201 H 611.226 3.46154 1.3868 0
M  V30 6202 N 613.412 0.11024 1.57214 0
M  V30 6203 C 614.375 -0.828808 2.1369 0
M  V30 6204 C 615.375 -1.20059 1.06969 0
M  V30 6205 O 616.565 -1.12754 1.32786 0
M  V30 6206 C 613.697 -2.11959 2.66994 0
M  V30 6207 H 614.89 -0.338146 2.97988 0
M  V30 6208 H 612.443 -0.138913 1.55681 0
M  V30 6209 H 613.178 -2.65476 1.8626 0
M  V30 6210 H 612.963 -1.86258 3.45037 0
M  V30 6211 H 614.453 -2.79105 3.10629 0
M  V30 6212 N 614.89 -1.56749 -0.16351 0
M  V30 6213 C 616.306 -1.51043 -0.515567 0
M  V30 6214 C 616.506 -0.815855 -1.84245 0
M  V30 6215 O 615.562 -0.379477 -2.49632 0
M  V30 6216 C 616.875 -2.95791 -0.541114 0
M  V30 6217 C 618.423 -3.0664 -0.627776 0
M  V30 6218 C 618.898 -4.52861 -0.684141 0
M  V30 6219 N 620.389 -4.5714 -0.746818 0
M  V30 6220 C 621.124 -5.67634 -0.811137 0
M  V30 6221 N 620.62 -6.8774 -0.835811 0
M  V30 6222 N 622.413 -5.55624 -0.850756 0
M  V30 6223 H 614.564 -2.00307 0.70645 0
M  V30 6224 H 616.827 -0.912876 0.255659 0
M  V30 6225 H 616.533 -3.49797 0.365329 0
M  V30 6226 H 616.407 -3.50858 -1.38487 0
M  V30 6227 H 618.794 -2.52663 -1.52464 0
M  V30 6228 H 618.875 -2.54645 0.242805 0
M  V30 6229 H 618.519 -5.07472 0.2085 0
M  V30 6230 H 618.449 -5.02621 -1.57098 0
M  V30 6231 H 620.94 -3.70669 -0.735717 0
M  V30 6232 H 621.253 -7.67701 -0.886279 0
M  V30 6233 H 619.598 -6.90334 -0.803958 0
M  V30 6234 H 622.789 -4.60709 -0.828535 0
M  V30 6235 H 622.962 -6.41756 -0.897418 0
M  V30 6236 N 616.368 0.432326 -1.51554 0
M  V30 6237 C 617.779 1.01202 -1.56892 0
M  V30 6238 C 618.13 1.92175 -0.395394 0
M  V30 6239 O 617.255 2.10844 0.487198 0
M  V30 6240 C 617.85 1.84217 -2.8434 0
M  V30 6241 C 616.409 2.37228 -2.92233 0
M  V30 6242 C 615.556 1.16576 -2.51606 0
M  V30 6243 H 618.507 0.213407 -1.57259 0
M  V30 6244 H 618.528 2.69721 -2.68385 0
M  V30 6245 H 618.04 1.17979 -3.69733 0
M  V30 6246 H 616.141 3.06905 -2.11282 0
M  V30 6247 H 616.254 2.69682 -3.95991 0
M  V30 6248 H 614.618 1.51263 -2.04919 0
M  V30 6249 H 615.401 0.519404 -3.39348 0
M  V30 6250 N 617.846 1.41785 0.688094 0
M  V30 6251 C 618.778 1.40159 1.81351 0
M  V30 6252 C 619.791 0.30262 1.59963 0
M  V30 6253 O 620.98 0.564841 1.69327 0
M  V30 6254 C 618.08 1.16517 3.1824 0
M  V30 6255 C 617.253 2.38597 3.66593 0
M  V30 6256 C 616.312 2.10699 4.82174 0
M  V30 6257 O 615.338 2.83798 4.93404 0
M  V30 6258 N 616.54 1.10187 5.69947 0
M  V30 6259 H 619.305 2.3716 1.83236 0
M  V30 6260 H 616.866 1.36494 0.870697 0
M  V30 6261 H 618.858 0.957941 3.93199 0
M  V30 6262 H 617.428 0.280873 3.11336 0
M  V30 6263 H 616.648 2.74974 2.82459 0
M  V30 6264 H 617.936 3.19919 3.95638 0
M  V30 6265 H 617.334 0.497016 5.63512 0
M  V30 6266 H 615.891 0.954518 6.44773 0
M  V30 6267 N 619.324 -0.923095 1.27737 0
M  V30 6268 C 620.735 -1.48626 1.12993 0
M  V30 6269 C 621.086 -1.94142 -0.283439 0
M  V30 6270 O 620.211 -1.81605 -1.17681 0
M  V30 6271 C 620.806 -2.70117 2.04505 0
M  V30 6272 C 619.365 -3.22642 1.93853 0
M  V30 6273 C 618.512 -1.95368 1.96791 0
M  V30 6274 H 621.463 -0.736737 1.40563 0
M  V30 6275 H 621.484 -3.4506 1.60356 0
M  V30 6276 H 620.996 -2.36959 3.07363 0
M  V30 6277 H 619.097 -3.60549 0.939968 0
M  V30 6278 H 619.21 -3.88525 2.80331 0
M  V30 6279 H 617.574 -2.12061 1.41076 0
M  V30 6280 H 618.357 -1.64517 3.01312 0
M  V30 6281 N 620.802 -1.09834 -1.13024 0
M  V30 6282 C 621.749 -0.741522 -2.18564 0
M  V30 6283 C 622.719 0.279236 -1.63736 0
M  V30 6284 O 623.904 0.159923 -1.90129 0
M  V30 6285 C 621.044 -0.17277 -3.44667 0
M  V30 6286 C 620.157 -1.24808 -4.13578 0
M  V30 6287 C 619.292 -0.641631 -5.27311 0
M  V30 6288 C 618.331 -1.69795 -5.88078 0
M  V30 6289 N 617.468 -1.11223 -6.93234 0
M  V30 6290 H 622.308 -1.64576 -2.48432 0
M  V30 6291 H 619.845 -0.822174 -1.21978 0
M  V30 6292 H 621.803 0.17482 -4.16834 0
M  V30 6293 H 620.433 0.694725 -3.15235 0
M  V30 6294 H 619.485 -1.71288 -3.39653 0
M  V30 6295 H 620.797 -2.04795 -4.54819 0
M  V30 6296 H 619.951 -0.243128 -6.06213 0
M  V30 6297 H 618.69 0.189742 -4.87331 0
M  V30 6298 H 617.695 -2.10595 -5.07868 0
M  V30 6299 H 618.92 -2.53206 -6.3013 0
M  V30 6300 H 616.866 -0.302208 -6.55304 0
M  V30 6301 H 616.783 -1.84901 -7.3304 0
M  V30 6302 H 618.051 -0.740068 -7.75979 0
M  V30 6303 N 622.28 1.30327 -0.886154 0
M  V30 6304 C 623.528 1.9571 -0.504195 0
M  V30 6305 C 623.849 1.70294 0.950003 0
M  V30 6306 O 623.119 1.02718 1.66811 0
M  V30 6307 H 621.699 0.72412 -0.183465 0
M  V30 6308 H 624.361 1.58835 -1.12949 0
M  V30 6309 H 623.457 3.04704 -0.675431 0
M  V30 6310 N 623.758 0.647228 1.43697 0
M  V30 6311 C 624.986 0.16575 2.06235 0
M  V30 6312 C 625.401 -1.1662 1.48476 0
M  V30 6313 O 624.758 -1.7187 0.613762 0
M  V30 6314 C 624.809 0.0621651 3.61447 0
M  V30 6315 O 624.53 1.34146 4.17057 0
M  V30 6316 C 626.031 -0.446102 4.4105 0
M  V30 6317 H 623.251 0.0871158 0.665321 0
M  V30 6318 H 625.795 0.886183 1.84301 0
M  V30 6319 H 623.95 -0.608794 3.82587 0
M  V30 6320 H 624.364 1.19675 5.10664 0
M  V30 6321 H 625.838 -0.46755 5.50016 0
M  V30 6322 H 626.315 -1.47627 4.13646 0
M  V30 6323 H 626.921 0.192159 4.24866 0
M  V30 6324 N 625.236 -1.5273 0.388769 0
M  V30 6325 C 626.483 -2.01573 -0.19359 0
M  V30 6326 C 626.811 -1.27525 -1.46859 0
M  V30 6327 O 626.066 -0.363926 -1.92286 0
M  V30 6328 C 626.365 -3.53765 -0.508445 0
M  V30 6329 C 626.031 -4.4582 0.674947 0
M  V30 6330 C 624.693 -4.70703 0.999596 0
M  V30 6331 C 627.045 -5.00138 1.46666 0
M  V30 6332 C 624.373 -5.47155 2.11751 0
M  V30 6333 C 626.725 -5.77812 2.57518 0
M  V30 6334 C 625.389 -6.00975 2.90492 0
M  V30 6335 H 624.659 -0.737606 -0.0708397 0
M  V30 6336 H 627.306 -1.84134 0.526006 0
M  V30 6337 H 625.611 -3.69274 -1.30936 0
M  V30 6338 H 627.308 -3.8905 -0.971664 0
M  V30 6339 H 623.898 -4.26616 0.411906 0
M  V30 6340 H 628.082 -4.8084 1.22909 0
M  V30 6341 H 623.338 -5.63314 2.3767 0
M  V30 6342 H 627.512 -6.18904 3.19267 0
M  V30 6343 H 625.139 -6.59998 3.77236 0
M  V30 6344 N 626.714 -0.118576 -1.57153 0
M  V30 6345 C 627.991 0.583062 -1.86708 0
M  V30 6346 C 628.371 1.84841 -1.01967 0
M  V30 6347 O 627.719 2.28288 -0.0984673 0
M  V30 6348 C 627.929 0.875912 -3.3783 0
M  V30 6349 C 629.277 1.22916 -4.0642 0
M  V30 6350 O 630.301 0.966188 -3.42846 0
M  V30 6351 O 629.16 1.72269 -5.18638 0
M  V30 6352 H 626.254 0.294185 -0.772906 0
M  V30 6353 H 628.8 -0.153048 -1.69008 0
M  V30 6354 H 627.572 -0.0207776 -3.91294 0
M  V30 6355 H 627.195 1.66719 -3.60958 0
M  V30 6356 N 628.193 1.56834 0.155195 0
M  V30 6357 C 629.123 2.00678 1.19376 0
M  V30 6358 C 630.104 0.884973 1.45266 0
M  V30 6359 O 631.289 1.1522 1.56326 0
M  V30 6360 C 628.419 2.38042 2.5289 0
M  V30 6361 C 627.373 3.53332 2.41538 0
M  V30 6362 C 626.699 3.76485 3.79688 0
M  V30 6363 C 627.999 4.86265 1.9064 0
M  V30 6364 H 629.693 2.87688 0.829232 0
M  V30 6365 H 627.239 1.38407 0.397445 0
M  V30 6366 H 629.192 2.67314 3.25763 0
M  V30 6367 H 627.916 1.4796 2.91162 0
M  V30 6368 H 626.575 3.24213 1.71117 0
M  V30 6369 H 626.223 2.83667 4.15382 0
M  V30 6370 H 625.923 4.54068 3.72956 0
M  V30 6371 H 627.447 4.08174 4.54122 0
M  V30 6372 H 628.861 5.14308 2.53299 0
M  V30 6373 H 627.258 5.67597 1.94818 0
M  V30 6374 H 628.328 4.77184 0.861596 0
M  V30 6375 N 629.671 -0.424282 1.51781 0
M  V30 6376 C 630.619 -1.53649 1.74628 0
M  V30 6377 C 631.613 -1.57923 0.612922 0
M  V30 6378 O 632.819 -1.61511 0.794618 0
M  V30 6379 H 629.194 -0.510706 0.551981 0
M  V30 6380 H 631.165 -1.31558 2.67834 0
M  V30 6381 C 629.914 -2.91177 1.9003 0
M  V30 6382 H 629.237 -2.88625 2.76651 0
M  V30 6383 H 630.677 -3.6833 2.10021 0
M  V30 6384 C 629.136 -3.30303 0.663435 0
M  V30 6385 O 629.666 -4.01315 -0.175812 0
M  V30 6386 N 627.872 -2.86201 0.503723 0
M  V30 6387 H 627.419 -2.28583 1.18776 0
M  V30 6388 H 627.377 -3.12741 -0.322575 0
M  V30 6389 N 631.149 -1.42148 -0.680565 0
M  V30 6390 C 632.426 -1.32795 -1.43614 0
M  V30 6391 C 632.806 0.037415 -2.11067 0
M  V30 6392 O 632.154 1.05258 -2.02813 0
M  V30 6393 C 632.364 -2.49206 -2.44331 0
M  V30 6394 C 633.712 -2.91059 -3.09144 0
M  V30 6395 O 634.736 -2.49054 -2.54657 0
M  V30 6396 O 633.595 -3.63741 -4.07866 0
M  V30 6397 H 630.689 -0.523397 -0.640301 0
M  V30 6398 H 633.235 -1.54144 -0.709775 0
M  V30 6399 H 632.007 -3.40252 -1.93247 0
M  V30 6400 H 631.63 -2.29813 -3.24456 0
M  V30 6401 N 632.627 0.916307 -1.28225 0
M  V30 6402 C 633.876 1.65975 -1.14608 0
M  V30 6403 C 634.189 1.93204 0.305191 0
M  V30 6404 O 635.395 2.65611 0.562432 0
M  V30 6405 C 633.851 2.98989 -2.00333 0
M  V30 6406 C 633.459 2.79417 -3.50186 0
M  V30 6407 C 635.203 3.76856 -1.95397 0
M  V30 6408 C 633.11 4.08056 -4.28071 0
M  V30 6409 H 632.04 0.622587 -0.425324 0
M  V30 6410 H 634.691 1.01705 -1.52736 0
M  V30 6411 H 633.073 3.6438 -1.5506 0
M  V30 6412 H 634.247 2.22723 -4.034 0
M  V30 6413 H 632.562 2.14966 -3.56621 0
M  V30 6414 H 635.159 4.72203 -2.50856 0
M  V30 6415 H 635.502 4.05776 -0.930137 0
M  V30 6416 H 636.035 3.1828 -2.38626 0
M  V30 6417 H 632.774 3.8431 -5.31024 0
M  V30 6418 H 632.294 4.64371 -3.79631 0
M  V30 6419 H 633.973 4.76333 -4.37854 0
M  V30 6420 N 634.105 1.10431 1.1244 0
M  V30 6421 C 635.516 0.864439 1.65482 0
M  V30 6422 C 635.867 -0.60527 1.8663 0
M  V30 6423 O 634.992 -1.46492 1.59276 0
M  V30 6424 C 635.587 1.56267 3.0061 0
M  V30 6425 C 634.146 1.3695 3.50602 0
M  V30 6426 C 633.293 1.61209 2.25626 0
M  V30 6427 H 636.244 1.26203 0.962209 0
M  V30 6428 H 636.265 1.00166 3.67079 0
M  V30 6429 H 635.777 2.63231 2.85186 0
M  V30 6430 H 633.878 0.321481 3.71211 0
M  V30 6431 H 633.991 2.11143 4.30064 0
M  V30 6432 H 632.355 1.03482 2.32731 0
M  V30 6433 H 633.138 2.69425 2.12756 0
M  V30 6434 N 635.583 -1.29855 0.893053 0
M  V30 6435 C 636.493 -2.31661 0.370157 0
M  V30 6436 C 637.509 -1.65677 -0.531723 0
M  V30 6437 O 638.685 -1.9691 -0.422902 0
M  V30 6438 C 635.75 -3.44388 -0.399741 0
M  V30 6439 C 634.811 -4.2598 0.532861 0
M  V30 6440 C 634.044 -5.33324 -0.200388 0
M  V30 6441 O 634.267 -5.52305 -1.42531 0
M  V30 6442 O 633.201 -6.00188 0.453668 0
M  V30 6443 H 637.027 -2.78354 1.2146 0
M  V30 6444 H 634.612 -1.34171 0.657153 0
M  V30 6445 H 636.494 -4.13037 -0.835358 0
M  V30 6446 H 635.169 -2.99815 -1.22035 0
M  V30 6447 H 634.076 -3.59998 1.01746 0
M  V30 6448 H 635.409 -4.74178 1.3197 0
M  V30 6449 N 637.061 -0.65484 -1.43351 0
M  V30 6450 C 638.008 0.0357713 -2.30772 0
M  V30 6451 C 638.978 0.813035 -1.44841 0
M  V30 6452 O 640.163 0.789314 -1.73708 0
M  V30 6453 C 637.303 0.995084 -3.30442 0
M  V30 6454 C 636.416 0.21375 -4.31471 0
M  V30 6455 C 635.551 1.16701 -5.18222 0
M  V30 6456 C 634.59 0.376201 -6.10943 0
M  V30 6457 N 633.727 1.28113 -6.90313 0
M  V30 6458 H 638.567 -0.71559 -2.89281 0
M  V30 6459 H 636.104 -0.364645 -1.42509 0
M  V30 6460 H 638.062 1.5649 -3.86739 0
M  V30 6461 H 636.692 1.7133 -2.7358 0
M  V30 6462 H 635.744 -0.472377 -3.77456 0
M  V30 6463 H 637.056 -0.401103 -4.97185 0
M  V30 6464 H 636.21 1.8074 -5.79153 0
M  V30 6465 H 634.949 1.81577 -4.52638 0
M  V30 6466 H 633.954 -0.277534 -5.49099 0
M  V30 6467 H 635.179 -0.268178 -6.7857 0
M  V30 6468 H 633.125 1.91666 -6.27376 0
M  V30 6469 H 633.042 0.720879 -7.52555 0
M  V30 6470 H 634.31 1.90962 -7.55747 0
M  V30 6471 N 638.539 1.52521 -0.396863 0
M  V30 6472 C 639.785 2.01971 0.183169 0
M  V30 6473 C 640.118 1.2825 1.45827 0
M  V30 6474 O 639.393 0.385179 1.90648 0
M  V30 6475 C 639.676 3.5736 0.443391 0
M  V30 6476 C 639.529 4.41743 -0.84753 0
M  V30 6477 C 640.848 4.22539 1.2308 0
M  V30 6478 H 637.967 0.734119 0.0650976 0
M  V30 6479 H 640.609 1.82519 -0.527918 0
M  V30 6480 H 638.759 3.74066 1.04914 0
M  V30 6481 H 640.431 4.36773 -1.48414 0
M  V30 6482 H 638.674 4.0845 -1.4612 0
M  V30 6483 H 639.345 5.48507 -0.620003 0
M  V30 6484 H 641.821 4.09857 0.718084 0
M  V30 6485 H 640.697 5.31227 1.38162 0
M  V30 6486 H 640.958 3.80675 2.24808 0
M  V30 6487 N 640.017 0.126909 1.57088 0
M  V30 6488 C 641.263 -0.529952 1.95753 0
M  V30 6489 C 641.596 -1.65823 1.01077 0
M  V30 6490 O 640.871 -1.94437 0.0494162 0
M  V30 6491 C 641.154 -1.05517 3.44294 0
M  V30 6492 C 641.007 0.0702253 4.49745 0
M  V30 6493 C 642.326 -1.9435 3.94862 0
M  V30 6494 H 639.445 -0.191168 0.711775 0
M  V30 6495 H 642.087 0.204071 1.88901 0
M  V30 6496 H 640.237 -1.68069 3.50264 0
M  V30 6497 H 641.909 0.705834 4.55868 0
M  V30 6498 H 640.152 0.732259 4.27575 0
M  V30 6499 H 640.823 -0.338642 5.5096 0
M  V30 6500 H 643.299 -1.41658 3.91244 0
M  V30 6501 H 642.175 -2.28015 4.993 0
M  V30 6502 H 642.436 -2.87299 3.36024 0
M  V30 6503 N 641.495 -1.56914 -0.146875 0
M  V30 6504 C 642.744 -1.82546 -0.857898 0
M  V30 6505 C 643.057 -0.708169 -1.8233 0
M  V30 6506 O 644.263 -0.850093 -2.57848 0
M  V30 6507 C 642.719 -3.23548 -1.57623 0
M  V30 6508 C 642.327 -4.43212 -0.653224 0
M  V30 6509 C 644.071 -3.58453 -2.27402 0
M  V30 6510 C 641.978 -5.75237 -1.37318 0
M  V30 6511 H 640.908 -0.680786 -0.32411 0
M  V30 6512 H 643.559 -1.83166 -0.110639 0
M  V30 6513 H 641.941 -3.17315 -2.36912 0
M  V30 6514 H 643.115 -4.60682 0.104452 0
M  V30 6515 H 641.43 -4.16351 -0.0638336 0
M  V30 6516 H 644.027 -4.54349 -2.81907 0
M  V30 6517 H 644.37 -2.84516 -3.03901 0
M  V30 6518 H 644.903 -3.66347 -1.55032 0
M  V30 6519 H 641.642 -6.52269 -0.650041 0
M  V30 6520 H 641.162 -5.61703 -2.10357 0
M  V30 6521 H 642.841 -6.18039 -1.91406 0
M  V30 6522 N 642.974 0.416227 -1.52004 0
M  V30 6523 C 644.222 1.16153 -1.65387 0
M  V30 6524 C 644.543 1.91208 -0.382669 0
M  V30 6525 O 643.813 1.86413 0.602231 0
M  V30 6526 H 642.393 0.431765 -0.60958 0
M  V30 6527 H 645.055 0.475151 -1.89019 0
M  V30 6528 H 644.151 1.87952 -2.4916 0
M  V30 6529 N 644.452 1.42507 0.673017 0
M  V30 6530 C 645.677 1.4668 1.46627 0
M  V30 6531 C 646.102 0.080066 1.8793 0
M  V30 6532 O 645.46 -0.921879 1.56112 0
M  V30 6533 C 645.508 2.40091 2.69051 0
M  V30 6534 O 644.612 1.8735 3.67387 0
M  V30 6535 H 643.953 0.496908 0.44043 0
M  V30 6536 H 646.483 1.87215 0.825334 0
M  V30 6537 H 646.493 2.56731 3.17101 0
M  V30 6538 H 645.168 3.4084 2.3833 0
M  V30 6539 H 643.745 1.80274 3.26429 0
M  V30 6540 N 645.93 -0.909495 1.28709 0
M  V30 6541 C 647.179 -1.65365 1.15487 0
M  V30 6542 C 647.492 -1.93364 -0.294941 0
M  V30 6543 O 648.698 -2.65905 -0.548338 0
M  V30 6544 C 647.154 -2.97923 2.01916 0
M  V30 6545 C 646.762 -2.77556 3.51663 0
M  V30 6546 C 648.506 -3.75814 1.97393 0
M  V30 6547 C 646.413 -4.0578 4.30229 0
M  V30 6548 H 645.343 -0.620323 0.42862 0
M  V30 6549 H 647.994 -1.00894 1.53273 0
M  V30 6550 H 646.376 -3.63552 1.5699 0
M  V30 6551 H 647.55 -2.2058 4.04575 0
M  V30 6552 H 645.865 -2.13072 3.57756 0
M  V30 6553 H 648.462 -4.70866 2.53357 0
M  V30 6554 H 648.805 -4.05277 0.951643 0
M  V30 6555 H 649.338 -3.1701 2.40311 0
M  V30 6556 H 646.077 -3.81488 5.33055 0
M  V30 6557 H 645.597 -4.62351 3.82089 0
M  V30 6558 H 647.276 -4.74004 4.40374 0
M  V30 6559 N 647.408 -1.11026 -1.11852 0
M  V30 6560 C 648.371 -0.768006 -2.1595 0
M  V30 6561 C 649.371 0.210538 -1.59416 0
M  V30 6562 O 650.561 -0.0133978 -1.74195 0
M  V30 6563 C 647.693 -0.138678 -3.40618 0
M  V30 6564 H 648.886 -1.69012 -2.4774 0
M  V30 6565 H 646.439 -0.911578 -1.26964 0
M  V30 6566 H 647.174 0.793872 -3.14433 0
M  V30 6567 H 646.959 -0.843012 -3.8293 0
M  V30 6568 H 648.449 0.0848039 -4.17514 0
M  V30 6569 N 648.886 1.2938 -0.899927 0
M  V30 6570 C 649.833 2.27713 -0.376243 0
M  V30 6571 C 650.803 1.57016 0.541774 0
M  V30 6572 O 651.988 1.84997 0.466966 0
M  V30 6573 C 649.128 3.42889 0.39 0
M  V30 6574 C 648.241 4.28369 -0.558938 0
M  V30 6575 C 647.376 5.30726 0.224379 0
M  V30 6576 C 646.415 6.07862 -0.719068 0
M  V30 6577 N 645.552 7.02094 0.0298569 0
M  V30 6578 H 650.392 2.71888 -1.21988 0
M  V30 6579 H 647.929 1.33724 -0.612879 0
M  V30 6580 H 649.887 4.08443 0.850314 0
M  V30 6581 H 648.517 2.99743 1.19809 0
M  V30 6582 H 647.569 3.62986 -1.13777 0
M  V30 6583 H 648.881 4.82068 -1.2811 0
M  V30 6584 H 648.035 6.02098 0.745881 0
M  V30 6585 H 646.774 4.77759 0.979674 0
M  V30 6586 H 645.779 5.35353 -1.25207 0
M  V30 6587 H 647.004 6.62917 -1.4737 0
M  V30 6588 H 644.95 6.51496 0.767415 0
M  V30 6589 H 644.867 7.5335 -0.632391 0
M  V30 6590 H 646.135 7.77685 0.531615 0
M  V30 6591 N 650.364 0.662433 1.43002 0
M  V30 6592 C 651.274 -0.0239199 2.34588 0
M  V30 6593 C 652.29 -0.802255 1.54402 0
M  V30 6594 O 653.466 -0.747401 1.87018 0
M  V30 6595 C 650.531 -0.972098 3.32793 0
M  V30 6596 C 649.592 -0.189673 4.28881 0
M  V30 6597 C 648.825 -1.09269 5.22395 0
M  V30 6598 O 649.048 -2.33209 5.20547 0
M  V30 6599 O 647.982 -0.560136 5.99288 0
M  V30 6600 H 651.808 0.730171 2.94792 0
M  V30 6601 H 649.393 0.422635 1.43297 0
M  V30 6602 H 651.275 -1.51676 3.93157 0
M  V30 6603 H 649.95 -1.70626 2.75079 0
M  V30 6604 H 648.857 0.398794 3.71968 0
M  V30 6605 H 650.19 0.50511 4.89601 0
M  V30 6606 N 651.842 -1.52309 0.404946 0
M  V30 6607 C 653.072 -2.05886 -0.171569 0
M  V30 6608 C 653.48 -1.27527 -1.39762 0
M  V30 6609 O 652.823 -0.319215 -1.80905 0
M  V30 6610 C 652.885 -3.54609 -0.590983 0
M  V30 6611 C 652.549 -4.53989 0.523757 0
M  V30 6612 C 653.546 -5.01084 1.38604 0
M  V30 6613 C 651.231 -4.97465 0.695255 0
M  V30 6614 C 653.225 -5.90295 2.4048 0
M  V30 6615 C 650.912 -5.86473 1.71733 0
M  V30 6616 C 651.91 -6.32782 2.57051 0
M  V30 6617 O 651.598 -7.20029 3.57509 0
M  V30 6618 H 651.33 -0.675508 -0.0257763 0
M  V30 6619 H 653.884 -1.97238 0.573278 0
M  V30 6620 H 652.114 -3.60929 -1.38805 0
M  V30 6621 H 653.803 -3.90853 -1.09494 0
M  V30 6622 H 654.569 -4.68214 1.26492 0
M  V30 6623 H 650.448 -4.60982 0.0408447 0
M  V30 6624 H 653.992 -6.26363 3.07108 0
M  V30 6625 H 649.889 -6.18756 1.83877 0
M  V30 6626 H 650.657 -7.3813 3.53703 0
M  V30 6627 N 653.32 -0.135238 -1.57019 0
M  V30 6628 C 654.252 0.839675 -2.13265 0
M  V30 6629 C 655.265 1.21887 -1.07923 0
M  V30 6630 O 656.454 1.16499 -1.35241 0
M  V30 6631 C 653.554 2.13647 -2.63075 0
M  V30 6632 C 652.727 1.92646 -3.92691 0
M  V30 6633 C 651.786 3.06205 -4.27931 0
M  V30 6634 O 650.812 2.78409 -4.96465 0
M  V30 6635 N 652.014 4.33072 -3.86561 0
M  V30 6636 H 654.779 0.359026 -2.97542 0
M  V30 6637 H 652.34 0.0486979 -1.61827 0
M  V30 6638 H 654.332 2.88641 -2.8367 0
M  V30 6639 H 652.902 2.5301 -1.83588 0
M  V30 6640 H 652.122 1.01754 -3.80841 0
M  V30 6641 H 653.41 1.75939 -4.77413 0
M  V30 6642 H 652.808 4.58526 -3.31316 0
M  V30 6643 H 651.365 5.04885 -4.12231 0
M  V30 6644 N 654.798 1.5699 0.138552 0
M  V30 6645 C 656.209 1.73171 0.697754 0
M  V30 6646 C 656.56 0.750952 1.8126 0
M  V30 6647 O 655.685 -0.080549 2.1625 0
M  V30 6648 C 656.28 3.13996 1.27248 0
M  V30 6649 C 654.839 3.3175 1.77816 0
M  V30 6650 C 653.986 2.69084 0.669991 0
M  V30 6651 H 656.937 1.5846 -0.0871979 0
M  V30 6652 H 656.958 3.14463 2.14227 0
M  V30 6653 H 656.47 3.85354 0.460855 0
M  V30 6654 H 654.571 2.65403 2.61519 0
M  V30 6655 H 654.684 4.39768 1.90107 0
M  V30 6656 H 653.048 2.29782 1.09874 0
M  V30 6657 H 653.831 3.43053 -0.130329 0
M  V30 6658 N 656.276 -0.40816 1.52223 0
M  V30 6659 C 657.501 -1.18127 1.70472 0
M  V30 6660 C 657.926 -1.83491 0.41384 0
M  V30 6661 O 657.284 -1.70047 -0.628778 0
M  V30 6662 C 657.332 -2.21935 2.84213 0
M  V30 6663 O 656.436 -3.28099 2.4985 0
M  V30 6664 H 655.777 -0.344781 0.56747 0
M  V30 6665 H 658.307 -0.478328 1.9893 0
M  V30 6666 H 658.317 -2.66248 3.09153 0
M  V30 6667 H 656.992 -1.73744 3.7787 0
M  V30 6668 H 655.569 -2.89058 2.35584 0
M  V30 6669 N 657.755 -1.42862 -0.66545 0
M  V30 6670 C 658.665 -1.49491 -1.80803 0
M  V30 6671 C 659.681 -0.382914 -1.69734 0
M  V30 6672 O 660.857 -0.635223 -1.9112 0
M  V30 6673 C 657.922 -1.40383 -3.17007 0
M  V30 6674 C 656.983 -2.62152 -3.39963 0
M  V30 6675 C 656.216 -2.53469 -4.69669 0
M  V30 6676 O 656.439 -1.57568 -5.48205 0
M  V30 6677 O 655.373 -3.43763 -4.94075 0
M  V30 6678 H 659.199 -2.45949 -1.78165 0
M  V30 6679 H 656.784 -1.24728 -0.822387 0
M  V30 6680 H 658.666 -1.377 -3.98267 0
M  V30 6681 H 657.341 -0.470546 -3.20262 0
M  V30 6682 H 656.248 -2.70409 -2.58515 0
M  V30 6683 H 657.581 -3.54411 -3.41546 0
M  V30 6684 N 659.233 0.902656 -1.29189 0
M  V30 6685 C 660.48 1.65287 -1.16989 0
M  V30 6686 C 660.808 1.92485 0.279232 0
M  V30 6687 O 660.063 1.53143 1.21843 0
M  V30 6688 C 660.362 3.011 -1.92545 0
M  V30 6689 C 660.028 2.93521 -3.42281 0
M  V30 6690 C 658.69 2.91161 -3.83117 0
M  V30 6691 C 661.042 2.82947 -4.3771 0
M  V30 6692 C 658.37 2.76043 -5.17704 0
M  V30 6693 C 660.722 2.69368 -5.72384 0
M  V30 6694 C 659.386 2.65373 -6.12482 0
M  V30 6695 H 658.656 0.604828 -0.428094 0
M  V30 6696 H 661.303 1.05084 -1.60092 0
M  V30 6697 H 659.608 3.65153 -1.42024 0
M  V30 6698 H 661.305 3.58073 -1.80512 0
M  V30 6699 H 657.895 2.96158 -3.09819 0
M  V30 6700 H 662.079 2.83849 -4.07116 0
M  V30 6701 H 657.335 2.71352 -5.47885 0
M  V30 6702 H 661.509 2.60156 -6.45981 0
M  V30 6703 H 659.136 2.53415 -7.16718 0
M  V30 6704 N 660.711 1.11618 1.11262 0
M  V30 6705 C 662.122 0.881942 1.64556 0
M  V30 6706 C 662.473 -0.585442 1.87262 0
M  V30 6707 O 661.598 -1.44795 1.60821 0
M  V30 6708 C 662.193 1.59446 2.98935 0
M  V30 6709 C 660.752 1.40661 3.4913 0
M  V30 6710 C 659.899 1.63593 2.23903 0
M  V30 6711 H 662.85 1.27217 0.94877 0
M  V30 6712 H 662.871 1.04054 3.65996 0
M  V30 6713 H 662.383 2.66241 2.82378 0
M  V30 6714 H 660.484 0.360835 3.70849 0
M  V30 6715 H 660.597 2.15693 4.27801 0
M  V30 6716 H 658.961 1.05944 2.3162 0
M  V30 6717 H 659.744 2.71666 2.09886 0
M  V30 6718 N 662.189 -1.289 0.906776 0
M  V30 6719 C 663.139 -2.25122 0.361109 0
M  V30 6720 C 664.123 -1.52169 -0.52283 0
M  V30 6721 O 665.315 -1.73223 -0.363691 0
M  V30 6722 C 662.444 -3.40915 -0.403982 0
M  V30 6723 C 661.53 -4.21198 0.495279 0
M  V30 6724 N 661.921 -4.79636 1.60572 0
M  V30 6725 C 660.219 -4.45027 0.294372 0
M  V30 6726 C 660.92 -5.39977 2.16332 0
M  V30 6727 N 659.896 -5.23753 1.45546 0
M  V30 6728 H 663.698 -2.67869 1.20927 0
M  V30 6729 H 661.212 -1.43592 0.758632 0
M  V30 6730 H 663.209 -4.08922 -0.811695 0
M  V30 6731 H 661.869 -2.99703 -1.24932 0
M  V30 6732 H 662.88 -4.78209 1.98838 0
M  V30 6733 H 659.557 -4.14348 -0.512021 0
M  V30 6734 H 660.947 -5.96266 3.09704 0
M  V30 6735 N 663.667 -0.670007 -1.42649 0
M  V30 6736 C 665.083 -0.33911 -1.55956 0
M  V30 6737 C 665.283 1.1558 -1.65056 0
M  V30 6738 O 664.339 1.94111 -1.61485 0
M  V30 6739 C 665.652 -1.06522 -2.812 0
M  V30 6740 C 667.2 -1.04708 -2.94966 0
M  V30 6741 C 667.675 -1.75442 -4.23065 0
M  V30 6742 N 669.166 -1.72286 -4.29967 0
M  V30 6743 C 669.901 -2.23877 -5.27889 0
M  V30 6744 N 669.397 -2.83829 -6.31991 0
M  V30 6745 N 671.19 -2.14279 -5.19654 0
M  V30 6746 H 663.341 -1.6399 -1.34986 0
M  V30 6747 H 665.604 -0.690603 -0.649439 0
M  V30 6748 H 665.31 -2.12033 -2.80597 0
M  V30 6749 H 665.184 -0.627398 -3.71946 0
M  V30 6750 H 667.571 -0.000315966 -2.951 0
M  V30 6751 H 667.652 -1.52374 -2.05465 0
M  V30 6752 H 667.296 -2.80084 -4.23693 0
M  V30 6753 H 667.226 -1.25229 -5.11493 0
M  V30 6754 H 669.717 -1.28554 -3.55362 0
M  V30 6755 H 670.03 -3.20827 -7.03057 0
M  V30 6756 H 668.375 -2.87896 -6.32567 0
M  V30 6757 H 671.566 -1.67135 -4.37245 0
M  V30 6758 H 671.739 -2.54792 -5.95806 0
M  V30 6759 N 665.145 1.52092 -0.413018 0
M  V30 6760 C 666.092 2.27119 0.410558 0
M  V30 6761 C 667.062 1.29692 1.03774 0
M  V30 6762 O 668.247 1.58561 1.06128 0
M  V30 6763 C 665.387 3.09863 1.51918 0
M  V30 6764 C 664.5 4.22252 0.912528 0
M  V30 6765 C 663.635 4.92348 1.99417 0
M  V30 6766 C 662.674 5.96694 1.36466 0
M  V30 6767 N 661.811 6.60292 2.38661 0
M  V30 6768 H 666.651 2.97067 -0.235661 0
M  V30 6769 H 664.188 1.46542 -0.128055 0
M  V30 6770 H 666.146 3.56144 2.17295 0
M  V30 6771 H 664.776 2.42078 2.13537 0
M  V30 6772 H 663.828 3.80113 0.147697 0
M  V30 6773 H 665.14 4.9709 0.412717 0
M  V30 6774 H 664.294 5.42054 2.72512 0
M  V30 6775 H 663.033 4.17087 2.52764 0
M  V30 6776 H 662.038 5.46304 0.61906 0
M  V30 6777 H 663.263 6.73899 0.838827 0
M  V30 6778 H 661.209 5.87858 2.91134 0
M  V30 6779 H 661.126 7.30816 1.93503 0
M  V30 6780 H 662.394 7.14635 3.11314 0
M  V30 6781 N 666.623 0.143563 1.56945 0
M  V30 6782 C 667.872 -0.50835 1.95189 0
M  V30 6783 C 668.185 -1.66239 1.03073 0
M  V30 6784 O 669.391 -2.3787 1.30882 0
M  V30 6785 C 667.847 -0.955735 3.46978 0
M  V30 6786 C 667.455 0.171183 4.47673 0
M  V30 6787 C 669.199 -1.57763 3.94095 0
M  V30 6788 C 667.106 -0.294279 5.90667 0
M  V30 6789 H 666.036 -0.193679 0.728701 0
M  V30 6790 H 668.687 0.227357 1.82086 0
M  V30 6791 H 667.069 -1.7466 3.55401 0
M  V30 6792 H 668.243 0.948049 4.50942 0
M  V30 6793 H 666.558 0.701273 4.10452 0
M  V30 6794 H 669.155 -1.93745 4.98364 0
M  V30 6795 H 669.498 -2.46531 3.35452 0
M  V30 6796 H 670.031 -0.851728 3.88575 0
M  V30 6797 H 666.77 0.557939 6.53121 0
M  V30 6798 H 666.29 -1.0371 5.90766 0
M  V30 6799 H 667.969 -0.747426 6.42668 0
M  V30 6800 N 668.101 -1.57061 -0.130224 0
M  V30 6801 C 669.347 -1.8453 -0.841216 0
M  V30 6802 C 669.68 -0.727666 -1.80052 0
M  V30 6803 O 668.955 0.267419 -1.92653 0
M  V30 6804 C 669.238 -3.22553 -1.60099 0
M  V30 6805 C 669.091 -4.44901 -0.662048 0
M  V30 6806 C 670.41 -3.58003 -2.55973 0
M  V30 6807 H 667.529 -0.671215 -0.304366 0
M  V30 6808 H 670.171 -1.89705 -0.105821 0
M  V30 6809 H 668.321 -3.18272 -2.22789 0
M  V30 6810 H 669.993 -4.61278 -0.0448559 0
M  V30 6811 H 668.236 -4.33791 0.0272253 0
M  V30 6812 H 668.907 -5.3812 -1.23006 0
M  V30 6813 H 671.383 -3.63002 -2.03393 0
M  V30 6814 H 670.259 -4.55576 -3.06172 0
M  V30 6815 H 670.52 -2.84833 -3.38116 0
M  V30 6816 N 669.579 0.400081 -1.52437 0
M  V30 6817 C 670.526 1.48803 -1.76426 0
M  V30 6818 C 671.496 1.5461 -0.607032 0
M  V30 6819 O 672.681 1.71041 -0.845563 0
M  V30 6820 C 669.821 2.86156 -1.92896 0
M  V30 6821 C 668.934 2.89587 -3.20567 0
M  V30 6822 C 668.069 4.18296 -3.27417 0
M  V30 6823 C 667.108 4.15736 -4.49255 0
M  V30 6824 N 666.245 5.36032 -4.53447 0
M  V30 6825 H 671.085 1.27649 -2.69276 0
M  V30 6826 H 668.622 0.619451 -1.33421 0
M  V30 6827 H 670.58 3.65901 -2.00429 0
M  V30 6828 H 669.21 3.05785 -1.03418 0
M  V30 6829 H 668.262 2.02278 -3.22161 0
M  V30 6830 H 669.574 2.83562 -4.10358 0
M  V30 6831 H 668.728 5.06439 -3.34072 0
M  V30 6832 H 667.467 4.27028 -2.35581 0
M  V30 6833 H 666.472 3.25982 -4.42737 0
M  V30 6834 H 667.697 4.08636 -5.42396 0
M  V30 6835 H 665.643 5.45415 -3.64498 0
M  V30 6836 H 665.56 5.32038 -5.37096 0
M  V30 6837 H 666.828 6.26104 -4.64343 0
M  V30 6838 N 671.057 1.43213 0.657864 0
M  V30 6839 C 672.285 1.48015 1.44566 0
M  V30 6840 C 672.7 0.0965951 1.88553 0
M  V30 6841 O 672.057 -0.892221 1.59203 0
M  V30 6842 C 672.108 2.42199 2.68369 0
M  V30 6843 O 671.829 3.75173 2.26223 0
M  V30 6844 C 673.33 2.56195 3.61772 0
M  V30 6845 H 670.55 0.502861 0.444266 0
M  V30 6846 H 673.094 1.87907 0.806917 0
M  V30 6847 H 671.249 2.05514 3.28394 0
M  V30 6848 H 671.663 4.25776 3.06293 0
M  V30 6849 H 673.137 3.26182 4.4532 0
M  V30 6850 H 673.614 1.60534 4.0881 0
M  V30 6851 H 674.22 2.93671 3.07632 0
M  V30 6852 N 672.536 -0.895792 1.29666 0
M  V30 6853 C 673.466 -2.01673 1.17688 0
M  V30 6854 C 674.447 -1.69955 0.0701317 0
M  V30 6855 O 675.632 -1.9258 0.250289 0
M  V30 6856 C 672.762 -3.36568 0.856681 0
M  V30 6857 C 671.716 -3.82509 1.92017 0
M  V30 6858 C 671.042 -5.14574 1.4532 0
M  V30 6859 C 672.342 -4.02409 3.32963 0
M  V30 6860 H 674.036 -2.11953 2.11463 0
M  V30 6861 H 671.582 -1.01839 1.01807 0
M  V30 6862 H 673.535 -4.14498 0.759577 0
M  V30 6863 H 672.259 -3.26391 -0.116763 0
M  V30 6864 H 670.918 -3.068 2.00673 0
M  V30 6865 H 670.566 -5.00815 0.468325 0
M  V30 6866 H 670.266 -5.46283 2.16447 0
M  V30 6867 H 671.79 -5.9504 1.36968 0
M  V30 6868 H 673.204 -4.70808 3.27127 0
M  V30 6869 H 671.601 -4.45478 4.02082 0
M  V30 6870 H 672.671 -3.06616 3.75652 0
M  V30 6871 N 674.014 -1.12206 -1.10668 0
M  V30 6872 C 675.263 -0.870595 -1.81944 0
M  V30 6873 C 675.576 0.605447 -1.85994 0
M  V30 6874 O 676.782 0.973433 -2.53449 0
M  V30 6875 C 675.238 -1.50783 -3.26791 0
M  V30 6876 C 674.846 -3.01849 -3.31046 0
M  V30 6877 C 676.59 -1.33653 -4.02911 0
M  V30 6878 C 674.497 -3.58518 -4.70339 0
M  V30 6879 H 673.427 -0.322043 -0.681765 0
M  V30 6880 H 676.078 -1.34827 -1.24475 0
M  V30 6881 H 674.46 -0.957825 -3.84242 0
M  V30 6882 H 675.634 -3.63321 -2.83433 0
M  V30 6883 H 673.949 -3.18346 -2.68411 0
M  V30 6884 H 676.546 -1.73416 -5.05797 0
M  V30 6885 H 676.889 -0.279949 -4.15358 0
M  V30 6886 H 677.422 -1.85562 -3.51868 0
M  V30 6887 H 674.161 -4.63925 -4.63091 0
M  V30 6888 H 673.681 -3.01819 -5.18329 0
M  V30 6889 H 675.36 -3.57434 -5.39305 0
M  V30 6890 N 675.492 1.28418 -0.913599 0
M  V30 6891 C 676.455 2.25564 -0.406624 0
M  V30 6892 C 677.455 1.5387 0.466965 0
M  V30 6893 O 678.645 1.72094 0.270042 0
M  V30 6894 C 675.777 3.38339 0.417053 0
M  V30 6895 H 676.97 2.71926 -1.26477 0
M  V30 6896 H 674.523 1.40098 -0.692986 0
M  V30 6897 H 675.258 2.97339 1.29461 0
M  V30 6898 H 675.043 3.91542 -0.209102 0
M  V30 6899 H 676.533 4.10578 0.762602 0
M  V30 6900 N 676.97 0.677563 1.42291 0
M  V30 6901 C 678.218 0.200578 2.01102 0
M  V30 6902 C 678.539 -1.19803 1.53858 0
M  V30 6903 O 677.809 -1.80496 0.761439 0
M  V30 6904 H 676.389 0.0711634 0.743603 0
M  V30 6905 H 679.051 0.874691 1.7417 0
M  V30 6906 H 678.147 0.204 3.11433 0
M  V30 6907 N 678.448 -1.51871 0.421078 0
M  V30 6908 C 679.697 -2.01125 -0.152206 0
M  V30 6909 C 680.01 -1.3106 -1.45199 0
M  V30 6910 O 681.216 -1.71195 -2.10724 0
M  V30 6911 C 679.672 -3.58458 -0.3218 0
M  V30 6912 C 679.28 -4.37448 0.96659 0
M  V30 6913 C 681.024 -4.15908 -0.84973 0
M  V30 6914 C 678.931 -5.86451 0.763529 0
M  V30 6915 H 677.861 -0.751556 -0.0606565 0
M  V30 6916 H 680.512 -1.75115 0.548354 0
M  V30 6917 H 678.894 -3.80847 -1.08498 0
M  V30 6918 H 680.068 -4.26814 1.73684 0
M  V30 6919 H 678.383 -3.91373 1.42183 0
M  V30 6920 H 680.98 -5.24922 -1.01788 0
M  V30 6921 H 681.323 -3.74031 -1.82774 0
M  V30 6922 H 681.856 -3.97535 -0.145297 0
M  V30 6923 H 678.595 -6.3271 1.71344 0
M  V30 6924 H 678.115 -5.99791 0.0327889 0
M  V30 6925 H 679.794 -6.45697 0.410354 0
M  V30 6926 N 679.926 -0.151884 -1.56866 0
M  V30 6927 C 681.174 0.497021 -1.95893 0
M  V30 6928 C 681.495 1.65078 -1.03799 0
M  V30 6929 O 680.765 1.95642 -0.10049 0
M  V30 6930 H 679.345 0.186603 -0.723318 0
M  V30 6931 H 682.007 -0.228525 -1.93556 0
M  V30 6932 H 681.103 0.869933 -2.99731 0
M  V30 6933 N 681.404 1.57128 0.121893 0
M  V30 6934 C 682.314 2.03425 1.16857 0
M  V30 6935 C 683.33 0.954108 1.45509 0
M  V30 6936 O 684.506 1.26541 1.56682 0
M  V30 6937 C 681.571 2.42685 2.47599 0
M  V30 6938 C 680.632 3.64767 2.2637 0
M  V30 6939 C 679.865 4.02145 3.50878 0
M  V30 6940 O 680.088 3.39897 4.58068 0
M  V30 6941 O 679.022 4.95262 3.42051 0
M  V30 6942 H 682.848 2.92825 0.80544 0
M  V30 6943 H 680.433 1.45654 0.332477 0
M  V30 6944 H 682.315 2.68684 3.24634 0
M  V30 6945 H 680.99 1.56432 2.83392 0
M  V30 6946 H 679.897 3.43922 1.47203 0
M  V30 6947 H 681.23 4.51716 1.95482 0
M  V30 6948 N 682.882 -0.391992 1.52647 0
M  V30 6949 C 684.159 -1.15136 1.58123 0
M  V30 6950 C 684.539 -2.07786 0.372597 0
M  V30 6951 O 683.887 -2.19374 -0.639304 0
M  V30 6952 C 684.097 -1.91367 2.91856 0
M  V30 6953 C 685.445 -2.46833 3.45483 0
M  V30 6954 O 686.469 -2.01527 2.9371 0
M  V30 6955 O 685.328 -3.29587 4.3593 0
M  V30 6956 H 682.422 -0.526649 0.637629 0
M  V30 6957 H 684.968 -0.397386 1.64982 0
M  V30 6958 H 683.74 -1.23597 3.71268 0
M  V30 6959 H 683.363 -2.73732 2.88369 0
M  V30 6960 N 684.36 -1.4356 -0.65026 0
M  V30 6961 C 685.307 -1.48948 -1.76304 0
M  V30 6962 C 686.277 -0.338919 -1.62605 0
M  V30 6963 O 687.462 -0.54649 -1.82806 0
M  V30 6964 C 684.602 -1.42131 -3.14472 0
M  V30 6965 C 683.715 -2.67415 -3.39284 0
M  V30 6966 C 682.85 -2.52565 -4.67316 0
M  V30 6967 C 681.889 -3.73103 -4.85243 0
M  V30 6968 N 681.026 -3.57046 -6.04535 0
M  V30 6969 H 685.866 -2.44032 -1.71034 0
M  V30 6970 H 683.403 -1.21131 -0.834601 0
M  V30 6971 H 685.361 -1.36172 -3.94351 0
M  V30 6972 H 683.991 -0.506273 -3.18805 0
M  V30 6973 H 683.043 -2.8364 -2.53481 0
M  V30 6974 H 684.355 -3.56943 -3.48415 0
M  V30 6975 H 683.509 -2.44331 -5.55326 0
M  V30 6976 H 682.248 -1.60566 -4.60511 0
M  V30 6977 H 681.253 -3.81743 -3.95667 0
M  V30 6978 H 682.478 -4.66115 -4.93876 0
M  V30 6979 H 680.424 -2.67783 -5.98856 0
M  V30 6980 H 680.341 -4.40178 -6.14638 0
M  V30 6981 H 681.609 -3.52669 -6.95158 0
M  V30 6982 N 685.838 0.888903 -1.30139 0
M  V30 6983 C 686.768 2.01046 -1.18755 0
M  V30 6984 C 687.749 1.69916 -0.0791438 0
M  V30 6985 O 688.934 1.92445 -0.260498 0
M  V30 6986 C 686.064 3.36109 -0.874518 0
M  V30 6987 C 685.018 3.81486 -1.94043 0
M  V30 6988 C 684.344 5.13796 -1.48047 0
M  V30 6989 C 685.644 4.00637 -3.35093 0
M  V30 6990 H 687.338 2.10828 -2.12584 0
M  V30 6991 H 684.884 1.01298 -1.02346 0
M  V30 6992 H 686.837 4.14089 -0.781548 0
M  V30 6993 H 685.561 3.26449 0.0994519 0
M  V30 6994 H 684.22 3.05731 -2.02297 0
M  V30 6995 H 683.868 5.0056 -0.494878 0
M  V30 6996 H 683.568 5.45127 -2.19341 0
M  V30 6997 H 685.092 5.94305 -1.40121 0
M  V30 6998 H 686.506 4.69067 -3.2962 0
M  V30 6999 H 684.903 4.43339 -4.04438 0
M  V30 7000 H 685.973 3.0462 -3.77273 0
M  V30 7001 N 687.317 1.12792 1.10072 0
M  V30 7002 C 688.28 0.802264 2.14701 0
M  V30 7003 C 689.28 -0.18515 1.59731 0
M  V30 7004 O 690.47 0.041109 1.74151 0
M  V30 7005 C 687.602 0.19285 3.40354 0
M  V30 7006 H 688.795 1.72932 2.45019 0
M  V30 7007 H 686.348 0.931662 1.25498 0
M  V30 7008 H 687.083 -0.743748 3.15656 0
M  V30 7009 H 686.868 0.903827 3.81541 0
M  V30 7010 H 688.358 -0.0183704 4.17596 0
M  V30 7011 N 688.795 -1.27931 0.920396 0
M  V30 7012 C 689.758 -2.25345 0.41858 0
M  V30 7013 C 690.758 -1.54116 -0.458798 0
M  V30 7014 O 691.948 -1.72235 -0.260912 0
M  V30 7015 C 689.08 -3.38556 -0.399104 0
M  V30 7016 H 690.273 -2.71251 1.27918 0
M  V30 7017 H 687.826 -1.39728 0.700406 0
M  V30 7018 H 688.561 -2.98021 -1.27882 0
M  V30 7019 H 688.346 -3.91426 0.229863 0
M  V30 7020 H 689.836 -4.10976 -0.740817 0
M  V30 7021 N 690.273 -0.685099 -1.4193 0
M  V30 7022 C 691.501 -0.220372 -2.05723 0
M  V30 7023 C 691.916 1.12642 -1.51516 0
M  V30 7024 O 691.273 1.70182 -0.659114 0
M  V30 7025 C 691.324 -0.157974 -3.61155 0
M  V30 7026 O 691.045 -1.45156 -4.13354 0
M  V30 7027 C 692.546 0.329009 -4.42077 0
M  V30 7028 H 689.766 -0.104725 -0.662777 0
M  V30 7029 H 692.31 -0.934736 -1.81887 0
M  V30 7030 H 690.465 0.507144 -3.84066 0
M  V30 7031 H 690.879 -1.33172 -5.07312 0
M  V30 7032 H 692.353 0.321559 -5.51063 0
M  V30 7033 H 692.83 1.36608 -4.17414 0
M  V30 7034 H 693.436 -0.304737 -4.24207 0
M  V30 7035 N 691.751 1.51645 -0.429126 0
M  V30 7036 C 692.998 2.02015 0.140079 0
M  V30 7037 C 693.326 1.31374 1.43427 0
M  V30 7038 O 692.581 0.414779 1.91254 0
M  V30 7039 C 692.88 3.54989 0.414472 0
M  V30 7040 C 692.546 4.43874 -0.792911 0
M  V30 7041 C 691.208 4.67887 -1.12404 0
M  V30 7042 C 693.56 4.96074 -1.59875 0
M  V30 7043 C 690.888 5.41348 -2.26184 0
M  V30 7044 C 693.24 5.70782 -2.72747 0
M  V30 7045 C 691.904 5.93062 -3.06324 0
M  V30 7046 H 691.174 0.739225 0.0512585 0
M  V30 7047 H 693.821 1.82675 -0.574641 0
M  V30 7048 H 692.126 3.72615 1.21099 0
M  V30 7049 H 693.823 3.91489 0.868173 0
M  V30 7050 H 690.413 4.25374 -0.524871 0
M  V30 7051 H 694.597 4.77412 -1.35614 0
M  V30 7052 H 689.853 5.56815 -2.52522 0
M  V30 7053 H 694.027 6.10221 -3.35564 0
M  V30 7054 H 691.654 6.49764 -3.94602 0
M  V30 7055 N 693.229 0.160201 1.56784 0
M  V30 7056 C 694.179 -0.786461 2.14007 0
M  V30 7057 C 695.163 -1.20046 1.07134 0
M  V30 7058 O 696.355 -1.16468 1.33283 0
M  V30 7059 C 693.484 -2.02024 2.77563 0
M  V30 7060 C 692.57 -1.62874 3.91578 0
M  V30 7061 N 692.961 -0.946176 4.96871 0
M  V30 7062 C 691.259 -1.92054 4.02531 0
M  V30 7063 C 691.96 -0.755084 5.76778 0
M  V30 7064 N 690.936 -1.29307 5.27997 0
M  V30 7065 H 694.738 -0.255879 2.92784 0
M  V30 7066 H 692.252 -0.0408778 1.62349 0
M  V30 7067 H 694.249 -2.70855 3.16928 0
M  V30 7068 H 692.909 -2.55587 2.00263 0
M  V30 7069 H 693.92 -0.605455 5.14349 0
M  V30 7070 H 690.597 -2.47374 3.36322 0
M  V30 7071 H 691.987 -0.216138 6.71552 0
M  V30 7072 N 694.707 -1.5719 -0.113559 0
M  V30 7073 C 695.956 -1.84325 -0.818984 0
M  V30 7074 C 696.269 -0.746685 -1.80787 0
M  V30 7075 O 697.475 -0.904596 -2.55987 0
M  V30 7076 C 695.931 -3.26818 -1.50724 0
M  V30 7077 C 695.539 -4.44498 -0.559065 0
M  V30 7078 C 697.283 -3.63196 -2.19748 0
M  V30 7079 C 695.19 -5.7802 -1.25086 0
M  V30 7080 H 694.12 -0.687507 -0.309596 0
M  V30 7081 H 696.771 -1.8336 -0.0717621 0
M  V30 7082 H 695.153 -3.22269 -2.30128 0
M  V30 7083 H 696.327 -4.60356 0.202146 0
M  V30 7084 H 694.642 -4.16393 0.024495 0
M  V30 7085 H 697.239 -4.60226 -2.72206 0
M  V30 7086 H 697.582 -2.90899 -2.97798 0
M  V30 7087 H 698.115 -3.69553 -1.47226 0
M  V30 7088 H 694.854 -6.53501 -0.511539 0
M  V30 7089 H 694.374 -5.66038 -1.98395 0
M  V30 7090 H 696.053 -6.2196 -1.78253 0
M  V30 7091 N 696.185 0.383891 -1.52853 0
M  V30 7092 C 697.095 1.49343 -1.80925 0
M  V30 7093 C 698.111 1.59458 -0.696348 0
M  V30 7094 O 699.287 1.75698 -0.984481 0
M  V30 7095 C 696.352 2.84819 -1.97684 0
M  V30 7096 C 695.413 2.84382 -3.21598 0
M  V30 7097 C 694.646 4.13397 -3.37548 0
M  V30 7098 O 694.869 5.08619 -2.58192 0
M  V30 7099 O 693.803 4.20325 -4.30826 0
M  V30 7100 H 697.629 1.2855 -2.75152 0
M  V30 7101 H 695.214 0.572229 -1.38007 0
M  V30 7102 H 697.096 3.65125 -2.10385 0
M  V30 7103 H 695.771 3.05627 -1.06647 0
M  V30 7104 H 694.678 2.0284 -3.14336 0
M  V30 7105 H 696.011 2.68526 -4.12498 0
M  V30 7106 N 697.663 1.43903 0.642637 0
M  V30 7107 C 698.61 1.49881 1.75512 0
M  V30 7108 C 699.58 0.347538 1.62423 0
M  V30 7109 O 700.765 0.556177 1.82514 0
M  V30 7110 C 697.905 1.43797 3.13714 0
M  V30 7111 C 697.018 2.6921 3.37861 0
M  V30 7112 C 696.153 2.5504 4.6597 0
M  V30 7113 C 695.192 3.75671 4.83257 0
M  V30 7114 N 694.329 3.60247 6.02633 0
M  V30 7115 H 699.169 2.44935 1.69737 0
M  V30 7116 H 696.706 1.21572 0.828165 0
M  V30 7117 H 698.664 1.38262 3.93624 0
M  V30 7118 H 697.294 0.523173 3.18532 0
M  V30 7119 H 696.346 2.8498 2.51973 0
M  V30 7120 H 697.658 3.58786 3.46517 0
M  V30 7121 H 696.812 2.47273 5.54023 0
M  V30 7122 H 695.551 1.63006 4.59653 0
M  V30 7123 H 694.556 3.83836 3.93637 0
M  V30 7124 H 695.781 4.68728 4.91397 0
M  V30 7125 H 693.727 2.70955 5.97427 0
M  V30 7126 H 693.644 4.43431 6.12295 0
M  V30 7127 H 694.912 3.56351 6.93278 0
M  V30 7128 N 699.141 -0.881989 1.30609 0
M  V30 7129 C 700.389 -1.63082 1.19368 0
M  V30 7130 C 700.71 -1.93376 -0.251147 0
M  V30 7131 O 699.98 -1.5723 -1.16857 0
M  V30 7132 H 698.56 -0.604542 0.438791 0
M  V30 7133 H 701.222 -1.05658 1.63776 0
M  V30 7134 H 700.318 -2.57966 1.7567 0
M  V30 7135 N 700.619 -1.13374 -1.09472 0
M  V30 7136 C 701.847 -0.918351 -1.85402 0
M  V30 7137 C 702.262 0.53281 -1.81126 0
M  V30 7138 O 701.619 1.36879 -1.20708 0
M  V30 7139 C 701.67 -1.39743 -3.33398 0
M  V30 7140 O 701.391 -2.79172 -3.37631 0
M  V30 7141 C 702.892 -1.22042 -4.2617 0
M  V30 7142 H 700.112 -0.327511 -0.585643 0
M  V30 7143 H 702.656 -1.50617 -1.38328 0
M  V30 7144 H 700.811 -0.852619 -3.77901 0
M  V30 7145 H 701.225 -3.00428 -4.29934 0
M  V30 7146 H 702.699 -1.60438 -5.2817 0
M  V30 7147 H 703.176 -0.162047 -4.38901 0
M  V30 7148 H 703.782 -1.75323 -3.87482 0
M  V30 7149 N 702.098 1.27442 -0.927168 0
M  V30 7150 C 703.028 2.29256 -0.443188 0
M  V30 7151 C 704.009 1.62701 0.49624 0
M  V30 7152 O 705.194 1.90013 0.401105 0
M  V30 7153 C 702.324 3.45955 0.305366 0
M  V30 7154 C 701.278 4.24501 -0.546178 0
M  V30 7155 C 700.604 5.33671 0.331512 0
M  V30 7156 C 701.904 4.89921 -1.81037 0
M  V30 7157 H 703.598 2.69988 -1.29409 0
M  V30 7158 H 701.144 1.29792 -0.623705 0
M  V30 7159 H 703.097 4.1628 0.654885 0
M  V30 7160 H 701.821 3.04138 1.19029 0
M  V30 7161 H 700.48 3.55921 -0.878398 0
M  V30 7162 H 700.128 4.88096 1.21537 0
M  V30 7163 H 699.828 5.87131 -0.234746 0
M  V30 7164 H 701.352 6.0684 0.676614 0
M  V30 7165 H 702.766 5.52536 -1.52895 0
M  V30 7166 H 701.163 5.53436 -2.32009 0
M  V30 7167 H 702.233 4.13652 -2.53021 0
M  V30 7168 N 703.576 0.692616 1.41565 0
M  V30 7169 C 704.816 0.226453 2.03142 0
M  V30 7170 C 705.18 -1.1512 1.5366 0
M  V30 7171 O 706.381 -1.71305 2.07143 0
M  V30 7172 C 704.652 0.27855 3.56313 0
M  V30 7173 S 706.211 -0.114001 4.38652 0
M  V30 7174 H 703.029 0.0914767 0.705091 0
M  V30 7175 H 705.631 0.909737 1.73043 0
M  V30 7176 H 704.335 1.28325 3.89821 0
M  V30 7177 H 703.866 -0.423981 3.91109 0
M  V30 7178 H 705.881 -1.34256 4.77692 0
M  V30 7179 N 705.054 -1.51416 0.437162 0
M  V30 7180 C 705.986 -2.255 -0.410171 0
M  V30 7181 C 706.999 -1.29511 -0.986444 0
M  V30 7182 O 708.188 -1.55266 -0.880614 0
M  V30 7183 C 705.288 -2.99511 -1.58575 0
M  V30 7184 C 704.461 -4.22595 -1.12839 0
M  V30 7185 C 703.52 -4.79187 -2.17407 0
M  V30 7186 O 702.546 -5.4103 -1.76849 0
M  V30 7187 N 703.748 -4.63204 -3.49889 0
M  V30 7188 H 706.513 -2.98856 0.224783 0
M  V30 7189 H 704.074 -1.59699 0.266041 0
M  V30 7190 H 706.066 -3.34258 -2.28152 0
M  V30 7191 H 704.636 -2.29167 -2.12606 0
M  V30 7192 H 703.856 -3.93344 -0.259695 0
M  V30 7193 H 705.144 -5.02468 -0.800196 0
M  V30 7194 H 704.542 -4.13945 -3.85573 0
M  V30 7195 H 703.099 -5.02313 -4.15361 0
M  V30 7196 N 706.532 -0.168513 -1.56696 0
M  V30 7197 C 707.78 0.476216 -1.96409 0
M  V30 7198 C 708.101 1.63968 -1.05544 0
M  V30 7199 O 707.371 1.95525 -0.121235 0
M  V30 7200 H 705.951 0.178921 -0.725256 0
M  V30 7201 H 708.613 -0.249042 -1.93302 0
M  V30 7202 H 707.709 0.838094 -3.00637 0
M  V30 7203 N 708.01 1.57248 0.105221 0
M  V30 7204 C 709.25 1.87393 0.816283 0
M  V30 7205 C 709.614 0.758249 1.76393 0
M  V30 7206 O 710.815 0.941835 2.5176 0
M  V30 7207 C 709.086 3.22775 1.53463 0
M  V30 7208 S 710.645 3.74588 2.28537 0
M  V30 7209 H 707.463 0.656847 0.272164 0
M  V30 7210 H 710.065 1.9536 0.073909 0
M  V30 7211 H 708.769 4.01905 0.830674 0
M  V30 7212 H 708.3 3.17921 2.3171 0
M  V30 7213 H 710.315 3.47193 3.54502 0
M  V30 7214 N 709.488 -0.375779 1.53054 0
M  V30 7215 C 710.438 -1.45965 1.75152 0
M  V30 7216 C 711.422 -1.49059 0.605823 0
M  V30 7217 O 712.614 -1.54472 0.864133 0
M  V30 7218 C 709.743 -2.83524 1.93569 0
M  V30 7219 C 708.829 -2.84949 3.1411 0
M  V30 7220 N 709.22 -2.56029 4.36214 0
M  V30 7221 C 707.518 -3.16113 3.14625 0
M  V30 7222 C 708.219 -2.64873 5.17897 0
M  V30 7223 N 707.195 -2.99159 4.53878 0
M  V30 7224 H 710.997 -1.22454 2.67175 0
M  V30 7225 H 708.511 -0.583867 1.51541 0
M  V30 7226 H 710.508 -3.61578 2.07525 0
M  V30 7227 H 709.168 -3.08008 1.02768 0
M  V30 7228 H 710.179 -2.29808 4.64121 0
M  V30 7229 H 706.856 -3.45977 2.3368 0
M  V30 7230 H 708.246 -2.45947 6.25268 0
M  V30 7231 N 710.966 -1.44241 -0.634997 0
M  V30 7232 C 711.916 -1.47247 -1.74076 0
M  V30 7233 C 712.9 -0.338708 -1.57295 0
M  V30 7234 O 714.092 -0.583751 -1.67097 0
M  V30 7235 C 711.221 -1.41579 -3.12746 0
M  V30 7236 C 710.307 -2.60055 -3.35011 0
M  V30 7237 N 710.698 -3.85321 -3.27661 0
M  V30 7238 C 708.996 -2.55168 -3.65794 0
M  V30 7239 C 709.697 -4.64241 -3.50508 0
M  V30 7240 N 708.673 -3.95254 -3.73196 0
M  V30 7241 H 712.475 -2.4195 -1.66845 0
M  V30 7242 H 709.989 -1.3915 -0.837326 0
M  V30 7243 H 711.986 -1.41816 -3.92038 0
M  V30 7244 H 710.646 -0.479108 -3.21146 0
M  V30 7245 H 711.657 -4.17345 -3.06665 0
M  V30 7246 H 708.334 -1.70276 -3.81198 0
M  V30 7247 H 709.724 -5.73267 -3.50449 0
M  V30 7248 N 712.444 0.87505 -1.31075 0
M  V30 7249 C 713.392 2.00317 -1.18219 0
M  V30 7250 C 714.386 1.69152 -0.0916872 0
M  V30 7251 O 715.592 1.7821 -0.253229 0
M  V30 7252 H 711.967 0.656981 -0.365895 0
M  V30 7253 H 713.938 2.08293 -2.13674 0
M  V30 7254 C 712.687 3.35821 -0.901095 0
M  V30 7255 H 712.01 3.6032 -1.73233 0
M  V30 7256 H 713.45 4.15366 -0.851295 0
M  V30 7257 C 711.909 3.34563 0.396114 0
M  V30 7258 O 712.439 3.75971 1.41452 0
M  V30 7259 N 710.645 2.87681 0.410832 0
M  V30 7260 H 710.192 2.54179 -0.418415 0
M  V30 7261 H 710.15 2.87223 1.27869 0
M  V30 7262 N 713.922 1.13953 1.08869 0
M  V30 7263 C 715.147 0.928559 1.85452 0
M  V30 7264 C 715.572 -0.517642 1.80837 0
M  V30 7265 O 714.93 -1.36779 1.19001 0
M  V30 7266 C 714.978 1.42814 3.31114 0
M  V30 7267 O 714.082 0.617129 4.07756 0
M  V30 7268 H 713.423 0.33235 0.574839 0
M  V30 7269 H 715.953 1.5156 1.37443 0
M  V30 7270 H 715.963 1.43425 3.8196 0
M  V30 7271 H 714.638 2.48109 3.33788 0
M  V30 7272 H 713.215 0.679365 3.66659 0
M  V30 7273 N 715.4 -1.26948 0.933913 0
M  V30 7274 C 716.811 -1.76058 0.621324 0
M  V30 7275 C 717.162 -1.76175 -0.863522 0
M  V30 7276 O 716.287 -1.36921 -1.67576 0
M  V30 7277 C 716.882 -3.19713 1.12111 0
M  V30 7278 C 715.441 -3.66465 0.859074 0
M  V30 7279 C 714.588 -2.46186 1.27624 0
M  V30 7280 H 717.539 -1.13127 1.11301 0
M  V30 7281 H 717.56 -3.77566 0.471608 0
M  V30 7282 H 717.072 -3.19596 2.20182 0
M  V30 7283 H 715.173 -3.72021 -0.207566 0
M  V30 7284 H 715.286 -4.55636 1.48098 0
M  V30 7285 H 713.65 -2.45042 0.694727 0
M  V30 7286 H 714.433 -2.48774 2.36572 0
M  V30 7287 N 716.879 -0.700114 -1.41195 0
M  V30 7288 C 717.842 -0.0465706 -2.29153 0
M  V30 7289 C 718.842 0.703302 -1.44604 0
M  V30 7290 O 720.032 0.537513 -1.657 0
M  V30 7291 C 717.164 0.944324 -3.2756 0
M  V30 7292 H 718.357 -0.821064 -2.88442 0
M  V30 7293 H 715.91 -0.463869 -1.49258 0
M  V30 7294 H 716.645 1.74642 -2.73259 0
M  V30 7295 H 716.43 0.409701 -3.89954 0
M  V30 7296 H 717.92 1.39925 -3.9346 0
M  V30 7297 N 718.357 1.51182 -0.445186 0
M  V30 7298 C 719.582 2.07056 0.119445 0
M  V30 7299 C 720.007 1.30966 1.35016 0
M  V30 7300 O 719.365 0.349827 1.77893 0
M  V30 7301 C 719.413 3.58234 0.412428 0
M  V30 7302 O 718.517 3.84249 1.49754 0
M  V30 7303 H 717.858 0.663998 -0.00157797 0
M  V30 7304 H 720.388 1.94699 -0.628779 0
M  V30 7305 H 720.398 4.02617 0.660583 0
M  V30 7306 H 719.073 4.13038 -0.487049 0
M  V30 7307 H 717.65 3.51724 1.23873 0
M  V30 7308 N 719.835 0.176821 1.56605 0
M  V30 7309 C 720.765 -0.746841 2.21234 0
M  V30 7310 C 721.746 -1.23502 1.16967 0
M  V30 7311 O 722.931 -1.28718 1.45414 0
M  V30 7312 C 720.061 -1.97407 2.8574 0
M  V30 7313 C 719.015 -1.62153 3.96094 0
M  V30 7314 C 718.341 -2.92387 4.47676 0
M  V30 7315 C 719.641 -0.845353 5.15413 0
M  V30 7316 H 721.335 -0.208116 2.98676 0
M  V30 7317 H 718.881 -0.0986594 1.43662 0
M  V30 7318 H 720.834 -2.62531 3.2963 0
M  V30 7319 H 719.558 -2.53703 2.05676 0
M  V30 7320 H 718.217 -0.993964 3.52868 0
M  V30 7321 H 717.865 -3.46734 3.64396 0
M  V30 7322 H 717.565 -2.69551 5.22127 0
M  V30 7323 H 719.089 -3.5853 4.94255 0
M  V30 7324 H 720.503 -1.39929 5.55961 0
M  V30 7325 H 718.9 -0.715814 5.95815 0
M  V30 7326 H 719.97 0.157239 4.84645 0
M  V30 7327 N 721.313 -1.57302 -0.09688 0
M  V30 7328 C 722.541 -1.90202 -0.814295 0
M  V30 7329 C 722.956 -0.770344 -1.72369 0
M  V30 7330 O 722.313 0.257764 -1.8067 0
M  V30 7331 C 722.364 -3.22708 -1.62916 0
M  V30 7332 O 722.085 -4.31522 -0.756343 0
M  V30 7333 C 723.586 -3.69459 -2.44979 0
M  V30 7334 H 720.806 -0.629275 -0.232925 0
M  V30 7335 H 723.35 -2.04364 -0.0746482 0
M  V30 7336 H 721.505 -3.1015 -2.32133 0
M  V30 7337 H 721.919 -5.07604 -1.32054 0
M  V30 7338 H 723.393 -4.64875 -2.9765 0
M  V30 7339 H 723.87 -2.97211 -3.23361 0
M  V30 7340 H 724.476 -3.84879 -1.80964 0
M  V30 7341 N 722.791 0.367657 -1.53252 0
M  V30 7342 C 724.202 0.944563 -1.61043 0
M  V30 7343 C 724.553 1.90325 -0.476546 0
M  V30 7344 O 723.678 2.12721 0.397333 0
M  V30 7345 C 724.273 1.71992 -2.91898 0
M  V30 7346 C 722.832 2.2462 -3.02031 0
M  V30 7347 C 721.979 1.05799 -2.56324 0
M  V30 7348 H 724.93 0.146516 -1.58022 0
M  V30 7349 H 724.951 2.58095 -2.79584 0
M  V30 7350 H 724.463 1.02192 -3.74404 0
M  V30 7351 H 722.564 2.97668 -2.24108 0
M  V30 7352 H 722.677 2.52644 -4.07073 0
M  V30 7353 H 721.041 1.42435 -2.1115 0
M  V30 7354 H 721.824 0.375008 -3.41246 0
M  V30 7355 N 724.269 1.44576 0.627338 0
M  V30 7356 C 725.68 1.42266 1.20902 0
M  V30 7357 C 726.031 0.139964 1.957 0
M  V30 7358 O 725.156 -0.759489 2.02634 0
M  V30 7359 C 725.751 2.57727 2.19914 0
M  V30 7360 C 724.31 2.58599 2.73502 0
M  V30 7361 C 723.457 2.34145 1.48564 0
M  V30 7362 H 726.408 1.53102 0.417791 0
M  V30 7363 H 726.429 2.30697 3.02588 0
M  V30 7364 H 725.941 3.51068 1.65447 0
M  V30 7365 H 724.042 1.6921 3.31962 0
M  V30 7366 H 724.155 3.57205 3.19282 0
M  V30 7367 H 722.519 1.83313 1.76829 0
M  V30 7368 H 723.302 3.29606 0.959935 0
M  V30 7369 N 725.747 -0.868086 1.31537 0
M  V30 7370 C 726.694 -1.97548 1.19346 0
M  V30 7371 C 727.664 -1.65913 0.0787922 0
M  V30 7372 O 728.849 -1.89129 0.251985 0
M  V30 7373 C 725.989 -3.32922 0.908692 0
M  V30 7374 C 725.102 -3.77141 2.10687 0
M  V30 7375 C 724.237 -5.01241 1.75873 0
M  V30 7376 C 723.276 -5.37914 2.92088 0
M  V30 7377 N 722.413 -6.53192 2.57457 0
M  V30 7378 H 727.253 -2.07307 2.14074 0
M  V30 7379 H 724.79 -1.01483 1.06487 0
M  V30 7380 H 726.748 -4.10867 0.724138 0
M  V30 7381 H 725.378 -3.228 -0.0017611 0
M  V30 7382 H 724.43 -2.94961 2.40213 0
M  V30 7383 H 725.742 -4.00248 2.97663 0
M  V30 7384 H 724.896 -5.86858 1.53891 0
M  V30 7385 H 723.635 -4.80041 0.86091 0
M  V30 7386 H 722.64 -4.50814 3.14717 0
M  V30 7387 H 723.865 -5.61077 3.82582 0
M  V30 7388 H 721.811 -6.33536 1.702 0
M  V30 7389 H 721.728 -6.76252 3.37963 0
M  V30 7390 H 722.996 -7.41997 2.38873 0
M  V30 7391 N 727.225 -1.14528 -1.08264 0
M  V30 7392 C 728.465 -0.924808 -1.82282 0
M  V30 7393 C 728.829 0.538881 -1.84283 0
M  V30 7394 O 730.03 0.877355 -2.54079 0
M  V30 7395 C 728.301 -1.51102 -3.23887 0
M  V30 7396 S 729.86 -1.43232 -4.14765 0
M  V30 7397 H 726.678 -0.333052 -0.62817 0
M  V30 7398 H 729.28 -1.45905 -1.30123 0
M  V30 7399 H 727.984 -2.56942 -3.20014 0
M  V30 7400 H 727.515 -0.975234 -3.8112 0
M  V30 7401 H 729.53 -0.418843 -4.94429 0
M  V30 7402 N 728.703 1.26451 -0.940633 0
M  V30 7403 C 729.666 2.24651 -0.454378 0
M  V30 7404 C 730.666 1.54826 0.434222 0
M  V30 7405 O 731.856 1.72628 0.233477 0
M  V30 7406 C 728.988 3.39148 0.345192 0
M  V30 7407 H 730.181 2.69182 -1.32217 0
M  V30 7408 H 727.734 1.38596 -0.722547 0
M  V30 7409 H 728.469 3.00018 1.23125 0
M  V30 7410 H 728.254 3.9101 -0.292107 0
M  V30 7411 H 729.744 4.12103 0.675341 0
M  V30 7412 N 730.181 0.707592 1.40822 0
M  V30 7413 C 731.406 0.251626 2.05868 0
M  V30 7414 C 731.831 -1.09503 1.5294 0
M  V30 7415 O 731.189 -1.68806 0.661385 0
M  V30 7416 C 731.237 0.23287 3.59847 0
M  V30 7417 O 730.341 -0.788477 4.04792 0
M  V30 7418 H 729.682 0.119936 0.653078 0
M  V30 7419 H 732.212 0.96583 1.80369 0
M  V30 7420 H 732.222 0.0678204 4.07944 0
M  V30 7421 H 730.897 1.21565 3.97737 0
M  V30 7422 H 729.474 -0.591802 3.68174 0
M  V30 7423 N 731.66 -1.50943 0.453197 0
M  V30 7424 C 732.9 -2.0412 -0.106894 0
M  V30 7425 C 733.264 -1.32895 -1.38575 0
M  V30 7426 O 734.465 -1.76529 -2.02709 0
M  V30 7427 C 732.736 -3.561 -0.304565 0
M  V30 7428 S 734.295 -4.3096 -0.825784 0
M  V30 7429 H 731.113 -0.710581 -0.0243969 0
M  V30 7430 H 733.715 -1.85534 0.616239 0
M  V30 7431 H 732.419 -4.055 0.632277 0
M  V30 7432 H 731.95 -3.79009 -1.05433 0
M  V30 7433 H 733.965 -4.49503 -2.10147 0
M  V30 7434 N 733.138 -0.185124 -1.56509 0
M  V30 7435 C 734.088 0.752315 -2.15231 0
M  V30 7436 C 735.072 1.18327 -1.0903 0
M  V30 7437 O 736.264 1.14333 -1.35119 0
M  V30 7438 C 733.393 1.97583 -2.80742 0
M  V30 7439 C 732.479 1.56623 -3.94119 0
M  V30 7440 N 732.87 0.867008 -4.98314 0
M  V30 7441 C 731.168 1.85626 -4.05535 0
M  V30 7442 C 731.869 0.663228 -5.77907 0
M  V30 7443 N 730.845 1.20891 -5.29987 0
M  V30 7444 H 734.647 0.209267 -2.93154 0
M  V30 7445 H 732.161 0.0150444 -1.62393 0
M  V30 7446 H 734.158 2.65779 -3.21197 0
M  V30 7447 H 732.818 2.52369 -2.04303 0
M  V30 7448 H 733.829 0.52355 -5.15247 0
M  V30 7449 H 730.506 2.41992 -3.40215 0
M  V30 7450 H 731.896 0.109273 -6.71811 0
M  V30 7451 N 734.616 1.57351 0.0885366 0
M  V30 7452 C 735.864 1.86051 0.789262 0
M  V30 7453 C 736.185 0.774763 1.78948 0
M  V30 7454 O 735.455 -0.198324 1.94894 0
M  V30 7455 H 734.035 0.686508 0.294475 0
M  V30 7456 H 736.697 1.94779 0.0686055 0
M  V30 7457 H 735.793 2.83007 1.31581 0
M  V30 7458 N 736.094 -0.359525 1.53444 0
M  V30 7459 C 737.041 -1.44073 1.8031 0
M  V30 7460 C 738.011 -1.52946 0.647811 0
M  V30 7461 O 739.196 -1.68739 0.890614 0
M  V30 7462 C 736.336 -2.80941 2.00416 0
M  V30 7463 C 735.449 -2.80986 3.28132 0
M  V30 7464 C 734.584 -4.09468 3.38393 0
M  V30 7465 C 733.623 -4.03679 4.60119 0
M  V30 7466 N 732.76 -5.23821 4.675 0
M  V30 7467 H 737.6 -1.20464 2.72566 0
M  V30 7468 H 735.137 -0.583859 1.35017 0
M  V30 7469 H 737.095 -3.60459 2.1006 0
M  V30 7470 H 735.725 -3.02936 1.11489 0
M  V30 7471 H 734.777 -1.93666 3.27411 0
M  V30 7472 H 736.089 -2.72583 4.17732 0
M  V30 7473 H 735.243 -4.97404 3.47382 0
M  V30 7474 H 733.982 -4.20632 2.4682 0
M  V30 7475 H 732.987 -3.14129 4.51224 0
M  V30 7476 H 734.212 -3.94112 5.5304 0
M  V30 7477 H 732.158 -5.35559 3.7883 0
M  V30 7478 H 732.075 -5.17611 5.51013 0
M  V30 7479 H 733.343 -6.13572 4.8078 0
M  V30 7480 N 737.572 -1.44907 -0.619662 0
M  V30 7481 C 738.983 -1.42905 -1.20146 0
M  V30 7482 C 739.334 -0.150341 -1.95623 0
M  V30 7483 O 738.459 0.748732 -2.03034 0
M  V30 7484 C 739.054 -2.58889 -2.18545 0
M  V30 7485 C 737.613 -2.60046 -2.72127 0
M  V30 7486 C 736.76 -2.3493 -1.4732 0
M  V30 7487 H 739.711 -1.53321 -0.409666 0
M  V30 7488 H 739.732 -2.32298 -3.0136 0
M  V30 7489 H 739.244 -3.51941 -1.63583 0
M  V30 7490 H 737.345 -1.70968 -3.3106 0
M  V30 7491 H 737.458 -3.58893 -3.17384 0
M  V30 7492 H 735.822 -1.84248 -1.75855 0
M  V30 7493 H 736.605 -3.3011 -0.942442 0
M  V30 7494 N 739.05 0.861098 -1.31996 0
M  V30 7495 C 740.297 1.61481 -1.22188 0
M  V30 7496 C 740.625 1.93276 0.217853 0
M  V30 7497 O 739.88 1.56942 1.16909 0
M  V30 7498 C 740.179 2.94822 -2.02027 0
M  V30 7499 C 739.845 2.82483 -3.51446 0
M  V30 7500 C 738.507 2.78825 -3.92186 0
M  V30 7501 C 740.859 2.68878 -4.46491 0
M  V30 7502 C 738.187 2.59433 -5.26224 0
M  V30 7503 C 740.539 2.51022 -5.80664 0
M  V30 7504 C 739.203 2.45753 -6.20614 0
M  V30 7505 H 738.473 0.590902 -0.447119 0
M  V30 7506 H 741.12 0.999376 -1.63355 0
M  V30 7507 H 739.425 3.6045 -1.53569 0
M  V30 7508 H 741.122 3.52149 -1.91812 0
M  V30 7509 H 737.712 2.86152 -3.19085 0
M  V30 7510 H 741.896 2.70754 -4.1594 0
M  V30 7511 H 737.152 2.53784 -5.5624 0
M  V30 7512 H 741.326 2.39473 -6.53931 0
M  V30 7513 H 738.953 2.30485 -7.24417 0
M  V30 7514 N 740.528 1.15101 1.07655 0
M  V30 7515 C 741.805 0.834578 1.76902 0
M  V30 7516 C 742.185 -0.670431 2.00171 0
M  V30 7517 O 741.533 -1.61378 1.6177 0
M  V30 7518 C 741.743 1.64191 3.07965 0
M  V30 7519 C 743.091 1.84615 3.82364 0
M  V30 7520 O 744.115 1.60941 3.17768 0
M  V30 7521 O 742.974 2.24244 4.98374 0
M  V30 7522 H 740.068 0.306608 0.768063 0
M  V30 7523 H 742.614 1.25663 1.14048 0
M  V30 7524 H 741.386 2.66386 2.86626 0
M  V30 7525 H 741.009 1.216 3.78549 0
M  V30 7526 N 742.006 -1.2595 0.947325 0
M  V30 7527 C 742.969 -2.24407 0.466285 0
M  V30 7528 C 743.969 -1.55054 -0.426005 0
M  V30 7529 O 745.159 -1.7275 -0.224319 0
M  V30 7530 C 742.291 -3.39326 -0.327201 0
M  V30 7531 H 743.484 -2.68477 1.33642 0
M  V30 7532 H 741.037 -1.38211 0.729887 0
M  V30 7533 H 741.772 -3.00667 -1.21532 0
M  V30 7534 H 741.557 -3.9085 0.312839 0
M  V30 7535 H 743.047 -4.12455 -0.653477 0
M  V30 7536 N 743.484 -0.715051 -1.40445 0
M  V30 7537 C 744.761 -0.181503 -1.94756 0
M  V30 7538 C 745.141 1.31268 -1.65324 0
M  V30 7539 O 744.489 2.0686 -0.970631 0
M  V30 7540 C 744.699 -0.493663 -3.45491 0
M  V30 7541 C 746.047 -0.432032 -4.22396 0
M  V30 7542 O 747.071 -0.429692 -3.53599 0
M  V30 7543 O 745.93 -0.409091 -5.44967 0
M  V30 7544 H 743.024 -0.0263989 -0.826579 0
M  V30 7545 H 745.57 -0.792546 -1.50056 0
M  V30 7546 H 744.342 -1.52713 -3.6027 0
M  V30 7547 H 743.965 0.14737 -3.97327 0
M  V30 7548 N 744.962 1.50701 -0.461195 0
M  V30 7549 C 746.378 1.59187 -0.114786 0
M  V30 7550 C 746.578 1.4702 1.37794 0
M  V30 7551 O 745.634 1.32361 2.15027 0
M  V30 7552 C 746.947 2.93453 -0.656167 0
M  V30 7553 C 748.495 3.06824 -0.618715 0
M  V30 7554 C 748.97 4.4365 -1.13747 0
M  V30 7555 N 750.461 4.50035 -1.09646 0
M  V30 7556 C 751.196 5.54278 -1.46846 0
M  V30 7557 N 750.692 6.65822 -1.91448 0
M  V30 7558 N 752.485 5.44767 -1.38512 0
M  V30 7559 H 744.636 1.56853 -1.43216 0
M  V30 7560 H 746.899 0.740712 -0.59165 0
M  V30 7561 H 746.605 3.07802 -1.7015 0
M  V30 7562 H 746.479 3.77082 -0.0942261 0
M  V30 7563 H 748.866 2.92129 0.417685 0
M  V30 7564 H 748.947 2.24976 -1.21734 0
M  V30 7565 H 748.591 4.59093 -2.17245 0
M  V30 7566 H 748.521 5.24074 -0.515153 0
M  V30 7567 H 751.012 3.69988 -0.769217 0
M  V30 7568 H 751.325 7.41413 -2.18007 0
M  V30 7569 H 749.67 6.66968 -1.95393 0
M  V30 7570 H 752.861 4.56511 -1.03516 0
M  V30 7571 H 753.034 6.25889 -1.6783 0
M  V30 7572 N 746.441 0.193421 1.56409 0
M  V30 7573 C 747.689 -0.444908 1.97142 0
M  V30 7574 C 748.01 -1.62268 1.08139 0
M  V30 7575 O 747.28 -1.95307 0.152326 0
M  V30 7576 H 745.86 -0.16736 0.728011 0
M  V30 7577 H 748.522 0.279763 1.92882 0
M  V30 7578 H 747.618 -0.790159 3.01932 0
M  V30 7579 N 747.919 -1.57396 -0.0801906 0
M  V30 7580 C 749.196 -1.77883 -0.813451 0
M  V30 7581 C 749.576 -0.778879 -1.96206 0
M  V30 7582 O 748.924 0.189683 -2.27711 0
M  V30 7583 C 749.134 -3.24116 -1.2942 0
M  V30 7584 C 750.482 -3.87714 -1.73098 0
M  V30 7585 O 751.506 -3.27956 -1.39007 0
M  V30 7586 O 750.365 -4.92828 -2.36184 0
M  V30 7587 H 747.459 -0.729727 -0.389138 0
M  V30 7588 H 750.005 -1.69591 -0.0609166 0
M  V30 7589 H 748.777 -3.88443 -0.471947 0
M  V30 7590 H 748.4 -3.371 -2.1083 0
M  V30 7591 N 749.397 0.351382 -1.53633 0
M  V30 7592 C 750.813 0.693987 -1.43722 0
M  V30 7593 C 751.013 1.9274 -0.587669 0
M  V30 7594 O 750.069 2.52387 -0.0756082 0
M  V30 7595 C 751.382 0.893937 -2.87105 0
M  V30 7596 C 752.93 0.993051 -2.96829 0
M  V30 7597 C 753.405 1.22537 -4.41303 0
M  V30 7598 N 754.896 1.29275 -4.44795 0
M  V30 7599 C 755.631 1.48988 -5.53706 0
M  V30 7600 N 755.127 1.65924 -6.72637 0
M  V30 7601 N 756.92 1.51472 -5.41306 0
M  V30 7602 H 749.071 -0.459688 -2.07366 0
M  V30 7603 H 751.334 -0.143684 -0.937048 0
M  V30 7604 H 751.04 0.0592517 -3.5165 0
M  V30 7605 H 750.914 1.79795 -3.31592 0
M  V30 7606 H 753.301 1.81827 -2.32429 0
M  V30 7607 H 753.382 0.0661119 -2.55715 0
M  V30 7608 H 753.026 0.405117 -5.06282 0
M  V30 7609 H 752.956 2.16575 -4.80003 0
M  V30 7610 H 755.447 1.17743 -3.59089 0
M  V30 7611 H 755.76 1.80578 -7.51406 0
M  V30 7612 H 754.105 1.63075 -6.75597 0
M  V30 7613 H 757.296 1.37818 -4.47352 0
M  V30 7614 H 757.469 1.66493 -6.26246 0
M  V30 7615 N 750.875 1.45233 0.611969 0
M  V30 7616 C 752.286 1.4354 1.19387 0
M  V30 7617 C 752.637 0.160713 1.95541 0
M  V30 7618 O 751.762 -0.737954 2.03429 0
M  V30 7619 C 752.357 2.60045 2.17169 0
M  V30 7620 C 750.916 2.61486 2.70744 0
M  V30 7621 C 750.063 2.35708 1.46072 0
M  V30 7622 H 753.014 1.53536 0.401529 0
M  V30 7623 H 753.035 2.33893 3.00124 0
M  V30 7624 H 752.547 3.52803 1.61714 0
M  V30 7625 H 750.648 1.72721 3.30149 0
M  V30 7626 H 750.761 3.60572 3.15476 0
M  V30 7627 H 749.125 1.85178 1.74875 0
M  V30 7628 H 749.908 3.30606 0.924922 0
M  V30 7629 N 752.353 -0.854086 1.3245 0
M  V30 7630 C 753.601 -1.60513 1.228 0
M  V30 7631 C 753.922 -1.93865 -0.210073 0
M  V30 7632 O 753.192 -1.59673 -1.13496 0
M  V30 7633 H 751.772 -0.595099 0.451516 0
M  V30 7634 H 754.434 -1.0216 1.6598 0
M  V30 7635 H 753.53 -2.54182 1.81102 0
M  V30 7636 N 753.831 -1.1567 -1.07043 0
M  V30 7637 C 754.761 -0.879348 -2.16309 0
M  V30 7638 C 755.742 0.171311 -1.69235 0
M  V30 7639 O 756.927 0.0250175 -1.94184 0
M  V30 7640 C 754.057 -0.371307 -3.45309 0
M  V30 7641 C 753.011 -1.359 -4.05851 0
M  V30 7642 C 752.337 -0.709678 -5.29969 0
M  V30 7643 C 753.637 -2.72606 -4.45514 0
M  V30 7644 H 755.331 -1.79308 -2.39768 0
M  V30 7645 H 752.877 -0.863558 -1.15233 0
M  V30 7646 H 754.83 -0.164798 -4.21078 0
M  V30 7647 H 753.554 0.577906 -3.21446 0
M  V30 7648 H 752.213 -1.55193 -3.32131 0
M  V30 7649 H 751.861 0.245782 -5.02399 0
M  V30 7650 H 751.561 -1.36886 -5.71433 0
M  V30 7651 H 753.085 -0.513015 -6.08441 0
M  V30 7652 H 754.499 -2.57141 -5.12398 0
M  V30 7653 H 752.896 -3.34927 -4.97939 0
M  V30 7654 H 753.966 -3.28434 -3.56734 0
M  V30 7655 N 755.309 1.25446 -0.953992 0
M  V30 7656 C 756.256 2.25912 -0.472485 0
M  V30 7657 C 757.226 1.59173 0.47469 0
M  V30 7658 O 758.411 1.86812 0.388082 0
M  V30 7659 C 755.551 3.44235 0.244218 0
M  V30 7660 C 754.664 4.25613 -0.740121 0
M  V30 7661 C 753.799 5.312 -0.000922267 0
M  V30 7662 C 752.838 6.04265 -0.976236 0
M  V30 7663 N 751.975 7.01589 -0.267952 0
M  V30 7664 H 756.815 2.66469 -1.3341 0
M  V30 7665 H 754.352 1.31005 -0.669045 0
M  V30 7666 H 756.31 4.11682 0.676314 0
M  V30 7667 H 754.94 3.04554 1.06988 0
M  V30 7668 H 753.992 3.57834 -1.2907 0
M  V30 7669 H 755.304 4.762 -1.48441 0
M  V30 7670 H 754.458 6.04719 0.48984 0
M  V30 7671 H 753.197 4.81484 0.776159 0
M  V30 7672 H 752.202 5.29561 -1.478 0
M  V30 7673 H 753.427 6.5607 -1.75354 0
M  V30 7674 H 751.373 6.54164 0.490403 0
M  V30 7675 H 751.29 7.4999 -0.951344 0
M  V30 7676 H 752.558 7.7924 0.201294 0
M  V30 7677 N 756.787 0.722489 1.40064 0
M  V30 7678 C 757.75 0.0830209 2.2905 0
M  V30 7679 C 758.75 -0.680208 1.45705 0
M  V30 7680 O 759.94 -0.511084 1.66534 0
M  V30 7681 C 757.072 -0.892092 3.29021 0
M  V30 7682 H 758.265 0.866848 2.87099 0
M  V30 7683 H 755.818 0.487556 1.48501 0
M  V30 7684 H 756.553 -1.70273 2.76003 0
M  V30 7685 H 756.338 -0.34761 3.90556 0
M  V30 7686 H 757.828 -1.33648 3.95636 0
M  V30 7687 N 758.265 -1.50454 0.469181 0
M  V30 7688 C 759.228 -2.2703 -0.314643 0
M  V30 7689 C 760.228 -1.31734 -0.922111 0
M  V30 7690 O 761.418 -1.55176 -0.791588 0
M  V30 7691 C 758.55 -3.08616 -1.44806 0
M  V30 7692 H 759.743 -2.97769 0.356892 0
M  V30 7693 H 757.296 -1.54698 0.223191 0
M  V30 7694 H 758.031 -2.42369 -2.1547 0
M  V30 7695 H 757.816 -3.78647 -1.01829 0
M  V30 7696 H 759.306 -3.66536 -2.00103 0
M  V30 7697 N 759.743 -0.201713 -1.56304 0
M  V30 7698 C 760.973 0.440084 -2.01858 0
M  V30 7699 C 761.381 1.55279 -1.08098 0
M  V30 7700 O 760.724 1.83529 -0.0792216 0
M  V30 7701 C 760.786 1.05091 -3.43797 0
M  V30 7702 C 760.45 0.0761208 -4.56937 0
M  V30 7703 C 761.447 -0.716951 -5.14933 0
M  V30 7704 C 759.132 -0.0368815 -5.02286 0
M  V30 7705 C 761.126 -1.60993 -6.16733 0
M  V30 7706 C 758.813 -0.933409 -6.03929 0
M  V30 7707 C 759.811 -1.71849 -6.61027 0
M  V30 7708 O 759.499 -2.59998 -7.60695 0
M  V30 7709 H 759.231 0.114139 -0.666294 0
M  V30 7710 H 761.785 -0.309672 -2.03052 0
M  V30 7711 H 760.015 1.84938 -3.3961 0
M  V30 7712 H 761.704 1.59804 -3.73118 0
M  V30 7713 H 762.47 -0.63999 -4.80759 0
M  V30 7714 H 758.349 0.564034 -4.57537 0
M  V30 7715 H 761.893 -2.22315 -6.61227 0
M  V30 7716 H 757.79 -1.01146 -6.37526 0
M  V30 7717 H 758.558 -2.53851 -7.7814 0
M  V30 7718 N 761.222 1.57436 0.0718424 0
M  V30 7719 C 762.172 2.00132 1.09229 0
M  V30 7720 C 763.156 0.883379 1.34481 0
M  V30 7721 O 764.348 1.14728 1.34783 0
M  V30 7722 C 761.477 2.44876 2.40605 0
M  V30 7723 C 760.563 3.63405 2.18627 0
M  V30 7724 N 760.954 4.77583 1.66579 0
M  V30 7725 C 759.252 3.69953 2.491 0
M  V30 7726 C 759.953 5.5943 1.59415 0
M  V30 7727 N 758.929 5.03275 2.05464 0
M  V30 7728 H 762.731 2.85849 0.683185 0
M  V30 7729 H 760.245 1.59987 0.278914 0
M  V30 7730 H 762.242 2.73703 3.14471 0
M  V30 7731 H 760.902 1.60546 2.82232 0
M  V30 7732 H 761.913 4.99875 1.35443 0
M  V30 7733 H 758.59 2.96336 2.94094 0
M  V30 7734 H 759.98 6.61093 1.20026 0
M  V30 7735 N 762.7 -0.34323 1.53817 0
M  V30 7736 C 763.632 -1.44216 1.78141 0
M  V30 7737 C 764.645 -1.48701 0.662721 0
M  V30 7738 O 765.834 -1.51778 0.939458 0
M  V30 7739 C 762.934 -2.82872 1.86646 0
M  V30 7740 C 762.107 -3.01824 3.16577 0
M  V30 7741 C 761.166 -4.20723 3.16036 0
M  V30 7742 O 760.192 -4.14824 3.89756 0
M  V30 7743 N 761.394 -5.29276 2.38427 0
M  V30 7744 H 764.159 -1.23721 2.72971 0
M  V30 7745 H 761.72 -0.53311 1.52871 0
M  V30 7746 H 763.712 -3.60588 1.83735 0
M  V30 7747 H 762.282 -2.96509 0.990014 0
M  V30 7748 H 761.502 -2.11575 3.3261 0
M  V30 7749 H 762.79 -3.11369 4.02402 0
M  V30 7750 H 762.188 -5.36938 1.78085 0
M  V30 7751 H 760.745 -6.05484 2.41313 0
M  V30 7752 N 764.178 -1.45556 -0.604258 0
M  V30 7753 C 765.11 -1.50494 -1.72871 0
M  V30 7754 C 766.123 -0.395368 -1.57926 0
M  V30 7755 O 767.312 -0.662603 -1.65746 0
M  V30 7756 C 764.412 -1.34874 -3.10906 0
M  V30 7757 C 763.585 -2.59564 -3.52058 0
M  V30 7758 C 762.644 -2.38453 -4.6907 0
M  V30 7759 O 761.67 -3.12082 -4.76018 0
M  V30 7760 N 762.872 -1.43229 -5.62553 0
M  V30 7761 H 765.637 -2.4744 -1.69097 0
M  V30 7762 H 763.198 -1.41338 -0.789636 0
M  V30 7763 H 765.19 -1.18556 -3.86945 0
M  V30 7764 H 763.76 -0.461913 -3.09168 0
M  V30 7765 H 762.98 -2.90974 -2.65946 0
M  V30 7766 H 764.268 -3.42441 -3.76313 0
M  V30 7767 H 763.666 -0.824714 -5.59656 0
M  V30 7768 H 762.223 -1.32882 -6.38111 0
M  V30 7769 N 765.656 0.84705 -1.32902 0
M  V30 7770 C 766.896 1.61554 -1.25218 0
M  V30 7771 C 767.26 1.91141 0.18143 0
M  V30 7772 O 768.461 2.6607 0.382106 0
M  V30 7773 C 766.732 2.89553 -2.09509 0
M  V30 7774 S 768.291 3.80283 -2.18931 0
M  V30 7775 H 765.109 0.554031 -0.445613 0
M  V30 7776 H 767.711 1.00251 -1.67839 0
M  V30 7777 H 766.415 2.65776 -3.12716 0
M  V30 7778 H 765.946 3.55868 -1.67694 0
M  V30 7779 H 767.961 4.77641 -1.34438 0
M  V30 7780 N 767.134 1.16236 1.06428 0
M  V30 7781 C 768.067 0.81119 2.13295 0
M  V30 7782 C 769.045 -0.216555 1.61151 0
M  V30 7783 O 770.229 -0.100949 1.88229 0
M  V30 7784 C 767.356 0.207901 3.38061 0
M  V30 7785 C 766.402 1.20904 4.09004 0
M  V30 7786 S 767.235 2.75513 4.59187 0
M  V30 7787 C 768.391 2.1663 5.87216 0
M  V30 7788 H 768.624 1.71632 2.42755 0
M  V30 7789 H 766.157 0.985693 1.18842 0
M  V30 7790 H 768.115 -0.133715 4.10282 0
M  V30 7791 H 766.776 -0.67497 3.06762 0
M  V30 7792 H 765.969 0.735326 4.98607 0
M  V30 7793 H 765.571 1.49567 3.42791 0
M  V30 7794 H 767.863 1.53413 6.59902 0
M  V30 7795 H 768.806 3.04437 6.39315 0
M  V30 7796 H 769.214 1.60565 5.41183 0
M  V30 7797 N 768.612 -1.24939 0.960631 0
M  V30 7798 C 769.86 -1.92437 0.617441 0
M  V30 7799 C 770.181 -1.75543 -0.849101 0
M  V30 7800 O 769.451 -1.12269 -1.60538 0
M  V30 7801 H 768.031 -0.712192 0.225371 0
M  V30 7802 H 770.693 -1.5198 1.22017 0
M  V30 7803 H 769.789 -3.00247 0.851933 0
M  V30 7804 N 770.09 -0.729906 -1.39679 0
M  V30 7805 C 771.33 -0.280232 -2.0247 0
M  V30 7806 C 771.694 1.11006 -1.56658 0
M  V30 7807 O 772.895 1.65753 -2.11612 0
M  V30 7808 C 771.166 -0.372922 -3.55449 0
M  V30 7809 S 772.725 -0.00233974 -4.388 0
M  V30 7810 H 769.543 -0.110139 -0.702418 0
M  V30 7811 H 772.145 -0.955296 -1.70571 0
M  V30 7812 H 770.849 -1.38616 -3.86282 0
M  V30 7813 H 770.38 0.320136 -3.92095 0
M  V30 7814 H 772.395 1.21544 -4.81084 0
M  V30 7815 N 771.568 1.50203 -0.477153 0
M  V30 7816 C 772.518 2.25561 0.332625 0
M  V30 7817 C 773.502 1.29401 0.956249 0
M  V30 7818 O 774.694 1.54267 0.867795 0
M  V30 7819 C 771.823 3.12984 1.41052 0
M  V30 7820 C 770.909 4.16595 0.79433 0
M  V30 7821 N 771.3 5.05722 -0.0889633 0
M  V30 7822 C 769.598 4.33279 1.0576 0
M  V30 7823 C 770.299 5.80039 -0.439286 0
M  V30 7824 N 769.275 5.43278 0.187018 0
M  V30 7825 H 773.077 2.91836 -0.347718 0
M  V30 7826 H 770.591 1.59759 -0.291686 0
M  V30 7827 H 772.588 3.65582 2.00388 0
M  V30 7828 H 771.248 2.48258 2.09279 0
M  V30 7829 H 772.259 5.15869 -0.458205 0
M  V30 7830 H 768.936 3.79769 1.7344 0
M  V30 7831 H 770.326 6.61802 -1.1605 0
M  V30 7832 N 773.046 0.209999 1.56195 0
M  V30 7833 C 774.323 -0.473214 1.89789 0
M  V30 7834 C 774.703 -1.78581 1.1257 0
M  V30 7835 O 774.051 -2.27325 0.231398 0
M  V30 7836 C 774.261 -0.677458 3.42362 0
M  V30 7837 C 775.609 -0.990114 4.12895 0
M  V30 7838 O 776.633 -0.764655 3.47896 0
M  V30 7839 O 775.492 -1.41737 5.278 0
M  V30 7840 H 772.586 -0.248622 0.788743 0
M  V30 7841 H 775.132 0.251324 1.67829 0
M  V30 7842 H 773.904 0.248878 3.90508 0
M  V30 7843 H 773.527 -1.45391 3.70064 0
M  V30 7844 N 774.524 -1.57472 -0.0634922 0
M  V30 7845 C 775.94 -1.54016 -0.418466 0
M  V30 7846 C 776.14 -0.931376 -1.78683 0
M  V30 7847 O 775.196 -0.537465 -2.46714 0
M  V30 7848 C 776.509 -2.98634 -0.351906 0
M  V30 7849 C 778.057 -3.10012 -0.431494 0
M  V30 7850 C 778.532 -4.56296 -0.394754 0
M  V30 7851 N 780.023 -4.60964 -0.454583 0
M  V30 7852 C 780.758 -5.71643 -0.448501 0
M  V30 7853 N 780.254 -6.91663 -0.396742 0
M  V30 7854 N 782.047 -5.5991 -0.495677 0
M  V30 7855 H 774.198 -1.95409 0.832408 0
M  V30 7856 H 776.461 -0.894769 0.313197 0
M  V30 7857 H 776.167 -3.46766 0.587048 0
M  V30 7858 H 776.041 -3.58955 -1.15893 0
M  V30 7859 H 778.428 -2.61848 -1.36087 0
M  V30 7860 H 778.509 -2.52585 0.404258 0
M  V30 7861 H 778.153 -5.05119 0.530811 0
M  V30 7862 H 778.083 -5.11594 -1.24815 0
M  V30 7863 H 780.574 -3.74598 -0.498496 0
M  V30 7864 H 780.887 -7.71783 -0.396256 0
M  V30 7865 H 779.232 -6.9405 -0.363304 0
M  V30 7866 H 782.423 -4.65046 -0.533864 0
M  V30 7867 H 782.596 -6.46164 -0.487469 0
M  V30 7868 N 776.003 0.335068 -1.53997 0
M  V30 7869 C 776.936 1.43533 -1.77407 0
M  V30 7870 C 777.914 1.5017 -0.623529 0
M  V30 7871 O 779.098 1.67756 -0.85966 0
M  V30 7872 C 776.225 2.81712 -1.88033 0
M  V30 7873 C 775.271 2.92661 -3.10245 0
M  V30 7874 S 776.104 2.58254 -4.69111 0
M  V30 7875 C 777.26 3.98525 -4.82627 0
M  V30 7876 H 777.493 1.2346 -2.70453 0
M  V30 7877 H 775.026 0.531234 -1.44973 0
M  V30 7878 H 776.984 3.61314 -1.9484 0
M  V30 7879 H 775.645 2.99075 -0.959849 0
M  V30 7880 H 774.838 3.93931 -3.14379 0
M  V30 7881 H 774.44 2.21017 -3.01708 0
M  V30 7882 H 776.732 4.93146 -4.64557 0
M  V30 7883 H 777.675 3.9938 -5.84723 0
M  V30 7884 H 778.083 3.86945 -4.11016 0
M  V30 7885 N 777.481 1.45874 0.596531 0
M  V30 7886 C 778.428 1.55389 1.70655 0
M  V30 7887 C 779.398 0.399036 1.61236 0
M  V30 7888 O 780.583 0.61396 1.80652 0
M  V30 7889 C 777.723 1.53705 3.0898 0
M  V30 7890 C 776.836 2.79823 3.29125 0
M  V30 7891 C 775.971 2.69735 4.5762 0
M  V30 7892 C 775.01 3.90856 4.71061 0
M  V30 7893 N 774.147 3.79237 5.90867 0
M  V30 7894 H 778.987 2.50211 1.61859 0
M  V30 7895 H 776.524 1.24146 0.789069 0
M  V30 7896 H 778.482 1.50715 3.89026 0
M  V30 7897 H 777.112 0.624247 3.16706 0
M  V30 7898 H 776.164 2.92852 2.42779 0
M  V30 7899 H 777.476 3.69628 3.34927 0
M  V30 7900 H 776.63 2.64773 5.45875 0
M  V30 7901 H 775.369 1.77547 4.54234 0
M  V30 7902 H 774.374 3.96164 3.81227 0
M  V30 7903 H 775.599 4.84124 4.76236 0
M  V30 7904 H 773.545 2.89825 5.88504 0
M  V30 7905 H 773.462 4.62686 5.97877 0
M  V30 7906 H 774.73 3.78227 6.8159 0
M  V30 7907 N 778.959 -0.83999 1.33349 0
M  V30 7908 C 780.208 -1.59011 1.2409 0
M  V30 7909 C 780.521 -1.94655 -0.192029 0
M  V30 7910 O 781.727 -2.68438 -0.406617 0
M  V30 7911 C 780.183 -2.86801 2.17425 0
M  V30 7912 C 779.791 -2.58525 3.65881 0
M  V30 7913 C 781.535 -3.64823 2.17036 0
M  V30 7914 C 779.442 -3.82404 4.51133 0
M  V30 7915 H 778.372 -0.596731 0.460899 0
M  V30 7916 H 781.023 -0.926274 1.58406 0
M  V30 7917 H 779.405 -3.54719 1.7604 0
M  V30 7918 H 780.579 -1.98824 4.15699 0
M  V30 7919 H 778.894 -1.93808 3.68548 0
M  V30 7920 H 781.491 -4.56774 2.7796 0
M  V30 7921 H 781.834 -3.99663 1.16513 0
M  V30 7922 H 782.367 -3.03826 2.56777 0
M  V30 7923 H 779.106 -3.52696 5.52527 0
M  V30 7924 H 778.626 -4.41447 4.0606 0
M  V30 7925 H 780.305 -4.49995 4.6488 0
M  V30 7926 N 780.437 -1.16799 -1.0581 0
M  V30 7927 C 781.347 -0.893492 -2.16919 0
M  V30 7928 C 782.363 0.136061 -1.73467 0
M  V30 7929 O 783.539 -0.0417348 -2.01357 0
M  V30 7930 C 780.604 -0.403763 -3.44341 0
M  V30 7931 C 779.665 -1.49914 -4.02274 0
M  V30 7932 C 778.898 -1.03269 -5.23614 0
M  V30 7933 O 779.121 0.115647 -5.70283 0
M  V30 7934 O 778.055 -1.8231 -5.73626 0
M  V30 7935 H 781.881 -1.82274 -2.42919 0
M  V30 7936 H 779.466 -0.948361 -1.1544 0
M  V30 7937 H 781.348 -0.137874 -4.21174 0
M  V30 7938 H 780.023 0.497413 -3.19855 0
M  V30 7939 H 778.93 -1.81883 -3.26909 0
M  V30 7940 H 780.263 -2.3758 -4.31064 0
M  V30 7941 N 781.915 1.24427 -0.967243 0
M  V30 7942 C 782.862 2.25398 -0.496419 0
M  V30 7943 C 783.832 1.59667 0.457781 0
M  V30 7944 O 785.017 1.87213 0.368246 0
M  V30 7945 C 782.157 3.44474 0.207693 0
M  V30 7946 C 781.27 4.24804 -0.785221 0
M  V30 7947 C 780.405 5.31169 -0.0572631 0
M  V30 7948 C 779.444 6.03195 -1.04027 0
M  V30 7949 N 778.581 7.01265 -0.34235 0
M  V30 7950 H 783.421 2.65039 -1.36229 0
M  V30 7951 H 780.958 1.30288 -0.682902 0
M  V30 7952 H 782.916 4.12376 0.632612 0
M  V30 7953 H 781.546 3.05672 1.03752 0
M  V30 7954 H 780.598 3.56445 -1.32858 0
M  V30 7955 H 781.91 4.74599 -1.53483 0
M  V30 7956 H 781.064 6.05205 0.425674 0
M  V30 7957 H 779.803 4.8228 0.725047 0
M  V30 7958 H 778.808 5.27964 -1.53409 0
M  V30 7959 H 780.033 6.54173 -1.82302 0
M  V30 7960 H 777.979 6.54648 0.420993 0
M  V30 7961 H 777.896 7.48939 -1.03084 0
M  V30 7962 H 779.164 7.7941 0.118634 0
M  V30 7963 N 783.393 0.737304 1.3929 0
M  V30 7964 C 784.804 0.355966 1.83275 0
M  V30 7965 C 785.155 -1.11295 1.6158 0
M  V30 7966 O 784.28 -1.85871 1.10819 0
M  V30 7967 C 784.875 0.63931 3.32713 0
M  V30 7968 C 783.434 0.31144 3.75109 0
M  V30 7969 C 782.581 0.900765 2.62262 0
M  V30 7970 H 785.532 0.934763 1.28249 0
M  V30 7971 H 785.553 -0.0881293 3.80398 0
M  V30 7972 H 785.065 1.70847 3.48472 0
M  V30 7973 H 783.166 -0.751791 3.64937 0
M  V30 7974 H 783.279 0.795611 4.72448 0
M  V30 7975 H 781.643 0.327239 2.52589 0
M  V30 7976 H 782.426 1.97463 2.80826 0
M  V30 7977 N 784.871 -1.49948 0.485112 0
M  V30 7978 C 785.834 -2.27351 -0.290546 0
M  V30 7979 C 786.834 -1.32704 -0.908087 0
M  V30 7980 O 788.024 -1.56007 -0.775085 0
M  V30 7981 C 785.156 -3.10135 -1.41524 0
M  V30 7982 H 786.349 -2.97374 0.388454 0
M  V30 7983 H 783.902 -1.54453 0.239586 0
M  V30 7984 H 784.637 -2.44641 -2.12888 0
M  V30 7985 H 784.422 -3.79705 -0.978074 0
M  V30 7986 H 785.912 -3.68638 -1.96204 0
M  V30 7987 N 786.349 -0.21828 -1.56081 0
M  V30 7988 C 787.297 0.709679 -2.21509 0
M  V30 7989 C 788.291 1.20221 -1.19346 0
M  V30 7990 O 789.497 1.16241 -1.37433 0
M  V30 7991 H 785.872 0.247271 -0.710184 0
M  V30 7992 H 787.843 0.134386 -2.98097 0
M  V30 7993 C 786.592 1.90853 -2.90638 0
M  V30 7994 H 785.915 1.53865 -3.69006 0
M  V30 7995 H 787.355 2.53568 -3.39822 0
M  V30 7996 C 785.814 2.76189 -1.92929 0
M  V30 7997 O 786.344 3.74842 -1.44416 0
M  V30 7998 N 784.55 2.42157 -1.6065 0
M  V30 7999 H 784.097 1.61987 -2.00294 0
M  V30 8000 H 784.055 2.99534 -0.955347 0
M  V30 8001 N 787.827 1.57504 0.0551401 0
M  V30 8002 C 789.055 1.92294 0.76358 0
M  V30 8003 C 789.47 0.815774 1.70266 0
M  V30 8004 O 788.827 -0.209772 1.8129 0
M  V30 8005 C 788.878 3.26914 1.54302 0
M  V30 8006 O 788.599 4.33375 0.641666 0
M  V30 8007 C 790.1 3.75825 2.35097 0
M  V30 8008 H 787.32 0.635229 0.216159 0
M  V30 8009 H 789.864 2.0449 0.0204385 0
M  V30 8010 H 788.019 3.16196 2.23828 0
M  V30 8011 H 788.433 5.10927 1.1855 0
M  V30 8012 H 789.907 4.72603 2.8522 0
M  V30 8013 H 790.384 3.0568 3.15367 0
M  V30 8014 H 790.99 3.89542 1.70696 0
M  V30 8015 N 789.305 -0.326896 1.54172 0
M  V30 8016 C 790.268 -1.38515 1.8261 0
M  V30 8017 C 791.268 -1.44872 0.697771 0
M  V30 8018 O 792.458 -1.44957 0.966078 0
M  V30 8019 C 789.59 -2.77281 1.98313 0
M  V30 8020 H 790.783 -1.14556 2.77159 0
M  V30 8021 H 788.336 -0.562199 1.45839 0
M  V30 8022 H 789.071 -3.065 1.05964 0
M  V30 8023 H 788.856 -2.74061 2.80416 0
M  V30 8024 H 790.346 -3.53845 2.21773 0
M  V30 8025 N 790.784 -1.46188 -0.588786 0
M  V30 8026 C 792.024 -1.52738 -1.35833 0
M  V30 8027 C 792.388 -0.172403 -1.91224 0
M  V30 8028 O 793.589 -0.112633 -2.68564 0
M  V30 8029 C 791.86 -2.59085 -2.4619 0
M  V30 8030 S 793.419 -2.84997 -3.3365 0
M  V30 8031 H 790.237 -0.539713 -0.462851 0
M  V30 8032 H 792.839 -1.83386 -0.677489 0
M  V30 8033 H 791.543 -3.56177 -2.03878 0
M  V30 8034 H 791.074 -2.3015 -3.19053 0
M  V30 8035 H 793.089 -2.19804 -4.4486 0
M  V30 8036 N 792.262 0.832906 -1.33792 0
M  V30 8037 C 793.508 1.59089 -1.25772 0
M  V30 8038 C 793.841 1.93414 0.174601 0
M  V30 8039 O 793.116 1.59195 1.11746 0
M  V30 8040 C 793.399 2.89699 -2.13885 0
M  V30 8041 C 793.252 2.62017 -3.65605 0
M  V30 8042 C 794.571 3.91182 -2.01654 0
M  V30 8043 H 791.69 0.577232 -0.458227 0
M  V30 8044 H 794.332 0.960227 -1.6395 0
M  V30 8045 H 792.482 3.4352 -1.81456 0
M  V30 8046 H 794.154 2.14582 -4.08353 0
M  V30 8047 H 792.397 1.95621 -3.87189 0
M  V30 8048 H 793.068 3.55112 -4.2261 0
M  V30 8049 H 795.544 3.46684 -2.30107 0
M  V30 8050 H 794.42 4.80391 -2.65548 0
M  V30 8051 H 794.681 4.30861 -0.990536 0
M  V30 8052 N 793.74 1.17359 1.05189 0
M  V30 8053 C 795.017 0.871914 1.75091 0
M  V30 8054 C 795.397 -0.627821 2.01548 0
M  V30 8055 O 794.745 -1.5791 1.65156 0
M  V30 8056 C 794.955 1.70687 3.04413 0
M  V30 8057 C 796.303 1.92684 3.78362 0
M  V30 8058 O 797.327 1.67645 3.14282 0
M  V30 8059 O 796.186 2.34765 4.93505 0
M  V30 8060 H 793.28 0.322831 0.761386 0
M  V30 8061 H 795.826 1.28054 1.11357 0
M  V30 8062 H 794.598 2.72405 2.80911 0
M  V30 8063 H 794.221 1.29602 3.75884 0
M  V30 8064 N 795.218 -1.23913 0.973828 0
M  V30 8065 C 796.458 -1.93889 0.647015 0
M  V30 8066 C 796.822 -1.74368 -0.803735 0
M  V30 8067 O 798.023 -2.38435 -1.24106 0
M  V30 8068 C 796.294 -3.4257 1.01885 0
M  V30 8069 S 797.853 -4.31306 0.807517 0
M  V30 8070 H 794.671 -0.670279 0.237165 0
M  V30 8071 H 797.273 -1.50144 1.25208 0
M  V30 8072 H 795.977 -3.54286 2.07146 0
M  V30 8073 H 795.508 -3.91312 0.404812 0
M  V30 8074 H 797.523 -4.95218 -0.311986 0
M  V30 8075 N 796.696 -0.74468 -1.38897 0
M  V30 8076 C 797.646 -0.0869375 -2.27834 0
M  V30 8077 C 798.63 0.702553 -1.44751 0
M  V30 8078 O 799.822 0.569972 -1.67572 0
M  V30 8079 C 796.951 0.812232 -3.33553 0
M  V30 8080 C 796.037 0.0163713 -4.24097 0
M  V30 8081 N 796.428 -1.01547 -4.95502 0
M  V30 8082 C 794.726 0.244554 -4.45329 0
M  V30 8083 C 795.427 -1.49622 -5.62128 0
M  V30 8084 N 794.403 -0.813097 -5.37485 0
M  V30 8085 H 798.205 -0.877345 -2.80499 0
M  V30 8086 H 795.719 -0.579898 -1.51694 0
M  V30 8087 H 797.716 1.299 -3.96146 0
M  V30 8088 H 796.376 1.60169 -2.82446 0
M  V30 8089 H 797.387 -1.39707 -4.98701 0
M  V30 8090 H 794.064 1.00806 -4.05147 0
M  V30 8091 H 795.454 -2.35523 -6.29268 0
M  V30 8092 N 798.174 1.49689 -0.493057 0
M  V30 8093 C 799.121 2.28976 0.28959 0
M  V30 8094 C 800.091 1.35011 0.967536 0
M  V30 8095 O 801.276 1.63964 0.975736 0
M  V30 8096 C 798.416 3.1748 1.35279 0
M  V30 8097 C 797.529 4.26496 0.687418 0
M  V30 8098 C 796.664 5.02226 1.73038 0
M  V30 8099 C 795.703 6.03089 1.04645 0
M  V30 8100 N 794.84 6.72014 2.03325 0
M  V30 8101 H 799.68 2.954 -0.392798 0
M  V30 8102 H 797.217 1.45657 -0.205554 0
M  V30 8103 H 799.175 3.67162 1.98111 0
M  V30 8104 H 797.805 2.53057 2.00405 0
M  V30 8105 H 796.857 3.80362 -0.0540001 0
M  V30 8106 H 798.169 4.98578 0.14864 0
M  V30 8107 H 797.323 5.55737 2.43395 0
M  V30 8108 H 796.062 4.29899 2.303 0
M  V30 8109 H 795.067 5.48817 0.328606 0
M  V30 8110 H 796.292 6.77398 0.480428 0
M  V30 8111 H 794.238 6.02464 2.59564 0
M  V30 8112 H 794.155 7.40046 1.54492 0
M  V30 8113 H 795.423 7.30133 2.72995 0
M  V30 8114 N 799.652 0.226554 1.55963 0
M  V30 8115 C 800.562 -0.692725 2.24139 0
M  V30 8116 C 801.578 -1.20971 1.25068 0
M  V30 8117 O 802.754 -1.25027 1.57893 0
M  V30 8118 C 799.819 -1.88183 2.91184 0
M  V30 8119 C 798.88 -1.40633 4.05612 0
M  V30 8120 C 798.113 -2.53875 4.6945 0
M  V30 8121 O 798.336 -3.72129 4.32292 0
M  V30 8122 O 797.27 -2.24792 5.58348 0
M  V30 8123 H 801.096 -0.141921 3.03368 0
M  V30 8124 H 798.681 -0.0041049 1.49399 0
M  V30 8125 H 800.563 -2.57617 3.33484 0
M  V30 8126 H 799.238 -2.42064 2.14911 0
M  V30 8127 H 798.145 -0.67986 3.67871 0
M  V30 8128 H 799.478 -0.913838 4.83642 0
M  V30 8129 N 801.13 -1.57531 -0.0467866 0
M  V30 8130 C 802.546 -1.54451 -0.402107 0
M  V30 8131 C 802.746 -0.950275 -1.77685 0
M  V30 8132 O 801.802 -0.563602 -2.4613 0
M  V30 8133 C 803.115 -2.9899 -0.320212 0
M  V30 8134 C 804.663 -3.10452 -0.398588 0
M  V30 8135 C 805.138 -4.56689 -0.346335 0
M  V30 8136 N 806.629 -4.6142 -0.405666 0
M  V30 8137 C 807.364 -5.72087 -0.387845 0
M  V30 8138 N 806.86 -6.92045 -0.32336 0
M  V30 8139 N 808.653 -5.60404 -0.436263 0
M  V30 8140 H 800.804 -1.94515 0.853087 0
M  V30 8141 H 803.067 -0.891397 0.322669 0
M  V30 8142 H 802.773 -3.46124 0.623794 0
M  V30 8143 H 802.647 -3.60164 -1.1208 0
M  V30 8144 H 805.034 -2.63276 -1.33302 0
M  V30 8145 H 805.115 -2.52142 0.431026 0
M  V30 8146 H 804.759 -5.04527 0.584356 0
M  V30 8147 H 804.689 -5.12889 -1.19382 0
M  V30 8148 H 807.18 -3.75105 -0.458737 0
M  V30 8149 H 807.493 -7.7216 -0.314375 0
M  V30 8150 H 805.838 -6.94396 -0.28967 0
M  V30 8151 H 809.029 -4.65586 -0.48451 0
M  V30 8152 H 809.202 -6.46645 -0.418907 0
M  V30 8153 N 802.608 0.318715 -1.54344 0
M  V30 8154 C 803.571 1.37545 -1.83342 0
M  V30 8155 C 804.571 1.445 -0.705444 0
M  V30 8156 O 805.761 1.44443 -0.973752 0
M  V30 8157 C 802.893 2.76225 -1.99781 0
M  V30 8158 H 804.086 1.13084 -2.77762 0
M  V30 8159 H 801.639 0.554457 -1.46135 0
M  V30 8160 H 802.374 3.05934 -1.07588 0
M  V30 8161 H 802.159 2.7257 -2.81865 0
M  V30 8162 H 803.649 3.52664 -2.23647 0
M  V30 8163 N 804.086 1.46499 0.581025 0
M  V30 8164 C 805.033 1.5719 1.68997 0
M  V30 8165 C 806.003 0.416114 1.60803 0
M  V30 8166 O 807.188 0.633086 1.79991 0
M  V30 8167 C 804.328 1.56973 3.07333 0
M  V30 8168 C 803.441 2.83298 3.26139 0
M  V30 8169 C 802.576 2.74574 4.54734 0
M  V30 8170 C 801.615 3.9583 4.66889 0
M  V30 8171 N 800.752 3.85482 5.86811 0
M  V30 8172 H 805.592 2.51914 1.59196 0
M  V30 8173 H 803.129 1.24975 0.775857 0
M  V30 8174 H 805.087 1.54832 3.87405 0
M  V30 8175 H 803.717 0.657803 3.16027 0
M  V30 8176 H 802.769 2.95411 2.3966 0
M  V30 8177 H 804.081 3.7316 3.30988 0
M  V30 8178 H 803.235 2.70548 5.43036 0
M  V30 8179 H 801.974 1.82354 4.52325 0
M  V30 8180 H 800.979 4.00186 3.77003 0
M  V30 8181 H 802.204 4.89148 4.71075 0
M  V30 8182 H 800.15 2.96051 5.85397 0
M  V30 8183 H 800.067 4.69002 5.92936 0
M  V30 8184 H 801.335 3.85434 6.7754 0
M  V30 8185 O 805.603 -0.725332 1.44295 0
M  V30 8186 H 806.294 -1.37566 1.36365 0
M  V30 END ATOM
M  V30 BEGIN BOND
M  V30 END BOND
M  V30 END CTAB
M  END
$$$$
