drugbank_target|P24046 Gamma-aminobutyric acid receptor subunit rho-1 (DB00431; DB00466; DB01567)
 OpenBabel12092119243D

  0  0  0     0  0            999 V3000
M  V30 BEGIN CTAB
M  V30 COUNTS 7845 7951 0 0 0
M  V30 BEGIN ATOM
M  V30 1 H -0.908 1.98254 -0.117106 0
M  V30 2 N 0 1.576 0 0
M  V30 3 C 0.933 2.03868 1.02534 0
M  V30 4 C 1.911 0.928543 1.3348 0
M  V30 5 O 3.095 1.19667 1.45644 0
M  V30 6 C 0.222 2.43627 2.35294 0
M  V30 7 C -0.732 3.65373 2.2001 0
M  V30 8 S 0.101 5.13292 1.52614 0
M  V30 9 C 1.257 5.56322 2.86805 0
M  V30 10 H 1.49 2.90518 0.631377 0
M  V30 11 H -0.977 1.52953 0.210867 0
M  V30 12 H 0.981 2.67203 3.11629 0
M  V30 13 H -0.358 1.57376 2.7183 0
M  V30 14 H -1.165 3.90944 3.18086 0
M  V30 15 H -1.563 3.418 1.51819 0
M  V30 16 H 0.729 5.58782 3.83104 0
M  V30 17 H 1.672 6.56266 2.65933 0
M  V30 18 H 2.08 4.83886 2.90714 0
M  V30 19 N 1.4781 -0.272755 1.55222 0
M  V30 20 C 2.4081 -1.34136 1.91127 0
M  V30 21 C 3.3891 -1.51513 0.773168 0
M  V30 22 O 4.5741 -1.64552 1.03132 0
M  V30 23 C 1.7041 -2.70083 2.1834 0
M  V30 24 C 0.6581 -2.67437 3.34158 0
M  V30 25 C -0.0159 -4.06938 3.46851 0
M  V30 26 C 1.2841 -2.26686 4.70543 0
M  V30 27 H 2.9781 -1.04333 2.80633 0
M  V30 28 H 0.5241 -0.500454 1.35024 0
M  V30 29 H 2.4771 -3.44952 2.42046 0
M  V30 30 H 1.2011 -3.01469 1.25634 0
M  V30 31 H -0.1399 -1.95026 3.1042 0
M  V30 32 H -0.4919 -4.35547 2.51611 0
M  V30 33 H -0.7919 -4.06062 4.2472 0
M  V30 34 H 0.7321 -4.83545 3.72849 0
M  V30 35 H 2.1461 -2.91277 4.93792 0
M  V30 36 H 0.5431 -2.36971 5.5133 0
M  V30 37 H 1.6131 -1.21818 4.69349 0
M  V30 38 N 2.9562 -1.48159 -0.537278 0
M  V30 39 C 3.9192 -1.61665 -1.62472 0
M  V30 40 C 4.9192 -0.490395 -1.5314 0
M  V30 41 O 6.1092 -0.755998 -1.5694 0
M  V30 42 C 3.2412 -1.57997 -3.02076 0
M  V30 43 H 4.4342 -2.58621 -1.51839 0
M  V30 44 H 1.9872 -1.36647 -0.758771 0
M  V30 45 H 2.7222 -0.624913 -3.18222 0
M  V30 46 H 2.5072 -2.39755 -3.10258 0
M  V30 47 H 3.9972 -1.70627 -3.81151 0
M  V30 48 N 4.4343 0.785586 -1.36625 0
M  V30 49 C 5.6803 1.54591 -1.31261 0
M  V30 50 C 6.0133 1.93906 0.106823 0
M  V30 51 O 5.2883 1.63007 1.06108 0
M  V30 52 C 5.5713 2.82038 -2.23889 0
M  V30 53 C 5.4243 2.49066 -3.74548 0
M  V30 54 C 6.7433 3.83887 -2.15217 0
M  V30 55 H 3.8623 0.560846 -0.478143 0
M  V30 56 H 6.5043 0.902278 -1.67209 0
M  V30 57 H 4.6543 3.36961 -1.93363 0
M  V30 58 H 6.3263 2.00164 -4.15611 0
M  V30 59 H 4.5693 1.81954 -3.93796 0
M  V30 60 H 5.2403 3.40109 -4.34776 0
M  V30 61 H 7.7163 3.38421 -2.42096 0
M  V30 62 H 6.5923 4.70806 -2.82193 0
M  V30 63 H 6.8533 4.27131 -1.14068 0
M  V30 64 N 5.9124 1.20967 1.01018 0
M  V30 65 C 7.3234 1.02319 1.56165 0
M  V30 66 C 7.6744 -0.418546 1.91684 0
M  V30 67 O 6.7994 -1.30096 1.72928 0
M  V30 68 C 7.3944 1.85109 2.8376 0
M  V30 69 C 5.9534 1.70809 3.35412 0
M  V30 70 C 5.1004 1.82643 2.08655 0
M  V30 71 H 8.0514 1.35065 0.833255 0
M  V30 72 H 8.0724 1.35827 3.55431 0
M  V30 73 H 7.5844 2.90035 2.57878 0
M  V30 74 H 5.6854 0.685464 3.66241 0
M  V30 75 H 5.7984 2.52467 4.07182 0
M  V30 76 H 4.1624 1.25896 2.21409 0
M  V30 77 H 4.9454 2.89066 1.85191 0
M  V30 78 N 7.3905 -1.2043 1.01659 0
M  V30 79 C 8.3385 -2.25249 0.580143 0
M  V30 80 C 9.3325 -1.65057 -0.381115 0
M  V30 81 O 10.5385 -1.78241 -0.251039 0
M  V30 82 H 6.9135 -0.732695 0.169299 0
M  V30 83 H 8.8845 -2.59389 1.47512 0
M  V30 84 C 7.6335 -3.47638 -0.065788 0
M  V30 85 H 6.9565 -3.94233 0.664874 0
M  V30 86 H 8.3965 -4.2268 -0.334282 0
M  V30 87 C 6.8555 -3.10447 -1.3086 0
M  V30 88 O 7.3855 -3.21981 -2.4019 0
M  V30 89 N 5.5915 -2.64996 -1.1927 0
M  V30 90 H 5.1385 -2.55811 -0.303064 0
M  V30 91 H 5.0965 -2.40482 -2.02523 0
M  V30 92 N 8.8686 -0.792821 -1.36206 0
M  V30 93 C 9.8016 -0.139422 -2.27774 0
M  V30 94 C 10.7796 0.68649 -1.47398 0
M  V30 95 O 11.9636 0.656738 -1.7669 0
M  V30 96 C 9.0906 0.807947 -3.28922 0
M  V30 97 C 8.1366 0.0633999 -4.26453 0
M  V30 98 S 8.9696 -1.26319 -5.20388 0
M  V30 99 C 10.1256 -0.31991 -6.25082 0
M  V30 100 H 10.3586 -0.915809 -2.82843 0
M  V30 101 H 7.8916 -0.587203 -1.42798 0
M  V30 102 H 9.8496 1.34908 -3.87699 0
M  V30 103 H 8.5106 1.55761 -2.72759 0
M  V30 104 H 7.7036 0.782386 -4.9789 0
M  V30 105 H 7.3056 -0.407352 -3.71775 0
M  V30 106 H 9.5976 0.499985 -6.75653 0
M  V30 107 H 10.5406 -1.00307 -7.00959 0
M  V30 108 H 10.9486 0.0782694 -5.64446 0
M  V30 109 N 10.3467 1.47872 -0.545128 0
M  V30 110 C 11.7627 1.5829 -0.204032 0
M  V30 111 C 11.9627 1.54529 1.29317 0
M  V30 112 O 11.0187 1.44232 2.07252 0
M  V30 113 C 12.3317 2.89304 -0.819987 0
M  V30 114 C 13.8797 3.02864 -0.790105 0
M  V30 115 C 14.3547 4.3656 -1.38491 0
M  V30 116 N 15.8457 4.43165 -1.34755 0
M  V30 117 C 16.5807 5.45153 -1.77753 0
M  V30 118 N 16.0767 6.54016 -2.2855 0
M  V30 119 N 17.8697 5.36125 -1.68897 0
M  V30 120 H 10.0207 1.4856 -1.51802 0
M  V30 121 H 12.2837 0.706305 -0.632327 0
M  V30 122 H 11.9897 2.97757 -1.87173 0
M  V30 123 H 11.8637 3.75957 -0.305915 0
M  V30 124 H 14.2507 2.94014 0.252913 0
M  V30 125 H 14.3317 2.17782 -1.34181 0
M  V30 126 H 13.9757 4.46164 -2.42693 0
M  V30 127 H 13.9057 5.20353 -0.808754 0
M  V30 128 H 16.3967 3.65083 -0.975855 0
M  V30 129 H 16.7097 7.27994 -2.59314 0
M  V30 130 H 15.0547 6.54938 -2.32553 0
M  V30 131 H 18.2457 4.49975 -1.28998 0
M  V30 132 H 18.4187 6.15472 -2.02726 0
M  V30 133 N 11.8248 0.280983 1.55075 0
M  V30 134 C 13.0718 -0.334115 1.99725 0
M  V30 135 C 13.3998 -1.5542 1.1694 0
M  V30 136 O 12.6548 -1.94361 0.228531 0
M  V30 137 C 12.9538 -0.754656 3.49342 0
M  V30 138 C 12.6198 0.361445 4.49449 0
M  V30 139 C 11.2818 0.667893 4.76542 0
M  V30 140 C 13.6338 1.11322 5.09173 0
M  V30 141 C 10.9618 1.7296 5.60626 0
M  V30 142 C 13.3138 2.1647 5.9441 0
M  V30 143 C 11.9778 2.47742 6.19822 0
M  V30 144 H 11.2478 -0.122261 0.730844 0
M  V30 145 H 13.8948 0.395917 1.87363 0
M  V30 146 H 12.1998 -1.56446 3.5921 0
M  V30 147 H 13.8968 -1.24142 3.813 0
M  V30 148 H 10.4868 0.112481 4.28452 0
M  V30 149 H 14.6708 0.88973 4.8826 0
M  V30 150 H 9.9268 1.97684 5.78559 0
M  V30 151 H 14.1008 2.75193 6.3972 0
M  V30 152 H 11.7278 3.30145 6.84769 0
M  V30 153 N 13.3029 -1.57598 0.00835791 0
M  V30 154 C 14.5509 -1.90551 -0.6734 0
M  V30 155 C 14.8719 -0.883301 -1.73847 0
M  V30 156 O 14.1419 0.0781442 -1.95744 0
M  V30 157 H 12.7219 -0.703312 -0.251717 0
M  V30 158 H 15.3839 -1.94833 0.0512592 0
M  V30 159 H 14.4799 -2.9056 -1.13935 0
M  V30 160 N 14.781 0.264519 -1.55364 0
M  V30 161 C 16.03 0.992812 -1.75574 0
M  V30 162 C 16.343 1.87142 -0.568979 0
M  V30 163 O 17.549 2.63513 -0.653682 0
M  V30 164 C 16.005 1.81519 -3.10771 0
M  V30 165 C 15.613 0.984839 -4.37041 0
M  V30 166 C 17.357 2.53727 -3.40327 0
M  V30 167 C 15.264 1.80209 -5.63275 0
M  V30 168 H 14.194 0.374412 -0.65447 0
M  V30 169 H 16.845 0.248138 -1.81815 0
M  V30 170 H 15.227 2.60115 -2.98591 0
M  V30 171 H 16.401 0.242455 -4.60162 0
M  V30 172 H 14.716 0.37691 -4.14691 0
M  V30 173 H 17.313 3.15292 -4.3185 0
M  V30 174 H 17.656 3.24447 -2.60845 0
M  V30 175 H 18.189 1.82156 -3.53644 0
M  V30 176 H 14.928 1.13896 -6.45529 0
M  V30 177 H 14.448 2.52022 -5.44284 0
M  V30 178 H 16.127 2.37364 -6.01887 0
M  V30 179 N 16.2591 1.48442 0.529413 0
M  V30 180 C 17.5061 1.56488 1.28521 0
M  V30 181 C 17.8341 0.239042 1.93025 0
M  V30 182 O 17.0891 -0.770713 1.79885 0
M  V30 183 C 17.3881 2.6523 2.39558 0
M  V30 184 C 17.0541 4.07648 1.92702 0
M  V30 185 C 15.7161 4.46411 1.79641 0
M  V30 186 C 18.0681 4.96896 1.573 0
M  V30 187 C 15.3961 5.72226 1.29514 0
M  V30 188 C 17.7481 6.23202 1.08636 0
M  V30 189 C 16.4121 6.60821 0.941919 0
M  V30 190 H 15.6821 0.572631 0.470292 0
M  V30 191 H 18.3291 1.82161 0.59072 0
M  V30 192 H 16.6341 2.33419 3.14679 0
M  V30 193 H 18.3311 2.68671 2.97686 0
M  V30 194 H 14.9211 3.77036 2.03819 0
M  V30 195 H 19.1051 4.67626 1.66251 0
M  V30 196 H 14.3611 6.00097 1.17019 0
M  V30 197 H 18.5351 6.91753 0.803136 0
M  V30 198 H 16.1621 7.58198 0.5513 0
M  V30 199 N 17.7372 -0.778329 1.37039 0
M  V30 200 C 18.6672 -1.90546 1.34962 0
M  V30 201 C 19.6482 -1.68681 0.219274 0
M  V30 202 O 20.8332 -1.89634 0.418624 0
M  V30 203 C 17.9632 -3.27734 1.14925 0
M  V30 204 C 16.9172 -3.64147 2.24902 0
M  V30 205 C 16.2432 -4.99806 1.89996 0
M  V30 206 C 17.5432 -3.71579 3.67051 0
M  V30 207 H 19.2372 -1.92541 2.29277 0
M  V30 208 H 16.7832 -0.924948 1.10366 0
M  V30 209 H 18.7362 -4.06215 1.12104 0
M  V30 210 H 17.4602 -3.26154 0.170631 0
M  V30 211 H 16.1192 -2.8797 2.26868 0
M  V30 212 H 15.7672 -4.94759 0.906796 0
M  V30 213 H 15.4672 -5.25139 2.63634 0
M  V30 214 H 16.9912 -5.80694 1.88749 0
M  V30 215 H 18.4052 -4.40227 3.67251 0
M  V30 216 H 16.8022 -4.08405 4.39688 0
M  V30 217 H 17.8722 -2.72404 4.01154 0
M  V30 218 N 19.2153 -1.21501 -1.00376 0
M  V30 219 C 20.1453 -0.999478 -2.11028 0
M  V30 220 C 21.1263 0.0759671 -1.6993 0
M  V30 221 O 22.3113 -0.0841106 -1.94018 0
M  V30 222 C 19.4413 -0.564709 -3.42678 0
M  V30 223 C 18.3953 -1.58486 -3.97576 0
M  V30 224 C 17.7213 -1.00628 -5.25146 0
M  V30 225 C 19.0213 -2.97204 -4.29496 0
M  V30 226 H 20.7153 -1.92495 -2.29317 0
M  V30 227 H 18.2613 -0.92693 -1.102 0
M  V30 228 H 20.2143 -0.401091 -4.19487 0
M  V30 229 H 18.9383 0.396411 -3.24185 0
M  V30 230 H 17.5973 -1.73606 -3.22888 0
M  V30 231 H 17.2453 -0.0368439 -5.02987 0
M  V30 232 H 16.9453 -1.68771 -5.62841 0
M  V30 233 H 18.4693 -0.854015 -6.04598 0
M  V30 234 H 19.8833 -2.8552 -4.97143 0
M  V30 235 H 18.2803 -3.62372 -4.78338 0
M  V30 236 H 19.3503 -3.47956 -3.3772 0
M  V30 237 N 20.6934 1.19889 -1.02296 0
M  V30 238 C 21.9394 1.89973 -0.726759 0
M  V30 239 C 22.2944 1.7776 0.73614 0
M  V30 240 O 21.5874 1.15523 1.52856 0
M  V30 241 C 21.7814 3.39883 -1.10518 0
M  V30 242 C 21.6104 3.66684 -2.60332 0
M  V30 243 C 20.3804 3.85045 -3.27213 0
M  V30 244 C 22.5784 3.68727 -3.58532 0
M  V30 245 N 20.5604 3.99422 -4.66192 0
M  V30 246 C 21.9314 3.88604 -4.83101 0
M  V30 247 C 23.9864 3.51722 -3.52414 0
M  V30 248 C 22.6894 3.9324 -6.02292 0
M  V30 249 C 24.7154 3.57632 -4.71013 0
M  V30 250 C 24.0774 3.77988 -5.94394 0
M  V30 251 H 20.1764 0.714551 -0.317712 0
M  V30 252 H 22.7604 1.44123 -1.30907 0
M  V30 253 H 20.9314 3.8447 -0.551142 0
M  V30 254 H 22.6634 3.97464 -0.761853 0
M  V30 255 H 19.4184 3.83689 -2.77632 0
M  V30 256 H 19.8424 4.10473 -5.38368 0
M  V30 257 H 24.4844 3.34945 -2.58015 0
M  V30 258 H 22.2024 4.08811 -6.97065 0
M  V30 259 H 25.7884 3.45773 -4.67902 0
M  V30 260 H 24.6684 3.82428 -6.8463 0
M  V30 261 N 22.1715 0.800033 1.35784 0
M  V30 262 C 23.4175 0.38701 1.99684 0
M  V30 263 C 23.7725 -1.03268 1.62338 0
M  V30 264 O 23.0655 -1.70543 0.87325 0
M  V30 265 C 23.2595 0.500276 3.53881 0
M  V30 266 C 23.0885 1.92942 4.06206 0
M  V30 267 C 21.8585 2.55637 4.35865 0
M  V30 268 C 24.0565 2.89307 4.25213 0
M  V30 269 N 22.0385 3.9003 4.74078 0
M  V30 270 C 23.4095 4.08556 4.66349 0
M  V30 271 C 25.4645 2.86225 4.07406 0
M  V30 272 C 24.1675 5.25146 4.91543 0
M  V30 273 C 26.1935 4.02011 4.33752 0
M  V30 274 C 25.5555 5.20007 4.75155 0
M  V30 275 H 21.6545 0.189252 0.758754 0
M  V30 276 H 24.2385 1.03988 1.64604 0
M  V30 277 H 22.4095 -0.122568 3.88207 0
M  V30 278 H 24.1415 0.0624733 4.04652 0
M  V30 279 H 20.8965 2.07039 4.25948 0
M  V30 280 H 21.3205 4.59205 4.97454 0
M  V30 281 H 25.9625 1.96154 3.74544 0
M  V30 282 H 23.6805 6.15794 5.23281 0
M  V30 283 H 27.2665 4.00999 4.21534 0
M  V30 284 H 26.1465 6.08113 4.95145 0
M  V30 285 N 23.6496 -1.47581 0.552962 0
M  V30 286 C 24.8976 -2.02082 0.0272703 0
M  V30 287 C 25.2186 -1.4301 -1.32563 0
M  V30 288 O 24.4886 -0.603745 -1.86365 0
M  V30 289 H 23.0686 -0.746966 0.00709182 0
M  V30 290 H 25.7306 -1.81033 0.722008 0
M  V30 291 H 24.8266 -3.12034 -0.0639951 0
M  V30 292 N 25.1277 -0.289203 -1.54924 0
M  V30 293 C 26.3737 0.316922 -2.00916 0
M  V30 294 C 26.7287 1.52424 -1.17408 0
M  V30 295 O 26.0217 1.90097 -0.239536 0
M  V30 296 C 26.2157 0.736119 -3.49737 0
M  V30 297 C 26.0447 -0.429036 -4.47649 0
M  V30 298 C 24.8147 -0.917311 -4.96904 0
M  V30 299 C 27.0127 -1.27016 -4.98369 0
M  V30 300 N 24.9947 -2.05046 -5.78644 0
M  V30 301 C 26.3657 -2.25097 -5.77695 0
M  V30 302 C 28.4207 -1.30188 -4.80578 0
M  V30 303 C 27.1237 -3.26114 -6.41126 0
M  V30 304 C 29.1497 -2.30057 -5.44819 0
M  V30 305 C 28.5117 -3.2687 -6.23968 0
M  V30 306 H 24.6107 0.0807535 -0.777819 0
M  V30 307 H 27.1947 -0.416434 -1.90194 0
M  V30 308 H 25.3657 1.43867 -3.60773 0
M  V30 309 H 27.0977 1.32078 -3.82541 0
M  V30 310 H 23.8527 -0.494248 -4.71014 0
M  V30 311 H 24.2767 -2.62108 -6.24202 0
M  V30 312 H 28.9187 -0.567163 -4.18979 0
M  V30 313 H 26.6367 -4.00512 -7.01866 0
M  V30 314 H 30.2227 -2.33271 -5.32988 0
M  V30 315 H 29.1027 -4.02883 -6.72796 0
M  V30 316 N 26.6058 1.57591 -0.0167156 0
M  V30 317 C 27.8518 1.91567 0.665582 0
M  V30 318 C 28.1848 0.892298 1.72487 0
M  V30 319 O 27.4598 -0.0867127 1.94307 0
M  V30 320 C 27.7428 3.36069 1.29342 0
M  V30 321 C 27.5958 4.49135 0.244541 0
M  V30 322 C 28.9148 3.803 2.21495 0
M  V30 323 H 26.0338 0.69666 0.240488 0
M  V30 324 H 28.6758 1.89866 -0.0714356 0
M  V30 325 H 26.8258 3.3765 1.92158 0
M  V30 326 H 28.4978 4.59689 -0.385228 0
M  V30 327 H 26.7408 4.3165 -0.431379 0
M  V30 328 H 27.4118 5.47242 0.723207 0
M  V30 329 H 29.8878 3.80377 1.68678 0
M  V30 330 H 28.7638 4.82127 2.62382 0
M  V30 331 H 29.0248 3.15104 3.101 0
M  V30 332 N 28.0839 -0.256276 1.55502 0
M  V30 333 C 29.0139 -1.32102 1.92539 0
M  V30 334 C 29.9949 -1.50684 0.789194 0
M  V30 335 O 31.1799 -1.63449 1.04872 0
M  V30 336 C 28.3099 -2.67752 2.21192 0
M  V30 337 C 27.2639 -2.63878 3.36975 0
M  V30 338 C 26.5899 -4.03236 3.51147 0
M  V30 339 C 27.8899 -2.21682 4.72921 0
M  V30 340 H 29.5839 -1.01351 2.81724 0
M  V30 341 H 27.1299 -0.486105 1.35547 0
M  V30 342 H 29.0829 -3.42365 2.45691 0
M  V30 343 H 27.8069 -3.0012 1.28824 0
M  V30 344 H 26.4659 -1.91722 3.12471 0
M  V30 345 H 26.1139 -4.32854 2.56216 0
M  V30 346 H 25.8139 -4.01535 4.29003 0
M  V30 347 H 27.3379 -4.79563 3.77957 0
M  V30 348 H 28.7519 -2.86023 4.96854 0
M  V30 349 H 27.1489 -2.3111 5.53812 0
M  V30 350 H 28.2189 -1.16833 4.70615 0
M  V30 351 N 29.562 -1.4872 -0.521534 0
M  V30 352 C 30.525 -1.63379 -1.60748 0
M  V30 353 C 31.525 -0.50661 -1.52611 0
M  V30 354 O 32.715 -0.772601 -1.5613 0
M  V30 355 C 29.847 -1.61192 -3.00383 0
M  V30 356 H 31.04 -2.60217 -1.49087 0
M  V30 357 H 28.593 -1.37444 -0.744235 0
M  V30 358 H 29.328 -0.65863 -3.17541 0
M  V30 359 H 29.113 -2.43032 -3.07698 0
M  V30 360 H 30.603 -1.7466 -3.7932 0
M  V30 361 N 31.0401 0.771051 -1.3745 0
M  V30 362 C 32.2681 1.56015 -1.35893 0
M  V30 363 C 32.6831 1.88718 0.0555523 0
M  V30 364 O 32.0401 1.51502 1.01752 0
M  V30 365 C 32.0911 2.87001 -2.19801 0
M  V30 366 O 31.8121 2.557 -3.55738 0
M  V30 367 C 33.3131 3.81228 -2.26231 0
M  V30 368 H 30.5331 0.483317 -0.465453 0
M  V30 369 H 33.0771 0.955611 -1.80799 0
M  V30 370 H 31.2321 3.43877 -1.78402 0
M  V30 371 H 31.6461 3.39584 -3.99729 0
M  V30 372 H 33.1201 4.70139 -2.89263 0
M  V30 373 H 33.5971 4.20409 -1.27093 0
M  V30 374 H 34.2031 3.30281 -2.67945 0
M  V30 375 N 32.5182 1.22032 0.997298 0
M  V30 376 C 33.4282 1.00271 2.12092 0
M  V30 377 C 34.4442 -0.047621 1.73935 0
M  V30 378 O 35.6202 0.144136 2.00884 0
M  V30 379 C 32.6852 0.578449 3.4184 0
M  V30 380 C 31.7462 1.70189 3.94125 0
M  V30 381 C 30.9792 1.29778 5.17681 0
M  V30 382 O 31.2022 0.174676 5.70132 0
M  V30 383 O 30.1362 2.11261 5.63607 0
M  V30 384 H 33.9622 1.94398 2.3333 0
M  V30 385 H 31.5472 1.00587 1.10465 0
M  V30 386 H 33.4292 0.351998 4.19927 0
M  V30 387 H 32.1042 -0.334019 3.21972 0
M  V30 388 H 31.0112 1.98282 3.1723 0
M  V30 389 H 32.3442 2.59206 4.18417 0
M  V30 390 N 33.9963 -1.19345 1.0293 0
M  V30 391 C 35.2213 -1.93538 0.745511 0
M  V30 392 C 35.6463 -1.75007 -0.689511 0
M  V30 393 O 35.0043 -1.05265 -1.47611 0
M  V30 394 C 35.0523 -3.43336 1.10239 0
M  V30 395 O 34.1563 -4.11806 0.221289 0
M  V30 396 H 33.4973 -0.604193 0.275404 0
M  V30 397 H 36.0273 -1.5141 1.37609 0
M  V30 398 H 36.0373 -3.94004 1.05947 0
M  V30 399 H 34.7123 -3.56146 2.14786 0
M  V30 400 H 33.2893 -3.715 0.322842 0
M  V30 401 N 35.4744 -0.807222 -1.35358 0
M  V30 402 C 36.8904 -0.491038 -1.51858 0
M  V30 403 C 37.0904 0.987648 -1.75635 0
M  V30 404 O 36.1464 1.77265 -1.79815 0
M  V30 405 C 37.4594 -1.33695 -2.69344 0
M  V30 406 C 39.0074 -1.33246 -2.83222 0
M  V30 407 C 39.4824 -2.1625 -4.03733 0
M  V30 408 N 40.9734 -2.1379 -4.10911 0
M  V30 409 C 41.7084 -2.74772 -5.03277 0
M  V30 410 N 41.2044 -3.44684 -6.0097 0
M  V30 411 N 42.9974 -2.6441 -4.96028 0
M  V30 412 H 35.1484 -1.76485 -1.18181 0
M  V30 413 H 37.4114 -0.751199 -0.578276 0
M  V30 414 H 37.1174 -2.38634 -2.58354 0
M  V30 415 H 36.9914 -0.990618 -3.6396 0
M  V30 416 H 39.3784 -0.290911 -2.93663 0
M  V30 417 H 39.4594 -1.71866 -1.89461 0
M  V30 418 H 39.1034 -3.20445 -3.94052 0
M  V30 419 H 39.0334 -1.74989 -4.96675 0
M  V30 420 H 41.5244 -1.62923 -3.40976 0
M  V30 421 H 41.8374 -3.88501 -6.68047 0
M  V30 422 H 40.1824 -3.48788 -6.01142 0
M  V30 423 H 43.3734 -2.0938 -4.18662 0
M  V30 424 H 43.5464 -3.12225 -5.6782 0
M  V30 425 N 36.9525 1.47285 -0.560781 0
M  V30 426 C 37.8855 2.27009 0.232821 0
M  V30 427 C 38.8635 1.34273 0.917039 0
M  V30 428 O 40.0475 1.63659 0.935315 0
M  V30 429 C 37.1745 3.11406 1.33206 0
M  V30 430 C 36.2205 4.19746 0.756019 0
M  V30 431 S 37.0535 5.34003 -0.400165 0
M  V30 432 C 38.2095 6.21964 0.700805 0
M  V30 433 H 38.4425 2.93971 -0.443683 0
M  V30 434 H 35.9755 1.50446 -0.347181 0
M  V30 435 H 37.9335 3.60601 1.96156 0
M  V30 436 H 36.5945 2.438 1.98041 0
M  V30 437 H 35.7875 4.78541 1.5816 0
M  V30 438 H 35.3895 3.73451 0.202619 0
M  V30 439 H 37.6815 6.58529 1.59202 0
M  V30 440 H 38.6245 7.07941 0.150126 0
M  V30 441 H 39.0325 5.5566 0.995083 0
M  V30 442 N 38.4306 0.297415 1.54768 0
M  V30 443 C 39.3806 -0.595275 2.20092 0
M  V30 444 C 40.3646 -1.10163 1.17273 0
M  V30 445 O 41.5566 -1.043 1.43006 0
M  V30 446 C 38.6856 -1.7684 2.94249 0
M  V30 447 C 37.7716 -1.27818 4.0438 0
M  V30 448 N 38.1626 -0.505695 5.03266 0
M  V30 449 C 36.4606 -1.55923 4.17857 0
M  V30 450 C 37.1616 -0.245094 5.81183 0
M  V30 451 N 36.1376 -0.823881 5.3732 0
M  V30 452 H 39.9396 0.00250837 2.939 0
M  V30 453 H 37.4536 0.102007 1.62079 0
M  V30 454 H 39.4506 -2.41944 3.39513 0
M  V30 455 H 38.1106 -2.36992 2.21957 0
M  V30 456 H 39.1216 -0.150928 5.1768 0
M  V30 457 H 35.7986 -2.16849 3.56767 0
M  V30 458 H 37.1886 0.375084 6.70852 0
M  V30 459 N 39.9087 -1.5758 0.0250728 0
M  V30 460 C 41.1547 -1.92746 -0.649648 0
M  V30 461 C 41.5097 -0.901588 -1.69968 0
M  V30 462 O 40.8027 0.0829251 -1.9142 0
M  V30 463 C 40.9967 -3.32421 -1.31268 0
M  V30 464 C 40.8257 -4.48499 -0.328394 0
M  V30 465 C 39.5957 -5.05251 0.070284 0
M  V30 466 C 41.7937 -5.12618 0.415665 0
M  V30 467 N 39.7757 -6.04851 1.05016 0
M  V30 468 C 41.1467 -6.0728 1.24943 0
M  V30 469 C 43.2017 -4.95612 0.476803 0
M  V30 470 C 41.9047 -6.86766 2.1388 0
M  V30 471 C 43.9307 -5.75703 1.3535 0
M  V30 472 C 43.2927 -6.69978 2.17504 0
M  V30 473 H 39.3917 -0.753231 -0.210159 0
M  V30 474 H 41.9757 -1.94486 0.0912999 0
M  V30 475 H 40.1467 -3.31508 -2.02379 0
M  V30 476 H 41.8787 -3.54946 -1.94411 0
M  V30 477 H 38.6337 -4.72628 -0.303323 0
M  V30 478 H 39.0577 -6.5934 1.53622 0
M  V30 479 H 43.6997 -4.22554 -0.144105 0
M  V30 480 H 41.4177 -7.59132 2.77027 0
M  V30 481 H 45.0037 -5.64579 1.40504 0
M  V30 482 H 43.8837 -7.30873 2.84244 0
M  V30 483 N 41.3868 0.248026 -1.55636 0
M  V30 484 C 42.7978 0.817177 -1.67866 0
M  V30 485 C 43.1488 1.86069 -0.622322 0
M  V30 486 O 42.2738 2.15157 0.231618 0
M  V30 487 C 42.8688 1.489 -3.04326 0
M  V30 488 C 41.4278 2.00587 -3.185 0
M  V30 489 C 40.5748 0.856573 -2.63739 0
M  V30 490 H 43.5258 0.0238579 -1.58682 0
M  V30 491 H 43.5468 2.35698 -2.98708 0
M  V30 492 H 43.0588 0.729279 -3.81186 0
M  V30 493 H 41.1598 2.79443 -2.4646 0
M  V30 494 H 41.2728 2.20402 -4.25393 0
M  V30 495 H 39.6368 1.25678 -2.21534 0
M  V30 496 H 40.4198 0.109953 -3.43124 0
M  V30 497 N 42.8649 1.48995 0.513639 0
M  V30 498 C 44.1129 1.57531 1.26604 0
M  V30 499 C 44.4339 0.258236 1.93283 0
M  V30 500 O 43.7039 -0.721502 1.8213 0
M  V30 501 H 42.2839 0.580387 0.470276 0
M  V30 502 H 44.9459 1.85552 0.596373 0
M  V30 503 H 44.0419 2.36486 2.03669 0
M  V30 504 N 44.343 -0.763751 1.37857 0
M  V30 505 C 45.759 -1.06542 1.18832 0
M  V30 506 C 45.959 -2.01478 0.0299722 0
M  V30 507 O 45.015 -2.4458 -0.627447 0
M  V30 508 C 46.328 -1.65525 2.51042 0
M  V30 509 C 47.876 -1.77745 2.57635 0
M  V30 510 C 48.351 -2.4014 3.89996 0
M  V30 511 N 49.842 -2.47582 3.91481 0
M  V30 512 C 50.577 -2.96732 4.9065 0
M  V30 513 N 50.073 -3.45993 6.00217 0
M  V30 514 N 51.866 -2.95679 4.78048 0
M  V30 515 H 44.017 -0.133556 2.1198 0
M  V30 516 H 46.28 -0.121879 0.940133 0
M  V30 517 H 45.986 -1.03236 3.36207 0
M  V30 518 H 45.86 -2.64719 2.68707 0
M  V30 519 H 48.247 -2.39164 1.72872 0
M  V30 520 H 48.328 -0.772836 2.43846 0
M  V30 521 H 47.972 -1.79358 4.75177 0
M  V30 522 H 47.902 -3.41223 4.01092 0
M  V30 523 H 50.393 -2.1273 3.12337 0
M  V30 524 H 50.706 -3.81922 6.7183 0
M  V30 525 H 49.051 -3.44077 6.03851 0
M  V30 526 H 52.242 -2.56499 3.91568 0
M  V30 527 H 52.415 -3.33672 5.55488 0
M  V30 528 N 45.8211 -1.22559 -0.990812 0
M  V30 529 C 46.7311 -1.01394 -2.11557 0
M  V30 530 C 47.7471 0.0383962 -1.73958 0
M  V30 531 O 48.9231 -0.154787 -2.00804 0
M  V30 532 C 45.9881 -0.596569 -3.41529 0
M  V30 533 C 45.0491 -1.72276 -3.93217 0
M  V30 534 C 44.2821 -1.32521 -5.16985 0
M  V30 535 O 44.5051 -0.204909 -5.70032 0
M  V30 536 O 43.4391 -2.14247 -5.62478 0
M  V30 537 H 47.2651 -1.95633 -2.32296 0
M  V30 538 H 44.8501 -1.01172 -1.0993 0
M  V30 539 H 46.7321 -0.374263 -4.19735 0
M  V30 540 H 45.4071 0.316939 -3.22145 0
M  V30 541 H 44.3141 -1.99961 -3.16174 0
M  V30 542 H 45.6471 -2.61421 -4.17037 0
M  V30 543 N 47.2992 1.18797 -1.03562 0
M  V30 544 C 48.5452 1.8893 -0.737113 0
M  V30 545 C 48.8782 1.79837 0.732956 0
M  V30 546 O 48.1532 1.19525 1.5344 0
M  V30 547 C 48.4362 3.39607 -1.19745 0
M  V30 548 C 48.2892 3.57537 -2.72924 0
M  V30 549 C 49.6082 4.33069 -0.783526 0
M  V30 550 H 46.7272 0.686057 -0.269249 0
M  V30 551 H 49.3692 1.39797 -1.28673 0
M  V30 552 H 47.5192 3.81583 -0.729855 0
M  V30 553 H 49.1912 3.24688 -3.27682 0
M  V30 554 H 47.4342 3.00363 -3.12993 0
M  V30 555 H 48.1052 4.63238 -3.00191 0
M  V30 556 H 50.5812 3.98846 -1.18581 0
M  V30 557 H 49.4572 5.3707 -1.13343 0
M  V30 558 H 49.7182 4.40986 0.313681 0
M  V30 559 N 48.7773 0.814389 1.34928 0
M  V30 560 C 49.7273 0.202752 2.27097 0
M  V30 561 C 50.7113 -0.62799 1.48139 0
M  V30 562 O 51.9033 -0.483969 1.70255 0
M  V30 563 C 49.0323 -0.64146 3.37254 0
M  V30 564 C 48.1183 0.19944 4.23631 0
M  V30 565 N 48.5093 1.26628 4.89693 0
M  V30 566 C 46.8073 -0.0176433 4.45997 0
M  V30 567 C 47.5083 1.78031 5.53787 0
M  V30 568 N 46.4843 1.08553 5.32651 0
M  V30 569 H 50.2863 1.01893 2.75672 0
M  V30 570 H 47.8003 0.656332 1.48546 0
M  V30 571 H 49.7973 -1.09575 4.02243 0
M  V30 572 H 48.4573 -1.4559 2.9023 0
M  V30 573 H 49.4683 1.64901 4.90946 0
M  V30 574 H 46.1453 -0.800601 4.09752 0
M  V30 575 H 47.5353 2.67236 6.16469 0
M  V30 576 N 50.2554 -1.46986 0.568584 0
M  V30 577 C 51.1654 -2.33942 -0.17555 0
M  V30 578 C 52.1814 -1.48891 -0.90041 0
M  V30 579 O 53.3574 -1.81794 -0.86676 0
M  V30 580 C 50.4224 -3.25811 -1.18524 0
M  V30 581 C 49.4834 -4.26757 -0.466582 0
M  V30 582 C 48.7164 -5.14236 -1.42817 0
M  V30 583 O 48.9394 -5.04379 -2.66379 0
M  V30 584 O 47.8734 -5.94412 -0.946453 0
M  V30 585 H 51.6994 -2.98896 0.538036 0
M  V30 586 H 49.2844 -1.4573 0.329097 0
M  V30 587 H 51.1664 -3.82527 -1.76779 0
M  V30 588 H 49.8414 -2.63471 -1.88055 0
M  V30 589 H 48.7484 -3.73769 0.157451 0
M  V30 590 H 50.0814 -4.91843 0.187485 0
M  V30 591 N 51.7335 -0.305618 -1.54608 0
M  V30 592 C 52.6665 0.610536 -2.19881 0
M  V30 593 C 53.6445 1.1294 -1.16976 0
M  V30 594 O 54.8285 1.19673 -1.45638 0
M  V30 595 C 51.9555 1.83583 -2.84631 0
M  V30 596 C 51.0015 1.4498 -4.01102 0
M  V30 597 S 51.8345 0.501793 -5.33144 0
M  V30 598 C 52.9905 1.73478 -6.01379 0
M  V30 599 H 53.2235 0.0560177 -2.97247 0
M  V30 600 H 50.7565 -0.0897434 -1.54139 0
M  V30 601 H 52.7145 2.53898 -3.22562 0
M  V30 602 H 51.3755 2.36152 -2.07102 0
M  V30 603 H 50.5685 2.36236 -4.45206 0
M  V30 604 H 50.1705 0.826553 -3.64752 0
M  V30 605 H 52.4625 2.67473 -6.22467 0
M  V30 606 H 53.4055 1.33622 -6.95378 0
M  V30 607 H 53.8135 1.9136 -5.31076 0
M  V30 608 N 53.2116 1.57565 -0.0334293 0
M  V30 609 C 54.4366 1.96689 0.657895 0
M  V30 610 C 54.8616 0.910057 1.64619 0
M  V30 611 O 54.2196 -0.128598 1.80843 0
M  V30 612 C 54.2676 3.34905 1.33683 0
M  V30 613 O 53.3716 3.31574 2.45219 0
M  V30 614 H 52.7126 0.641205 0.172489 0
M  V30 615 H 55.2426 2.04372 -0.0965621 0
M  V30 616 H 55.2526 3.71234 1.69262 0
M  V30 617 H 53.9276 4.11366 0.612411 0
M  V30 618 H 52.5046 3.06968 2.11719 0
M  V30 619 N 54.6897 -0.239769 1.55765 0
M  V30 620 C 55.6367 -1.29696 1.90913 0
M  V30 621 C 56.6067 -1.47478 0.764164 0
M  V30 622 O 57.7917 -1.61345 1.01845 0
M  V30 623 C 54.9317 -2.64598 2.21544 0
M  V30 624 C 54.0447 -2.54765 3.48882 0
M  V30 625 C 53.1797 -3.82069 3.69049 0
M  V30 626 C 52.2187 -3.66883 4.89963 0
M  V30 627 N 51.3557 -4.86094 5.06614 0
M  V30 628 H 56.1957 -0.990224 2.81067 0
M  V30 629 H 53.7327 -0.477684 1.39128 0
M  V30 630 H 55.6907 -3.43132 2.3731 0
M  V30 631 H 54.3207 -2.93405 1.34585 0
M  V30 632 H 53.3727 -1.67763 3.41409 0
M  V30 633 H 54.6847 -2.39457 4.37563 0
M  V30 634 H 53.8387 -4.69046 3.84812 0
M  V30 635 H 52.5777 -4.00282 2.78614 0
M  V30 636 H 51.5827 -2.78289 4.74168 0
M  V30 637 H 52.8077 -3.50157 5.81865 0
M  V30 638 H 50.7537 -5.04655 4.19117 0
M  V30 639 H 50.6707 -4.73443 5.89396 0
M  V30 640 H 51.9387 -5.74549 5.26795 0
M  V30 641 N 56.1678 -1.49265 -0.50573 0
M  V30 642 C 57.1148 -1.65585 -1.6078 0
M  V30 643 C 58.0848 -0.497396 -1.58478 0
M  V30 644 O 59.2698 -0.72385 -1.76536 0
M  V30 645 C 56.4098 -1.72408 -2.98948 0
M  V30 646 C 55.5228 -2.99525 -3.11301 0
M  V30 647 C 54.6578 -2.97356 -4.40174 0
M  V30 648 C 53.6968 -4.19074 -4.46143 0
M  V30 649 N 52.8338 -4.14841 -5.66437 0
M  V30 650 H 57.6738 -2.59688 -1.46172 0
M  V30 651 H 55.2108 -1.28761 -0.711261 0
M  V30 652 H 57.1688 -1.74344 -3.79025 0
M  V30 653 H 55.7988 -0.817753 -3.1227 0
M  V30 654 H 54.8508 -3.07222 -2.24318 0
M  V30 655 H 56.1628 -3.89518 -3.11572 0
M  V30 656 H 55.3168 -2.97829 -5.28567 0
M  V30 657 H 54.0558 -2.05133 -4.42461 0
M  V30 658 H 53.0608 -4.1885 -3.56153 0
M  V30 659 H 54.2858 -5.12483 -4.45575 0
M  V30 660 H 52.2318 -3.25453 -5.69575 0
M  V30 661 H 52.1488 -4.98564 -5.68304 0
M  V30 662 H 53.4168 -4.1941 -6.57051 0
M  V30 663 N 57.6459 0.756429 -1.3826 0
M  V30 664 C 58.8939 1.51248 -1.34047 0
M  V30 665 C 59.2149 1.94875 0.0698372 0
M  V30 666 O 58.4849 1.67436 1.01696 0
M  V30 667 H 57.0649 0.561018 -0.493222 0
M  V30 668 H 59.7269 0.899347 -1.7291 0
M  V30 669 H 58.8229 2.40472 -1.98947 0
M  V30 670 N 59.124 1.23083 0.984299 0
M  V30 671 C 60.54 0.992637 1.24975 0
M  V30 672 C 60.74 -0.308618 1.99123 0
M  V30 673 O 59.796 -1.02905 2.30579 0
M  V30 674 C 61.109 2.19698 2.05312 0
M  V30 675 C 62.657 2.24147 2.18465 0
M  V30 676 C 63.132 3.44157 3.02192 0
M  V30 677 N 64.623 3.44372 3.09777 0
M  V30 678 C 65.358 4.33886 3.74874 0
M  V30 679 N 64.854 5.3363 4.41827 0
M  V30 680 N 66.647 4.21639 3.71721 0
M  V30 681 H 58.798 2.06731 0.487453 0
M  V30 682 H 61.061 0.906339 0.277944 0
M  V30 683 H 60.767 3.1411 1.58201 0
M  V30 684 H 60.641 2.20465 3.06064 0
M  V30 685 H 63.028 1.30277 2.64786 0
M  V30 686 H 63.109 2.27415 1.17115 0
M  V30 687 H 62.753 4.38332 2.56568 0
M  V30 688 H 62.683 3.3813 4.03702 0
M  V30 689 H 65.174 2.72201 2.62135 0
M  V30 690 H 65.487 5.98196 4.89266 0
M  V30 691 H 63.832 5.37534 4.40548 0
M  V30 692 H 67.023 3.42962 3.18582 0
M  V30 693 H 67.196 4.91604 4.22173 0
M  V30 694 N 60.6021 -1.18246 1.0419 0
M  V30 695 C 62.0131 -1.69914 0.773698 0
M  V30 696 C 62.3641 -1.83085 -0.705297 0
M  V30 697 O 61.4891 -1.51123 -1.5489 0
M  V30 698 C 62.0841 -3.08619 1.39784 0
M  V30 699 C 60.6431 -3.57494 1.17792 0
M  V30 700 C 59.7901 -2.34013 1.48773 0
M  V30 701 H 62.7411 -1.02904 1.20816 0
M  V30 702 H 62.7621 -3.71958 0.801714 0
M  V30 703 H 62.2741 -2.99001 2.47426 0
M  V30 704 H 60.3751 -3.72406 0.120295 0
M  V30 705 H 60.4881 -4.40852 1.87581 0
M  V30 706 H 58.8521 -2.37986 0.907463 0
M  V30 707 H 59.6351 -2.27013 2.57527 0
M  V30 708 N 62.0802 -0.821533 -1.34494 0
M  V30 709 C 63.0122 -0.199946 -2.28326 0
M  V30 710 C 64.0252 0.609377 -1.50965 0
M  V30 711 O 65.2142 0.439285 -1.7301 0
M  V30 712 C 62.3142 0.738431 -3.30757 0
M  V30 713 C 61.4872 -0.0277632 -4.37391 0
M  V30 714 C 60.5462 0.831332 -5.19591 0
M  V30 715 O 59.5722 0.276822 -5.68526 0
M  V30 716 N 60.7742 2.15132 -5.39165 0
M  V30 717 H 63.5392 -1.00609 -2.82308 0
M  V30 718 H 61.1002 -0.678366 -1.47003 0
M  V30 719 H 63.0922 1.31773 -3.82646 0
M  V30 720 H 61.6622 1.44533 -2.7718 0
M  V30 721 H 60.8822 -0.788359 -3.86236 0
M  V30 722 H 62.1702 -0.555251 -5.05761 0
M  V30 723 H 61.5682 2.62559 -5.01078 0
M  V30 724 H 60.1252 2.6795 -5.94177 0
M  V30 725 N 63.5583 1.46682 -0.576371 0
M  V30 726 C 64.9743 1.57822 -0.237562 0
M  V30 727 C 65.1743 1.57237 1.26011 0
M  V30 728 O 64.2303 1.48596 2.04146 0
M  V30 729 C 65.5433 2.87499 -0.881168 0
M  V30 730 C 67.0913 3.01119 -0.85417 0
M  V30 731 C 67.5663 4.33524 -1.4772 0
M  V30 732 N 69.0573 4.40207 -1.44125 0
M  V30 733 C 69.7923 5.4126 -1.89276 0
M  V30 734 N 69.2883 6.49021 -2.42371 0
M  V30 735 N 71.0813 5.32422 -1.80231 0
M  V30 736 H 63.2323 1.45306 -1.54919 0
M  V30 737 H 65.4953 0.692733 -0.647167 0
M  V30 738 H 65.2013 2.9372 -1.93447 0
M  V30 739 H 65.0753 3.75224 -0.385592 0
M  V30 740 H 67.4623 2.94485 0.190491 0
M  V30 741 H 67.5433 2.14887 -1.3877 0
M  V30 742 H 67.1873 4.40916 -2.52103 0
M  V30 743 H 67.1173 5.1852 -0.918947 0
M  V30 744 H 69.6083 3.62931 -1.05307 0
M  V30 745 H 69.9213 7.2233 -2.74698 0
M  V30 746 H 68.2663 6.49858 -2.46393 0
M  V30 747 H 71.4573 4.47137 -1.38514 0
M  V30 748 H 71.6303 6.11034 -2.15735 0
M  V30 749 N 65.0364 0.313813 1.54444 0
M  V30 750 C 65.9684 -0.590425 2.21465 0
M  V30 751 C 66.9814 -1.08753 1.21147 0
M  V30 752 O 68.1704 -1.00278 1.4767 0
M  V30 753 C 65.2704 -1.82179 2.85769 0
M  V30 754 C 64.4434 -1.46502 4.12136 0
M  V30 755 C 63.5024 -2.55288 4.60124 0
M  V30 756 O 62.5284 -2.19842 5.25032 0
M  V30 757 N 63.7304 -3.86053 4.33525 0
M  V30 758 H 66.4954 -0.0166033 2.99695 0
M  V30 759 H 64.0564 0.136578 1.61323 0
M  V30 760 H 66.0484 -2.54328 3.14801 0
M  V30 761 H 64.6184 -2.30369 2.11303 0
M  V30 762 H 63.8384 -0.575595 3.89975 0
M  V30 763 H 65.1264 -1.20221 4.94393 0
M  V30 764 H 64.5244 -4.17654 3.81552 0
M  V30 765 H 63.0814 -4.54461 4.67235 0
M  V30 766 N 66.5145 -1.57545 0.0417849 0
M  V30 767 C 67.9305 -1.56467 -0.314704 0
M  V30 768 C 68.1305 -1.04859 -1.72066 0
M  V30 769 O 67.1865 -0.700983 -2.42575 0
M  V30 770 C 68.4995 -3.00317 -0.15174 0
M  V30 771 C 70.0475 -3.12201 -0.223553 0
M  V30 772 C 70.5225 -4.57913 -0.0892295 0
M  V30 773 N 72.0135 -4.6297 -0.145808 0
M  V30 774 C 72.7485 -5.73362 -0.0658459 0
M  V30 775 N 72.2445 -6.92769 0.0659282 0
M  V30 776 N 74.0375 -5.6197 -0.12075 0
M  V30 777 H 66.1885 -1.89416 0.961014 0
M  V30 778 H 68.4515 -0.871862 0.372237 0
M  V30 779 H 68.1575 -3.42073 0.817254 0
M  V30 780 H 68.0315 -3.65892 -0.916692 0
M  V30 781 H 70.4185 -2.70349 -1.18301 0
M  V30 782 H 70.4995 -2.49323 0.571994 0
M  V30 783 H 70.1435 -5.00448 0.866867 0
M  V30 784 H 70.0735 -5.18786 -0.903802 0
M  V30 785 H 72.5645 -3.7709 -0.247286 0
M  V30 786 H 72.8775 -7.72707 0.119905 0
M  V30 787 H 71.2225 -6.94927 0.100885 0
M  V30 788 H 74.4135 -4.67572 -0.222187 0
M  V30 789 H 74.5865 -6.47977 -0.0549735 0
M  V30 790 N 67.9926 0.231505 -1.5589 0
M  V30 791 C 69.4086 0.580748 -1.48659 0
M  V30 792 C 69.6086 1.87617 -0.73498 0
M  V30 793 O 68.6646 2.51046 -0.270586 0
M  V30 794 C 69.9776 0.669202 -2.93159 0
M  V30 795 C 71.5256 0.760499 -3.03621 0
M  V30 796 C 72.0006 0.880383 -4.49459 0
M  V30 797 N 73.4916 0.944861 -4.53461 0
M  V30 798 C 74.2266 1.05716 -5.63571 0
M  V30 799 N 73.7226 1.13403 -6.83456 0
M  V30 800 N 75.5156 1.09152 -5.514 0
M  V30 801 H 67.6666 -0.618695 -2.03189 0
M  V30 802 H 69.9296 -0.215728 -0.923128 0
M  V30 803 H 69.6356 -0.212904 -3.51055 0
M  V30 804 H 69.5096 1.5361 -3.44505 0
M  V30 805 H 71.8966 1.63305 -2.45796 0
M  V30 806 H 71.9776 -0.131864 -2.5546 0
M  V30 807 H 71.6216 0.0123284 -5.07899 0
M  V30 808 H 71.5516 1.78802 -4.95316 0
M  V30 809 H 74.0426 0.896176 -3.6712 0
M  V30 810 H 74.3556 1.21921 -7.63122 0
M  V30 811 H 72.7006 1.10333 -6.86186 0
M  V30 812 H 75.8916 1.02805 -4.56671 0
M  V30 813 H 76.0646 1.17558 -6.37247 0
M  V30 814 N 69.4707 1.49531 0.497807 0
M  V30 815 C 70.3807 1.69176 1.62532 0
M  V30 816 C 71.3967 0.5744 1.64246 0
M  V30 817 O 72.5727 0.849497 1.82608 0
M  V30 818 C 69.6377 1.75695 2.98885 0
M  V30 819 C 68.6987 2.9929 3.07773 0
M  V30 820 C 67.9317 3.05488 4.37622 0
M  V30 821 O 68.1547 2.19192 5.26603 0
M  V30 822 O 67.0887 3.9798 4.51548 0
M  V30 823 H 70.9147 2.647 1.48887 0
M  V30 824 H 68.4997 1.3331 0.674441 0
M  V30 825 H 70.3817 1.82317 3.79919 0
M  V30 826 H 69.0567 0.8335 3.12785 0
M  V30 827 H 67.9637 2.98183 2.25915 0
M  V30 828 H 69.2967 3.91125 2.98801 0
M  V30 829 N 70.9488 -0.749086 1.3866 0
M  V30 830 C 72.1948 -1.51056 1.35314 0
M  V30 831 C 72.5278 -1.94121 -0.0553751 0
M  V30 832 O 71.8028 -1.65763 -1.01749 0
M  V30 833 C 72.0858 -2.76003 2.31288 0
M  V30 834 C 71.9388 -2.39047 3.8102 0
M  V30 835 C 73.2578 -3.78046 2.2532 0
M  V30 836 H 70.3768 -0.547972 0.492844 0
M  V30 837 H 73.0188 -0.857628 1.69543 0
M  V30 838 H 71.1688 -3.31716 2.02229 0
M  V30 839 H 72.8408 -1.89074 4.20771 0
M  V30 840 H 71.0838 -1.71449 3.98482 0
M  V30 841 H 71.7548 -3.28462 4.4364 0
M  V30 842 H 74.2308 -3.31884 2.50983 0
M  V30 843 H 73.1068 -4.63159 2.94576 0
M  V30 844 H 73.3678 -4.23957 1.25352 0
M  V30 845 N 72.4269 -1.23603 -0.977757 0
M  V30 846 C 73.3769 -0.986664 -2.05545 0
M  V30 847 C 74.3609 0.0683009 -1.60755 0
M  V30 848 O 75.5529 -0.144162 -1.76412 0
M  V30 849 C 72.6819 -0.582623 -3.3832 0
M  V30 850 C 71.7679 -1.67313 -3.89701 0
M  V30 851 N 72.1589 -2.90394 -4.14132 0
M  V30 852 C 70.4569 -1.54832 -4.18262 0
M  V30 853 C 71.1579 -3.61017 -4.56116 0
M  V30 854 N 70.1339 -2.8854 -4.60701 0
M  V30 855 H 73.9359 -1.92139 -2.22396 0
M  V30 856 H 71.4499 -1.1358 -1.16074 0
M  V30 857 H 73.4469 -0.38524 -4.15116 0
M  V30 858 H 72.1069 0.34503 -3.22862 0
M  V30 859 H 73.1179 -3.26673 -4.01877 0
M  V30 860 H 69.7949 -0.687969 -4.11793 0
M  V30 861 H 71.1849 -4.66544 -4.83514 0
M  V30 862 N 73.905 1.17692 -1.04816 0
M  V30 863 C 74.815 2.25229 -0.65643 0
M  V30 864 C 75.831 1.71018 0.320761 0
M  V30 865 O 77.007 2.00649 0.173805 0
M  V30 866 C 74.072 3.46684 -0.0332629 0
M  V30 867 C 73.133 4.15997 -1.06042 0
M  V30 868 C 72.366 5.31654 -0.466893 0
M  V30 869 O 72.589 5.65777 0.724758 0
M  V30 870 O 71.523 5.89831 -1.1993 0
M  V30 871 H 75.349 2.61016 -1.55255 0
M  V30 872 H 72.934 1.24919 -0.81949 0
M  V30 873 H 74.816 4.20234 0.313256 0
M  V30 874 H 73.491 3.12703 0.836566 0
M  V30 875 H 72.398 3.44482 -1.45886 0
M  V30 876 H 73.731 4.53996 -1.90127 0
M  V30 877 N 75.3831 0.828654 1.34056 0
M  V30 878 C 76.6601 0.341809 1.9259 0
M  V30 879 C 77.0401 -1.17158 1.75605 0
M  V30 880 O 76.3881 -1.98132 1.13824 0
M  V30 881 C 76.5981 0.777453 3.4023 0
M  V30 882 C 77.9461 0.779579 4.17382 0
M  V30 883 O 78.9701 0.7204 3.48839 0
M  V30 884 O 77.8291 0.857996 5.39723 0
M  V30 885 H 74.9231 0.0946085 0.821571 0
M  V30 886 H 77.4691 0.913827 1.42994 0
M  V30 887 H 76.2411 1.8196 3.46419 0
M  V30 888 H 75.8641 0.181444 3.97186 0
M  V30 889 N 76.8612 -1.46375 0.584142 0
M  V30 890 C 77.8242 -2.28784 -0.138108 0
M  V30 891 C 78.8242 -1.38471 -0.817462 0
M  V30 892 O 80.0142 -1.60833 -0.669199 0
M  V30 893 C 77.1462 -3.18892 -1.20503 0
M  V30 894 H 78.3392 -2.94117 0.586127 0
M  V30 895 H 75.8922 -1.52509 0.342171 0
M  V30 896 H 76.6272 -2.58309 -1.96079 0
M  V30 897 H 76.4122 -3.85388 -0.722384 0
M  V30 898 H 77.9022 -3.80914 -1.71155 0
M  V30 899 N 78.3393 -0.321999 -1.54275 0
M  V30 900 C 79.2893 0.560185 -2.21011 0
M  V30 901 C 80.2733 1.08283 -1.19011 0
M  V30 902 O 81.4653 1.02011 -1.44647 0
M  V30 903 C 78.5943 1.72137 -2.97025 0
M  V30 904 C 77.6803 1.21369 -4.06363 0
M  V30 905 N 78.0713 0.425566 -5.04007 0
M  V30 906 C 76.3693 1.49255 -4.20284 0
M  V30 907 C 77.0703 0.152601 -5.815 0
M  V30 908 N 76.0463 0.738294 -5.38563 0
M  V30 909 H 79.8483 -0.049265 -2.93859 0
M  V30 910 H 77.3623 -0.127779 -1.61897 0
M  V30 911 H 79.3593 2.36512 -3.43319 0
M  V30 912 H 78.0193 2.33431 -2.25699 0
M  V30 913 H 79.0303 0.068551 -5.17855 0
M  V30 914 H 75.7073 2.11145 -3.60172 0
M  V30 915 H 77.0973 -0.481764 -6.70171 0
M  V30 916 N 79.8174 1.5752 -0.0501392 0
M  V30 917 C 80.7644 2.1147 0.924603 0
M  V30 918 C 81.7344 1.02182 1.30951 0
M  V30 919 O 82.9194 1.29723 1.39916 0
M  V30 920 C 80.0594 2.66337 2.19451 0
M  V30 921 C 79.1724 3.89708 1.86418 0
M  V30 922 C 78.3074 4.32893 3.07859 0
M  V30 923 C 77.3464 5.48967 2.70742 0
M  V30 924 N 76.4834 5.87211 3.84874 0
M  V30 925 H 81.3234 2.94465 0.457639 0
M  V30 926 H 78.8604 1.45531 0.214266 0
M  V30 927 H 80.8184 2.96247 2.93758 0
M  V30 928 H 79.4484 1.86141 2.63726 0
M  V30 929 H 78.5004 3.66396 1.02264 0
M  V30 930 H 79.8124 4.74074 1.55096 0
M  V30 931 H 78.9664 4.6435 3.90466 0
M  V30 932 H 77.7054 3.47336 3.42358 0
M  V30 933 H 76.7104 5.17183 1.86551 0
M  V30 934 H 77.9354 6.3624 2.37436 0
M  V30 935 H 75.8814 5.04607 4.19175 0
M  V30 936 H 75.7984 6.66266 3.57247 0
M  V30 937 H 77.0664 6.23282 4.68123 0
M  V30 938 N 81.2955 -0.223234 1.56011 0
M  V30 939 C 82.2275 -1.30006 1.88762 0
M  V30 940 C 83.2405 -1.43129 0.775746 0
M  V30 941 O 84.4295 -1.44057 1.05403 0
M  V30 942 C 81.5295 -2.67589 2.07965 0
M  V30 943 C 80.7025 -2.76434 3.38973 0
M  V30 944 C 79.7615 -3.95019 3.47629 0
M  V30 945 O 78.7875 -3.83436 4.20672 0
M  V30 946 N 79.9895 -5.09249 2.78649 0
M  V30 947 H 82.7545 -1.02238 2.81722 0
M  V30 948 H 80.3155 -0.413278 1.56536 0
M  V30 949 H 82.3075 -3.45297 2.11073 0
M  V30 950 H 80.8775 -2.87964 1.21638 0
M  V30 951 H 80.0975 -1.85216 3.47978 0
M  V30 952 H 81.3855 -2.79313 4.25278 0
M  V30 953 H 80.7835 -5.21556 2.19081 0
M  V30 954 H 79.3405 -5.85007 2.8742 0
M  V30 955 N 82.7736 -1.49793 -0.48987 0
M  V30 956 C 84.0196 -1.60078 -1.24511 0
M  V30 957 C 84.3526 -0.291608 -1.91998 0
M  V30 958 O 83.6276 0.705647 -1.81248 0
M  V30 959 C 83.9106 -2.76791 -2.30345 0
M  V30 960 C 83.7636 -4.17535 -1.67286 0
M  V30 961 C 85.0826 -2.89111 -3.31817 0
M  V30 962 H 82.2016 -0.582645 -0.451324 0
M  V30 963 H 84.8436 -1.82117 -0.541612 0
M  V30 964 H 82.9936 -2.5813 -2.90346 0
M  V30 965 H 84.6656 -4.4774 -1.11026 0
M  V30 966 H 82.9086 -4.22665 -0.976577 0
M  V30 967 H 83.5796 -4.95094 -2.44103 0
M  V30 968 H 86.0556 -3.06133 -2.81819 0
M  V30 969 H 84.9316 -3.72433 -4.03219 0
M  V30 970 H 85.1926 -1.9893 -3.94815 0
M  V30 971 N 84.2517 0.741722 -1.39055 0
M  V30 972 C 85.4767 1.53607 -1.39354 0
M  V30 973 C 85.9017 1.88096 0.0116905 0
M  V30 974 O 85.2597 1.5143 0.996924 0
M  V30 975 C 85.3077 2.80441 -2.26682 0
M  V30 976 O 84.4117 3.76088 -1.69208 0
M  V30 977 H 83.7527 0.464142 -0.474835 0
M  V30 978 H 86.2827 0.915665 -1.82967 0
M  V30 979 H 86.2927 3.29246 -2.40959 0
M  V30 980 H 84.9677 2.5467 -3.2881 0
M  V30 981 H 83.5447 3.34833 -1.64138 0
M  V30 982 N 85.7298 1.2412 0.971189 0
M  V30 983 C 87.1408 1.07236 1.52831 0
M  V30 984 C 87.4918 -0.357352 1.92918 0
M  V30 985 O 86.6168 -1.24528 1.76979 0
M  V30 986 C 87.2118 1.94043 2.77728 0
M  V30 987 C 85.7708 1.81394 3.29808 0
M  V30 988 C 84.9178 1.89189 2.02738 0
M  V30 989 H 87.8688 1.37648 0.789864 0
M  V30 990 H 87.8898 1.47066 3.5093 0
M  V30 991 H 87.4018 2.98093 2.4852 0
M  V30 992 H 85.5028 0.801634 3.63874 0
M  V30 993 H 85.6158 2.65294 3.98944 0
M  V30 994 H 83.9798 1.32877 2.17292 0
M  V30 995 H 84.7628 2.94812 1.759 0
M  V30 996 N 87.2079 -1.17134 1.05439 0
M  V30 997 C 88.4569 -1.86791 0.761049 0
M  V30 998 C 88.7699 -1.82072 -0.714795 0
M  V30 999 O 89.9759 -2.47223 -1.12218 0
M  V30 1000 C 88.4319 -3.35166 1.31117 0
M  V30 1001 C 88.0399 -3.48381 2.81664 0
M  V30 1002 C 89.7839 -4.10134 1.09499 0
M  V30 1003 C 87.6909 -4.90793 3.29964 0
M  V30 1004 H 86.6209 -0.699681 0.281002 0
M  V30 1005 H 89.2719 -1.3226 1.27199 0
M  V30 1006 H 87.6539 -3.8925 0.72803 0
M  V30 1007 H 88.8279 -3.04502 3.45855 0
M  V30 1008 H 87.1429 -2.86836 3.01851 0
M  V30 1009 H 89.7399 -5.152 1.43084 0
M  V30 1010 H 90.0829 -4.16287 0.0328772 0
M  V30 1011 H 90.6159 -3.62264 1.64346 0
M  V30 1012 H 87.3549 -4.89816 4.35616 0
M  V30 1013 H 86.8749 -5.35333 2.70516 0
M  V30 1014 H 88.5539 -5.59573 3.24787 0
M  V30 1015 N 88.686 -0.835752 -1.33615 0
M  V30 1016 C 89.616 -0.281739 -2.31794 0
M  V30 1017 C 90.597 0.608833 -1.58831 0
M  V30 1018 O 91.782 0.533035 -1.86741 0
M  V30 1019 C 88.912 0.546612 -3.42971 0
M  V30 1020 C 87.866 -0.247904 -4.27281 0
M  V30 1021 C 87.192 0.704001 -5.30045 0
M  V30 1022 C 88.492 -1.46324 -5.01385 0
M  V30 1023 H 90.186 -1.10206 -2.78379 0
M  V30 1024 H 87.732 -0.531388 -1.33837 0
M  V30 1025 H 89.685 0.944467 -4.1068 0
M  V30 1026 H 88.409 1.40011 -2.95067 0
M  V30 1027 H 87.068 -0.627281 -3.61194 0
M  V30 1028 H 86.716 1.55381 -4.78399 0
M  V30 1029 H 86.416 0.176524 -5.87335 0
M  V30 1030 H 87.94 1.09944 -6.0062 0
M  V30 1031 H 89.354 -1.13871 -5.61877 0
M  V30 1032 H 87.751 -1.92728 -5.6831 0
M  V30 1033 H 88.821 -2.23467 -4.30338 0
M  V30 1034 N 90.1641 1.46063 -0.591896 0
M  V30 1035 C 91.5801 1.57561 -0.254288 0
M  V30 1036 C 91.7801 1.58565 1.24336 0
M  V30 1037 O 90.8361 1.50753 2.02558 0
M  V30 1038 C 92.1491 2.86549 -0.911611 0
M  V30 1039 C 93.6971 3.00197 -0.886059 0
M  V30 1040 C 94.1721 4.31933 -1.5231 0
M  V30 1041 N 95.6631 4.38654 -1.48786 0
M  V30 1042 C 96.3981 5.39222 -1.95006 0
M  V30 1043 N 95.8941 6.46414 -2.49241 0
M  V30 1044 N 97.6871 5.3048 -1.85868 0
M  V30 1045 H 89.8381 1.43655 -1.56451 0
M  V30 1046 H 92.1011 0.68583 -0.654478 0
M  V30 1047 H 91.8071 2.91651 -1.96551 0
M  V30 1048 H 91.6811 3.74794 -0.425368 0
M  V30 1049 H 94.0681 2.9467 0.159246 0
M  V30 1050 H 94.1491 2.13403 -1.41041 0
M  V30 1051 H 93.7931 4.38217 -2.56765 0
M  V30 1052 H 93.7231 5.17516 -0.973891 0
M  V30 1053 H 96.2141 3.61793 -1.09151 0
M  V30 1054 H 96.5271 7.19376 -2.82344 0
M  V30 1055 H 94.8721 6.47208 -2.53272 0
M  V30 1056 H 98.0631 4.45643 -1.43248 0
M  V30 1057 H 98.2361 6.08711 -2.22204 0
M  V30 1058 N 91.6422 0.330177 1.54103 0
M  V30 1059 C 93.0582 -0.0222371 1.59585 0
M  V30 1060 C 93.2582 -1.49902 1.34654 0
M  V30 1061 O 92.3142 -2.25592 1.13421 0
M  V30 1062 C 93.6272 0.401932 2.98002 0
M  V30 1063 C 95.1752 0.353145 3.11001 0
M  V30 1064 C 95.6502 0.752576 4.51775 0
M  V30 1065 N 97.1412 0.706239 4.57784 0
M  V30 1066 C 97.8762 0.987417 5.64834 0
M  V30 1067 N 97.3722 1.33607 6.79795 0
M  V30 1068 N 99.1652 0.91254 5.54643 0
M  V30 1069 H 91.3162 1.29228 1.68564 0
M  V30 1070 H 93.5792 0.525906 0.78875 0
M  V30 1071 H 93.2852 1.4311 3.21267 0
M  V30 1072 H 93.1592 -0.229699 3.765 0
M  V30 1073 H 95.5462 -0.666822 2.87467 0
M  V30 1074 H 95.6272 1.0198 2.34593 0
M  V30 1075 H 95.2712 1.77049 4.76042 0
M  V30 1076 H 95.2012 0.0635409 5.26562 0
M  V30 1077 H 97.6922 0.44889 3.75224 0
M  V30 1078 H 98.0052 1.53582 7.57385 0
M  V30 1079 H 96.3502 1.37439 6.81275 0
M  V30 1080 H 99.5412 0.639601 4.6371 0
M  V30 1081 H 99.7142 1.13503 6.37982 0
M  V30 1082 N 93.1203 -1.57491 0.0584922 0
M  V30 1083 C 94.3453 -1.97711 -0.62652 0
M  V30 1084 C 94.7703 -0.936132 -1.63151 0
M  V30 1085 O 94.1283 0.099811 -1.81025 0
M  V30 1086 C 94.1763 -3.36989 -1.28338 0
M  V30 1087 O 93.2803 -3.35433 -2.39913 0
M  V30 1088 H 92.6213 -0.643868 -0.162266 0
M  V30 1089 H 95.1513 -2.04193 0.129064 0
M  V30 1090 H 95.1613 -3.73879 -1.63335 0
M  V30 1091 H 93.8363 -4.12289 -0.546889 0
M  V30 1092 H 92.4133 -3.10298 -2.06809 0
M  V30 1093 N 94.5984 0.214957 -1.56127 0
M  V30 1094 C 96.0094 0.781386 -1.69562 0
M  V30 1095 C 96.3604 1.84707 -0.66165 0
M  V30 1096 O 95.4854 2.156 0.185927 0
M  V30 1097 C 96.0804 1.42411 -3.07416 0
M  V30 1098 C 94.6394 1.93786 -3.22683 0
M  V30 1099 C 93.7864 0.800438 -2.65496 0
M  V30 1100 H 96.7374 -0.00980633 -1.58697 0
M  V30 1101 H 96.7584 2.29309 -3.0364 0
M  V30 1102 H 96.2704 0.64826 -3.82648 0
M  V30 1103 H 94.3714 2.74152 -2.52332 0
M  V30 1104 H 94.4844 2.1133 -4.29973 0
M  V30 1105 H 92.8484 1.2095 -2.2415 0
M  V30 1106 H 93.6314 0.0371471 -3.4328 0
M  V30 1107 N 96.0765 1.50051 0.48192 0
M  V30 1108 C 97.3535 1.51009 1.2432 0
M  V30 1109 C 97.7335 0.248587 2.09631 0
M  V30 1110 O 97.0815 -0.768409 2.15192 0
M  V30 1111 C 97.2915 2.79981 2.08355 0
M  V30 1112 C 98.6395 3.3022 2.66908 0
M  V30 1113 O 99.6635 2.81228 2.18607 0
M  V30 1114 O 98.5225 4.15595 3.54884 0
M  V30 1115 H 95.6165 0.605239 0.563573 0
M  V30 1116 H 98.1625 1.62332 0.494627 0
M  V30 1117 H 96.9345 3.63275 1.45419 0
M  V30 1118 H 96.5575 2.7161 2.90368 0
M  V30 1119 N 97.5546 -0.734337 1.39446 0
M  V30 1120 C 98.8036 -1.48937 1.36017 0
M  V30 1121 C 99.1166 -1.95557 -0.0409005 0
M  V30 1122 O 100.323 -2.70779 -0.19778 0
M  V30 1123 C 98.7786 -2.69125 2.38955 0
M  V30 1124 C 98.3866 -2.29452 3.8478 0
M  V30 1125 C 100.131 -3.46944 2.44603 0
M  V30 1126 C 98.0376 -3.46366 4.79358 0
M  V30 1127 H 96.9676 -0.559296 0.505672 0
M  V30 1128 H 99.6186 -0.800983 1.65095 0
M  V30 1129 H 98.0006 -3.40041 2.02948 0
M  V30 1130 H 99.1746 -1.66077 4.29831 0
M  V30 1131 H 97.4896 -1.64723 3.82433 0
M  V30 1132 H 100.087 -4.33907 3.12456 0
M  V30 1133 H 100.43 -3.89454 1.47076 0
M  V30 1134 H 100.963 -2.83056 2.79507 0
M  V30 1135 H 97.7016 -3.08905 5.78151 0
M  V30 1136 H 97.2216 -4.08719 4.38986 0
M  V30 1137 H 98.9006 -4.12691 4.98292 0
M  V30 1138 N 99.0327 -1.24633 -0.964593 0
M  V30 1139 C 100.261 -1.11501 -1.74285 0
M  V30 1140 C 100.676 0.332165 -1.85855 0
M  V30 1141 O 100.033 1.22903 -1.34911 0
M  V30 1142 C 100.084 -1.75258 -3.16175 0
M  V30 1143 O 99.8047 -3.14318 -3.05182 0
M  V30 1144 C 101.306 -1.67776 -4.10324 0
M  V30 1145 H 98.5257 -0.389407 -0.546446 0
M  V30 1146 H 101.07 -1.64801 -1.21083 0
M  V30 1147 H 99.2247 -1.25954 -3.66353 0
M  V30 1148 H 99.6387 -3.4551 -3.94618 0
M  V30 1149 H 101.113 -2.17064 -5.0753 0
M  V30 1150 H 101.59 -0.639584 -4.34518 0
M  V30 1151 H 102.196 -2.16522 -3.66058 0
M  V30 1152 N 100.511 1.16574 -1.06058 0
M  V30 1153 C 101.458 2.20883 -0.669263 0
M  V30 1154 C 102.428 1.62729 0.332918 0
M  V30 1155 O 103.613 1.895 0.222346 0
M  V30 1156 C 100.753 3.45049 -0.0593572 0
M  V30 1157 C 99.8658 4.17458 -1.11143 0
M  V30 1158 C 99.0008 5.29135 -0.467916 0
M  V30 1159 C 98.0398 5.93343 -1.50369 0
M  V30 1160 N 97.1768 6.96516 -0.883706 0
M  V30 1161 H 102.017 2.53709 -1.5632 0
M  V30 1162 H 99.5538 1.24616 -0.781625 0
M  V30 1163 H 101.512 4.16033 0.311771 0
M  V30 1164 H 100.142 3.12781 0.797992 0
M  V30 1165 H 99.1938 3.45101 -1.60029 0
M  V30 1166 H 100.506 4.61307 -1.89731 0
M  V30 1167 H 99.6598 6.06684 -0.0436871 0
M  V30 1168 H 98.3988 4.86443 0.349864 0
M  V30 1169 H 97.4038 5.14517 -1.93784 0
M  V30 1170 H 98.6288 6.38114 -2.32352 0
M  V30 1171 H 96.5748 6.55943 -0.086595 0
M  V30 1172 H 96.4918 7.38723 -1.607 0
M  V30 1173 H 97.7598 7.77993 -0.484543 0
M  V30 1174 N 101.989 0.842826 1.3317 0
M  V30 1175 C 103.214 0.453129 2.02389 0
M  V30 1176 C 103.639 -0.939105 1.6298 0
M  V30 1177 O 102.997 -1.61472 0.8244 0
M  V30 1178 C 103.045 0.586094 3.55805 0
M  V30 1179 O 102.149 -0.386029 4.10589 0
M  V30 1180 H 101.49 0.183664 0.638094 0
M  V30 1181 H 104.02 1.13875 1.69981 0
M  V30 1182 H 104.03 0.469209 4.05293 0
M  V30 1183 H 102.705 1.6014 3.83833 0
M  V30 1184 H 101.282 -0.226371 3.72212 0
M  V30 1185 N 103.467 -1.45747 0.599634 0
M  V30 1186 C 104.878 -1.85853 0.177681 0
M  V30 1187 C 105.229 -1.50102 -1.26348 0
M  V30 1188 O 104.354 -0.923905 -1.95686 0
M  V30 1189 C 104.949 -3.37326 0.315688 0
M  V30 1190 C 103.508 -3.76365 -0.0515144 0
M  V30 1191 C 102.655 -2.69722 0.643822 0
M  V30 1192 H 105.606 -1.36661 0.806814 0
M  V30 1193 H 105.627 -3.77778 -0.454321 0
M  V30 1194 H 105.139 -3.63315 1.36468 0
M  V30 1195 H 103.24 -3.55993 -1.09999 0
M  V30 1196 H 103.353 -4.77916 0.336594 0
M  V30 1197 H 101.717 -2.54567 0.0822881 0
M  V30 1198 H 102.5 -2.98549 1.6948 0
M  V30 1199 N 104.945 -0.338344 -1.53925 0
M  V30 1200 C 105.875 0.51328 -2.27789 0
M  V30 1201 C 106.856 1.107 -1.29149 0
M  V30 1202 O 108.041 1.12937 -1.57984 0
M  V30 1203 C 105.171 1.66697 -3.04679 0
M  V30 1204 C 104.125 1.20183 -4.1078 0
M  V30 1205 C 103.451 2.44363 -4.75595 0
M  V30 1206 C 104.751 0.30605 -5.21403 0
M  V30 1207 H 106.445 -0.102883 -2.99223 0
M  V30 1208 H 103.991 -0.0509219 -1.4391 0
M  V30 1209 H 105.944 2.26915 -3.55088 0
M  V30 1210 H 104.668 2.30995 -2.30887 0
M  V30 1211 H 103.327 0.622499 -3.61276 0
M  V30 1212 H 102.975 3.07057 -3.98403 0
M  V30 1213 H 102.675 2.13925 -5.47275 0
M  V30 1214 H 104.199 3.05317 -5.28786 0
M  V30 1215 H 105.613 0.814929 -5.67478 0
M  V30 1216 H 104.01 0.0937929 -6.00027 0
M  V30 1217 H 105.08 -0.65921 -4.80398 0
M  V30 1218 N 106.423 1.57458 -0.0668435 0
M  V30 1219 C 107.651 1.97624 0.612565 0
M  V30 1220 C 108.066 0.94502 1.63447 0
M  V30 1221 O 107.423 -0.0689276 1.8237 0
M  V30 1222 C 107.474 3.37869 1.28555 0
M  V30 1223 O 107.195 4.3704 0.304557 0
M  V30 1224 C 108.696 3.92882 2.05325 0
M  V30 1225 H 105.916 0.650045 0.166381 0
M  V30 1226 H 108.46 2.04035 -0.137782 0
M  V30 1227 H 106.615 3.3256 1.98702 0
M  V30 1228 H 107.029 5.18565 0.786779 0
M  V30 1229 H 108.503 4.93247 2.47812 0
M  V30 1230 H 108.98 3.29156 2.9078 0
M  V30 1231 H 109.586 4.01577 1.40056 0
M  V30 1232 N 107.901 -0.206675 1.56239 0
M  V30 1233 C 108.848 -1.25617 1.93621 0
M  V30 1234 C 109.818 -1.45824 0.795274 0
M  V30 1235 O 111.003 -1.59148 1.05245 0
M  V30 1236 C 108.143 -2.59839 2.27107 0
M  V30 1237 C 107.256 -2.47308 3.54207 0
M  V30 1238 C 106.391 -3.74155 3.7707 0
M  V30 1239 C 105.43 -3.56407 4.97635 0
M  V30 1240 N 104.567 -4.75238 5.1681 0
M  V30 1241 H 109.407 -0.930383 2.83104 0
M  V30 1242 H 106.944 -0.448065 1.4011 0
M  V30 1243 H 108.902 -3.38021 2.44535 0
M  V30 1244 H 107.532 -2.90485 1.40778 0
M  V30 1245 H 106.584 -1.60483 3.4489 0
M  V30 1246 H 107.896 -2.30122 4.42544 0
M  V30 1247 H 107.05 -4.60778 3.94675 0
M  V30 1248 H 105.789 -3.94282 2.87042 0
M  V30 1249 H 104.794 -2.68168 4.79964 0
M  V30 1250 H 106.019 -3.37736 5.89161 0
M  V30 1251 H 103.965 -4.95651 4.29728 0
M  V30 1252 H 103.882 -4.60835 5.99306 0
M  V30 1253 H 105.15 -5.63246 5.38864 0
M  V30 1254 N 109.379 -1.50304 -0.473955 0
M  V30 1255 C 110.604 -1.65175 -1.25427 0
M  V30 1256 C 111.029 -0.333673 -1.85117 0
M  V30 1257 O 110.387 0.702114 -1.67153 0
M  V30 1258 C 110.435 -2.74295 -2.34082 0
M  V30 1259 O 109.539 -2.35349 -3.38651 0
M  V30 1260 H 108.88 -0.551944 -0.369126 0
M  V30 1261 H 111.41 -1.96662 -0.564364 0
M  V30 1262 H 111.42 -2.97285 -2.79438 0
M  V30 1263 H 110.095 -3.69959 -1.90008 0
M  V30 1264 H 108.672 -2.22794 -2.99027 0
M  V30 1265 N 110.857 0.726932 -1.39834 0
M  V30 1266 C 111.767 1.87131 -1.41489 0
M  V30 1267 C 112.783 1.71239 -0.308757 0
M  V30 1268 O 113.959 1.93701 -0.551529 0
M  V30 1269 C 111.024 3.22811 -1.26468 0
M  V30 1270 C 110.085 3.51039 -2.47124 0
M  V30 1271 C 109.318 4.80245 -2.3281 0
M  V30 1272 O 109.541 5.54537 -1.33585 0
M  V30 1273 O 108.475 5.08554 -3.21957 0
M  V30 1274 H 112.301 1.8869 -2.3797 0
M  V30 1275 H 109.886 0.875837 -1.21035 0
M  V30 1276 H 111.768 4.03877 -1.20255 0
M  V30 1277 H 110.443 3.22005 -0.330862 0
M  V30 1278 H 109.35 2.70027 -2.58914 0
M  V30 1279 H 110.683 3.56632 -3.39227 0
M  V30 1280 N 112.336 1.25143 0.95797 0
M  V30 1281 C 113.268 1.01023 2.05735 0
M  V30 1282 C 114.281 -0.0236902 1.62783 0
M  V30 1283 O 115.47 0.21448 1.77207 0
M  V30 1284 C 112.57 0.504595 3.35122 0
M  V30 1285 C 111.743 1.6039 4.06932 0
M  V30 1286 C 110.802 1.09922 5.14591 0
M  V30 1287 O 109.828 1.79293 5.40225 0
M  V30 1288 N 111.03 -0.0612545 5.80468 0
M  V30 1289 H 113.795 1.95683 2.26998 0
M  V30 1290 H 111.356 1.16303 1.12629 0
M  V30 1291 H 113.348 0.151516 4.04416 0
M  V30 1292 H 111.918 -0.347989 3.10657 0
M  V30 1293 H 111.138 2.12872 3.31782 0
M  V30 1294 H 112.426 2.34252 4.51667 0
M  V30 1295 H 111.824 -0.640985 5.62057 0
M  V30 1296 H 110.381 -0.355395 6.5083 0
M  V30 1297 N 113.814 -1.1601 1.06675 0
M  V30 1298 C 114.744 -2.22688 0.702307 0
M  V30 1299 C 115.725 -1.67306 -0.307032 0
M  V30 1300 O 116.91 -1.93352 -0.181305 0
M  V30 1301 C 114.04 -3.47178 0.092038 0
M  V30 1302 C 112.994 -4.15477 1.02777 0
M  V30 1303 C 112.32 -5.33963 0.28061 0
M  V30 1304 C 113.62 -4.66019 2.35846 0
M  V30 1305 H 115.314 -2.53429 1.59419 0
M  V30 1306 H 112.86 -1.21813 0.767961 0
M  V30 1307 H 114.813 -4.21037 -0.174814 0
M  V30 1308 H 113.537 -3.15749 -0.834877 0
M  V30 1309 H 112.196 -3.43549 1.27944 0
M  V30 1310 H 111.844 -4.98788 -0.649545 0
M  V30 1311 H 111.544 -5.806 0.904258 0
M  V30 1312 H 113.068 -6.10596 0.021396 0
M  V30 1313 H 114.482 -5.3144 2.15045 0
M  V30 1314 H 112.879 -5.23293 2.93743 0
M  V30 1315 H 113.949 -3.82023 2.98641 0
M  V30 1316 N 115.292 -0.849877 -1.32721 0
M  V30 1317 C 116.222 -0.306308 -2.31482 0
M  V30 1318 C 117.203 0.591952 -1.59468 0
M  V30 1319 O 118.388 0.513199 -1.87296 0
M  V30 1320 C 115.518 0.510204 -3.43532 0
M  V30 1321 C 114.472 -0.293209 -4.26994 0
M  V30 1322 C 113.798 0.647743 -5.30762 0
M  V30 1323 C 115.098 -1.51634 -4.99804 0
M  V30 1324 H 116.792 -1.13153 -2.77195 0
M  V30 1325 H 114.338 -0.545553 -1.33266 0
M  V30 1326 H 116.291 0.900856 -4.11658 0
M  V30 1327 H 115.015 1.36874 -2.96535 0
M  V30 1328 H 113.674 -0.665555 -3.60508 0
M  V30 1329 H 113.322 1.50299 -4.8002 0
M  V30 1330 H 113.022 0.11422 -5.87489 0
M  V30 1331 H 114.546 1.03567 -6.01753 0
M  V30 1332 H 115.96 -1.19824 -5.60638 0
M  V30 1333 H 114.357 -1.98745 -5.66234 0
M  V30 1334 H 115.427 -2.28018 -4.27943 0
M  V30 1335 N 116.77 1.45427 -0.607355 0
M  V30 1336 C 118.186 1.57283 -0.270985 0
M  V30 1337 C 118.386 1.59875 1.22647 0
M  V30 1338 O 117.442 1.52893 2.00948 0
M  V30 1339 C 118.755 2.85566 -0.941952 0
M  V30 1340 C 120.303 2.9924 -0.917849 0
M  V30 1341 C 120.778 4.30293 -1.56882 0
M  V30 1342 N 122.269 4.37051 -1.5343 0
M  V30 1343 C 123.004 5.37123 -2.00715 0
M  V30 1344 N 122.5 6.43734 -2.56084 0
M  V30 1345 N 124.293 5.28479 -1.91484 0
M  V30 1346 H 116.444 1.41988 -1.57966 0
M  V30 1347 H 118.707 0.67885 -0.661715 0
M  V30 1348 H 118.413 2.8955 -1.99633 0
M  V30 1349 H 118.287 3.74322 -0.465096 0
M  V30 1350 H 120.674 2.94822 0.127984 0
M  V30 1351 H 120.755 2.11895 -1.43297 0
M  V30 1352 H 120.399 4.35469 -2.61398 0
M  V30 1353 H 120.329 5.16454 -1.02873 0
M  V30 1354 H 122.82 3.60615 -1.12982 0
M  V30 1355 H 123.133 7.16341 -2.89958 0
M  V30 1356 H 121.478 6.44485 -2.60122 0
M  V30 1357 H 124.669 4.44098 -1.47967 0
M  V30 1358 H 124.842 6.0632 -2.28648 0
M  V30 1359 N 118.248 0.346503 1.53744 0
M  V30 1360 C 119.497 -0.250122 2.00143 0
M  V30 1361 C 119.81 -1.51418 1.23822 0
M  V30 1362 O 121.016 -2.18823 1.60713 0
M  V30 1363 C 119.472 -0.496252 3.56462 0
M  V30 1364 C 119.08 0.752077 4.41642 0
M  V30 1365 C 120.824 -1.05157 4.11269 0
M  V30 1366 C 118.731 0.476583 5.89477 0
M  V30 1367 H 117.661 -0.0972409 0.747703 0
M  V30 1368 H 120.312 0.46229 1.77581 0
M  V30 1369 H 118.694 -1.26944 3.75102 0
M  V30 1370 H 119.868 1.5266 4.34778 0
M  V30 1371 H 118.183 1.22925 3.97842 0
M  V30 1372 H 120.78 -1.27269 5.19333 0
M  V30 1373 H 121.123 -2.00799 3.64672 0
M  V30 1374 H 121.656 -0.339019 3.96353 0
M  V30 1375 H 118.395 1.4028 6.40314 0
M  V30 1376 H 117.915 -0.259794 5.99237 0
M  V30 1377 H 119.594 0.0949315 6.4693 0
M  V30 1378 N 119.726 -1.57421 0.075193 0
M  V30 1379 C 121.003 -1.85029 -0.634329 0
M  V30 1380 C 121.383 -0.968305 -1.87582 0
M  V30 1381 O 120.731 -0.0354749 -2.28472 0
M  V30 1382 C 120.941 -3.35286 -0.968742 0
M  V30 1383 C 122.289 -4.02875 -1.34077 0
M  V30 1384 O 123.313 -3.40051 -1.06037 0
M  V30 1385 O 122.172 -5.13691 -1.86506 0
M  V30 1386 H 119.266 -0.7645 -0.315387 0
M  V30 1387 H 121.812 -1.69366 0.106382 0
M  V30 1388 H 120.584 -3.91203 -0.0871376 0
M  V30 1389 H 120.207 -3.56223 -1.7661 0
M  V30 1390 N 121.204 0.198386 -1.56346 0
M  V30 1391 C 122.481 0.944982 -1.71258 0
M  V30 1392 C 122.861 2.0151 -0.629048 0
M  V30 1393 O 122.209 2.25639 0.360473 0
M  V30 1394 C 122.419 1.5344 -3.1346 0
M  V30 1395 C 123.767 2.01778 -3.73591 0
M  V30 1396 O 124.791 1.63288 -3.16568 0
M  V30 1397 O 123.65 2.72594 -4.73661 0
M  V30 1398 H 120.744 0.442939 -0.69838 0
M  V30 1399 H 123.29 0.188342 -1.68652 0
M  V30 1400 H 122.062 0.762869 -3.83792 0
M  V30 1401 H 121.685 2.35596 -3.20282 0
M  V30 1402 N 122.682 1.50554 0.465978 0
M  V30 1403 C 123.632 1.66177 1.56106 0
M  V30 1404 C 124.616 0.516265 1.52393 0
M  V30 1405 O 125.808 0.770906 1.5933 0
M  V30 1406 C 122.937 1.76396 2.94515 0
M  V30 1407 C 122.023 2.9664 3.03093 0
M  V30 1408 N 122.414 4.20245 2.81474 0
M  V30 1409 C 120.712 2.95304 3.34233 0
M  V30 1410 C 121.413 5.01259 2.95151 0
M  V30 1411 N 120.389 4.35318 3.25576 0
M  V30 1412 H 124.191 2.59434 1.38099 0
M  V30 1413 H 121.705 1.47808 0.6728 0
M  V30 1414 H 123.702 1.85694 3.73261 0
M  V30 1415 H 122.362 0.843017 3.13565 0
M  V30 1416 H 123.373 4.4966 2.56956 0
M  V30 1417 H 120.05 2.12729 3.59239 0
M  V30 1418 H 121.44 6.09564 2.82632 0
M  V30 1419 N 124.16 -0.719506 1.40217 0
M  V30 1420 C 125.437 -1.47221 1.28784 0
M  V30 1421 C 125.817 -2.10883 -0.0956067 0
M  V30 1422 O 125.165 -1.99833 -1.10811 0
M  V30 1423 C 125.375 -2.5111 2.42373 0
M  V30 1424 C 126.723 -3.17053 2.82423 0
M  V30 1425 O 127.747 -2.61429 2.41937 0
M  V30 1426 O 126.606 -4.17742 3.52355 0
M  V30 1427 H 123.7 -0.654491 0.50554 0
M  V30 1428 H 126.246 -0.752014 1.52128 0
M  V30 1429 H 125.018 -2.02556 3.34793 0
M  V30 1430 H 124.641 -3.3067 2.20778 0
M  V30 1431 N 125.638 -1.25649 -0.95132 0
M  V30 1432 C 126.885 -1.10594 -1.69633 0
M  V30 1433 C 127.213 0.352515 -1.91279 0
M  V30 1434 O 126.468 1.27601 -1.4838 0
M  V30 1435 C 126.767 -1.80909 -3.08231 0
M  V30 1436 C 126.433 -3.30825 -3.06375 0
M  V30 1437 C 125.095 -3.71722 -3.05576 0
M  V30 1438 C 127.447 -4.26589 -2.99452 0
M  V30 1439 C 124.775 -5.06788 -2.95606 0
M  V30 1440 C 127.127 -5.61683 -2.91024 0
M  V30 1441 C 125.791 -6.01904 -2.88562 0
M  V30 1442 H 125.061 -0.404691 -0.620731 0
M  V30 1443 H 127.708 -1.55964 -1.11119 0
M  V30 1444 H 126.013 -1.27979 -3.70309 0
M  V30 1445 H 127.71 -1.6671 -3.64704 0
M  V30 1446 H 124.3 -2.98287 -3.07771 0
M  V30 1447 H 128.484 -3.95982 -2.99185 0
M  V30 1448 H 123.74 -5.37126 -2.92071 0
M  V30 1449 H 127.914 -6.35578 -2.84629 0
M  V30 1450 H 125.541 -7.06521 -2.80593 0
M  V30 1451 N 127.117 1.15442 -1.07289 0
M  V30 1452 C 128.342 1.90638 -0.816828 0
M  V30 1453 C 128.767 1.77445 0.624083 0
M  V30 1454 O 128.125 1.10671 1.43602 0
M  V30 1455 C 128.173 3.39008 -1.22906 0
M  V30 1456 O 127.277 4.10701 -0.373975 0
M  V30 1457 H 126.618 0.593555 -0.297638 0
M  V30 1458 H 129.148 1.46198 -1.43134 0
M  V30 1459 H 129.158 3.89801 -1.20497 0
M  V30 1460 H 127.833 3.47929 -2.27856 0
M  V30 1461 H 126.41 3.70046 -0.460499 0
M  V30 1462 N 128.595 0.856903 1.32268 0
M  V30 1463 C 129.528 0.247937 2.26849 0
M  V30 1464 C 130.506 -0.615382 1.50505 0
M  V30 1465 O 131.69 -0.571689 1.79622 0
M  V30 1466 C 128.817 -0.650093 3.32403 0
M  V30 1467 C 127.863 0.140138 4.2627 0
M  V30 1468 S 128.696 1.51004 5.13769 0
M  V30 1469 C 129.852 0.61778 6.22844 0
M  V30 1470 H 130.085 1.04971 2.78152 0
M  V30 1471 H 127.618 0.654665 1.39834 0
M  V30 1472 H 129.576 -1.16256 3.93694 0
M  V30 1473 H 128.237 -1.4257 2.7988 0
M  V30 1474 H 127.43 -0.543945 5.01056 0
M  V30 1475 H 127.032 0.584267 3.69408 0
M  V30 1476 H 129.324 -0.177053 6.77269 0
M  V30 1477 H 130.267 1.33636 6.95375 0
M  V30 1478 H 130.675 0.191124 5.64176 0
M  V30 1479 N 130.073 -1.45103 0.615059 0
M  V30 1480 C 131.489 -1.57137 0.279322 0
M  V30 1481 C 131.689 -1.60523 -1.21797 0
M  V30 1482 O 130.745 -1.53956 -2.00134 0
M  V30 1483 C 132.058 -2.85062 0.957083 0
M  V30 1484 C 133.606 -2.98749 0.933706 0
M  V30 1485 C 134.081 -4.29455 1.59162 0
M  V30 1486 N 135.572 -4.36231 1.55746 0
M  V30 1487 C 136.307 -5.36051 2.0356 0
M  V30 1488 N 135.803 -6.42367 2.59494 0
M  V30 1489 N 137.596 -5.27456 1.94284 0
M  V30 1490 H 129.747 -1.41148 1.58717 0
M  V30 1491 H 132.01 -0.675331 0.665306 0
M  V30 1492 H 131.716 -2.88488 2.01166 0
M  V30 1493 H 131.59 -3.7407 0.48494 0
M  V30 1494 H 133.977 -2.94886 -0.112347 0
M  V30 1495 H 134.058 -2.11132 1.44419 0
M  V30 1496 H 133.702 -4.34077 2.63704 0
M  V30 1497 H 133.632 -5.15901 1.0561 0
M  V30 1498 H 136.123 -3.60011 1.14893 0
M  V30 1499 H 136.436 -7.14793 2.93752 0
M  V30 1500 H 134.781 -6.43097 2.63537 0
M  V30 1501 H 137.972 -4.43308 1.5032 0
M  V30 1502 H 138.145 -6.05099 2.3186 0
M  V30 1503 N 131.551 -0.354651 -1.53558 0
M  V30 1504 C 132.962 0.126902 -1.86268 0
M  V30 1505 C 133.313 1.49075 -1.27558 0
M  V30 1506 O 132.438 2.08105 -0.5934 0
M  V30 1507 C 133.033 0.237046 -3.3797 0
M  V30 1508 C 131.592 0.662842 -3.70518 0
M  V30 1509 C 130.739 -0.196652 -2.76602 0
M  V30 1510 H 133.69 -0.573849 -1.47962 0
M  V30 1511 H 133.711 1.06259 -3.65362 0
M  V30 1512 H 133.223 -0.755725 -3.80671 0
M  V30 1513 H 131.324 1.66424 -3.33367 0
M  V30 1514 H 131.437 0.445034 -4.77029 0
M  V30 1515 H 129.801 0.332763 -2.52517 0
M  V30 1516 H 130.584 -1.18676 -3.22135 0
M  V30 1517 N 133.029 1.57378 -0.0835403 0
M  V30 1518 C 134.277 1.93547 0.581718 0
M  V30 1519 C 134.598 0.96524 1.69435 0
M  V30 1520 O 133.868 0.0153369 1.95894 0
M  V30 1521 H 132.448 0.714521 0.217874 0
M  V30 1522 H 135.11 1.94366 -0.144158 0
M  V30 1523 H 134.206 2.95665 0.999423 0
M  V30 1524 N 134.507 -0.190092 1.56449 0
M  V30 1525 C 135.754 -0.909705 1.80916 0
M  V30 1526 C 136.082 -1.83047 0.657583 0
M  V30 1527 O 135.337 -1.92428 -0.356356 0
M  V30 1528 C 135.636 -1.75382 3.1141 0
M  V30 1529 C 135.302 -0.983606 4.40041 0
M  V30 1530 C 133.964 -0.770967 4.74984 0
M  V30 1531 C 136.316 -0.442024 5.19322 0
M  V30 1532 C 133.644 -0.0053448 5.867 0
M  V30 1533 C 135.996 0.310412 6.31838 0
M  V30 1534 C 134.66 0.534023 6.6536 0
M  V30 1535 H 133.93 -0.332885 0.662019 0
M  V30 1536 H 136.577 -0.175762 1.90692 0
M  V30 1537 H 134.882 -2.55659 2.96893 0
M  V30 1538 H 136.579 -2.31331 3.27547 0
M  V30 1539 H 133.169 -1.15936 4.12622 0
M  V30 1540 H 137.353 -0.593693 4.92736 0
M  V30 1541 H 132.609 0.177825 6.11141 0
M  V30 1542 H 136.783 0.737419 6.92485 0
M  V30 1543 H 134.41 1.12918 7.51767 0
M  V30 1544 N 135.985 -1.50799 -0.457987 0
M  V30 1545 C 137.233 -1.62121 -1.2067 0
M  V30 1546 C 137.554 -0.329793 -1.92191 0
M  V30 1547 O 136.824 0.653409 -1.84682 0
M  V30 1548 H 135.404 -0.597441 -0.448411 0
M  V30 1549 H 138.066 -1.87637 -0.527096 0
M  V30 1550 H 137.162 -2.43882 -1.94751 0
M  V30 1551 N 137.463 0.71206 -1.40597 0
M  V30 1552 C 138.711 1.46907 -1.38791 0
M  V30 1553 C 139.032 1.94998 0.00780391 0
M  V30 1554 O 138.302 1.70587 0.963174 0
M  V30 1555 H 136.882 0.545043 -0.51082 0
M  V30 1556 H 139.544 0.843882 -1.75683 0
M  V30 1557 H 138.64 2.34021 -2.06496 0
M  V30 1558 N 138.941 1.26152 0.944643 0
M  V30 1559 C 140.352 1.10454 1.50522 0
M  V30 1560 C 140.703 -0.31635 1.93633 0
M  V30 1561 O 139.828 -1.20746 1.79581 0
M  V30 1562 C 140.423 1.99891 2.73549 0
M  V30 1563 C 138.982 1.88348 3.25886 0
M  V30 1564 C 138.129 1.93447 1.9868 0
M  V30 1565 H 141.08 1.39292 0.760489 0
M  V30 1566 H 141.101 1.54477 3.47732 0
M  V30 1567 H 140.613 3.03297 2.42141 0
M  V30 1568 H 138.714 0.878636 3.62092 0
M  V30 1569 H 138.827 2.73696 3.93227 0
M  V30 1570 H 137.191 1.37456 2.14425 0
M  V30 1571 H 137.974 2.98476 1.69607 0
M  V30 1572 N 140.419 -1.14872 1.07899 0
M  V30 1573 C 141.382 -2.17986 0.708161 0
M  V30 1574 C 142.382 -1.58775 -0.25442 0
M  V30 1575 O 143.572 -1.74166 -0.034645 0
M  V30 1576 C 140.704 -3.40871 0.0446929 0
M  V30 1577 H 141.897 -2.52306 1.62116 0
M  V30 1578 H 139.45 -1.2943 0.876218 0
M  V30 1579 H 140.185 -3.12124 -0.880281 0
M  V30 1580 H 139.97 -3.8511 0.737091 0
M  V30 1581 H 141.46 -4.17121 -0.19991 0
M  V30 1582 N 141.898 -0.863906 -1.31812 0
M  V30 1583 C 143.147 -0.46801 -1.96195 0
M  V30 1584 C 143.46 0.983474 -1.69077 0
M  V30 1585 O 144.666 1.48523 -2.27273 0
M  V30 1586 C 143.122 -0.785995 -3.51212 0
M  V30 1587 C 142.73 -2.25383 -3.87178 0
M  V30 1588 C 144.474 -0.458274 -4.22019 0
M  V30 1589 C 142.381 -2.51455 -5.3528 0
M  V30 1590 H 141.311 -0.171283 -0.734287 0
M  V30 1591 H 143.962 -1.05597 -1.50072 0
M  V30 1592 H 142.344 -0.127359 -3.95795 0
M  V30 1593 H 143.518 -2.95502 -3.53575 0
M  V30 1594 H 141.833 -2.54698 -3.2942 0
M  V30 1595 H 144.43 -0.630369 -5.30971 0
M  V30 1596 H 144.773 0.600834 -4.11941 0
M  V30 1597 H 145.306 -1.07319 -3.8305 0
M  V30 1598 H 142.045 -3.56025 -5.50387 0
M  V30 1599 H 141.565 -1.85923 -5.70257 0
M  V30 1600 H 143.244 -2.35874 -6.02472 0
M  V30 1601 N 143.376 1.44774 -0.622745 0
M  V30 1602 C 144.787 1.85546 -0.207226 0
M  V30 1603 C 145.138 1.52093 1.23944 0
M  V30 1604 O 144.263 0.95492 1.94191 0
M  V30 1605 C 144.858 3.36781 -0.369313 0
M  V30 1606 C 143.417 3.76399 -0.00836847 0
M  V30 1607 C 142.564 2.68664 -0.686651 0
M  V30 1608 H 145.515 1.3536 -0.828454 0
M  V30 1609 H 145.536 3.78453 0.394162 0
M  V30 1610 H 145.048 3.61098 -1.42231 0
M  V30 1611 H 143.149 3.57698 1.04322 0
M  V30 1612 H 143.262 4.7732 -0.412584 0
M  V30 1613 H 141.626 2.54404 -0.122777 0
M  V30 1614 H 142.409 2.95815 -1.74208 0
M  V30 1615 N 144.854 0.36279 1.53368 0
M  V30 1616 C 146.1 -0.228113 2.01513 0
M  V30 1617 C 146.433 -1.48648 1.2497 0
M  V30 1618 O 145.708 -1.91459 0.342616 0
M  V30 1619 C 145.991 -0.522884 3.56284 0
M  V30 1620 C 145.844 0.74892 4.43521 0
M  V30 1621 C 147.163 -1.32461 4.19693 0
M  V30 1622 H 144.282 -0.0814343 0.732487 0
M  V30 1623 H 146.924 0.48713 1.83649 0
M  V30 1624 H 145.074 -1.1322 3.71636 0
M  V30 1625 H 146.746 1.38648 4.39971 0
M  V30 1626 H 144.989 1.36986 4.11603 0
M  V30 1627 H 145.66 0.497667 5.49752 0
M  V30 1628 H 148.136 -0.809203 4.08156 0
M  V30 1629 H 147.012 -1.49961 5.28018 0
M  V30 1630 H 147.273 -2.33232 3.75573 0
M  V30 1631 N 146.332 -1.57332 0.0918853 0
M  V30 1632 C 147.58 -1.93853 -0.571446 0
M  V30 1633 C 147.901 -0.974212 -1.6892 0
M  V30 1634 O 147.171 -0.0257254 -1.95883 0
M  V30 1635 H 145.751 -0.715666 -0.214082 0
M  V30 1636 H 148.413 -1.94287 0.154464 0
M  V30 1637 H 147.509 -2.96191 -0.983729 0
M  V30 1638 N 147.81 0.181792 -1.56548 0
M  V30 1639 C 149.056 0.901431 -1.81665 0
M  V30 1640 C 149.389 1.82347 -0.668075 0
M  V30 1641 O 148.664 1.91669 0.330615 0
M  V30 1642 C 148.947 1.70618 -3.17115 0
M  V30 1643 C 148.8 0.807964 -4.42484 0
M  V30 1644 C 150.119 2.67605 -3.49393 0
M  V30 1645 H 147.238 0.32627 -0.660846 0
M  V30 1646 H 149.88 0.168134 -1.89255 0
M  V30 1647 H 148.03 2.33133 -3.10775 0
M  V30 1648 H 149.702 0.19649 -4.60881 0
M  V30 1649 H 147.945 0.115411 -4.33646 0
M  V30 1650 H 148.616 1.40632 -5.33785 0
M  V30 1651 H 151.092 2.15218 -3.56118 0
M  V30 1652 H 149.968 3.20985 -4.45264 0
M  V30 1653 H 150.229 3.47298 -2.73563 0
M  V30 1654 N 149.288 1.51039 0.449983 0
M  V30 1655 C 150.565 1.53612 1.21089 0
M  V30 1656 C 150.945 0.292997 2.09057 0
M  V30 1657 O 150.293 -0.72259 2.16774 0
M  V30 1658 C 150.503 2.84337 2.0237 0
M  V30 1659 C 151.851 3.35807 2.59843 0
M  V30 1660 O 152.875 2.85802 2.12593 0
M  V30 1661 O 151.734 4.23029 3.45989 0
M  V30 1662 H 148.828 0.617057 0.550608 0
M  V30 1663 H 151.374 1.63344 0.460082 0
M  V30 1664 H 150.146 3.66278 1.37681 0
M  V30 1665 H 149.769 2.77708 2.84542 0
M  V30 1666 N 150.766 -0.704594 1.40972 0
M  V30 1667 C 152.012 -1.46675 1.40051 0
M  V30 1668 C 152.345 -1.94199 0.00641102 0
M  V30 1669 O 151.62 -1.68916 -0.964235 0
M  V30 1670 C 151.903 -2.68505 2.39952 0
M  V30 1671 C 151.756 -2.26805 3.88432 0
M  V30 1672 C 153.075 -3.70686 2.37233 0
M  V30 1673 H 150.194 -0.532015 0.510028 0
M  V30 1674 H 152.836 -0.803255 1.72185 0
M  V30 1675 H 150.986 -3.25114 2.1268 0
M  V30 1676 H 152.658 -1.75592 4.26574 0
M  V30 1677 H 150.901 -1.58685 4.03734 0
M  V30 1678 H 151.572 -3.14181 4.53866 0
M  V30 1679 H 154.048 -3.23731 2.61415 0
M  V30 1680 H 152.924 -4.53553 3.09162 0
M  V30 1681 H 153.185 -4.19754 1.38777 0
M  V30 1682 N 152.244 -1.26651 -0.937939 0
M  V30 1683 C 153.176 -1.04283 -2.04102 0
M  V30 1684 C 154.189 -0.00221014 -1.628 0
M  V30 1685 O 155.378 -0.242645 -1.76843 0
M  V30 1686 C 152.478 -0.557846 -3.34277 0
M  V30 1687 C 151.651 -1.66843 -4.04329 0
M  V30 1688 C 150.71 -1.18095 -5.12777 0
M  V30 1689 O 149.736 -1.87865 -5.37304 0
M  V30 1690 N 150.938 -0.0311006 -5.80492 0
M  V30 1691 H 153.703 -1.9927 -2.23856 0
M  V30 1692 H 151.264 -1.1808 -1.10764 0
M  V30 1693 H 153.256 -0.215836 -4.04124 0
M  V30 1694 H 151.826 0.298523 -3.11171 0
M  V30 1695 H 151.046 -2.18123 -3.28353 0
M  V30 1696 H 152.334 -2.41408 -4.47883 0
M  V30 1697 H 151.732 0.551486 -5.63005 0
M  V30 1698 H 150.289 0.251809 -6.51313 0
M  V30 1699 N 153.722 1.14298 -1.08507 0
M  V30 1700 C 154.968 1.85633 -0.816581 0
M  V30 1701 C 155.301 1.82784 0.656021 0
M  V30 1702 O 154.576 1.25926 1.48233 0
M  V30 1703 C 154.859 3.34223 -1.34041 0
M  V30 1704 C 154.712 3.45639 -2.87843 0
M  V30 1705 C 156.031 4.29356 -0.9665 0
M  V30 1706 H 153.15 0.67402 -0.298104 0
M  V30 1707 H 155.792 1.34214 -1.34487 0
M  V30 1708 H 153.942 3.78144 -0.89104 0
M  V30 1709 H 155.614 3.10498 -3.41158 0
M  V30 1710 H 153.857 2.86817 -3.25451 0
M  V30 1711 H 154.528 4.50089 -3.19569 0
M  V30 1712 H 157.004 3.93457 -1.35391 0
M  V30 1713 H 155.88 5.3178 -1.3602 0
M  V30 1714 H 156.141 4.41919 0.126362 0
M  V30 1715 N 155.201 0.870884 1.31352 0
M  V30 1716 C 156.111 0.330783 2.32256 0
M  V30 1717 C 157.127 -0.559767 1.6475 0
M  V30 1718 O 158.303 -0.456263 1.96164 0
M  V30 1719 C 155.368 -0.458137 3.4366 0
M  V30 1720 C 154.429 0.460482 4.26823 0
M  V30 1721 C 153.662 -0.290881 5.32907 0
M  V30 1722 O 153.885 -1.51885 5.49806 0
M  V30 1723 O 152.819 0.351732 6.00871 0
M  V30 1724 H 156.645 1.16718 2.80376 0
M  V30 1725 H 154.23 0.634285 1.35267 0
M  V30 1726 H 156.112 -0.905343 4.1156 0
M  V30 1727 H 154.787 -1.27106 2.97701 0
M  V30 1728 H 153.694 0.956207 3.61673 0
M  V30 1729 H 155.027 1.23903 4.7635 0
M  V30 1730 N 156.679 -1.44442 0.630414 0
M  V30 1731 C 157.904 -2.06927 0.139944 0
M  V30 1732 C 158.329 -1.46795 -1.17613 0
M  V30 1733 O 157.687 -0.569144 -1.72135 0
M  V30 1734 C 157.735 -3.6058 0.0379581 0
M  V30 1735 O 156.839 -3.99937 -1.0062 0
M  V30 1736 H 156.18 -0.658608 0.0844483 0
M  V30 1737 H 158.71 -1.85327 0.866891 0
M  V30 1738 H 158.72 -4.07714 -0.152856 0
M  V30 1739 H 157.395 -4.03728 0.998809 0
M  V30 1740 H 155.972 -3.64436 -0.79001 0
M  V30 1741 N 158.157 -0.370918 -1.53173 0
M  V30 1742 C 159.087 0.464847 -2.28826 0
M  V30 1743 C 160.068 1.07936 -1.31468 0
M  V30 1744 O 161.253 1.0956 -1.60344 0
M  V30 1745 C 158.383 1.60196 -3.08147 0
M  V30 1746 C 157.337 1.11443 -4.13237 0
M  V30 1747 C 156.663 2.3422 -4.80672 0
M  V30 1748 C 157.963 0.195384 -5.21934 0
M  V30 1749 H 159.657 -0.166329 -2.98938 0
M  V30 1750 H 157.203 -0.0814359 -1.4377 0
M  V30 1751 H 159.156 2.19332 -3.59822 0
M  V30 1752 H 157.88 2.26045 -2.35735 0
M  V30 1753 H 156.539 0.545727 -3.62515 0
M  V30 1754 H 156.187 2.98537 -4.04827 0
M  V30 1755 H 155.887 2.02269 -5.51689 0
M  V30 1756 H 157.411 2.94032 -5.35143 0
M  V30 1757 H 158.825 0.694375 -5.69079 0
M  V30 1758 H 157.222 -0.0335027 -6.00091 0
M  V30 1759 H 158.292 -0.760961 -4.78892 0
M  V30 1760 N 159.635 1.57281 -0.100228 0
M  V30 1761 C 160.912 1.86014 0.604812 0
M  V30 1762 C 161.292 0.998025 1.86018 0
M  V30 1763 O 160.64 0.0718184 2.28387 0
M  V30 1764 C 160.85 3.36784 0.915278 0
M  V30 1765 C 162.198 4.04957 1.27651 0
M  V30 1766 O 163.222 3.41695 1.00613 0
M  V30 1767 O 162.081 5.16593 1.7831 0
M  V30 1768 H 159.175 0.76942 0.303185 0
M  V30 1769 H 161.721 1.69176 -0.133313 0
M  V30 1770 H 160.493 3.91292 0.0248896 0
M  V30 1771 H 160.116 3.58987 1.70921 0
M  V30 1772 N 161.113 -0.173488 1.56642 0
M  V30 1773 C 162.338 -0.910149 1.86363 0
M  V30 1774 C 162.763 -1.75132 0.686318 0
M  V30 1775 O 162.121 -1.77595 -0.364643 0
M  V30 1776 C 162.169 -1.76447 3.14482 0
M  V30 1777 O 161.273 -2.86584 2.96553 0
M  V30 1778 H 160.614 -0.255086 0.613047 0
M  V30 1779 H 163.144 -0.172283 2.03873 0
M  V30 1780 H 163.154 -2.16483 3.45831 0
M  V30 1781 H 161.829 -1.14658 3.99783 0
M  V30 1782 H 160.406 -2.50146 2.76553 0
M  V30 1783 N 162.591 -1.51276 -0.441967 0
M  V30 1784 C 163.84 -1.6295 -1.18871 0
M  V30 1785 C 164.153 -0.349312 -1.92456 0
M  V30 1786 O 165.359 -0.345355 -2.69295 0
M  V30 1787 C 163.815 -2.87759 -2.16155 0
M  V30 1788 C 163.423 -4.22764 -1.48239 0
M  V30 1789 C 165.167 -3.08788 -2.91291 0
M  V30 1790 C 163.074 -5.38728 -2.4398 0
M  V30 1791 H 162.004 -0.606913 -0.447406 0
M  V30 1792 H 164.655 -1.77739 -0.456205 0
M  V30 1793 H 163.037 -2.66593 -2.92821 0
M  V30 1794 H 164.211 -4.54293 -0.771635 0
M  V30 1795 H 162.526 -4.07575 -0.852741 0
M  V30 1796 H 165.123 -3.92599 -3.63002 0
M  V30 1797 H 165.466 -2.21679 -3.5237 0
M  V30 1798 H 165.999 -3.30272 -2.21733 0
M  V30 1799 H 162.738 -6.28082 -1.87598 0
M  V30 1800 H 162.258 -5.1158 -3.13123 0
M  V30 1801 H 163.937 -5.70489 -3.05207 0
M  V30 1802 N 164.069 0.697108 -1.41344 0
M  V30 1803 C 165.294 1.49096 -1.44171 0
M  V30 1804 C 165.719 1.88038 -0.0481568 0
M  V30 1805 O 165.077 1.54525 0.948243 0
M  V30 1806 C 165.125 2.73088 -2.3549 0
M  V30 1807 O 164.229 3.70514 -1.81088 0
M  V30 1808 H 163.57 0.448801 -0.489361 0
M  V30 1809 H 166.1 0.856992 -1.85787 0
M  V30 1810 H 166.11 3.21413 -2.51312 0
M  V30 1811 H 164.785 2.44081 -3.36745 0
M  V30 1812 H 163.362 3.29441 -1.74708 0
M  V30 1813 N 165.547 1.27147 0.931209 0
M  V30 1814 C 166.457 1.11372 2.06478 0
M  V30 1815 C 167.473 0.044645 1.73943 0
M  V30 1816 O 168.649 0.250417 1.99837 0
M  V30 1817 C 165.714 0.758838 3.38294 0
M  V30 1818 C 164.775 1.90841 3.84549 0
M  V30 1819 C 164.008 1.57036 5.10074 0
M  V30 1820 O 164.231 0.476645 5.68405 0
M  V30 1821 O 163.165 2.40839 5.51616 0
M  V30 1822 H 166.991 2.06493 2.22698 0
M  V30 1823 H 164.576 1.06301 1.04978 0
M  V30 1824 H 166.458 0.574098 4.17471 0
M  V30 1825 H 165.133 -0.162879 3.2329 0
M  V30 1826 H 164.04 2.14819 3.06274 0
M  V30 1827 H 165.373 2.81021 4.04089 0
M  V30 1828 N 167.025 -1.13721 1.09112 0
M  V30 1829 C 168.271 -1.85198 0.826414 0
M  V30 1830 C 168.604 -1.83129 -0.646319 0
M  V30 1831 O 167.879 -1.2671 -1.47563 0
M  V30 1832 C 168.162 -3.33507 1.35812 0
M  V30 1833 C 168.015 -3.44108 2.89672 0
M  V30 1834 C 169.334 -4.28838 0.989256 0
M  V30 1835 H 166.453 -0.67243 0.301675 0
M  V30 1836 H 169.095 -1.33499 1.35197 0
M  V30 1837 H 167.245 -3.77666 0.911082 0
M  V30 1838 H 168.917 -3.08684 3.428 0
M  V30 1839 H 167.16 -2.85087 3.26967 0
M  V30 1840 H 167.831 -4.48388 3.21951 0
M  V30 1841 H 170.307 -3.92734 1.37475 0
M  V30 1842 H 169.183 -5.31051 1.38838 0
M  V30 1843 H 169.444 -4.4198 -0.102924 0
M  V30 1844 N 168.503 -0.877838 -1.30888 0
M  V30 1845 C 169.78 -0.413052 -1.91189 0
M  V30 1846 C 170.16 1.1056 -1.79832 0
M  V30 1847 O 169.508 1.93771 -1.21099 0
M  V30 1848 C 169.718 -0.903191 -3.3711 0
M  V30 1849 C 171.066 -0.93395 -4.14201 0
M  V30 1850 O 172.09 -0.849373 -3.45925 0
M  V30 1851 O 170.949 -1.05772 -5.36167 0
M  V30 1852 H 168.043 -0.125035 -0.817493 0
M  V30 1853 H 170.589 -0.966269 -1.39504 0
M  V30 1854 H 169.361 -1.94692 -3.39427 0
M  V30 1855 H 168.984 -0.328732 -3.96239 0
M  V30 1856 N 169.982 1.44106 -0.638065 0
M  V30 1857 C 170.915 2.27924 0.112161 0
M  V30 1858 C 171.893 1.38945 0.844574 0
M  V30 1859 O 173.077 1.68386 0.847248 0
M  V30 1860 C 170.204 3.18029 1.16512 0
M  V30 1861 C 169.25 4.23163 0.532458 0
M  V30 1862 S 170.083 5.31131 -0.682666 0
M  V30 1863 C 171.239 6.24805 0.37013 0
M  V30 1864 H 171.472 2.91205 -0.598887 0
M  V30 1865 H 169.005 1.48394 -0.426441 0
M  V30 1866 H 170.963 3.70492 1.76766 0
M  V30 1867 H 169.624 2.53955 1.8484 0
M  V30 1868 H 168.817 4.86252 1.32571 0
M  V30 1869 H 168.419 3.74 0.00437644 0
M  V30 1870 H 170.711 6.66042 1.24071 0
M  V30 1871 H 171.654 7.07741 -0.225349 0
M  V30 1872 H 172.062 5.60154 0.699141 0
M  V30 1873 N 171.46 0.379036 1.52974 0
M  V30 1874 C 172.737 -0.263479 1.93817 0
M  V30 1875 C 173.117 -1.65244 1.31368 0
M  V30 1876 O 172.465 -2.23448 0.477856 0
M  V30 1877 C 172.675 -0.300166 3.47707 0
M  V30 1878 C 174.023 -0.534061 4.21228 0
M  V30 1879 O 175.047 -0.38081 3.54159 0
M  V30 1880 O 173.906 -0.833501 5.40106 0
M  V30 1881 H 171 -0.161149 0.811147 0
M  V30 1882 H 173.546 0.432798 1.64088 0
M  V30 1883 H 172.318 0.673138 3.85467 0
M  V30 1884 H 171.941 -1.04179 3.83709 0
M  V30 1885 N 172.938 -1.57226 0.108567 0
M  V30 1886 C 174.185 -1.94833 -0.551943 0
M  V30 1887 C 174.513 -0.991204 -1.67348 0
M  V30 1888 O 173.768 -0.0131878 -1.95696 0
M  V30 1889 C 174.067 -3.38911 -1.13463 0
M  V30 1890 C 173.733 -4.50696 -0.135509 0
M  V30 1891 C 172.395 -4.80998 0.139252 0
M  V30 1892 C 174.747 -5.18333 0.545957 0
M  V30 1893 C 172.075 -5.76259 1.10194 0
M  V30 1894 C 174.427 -6.14627 1.49721 0
M  V30 1895 C 173.091 -6.43327 1.78006 0
M  V30 1896 H 172.361 -0.712944 -0.20197 0
M  V30 1897 H 175.008 -1.90582 0.18726 0
M  V30 1898 H 173.313 -3.39805 -1.95037 0
M  V30 1899 H 175.01 -3.65317 -1.65362 0
M  V30 1900 H 171.6 -4.27087 -0.359846 0
M  V30 1901 H 175.784 -4.95087 0.346842 0
M  V30 1902 H 171.04 -5.96804 1.32795 0
M  V30 1903 H 175.214 -6.66126 2.03099 0
M  V30 1904 H 172.841 -7.1695 2.52759 0
M  V30 1905 N 174.416 0.165178 -1.56732 0
M  V30 1906 C 175.644 0.896218 -1.86482 0
M  V30 1907 C 176.059 1.75555 -0.694675 0
M  V30 1908 O 175.416 1.79379 0.33607 0
M  V30 1909 C 175.467 1.76792 -3.1532 0
M  V30 1910 O 175.188 0.943239 -4.27825 0
M  V30 1911 C 176.689 2.6081 -3.58459 0
M  V30 1912 H 173.909 0.260064 -0.618553 0
M  V30 1913 H 176.453 0.163428 -2.03846 0
M  V30 1914 H 174.608 2.45398 -2.99764 0
M  V30 1915 H 175.022 1.53998 -5.01383 0
M  V30 1916 H 176.496 3.17579 -4.51495 0
M  V30 1917 H 176.973 3.35977 -2.82872 0
M  V30 1918 H 177.579 1.97526 -3.76648 0
M  V30 1919 N 175.894 1.51508 0.433938 0
M  V30 1920 C 176.827 1.67756 1.54704 0
M  V30 1921 C 177.805 0.525127 1.53887 0
M  V30 1922 O 178.989 0.749393 1.72963 0
M  V30 1923 C 176.116 1.69424 2.9328 0
M  V30 1924 C 175.162 2.90673 3.12108 0
M  V30 1925 S 175.995 4.51431 2.88046 0
M  V30 1926 C 177.151 4.55849 4.28897 0
M  V30 1927 H 177.384 2.61904 1.40689 0
M  V30 1928 H 174.917 1.41235 0.62386 0
M  V30 1929 H 176.875 1.7107 3.73156 0
M  V30 1930 H 175.536 0.764464 3.04655 0
M  V30 1931 H 174.729 2.88251 4.13434 0
M  V30 1932 H 174.331 2.86786 2.40062 0
M  V30 1933 H 176.623 4.31699 5.22152 0
M  V30 1934 H 177.566 5.57676 4.36351 0
M  V30 1935 H 177.974 3.85137 4.12711 0
M  V30 1936 N 177.372 -0.689602 1.41712 0
M  V30 1937 C 178.6 -1.47827 1.44758 0
M  V30 1938 C 179.015 -1.88721 0.0545703 0
M  V30 1939 O 178.372 -1.57176 -0.927463 0
M  V30 1940 C 178.423 -2.73698 2.3616 0
M  V30 1941 O 178.144 -2.34524 3.7004 0
M  V30 1942 C 179.645 -3.67389 2.48072 0
M  V30 1943 H 176.865 -0.455357 0.49284 0
M  V30 1944 H 179.409 -0.848574 1.86063 0
M  V30 1945 H 177.564 -3.32891 1.98148 0
M  V30 1946 H 177.978 -3.15701 4.18847 0
M  V30 1947 H 179.452 -4.52475 3.16181 0
M  V30 1948 H 179.929 -4.12284 1.51388 0
M  V30 1949 H 180.535 -3.14097 2.86746 0
M  V30 1950 N 178.85 -1.27639 -0.924453 0
M  V30 1951 C 179.78 -1.13166 -2.04244 0
M  V30 1952 C 180.761 -0.032256 -1.70069 0
M  V30 1953 O 181.946 -0.207328 -1.9309 0
M  V30 1954 C 179.076 -0.781496 -3.38393 0
M  V30 1955 C 178.03 -1.83449 -3.86692 0
M  V30 1956 C 177.356 -1.33822 -5.17683 0
M  V30 1957 C 178.656 -3.23917 -4.09726 0
M  V30 1958 H 180.35 -2.06689 -2.1661 0
M  V30 1959 H 177.896 -0.995136 -1.04082 0
M  V30 1960 H 179.849 -0.667057 -4.16087 0
M  V30 1961 H 178.573 0.189439 -3.2605 0
M  V30 1962 H 177.232 -1.93789 -3.11193 0
M  V30 1963 H 176.88 -0.35665 -5.01734 0
M  V30 1964 H 176.58 -2.04224 -5.50968 0
M  V30 1965 H 178.104 -1.23679 -5.97943 0
M  V30 1966 H 179.518 -3.16559 -4.77978 0
M  V30 1967 H 177.915 -3.92059 -4.54324 0
M  V30 1968 H 178.985 -3.68729 -3.14908 0
M  V30 1969 N 180.328 1.1314 -1.09713 0
M  V30 1970 C 181.558 1.88048 -0.855656 0
M  V30 1971 C 181.966 1.79537 0.596919 0
M  V30 1972 O 181.309 1.16196 1.42282 0
M  V30 1973 C 181.371 3.38314 -1.21589 0
M  V30 1974 C 181.035 3.70605 -2.67397 0
M  V30 1975 C 182.032 3.69596 -3.65643 0
M  V30 1976 C 179.717 4.0017 -3.03593 0
M  V30 1977 C 181.711 3.977 -4.9811 0
M  V30 1978 C 179.398 4.27935 -4.36251 0
M  V30 1979 C 180.396 4.26685 -5.33318 0
M  V30 1980 O 180.084 4.53767 -6.63589 0
M  V30 1981 H 179.816 0.60208 -0.307368 0
M  V30 1982 H 182.37 1.44128 -1.46343 0
M  V30 1983 H 180.6 3.82752 -0.551177 0
M  V30 1984 H 182.289 3.94552 -0.953083 0
M  V30 1985 H 183.055 3.46826 -3.39023 0
M  V30 1986 H 178.934 4.00289 -2.2867 0
M  V30 1987 H 182.478 3.9664 -5.73866 0
M  V30 1988 H 178.375 4.50178 -4.62613 0
M  V30 1989 H 179.143 4.71422 -6.69107 0
M  V30 1990 N 181.806 0.884767 1.30421 0
M  V30 1991 C 182.736 0.367574 2.30589 0
M  V30 1992 C 183.717 -0.549464 1.60981 0
M  V30 1993 O 184.902 -0.46336 1.88591 0
M  V30 1994 C 182.032 -0.418944 3.44764 0
M  V30 1995 C 180.986 0.406316 4.26067 0
M  V30 1996 C 180.312 -0.506793 5.32293 0
M  V30 1997 C 181.612 1.64832 4.95608 0
M  V30 1998 H 183.306 1.20462 2.74097 0
M  V30 1999 H 180.852 0.580695 1.31772 0
M  V30 2000 H 182.805 -0.791395 4.13902 0
M  V30 2001 H 181.529 -1.28964 3.0006 0
M  V30 2002 H 180.188 0.760903 3.58617 0
M  V30 2003 H 179.836 -1.37519 4.83836 0
M  V30 2004 H 179.536 0.0415828 5.87585 0
M  V30 2005 H 181.06 -0.875764 6.04287 0
M  V30 2006 H 182.474 1.34646 5.57264 0
M  V30 2007 H 180.871 2.13688 5.60765 0
M  V30 2008 H 181.941 2.39284 4.21748 0
M  V30 2009 N 183.284 -1.43765 0.645699 0
M  V30 2010 C 184.7 -1.56509 0.312591 0
M  V30 2011 C 184.9 -1.6307 -1.18365 0
M  V30 2012 O 183.956 -1.58167 -1.96824 0
M  V30 2013 C 185.269 -2.82968 1.01733 0
M  V30 2014 C 186.817 -2.96701 0.996865 0
M  V30 2015 C 187.292 -4.25982 1.68236 0
M  V30 2016 N 188.783 -4.32829 1.64964 0
M  V30 2017 C 189.518 -5.31613 2.14885 0
M  V30 2018 N 189.014 -6.36718 2.73061 0
M  V30 2019 N 190.807 -5.23217 2.05428 0
M  V30 2020 H 182.958 -1.3775 1.61675 0
M  V30 2021 H 185.221 -0.661067 0.679481 0
M  V30 2022 H 184.927 -2.84156 2.0724 0
M  V30 2023 H 184.801 -3.72957 0.564177 0
M  V30 2024 H 187.188 -2.95058 -0.0497719 0
M  V30 2025 H 187.269 -2.08022 1.48865 0
M  V30 2026 H 186.913 -4.28386 2.72852 0
M  V30 2027 H 186.843 -5.13545 1.16529 0
M  V30 2028 H 189.334 -3.57493 1.22503 0
M  V30 2029 H 189.647 -7.08401 3.08848 0
M  V30 2030 H 187.992 -6.37362 2.77118 0
M  V30 2031 H 191.183 -4.40019 1.59689 0
M  V30 2032 H 191.356 -6.00045 2.44643 0
M  V30 2033 N 184.763 -0.387143 -1.52771 0
M  V30 2034 C 185.713 0.465942 -2.23188 0
M  V30 2035 C 186.697 1.03138 -1.23496 0
M  V30 2036 O 187.889 0.957845 -1.48843 0
M  V30 2037 C 185.018 1.59384 -3.04059 0
M  V30 2038 C 184.104 1.04024 -4.11144 0
M  V30 2039 N 184.495 0.211416 -5.05358 0
M  V30 2040 C 182.793 1.31295 -4.26237 0
M  V30 2041 C 183.494 -0.0941698 -5.81624 0
M  V30 2042 N 182.47 0.509207 -5.4121 0
M  V30 2043 H 186.272 -0.173856 -2.93385 0
M  V30 2044 H 183.786 -0.19633 -1.61209 0
M  V30 2045 H 185.783 2.21738 -3.53041 0
M  V30 2046 H 184.443 2.23648 -2.35397 0
M  V30 2047 H 185.454 -0.151151 -5.17679 0
M  V30 2048 H 182.131 1.95679 -3.68803 0
M  V30 2049 H 183.521 -0.765572 -6.67524 0
M  V30 2050 N 186.241 1.57166 -0.116904 0
M  V30 2051 C 187.471 1.99184 0.548586 0
M  V30 2052 C 187.879 0.995436 1.60897 0
M  V30 2053 O 187.222 -0.0201293 1.83689 0
M  V30 2054 C 187.284 3.37611 1.23526 0
M  V30 2055 C 186.948 4.55857 0.323077 0
M  V30 2056 C 187.945 5.18056 -0.437476 0
M  V30 2057 C 185.63 5.01751 0.234761 0
M  V30 2058 C 187.624 6.24536 -1.2741 0
M  V30 2059 C 185.311 6.08093 -0.605496 0
M  V30 2060 C 186.309 6.69352 -1.35856 0
M  V30 2061 O 185.997 7.7364 -2.18487 0
M  V30 2062 H 185.729 0.659148 0.149999 0
M  V30 2063 H 188.283 2.0443 -0.199428 0
M  V30 2064 H 186.513 3.29113 2.0303 0
M  V30 2065 H 188.202 3.63932 1.79745 0
M  V30 2066 H 188.968 4.83516 -0.379105 0
M  V30 2067 H 184.847 4.53817 0.810601 0
M  V30 2068 H 188.391 6.72281 -1.86237 0
M  V30 2069 H 184.288 6.42063 -0.665268 0
M  V30 2070 H 185.056 7.90727 -2.11406 0
M  V30 2071 N 187.719 -0.156864 1.56817 0
M  V30 2072 C 188.965 -0.867645 1.83966 0
M  V30 2073 C 189.32 -1.79233 0.699511 0
M  V30 2074 O 188.613 -1.89186 -0.303176 0
M  V30 2075 C 188.807 -1.68737 3.1506 0
M  V30 2076 C 188.636 -0.843548 4.41718 0
M  V30 2077 C 187.406 -0.512994 5.02689 0
M  V30 2078 C 189.604 -0.178416 5.1399 0
M  V30 2079 N 187.586 0.345456 6.12927 0
M  V30 2080 C 188.957 0.540586 6.17639 0
M  V30 2081 C 191.012 -0.0980696 4.97803 0
M  V30 2082 C 189.715 1.33233 7.06853 0
M  V30 2083 C 191.741 0.680387 5.87473 0
M  V30 2084 C 191.103 1.3877 6.90596 0
M  V30 2085 H 187.202 -0.295642 0.723961 0
M  V30 2086 H 189.786 -0.13365 1.94241 0
M  V30 2087 H 187.957 -2.39268 3.0595 0
M  V30 2088 H 189.689 -2.34056 3.30151 0
M  V30 2089 H 186.444 -0.846476 4.65974 0
M  V30 2090 H 186.868 0.765415 6.72659 0
M  V30 2091 H 191.51 -0.630562 4.18071 0
M  V30 2092 H 189.228 1.87612 7.8602 0
M  V30 2093 H 192.814 0.744415 5.77018 0
M  V30 2094 H 191.694 1.9804 7.58782 0
M  V30 2095 N 189.197 -1.51736 -0.425897 0
M  V30 2096 C 190.144 -1.73875 -1.51776 0
M  V30 2097 C 191.114 -0.580702 -1.55618 0
M  V30 2098 O 192.299 -0.81641 -1.72451 0
M  V30 2099 C 189.439 -1.88012 -2.89388 0
M  V30 2100 C 188.552 -3.15606 -2.94986 0
M  V30 2101 C 187.687 -3.20271 -4.23793 0
M  V30 2102 C 186.726 -4.42134 -4.23302 0
M  V30 2103 N 185.863 -4.44284 -5.43651 0
M  V30 2104 H 190.703 -2.67071 -1.32201 0
M  V30 2105 H 188.24 -1.32351 -0.642008 0
M  V30 2106 H 190.198 -1.9419 -3.69251 0
M  V30 2107 H 188.828 -0.98213 -3.07496 0
M  V30 2108 H 187.88 -3.18681 -2.07717 0
M  V30 2109 H 189.192 -4.05486 -2.90486 0
M  V30 2110 H 188.346 -3.25428 -5.12036 0
M  V30 2111 H 187.085 -2.28299 -4.30965 0
M  V30 2112 H 186.09 -4.3714 -3.3345 0
M  V30 2113 H 187.315 -5.35382 -4.17783 0
M  V30 2114 H 185.261 -3.55188 -5.51523 0
M  V30 2115 H 185.178 -5.27988 -5.41078 0
M  V30 2116 H 186.446 -4.53649 -6.33895 0
M  V30 2117 N 190.675 0.682077 -1.42076 0
M  V30 2118 C 191.952 1.43755 -1.32642 0
M  V30 2119 C 192.332 2.11063 0.0396611 0
M  V30 2120 O 191.68 2.02701 1.05474 0
M  V30 2121 C 191.89 2.44596 -2.48946 0
M  V30 2122 C 193.238 3.09454 -2.9073 0
M  V30 2123 O 194.262 2.54922 -2.48783 0
M  V30 2124 O 193.121 4.08253 -3.63307 0
M  V30 2125 H 190.215 0.640857 -0.522715 0
M  V30 2126 H 192.761 0.711415 -1.54068 0
M  V30 2127 H 191.533 1.93609 -3.40046 0
M  V30 2128 H 191.156 3.24701 -2.29467 0
M  V30 2129 N 192.153 1.28127 0.917671 0
M  V30 2130 C 193.063 1.13556 2.05286 0
M  V30 2131 C 194.079 0.0630914 1.73886 0
M  V30 2132 O 195.255 0.271598 1.9956 0
M  V30 2133 C 192.32 0.794676 3.3747 0
M  V30 2134 C 191.381 1.94909 3.82504 0
M  V30 2135 C 190.614 1.62437 5.0838 0
M  V30 2136 O 190.837 0.536905 5.67867 0
M  V30 2137 O 189.771 2.46677 5.4903 0
M  V30 2138 H 193.597 2.08844 2.20495 0
M  V30 2139 H 191.182 1.07409 1.03845 0
M  V30 2140 H 193.064 0.618344 4.16839 0
M  V30 2141 H 191.739 -0.128581 3.23445 0
M  V30 2142 H 190.646 2.18055 3.03978 0
M  V30 2143 H 191.979 2.85291 4.01086 0
M  V30 2144 N 193.631 -1.12557 1.10312 0
M  V30 2145 C 195.047 -1.36036 0.834649 0
M  V30 2146 C 195.247 -1.93946 -0.546539 0
M  V30 2147 O 194.303 -2.16484 -1.29966 0
M  V30 2148 C 195.616 -2.30312 1.9333 0
M  V30 2149 C 197.164 -2.43906 1.9616 0
M  V30 2150 C 197.639 -3.41496 3.05195 0
M  V30 2151 N 199.13 -3.49053 3.04494 0
M  V30 2152 C 199.865 -4.24471 3.85502 0
M  V30 2153 N 199.361 -5.02966 4.76442 0
M  V30 2154 N 201.154 -4.19864 3.73725 0
M  V30 2155 H 193.305 -0.733246 1.99342 0
M  V30 2156 H 195.568 -0.385234 0.866198 0
M  V30 2157 H 195.274 -1.94933 2.92735 0
M  V30 2158 H 195.148 -3.30421 1.81939 0
M  V30 2159 H 197.535 -2.78567 0.973886 0
M  V30 2160 H 197.616 -1.4369 2.11629 0
M  V30 2161 H 197.26 -3.07565 4.04186 0
M  V30 2162 H 197.19 -4.41539 2.86968 0
M  V30 2163 H 199.681 -2.93053 2.38596 0
M  V30 2164 H 199.994 -5.57846 5.34815 0
M  V30 2165 H 198.339 -5.02167 4.80472 0
M  V30 2166 H 201.53 -3.57623 3.02032 0
M  V30 2167 H 201.703 -4.78386 4.37093 0
M  V30 2168 N 195.109 -0.891671 -1.2995 0
M  V30 2169 C 196.039 -0.379797 -2.30391 0
M  V30 2170 C 197.02 0.540919 -1.6127 0
M  V30 2171 O 198.205 0.453352 -1.88834 0
M  V30 2172 C 195.335 0.400654 -3.44981 0
M  V30 2173 C 194.289 -0.428905 -4.25846 0
M  V30 2174 C 193.615 0.478557 -5.32554 0
M  V30 2175 C 194.915 -1.67458 -4.94727 0
M  V30 2176 H 196.609 -1.21914 -2.73454 0
M  V30 2177 H 194.155 -0.587675 -1.31462 0
M  V30 2178 H 196.108 0.769434 -4.14316 0
M  V30 2179 H 194.832 1.27371 -3.0074 0
M  V30 2180 H 193.491 -0.779911 -3.58208 0
M  V30 2181 H 193.139 1.34951 -4.84559 0
M  V30 2182 H 192.839 -0.0727433 -5.87555 0
M  V30 2183 H 194.363 0.843705 -6.04743 0
M  V30 2184 H 195.777 -1.376 -5.56542 0
M  V30 2185 H 194.174 -2.16659 -5.59624 0
M  V30 2186 H 195.244 -2.41518 -4.20473 0
M  V30 2187 N 196.587 1.43421 -0.653314 0
M  V30 2188 C 197.812 2.06678 -0.172846 0
M  V30 2189 C 198.237 1.48648 1.15262 0
M  V30 2190 O 197.595 0.596457 1.71208 0
M  V30 2191 C 197.643 3.60474 -0.0953184 0
M  V30 2192 O 196.747 4.01487 0.942442 0
M  V30 2193 H 196.088 0.657181 -0.0949155 0
M  V30 2194 H 198.618 1.83925 -0.896265 0
M  V30 2195 H 198.628 4.07905 0.0879728 0
M  V30 2196 H 197.303 4.02088 -1.06291 0
M  V30 2197 H 195.88 3.65646 0.731932 0
M  V30 2198 N 198.065 0.39524 1.52563 0
M  V30 2199 C 199.312 -0.185044 2.01653 0
M  V30 2200 C 199.64 -1.46317 1.28146 0
M  V30 2201 O 198.895 -1.9213 0.372074 0
M  V30 2202 C 199.194 -0.493444 3.53977 0
M  V30 2203 C 198.86 0.69384 4.4553 0
M  V30 2204 C 197.522 1.01954 4.70275 0
M  V30 2205 C 199.874 1.48785 4.99512 0
M  V30 2206 C 197.202 2.14069 5.46252 0
M  V30 2207 C 199.554 2.59965 5.76716 0
M  V30 2208 C 198.218 2.93037 5.99738 0
M  V30 2209 H 197.488 -0.0677123 0.7379 0
M  V30 2210 H 200.135 0.533807 1.8391 0
M  V30 2211 H 198.44 -1.29369 3.69825 0
M  V30 2212 H 200.137 -0.955163 3.89458 0
M  V30 2213 H 196.727 0.429987 4.26438 0
M  V30 2214 H 200.911 1.24946 4.80315 0
M  V30 2215 H 196.167 2.40056 5.62302 0
M  V30 2216 H 200.341 3.21887 6.17545 0
M  V30 2217 H 197.968 3.8003 6.58393 0
M  V30 2218 N 199.544 -1.57102 0.125237 0
M  V30 2219 C 200.955 -1.82384 -0.399142 0
M  V30 2220 C 201.306 -1.04276 -1.66195 0
M  V30 2221 O 200.431 -0.281269 -2.14564 0
M  V30 2222 C 201.026 -3.30821 -0.730932 0
M  V30 2223 C 199.585 -3.56762 -1.19992 0
M  V30 2224 C 198.732 -2.7649 -0.211792 0
M  V30 2225 H 201.683 -1.54786 0.350277 0
M  V30 2226 H 201.704 -3.4579 -1.58775 0
M  V30 2227 H 201.216 -3.87643 0.188345 0
M  V30 2228 H 199.317 -3.05305 -2.13588 0
M  V30 2229 H 199.43 -4.65317 -1.14093 0
M  V30 2230 H 197.794 -2.4489 -0.700085 0
M  V30 2231 H 198.577 -3.36073 0.700691 0
M  V30 2232 N 201.022 0.148545 -1.56898 0
M  V30 2233 C 202.247 0.880385 -1.87787 0
M  V30 2234 C 202.672 1.74018 -0.714093 0
M  V30 2235 O 202.03 1.78153 0.336343 0
M  V30 2236 C 202.078 1.71422 -3.17249 0
M  V30 2237 O 201.182 2.8183 -3.01074 0
M  V30 2238 H 200.523 0.245301 -0.617028 0
M  V30 2239 H 203.053 0.139826 -2.04122 0
M  V30 2240 H 203.063 2.10954 -3.49231 0
M  V30 2241 H 201.738 1.08284 -4.01556 0
M  V30 2242 H 200.315 2.45715 -2.80497 0
M  V30 2243 N 202.5 1.5196 0.417844 0
M  V30 2244 C 203.728 1.69426 1.18753 0
M  V30 2245 C 204.143 0.399955 1.84515 0
M  V30 2246 O 203.5 -0.623288 1.71527 0
M  V30 2247 C 203.551 2.82375 2.25714 0
M  V30 2248 O 203.272 4.06793 1.62638 0
M  V30 2249 C 204.773 3.11277 3.15628 0
M  V30 2250 H 201.993 0.568031 0.357186 0
M  V30 2251 H 204.537 1.98475 0.49273 0
M  V30 2252 H 202.692 2.5587 2.90877 0
M  V30 2253 H 203.106 4.69667 2.3348 0
M  V30 2254 H 204.58 3.93843 3.86771 0
M  V30 2255 H 205.057 2.24473 3.77503 0
M  V30 2256 H 205.663 3.39515 2.56144 0
M  V30 2257 N 203.978 -0.674533 1.42435 0
M  V30 2258 C 204.926 -1.80934 1.46169 0
M  V30 2259 C 205.92 -1.66006 0.3374 0
M  V30 2260 O 207.126 -1.72611 0.510425 0
M  V30 2261 H 203.501 -0.596594 0.457798 0
M  V30 2262 H 205.472 -1.74903 2.41767 0
M  V30 2263 C 204.221 -3.19088 1.38123 0
M  V30 2264 H 203.544 -3.31203 2.23931 0
M  V30 2265 H 204.984 -3.9851 1.44797 0
M  V30 2266 C 203.443 -3.36763 0.0960517 0
M  V30 2267 O 203.973 -3.92581 -0.851073 0
M  V30 2268 N 202.179 -2.90597 0.0131186 0
M  V30 2269 H 201.726 -2.45359 0.784639 0
M  V30 2270 H 201.684 -3.028 -0.846133 0
M  V30 2271 N 205.456 -1.28612 -0.910864 0
M  V30 2272 C 206.404 -1.1265 -2.03501 0
M  V30 2273 C 207.398 -0.0450054 -1.6934 0
M  V30 2274 O 208.604 -0.203988 -1.7884 0
M  V30 2275 H 204.979 -0.347639 -0.666822 0
M  V30 2276 H 206.95 -2.07849 -2.14106 0
M  V30 2277 C 205.699 -0.808143 -3.38178 0
M  V30 2278 H 205.022 -1.63231 -3.6496 0
M  V30 2279 H 206.462 -0.736426 -4.17556 0
M  V30 2280 C 204.921 0.488226 -3.33344 0
M  V30 2281 O 205.451 1.51766 -3.71927 0
M  V30 2282 N 203.657 0.490009 -2.86439 0
M  V30 2283 H 203.204 -0.348161 -2.55236 0
M  V30 2284 H 203.162 1.35741 -2.83587 0
M  V30 2285 N 206.934 1.1197 -1.10907 0
M  V30 2286 C 207.864 2.19928 -0.784473 0
M  V30 2287 C 208.845 1.6833 0.244726 0
M  V30 2288 O 210.03 1.93892 0.109418 0
M  V30 2289 C 207.16 3.46597 -0.220827 0
M  V30 2290 C 206.114 4.11376 -1.18127 0
M  V30 2291 C 205.44 5.32554 -0.478594 0
M  V30 2292 C 206.74 4.56945 -2.52979 0
M  V30 2293 H 208.434 2.47337 -1.68715 0
M  V30 2294 H 205.98 1.18879 -0.812642 0
M  V30 2295 H 207.933 4.21396 0.0184278 0
M  V30 2296 H 206.657 3.1863 0.717113 0
M  V30 2297 H 205.316 3.38564 -1.40606 0
M  V30 2298 H 204.964 5.00856 0.463976 0
M  V30 2299 H 204.664 5.76844 -1.11912 0
M  V30 2300 H 206.188 6.10096 -0.248 0
M  V30 2301 H 207.602 5.23093 -2.3462 0
M  V30 2302 H 205.999 5.1203 -3.12962 0
M  V30 2303 H 207.069 3.70676 -3.12614 0
M  V30 2304 N 208.412 0.89855 1.29475 0
M  V30 2305 C 209.637 0.538561 2.00285 0
M  V30 2306 C 210.062 -0.869135 1.66816 0
M  V30 2307 O 209.42 -1.57831 0.892145 0
M  V30 2308 C 209.468 0.736475 3.52999 0
M  V30 2309 O 208.572 -0.211537 4.11857 0
M  V30 2310 H 207.913 0.210563 0.62973 0
M  V30 2311 H 210.443 1.20982 1.64998 0
M  V30 2312 H 210.453 0.640685 4.02938 0
M  V30 2313 H 209.128 1.76276 3.76696 0
M  V30 2314 H 207.705 -0.0682991 3.72837 0
M  V30 2315 N 209.89 -1.43072 0.660911 0
M  V30 2316 C 210.823 -2.28074 -0.0758862 0
M  V30 2317 C 211.801 -1.40271 -0.822362 0
M  V30 2318 O 212.985 -1.69713 -0.820352 0
M  V30 2319 C 210.112 -3.19843 -1.11437 0
M  V30 2320 C 209.158 -4.23957 -0.465069 0
M  V30 2321 S 209.991 -5.29978 0.767078 0
M  V30 2322 C 211.147 -6.25314 -0.270682 0
M  V30 2323 H 211.38 -2.90216 0.645139 0
M  V30 2324 H 208.913 -1.47697 0.449995 0
M  V30 2325 H 210.871 -3.73257 -1.70849 0
M  V30 2326 H 209.532 -2.56863 -1.80776 0
M  V30 2327 H 208.725 -4.88299 -1.24819 0
M  V30 2328 H 208.327 -3.73959 0.0551242 0
M  V30 2329 H 210.619 -6.67932 -1.13459 0
M  V30 2330 H 211.562 -7.07293 0.337916 0
M  V30 2331 H 211.97 -5.61195 -0.609937 0
M  V30 2332 N 211.368 -0.403325 -1.52352 0
M  V30 2333 C 212.596 0.174012 -2.06167 0
M  V30 2334 C 213.011 1.39347 -1.27388 0
M  V30 2335 O 212.368 1.79597 -0.324201 0
M  V30 2336 C 212.419 0.530223 -3.5759 0
M  V30 2337 O 212.14 -0.640806 -4.33388 0
M  V30 2338 C 213.641 1.16192 -4.27802 0
M  V30 2339 H 210.861 0.0229464 -0.670608 0
M  V30 2340 H 213.405 -0.572604 -1.9632 0
M  V30 2341 H 211.56 1.22673 -3.67464 0
M  V30 2342 H 211.974 -0.344851 -5.23365 0
M  V30 2343 H 213.448 1.36141 -5.34948 0
M  V30 2344 H 213.925 2.13335 -3.83907 0
M  V30 2345 H 214.531 0.505775 -4.22282 0
M  V30 2346 N 212.846 1.57033 -0.133567 0
M  V30 2347 C 214.093 1.95686 0.520877 0
M  V30 2348 C 214.421 1.0177 1.6575 0
M  V30 2349 O 213.676 0.0443195 1.9565 0
M  V30 2350 C 213.975 3.40674 1.08057 0
M  V30 2351 C 213.641 4.50855 0.0637899 0
M  V30 2352 C 212.303 4.80716 -0.215757 0
M  V30 2353 C 214.655 5.17398 -0.62835 0
M  V30 2354 C 211.983 5.74433 -1.19348 0
M  V30 2355 C 214.335 6.12167 -1.5948 0
M  V30 2356 C 212.999 6.40414 -1.88218 0
M  V30 2357 H 212.269 0.716067 0.190602 0
M  V30 2358 H 214.916 1.9026 -0.217556 0
M  V30 2359 H 213.221 3.42865 1.89606 0
M  V30 2360 H 214.918 3.67902 1.59529 0
M  V30 2361 H 211.508 4.27605 0.291855 0
M  V30 2362 H 215.692 4.94472 -0.425562 0
M  V30 2363 H 210.948 5.94616 -1.42272 0
M  V30 2364 H 215.122 6.6281 -2.13671 0
M  V30 2365 H 212.749 7.12838 -2.64133 0
M  V30 2366 N 214.325 -0.140222 1.56975 0
M  V30 2367 C 215.602 -0.880769 1.74648 0
M  V30 2368 C 215.982 -1.99036 0.703404 0
M  V30 2369 O 215.33 -2.26821 -0.27648 0
M  V30 2370 C 215.54 -1.417 3.18939 0
M  V30 2371 C 216.888 -1.87774 3.80823 0
M  V30 2372 O 217.912 -1.51427 3.2241 0
M  V30 2373 O 216.771 -2.54827 4.83452 0
M  V30 2374 H 213.865 -0.416713 0.714338 0
M  V30 2375 H 216.411 -0.125618 1.69234 0
M  V30 2376 H 215.183 -0.619902 3.86359 0
M  V30 2377 H 214.806 -2.23546 3.28805 0
M  V30 2378 N 215.803 -1.52179 -0.40978 0
M  V30 2379 C 217.051 -1.65878 -1.15451 0
M  V30 2380 C 217.372 -0.390771 -1.91044 0
M  V30 2381 O 216.642 0.594323 -1.86667 0
M  V30 2382 H 215.222 -0.611405 -0.429177 0
M  V30 2383 H 217.884 -1.89219 -0.467134 0
M  V30 2384 H 216.98 -2.49954 -1.86894 0
M  V30 2385 N 217.281 0.66697 -1.42791 0
M  V30 2386 C 218.697 0.981027 -1.25889 0
M  V30 2387 C 218.897 2.00793 -0.168695 0
M  V30 2388 O 217.953 2.48321 0.45747 0
M  V30 2389 C 219.266 1.47838 -2.61848 0
M  V30 2390 C 220.814 1.59575 -2.69267 0
M  V30 2391 C 221.289 2.12704 -4.05612 0
M  V30 2392 N 222.78 2.20026 -4.07606 0
M  V30 2393 C 223.515 2.62227 -5.09926 0
M  V30 2394 N 223.011 3.03824 -6.22626 0
M  V30 2395 N 224.804 2.62045 -4.97281 0
M  V30 2396 H 216.955 -0.0127891 -2.12396 0
M  V30 2397 H 219.218 0.0568258 -0.946295 0
M  V30 2398 H 218.924 0.798299 -3.4252 0
M  V30 2399 H 218.798 2.45579 -2.86305 0
M  V30 2400 H 221.185 2.26687 -1.88936 0
M  V30 2401 H 221.266 0.60302 -2.48591 0
M  V30 2402 H 220.91 1.46198 -4.86404 0
M  V30 2403 H 220.84 3.12782 -4.23645 0
M  V30 2404 H 223.331 1.90708 -3.2625 0
M  V30 2405 H 223.644 3.34734 -6.96544 0
M  V30 2406 H 221.989 3.01662 -6.26119 0
M  V30 2407 H 225.18 2.28916 -4.08308 0
M  V30 2408 H 225.353 2.94613 -5.77154 0
M  V30 2409 N 218.759 1.29093 0.90403 0
M  V30 2410 C 219.689 1.16401 2.02418 0
M  V30 2411 C 220.67 0.0593085 1.69997 0
M  V30 2412 O 221.855 0.238021 1.92736 0
M  V30 2413 C 218.985 0.835233 3.37107 0
M  V30 2414 C 217.939 1.89578 3.83724 0
M  V30 2415 C 217.265 1.42041 5.15489 0
M  V30 2416 C 218.565 3.30394 4.04521 0
M  V30 2417 H 220.259 2.10109 2.13295 0
M  V30 2418 H 217.805 1.01157 1.02486 0
M  V30 2419 H 219.758 0.733169 4.14973 0
M  V30 2420 H 218.482 -0.137543 3.2631 0
M  V30 2421 H 217.141 1.98715 3.08071 0
M  V30 2422 H 216.789 0.436426 5.01103 0
M  V30 2423 H 216.489 2.12964 5.4765 0
M  V30 2424 H 218.013 1.33176 5.959 0
M  V30 2425 H 219.427 3.24123 4.72882 0
M  V30 2426 H 217.824 3.99237 4.48029 0
M  V30 2427 H 218.894 3.73692 3.09002 0
M  V30 2428 N 220.237 -1.11381 1.11499 0
M  V30 2429 C 221.483 -1.83403 0.865512 0
M  V30 2430 C 221.816 -1.84459 -0.607329 0
M  V30 2431 O 221.091 -1.29811 -1.44842 0
M  V30 2432 C 221.374 -3.30552 1.42855 0
M  V30 2433 C 221.227 -3.37886 2.96906 0
M  V30 2434 C 222.546 -4.26643 1.08 0
M  V30 2435 H 219.665 -0.665879 0.31587 0
M  V30 2436 H 222.307 -1.30601 1.37998 0
M  V30 2437 H 220.457 -3.75648 0.990985 0
M  V30 2438 H 222.129 -3.01343 3.49271 0
M  V30 2439 H 220.372 -2.78088 3.32941 0
M  V30 2440 H 221.043 -4.41458 3.31389 0
M  V30 2441 H 223.519 -3.89729 1.45775 0
M  V30 2442 H 222.395 -5.27986 1.50072 0
M  V30 2443 H 222.656 -4.42099 -0.00915037 0
M  V30 2444 N 221.715 -0.905404 -1.28997 0
M  V30 2445 C 222.662 -0.385892 -2.27551 0
M  V30 2446 C 223.632 0.535113 -1.57244 0
M  V30 2447 O 224.817 0.459119 -1.85194 0
M  V30 2448 C 221.957 0.375461 -3.43051 0
M  V30 2449 C 221.07 -0.577092 -4.28128 0
M  V30 2450 C 220.205 0.201879 -5.30816 0
M  V30 2451 C 219.244 -0.744829 -6.07551 0
M  V30 2452 N 218.381 9.42587e-05 -7.021 0
M  V30 2453 H 223.221 -1.23139 -2.71368 0
M  V30 2454 H 220.758 -0.618542 -1.33463 0
M  V30 2455 H 222.716 0.832992 -4.088 0
M  V30 2456 H 221.346 1.18537 -3.00248 0
M  V30 2457 H 220.398 -1.15315 -3.62501 0
M  V30 2458 H 221.71 -1.30152 -4.8152 0
M  V30 2459 H 220.864 0.720351 -6.02408 0
M  V30 2460 H 219.603 0.959413 -4.7817 0
M  V30 2461 H 218.608 -1.27475 -5.34818 0
M  V30 2462 H 219.833 -1.50178 -6.62286 0
M  V30 2463 H 217.779 0.739791 -6.51815 0
M  V30 2464 H 217.696 -0.664321 -7.53076 0
M  V30 2465 H 218.964 0.498644 -7.77903 0
M  V30 2466 N 223.193 1.4272 -0.668489 0
M  V30 2467 C 224.14 2.30796 0.0137489 0
M  V30 2468 C 225.11 1.4561 0.799177 0
M  V30 2469 O 226.295 1.74453 0.772702 0
M  V30 2470 C 223.435 3.31377 0.963507 0
M  V30 2471 C 222.548 4.31655 0.172569 0
M  V30 2472 C 221.683 5.19312 1.1175 0
M  V30 2473 C 220.722 6.11274 0.317886 0
M  V30 2474 N 219.859 6.91504 1.2152 0
M  V30 2475 H 224.699 2.88585 -0.743161 0
M  V30 2476 H 222.236 1.42154 -0.378226 0
M  V30 2477 H 224.194 3.88214 1.52792 0
M  V30 2478 H 222.824 2.75202 1.68712 0
M  V30 2479 H 221.876 3.76988 -0.508374 0
M  V30 2480 H 223.188 4.96779 -0.448527 0
M  V30 2481 H 222.342 5.80851 1.75206 0
M  V30 2482 H 221.081 4.5435 1.77249 0
M  V30 2483 H 220.086 5.48809 -0.329918 0
M  V30 2484 H 221.311 6.78283 -0.332917 0
M  V30 2485 H 219.257 6.29176 1.85671 0
M  V30 2486 H 219.174 7.53209 0.649036 0
M  V30 2487 H 220.442 7.57535 1.83742 0
M  V30 2488 N 224.671 0.411399 1.52136 0
M  V30 2489 C 225.92 -0.165009 2.01024 0
M  V30 2490 C 226.233 -1.4603 1.30133 0
M  V30 2491 O 227.439 -2.1181 1.69849 0
M  V30 2492 C 225.895 -0.344618 3.58246 0
M  V30 2493 C 225.503 0.938716 4.38055 0
M  V30 2494 C 227.247 -0.876195 4.15359 0
M  V30 2495 C 225.154 0.726172 5.86925 0
M  V30 2496 H 224.084 -0.0654407 0.751155 0
M  V30 2497 H 226.735 0.537192 1.75461 0
M  V30 2498 H 225.117 -1.10921 3.80148 0
M  V30 2499 H 226.291 1.70963 4.27912 0
M  V30 2500 H 224.606 1.39688 3.92271 0
M  V30 2501 H 227.203 -1.05128 5.24263 0
M  V30 2502 H 227.546 -1.85152 3.7286 0
M  V30 2503 H 228.079 -0.170607 3.97434 0
M  V30 2504 H 224.818 1.67312 6.33788 0
M  V30 2505 H 224.338 -0.00540283 5.998 0
M  V30 2506 H 226.017 0.369231 6.45946 0
M  V30 2507 N 226.149 -1.5696 0.141893 0
M  V30 2508 C 227.395 -1.97034 -0.504884 0
M  V30 2509 C 227.75 -1.02518 -1.62812 0
M  V30 2510 O 227.043 -0.0592943 -1.91508 0
M  V30 2511 C 227.237 -3.41242 -1.06249 0
M  V30 2512 C 227.066 -4.497 0.00519653 0
M  V30 2513 C 225.836 -5.03338 0.444873 0
M  V30 2514 C 228.034 -5.08122 0.794767 0
M  V30 2515 N 226.016 -5.95395 1.49593 0
M  V30 2516 C 227.387 -5.96339 1.69645 0
M  V30 2517 C 229.442 -4.9071 0.843122 0
M  V30 2518 C 228.145 -6.69009 2.64233 0
M  V30 2519 C 230.171 -5.64077 1.77681 0
M  V30 2520 C 229.533 -6.51999 2.66603 0
M  V30 2521 H 225.632 -0.766745 -0.153707 0
M  V30 2522 H 228.216 -1.93273 0.235313 0
M  V30 2523 H 226.387 -3.45606 -1.77231 0
M  V30 2524 H 228.119 -3.68389 -1.67546 0
M  V30 2525 H 224.874 -4.73576 0.0480959 0
M  V30 2526 H 225.298 -6.46128 2.02107 0
M  V30 2527 H 229.94 -4.22459 0.169732 0
M  V30 2528 H 227.658 -7.36492 3.32575 0
M  V30 2529 H 231.244 -5.52602 1.81996 0
M  V30 2530 H 230.124 -7.07775 3.37675 0
M  V30 2531 N 227.627 0.131896 -1.57047 0
M  V30 2532 C 228.873 0.843179 -1.84441 0
M  V30 2533 C 229.206 1.80129 -0.725749 0
M  V30 2534 O 228.481 1.92624 0.269469 0
M  V30 2535 C 228.764 1.60442 -3.22382 0
M  V30 2536 C 228.617 0.666782 -4.4483 0
M  V30 2537 C 229.936 2.56354 -3.5773 0
M  V30 2538 H 227.055 0.305081 -0.670891 0
M  V30 2539 H 229.697 0.107839 -1.89694 0
M  V30 2540 H 227.847 2.23128 -3.18035 0
M  V30 2541 H 229.519 0.0497646 -4.61273 0
M  V30 2542 H 227.762 -0.022609 -4.33794 0
M  V30 2543 H 228.433 1.23579 -5.37989 0
M  V30 2544 H 230.909 2.0378 -3.62785 0
M  V30 2545 H 229.785 3.06657 -4.5525 0
M  V30 2546 H 230.046 3.38419 -2.84473 0
M  V30 2547 N 229.106 1.52395 0.401703 0
M  V30 2548 C 230.517 1.58899 0.980202 0
M  V30 2549 C 230.868 0.434032 1.91339 0
M  V30 2550 O 229.993 -0.444619 2.11783 0
M  V30 2551 C 230.588 2.87994 1.78451 0
M  V30 2552 C 229.147 2.96953 2.31292 0
M  V30 2553 C 228.294 2.53903 1.11483 0
M  V30 2554 H 231.245 1.57657 0.18168 0
M  V30 2555 H 231.266 2.73765 2.64259 0
M  V30 2556 H 230.778 3.72035 1.10506 0
M  V30 2557 H 228.879 2.17422 3.02586 0
M  V30 2558 H 228.992 4.01344 2.61649 0
M  V30 2559 H 227.356 2.07925 1.47104 0
M  V30 2560 H 228.139 3.40326 0.450928 0
M  V30 2561 N 230.584 -0.659388 1.43143 0
M  V30 2562 C 231.861 -1.41627 1.34912 0
M  V30 2563 C 232.241 -2.11099 -0.00607785 0
M  V30 2564 O 231.589 -2.04353 -1.02236 0
M  V30 2565 C 231.799 -2.40604 2.52805 0
M  V30 2566 C 233.147 -3.04789 2.95616 0
M  V30 2567 O 234.171 -2.50932 2.52807 0
M  V30 2568 O 233.03 -4.02421 3.69756 0
M  V30 2569 H 230.124 -0.63246 0.532844 0
M  V30 2570 H 232.67 -0.686814 1.5518 0
M  V30 2571 H 231.442 -1.88174 3.43083 0
M  V30 2572 H 231.065 -3.21009 2.34604 0
M  V30 2573 N 232.062 -1.29571 -0.897171 0
M  V30 2574 C 232.995 -1.0924 -2.00354 0
M  V30 2575 C 233.973 -0.00354011 -1.626 0
M  V30 2576 O 235.157 -0.15473 -1.87864 0
M  V30 2577 C 232.284 -0.66352 -3.32137 0
M  V30 2578 C 231.33 -1.75146 -3.88878 0
M  V30 2579 S 232.163 -3.35124 -4.17674 0
M  V30 2580 C 233.319 -2.9411 -5.52494 0
M  V30 2581 H 233.552 -2.02907 -2.17292 0
M  V30 2582 H 231.085 -1.13746 -1.04408 0
M  V30 2583 H 233.043 -0.422791 -4.08317 0
M  V30 2584 H 231.704 0.253588 -3.13075 0
M  V30 2585 H 230.897 -1.40337 -4.84068 0
M  V30 2586 H 230.499 -1.94584 -3.19395 0
M  V30 2587 H 232.791 -2.41312 -6.33068 0
M  V30 2588 H 233.734 -3.88161 -5.9223 0
M  V30 2589 H 234.142 -2.32332 -5.14473 0
M  V30 2590 N 233.54 1.10788 -1.12088 0
M  V30 2591 C 234.787 1.82671 -0.873931 0
M  V30 2592 C 235.115 1.85004 0.600311 0
M  V30 2593 O 234.37 1.30365 1.45957 0
M  V30 2594 C 234.669 3.29294 -1.38926 0
M  V30 2595 C 234.335 3.47113 -2.87791 0
M  V30 2596 C 232.997 3.51684 -3.28439 0
M  V30 2597 C 235.349 3.52808 -3.83635 0
M  V30 2598 C 232.677 3.59513 -4.63646 0
M  V30 2599 C 235.029 3.62169 -5.18668 0
M  V30 2600 C 233.693 3.65003 -5.58864 0
M  V30 2601 H 232.963 0.668441 -0.319794 0
M  V30 2602 H 235.61 1.30613 -1.40045 0
M  V30 2603 H 233.915 3.83894 -0.783122 0
M  V30 2604 H 235.612 3.83416 -1.17443 0
M  V30 2605 H 232.202 3.4423 -2.5535 0
M  V30 2606 H 236.386 3.4853 -3.53328 0
M  V30 2607 H 231.642 3.59987 -4.94185 0
M  V30 2608 H 235.816 3.6552 -5.92763 0
M  V30 2609 H 233.443 3.70822 -6.63623 0
M  V30 2610 N 235.018 0.912232 1.28515 0
M  V30 2611 C 236.265 0.544599 1.95039 0
M  V30 2612 C 236.593 -0.911435 1.71823 0
M  V30 2613 O 235.848 -1.66317 1.03137 0
M  V30 2614 C 236.147 0.798392 3.48368 0
M  V30 2615 C 235.813 2.23374 3.91682 0
M  V30 2616 C 234.475 2.62617 4.03219 0
M  V30 2617 C 236.827 3.16786 4.13879 0
M  V30 2618 C 234.155 3.94429 4.3433 0
M  V30 2619 C 236.507 4.48161 4.46469 0
M  V30 2620 C 235.171 4.8726 4.56217 0
M  V30 2621 H 234.441 0.199283 0.7137 0
M  V30 2622 H 237.088 1.15327 1.52879 0
M  V30 2623 H 235.393 0.106908 3.91654 0
M  V30 2624 H 237.09 0.493141 3.97956 0
M  V30 2625 H 233.68 1.91922 3.83228 0
M  V30 2626 H 237.864 2.87677 4.0442 0
M  V30 2627 H 233.12 4.24426 4.40082 0
M  V30 2628 H 237.294 5.20559 4.62592 0
M  V30 2629 H 234.921 5.89431 4.80078 0
M  V30 2630 N 236.496 -1.42363 0.676048 0
M  V30 2631 C 237.742 -2.0182 0.199125 0
M  V30 2632 C 238.075 -1.53339 -1.19168 0
M  V30 2633 O 237.35 -0.736124 -1.80032 0
M  V30 2634 C 237.633 -3.59331 0.235144 0
M  V30 2635 C 237.486 -4.17989 1.66149 0
M  V30 2636 C 238.805 -4.3813 -0.41595 0
M  V30 2637 H 235.924 -0.733293 0.0738311 0
M  V30 2638 H 238.566 -1.69368 0.86107 0
M  V30 2639 H 236.716 -3.87109 -0.328487 0
M  V30 2640 H 238.388 -4.0116 2.27747 0
M  V30 2641 H 236.631 -3.7377 2.20178 0
M  V30 2642 H 237.302 -5.27126 1.63837 0
M  V30 2643 H 239.778 -4.16051 0.0638529 0
M  V30 2644 H 238.654 -5.47717 -0.360115 0
M  V30 2645 H 238.915 -4.16101 -1.49373 0
M  V30 2646 N 237.974 -0.419461 -1.51915 0
M  V30 2647 C 238.924 0.418496 -2.24126 0
M  V30 2648 C 239.908 1.00495 -1.25656 0
M  V30 2649 O 241.1 0.926058 -1.50842 0
M  V30 2650 C 238.229 1.52899 -3.07371 0
M  V30 2651 C 237.315 0.952797 -4.13258 0
M  V30 2652 N 237.706 0.104175 -5.05693 0
M  V30 2653 C 236.004 1.22224 -4.28926 0
M  V30 2654 C 236.705 -0.21752 -5.81293 0
M  V30 2655 N 235.681 0.394293 -5.42168 0
M  V30 2656 H 239.483 -0.236048 -2.92951 0
M  V30 2657 H 236.997 -0.230481 -1.60756 0
M  V30 2658 H 238.994 2.14199 -3.57665 0
M  V30 2659 H 237.654 2.18605 -2.40088 0
M  V30 2660 H 238.665 -0.260924 -5.17242 0
M  V30 2661 H 235.342 1.87812 -3.72871 0
M  V30 2662 H 236.732 -0.906992 -6.6575 0
M  V30 2663 N 239.452 1.56882 -0.150215 0
M  V30 2664 C 240.677 2.01027 0.510184 0
M  V30 2665 C 241.102 1.02966 1.57415 0
M  V30 2666 O 240.46 0.00590158 1.81299 0
M  V30 2667 C 240.508 3.43899 1.08472 0
M  V30 2668 O 239.612 3.4885 2.19948 0
M  V30 2669 H 238.953 0.652233 0.124451 0
M  V30 2670 H 241.483 2.03093 -0.247894 0
M  V30 2671 H 241.493 3.82766 1.41259 0
M  V30 2672 H 240.168 4.14776 0.305582 0
M  V30 2673 H 238.745 3.21827 1.88366 0
M  V30 2674 N 240.93 -0.123565 1.57115 0
M  V30 2675 C 241.877 -1.15177 2.00007 0
M  V30 2676 C 242.847 -1.41403 0.871454 0
M  V30 2677 O 244.032 -1.53346 1.13533 0
M  V30 2678 C 241.172 -2.47436 2.40561 0
M  V30 2679 C 240.285 -2.28184 3.66819 0
M  V30 2680 C 239.42 -3.53641 3.96373 0
M  V30 2681 C 238.459 -3.29528 5.15827 0
M  V30 2682 N 237.596 -4.47175 5.41275 0
M  V30 2683 H 242.436 -0.779008 2.87638 0
M  V30 2684 H 239.973 -0.373166 1.42288 0
M  V30 2685 H 241.931 -3.24584 2.62109 0
M  V30 2686 H 240.561 -2.82614 1.55978 0
M  V30 2687 H 239.613 -1.41976 3.52912 0
M  V30 2688 H 240.925 -2.0634 4.5412 0
M  V30 2689 H 240.079 -4.39209 4.18545 0
M  V30 2690 H 238.818 -3.78512 3.07538 0
M  V30 2691 H 237.823 -2.42349 4.93505 0
M  V30 2692 H 239.048 -3.06031 6.06236 0
M  V30 2693 H 236.994 -4.72175 4.55397 0
M  V30 2694 H 236.911 -4.28419 6.22891 0
M  V30 2695 H 238.179 -5.3389 5.67963 0
M  V30 2696 N 242.408 -1.52605 -0.393616 0
M  V30 2697 C 243.824 -1.41753 -0.733357 0
M  V30 2698 C 244.024 -0.534293 -1.94287 0
M  V30 2699 O 243.08 -0.0059787 -2.52499 0
M  V30 2700 C 244.393 -2.84531 -0.972772 0
M  V30 2701 C 245.941 -2.93978 -1.07453 0
M  V30 2702 C 246.416 -4.37756 -1.3466 0
M  V30 2703 N 247.907 -4.4106 -1.41492 0
M  V30 2704 C 248.642 -5.49387 -1.642 0
M  V30 2705 N 248.138 -6.67806 -1.8441 0
M  V30 2706 N 249.931 -5.36923 -1.66342 0
M  V30 2707 H 242.082 -2.08555 0.402328 0
M  V30 2708 H 244.345 -0.940654 0.117789 0
M  V30 2709 H 244.051 -3.51353 -0.156204 0
M  V30 2710 H 243.925 -3.26508 -1.88871 0
M  V30 2711 H 246.312 -2.27326 -1.88167 0
M  V30 2712 H 246.393 -2.55435 -0.136605 0
M  V30 2713 H 246.037 -5.04972 -0.544581 0
M  V30 2714 H 245.967 -4.73848 -2.2973 0
M  V30 2715 H 248.458 -3.55705 -1.27601 0
M  V30 2716 H 248.771 -7.46141 -2.01231 0
M  V30 2717 H 247.116 -6.70843 -1.81644 0
M  V30 2718 H 250.307 -4.43381 -1.50102 0
M  V30 2719 H 250.48 -6.21416 -1.837 0
M  V30 2720 N 243.887 0.651787 -1.4349 0
M  V30 2721 C 245.112 1.44434 -1.48841 0
M  V30 2722 C 245.537 1.8779 -0.107955 0
M  V30 2723 O 244.895 1.57464 0.898602 0
M  V30 2724 C 244.943 2.65458 -2.44059 0
M  V30 2725 O 244.047 3.64566 -1.92784 0
M  V30 2726 H 243.388 0.433005 -0.503391 0
M  V30 2727 H 245.918 0.797451 -1.88419 0
M  V30 2728 H 245.928 3.13255 -2.6141 0
M  V30 2729 H 244.603 2.33244 -3.4434 0
M  V30 2730 H 243.18 3.23716 -1.851 0
M  V30 2731 N 245.365 1.30045 0.890287 0
M  V30 2732 C 246.612 1.18561 1.64163 0
M  V30 2733 C 246.94 -0.260852 1.92743 0
M  V30 2734 O 246.195 -1.20376 1.54299 0
M  V30 2735 C 246.494 1.95409 2.99249 0
M  V30 2736 C 246.16 3.45066 2.90242 0
M  V30 2737 C 244.822 3.85878 2.87492 0
M  V30 2738 C 247.174 4.4039 2.78758 0
M  V30 2739 C 244.502 5.20314 2.7109 0
M  V30 2740 C 246.854 5.74928 2.63894 0
M  V30 2741 C 245.518 6.14986 2.59516 0
M  V30 2742 H 244.788 0.433846 0.600715 0
M  V30 2743 H 247.435 1.61088 1.03552 0
M  V30 2744 H 245.74 1.45501 3.63781 0
M  V30 2745 H 247.437 1.8392 3.56334 0
M  V30 2746 H 244.027 3.12631 2.93189 0
M  V30 2747 H 248.211 4.09806 2.79952 0
M  V30 2748 H 243.467 5.50449 2.66112 0
M  V30 2749 H 247.641 6.48434 2.53981 0
M  V30 2750 H 245.268 7.19104 2.46565 0
M  V30 2751 N 246.843 -1.10192 1.12674 0
M  V30 2752 C 248.092 -1.81573 0.8783 0
M  V30 2753 C 248.405 -1.86249 -0.597557 0
M  V30 2754 O 249.611 -2.5386 -0.962681 0
M  V30 2755 C 248.067 -3.26149 1.52167 0
M  V30 2756 C 247.675 -3.29763 3.03249 0
M  V30 2757 C 249.419 -4.0234 1.3536 0
M  V30 2758 C 247.326 -4.68815 3.60508 0
M  V30 2759 H 246.256 -0.680394 0.324931 0
M  V30 2760 H 248.907 -1.23902 1.35353 0
M  V30 2761 H 247.289 -3.83832 0.974104 0
M  V30 2762 H 248.463 -2.8189 3.6452 0
M  V30 2763 H 246.778 -2.67059 3.19481 0
M  V30 2764 H 249.375 -5.05058 1.75559 0
M  V30 2765 H 249.718 -4.15235 0.297554 0
M  V30 2766 H 250.251 -3.51079 1.87052 0
M  V30 2767 H 246.99 -4.61121 4.65884 0
M  V30 2768 H 246.51 -5.17045 3.04014 0
M  V30 2769 H 248.189 -5.37785 3.59717 0
M  V30 2770 N 248.321 -0.919034 -1.28029 0
M  V30 2771 C 249.271 -0.382574 -2.24767 0
M  V30 2772 C 250.255 0.508286 -1.52661 0
M  V30 2773 O 251.447 0.347145 -1.73562 0
M  V30 2774 C 248.576 0.371432 -3.41285 0
M  V30 2775 C 247.662 -0.535449 -4.20706 0
M  V30 2776 N 248.053 -1.65141 -4.78082 0
M  V30 2777 C 246.351 -0.336824 -4.44726 0
M  V30 2778 C 247.052 -2.21475 -5.37888 0
M  V30 2779 N 246.028 -1.50537 -5.22341 0
M  V30 2780 H 249.83 -1.23477 -2.66703 0
M  V30 2781 H 247.344 -0.772299 -1.42861 0
M  V30 2782 H 249.341 0.772638 -4.09678 0
M  V30 2783 H 248.001 1.22066 -3.00882 0
M  V30 2784 H 249.012 -2.03392 -4.7629 0
M  V30 2785 H 245.689 0.47246 -4.14818 0
M  V30 2786 H 247.079 -3.15379 -5.93284 0
M  V30 2787 N 249.799 1.42003 -0.683588 0
M  V30 2788 C 251.076 1.95112 -0.138075 0
M  V30 2789 C 251.456 1.62359 1.34918 0
M  V30 2790 O 250.804 0.924311 2.08971 0
M  V30 2791 C 251.014 3.46505 -0.416581 0
M  V30 2792 C 252.362 4.23254 -0.337834 0
M  V30 2793 O 253.386 3.54468 -0.35082 0
M  V30 2794 O 252.245 5.45743 -0.287596 0
M  V30 2795 H 249.339 0.826961 -0.00797996 0
M  V30 2796 H 251.885 1.51784 -0.758924 0
M  V30 2797 H 250.657 3.63582 -1.4465 0
M  V30 2798 H 250.28 3.969 0.235839 0
M  V30 2799 N 251.277 0.427512 1.51691 0
M  V30 2800 C 252.505 -0.141191 2.06418 0
M  V30 2801 C 252.92 -1.37303 1.29589 0
M  V30 2802 O 252.277 -1.79059 0.352732 0
M  V30 2803 C 252.328 -0.473266 3.58389 0
M  V30 2804 O 252.049 0.709673 4.32314 0
M  V30 2805 C 253.55 -1.09371 4.29596 0
M  V30 2806 H 250.77 -0.0122747 0.670888 0
M  V30 2807 H 253.314 0.603764 1.95384 0
M  V30 2808 H 251.469 -1.16812 3.69369 0
M  V30 2809 H 251.883 0.42807 5.2275 0
M  V30 2810 H 253.357 -1.27613 5.37046 0
M  V30 2811 H 253.834 -2.072 3.87253 0
M  V30 2812 H 254.44 -0.43853 4.23033 0
M  V30 2813 N 252.755 -1.56801 0.158532 0
M  V30 2814 C 253.983 -2.00859 -0.496303 0
M  V30 2815 C 254.398 -1.03871 -1.57659 0
M  V30 2816 O 253.755 -0.0375165 -1.82461 0
M  V30 2817 C 253.806 -3.4479 -1.08638 0
M  V30 2818 O 253.527 -4.38072 -0.0492322 0
M  V30 2819 C 255.028 -4.04185 -1.8207 0
M  V30 2820 H 252.248 -0.65864 -0.128199 0
M  V30 2821 H 254.792 -2.02885 0.256506 0
M  V30 2822 H 252.947 -3.43579 -1.78975 0
M  V30 2823 H 253.361 -5.2227 -0.483102 0
M  V30 2824 H 254.835 -5.06857 -2.18633 0
M  V30 2825 H 255.312 -3.45549 -2.71095 0
M  V30 2826 H 255.918 -4.0906 -1.16405 0
M  V30 2827 N 254.233 0.115231 -1.57178 0
M  V30 2828 C 255.461 0.836437 -1.89239 0
M  V30 2829 C 255.876 1.73256 -0.750175 0
M  V30 2830 O 255.233 1.80357 0.278832 0
M  V30 2831 C 255.284 1.66671 -3.20785 0
M  V30 2832 O 255.005 0.806652 -4.3061 0
M  V30 2833 C 256.506 2.49274 -3.66575 0
M  V30 2834 H 253.726 0.240253 -0.626514 0
M  V30 2835 H 256.27 0.0984932 -2.04263 0
M  V30 2836 H 254.425 2.35737 -3.0742 0
M  V30 2837 H 254.839 1.37969 -5.06028 0
M  V30 2838 H 256.313 3.03055 -4.6137 0
M  V30 2839 H 256.79 3.26807 -2.93417 0
M  V30 2840 H 257.396 1.85443 -3.82741 0
M  V30 2841 N 255.711 1.52812 0.385517 0
M  V30 2842 C 256.988 1.5861 1.14465 0
M  V30 2843 C 257.368 0.381402 2.07626 0
M  V30 2844 O 256.716 -0.629999 2.19643 0
M  V30 2845 C 256.926 2.92664 1.90128 0
M  V30 2846 C 258.274 3.46526 2.45367 0
M  V30 2847 O 259.298 2.94562 2.0028 0
M  V30 2848 O 258.157 4.37323 3.27736 0
M  V30 2849 H 255.251 0.639855 0.523941 0
M  V30 2850 H 257.797 1.65149 0.390389 0
M  V30 2851 H 256.569 3.71788 1.22022 0
M  V30 2852 H 256.192 2.89527 2.72507 0
M  V30 2853 N 257.189 -0.644168 1.43834 0
M  V30 2854 C 258.137 -1.77793 1.49974 0
M  V30 2855 C 259.131 -1.65253 0.372536 0
M  V30 2856 O 260.337 -1.7149 0.546924 0
M  V30 2857 H 256.712 -0.58675 0.47035 0
M  V30 2858 H 258.683 -1.69736 2.45423 0
M  V30 2859 C 257.432 -3.16087 1.4486 0
M  V30 2860 H 256.755 -3.26378 2.30905 0
M  V30 2861 H 258.195 -3.95349 1.53217 0
M  V30 2862 C 256.654 -3.36484 0.167463 0
M  V30 2863 O 257.184 -3.94298 -0.767609 0
M  V30 2864 N 255.39 -2.90504 0.0747556 0
M  V30 2865 H 254.937 -2.4364 0.836507 0
M  V30 2866 H 254.895 -3.04527 -0.781714 0
M  V30 2867 N 258.668 -1.30515 -0.883378 0
M  V30 2868 C 259.914 -1.19607 -1.63774 0
M  V30 2869 C 260.247 0.248314 -1.92606 0
M  V30 2870 O 259.522 1.17742 -1.54813 0
M  V30 2871 C 259.805 -2.02669 -2.97653 0
M  V30 2872 C 259.658 -3.55335 -2.75784 0
M  V30 2873 C 260.977 -1.86573 -3.98596 0
M  V30 2874 H 258.096 -0.435856 -0.594305 0
M  V30 2875 H 260.738 -1.60165 -1.02212 0
M  V30 2876 H 258.888 -1.68208 -3.50197 0
M  V30 2877 H 260.56 -3.99863 -2.30016 0
M  V30 2878 H 258.803 -3.79438 -2.1026 0
M  V30 2879 H 259.474 -4.08745 -3.70988 0
M  V30 2880 H 261.95 -2.16703 -3.55217 0
M  V30 2881 H 260.826 -2.47014 -4.90179 0
M  V30 2882 H 261.087 -0.825321 -4.34328 0
M  V30 2883 N 260.146 1.09593 -1.13257 0
M  V30 2884 C 261.079 2.15451 -0.752061 0
M  V30 2885 C 262.057 1.60493 0.260913 0
M  V30 2886 O 263.241 1.8788 0.152819 0
M  V30 2887 C 260.368 3.38506 -0.114594 0
M  V30 2888 C 259.414 4.12183 -1.09579 0
M  V30 2889 S 260.247 4.6661 -2.62745 0
M  V30 2890 C 261.403 5.92966 -2.00354 0
M  V30 2891 H 261.636 2.47395 -1.64872 0
M  V30 2892 H 259.169 1.21515 -0.952545 0
M  V30 2893 H 261.127 4.09757 0.246808 0
M  V30 2894 H 259.788 3.04784 0.759309 0
M  V30 2895 H 258.981 5.00445 -0.597545 0
M  V30 2896 H 258.583 3.46785 -1.40057 0
M  V30 2897 H 260.875 6.63882 -1.35156 0
M  V30 2898 H 261.818 6.47467 -2.86691 0
M  V30 2899 H 262.226 5.45405 -1.4558 0
M  V30 2900 N 261.624 0.925811 1.2754 0
M  V30 2901 C 262.554 0.440748 2.29303 0
M  V30 2902 C 263.535 -0.497971 1.62648 0
M  V30 2903 O 264.72 -0.403126 1.8997 0
M  V30 2904 C 261.85 -0.309048 3.45922 0
M  V30 2905 C 260.804 0.54166 4.24559 0
M  V30 2906 C 260.13 -0.337191 5.33636 0
M  V30 2907 C 261.43 1.80516 4.90114 0
M  V30 2908 H 263.124 1.29121 2.70126 0
M  V30 2909 H 260.67 0.622323 1.29858 0
M  V30 2910 H 262.623 -0.659315 4.1621 0
M  V30 2911 H 261.347 -1.19352 3.04011 0
M  V30 2912 H 260.006 0.874609 3.56014 0
M  V30 2913 H 259.654 -1.22056 4.87966 0
M  V30 2914 H 259.354 0.228497 5.87156 0
M  V30 2915 H 260.878 -0.683072 6.06767 0
M  V30 2916 H 262.292 1.52307 5.52698 0
M  V30 2917 H 260.689 2.3142 5.53683 0
M  V30 2918 H 261.759 2.52581 4.13921 0
M  V30 2919 N 263.102 -1.41638 0.69111 0
M  V30 2920 C 264.518 -1.55435 0.362224 0
M  V30 2921 C 264.718 -1.66754 -1.13117 0
M  V30 2922 O 263.774 -1.64348 -1.91692 0
M  V30 2923 C 265.087 -2.79588 1.10684 0
M  V30 2924 C 266.635 -2.9338 1.09075 0
M  V30 2925 C 267.11 -4.20414 1.81703 0
M  V30 2926 N 268.601 -4.27362 1.7865 0
M  V30 2927 C 269.336 -5.24507 2.31689 0
M  V30 2928 N 268.832 -6.27708 2.93179 0
M  V30 2929 N 270.625 -5.16416 2.2197 0
M  V30 2930 H 262.776 -1.32536 1.65976 0
M  V30 2931 H 265.039 -0.639115 0.700168 0
M  V30 2932 H 264.745 -2.77419 2.16175 0
M  V30 2933 H 264.619 -3.70973 0.682545 0
M  V30 2934 H 267.006 -2.95067 0.0441238 0
M  V30 2935 H 267.087 -2.0318 1.55407 0
M  V30 2936 H 266.731 -4.19488 2.86343 0
M  V30 2937 H 266.661 -5.09578 1.32808 0
M  V30 2938 H 269.152 -3.53415 1.33815 0
M  V30 2939 H 269.465 -6.98217 3.31229 0
M  V30 2940 H 267.81 -6.28223 2.97255 0
M  V30 2941 H 271.001 -4.34716 1.73607 0
M  V30 2942 H 271.174 -5.91958 2.63609 0
M  V30 2943 N 264.58 -0.43555 -1.51462 0
M  V30 2944 C 265.826 0.131709 -2.02372 0
M  V30 2945 C 266.159 1.42516 -1.3192 0
M  V30 2946 O 265.434 1.89606 -0.433573 0
M  V30 2947 C 265.717 0.352301 -3.58373 0
M  V30 2948 C 265.57 -0.959676 -4.39443 0
M  V30 2949 C 266.889 1.12286 -4.25535 0
M  V30 2950 H 264.008 0.0463936 -0.735538 0
M  V30 2951 H 266.65 -0.574197 -1.81116 0
M  V30 2952 H 264.8 0.9536 -3.76615 0
M  V30 2953 H 266.472 -1.59482 -4.32855 0
M  V30 2954 H 264.715 -1.56468 -4.04599 0
M  V30 2955 H 265.386 -0.759394 -5.46752 0
M  V30 2956 H 267.862 0.613545 -4.11552 0
M  V30 2957 H 266.738 1.24598 -5.34571 0
M  V30 2958 H 266.999 2.15048 -3.86273 0
M  V30 2959 N 266.058 1.56714 -0.166846 0
M  V30 2960 C 266.99 2.14914 0.796537 0
M  V30 2961 C 268.003 1.10357 1.19688 0
M  V30 2962 O 269.192 1.37561 1.13751 0
M  V30 2963 C 266.292 2.67326 2.08303 0
M  V30 2964 C 265.465 3.96493 1.84696 0
M  V30 2965 C 264.524 4.34014 2.97521 0
M  V30 2966 O 263.55 5.01973 2.6835 0
M  V30 2967 N 264.752 3.95208 4.25196 0
M  V30 2968 H 267.517 2.98205 0.299006 0
M  V30 2969 H 265.078 1.61892 0.0160839 0
M  V30 2970 H 267.07 2.89428 2.82867 0
M  V30 2971 H 265.64 1.88649 2.4926 0
M  V30 2972 H 264.86 3.82814 0.940602 0
M  V30 2973 H 266.148 4.8086 1.66285 0
M  V30 2974 H 265.546 3.40487 4.51758 0
M  V30 2975 H 264.103 4.2232 4.96477 0
M  V30 2976 N 267.536 -0.106894 1.57237 0
M  V30 2977 C 268.947 -0.662723 1.74542 0
M  V30 2978 C 269.298 -1.7971 0.787319 0
M  V30 2979 O 268.423 -2.16368 -0.0369636 0
M  V30 2980 C 269.018 -1.20896 3.16496 0
M  V30 2981 C 267.577 -1.71096 3.35266 0
M  V30 2982 C 266.724 -0.615642 2.7038 0
M  V30 2983 H 269.675 0.119106 1.58252 0
M  V30 2984 H 269.696 -2.07847 3.18716 0
M  V30 2985 H 269.208 -0.383122 3.86204 0
M  V30 2986 H 267.309 -2.56119 2.70618 0
M  V30 2987 H 267.422 -1.81208 4.43509 0
M  V30 2988 H 265.786 -1.05222 2.31949 0
M  V30 2989 H 266.569 0.199419 3.4272 0
M  V30 2990 N 269.014 -1.53014 -0.377408 0
M  V30 2991 C 270.291 -1.59215 -1.13622 0
M  V30 2992 C 270.671 -0.392407 -2.07421 0
M  V30 2993 O 270.019 0.618342 -2.19975 0
M  V30 2994 C 270.229 -2.93669 -1.88573 0
M  V30 2995 C 271.577 -3.47822 -2.43526 0
M  V30 2996 O 272.601 -2.9562 -1.98715 0
M  V30 2997 O 271.46 -4.39055 -3.25412 0
M  V30 2998 H 268.554 -0.642625 -0.52054 0
M  V30 2999 H 271.1 -1.65353 -0.381625 0
M  V30 3000 H 269.872 -3.7243 -1.20048 0
M  V30 3001 H 269.495 -2.90968 -2.70968 0
M  V30 3002 N 270.492 0.636531 -1.44174 0
M  V30 3003 C 271.74 1.39343 -1.46383 0
M  V30 3004 C 272.061 1.94766 -0.0955715 0
M  V30 3005 O 271.331 1.75452 0.871395 0
M  V30 3006 H 269.911 0.517199 -0.538994 0
M  V30 3007 H 272.573 0.74957 -1.7991 0
M  V30 3008 H 271.669 2.22746 -2.18611 0
M  V30 3009 N 271.97 1.30982 0.876444 0
M  V30 3010 C 272.917 1.18085 1.98304 0
M  V30 3011 C 273.887 0.0682263 1.6596 0
M  V30 3012 O 275.072 0.239937 1.89285 0
M  V30 3013 C 272.212 0.887475 3.33493 0
M  V30 3014 C 271.325 2.08281 3.78475 0
M  V30 3015 C 270.46 1.72678 5.0235 0
M  V30 3016 C 269.499 2.88657 5.39762 0
M  V30 3017 N 268.636 2.53292 6.54819 0
M  V30 3018 H 273.476 2.1275 2.08666 0
M  V30 3019 H 271.013 1.05839 1.02159 0
M  V30 3020 H 272.971 0.697961 4.1132 0
M  V30 3021 H 271.601 -0.022315 3.22792 0
M  V30 3022 H 270.653 2.3833 2.96484 0
M  V30 3023 H 271.965 2.95108 4.02135 0
M  V30 3024 H 271.119 1.50151 5.87826 0
M  V30 3025 H 269.858 0.830327 4.8058 0
M  V30 3026 H 268.863 3.1184 4.52809 0
M  V30 3027 H 270.088 3.79002 5.63502 0
M  V30 3028 H 268.034 1.66163 6.34607 0
M  V30 3029 H 267.951 3.3365 6.7839 0
M  V30 3030 H 269.219 2.34143 7.43503 0
M  V30 3031 N 273.449 -1.08991 1.13837 0
M  V30 3032 C 274.695 -1.81526 0.90422 0
M  V30 3033 C 275.028 -1.85706 -0.568066 0
M  V30 3034 O 274.303 -1.32855 -1.42056 0
M  V30 3035 C 274.586 -3.27447 1.49835 0
M  V30 3036 C 274.439 -3.31512 3.04006 0
M  V30 3037 C 275.758 -4.24256 1.17025 0
M  V30 3038 H 272.877 -0.659029 0.329923 0
M  V30 3039 H 275.519 -1.27644 1.40737 0
M  V30 3040 H 273.669 -3.73462 1.07044 0
M  V30 3041 H 275.341 -2.93867 3.55584 0
M  V30 3042 H 273.584 -2.70963 3.38765 0
M  V30 3043 H 274.255 -4.34329 3.40679 0
M  V30 3044 H 276.731 -3.86549 1.54009 0
M  V30 3045 H 275.607 -5.24684 1.61237 0
M  V30 3046 H 275.868 -4.42019 0.0846274 0
M  V30 3047 N 274.927 -0.932562 -1.27047 0
M  V30 3048 C 275.857 -0.452902 -2.29066 0
M  V30 3049 C 276.838 0.489338 -1.62909 0
M  V30 3050 O 278.023 0.393046 -1.90181 0
M  V30 3051 C 275.153 0.290698 -3.46081 0
M  V30 3052 C 274.107 -0.564168 -4.24265 0
M  V30 3053 C 273.433 0.308886 -5.33807 0
M  V30 3054 C 274.733 -1.83112 -4.89149 0
M  V30 3055 H 276.427 -1.30552 -2.69437 0
M  V30 3056 H 273.973 -0.629201 -1.29526 0
M  V30 3057 H 275.926 0.637233 -4.16554 0
M  V30 3058 H 274.65 1.17738 -3.0464 0
M  V30 3059 H 273.309 -0.893477 -3.55545 0
M  V30 3060 H 272.957 1.19467 -4.88607 0
M  V30 3061 H 272.657 -0.259633 -5.87026 0
M  V30 3062 H 274.181 0.650884 -6.07121 0
M  V30 3063 H 275.595 -1.55236 -5.51883 0
M  V30 3064 H 273.992 -2.34353 -5.52448 0
M  V30 3065 H 275.062 -2.54772 -4.12576 0
M  V30 3066 N 276.405 1.4127 -0.698611 0
M  V30 3067 C 277.635 2.05205 -0.239644 0
M  V30 3068 C 278.043 1.52684 1.11733 0
M  V30 3069 O 277.386 0.671222 1.70998 0
M  V30 3070 C 277.448 3.59289 -0.123126 0
M  V30 3071 C 277.112 4.34619 -1.41263 0
M  V30 3072 C 278.109 4.63701 -2.35111 0
M  V30 3073 C 275.794 4.73837 -1.66684 0
M  V30 3074 C 277.788 5.30966 -3.52639 0
M  V30 3075 C 275.475 5.40837 -2.84498 0
M  V30 3076 C 276.473 5.69329 -3.77298 0
M  V30 3077 O 276.161 6.34949 -4.93047 0
M  V30 3078 H 275.893 0.66723 -0.108537 0
M  V30 3079 H 278.447 1.81974 -0.952602 0
M  V30 3080 H 276.677 3.81272 0.645628 0
M  V30 3081 H 278.366 4.04797 0.299056 0
M  V30 3082 H 279.132 4.33882 -2.16729 0
M  V30 3083 H 275.011 4.51039 -0.953135 0
M  V30 3084 H 278.555 5.53121 -4.25091 0
M  V30 3085 H 274.452 5.70075 -3.02795 0
M  V30 3086 H 275.22 6.53445 -4.92902 0
M  V30 3087 N 277.883 0.443576 1.51229 0
M  V30 3088 C 279.108 -0.121648 2.07043 0
M  V30 3089 C 279.533 -1.35156 1.30823 0
M  V30 3090 O 278.891 -1.7793 0.347934 0
M  V30 3091 C 278.939 -0.41624 3.5819 0
M  V30 3092 O 278.043 -1.50163 3.8409 0
M  V30 3093 H 277.384 0.000871367 0.663999 0
M  V30 3094 H 279.914 0.626706 1.94765 0
M  V30 3095 H 279.924 -0.664867 4.02546 0
M  V30 3096 H 278.599 0.482653 4.1309 0
M  V30 3097 H 277.176 -1.24248 3.51592 0
M  V30 3098 N 279.361 -1.56624 0.175154 0
M  V30 3099 C 280.291 -2.21155 -0.749195 0
M  V30 3100 C 281.272 -1.16836 -1.23626 0
M  V30 3101 O 282.457 -1.45277 -1.28873 0
M  V30 3102 C 279.587 -2.8553 -1.97711 0
M  V30 3103 C 278.541 -3.95921 -1.62575 0
M  V30 3104 C 277.867 -4.47365 -2.92864 0
M  V30 3105 C 279.167 -5.15323 -0.850838 0
M  V30 3106 H 280.861 -2.98653 -0.211295 0
M  V30 3107 H 278.407 -1.43651 -0.100188 0
M  V30 3108 H 280.36 -3.2935 -2.62881 0
M  V30 3109 H 279.084 -2.05406 -2.53921 0
M  V30 3110 H 277.743 -3.52762 -0.997719 0
M  V30 3111 H 277.391 -3.64027 -3.47122 0
M  V30 3112 H 277.091 -5.21839 -2.70106 0
M  V30 3113 H 278.615 -4.93873 -3.59056 0
M  V30 3114 H 280.029 -5.55812 -1.40521 0
M  V30 3115 H 278.426 -5.95739 -0.722154 0
M  V30 3116 H 279.496 -4.84661 0.152082 0
M  V30 3117 N 280.839 0.0985539 -1.57292 0
M  V30 3118 C 282.255 0.45267 -1.53046 0
M  V30 3119 C 282.455 1.80713 -0.891342 0
M  V30 3120 O 281.511 2.4785 -0.482375 0
M  V30 3121 C 282.824 0.418341 -2.97776 0
M  V30 3122 C 284.372 0.500443 -3.08973 0
M  V30 3123 C 284.847 0.496297 -4.55303 0
M  V30 3124 N 286.338 0.557151 -4.59837 0
M  V30 3125 C 287.073 0.575726 -5.70502 0
M  V30 3126 N 286.569 0.550714 -6.90608 0
M  V30 3127 N 288.362 0.620277 -5.58667 0
M  V30 3128 H 280.513 -0.788673 -1.97215 0
M  V30 3129 H 282.776 -0.293188 -0.901524 0
M  V30 3130 H 282.482 -0.509659 -3.47988 0
M  V30 3131 H 282.356 1.2386 -3.56284 0
M  V30 3132 H 284.743 1.41886 -2.58751 0
M  V30 3133 H 284.824 -0.347894 -2.53423 0
M  V30 3134 H 284.468 -0.418162 -5.06176 0
M  V30 3135 H 284.398 1.3618 -5.08687 0
M  V30 3136 H 286.889 0.581816 -3.73394 0
M  V30 3137 H 287.202 0.568075 -7.70709 0
M  V30 3138 H 285.547 0.517816 -6.93068 0
M  V30 3139 H 288.738 0.637322 -4.63741 0
M  V30 3140 H 288.911 0.631283 -6.44918 0
M  V30 3141 N 282.317 1.53212 0.369288 0
M  V30 3142 C 283.563 1.69466 1.11397 0
M  V30 3143 C 283.896 0.443257 1.89074 0
M  V30 3144 O 283.171 -0.559386 1.86282 0
M  V30 3145 C 283.454 2.9422 2.07621 0
M  V30 3146 C 283.307 4.29508 1.33577 0
M  V30 3147 C 284.626 3.14565 3.07794 0
M  V30 3148 H 281.745 0.616667 0.403597 0
M  V30 3149 H 284.387 1.85845 0.395179 0
M  V30 3150 H 282.537 2.80387 2.68916 0
M  V30 3151 H 284.209 4.55147 0.750955 0
M  V30 3152 H 282.452 4.29088 0.637618 0
M  V30 3153 H 283.123 5.12926 2.03989 0
M  V30 3154 H 285.599 3.2756 2.56601 0
M  V30 3155 H 284.475 4.03297 3.72348 0
M  V30 3156 H 284.736 2.29675 3.77759 0
M  V30 3157 N 283.795 -0.628877 1.44509 0
M  V30 3158 C 285.023 -1.41554 1.50897 0
M  V30 3159 C 285.438 -1.8832 0.134564 0
M  V30 3160 O 284.795 -1.60969 -0.859965 0
M  V30 3161 C 284.846 -2.63435 2.47556 0
M  V30 3162 O 284.567 -2.18619 3.79654 0
M  V30 3163 C 286.068 -3.56537 2.63431 0
M  V30 3164 H 283.288 -0.434044 0.511709 0
M  V30 3165 H 285.832 -0.768895 1.89495 0
M  V30 3166 H 283.987 -3.24187 2.12089 0
M  V30 3167 H 284.401 -2.97652 4.31861 0
M  V30 3168 H 285.875 -4.38657 3.35088 0
M  V30 3169 H 286.352 -4.05493 1.68738 0
M  V30 3170 H 286.958 -3.01653 2.9981 0
M  V30 3171 N 285.273 -1.31445 -0.869486 0
M  V30 3172 C 286.519 -1.21337 -1.62496 0
M  V30 3173 C 286.852 0.227872 -1.92858 0
M  V30 3174 O 286.127 1.16094 -1.56053 0
M  V30 3175 C 286.41 -2.05814 -2.95487 0
M  V30 3176 C 286.263 -3.5824 -2.72 0
M  V30 3177 C 287.582 -1.9079 -3.96594 0
M  V30 3178 H 284.701 -0.442135 -0.589649 0
M  V30 3179 H 287.343 -1.6124 -1.00507 0
M  V30 3180 H 285.493 -1.71913 -3.48394 0
M  V30 3181 H 287.165 -4.0228 -2.25762 0
M  V30 3182 H 285.408 -3.81647 -2.06224 0
M  V30 3183 H 286.079 -4.12657 -3.66631 0
M  V30 3184 H 288.555 -2.20459 -3.52898 0
M  V30 3185 H 287.431 -2.52199 -4.87531 0
M  V30 3186 H 287.692 -0.871341 -4.33428 0
M  V30 3187 N 286.751 1.08385 -1.14413 0
M  V30 3188 C 287.979 1.84517 -0.936001 0
M  V30 3189 C 288.394 1.81626 0.515503 0
M  V30 3190 O 287.751 1.22008 1.35721 0
M  V30 3191 C 287.802 3.32049 -1.42918 0
M  V30 3192 O 287.523 3.34951 -2.82381 0
M  V30 3193 C 289.024 4.24986 -1.26103 0
M  V30 3194 H 286.244 0.582491 -0.333084 0
M  V30 3195 H 288.788 1.36885 -1.5193 0
M  V30 3196 H 286.943 3.7707 -0.888641 0
M  V30 3197 H 287.357 4.27048 -3.04517 0
M  V30 3198 H 288.831 5.26615 -1.6547 0
M  V30 3199 H 289.308 4.38726 -0.20392 0
M  V30 3200 H 289.914 3.85791 -1.79012 0
M  V30 3201 N 288.23 0.939286 1.26551 0
M  V30 3202 C 289.193 0.451987 2.24699 0
M  V30 3203 C 290.193 -0.435869 1.5478 0
M  V30 3204 O 291.383 -0.235314 1.72603 0
M  V30 3205 C 288.515 -0.348801 3.39111 0
M  V30 3206 H 289.708 1.3193 2.69322 0
M  V30 3207 H 287.261 0.721072 1.38673 0
M  V30 3208 H 287.996 -1.23444 2.99887 0
M  V30 3209 H 287.781 0.287945 3.91041 0
M  V30 3210 H 289.271 -0.679726 4.12031 0
M  V30 3211 N 289.708 -1.40897 0.706093 0
M  V30 3212 C 290.641 -2.282 -0.00328781 0
M  V30 3213 C 291.619 -1.42816 -0.77732 0
M  V30 3214 O 292.803 -1.72237 -0.765944 0
M  V30 3215 C 289.93 -3.23226 -1.01205 0
M  V30 3216 C 288.976 -4.25222 -0.329955 0
M  V30 3217 S 289.809 -5.27269 0.935298 0
M  V30 3218 C 290.965 -6.25859 -0.0716061 0
M  V30 3219 H 291.198 -2.88016 0.737143 0
M  V30 3220 H 288.731 -1.46191 0.496756 0
M  V30 3221 H 290.689 -3.78503 -1.58888 0
M  V30 3222 H 289.35 -2.62485 -1.72513 0
M  V30 3223 H 288.543 -4.92023 -1.09221 0
M  V30 3224 H 288.145 -3.73595 0.174069 0
M  V30 3225 H 290.437 -6.71204 -0.921521 0
M  V30 3226 H 291.38 -7.0586 0.562765 0
M  V30 3227 H 291.788 -5.62852 -0.431088 0
M  V30 3228 N 291.186 -0.45159 -1.50991 0
M  V30 3229 C 292.426 0.109066 -2.04109 0
M  V30 3230 C 292.79 1.38716 -1.32747 0
M  V30 3231 O 293.991 2.02896 -1.76314 0
M  V30 3232 C 292.262 0.308354 -3.56067 0
M  V30 3233 S 293.821 0.830369 -4.30872 0
M  V30 3234 H 290.639 0.0251531 -0.710555 0
M  V30 3235 H 293.241 -0.614264 -1.85599 0
M  V30 3236 H 291.945 -0.627962 -4.05567 0
M  V30 3237 H 291.476 1.05836 -3.78896 0
M  V30 3238 H 293.491 2.10626 -4.49279 0
M  V30 3239 N 292.664 1.56529 -0.183458 0
M  V30 3240 C 293.612 2.19873 0.758845 0
M  V30 3241 C 294.606 1.16638 1.22849 0
M  V30 3242 O 295.812 1.3481 1.19274 0
M  V30 3243 H 292.187 0.7045 0.263029 0
M  V30 3244 H 294.158 2.97724 0.200755 0
M  V30 3245 C 292.907 2.86314 1.9728 0
M  V30 3246 H 292.23 3.65487 1.62047 0
M  V30 3247 H 293.67 3.3409 2.61075 0
M  V30 3248 C 292.129 1.86729 2.80418 0
M  V30 3249 O 292.659 1.36031 3.77966 0
M  V30 3250 N 290.865 1.55216 2.45675 0
M  V30 3251 H 290.412 1.96636 1.66409 0
M  V30 3252 H 290.37 0.888388 3.01588 0
M  V30 3253 N 294.142 -0.090211 1.57342 0
M  V30 3254 C 295.075 -1.14035 1.97664 0
M  V30 3255 C 296.053 -1.38576 0.850616 0
M  V30 3256 O 297.237 -1.52255 1.11134 0
M  V30 3257 C 294.364 -2.48854 2.2976 0
M  V30 3258 C 293.41 -2.40564 3.52181 0
M  V30 3259 S 294.243 -1.81745 5.03715 0
M  V30 3260 C 295.399 -3.18178 5.38993 0
M  V30 3261 H 295.632 -0.796636 2.86428 0
M  V30 3262 H 293.165 -0.298072 1.51496 0
M  V30 3263 H 295.123 -3.26413 2.48927 0
M  V30 3264 H 293.784 -2.80393 1.41558 0
M  V30 3265 H 292.977 -3.39942 3.72096 0
M  V30 3266 H 292.579 -1.71135 3.32549 0
M  V30 3267 H 294.871 -4.14461 5.35937 0
M  V30 3268 H 295.814 -3.03062 6.39968 0
M  V30 3269 H 296.222 -3.17935 4.66452 0
M  V30 3270 N 295.62 -1.53406 -0.361157 0
M  V30 3271 C 296.897 -1.60411 -1.11927 0
M  V30 3272 C 297.277 -0.414385 -2.06993 0
M  V30 3273 O 296.625 0.594976 -2.20618 0
M  V30 3274 C 296.835 -2.95652 -1.85448 0
M  V30 3275 C 298.183 -3.50386 -2.39823 0
M  V30 3276 O 299.207 -2.97711 -1.95568 0
M  V30 3277 O 298.066 -4.42482 -3.20737 0
M  V30 3278 H 295.16 -0.64811 -0.513695 0
M  V30 3279 H 297.706 -1.65749 -0.364065 0
M  V30 3280 H 296.478 -3.73682 -1.16091 0
M  V30 3281 H 296.101 -2.93825 -2.67866 0
M  V30 3282 N 297.098 0.621204 -1.44841 0
M  V30 3283 C 298.345 1.38055 -1.48145 0
M  V30 3284 C 298.673 1.94143 -0.117867 0
M  V30 3285 O 297.928 1.74713 0.881694 0
M  V30 3286 C 298.227 2.55675 -2.4973 0
M  V30 3287 C 297.893 2.17817 -3.94799 0
M  V30 3288 C 296.555 2.07205 -4.34303 0
M  V30 3289 C 298.907 1.88065 -4.86087 0
M  V30 3290 C 296.235 1.65045 -5.63007 0
M  V30 3291 C 298.587 1.47394 -6.15189 0
M  V30 3292 C 297.251 1.35331 -6.53637 0
M  V30 3293 H 296.521 0.505181 -0.542101 0
M  V30 3294 H 299.168 0.703477 -1.78111 0
M  V30 3295 H 297.473 3.2866 -2.13284 0
M  V30 3296 H 299.17 3.13904 -2.4953 0
M  V30 3297 H 295.76 2.26998 -3.63552 0
M  V30 3298 H 299.944 1.95168 -4.56315 0
M  V30 3299 H 295.2 1.54317 -5.91605 0
M  V30 3300 H 299.374 1.23415 -6.85377 0
M  V30 3301 H 297.001 1.02435 -7.53267 0
M  V30 3302 N 298.576 1.31904 0.862503 0
M  V30 3303 C 299.801 1.25135 1.65397 0
M  V30 3304 C 300.226 -0.179 1.87246 0
M  V30 3305 O 299.584 -1.1277 1.4196 0
M  V30 3306 C 299.632 2.00832 2.99498 0
M  V30 3307 O 298.736 1.35075 3.89652 0
M  V30 3308 H 298.077 0.431655 0.504549 0
M  V30 3309 H 300.607 1.74094 1.07483 0
M  V30 3310 H 300.617 2.10709 3.49379 0
M  V30 3311 H 299.292 3.04847 2.82916 0
M  V30 3312 H 297.869 1.33696 3.48109 0
M  V30 3313 N 300.054 -1.07777 1.14986 0
M  V30 3314 C 301.47 -1.32373 0.891596 0
M  V30 3315 C 301.67 -1.9609 -0.463788 0
M  V30 3316 O 300.726 -2.21801 -1.20667 0
M  V30 3317 C 302.039 -2.21905 2.02925 0
M  V30 3318 C 303.587 -2.35367 2.06329 0
M  V30 3319 C 304.062 -3.28245 3.19405 0
M  V30 3320 N 305.553 -3.35824 3.19024 0
M  V30 3321 C 306.288 -4.07739 4.03158 0
M  V30 3322 N 305.784 -4.82306 4.97346 0
M  V30 3323 N 307.577 -4.03635 3.91197 0
M  V30 3324 H 299.728 -0.648039 2.02273 0
M  V30 3325 H 301.991 -0.348149 0.881757 0
M  V30 3326 H 301.697 -1.82342 3.0074 0
M  V30 3327 H 301.571 -3.22407 1.95789 0
M  V30 3328 H 303.958 -2.74186 1.09116 0
M  V30 3329 H 304.039 -1.34585 2.17533 0
M  V30 3330 H 303.683 -2.90146 4.16867 0
M  V30 3331 H 303.613 -4.28971 3.05437 0
M  V30 3332 H 306.104 -2.8267 2.50811 0
M  V30 3333 H 306.417 -5.34661 5.57994 0
M  V30 3334 H 304.762 -4.81337 5.01338 0
M  V30 3335 H 307.953 -3.44491 3.16928 0
M  V30 3336 H 308.126 -4.59417 4.5699 0
M  V30 3337 N 301.532 -0.945985 -1.26051 0
M  V30 3338 C 302.779 -0.596118 -1.93527 0
M  V30 3339 C 303.107 0.865559 -1.74179 0
M  V30 3340 O 302.362 1.63524 -1.0751 0
M  V30 3341 C 302.661 -0.890475 -3.46129 0
M  V30 3342 C 302.327 -2.3368 -3.85622 0
M  V30 3343 C 300.989 -2.73216 -3.96114 0
M  V30 3344 C 303.341 -3.27648 -4.05334 0
M  V30 3345 C 300.669 -4.05806 -4.2372 0
M  V30 3346 C 303.021 -4.59841 -4.3443 0
M  V30 3347 C 301.685 -4.99185 -4.43137 0
M  V30 3348 H 300.955 -0.218135 -0.708165 0
M  V30 3349 H 303.602 -1.1934 -1.49768 0
M  V30 3350 H 301.907 -0.210711 -3.91233 0
M  V30 3351 H 303.604 -0.598478 -3.96509 0
M  V30 3352 H 300.194 -2.02015 -3.78005 0
M  V30 3353 H 304.378 -2.98298 -3.96651 0
M  V30 3354 H 299.634 -4.35945 -4.28675 0
M  V30 3355 H 303.808 -5.32641 -4.48628 0
M  V30 3356 H 301.435 -6.01952 -4.64282 0
M  V30 3357 N 303.011 1.40521 -0.713556 0
M  V30 3358 C 304.422 1.83853 -0.324807 0
M  V30 3359 C 304.773 1.59667 1.14021 0
M  V30 3360 O 303.898 1.07649 1.87725 0
M  V30 3361 C 304.493 3.33751 -0.582746 0
M  V30 3362 C 303.052 3.75584 -0.247727 0
M  V30 3363 C 302.199 2.63753 -0.856121 0
M  V30 3364 H 305.15 1.29817 -0.91286 0
M  V30 3365 H 305.171 3.80194 0.152682 0
M  V30 3366 H 304.683 3.51322 -1.64908 0
M  V30 3367 H 302.784 3.63608 0.813624 0
M  V30 3368 H 302.897 4.7373 -0.715307 0
M  V30 3369 H 301.261 2.53108 -0.28432 0
M  V30 3370 H 302.044 2.84137 -1.92668 0
M  V30 3371 N 304.489 0.459591 1.5075 0
M  V30 3372 C 305.419 -0.330644 2.31147 0
M  V30 3373 C 306.4 -1.00087 1.37538 0
M  V30 3374 O 307.585 -1.00025 1.66459 0
M  V30 3375 C 304.715 -1.41958 3.16962 0
M  V30 3376 C 303.669 -0.871608 4.19031 0
M  V30 3377 C 302.995 -2.05797 4.9351 0
M  V30 3378 C 304.295 0.109251 5.22186 0
M  V30 3379 H 305.989 0.340336 2.97459 0
M  V30 3380 H 303.535 0.165119 1.4305 0
M  V30 3381 H 305.488 -1.9798 3.71997 0
M  V30 3382 H 304.212 -2.11917 2.48513 0
M  V30 3383 H 302.871 -0.333442 3.6508 0
M  V30 3384 H 302.519 -2.74427 4.21544 0
M  V30 3385 H 302.219 -1.6976 5.62544 0
M  V30 3386 H 303.743 -2.62331 5.51375 0
M  V30 3387 H 305.157 -0.361405 5.7216 0
M  V30 3388 H 303.554 0.383316 5.98875 0
M  V30 3389 H 304.624 1.03887 4.73641 0
M  V30 3390 N 305.967 -1.56429 0.191757 0
M  V30 3391 C 307.244 -1.89224 -0.495332 0
M  V30 3392 C 307.624 -1.10478 -1.79883 0
M  V30 3393 O 306.972 -0.204852 -2.2758 0
M  V30 3394 C 307.182 -3.41548 -0.717367 0
M  V30 3395 C 308.53 -4.11711 -1.03823 0
M  V30 3396 O 309.554 -3.4698 -0.805204 0
M  V30 3397 O 308.413 -5.2611 -1.47887 0
M  V30 3398 H 305.507 -0.785788 -0.25781 0
M  V30 3399 H 308.053 -1.68111 0.231721 0
M  V30 3400 H 306.825 -3.90772 0.203287 0
M  V30 3401 H 306.448 -3.68342 -1.497 0
M  V30 3402 N 307.445 0.0818655 -1.57387 0
M  V30 3403 C 308.673 0.796108 -1.9097 0
M  V30 3404 C 309.088 1.71626 -0.786757 0
M  V30 3405 O 308.445 1.80908 0.240513 0
M  V30 3406 C 308.496 1.59829 -3.24248 0
M  V30 3407 O 308.217 0.715131 -4.32224 0
M  V30 3408 C 309.718 2.41442 -3.7178 0
M  V30 3409 H 306.938 0.22691 -0.631469 0
M  V30 3410 H 309.482 0.0551439 -2.04426 0
M  V30 3411 H 307.637 2.29163 -3.12351 0
M  V30 3412 H 308.051 1.27205 -5.08841 0
M  V30 3413 H 309.525 2.932 -4.67694 0
M  V30 3414 H 310.002 3.2051 -3.00283 0
M  V30 3415 H 310.608 1.77283 -3.86589 0
M  V30 3416 N 308.923 1.53595 0.353017 0
M  V30 3417 C 309.855 1.77219 1.45348 0
M  V30 3418 C 310.868 0.65324 1.49119 0
M  V30 3419 O 312.057 0.929775 1.52373 0
M  V30 3420 C 309.157 1.84841 2.84055 0
M  V30 3421 C 308.33 3.14649 3.03833 0
M  V30 3422 C 307.389 3.13351 4.22727 0
M  V30 3423 O 306.415 3.87107 4.17297 0
M  V30 3424 N 307.617 2.35052 5.30783 0
M  V30 3425 H 310.382 2.72178 1.25457 0
M  V30 3426 H 307.943 1.52528 0.542833 0
M  V30 3427 H 309.935 1.81435 3.61751 0
M  V30 3428 H 308.505 0.971114 2.97133 0
M  V30 3429 H 307.725 3.31256 2.13689 0
M  V30 3430 H 309.013 4.00411 3.13925 0
M  V30 3431 H 308.411 1.74663 5.38061 0
M  V30 3432 H 306.968 2.37453 6.07009 0
M  V30 3433 N 310.401 -0.613514 1.45168 0
M  V30 3434 C 311.629 -1.39946 1.5239 0
M  V30 3435 C 312.044 -1.88167 0.154531 0
M  V30 3436 O 311.401 -1.61872 -0.842843 0
M  V30 3437 C 311.452 -2.60795 2.50337 0
M  V30 3438 O 311.173 -2.1458 3.81952 0
M  V30 3439 C 312.674 -3.53723 2.67198 0
M  V30 3440 H 309.894 -0.428593 0.516284 0
M  V30 3441 H 312.438 -0.748753 1.903 0
M  V30 3442 H 310.593 -3.21919 2.15515 0
M  V30 3443 H 311.007 -2.93055 4.34993 0
M  V30 3444 H 312.481 -4.35079 3.39721 0
M  V30 3445 H 312.958 -4.0368 1.73029 0
M  V30 3446 H 313.564 -2.98456 3.02992 0
M  V30 3447 N 311.879 -1.3236 -0.855495 0
M  V30 3448 C 313.119 -1.24187 -1.62348 0
M  V30 3449 C 313.483 0.193597 -1.91021 0
M  V30 3450 O 314.684 0.39904 -2.65822 0
M  V30 3451 C 312.955 -2.07661 -2.90881 0
M  V30 3452 S 314.514 -2.16505 -3.81669 0
M  V30 3453 H 311.332 -0.442076 -0.556857 0
M  V30 3454 H 313.934 -1.67198 -1.01317 0
M  V30 3455 H 312.638 -3.11018 -2.67761 0
M  V30 3456 H 312.169 -1.65425 -3.56929 0
M  V30 3457 H 314.184 -1.31394 -4.78487 0
M  V30 3458 N 313.357 1.07166 -1.15556 0
M  V30 3459 C 314.582 1.84053 -0.955988 0
M  V30 3460 C 315.007 1.81586 0.490739 0
M  V30 3461 O 314.365 1.21018 1.34997 0
M  V30 3462 C 314.413 3.28957 -1.47714 0
M  V30 3463 O 313.517 4.06795 -0.677593 0
M  V30 3464 H 312.858 0.569842 -0.340847 0
M  V30 3465 H 315.388 1.35178 -1.53584 0
M  V30 3466 H 315.398 3.79788 -1.4908 0
M  V30 3467 H 314.073 3.30068 -2.53037 0
M  V30 3468 H 312.65 3.6561 -0.733721 0
M  V30 3469 N 314.835 0.952656 1.25548 0
M  V30 3470 C 315.765 0.489287 2.28316 0
M  V30 3471 C 316.746 -0.463359 1.63667 0
M  V30 3472 O 317.931 -0.36274 1.90782 0
M  V30 3473 C 315.061 -0.235603 3.465 0
M  V30 3474 C 314.015 0.631593 4.23314 0
M  V30 3475 C 313.341 -0.223923 5.34231 0
M  V30 3476 C 314.641 1.90871 4.86174 0
M  V30 3477 H 316.335 1.34822 2.67326 0
M  V30 3478 H 313.881 0.649728 1.28509 0
M  V30 3479 H 315.834 -0.570882 4.17515 0
M  V30 3480 H 314.558 -1.12877 3.06474 0
M  V30 3481 H 313.217 0.949929 3.54079 0
M  V30 3482 H 312.865 -1.11678 4.90446 0
M  V30 3483 H 312.565 0.35299 5.86539 0
M  V30 3484 H 314.089 -0.554214 6.0808 0
M  V30 3485 H 315.503 1.63997 5.49343 0
M  V30 3486 H 313.9 2.43112 5.4865 0
M  V30 3487 H 314.97 2.61304 4.08471 0
M  V30 3488 N 316.313 -1.40141 0.720998 0
M  V30 3489 C 317.223 -2.34486 0.0731031 0
M  V30 3490 C 318.239 -1.57587 -0.737723 0
M  V30 3491 O 319.415 -1.89949 -0.669429 0
M  V30 3492 C 316.48 -3.36528 -0.833656 0
M  V30 3493 C 315.541 -4.29298 -0.0121673 0
M  V30 3494 C 314.774 -5.26466 -0.875742 0
M  V30 3495 O 314.997 -5.29745 -2.11485 0
M  V30 3496 O 313.931 -6.01092 -0.31185 0
M  V30 3497 H 317.757 -2.9152 0.851444 0
M  V30 3498 H 315.342 -1.41427 0.481527 0
M  V30 3499 H 317.224 -3.99093 -1.35289 0
M  V30 3500 H 315.899 -2.81899 -1.59105 0
M  V30 3501 H 314.806 -3.70001 0.552262 0
M  V30 3502 H 316.139 -4.87094 0.707129 0
M  V30 3503 N 317.792 -0.46758 -1.50504 0
M  V30 3504 C 319.041 0.0902868 -2.01498 0
M  V30 3505 C 319.354 1.411 -1.35463 0
M  V30 3506 O 320.56 2.0536 -1.77594 0
M  V30 3507 C 319.016 0.21142 -3.59278 0
M  V30 3508 C 318.624 -1.10065 -4.34269 0
M  V30 3509 C 320.368 0.721433 -4.18325 0
M  V30 3510 C 318.275 -0.943505 -5.83825 0
M  V30 3511 H 317.205 0.037517 -0.753066 0
M  V30 3512 H 319.856 -0.601943 -1.73346 0
M  V30 3513 H 318.238 0.967352 -3.84003 0
M  V30 3514 H 319.412 -1.86726 -4.21272 0
M  V30 3515 H 317.727 -1.5415 -3.86816 0
M  V30 3516 H 320.324 0.85598 -5.27804 0
M  V30 3517 H 320.667 1.71186 -3.79475 0
M  V30 3518 H 321.2 0.0229843 -3.97793 0
M  V30 3519 H 317.939 -1.90719 -6.27141 0
M  V30 3520 H 317.459 -0.217213 -5.99407 0
M  V30 3521 H 319.138 -0.608715 -6.4413 0
M  V30 3522 N 319.27 1.56325 -0.20005 0
M  V30 3523 C 320.18 2.22931 0.730668 0
M  V30 3524 C 321.196 1.22997 1.23076 0
M  V30 3525 O 322.372 1.55748 1.27689 0
M  V30 3526 C 319.437 2.87948 1.93098 0
M  V30 3527 C 318.498 4.03166 1.47497 0
M  V30 3528 C 317.731 4.65073 2.61807 0
M  V30 3529 O 317.954 4.25913 3.79413 0
M  V30 3530 O 316.888 5.54452 2.34237 0
M  V30 3531 H 320.714 3.03084 0.193391 0
M  V30 3532 H 318.299 1.49371 0.0294621 0
M  V30 3533 H 320.181 3.29063 2.6324 0
M  V30 3534 H 318.856 2.10771 2.45677 0
M  V30 3535 H 317.763 3.66664 0.742201 0
M  V30 3536 H 319.096 4.82022 0.995796 0
M  V30 3537 N 320.748 -0.0735177 1.57428 0
M  V30 3538 C 321.973 -0.789787 1.91774 0
M  V30 3539 C 322.398 -1.70413 0.796306 0
M  V30 3540 O 321.756 -1.79555 -0.250961 0
M  V30 3541 C 321.804 -1.5609 3.25067 0
M  V30 3542 O 320.908 -2.67144 3.14178 0
M  V30 3543 H 320.249 -0.215582 0.628029 0
M  V30 3544 H 322.779 -0.0422781 2.04556 0
M  V30 3545 H 322.789 -1.94052 3.58898 0
M  V30 3546 H 321.464 -0.890015 4.06265 0
M  V30 3547 H 320.041 -2.32052 2.91901 0
M  V30 3548 N 322.226 -1.5378 -0.344866 0
M  V30 3549 C 323.456 -1.74646 -1.10374 0
M  V30 3550 C 323.864 -0.48491 -1.8288 0
M  V30 3551 O 323.207 0.553062 -1.75177 0
M  V30 3552 C 323.269 -2.87145 -2.16306 0
M  V30 3553 C 322.933 -4.26795 -1.63386 0
M  V30 3554 C 323.93 -5.08412 -1.08688 0
M  V30 3555 C 321.615 -4.73276 -1.68272 0
M  V30 3556 C 323.609 -6.34609 -0.595792 0
M  V30 3557 C 321.296 -5.99446 -1.18776 0
M  V30 3558 C 322.294 -6.79946 -0.645215 0
M  V30 3559 O 321.982 -8.03745 -0.157626 0
M  V30 3560 H 321.714 -0.587112 -0.335075 0
M  V30 3561 H 324.268 -2.01403 -0.403252 0
M  V30 3562 H 322.498 -2.55909 -2.89909 0
M  V30 3563 H 324.187 -2.95992 -2.77747 0
M  V30 3564 H 324.953 -4.73666 -1.04236 0
M  V30 3565 H 320.832 -4.10677 -2.09442 0
M  V30 3566 H 324.376 -6.97389 -0.171654 0
M  V30 3567 H 320.273 -6.33687 -1.22928 0
M  V30 3568 H 321.041 -8.18038 -0.275037 0
M  V30 3569 N 323.704 0.605807 -1.45491 0
M  V30 3570 C 324.667 1.69836 -1.5391 0
M  V30 3571 C 325.667 1.55261 -0.418424 0
M  V30 3572 O 326.857 1.60296 -0.681965 0
M  V30 3573 C 323.989 3.09117 -1.43734 0
M  V30 3574 H 325.182 1.63738 -2.51257 0
M  V30 3575 H 322.735 0.821689 -1.32959 0
M  V30 3576 H 323.47 3.20791 -0.475788 0
M  V30 3577 H 323.255 3.21104 -2.25021 0
M  V30 3578 H 324.745 3.88696 -1.52661 0
M  V30 3579 N 325.182 1.32811 0.848464 0
M  V30 3580 C 326.412 1.26556 1.63301 0
M  V30 3581 C 326.82 -0.1676 1.88456 0
M  V30 3582 O 326.163 -1.11713 1.45828 0
M  V30 3583 C 326.225 1.96202 3.01239 0
M  V30 3584 C 325.889 3.45528 2.99098 0
M  V30 3585 C 326.886 4.40903 2.75501 0
M  V30 3586 C 324.571 3.87558 3.19537 0
M  V30 3587 C 326.565 5.76282 2.72356 0
M  V30 3588 C 324.252 5.23044 3.16019 0
M  V30 3589 C 325.25 6.17217 2.92458 0
M  V30 3590 O 324.938 7.50223 2.88825 0
M  V30 3591 H 324.67 0.43771 0.515156 0
M  V30 3592 H 327.224 1.7559 1.0657 0
M  V30 3593 H 325.454 1.41746 3.59785 0
M  V30 3594 H 327.143 1.83573 3.62016 0
M  V30 3595 H 327.909 4.09756 2.5947 0
M  V30 3596 H 323.788 3.14674 3.369 0
M  V30 3597 H 327.332 6.4976 2.53886 0
M  V30 3598 H 323.229 5.53818 3.31596 0
M  V30 3599 H 323.997 7.59657 3.04735 0
M  V30 3600 N 326.66 -1.06551 1.16123 0
M  V30 3601 C 327.888 -1.83005 0.965237 0
M  V30 3602 C 328.303 -1.82423 -0.486542 0
M  V30 3603 O 327.66 -1.24152 -1.33763 0
M  V30 3604 C 327.711 -3.29733 1.48183 0
M  V30 3605 O 327.432 -3.30416 2.87674 0
M  V30 3606 C 328.933 -4.22926 1.32848 0
M  V30 3607 H 326.153 -0.577118 0.342309 0
M  V30 3608 H 328.697 -1.3445 1.54089 0
M  V30 3609 H 326.852 -3.75609 0.948517 0
M  V30 3610 H 327.266 -4.22149 3.11272 0
M  V30 3611 H 328.74 -5.23916 1.73827 0
M  V30 3612 H 329.217 -4.38346 0.273692 0
M  V30 3613 H 329.823 -3.82894 1.85127 0
M  V30 3614 N 328.138 -0.959301 -1.25041 0
M  V30 3615 C 329.048 -0.489994 -2.29426 0
M  V30 3616 C 330.064 0.444944 -1.68215 0
M  V30 3617 O 331.24 0.320046 -1.98841 0
M  V30 3618 C 328.305 0.220309 -3.45999 0
M  V30 3619 C 327.366 -0.753418 -4.22637 0
M  V30 3620 C 326.599 -0.076918 -5.33645 0
M  V30 3621 O 326.822 1.13649 -5.58963 0
M  V30 3622 O 325.756 -0.764824 -5.97021 0
M  V30 3623 H 329.582 -1.35755 -2.71669 0
M  V30 3624 H 327.167 -0.725961 -1.30576 0
M  V30 3625 H 329.049 0.619677 -4.16819 0
M  V30 3626 H 327.724 1.06296 -3.0575 0
M  V30 3627 H 326.631 -1.20308 -3.54227 0
M  V30 3628 H 327.964 -1.56423 -4.66683 0
M  V30 3629 N 329.616 1.39756 -0.72842 0
M  V30 3630 C 330.893 1.94574 -0.200079 0
M  V30 3631 C 331.273 1.66569 1.29684 0
M  V30 3632 O 330.621 0.990326 2.05924 0
M  V30 3633 C 330.831 3.45004 -0.526608 0
M  V30 3634 C 332.179 4.21965 -0.472318 0
M  V30 3635 O 333.203 3.53173 -0.463413 0
M  V30 3636 O 332.062 5.44552 -0.461075 0
M  V30 3637 H 329.156 0.826289 -0.0342851 0
M  V30 3638 H 331.702 1.49293 -0.806829 0
M  V30 3639 H 330.474 3.58796 -1.56144 0
M  V30 3640 H 330.097 3.97449 0.109449 0
M  V30 3641 N 331.094 0.475555 1.50254 0
M  V30 3642 C 332.371 -0.139685 1.95101 0
M  V30 3643 C 332.751 -1.56555 1.41611 0
M  V30 3644 O 332.099 -2.19956 0.618993 0
M  V30 3645 C 332.309 -0.0784298 3.48912 0
M  V30 3646 C 333.657 -0.265095 4.23772 0
M  V30 3647 O 334.681 -0.154808 3.55863 0
M  V30 3648 O 333.54 -0.488327 5.44314 0
M  V30 3649 H 330.634 -0.109236 0.819754 0
M  V30 3650 H 333.18 0.536276 1.61004 0
M  V30 3651 H 331.952 0.916918 3.80405 0
M  V30 3652 H 331.575 -0.795655 3.89558 0
M  V30 3653 N 332.573 -1.56217 0.208337 0
M  V30 3654 C 333.503 -2.22694 -0.702116 0
M  V30 3655 C 334.484 -1.19432 -1.2112 0
M  V30 3656 O 335.669 -1.47978 -1.25762 0
M  V30 3657 C 332.799 -2.8966 -1.9161 0
M  V30 3658 C 331.753 -3.9928 -1.5414 0
M  V30 3659 C 331.079 -4.53476 -2.83308 0
M  V30 3660 C 332.379 -5.17012 -0.741339 0
M  V30 3661 H 334.073 -2.99034 -0.147898 0
M  V30 3662 H 331.619 -1.43831 -0.0696951 0
M  V30 3663 H 333.572 -3.34852 -2.55836 0
M  V30 3664 H 332.296 -2.10746 -2.49507 0
M  V30 3665 H 330.955 -3.54799 -0.922668 0
M  V30 3666 H 330.603 -3.71308 -3.39322 0
M  V30 3667 H 330.303 -5.27451 -2.58976 0
M  V30 3668 H 331.827 -5.01378 -3.485 0
M  V30 3669 H 333.241 -5.58667 -1.28699 0
M  V30 3670 H 331.638 -5.97137 -0.595627 0
M  V30 3671 H 332.708 -4.8423 0.254851 0
M  V30 3672 N 334.051 0.0651679 -1.57465 0
M  V30 3673 C 334.984 1.10876 -1.99453 0
M  V30 3674 C 335.962 1.37205 -0.872555 0
M  V30 3675 O 337.146 1.50468 -1.13542 0
M  V30 3676 C 334.273 2.45167 -2.3369 0
M  V30 3677 C 333.319 2.3493 -3.55964 0
M  V30 3678 S 334.152 1.73708 -5.06543 0
M  V30 3679 C 335.308 3.09563 -5.43987 0
M  V30 3680 H 335.541 0.750967 -2.87659 0
M  V30 3681 H 333.074 0.273933 -1.51951 0
M  V30 3682 H 335.032 3.22412 -2.54088 0
M  V30 3683 H 333.693 2.78105 -1.46001 0
M  V30 3684 H 332.886 3.3398 -3.77457 0
M  V30 3685 H 332.488 1.65823 -3.3523 0
M  V30 3686 H 334.78 4.05882 -5.42463 0
M  V30 3687 H 335.723 2.92843 -6.44708 0
M  V30 3688 H 336.131 3.10474 -4.71451 0
M  V30 3689 N 335.529 1.53961 0.336706 0
M  V30 3690 C 336.459 1.85417 1.41925 0
M  V30 3691 C 337.44 0.709856 1.5458 0
M  V30 3692 O 338.625 0.962396 1.68676 0
M  V30 3693 C 335.755 2.06985 2.78881 0
M  V30 3694 C 334.709 3.22813 2.81026 0
M  V30 3695 C 334.035 3.29727 4.20932 0
M  V30 3696 C 335.335 4.60767 2.45949 0
M  V30 3697 H 337.029 2.76079 1.15848 0
M  V30 3698 H 334.575 1.32839 0.555859 0
M  V30 3699 H 336.528 2.27575 3.54665 0
M  V30 3700 H 335.252 1.13061 3.06406 0
M  V30 3701 H 333.911 3.0209 2.07695 0
M  V30 3702 H 333.559 2.33385 4.45579 0
M  V30 3703 H 333.259 4.07566 4.23277 0
M  V30 3704 H 334.783 3.52536 4.98549 0
M  V30 3705 H 336.197 4.81325 3.11446 0
M  V30 3706 H 334.594 5.4106 2.59566 0
M  V30 3707 H 335.664 4.6391 1.41122 0
M  V30 3708 N 337.007 -0.598083 1.45811 0
M  V30 3709 C 338.237 -1.38121 1.53643 0
M  V30 3710 C 338.645 -1.88425 0.171081 0
M  V30 3711 O 337.988 -1.63409 -0.839237 0
M  V30 3712 C 338.05 -2.61432 2.46766 0
M  V30 3713 C 337.714 -2.32702 3.93318 0
M  V30 3714 C 338.711 -1.92479 4.82957 0
M  V30 3715 C 336.396 -2.45321 4.38318 0
M  V30 3716 C 338.39 -1.65248 6.15607 0
M  V30 3717 C 336.077 -2.17703 5.71007 0
M  V30 3718 C 337.075 -1.7773 6.5947 0
M  V30 3719 O 336.763 -1.50441 7.89698 0
M  V30 3720 H 336.495 -0.428863 0.522544 0
M  V30 3721 H 339.049 -0.73557 1.91777 0
M  V30 3722 H 337.279 -3.28749 2.0362 0
M  V30 3723 H 338.968 -3.23487 2.45175 0
M  V30 3724 H 339.734 -1.82258 4.49452 0
M  V30 3725 H 335.613 -2.75399 3.69697 0
M  V30 3726 H 339.157 -1.33973 6.84614 0
M  V30 3727 H 335.054 -2.27544 6.04065 0
M  V30 3728 H 335.822 -1.64415 8.01817 0
M  V30 3729 N 338.485 -1.33259 -0.841409 0
M  V30 3730 C 339.731 -1.25766 -1.59857 0
M  V30 3731 C 340.086 0.175602 -1.91597 0
M  V30 3732 O 339.379 1.117 -1.55672 0
M  V30 3733 C 339.573 -2.06381 -2.9179 0
M  V30 3734 C 339.402 -3.57401 -2.72937 0
M  V30 3735 C 338.172 -4.26718 -2.70628 0
M  V30 3736 C 340.37 -4.51786 -2.45753 0
M  V30 3737 N 338.352 -5.63705 -2.43125 0
M  V30 3738 C 339.723 -5.76643 -2.27777 0
M  V30 3739 C 341.778 -4.40898 -2.31329 0
M  V30 3740 C 340.481 -6.91842 -1.96841 0
M  V30 3741 C 342.507 -5.55911 -2.01786 0
M  V30 3742 C 341.869 -6.79776 -1.8462 0
M  V30 3743 H 337.968 -0.515406 -0.588117 0
M  V30 3744 H 340.552 -1.67772 -0.987955 0
M  V30 3745 H 338.723 -1.667 -3.50807 0
M  V30 3746 H 340.455 -1.90678 -3.56965 0
M  V30 3747 H 337.21 -3.78968 -2.84043 0
M  V30 3748 H 337.634 -6.35911 -2.32265 0
M  V30 3749 H 342.276 -3.45772 -2.43314 0
M  V30 3750 H 339.994 -7.86968 -1.83594 0
M  V30 3751 H 343.58 -5.49421 -1.91384 0
M  V30 3752 H 342.46 -7.67266 -1.62088 0
M  V30 3753 N 339.963 1.05934 -1.16686 0
M  V30 3754 C 340.91 2.13499 -0.876748 0
M  V30 3755 C 341.88 1.65162 0.176299 0
M  V30 3756 O 343.065 1.90757 0.0407143 0
M  V30 3757 C 340.205 3.42912 -0.387967 0
M  V30 3758 C 339.318 4.04964 -1.50426 0
M  V30 3759 C 338.453 5.22266 -0.970125 0
M  V30 3760 C 337.492 5.76309 -2.06238 0
M  V30 3761 N 336.629 6.84922 -1.54356 0
M  V30 3762 H 341.469 2.37654 -1.7979 0
M  V30 3763 H 339.006 1.16598 -0.896843 0
M  V30 3764 H 340.964 4.17111 -0.086186 0
M  V30 3765 H 339.594 3.18963 0.496235 0
M  V30 3766 H 338.646 3.28277 -1.92193 0
M  V30 3767 H 339.958 4.41122 -2.32836 0
M  V30 3768 H 339.112 6.03506 -0.621743 0
M  V30 3769 H 337.851 4.87564 -0.115377 0
M  V30 3770 H 336.856 4.93704 -2.41942 0
M  V30 3771 H 338.081 6.13062 -2.92115 0
M  V30 3772 H 336.027 6.52131 -0.711406 0
M  V30 3773 H 335.944 7.20043 -2.30379 0
M  V30 3774 H 337.212 7.69832 -1.22387 0
M  V30 3775 N 341.441 0.965919 1.2453 0
M  V30 3776 C 342.388 0.49402 2.25451 0
M  V30 3777 C 343.358 -0.45948 1.59618 0
M  V30 3778 O 344.543 -0.370238 1.87173 0
M  V30 3779 C 341.683 -0.211359 3.44452 0
M  V30 3780 C 340.796 0.7807 4.24887 0
M  V30 3781 C 339.931 0.0516105 5.31175 0
M  V30 3782 C 338.97 1.03385 6.03306 0
M  V30 3783 N 338.107 0.334887 7.01301 0
M  V30 3784 H 342.947 1.35946 2.65184 0
M  V30 3785 H 340.484 0.681515 1.3036 0
M  V30 3786 H 342.442 -0.637 4.12308 0
M  V30 3787 H 341.072 -1.04077 3.05562 0
M  V30 3788 H 340.124 1.32479 3.56586 0
M  V30 3789 H 341.436 1.52978 4.74762 0
M  V30 3790 H 340.59 -0.432114 6.05159 0
M  V30 3791 H 339.329 -0.730179 4.82203 0
M  V30 3792 H 338.334 1.52847 5.28127 0
M  V30 3793 H 339.559 1.81606 6.54367 0
M  V30 3794 H 337.505 -0.427959 6.54603 0
M  V30 3795 H 337.422 1.02287 7.49048 0
M  V30 3796 H 338.69 -0.126928 7.79397 0
M  V30 3797 N 342.919 -1.39368 0.735821 0
M  V30 3798 C 344.167 -2.00101 0.283562 0
M  V30 3799 C 344.488 -1.5868 -1.13338 0
M  V30 3800 O 343.758 -0.835423 -1.77193 0
M  V30 3801 H 342.338 -0.740024 0.101851 0
M  V30 3802 H 345 -1.70404 0.945962 0
M  V30 3803 H 344.096 -3.10323 0.332604 0
M  V30 3804 N 344.397 -0.483516 -1.5 0
M  V30 3805 C 345.345 0.318061 -2.30415 0
M  V30 3806 C 346.339 0.978988 -1.38247 0
M  V30 3807 O 347.545 0.908673 -1.55381 0
M  V30 3808 H 343.92 0.121419 -0.742133 0
M  V30 3809 H 345.891 -0.380403 -2.95965 0
M  V30 3810 C 344.64 1.38013 -3.19136 0
M  V30 3811 H 343.963 0.880952 -3.89973 0
M  V30 3812 H 345.403 1.91332 -3.78375 0
M  V30 3813 C 343.862 2.38884 -2.37563 0
M  V30 3814 O 344.392 3.44412 -2.06744 0
M  V30 3815 N 342.598 2.10912 -1.99911 0
M  V30 3816 H 342.145 1.25118 -2.25174 0
M  V30 3817 H 342.103 2.78635 -1.45636 0
M  V30 3818 N 345.875 1.56104 -0.216619 0
M  V30 3819 C 347.152 1.89988 0.465165 0
M  V30 3820 C 347.532 1.13326 1.78102 0
M  V30 3821 O 346.88 0.241033 2.27225 0
M  V30 3822 C 347.09 3.42646 0.662939 0
M  V30 3823 C 348.438 4.13311 0.972602 0
M  V30 3824 O 349.462 3.48217 0.749901 0
M  V30 3825 O 348.321 5.28396 1.39499 0
M  V30 3826 H 345.415 0.78979 0.245276 0
M  V30 3827 H 347.961 1.67721 -0.258436 0
M  V30 3828 H 346.733 3.90399 -0.26543 0
M  V30 3829 H 346.356 3.70677 1.43821 0
M  V30 3830 N 347.353 -0.0568162 1.57498 0
M  V30 3831 C 348.578 -0.769402 1.92601 0
M  V30 3832 C 349.003 -1.69559 0.814336 0
M  V30 3833 O 348.361 -1.79811 -0.231903 0
M  V30 3834 C 348.409 -1.52634 3.26704 0
M  V30 3835 O 347.513 -2.63797 3.16994 0
M  V30 3836 H 346.854 -0.208909 0.63028 0
M  V30 3837 H 349.384 -0.0205798 2.0459 0
M  V30 3838 H 349.394 -1.90234 3.60936 0
M  V30 3839 H 348.069 -0.846875 4.07186 0
M  V30 3840 H 346.646 -2.28943 2.94346 0
M  V30 3841 N 348.832 -1.54138 -0.328536 0
M  V30 3842 C 349.762 -1.86167 -1.40939 0
M  V30 3843 C 350.743 -0.718044 -1.54202 0
M  V30 3844 O 351.928 -0.971328 -1.68163 0
M  V30 3845 C 349.058 -2.08461 -2.77779 0
M  V30 3846 C 348.012 -3.24299 -2.7931 0
M  V30 3847 C 347.338 -3.31955 -4.19178 0
M  V30 3848 C 348.638 -4.62065 -2.43502 0
M  V30 3849 H 350.332 -2.76689 -1.14383 0
M  V30 3850 H 347.878 -1.33132 -0.548806 0
M  V30 3851 H 349.831 -2.29453 -3.53454 0
M  V30 3852 H 348.555 -1.14684 -3.05802 0
M  V30 3853 H 347.214 -3.03187 -2.0609 0
M  V30 3854 H 346.862 -2.35745 -4.44335 0
M  V30 3855 H 346.562 -4.09805 -4.2111 0
M  V30 3856 H 348.086 -3.55175 -4.96672 0
M  V30 3857 H 349.5 -4.8297 -3.08889 0
M  V30 3858 H 347.897 -5.42429 -2.56693 0
M  V30 3859 H 348.967 -4.64652 -1.38659 0
M  V30 3860 N 350.31 0.590341 -1.46126 0
M  V30 3861 C 351.257 1.69994 -1.56111 0
M  V30 3862 C 352.227 1.61065 -0.405867 0
M  V30 3863 O 353.412 1.8039 -0.621613 0
M  V30 3864 C 350.552 3.08326 -1.55013 0
M  V30 3865 C 349.665 3.27936 -2.81215 0
M  V30 3866 C 348.8 4.56473 -2.71673 0
M  V30 3867 C 347.839 4.694 -3.92849 0
M  V30 3868 N 346.976 5.89254 -3.81738 0
M  V30 3869 H 351.816 1.60797 -2.50895 0
M  V30 3870 H 349.353 0.783799 -1.24479 0
M  V30 3871 H 351.311 3.88383 -1.52362 0
M  V30 3872 H 349.941 3.16439 -0.637667 0
M  V30 3873 H 348.993 2.41536 -2.93879 0
M  V30 3874 H 350.305 3.33357 -3.71045 0
M  V30 3875 H 349.459 5.44748 -2.67085 0
M  V30 3876 H 348.198 4.53477 -1.7947 0
M  V30 3877 H 347.203 3.79544 -3.97777 0
M  V30 3878 H 348.428 4.7418 -4.86138 0
M  V30 3879 H 346.374 5.87271 -2.92317 0
M  V30 3880 H 346.291 5.95911 -4.65217 0
M  V30 3881 H 347.559 6.79981 -3.81112 0
M  V30 3882 N 351.788 1.33704 0.83433 0
M  V30 3883 C 353.016 1.28467 1.62185 0
M  V30 3884 C 353.431 -0.143526 1.88254 0
M  V30 3885 O 352.788 -1.08709 1.4659 0
M  V30 3886 C 352.839 2.06174 2.96942 0
M  V30 3887 O 352.56 3.43422 2.72016 0
M  V30 3888 C 354.061 2.08201 3.91366 0
M  V30 3889 H 351.281 0.4424 0.504503 0
M  V30 3890 H 353.825 1.76145 1.03891 0
M  V30 3891 H 351.98 1.62167 3.51825 0
M  V30 3892 H 352.394 3.83453 3.57861 0
M  V30 3893 H 353.868 2.67017 4.83121 0
M  V30 3894 H 354.345 1.07343 4.2588 0
M  V30 3895 H 354.951 2.52246 3.42421 0
M  V30 3896 N 353.266 -1.05314 1.17247 0
M  V30 3897 C 354.543 -1.75184 0.87005 0
M  V30 3898 C 354.923 -2.01481 -0.629965 0
M  V30 3899 O 354.271 -1.64988 -1.58086 0
M  V30 3900 C 354.481 -3.04594 1.70363 0
M  V30 3901 C 355.829 -3.78567 1.92281 0
M  V30 3902 O 356.853 -3.14461 1.67311 0
M  V30 3903 O 355.712 -4.93755 2.3424 0
M  V30 3904 H 352.806 -0.761729 0.322021 0
M  V30 3905 H 355.352 -1.11493 1.27935 0
M  V30 3906 H 354.124 -2.81201 2.72106 0
M  V30 3907 H 353.747 -3.76022 1.29202 0
M  V30 3908 N 354.744 -0.972509 -1.24016 0
M  V30 3909 C 355.654 -0.5143 -2.28893 0
M  V30 3910 C 356.67 0.427078 -1.68677 0
M  V30 3911 O 357.846 0.298939 -1.99169 0
M  V30 3912 C 354.911 0.183598 -3.46214 0
M  V30 3913 C 353.972 -0.798202 -4.21814 0
M  V30 3914 C 353.205 -0.133514 -5.33533 0
M  V30 3915 O 353.428 1.07714 -5.60137 0
M  V30 3916 O 352.362 -0.828103 -5.96176 0
M  V30 3917 H 356.188 -1.38629 -2.70214 0
M  V30 3918 H 353.773 -0.739769 -1.29799 0
M  V30 3919 H 355.655 0.575433 -4.17453 0
M  V30 3920 H 354.33 1.03048 -3.0686 0
M  V30 3921 H 353.237 -1.24059 -3.52931 0
M  V30 3922 H 354.57 -1.61364 -4.64997 0
M  V30 3923 N 356.222 1.38976 -0.743202 0
M  V30 3924 C 357.638 1.53984 -0.419664 0
M  V30 3925 C 357.838 1.70837 1.0685 0
M  V30 3926 O 356.894 1.7135 1.8546 0
M  V30 3927 C 358.207 2.75287 -1.20985 0
M  V30 3928 C 359.755 2.89129 -1.19889 0
M  V30 3929 C 360.23 4.13381 -1.97181 0
M  V30 3930 N 361.721 4.20437 -1.94389 0
M  V30 3931 C 362.456 5.15547 -2.50996 0
M  V30 3932 N 361.952 6.16395 -3.16274 0
M  V30 3933 N 363.745 5.07822 -2.40984 0
M  V30 3934 H 355.896 1.26285 -1.7078 0
M  V30 3935 H 358.159 0.612689 -0.723406 0
M  V30 3936 H 357.865 2.69204 -2.26323 0
M  V30 3937 H 357.739 3.68184 -0.819759 0
M  V30 3938 H 360.126 2.947 -0.153606 0
M  V30 3939 H 360.207 1.97272 -1.62841 0
M  V30 3940 H 359.851 4.08572 -3.01714 0
M  V30 3941 H 359.781 5.04298 -1.51629 0
M  V30 3942 H 362.272 3.48205 -1.46839 0
M  V30 3943 H 362.585 6.85443 -3.56915 0
M  V30 3944 H 360.93 6.16758 -3.20367 0
M  V30 3945 H 364.121 4.27973 -1.89622 0
M  V30 3946 H 364.294 5.81767 -2.85397 0
M  V30 3947 N 357.7 0.491464 1.49741 0
M  V30 3948 C 358.949 -0.0582189 2.01616 0
M  V30 3949 C 359.262 -1.38927 1.3769 0
M  V30 3950 O 360.468 -2.02509 1.80838 0
M  V30 3951 C 358.924 -0.154235 3.59569 0
M  V30 3952 C 358.532 1.1696 4.32463 0
M  V30 3953 C 360.276 -0.65479 4.1942 0
M  V30 3954 C 358.183 1.03627 5.8225 0
M  V30 3955 H 357.113 -0.0255317 0.753568 0
M  V30 3956 H 359.764 0.629445 1.72367 0
M  V30 3957 H 358.146 -0.906138 3.85493 0
M  V30 3958 H 359.32 1.93405 4.18248 0
M  V30 3959 H 357.635 1.60285 3.84315 0
M  V30 3960 H 360.232 -0.771903 5.29099 0
M  V30 3961 H 360.575 -1.65127 3.8215 0
M  V30 3962 H 361.108 0.040304 3.9778 0
M  V30 3963 H 357.847 2.00672 6.24028 0
M  V30 3964 H 357.367 0.312546 5.98985 0
M  V30 3965 H 359.046 0.711114 6.4308 0
M  V30 3966 N 359.178 -1.55987 0.224894 0
M  V30 3967 C 360.403 -2.03232 -0.41369 0
M  V30 3968 C 360.828 -1.10359 -1.52323 0
M  V30 3969 O 360.186 -0.092395 -1.81064 0
M  V30 3970 C 360.234 -3.48682 -0.919405 0
M  V30 3971 O 359.338 -3.58947 -2.03054 0
M  V30 3972 H 358.679 -0.657428 -0.0931903 0
M  V30 3973 H 361.209 -2.01679 0.34451 0
M  V30 3974 H 361.219 -3.8907 -1.22835 0
M  V30 3975 H 359.894 -4.15761 -0.107339 0
M  V30 3976 H 358.471 -3.30448 -1.72796 0
M  V30 3977 N 360.656 0.0484629 -1.57525 0
M  V30 3978 C 361.586 1.0549 -2.08313 0
M  V30 3979 C 362.567 1.38929 -0.981463 0
M  V30 3980 O 363.752 1.48151 -1.25558 0
M  V30 3981 C 360.882 2.36162 -2.54646 0
M  V30 3982 C 359.836 2.17016 -3.68901 0
M  V30 3983 C 359.162 3.53278 -4.01371 0
M  V30 3984 C 360.462 1.57219 -4.98076 0
M  V30 3985 H 362.156 0.632195 -2.92649 0
M  V30 3986 H 359.702 0.302654 -1.40784 0
M  V30 3987 H 361.655 3.06882 -2.88793 0
M  V30 3988 H 360.379 2.80456 -1.67368 0
M  V30 3989 H 359.038 1.48733 -3.35073 0
M  V30 3990 H 358.686 3.95185 -3.11188 0
M  V30 3991 H 358.386 3.41299 -4.78318 0
M  V30 3992 H 359.91 4.25391 -4.38035 0
M  V30 3993 H 361.324 2.17832 -5.30304 0
M  V30 3994 H 359.721 1.55871 -5.79503 0
M  V30 3995 H 360.791 0.535956 -4.81929 0
M  V30 3996 N 362.134 1.5431 0.320358 0
M  V30 3997 C 363.359 1.76954 1.08175 0
M  V30 3998 C 363.784 0.518193 1.80821 0
M  V30 3999 O 363.142 -0.530411 1.73368 0
M  V30 4000 C 363.19 2.96451 2.05303 0
M  V30 4001 O 362.294 2.68221 3.13259 0
M  V30 4002 H 361.635 0.586275 0.311733 0
M  V30 4003 H 364.165 2.01342 0.363676 0
M  V30 4004 H 364.175 3.23887 2.48116 0
M  V30 4005 H 362.85 3.87196 1.51829 0
M  V30 4006 H 361.427 2.51744 2.75099 0
M  V30 4007 N 363.613 -0.582584 1.46437 0
M  V30 4008 C 364.545 -1.70618 1.53043 0
M  V30 4009 C 365.558 -1.57322 0.418769 0
M  V30 4010 O 366.747 -1.64744 0.687136 0
M  V30 4011 C 363.847 -3.08869 1.39474 0
M  V30 4012 C 363.02 -3.48166 2.64762 0
M  V30 4013 C 362.079 -4.65478 2.4539 0
M  V30 4014 O 361.105 -4.71333 3.19114 0
M  V30 4015 N 362.307 -5.60365 1.51564 0
M  V30 4016 H 365.072 -1.65405 2.49923 0
M  V30 4017 H 362.633 -0.768567 1.42494 0
M  V30 4018 H 364.625 -3.85143 1.24287 0
M  V30 4019 H 363.195 -3.08449 0.507758 0
M  V30 4020 H 362.415 -2.61598 2.9489 0
M  V30 4021 H 363.703 -3.71188 3.4799 0
M  V30 4022 H 363.101 -5.5837 0.907705 0
M  V30 4023 H 361.658 -6.36068 1.4234 0
M  V30 4024 N 365.091 -1.34144 -0.827227 0
M  V30 4025 C 366.338 -1.26258 -1.58319 0
M  V30 4026 C 366.666 0.168595 -1.93768 0
M  V30 4027 O 365.921 1.12877 -1.59866 0
M  V30 4028 C 366.22 -2.09464 -2.89585 0
M  V30 4029 C 365.886 -3.58521 -2.73448 0
M  V30 4030 C 364.548 -3.99155 -2.68754 0
M  V30 4031 C 366.9 -4.53189 -2.57428 0
M  V30 4032 C 364.228 -5.32656 -2.45957 0
M  V30 4033 C 366.58 -5.86864 -2.36163 0
M  V30 4034 C 365.244 -6.26667 -2.29879 0
M  V30 4035 H 364.514 -0.462013 -0.579332 0
M  V30 4036 H 367.161 -1.65845 -0.95748 0
M  V30 4037 H 365.466 -1.62692 -3.56425 0
M  V30 4038 H 367.163 -2.00712 -3.47154 0
M  V30 4039 H 363.753 -3.26264 -2.77939 0
M  V30 4040 H 367.937 -4.22696 -2.60081 0
M  V30 4041 H 363.193 -5.62519 -2.39546 0
M  V30 4042 H 367.367 -6.59813 -2.22754 0
M  V30 4043 H 364.994 -7.30049 -2.11975 0
M  V30 4044 N 366.569 1.04691 -1.17803 0
M  V30 4045 C 367.499 2.14494 -0.92275 0
M  V30 4046 C 368.48 1.69546 0.137179 0
M  V30 4047 O 369.665 1.94195 -0.0141108 0
M  V30 4048 C 366.795 3.44491 -0.440803 0
M  V30 4049 C 365.749 4.03031 -1.4405 0
M  V30 4050 C 365.075 5.28432 -0.81631 0
M  V30 4051 C 366.375 4.39932 -2.81527 0
M  V30 4052 H 368.069 2.36107 -1.84103 0
M  V30 4053 H 365.615 1.1347 -0.886599 0
M  V30 4054 H 367.568 4.2066 -0.249602 0
M  V30 4055 H 366.292 3.22546 0.513025 0
M  V30 4056 H 364.951 3.28937 -1.61853 0
M  V30 4057 H 364.599 5.02792 0.144511 0
M  V30 4058 H 364.299 5.68559 -1.48371 0
M  V30 4059 H 365.823 6.07284 -0.635496 0
M  V30 4060 H 367.237 5.07113 -2.67412 0
M  V30 4061 H 365.634 4.9109 -3.44892 0
M  V30 4062 H 366.704 3.50045 -3.35554 0
M  V30 4063 N 368.047 0.979072 1.23499 0
M  V30 4064 C 369.296 0.642751 1.91185 0
M  V30 4065 C 369.609 -0.827253 1.77245 0
M  V30 4066 O 370.815 -1.27458 2.39722 0
M  V30 4067 C 369.271 1.09901 3.42709 0
M  V30 4068 C 368.879 2.59327 3.65313 0
M  V30 4069 C 370.623 0.836371 4.16179 0
M  V30 4070 C 368.53 2.98627 5.10467 0
M  V30 4071 H 367.46 0.236698 0.715884 0
M  V30 4072 H 370.111 1.1868 1.39955 0
M  V30 4073 H 368.493 0.48319 3.93041 0
M  V30 4074 H 369.667 3.26136 3.25533 0
M  V30 4075 H 367.982 2.83323 3.05151 0
M  V30 4076 H 370.579 1.10586 5.23139 0
M  V30 4077 H 370.922 -0.227509 4.15678 0
M  V30 4078 H 371.455 1.41371 3.71832 0
M  V30 4079 H 368.194 4.04133 5.16098 0
M  V30 4080 H 367.714 2.3651 5.51201 0
M  V30 4081 H 369.393 2.89159 5.78788 0
M  V30 4082 N 369.525 -1.3858 0.750561 0
M  V30 4083 C 370.457 -2.29057 0.0810714 0
M  V30 4084 C 371.47 -1.47596 -0.686973 0
M  V30 4085 O 372.659 -1.70495 -0.528563 0
M  V30 4086 C 369.759 -3.26475 -0.909247 0
M  V30 4087 C 368.932 -4.36945 -0.199478 0
M  V30 4088 C 367.991 -5.14572 -1.10011 0
M  V30 4089 O 367.017 -5.66321 -0.57177 0
M  V30 4090 N 368.219 -5.27262 -2.42849 0
M  V30 4091 H 370.984 -2.87153 0.858087 0
M  V30 4092 H 368.545 -1.50328 0.60109 0
M  V30 4093 H 370.537 -3.75285 -1.51471 0
M  V30 4094 H 369.107 -2.69298 -1.58736 0
M  V30 4095 H 368.327 -3.8981 0.586664 0
M  V30 4096 H 369.615 -5.07963 0.291783 0
M  V30 4097 H 369.013 -4.86763 -2.88233 0
M  V30 4098 H 367.57 -5.79456 -2.98453 0
M  V30 4099 N 371.003 -0.499398 -1.49478 0
M  V30 4100 C 371.913 0.284489 -2.32869 0
M  V30 4101 C 372.929 0.968885 -1.44529 0
M  V30 4102 O 374.105 0.95062 -1.77553 0
M  V30 4103 C 371.17 1.33594 -3.19928 0
M  V30 4104 C 370.231 0.665149 -4.24116 0
M  V30 4105 C 369.464 1.6665 -5.07014 0
M  V30 4106 O 369.687 2.89618 -4.91404 0
M  V30 4107 O 368.621 1.22271 -5.8935 0
M  V30 4108 H 372.447 -0.39802 -3.01081 0
M  V30 4109 H 370.032 -0.260758 -1.47107 0
M  V30 4110 H 371.914 1.94431 -3.73864 0
M  V30 4111 H 370.589 2.0014 -2.54412 0
M  V30 4112 H 369.496 0.0170769 -3.74096 0
M  V30 4113 H 370.829 0.0421555 -4.92182 0
M  V30 4114 N 372.481 1.55866 -0.233164 0
M  V30 4115 C 373.728 1.98603 0.395374 0
M  V30 4116 C 374.056 1.12105 1.58942 0
M  V30 4117 O 373.311 0.168656 1.94972 0
M  V30 4118 C 373.61 3.46856 0.861724 0
M  V30 4119 C 373.276 4.50348 -0.223066 0
M  V30 4120 C 371.938 4.78371 -0.521038 0
M  V30 4121 C 374.29 5.12355 -0.956124 0
M  V30 4122 C 371.618 5.6568 -1.55638 0
M  V30 4123 C 373.97 6.00786 -1.98089 0
M  V30 4124 C 372.634 6.27148 -2.28565 0
M  V30 4125 H 371.904 0.726739 0.144677 0
M  V30 4126 H 374.551 1.88491 -0.338114 0
M  V30 4127 H 372.856 3.5423 1.67418 0
M  V30 4128 H 374.553 3.77302 1.35809 0
M  V30 4129 H 371.143 4.28596 0.0193234 0
M  V30 4130 H 375.327 4.90765 -0.739166 0
M  V30 4131 H 370.583 5.84365 -1.798 0
M  V30 4132 H 374.757 6.4788 -2.55391 0
M  V30 4133 H 372.384 6.94597 -3.08932 0
M  V30 4134 N 373.959 -0.0401083 1.57549 0
M  V30 4135 C 374.909 -1.05175 2.02292 0
M  V30 4136 C 375.893 -1.32674 0.910294 0
M  V30 4137 O 377.085 -1.32444 1.17421 0
M  V30 4138 C 374.214 -2.35622 2.49674 0
M  V30 4139 C 373.3 -2.11261 3.67736 0
M  V30 4140 N 373.691 -1.56923 4.80842 0
M  V30 4141 C 371.989 -2.41596 3.74897 0
M  V30 4142 C 372.69 -1.48111 5.62528 0
M  V30 4143 N 371.666 -1.95282 5.07312 0
M  V30 4144 H 375.468 -0.625455 2.87168 0
M  V30 4145 H 372.982 -0.246624 1.60516 0
M  V30 4146 H 374.979 -3.08893 2.79983 0
M  V30 4147 H 373.639 -2.7894 1.662 0
M  V30 4148 H 374.65 -1.25345 5.02503 0
M  V30 4149 H 371.327 -2.88064 3.02201 0
M  V30 4150 H 372.717 -1.06683 6.63377 0
M  V30 4151 N 375.437 -1.54477 -0.31217 0
M  V30 4152 C 376.665 -1.77205 -1.068 0
M  V30 4153 C 377.08 -0.526114 -1.81321 0
M  V30 4154 O 376.437 0.503647 -1.75413 0
M  V30 4155 C 376.488 -2.97253 -2.05725 0
M  V30 4156 O 376.209 -4.1703 -1.34228 0
M  V30 4157 C 377.71 -3.32281 -2.93435 0
M  V30 4158 H 374.93 -0.591287 -0.317208 0
M  V30 4159 H 377.474 -2.01398 -0.354834 0
M  V30 4160 H 375.629 -2.753 -2.72559 0
M  V30 4161 H 376.043 -4.84636 -2.00571 0
M  V30 4162 H 377.517 -4.19551 -3.58721 0
M  V30 4163 H 377.994 -2.49945 -3.61143 0
M  V30 4164 H 378.6 -3.56353 -2.32147 0
M  V30 4165 N 376.915 0.57481 -1.46744 0
M  V30 4166 C 378.143 1.35856 -1.56047 0
M  V30 4167 C 378.558 1.87691 -0.204365 0
M  V30 4168 O 377.915 1.64049 0.79963 0
M  V30 4169 C 377.966 2.54066 -2.57163 0
M  V30 4170 O 377.687 2.04377 -3.87507 0
M  V30 4171 C 379.188 3.46514 -2.76483 0
M  V30 4172 H 376.408 0.414754 -0.527466 0
M  V30 4173 H 378.952 0.698035 -1.92218 0
M  V30 4174 H 377.107 3.16092 -2.23974 0
M  V30 4175 H 377.521 2.81419 -4.4261 0
M  V30 4176 H 378.995 4.25919 -3.51137 0
M  V30 4177 H 379.472 3.98951 -1.83671 0
M  V30 4178 H 380.078 2.90318 -3.10799 0
M  V30 4179 N 378.394 1.34581 0.820102 0
M  V30 4180 C 379.622 1.3018 1.60813 0
M  V30 4181 C 380.037 -0.123551 1.88395 0
M  V30 4182 O 379.394 -1.07148 1.47735 0
M  V30 4183 C 379.445 2.09312 2.94739 0
M  V30 4184 O 379.166 3.46288 2.68358 0
M  V30 4185 C 380.667 2.1234 3.89136 0
M  V30 4186 H 377.887 0.447726 0.499782 0
M  V30 4187 H 380.431 1.77237 1.02017 0
M  V30 4188 H 378.586 1.65889 3.50085 0
M  V30 4189 H 379 3.87227 3.53774 0
M  V30 4190 H 380.474 2.72126 4.80262 0
M  V30 4191 H 380.951 1.11854 4.24718 0
M  V30 4192 H 381.557 2.55864 3.39726 0
M  V30 4193 N 379.872 -1.04064 1.18357 0
M  V30 4194 C 380.819 -2.12077 0.910603 0
M  V30 4195 C 381.789 -1.65421 -0.15 0
M  V30 4196 O 382.974 -1.90797 -0.0103614 0
M  V30 4197 C 380.114 -3.42252 0.442472 0
M  V30 4198 C 379.227 -4.0252 1.5685 0
M  V30 4199 C 378.362 -5.20657 1.05309 0
M  V30 4200 C 377.401 -5.72955 2.1538 0
M  V30 4201 N 376.538 -6.8238 1.65233 0
M  V30 4202 H 381.378 -2.34764 1.83548 0
M  V30 4203 H 378.915 -1.15157 0.915279 0
M  V30 4204 H 380.873 -4.16921 0.152534 0
M  V30 4205 H 379.503 -3.19712 -0.445428 0
M  V30 4206 H 378.555 -3.25178 1.97391 0
M  V30 4207 H 379.867 -4.37362 2.39824 0
M  V30 4208 H 379.021 -6.0244 0.717677 0
M  V30 4209 H 377.76 -4.87318 0.19293 0
M  V30 4210 H 376.765 -4.89793 2.49766 0
M  V30 4211 H 377.99 -6.08337 3.01832 0
M  V30 4212 H 375.936 -6.50917 0.815064 0
M  V30 4213 H 375.853 -7.16286 2.41805 0
M  V30 4214 H 377.121 -7.67788 1.34619 0
M  V30 4215 N 381.35 -0.985608 -1.22978 0
M  V30 4216 C 382.28 -0.549649 -2.26939 0
M  V30 4217 C 383.261 0.419803 -1.64838 0
M  V30 4218 O 384.446 0.31203 -1.91677 0
M  V30 4219 C 381.576 0.143652 -3.47003 0
M  V30 4220 C 380.53 -0.743606 -4.21491 0
M  V30 4221 C 379.856 0.0822027 -5.34637 0
M  V30 4222 C 381.156 -2.03694 -4.80943 0
M  V30 4223 H 382.85 -1.41862 -2.63658 0
M  V30 4224 H 380.396 -0.683571 -1.26741 0
M  V30 4225 H 382.349 0.459985 -4.18882 0
M  V30 4226 H 381.073 1.04711 -3.09359 0
M  V30 4227 H 379.732 -1.04347 -3.51436 0
M  V30 4228 H 379.38 0.986359 -4.93234 0
M  V30 4229 H 379.08 -0.508377 -5.85397 0
M  V30 4230 H 380.604 0.392797 -6.09335 0
M  V30 4231 H 382.018 -1.78504 -5.44802 0
M  V30 4232 H 380.415 -2.57573 -5.42011 0
M  V30 4233 H 381.485 -2.72042 -4.01399 0
M  V30 4234 N 382.828 1.3818 -0.7579 0
M  V30 4235 C 383.791 2.28764 -0.141286 0
M  V30 4236 C 384.791 1.47388 0.642907 0
M  V30 4237 O 385.981 1.67781 0.468536 0
M  V30 4238 C 383.113 3.31184 0.808069 0
M  V30 4239 H 384.306 2.848 -0.939633 0
M  V30 4240 H 381.859 1.47212 -0.525191 0
M  V30 4241 H 382.594 2.80247 1.63193 0
M  V30 4242 H 382.379 3.91314 0.248104 0
M  V30 4243 H 383.869 3.98909 1.23536 0
M  V30 4244 N 384.306 0.507319 1.49211 0
M  V30 4245 C 385.553 -0.0349529 2.0247 0
M  V30 4246 C 385.881 -1.36409 1.38647 0
M  V30 4247 O 385.136 -1.88841 0.513566 0
M  V30 4248 C 385.435 -0.229513 3.56662 0
M  V30 4249 C 385.101 1.02241 4.39156 0
M  V30 4250 C 383.763 1.36557 4.61417 0
M  V30 4251 C 386.115 1.85428 4.871 0
M  V30 4252 C 383.443 2.53999 5.28868 0
M  V30 4253 C 385.795 3.02028 5.55843 0
M  V30 4254 C 384.459 3.36717 5.76349 0
M  V30 4255 H 383.729 -0.0127902 0.74089 0
M  V30 4256 H 386.376 0.668756 1.79443 0
M  V30 4257 H 384.681 -1.0158 3.78403 0
M  V30 4258 H 386.378 -0.663641 3.9547 0
M  V30 4259 H 382.968 0.745124 4.22073 0
M  V30 4260 H 387.152 1.6023 4.69723 0
M  V30 4261 H 382.408 2.81105 5.42946 0
M  V30 4262 H 386.582 3.66808 5.91967 0
M  V30 4263 H 384.209 4.27821 6.28389 0
M  V30 4264 N 385.784 -1.5574 0.241426 0
M  V30 4265 C 387.014 -2.02913 -0.38857 0
M  V30 4266 C 387.422 -1.12014 -1.52478 0
M  V30 4267 O 386.765 -0.125903 -1.83268 0
M  V30 4268 C 386.827 -3.4636 -0.963075 0
M  V30 4269 C 386.491 -4.56982 0.0401916 0
M  V30 4270 C 387.488 -5.12941 0.847766 0
M  V30 4271 C 385.173 -5.0203 0.164699 0
M  V30 4272 C 387.167 -6.12437 1.76636 0
M  V30 4273 C 384.854 -6.01358 1.0868 0
M  V30 4274 C 385.852 -6.5644 1.88616 0
M  V30 4275 O 385.54 -7.53831 2.79273 0
M  V30 4276 H 385.272 -0.668983 -0.0971452 0
M  V30 4277 H 387.826 -2.02198 0.361248 0
M  V30 4278 H 386.056 -3.44206 -1.76235 0
M  V30 4279 H 387.745 -3.77065 -1.50257 0
M  V30 4280 H 388.511 -4.78974 0.762133 0
M  V30 4281 H 384.39 -4.58824 -0.447411 0
M  V30 4282 H 387.934 -6.55355 2.39071 0
M  V30 4283 H 383.831 -6.34746 1.17338 0
M  V30 4284 H 384.599 -7.71428 2.73572 0
M  V30 4285 N 387.262 0.0317525 -1.57568 0
M  V30 4286 C 388.487 0.738664 -1.938 0
M  V30 4287 C 388.912 1.68242 -0.841208 0
M  V30 4288 O 388.27 1.80157 0.203267 0
M  V30 4289 C 388.318 1.47417 -3.29091 0
M  V30 4290 O 387.422 2.5872 -3.2115 0
M  V30 4291 H 386.763 0.198856 -0.633524 0
M  V30 4292 H 389.293 -0.0119713 -2.04596 0
M  V30 4293 H 389.303 1.84468 -3.63917 0
M  V30 4294 H 387.978 0.781988 -4.08482 0
M  V30 4295 H 386.555 2.24231 -2.97951 0
M  V30 4296 N 388.74 1.54641 0.303973 0
M  V30 4297 C 389.965 1.78092 1.06292 0
M  V30 4298 C 390.39 0.537342 1.80262 0
M  V30 4299 O 389.748 -0.511993 1.7392 0
M  V30 4300 C 389.796 2.98612 2.02147 0
M  V30 4301 O 388.9 2.71528 3.10397 0
M  V30 4302 H 388.241 0.589548 0.305497 0
M  V30 4303 H 390.771 2.01716 0.3423 0
M  V30 4304 H 390.781 3.265 2.44667 0
M  V30 4305 H 389.456 3.88785 1.47714 0
M  V30 4306 H 388.033 2.54648 2.72413 0
M  V30 4307 N 390.218 -0.567019 1.47046 0
M  V30 4308 C 391.446 -1.35027 1.56765 0
M  V30 4309 C 391.861 -1.8758 0.214316 0
M  V30 4310 O 391.218 -1.64471 -0.790919 0
M  V30 4311 C 391.269 -2.52698 2.58507 0
M  V30 4312 O 390.99 -2.0232 3.88585 0
M  V30 4313 C 392.491 -3.45043 2.78316 0
M  V30 4314 H 389.711 -0.41195 0.529658 0
M  V30 4315 H 392.255 -0.687832 1.92585 0
M  V30 4316 H 390.41 -3.149 2.25648 0
M  V30 4317 H 390.824 -2.79068 4.44096 0
M  V30 4318 H 392.298 -4.2405 3.53391 0
M  V30 4319 H 392.775 -3.97971 1.85784 0
M  V30 4320 H 393.381 -2.88665 3.12334 0
M  V30 4321 N 391.696 -1.35014 -0.812953 0
M  V30 4322 C 392.944 -1.27678 -1.56661 0
M  V30 4323 C 393.265 0.150359 -1.94419 0
M  V30 4324 O 392.535 1.08532 -1.63088 0
M  V30 4325 H 391.115 -0.469602 -0.580933 0
M  V30 4326 H 393.777 -1.69043 -0.970076 0
M  V30 4327 H 392.873 -1.88833 -2.48492 0
M  V30 4328 N 393.175 1.03435 -1.18907 0
M  V30 4329 C 394.421 1.7713 -0.99982 0
M  V30 4330 C 394.776 1.86695 0.465049 0
M  V30 4331 O 394.069 1.36866 1.34083 0
M  V30 4332 C 394.263 3.19792 -1.59586 0
M  V30 4333 C 394.092 3.24134 -3.11717 0
M  V30 4334 C 392.862 3.32398 -3.80578 0
M  V30 4335 C 395.06 3.11625 -4.09138 0
M  V30 4336 N 393.042 3.26055 -5.20155 0
M  V30 4337 C 394.413 3.12855 -5.35277 0
M  V30 4338 C 396.468 2.95713 -4.00572 0
M  V30 4339 C 395.171 2.99805 -6.53842 0
M  V30 4340 C 397.197 2.84011 -5.1874 0
M  V30 4341 C 396.559 2.8589 -6.43775 0
M  V30 4342 H 392.658 0.659683 -0.419931 0
M  V30 4343 H 395.242 1.2317 -1.50789 0
M  V30 4344 H 393.413 3.72085 -1.11389 0
M  V30 4345 H 395.145 3.81819 -1.3415 0
M  V30 4346 H 391.9 3.38392 -3.31342 0
M  V30 4347 H 392.324 3.26307 -5.93172 0
M  V30 4348 H 396.966 2.93086 -3.0473 0
M  V30 4349 H 394.684 3.01184 -7.49876 0
M  V30 4350 H 398.27 2.72744 -5.13909 0
M  V30 4351 H 397.15 2.76931 -7.33675 0
M  V30 4352 N 394.653 0.992116 1.22453 0
M  V30 4353 C 395.883 0.684949 1.94915 0
M  V30 4354 C 396.291 -0.754292 1.73514 0
M  V30 4355 O 395.634 -1.52056 1.03076 0
M  V30 4356 C 395.696 0.910054 3.47791 0
M  V30 4357 C 395.36 2.33363 3.92926 0
M  V30 4358 C 396.357 3.31308 4.00663 0
M  V30 4359 C 394.042 2.66785 4.25595 0
M  V30 4360 C 396.036 4.6075 4.40441 0
M  V30 4361 C 393.723 3.96446 4.65053 0
M  V30 4362 C 394.721 4.9324 4.72444 0
M  V30 4363 O 394.409 6.20584 5.1101 0
M  V30 4364 H 394.141 0.25258 0.62704 0
M  V30 4365 H 396.695 1.32939 1.56577 0
M  V30 4366 H 394.925 0.208443 3.86138 0
M  V30 4367 H 396.614 0.598257 4.01467 0
M  V30 4368 H 397.38 3.0682 3.75615 0
M  V30 4369 H 393.259 1.92148 4.19047 0
M  V30 4370 H 396.803 5.363 4.46126 0
M  V30 4371 H 392.7 4.20724 4.89552 0
M  V30 4372 H 393.468 6.24509 5.29085 0
M  V30 4373 N 396.131 -1.37776 0.765217 0
M  V30 4374 C 397.079 -2.32209 0.134798 0
M  V30 4375 C 398.073 -1.54607 -0.692315 0
M  V30 4376 O 399.279 -1.70052 -0.590109 0
M  V30 4377 H 395.654 -0.751591 0.0248005 0
M  V30 4378 H 397.625 -2.8297 0.947119 0
M  V30 4379 C 396.374 -3.39841 -0.735063 0
M  V30 4380 H 395.697 -3.99654 -0.107991 0
M  V30 4381 H 397.137 -4.08296 -1.14326 0
M  V30 4382 C 395.596 -2.79378 -1.88281 0
M  V30 4383 O 396.126 -2.69608 -2.97783 0
M  V30 4384 N 394.332 -2.37016 -1.68142 0
M  V30 4385 H 393.879 -2.45162 -0.790772 0
M  V30 4386 H 393.837 -1.96905 -2.45104 0
M  V30 4387 N 397.609 -0.515225 -1.4894 0
M  V30 4388 C 399.025 -0.172099 -1.58669 0
M  V30 4389 C 399.225 1.32405 -1.51892 0
M  V30 4390 O 398.281 2.10116 -1.40027 0
M  V30 4391 C 399.594 -0.761533 -2.90897 0
M  V30 4392 C 401.142 -0.728926 -3.04394 0
M  V30 4393 C 401.617 -1.29667 -4.39261 0
M  V30 4394 N 403.108 -1.25799 -4.4579 0
M  V30 4395 C 403.843 -1.66733 -5.48623 0
M  V30 4396 N 403.339 -2.15327 -6.58488 0
M  V30 4397 N 405.132 -1.58061 -5.39419 0
M  V30 4398 H 397.283 -1.48778 -1.51588 0
M  V30 4399 H 399.546 -0.617968 -0.718901 0
M  V30 4400 H 399.252 -1.81136 -3.01468 0
M  V30 4401 H 399.126 -0.230106 -3.76497 0
M  V30 4402 H 401.513 0.312098 -2.93445 0
M  V30 4403 H 401.594 -1.29766 -2.20442 0
M  V30 4404 H 401.238 -2.33655 -4.50963 0
M  V30 4405 H 401.168 -0.703752 -5.21876 0
M  V30 4406 H 403.659 -0.902102 -3.66975 0
M  V30 4407 H 403.972 -2.44594 -7.33071 0
M  V30 4408 H 402.317 -2.19311 -6.59491 0
M  V30 4409 H 405.508 -1.19906 -4.52482 0
M  V30 4410 H 405.681 -1.90284 -6.19432 0
M  V30 4411 N 399.087 1.5561 -0.249682 0
M  V30 4412 C 400.017 2.24477 0.642826 0
M  V30 4413 C 400.998 1.22601 1.17911 0
M  V30 4414 O 402.183 1.5126 1.21795 0
M  V30 4415 C 399.313 2.94638 1.83863 0
M  V30 4416 C 398.267 4.03227 1.435 0
M  V30 4417 C 397.593 4.60828 2.71186 0
M  V30 4418 C 398.893 5.18796 0.604002 0
M  V30 4419 H 400.587 2.99321 0.0685625 0
M  V30 4420 H 398.133 1.43965 0.0315363 0
M  V30 4421 H 400.086 3.41517 2.46868 0
M  V30 4422 H 398.81 2.17287 2.43832 0
M  V30 4423 H 397.469 3.57121 0.828275 0
M  V30 4424 H 397.117 3.80174 3.29358 0
M  V30 4425 H 396.817 5.34132 2.44901 0
M  V30 4426 H 398.341 5.10442 3.35084 0
M  V30 4427 H 399.755 5.61883 1.13842 0
M  V30 4428 H 398.152 5.98506 0.437097 0
M  V30 4429 H 399.222 4.83384 -0.383147 0
M  V30 4430 N 400.565 -0.0233959 1.57583 0
M  V30 4431 C 401.795 -0.723631 1.93513 0
M  V30 4432 C 402.203 -1.69115 0.848333 0
M  V30 4433 O 401.546 -1.82781 -0.183484 0
M  V30 4434 C 401.608 -1.53075 3.25282 0
M  V30 4435 C 401.272 -0.727388 4.51174 0
M  V30 4436 C 402.269 -0.0251924 5.19894 0
M  V30 4437 C 399.954 -0.680256 4.97672 0
M  V30 4438 C 401.948 0.713374 6.33395 0
M  V30 4439 C 399.635 0.0620523 6.11068 0
M  V30 4440 C 400.633 0.757622 6.78785 0
M  V30 4441 O 400.321 1.48787 7.90011 0
M  V30 4442 H 400.053 -0.208051 0.643188 0
M  V30 4443 H 402.607 0.0167489 2.05393 0
M  V30 4444 H 400.837 -2.31508 3.09744 0
M  V30 4445 H 402.526 -2.11413 3.46496 0
M  V30 4446 H 403.292 -0.0526003 4.84971 0
M  V30 4447 H 399.171 -1.21116 4.44805 0
M  V30 4448 H 402.715 1.25683 6.86185 0
M  V30 4449 H 398.612 0.0913634 6.45435 0
M  V30 4450 H 399.38 1.40213 8.06401 0
M  V30 4451 N 402.043 -1.548 -0.295768 0
M  V30 4452 C 403.292 -1.73538 -1.02798 0
M  V30 4453 C 403.605 -0.531159 -1.8825 0
M  V30 4454 O 404.811 -0.600458 -2.64777 0
M  V30 4455 C 403.267 -3.07051 -1.87744 0
M  V30 4456 C 402.875 -4.34968 -1.07269 0
M  V30 4457 C 404.619 -3.35146 -2.60533 0
M  V30 4458 C 402.526 -5.5953 -1.91521 0
M  V30 4459 H 401.456 -0.646794 -0.387522 0
M  V30 4460 H 404.107 -1.81278 -0.284718 0
M  V30 4461 H 402.489 -2.93289 -2.66078 0
M  V30 4462 H 403.663 -4.5958 -0.335117 0
M  V30 4463 H 401.978 -4.13847 -0.460384 0
M  V30 4464 H 404.575 -4.2541 -3.23929 0
M  V30 4465 H 404.918 -2.54255 -3.29636 0
M  V30 4466 H 405.451 -3.49902 -1.89244 0
M  V30 4467 H 402.19 -6.43103 -1.26878 0
M  V30 4468 H 401.71 -5.39096 -2.62937 0
M  V30 4469 H 403.389 -5.96982 -2.49442 0
M  V30 4470 N 403.521 0.559213 -1.47345 0
M  V30 4471 C 404.469 1.68747 -1.60085 0
M  V30 4472 C 405.463 1.628 -0.46825 0
M  V30 4473 O 406.669 1.68009 -0.645977 0
M  V30 4474 H 403.044 0.558329 -0.503759 0
M  V30 4475 H 405.015 1.55138 -2.54902 0
M  V30 4476 C 403.764 3.07103 -1.63042 0
M  V30 4477 H 403.087 3.12361 -2.49541 0
M  V30 4478 H 404.527 3.85743 -1.76006 0
M  V30 4479 C 402.986 3.34935 -0.363357 0
M  V30 4480 O 403.516 3.98102 0.536416 0
M  V30 4481 N 401.722 2.89574 -0.244 0
M  V30 4482 H 401.269 2.38348 -0.977133 0
M  V30 4483 H 401.227 3.08566 0.602836 0
M  V30 4484 N 404.999 1.35443 0.805782 0
M  V30 4485 C 406.246 1.28761 1.56291 0
M  V30 4486 C 406.574 -0.137747 1.94012 0
M  V30 4487 O 405.829 -1.1032 1.61642 0
M  V30 4488 C 406.128 2.14045 2.86216 0
M  V30 4489 C 405.794 3.62826 2.67709 0
M  V30 4490 C 404.456 4.0338 2.6237 0
M  V30 4491 C 406.808 4.57227 2.50186 0
M  V30 4492 C 404.136 5.36501 2.37451 0
M  V30 4493 C 406.488 5.90547 2.26797 0
M  V30 4494 C 405.152 6.30245 2.1988 0
M  V30 4495 H 404.422 0.471171 0.571908 0
M  V30 4496 H 407.069 1.67347 0.930974 0
M  V30 4497 H 405.374 1.68342 3.53791 0
M  V30 4498 H 407.071 2.0621 3.43917 0
M  V30 4499 H 403.661 3.30644 2.72713 0
M  V30 4500 H 407.845 4.2678 2.53323 0
M  V30 4501 H 403.101 5.66259 2.30567 0
M  V30 4502 H 407.275 6.63274 2.12228 0
M  V30 4503 H 404.902 7.33328 2.00333 0
M  V30 4504 N 406.477 -1.02803 1.19454 0
M  V30 4505 C 407.705 -1.79841 1.02297 0
M  V30 4506 C 408.12 -1.83879 -0.428259 0
M  V30 4507 O 407.477 -1.28345 -1.29745 0
M  V30 4508 C 407.528 -3.24852 1.58598 0
M  V30 4509 O 407.249 -3.21097 2.98041 0
M  V30 4510 C 408.75 -4.18485 1.46236 0
M  V30 4511 H 405.97 -0.565936 0.360496 0
M  V30 4512 H 408.514 -1.2948 1.58288 0
M  V30 4513 H 406.669 -3.72401 1.06753 0
M  V30 4514 H 407.083 -4.12033 3.24545 0
M  V30 4515 H 408.557 -5.18121 1.90407 0
M  V30 4516 H 409.034 -4.37254 0.41301 0
M  V30 4517 H 409.64 -3.76811 1.97215 0
M  V30 4518 N 407.956 -0.998596 -1.21925 0
M  V30 4519 C 408.886 -0.573688 -2.26343 0
M  V30 4520 C 409.867 0.402296 -1.65274 0
M  V30 4521 O 411.052 0.291683 -1.91997 0
M  V30 4522 C 408.182 0.106839 -3.47136 0
M  V30 4523 C 407.136 -0.788269 -4.20678 0
M  V30 4524 C 406.462 0.0254927 -5.34694 0
M  V30 4525 C 407.762 -2.08784 -4.78755 0
M  V30 4526 H 409.456 -1.44651 -2.62138 0
M  V30 4527 H 407.002 -0.696975 -1.26009 0
M  V30 4528 H 408.955 0.415531 -4.19346 0
M  V30 4529 H 407.679 1.01424 -3.10452 0
M  V30 4530 H 406.338 -1.08069 -3.50309 0
M  V30 4531 H 405.986 0.933989 -4.94253 0
M  V30 4532 H 405.686 -0.570437 -5.84825 0
M  V30 4533 H 407.21 0.328147 -6.09718 0
M  V30 4534 H 408.624 -1.84272 -5.42878 0
M  V30 4535 H 407.021 -2.63307 -5.39249 0
M  V30 4536 H 408.091 -2.76284 -3.98491 0
M  V30 4537 N 409.434 1.37368 -0.772513 0
M  V30 4538 C 410.85 1.53059 -0.452231 0
M  V30 4539 C 411.05 1.73065 1.03203 0
M  V30 4540 O 410.106 1.75245 1.81784 0
M  V30 4541 C 411.419 2.72659 -1.26797 0
M  V30 4542 C 412.967 2.86521 -1.25995 0
M  V30 4543 C 413.442 4.09105 -2.05905 0
M  V30 4544 N 414.933 4.16219 -2.03263 0
M  V30 4545 C 415.668 5.10107 -2.61875 0
M  V30 4546 N 415.164 6.09547 -3.29278 0
M  V30 4547 N 416.957 5.02596 -2.51701 0
M  V30 4548 H 409.108 1.22634 -1.7342 0
M  V30 4549 H 411.371 0.597206 -0.736239 0
M  V30 4550 H 411.077 2.64343 -2.31982 0
M  V30 4551 H 410.951 3.66363 -0.897672 0
M  V30 4552 H 413.338 2.94308 -0.216081 0
M  V30 4553 H 413.419 1.93774 -1.66989 0
M  V30 4554 H 413.063 4.0208 -3.10313 0
M  V30 4555 H 412.993 5.00968 -1.62292 0
M  V30 4556 H 415.484 3.45012 -1.54192 0
M  V30 4557 H 415.797 6.77718 -3.71374 0
M  V30 4558 H 414.142 6.09824 -3.33377 0
M  V30 4559 H 417.333 4.23855 -1.98657 0
M  V30 4560 H 417.506 5.75582 -2.97673 0
M  V30 4561 N 410.912 0.523116 1.48665 0
M  V30 4562 C 412.328 0.180511 1.58576 0
M  V30 4563 C 412.528 -1.31597 1.52592 0
M  V30 4564 O 411.584 -2.0937 1.4114 0
M  V30 4565 C 412.897 0.776949 2.90489 0
M  V30 4566 C 414.445 0.745058 3.04003 0
M  V30 4567 C 414.92 1.31995 4.38567 0
M  V30 4568 N 416.411 1.28162 4.45117 0
M  V30 4569 C 417.146 1.6964 5.47731 0
M  V30 4570 N 416.642 2.18816 6.57337 0
M  V30 4571 N 418.435 1.6092 5.38573 0
M  V30 4572 H 410.586 1.4958 1.50797 0
M  V30 4573 H 412.849 0.621772 0.715614 0
M  V30 4574 H 412.555 1.82732 3.00503 0
M  V30 4575 H 412.429 0.25007 3.7637 0
M  V30 4576 H 414.816 -0.296532 2.93606 0
M  V30 4577 H 414.897 1.30933 2.1975 0
M  V30 4578 H 414.541 2.36043 4.49718 0
M  V30 4579 H 414.471 0.731418 5.21496 0
M  V30 4580 H 416.962 0.92155 3.66491 0
M  V30 4581 H 417.275 2.48478 7.31764 0
M  V30 4582 H 415.62 2.22805 6.58318 0
M  V30 4583 H 418.811 1.22304 4.5184 0
M  V30 4584 H 418.984 1.93567 6.18414 0
M  V30 4585 N 412.39 -1.55475 0.257931 0
M  V30 4586 C 413.34 -2.18506 -0.651094 0
M  V30 4587 C 414.324 -1.14431 -1.13112 0
M  V30 4588 O 415.516 -1.40305 -1.07905 0
M  V30 4589 C 412.645 -2.89653 -1.84272 0
M  V30 4590 C 411.731 -4.00996 -1.38068 0
M  V30 4591 N 412.122 -5.01816 -0.633609 0
M  V30 4592 C 410.42 -4.13753 -1.66506 0
M  V30 4593 C 411.121 -5.80371 -0.392922 0
M  V30 4594 N 410.097 -5.3505 -0.960359 0
M  V30 4595 H 413.899 -2.93811 -0.0722883 0
M  V30 4596 H 411.413 -1.62286 0.0607256 0
M  V30 4597 H 413.41 -3.33245 -2.50506 0
M  V30 4598 H 412.07 -2.15854 -2.42564 0
M  V30 4599 H 413.081 -5.17128 -0.282626 0
M  V30 4600 H 409.758 -3.51133 -2.25858 0
M  V30 4601 H 411.148 -6.7159 0.204235 0
M  V30 4602 N 413.868 0.0150385 -1.57593 0
M  V30 4603 C 415.117 0.702115 -1.89085 0
M  V30 4604 C 415.43 1.75764 -0.858277 0
M  V30 4605 O 416.636 2.49829 -1.0629 0
M  V30 4606 C 415.092 1.29992 -3.35604 0
M  V30 4607 C 414.7 0.280007 -4.47124 0
M  V30 4608 C 416.444 1.96606 -3.76227 0
M  V30 4609 C 414.351 0.886949 -5.84711 0
M  V30 4610 H 413.281 0.265997 -0.705522 0
M  V30 4611 H 415.932 -0.0430408 -1.8345 0
M  V30 4612 H 414.314 2.09525 -3.36029 0
M  V30 4613 H 415.488 -0.489631 -4.58191 0
M  V30 4614 H 413.803 -0.284835 -4.15425 0
M  V30 4615 H 416.4 2.42893 -4.76347 0
M  V30 4616 H 416.743 2.79024 -3.08952 0
M  V30 4617 H 417.276 1.23828 -3.78036 0
M  V30 4618 H 414.015 0.101876 -6.55421 0
M  V30 4619 H 413.535 1.6261 -5.77337 0
M  V30 4620 H 415.214 1.39011 -6.3189 0
M  V30 4621 N 415.346 1.54954 0.287554 0
M  V30 4622 C 416.593 1.74873 1.02106 0
M  V30 4623 C 416.921 0.541829 1.86801 0
M  V30 4624 O 416.176 -0.475992 1.89823 0
M  V30 4625 C 416.475 2.99833 1.94512 0
M  V30 4626 C 416.141 4.33029 1.25686 0
M  V30 4627 C 414.803 4.69233 1.06649 0
M  V30 4628 C 417.155 5.15542 0.765913 0
M  V30 4629 C 414.483 5.85518 0.372222 0
M  V30 4630 C 416.835 6.32542 0.0853101 0
M  V30 4631 C 415.499 6.67398 -0.1169 0
M  V30 4632 H 414.769 0.639906 0.373632 0
M  V30 4633 H 417.416 1.89219 0.294665 0
M  V30 4634 H 415.721 2.80325 2.73725 0
M  V30 4635 H 417.418 3.1244 2.51361 0
M  V30 4636 H 414.008 4.04564 1.41512 0
M  V30 4637 H 418.192 4.88059 0.90066 0
M  V30 4638 H 413.448 6.11057 0.204695 0
M  V30 4639 H 417.622 6.95741 -0.302936 0
M  V30 4640 H 415.249 7.57357 -0.656859 0
M  V30 4641 N 416.824 -0.551391 1.4764 0
M  V30 4642 C 418.071 -1.3083 1.54563 0
M  V30 4643 C 418.399 -1.93359 0.210361 0
M  V30 4644 O 417.654 -1.78721 -0.797332 0
M  V30 4645 C 417.953 -2.43469 2.61644 0
M  V30 4646 C 417.619 -1.98732 4.04742 0
M  V30 4647 C 416.281 -1.86248 4.43695 0
M  V30 4648 C 418.633 -1.64659 4.94507 0
M  V30 4649 C 415.961 -1.37995 5.70241 0
M  V30 4650 C 418.313 -1.17875 6.21521 0
M  V30 4651 C 416.977 -1.03992 6.5935 0
M  V30 4652 H 416.247 -0.478741 0.565587 0
M  V30 4653 H 418.894 -0.617697 1.81264 0
M  V30 4654 H 417.199 -3.18109 2.28722 0
M  V30 4655 H 418.896 -3.01642 2.64222 0
M  V30 4656 H 415.486 -2.09393 3.73968 0
M  V30 4657 H 419.67 -1.73174 4.65107 0
M  V30 4658 H 414.926 -1.25915 5.98294 0
M  V30 4659 H 419.1 -0.905739 6.90485 0
M  V30 4660 H 416.727 -0.663794 7.57296 0
M  V30 4661 N 418.302 -1.35869 -0.798587 0
M  V30 4662 C 419.549 -1.29588 -1.55606 0
M  V30 4663 C 419.877 0.127456 -1.94082 0
M  V30 4664 O 419.132 1.09461 -1.62225 0
M  V30 4665 C 419.431 -2.1556 -2.85077 0
M  V30 4666 C 419.097 -3.6424 -2.65781 0
M  V30 4667 C 417.759 -4.04766 -2.60227 0
M  V30 4668 C 420.111 -4.58547 -2.47758 0
M  V30 4669 C 417.439 -5.37753 -2.34603 0
M  V30 4670 C 419.791 -5.91742 -2.23662 0
M  V30 4671 C 418.455 -6.31402 -2.16534 0
M  V30 4672 H 417.725 -0.474197 -0.569402 0
M  V30 4673 H 420.372 -1.67839 -0.922086 0
M  V30 4674 H 418.677 -1.70216 -3.52893 0
M  V30 4675 H 420.374 -2.08031 -3.42818 0
M  V30 4676 H 416.964 -3.32086 -2.70956 0
M  V30 4677 H 421.148 -4.28117 -2.51056 0
M  V30 4678 H 416.404 -5.67474 -2.2756 0
M  V30 4679 H 420.578 -6.6439 -2.08708 0
M  V30 4680 H 418.205 -7.34381 -1.96441 0
M  V30 4681 N 419.78 1.02168 -1.19998 0
M  V30 4682 C 420.71 2.12488 -0.96804 0
M  V30 4683 C 421.691 1.69799 0.101185 0
M  V30 4684 O 422.876 1.94121 -0.0552993 0
M  V30 4685 C 420.006 3.43479 -0.513776 0
M  V30 4686 C 418.96 3.99884 -1.52566 0
M  V30 4687 C 418.286 5.26582 -0.928214 0
M  V30 4688 C 419.586 4.33861 -2.90795 0
M  V30 4689 H 421.28 2.32149 -1.89069 0
M  V30 4690 H 418.826 1.11564 -0.910468 0
M  V30 4691 H 420.779 4.20036 -0.338774 0
M  V30 4692 H 419.503 3.23561 0.444493 0
M  V30 4693 H 418.162 3.25429 -1.68794 0
M  V30 4694 H 417.81 5.02986 0.0378289 0
M  V30 4695 H 417.51 5.65284 -1.60397 0
M  V30 4696 H 419.034 6.05799 -0.764167 0
M  V30 4697 H 420.448 5.01327 -2.78109 0
M  V30 4698 H 418.845 4.83664 -3.55231 0
M  V30 4699 H 419.915 3.42848 -3.42904 0
M  V30 4700 N 421.258 1.00505 1.21394 0
M  V30 4701 C 422.188 0.585684 2.26035 0
M  V30 4702 C 423.169 -0.393525 1.65485 0
M  V30 4703 O 424.354 -0.281497 1.92149 0
M  V30 4704 C 421.484 -0.0884283 3.47187 0
M  V30 4705 C 420.438 0.810567 4.20254 0
M  V30 4706 C 419.764 0.00286382 5.347 0
M  V30 4707 C 421.064 2.1132 4.77641 0
M  V30 4708 H 422.758 1.46039 2.61368 0
M  V30 4709 H 420.304 0.703648 1.25638 0
M  V30 4710 H 422.257 -0.393286 4.19561 0
M  V30 4711 H 420.981 -0.997766 3.10986 0
M  V30 4712 H 419.64 1.09925 3.49731 0
M  V30 4713 H 419.288 -0.907765 4.94741 0
M  V30 4714 H 418.988 0.601444 5.84514 0
M  V30 4715 H 420.512 -0.295808 6.09883 0
M  V30 4716 H 421.926 1.87148 5.41893 0
M  V30 4717 H 420.323 2.66164 5.37845 0
M  V30 4718 H 421.393 2.78393 3.9702 0
M  V30 4719 N 422.737 -1.36956 0.779787 0
M  V30 4720 C 423.669 -2.28833 0.129639 0
M  V30 4721 C 424.682 -1.4902 -0.655511 0
M  V30 4722 O 425.871 -1.71578 -0.492279 0
M  V30 4723 C 422.971 -3.2833 -0.839792 0
M  V30 4724 C 422.144 -4.3727 -0.10675 0
M  V30 4725 C 421.203 -5.16789 -0.990717 0
M  V30 4726 O 420.229 -5.67406 -0.451516 0
M  V30 4727 N 421.431 -5.32294 -2.3161 0
M  V30 4728 H 424.196 -2.85268 0.918803 0
M  V30 4729 H 421.757 -1.49019 0.632841 0
M  V30 4730 H 423.749 -3.78413 -1.43477 0
M  V30 4731 H 422.319 -2.72605 -1.52988 0
M  V30 4732 H 421.539 -3.88478 0.669216 0
M  V30 4733 H 422.827 -5.07229 0.399464 0
M  V30 4734 H 422.225 -4.92768 -2.77843 0
M  V30 4735 H 420.782 -5.85656 -2.86095 0
M  V30 4736 N 424.215 -0.530993 -1.48385 0
M  V30 4737 C 425.443 -0.00134122 -2.069 0
M  V30 4738 C 425.858 1.2805 -1.3874 0
M  V30 4739 O 425.215 1.76204 -0.475244 0
M  V30 4740 C 425.266 0.225256 -3.60798 0
M  V30 4741 O 424.987 -1.0058 -4.26398 0
M  V30 4742 C 426.488 0.795172 -4.3611 0
M  V30 4743 H 423.708 -0.0339704 -0.67014 0
M  V30 4744 H 426.252 -0.736926 -1.90761 0
M  V30 4745 H 424.407 0.910891 -3.76539 0
M  V30 4746 H 424.821 -0.787165 -5.1856 0
M  V30 4747 H 426.295 0.903143 -5.44562 0
M  V30 4748 H 426.772 1.80031 -4.00606 0
M  V30 4749 H 427.378 0.146069 -4.25049 0
M  V30 4750 N 425.693 1.55336 -0.266172 0
M  V30 4751 C 426.923 2.03506 0.356239 0
M  V30 4752 C 427.331 1.14426 1.50676 0
M  V30 4753 O 426.674 0.155043 1.83045 0
M  V30 4754 C 426.736 3.47848 0.90785 0
M  V30 4755 C 426.4 4.56861 -0.112888 0
M  V30 4756 C 427.397 5.11528 -0.929264 0
M  V30 4757 C 425.082 5.01704 -0.244546 0
M  V30 4758 C 427.076 6.09549 -1.86357 0
M  V30 4759 C 424.763 5.99553 -1.18234 0
M  V30 4760 C 425.761 6.53356 -1.99036 0
M  V30 4761 O 425.449 7.49293 -2.91231 0
M  V30 4762 H 425.181 0.670444 0.08649 0
M  V30 4763 H 427.735 2.01598 -0.39337 0
M  V30 4764 H 425.965 3.46967 1.70737 0
M  V30 4765 H 427.654 3.79407 1.44239 0
M  V30 4766 H 428.42 4.77701 -0.838237 0
M  V30 4767 H 424.299 4.59477 0.374359 0
M  V30 4768 H 427.843 6.51469 -2.49467 0
M  V30 4769 H 423.74 6.32799 -1.27421 0
M  V30 4770 H 424.508 7.66978 -2.8581 0
M  V30 4771 N 427.171 -0.0066808 1.57599 0
M  V30 4772 C 428.418 -0.69292 1.90276 0
M  V30 4773 C 428.746 -1.74148 0.866192 0
M  V30 4774 O 428.001 -1.95268 -0.129933 0
M  V30 4775 C 428.3 -1.37939 3.29708 0
M  V30 4776 C 427.966 -0.464679 4.48499 0
M  V30 4777 C 426.628 -0.212809 4.80729 0
M  V30 4778 C 428.98 0.16551 5.20937 0
M  V30 4779 C 426.308 0.677653 5.82773 0
M  V30 4780 C 428.66 1.04381 6.23929 0
M  V30 4781 C 427.324 1.30492 6.54621 0
M  V30 4782 H 426.594 -0.253558 0.696268 0
M  V30 4783 H 429.241 0.0474123 1.91441 0
M  V30 4784 H 427.546 -2.1936 3.24636 0
M  V30 4785 H 429.243 -1.9163 3.52249 0
M  V30 4786 H 425.833 -0.671153 4.23313 0
M  V30 4787 H 430.017 -0.0160756 4.96297 0
M  V30 4788 H 425.273 0.88803 6.04917 0
M  V30 4789 H 429.447 1.53851 6.79193 0
M  V30 4790 H 427.074 1.99662 7.33512 0
M  V30 4791 N 428.649 -1.55105 -0.279332 0
M  V30 4792 C 430.06 -1.66186 -0.850832 0
M  V30 4793 C 430.411 -0.584707 -1.87285 0
M  V30 4794 O 429.536 0.274919 -2.14647 0
M  V30 4795 C 430.131 -3.01264 -1.55001 0
M  V30 4796 C 428.69 -3.14394 -2.06963 0
M  V30 4797 C 427.837 -2.61959 -0.909536 0
M  V30 4798 H 430.788 -1.58602 -0.0558235 0
M  V30 4799 H 430.809 -2.93899 -2.41669 0
M  V30 4800 H 430.321 -3.7964 -0.805931 0
M  V30 4801 H 428.422 -2.4078 -2.84352 0
M  V30 4802 H 428.535 -4.20867 -2.28928 0
M  V30 4803 H 426.899 -2.18957 -1.30116 0
M  V30 4804 H 427.682 -3.42833 -0.179062 0
M  V30 4805 N 430.127 0.543554 -1.4793 0
M  V30 4806 C 431.09 1.63156 -1.60975 0
M  V30 4807 C 432.09 1.53346 -0.483899 0
M  V30 4808 O 433.28 1.5726 -0.749339 0
M  V30 4809 C 430.412 3.02743 -1.56716 0
M  V30 4810 H 431.605 1.52934 -2.57975 0
M  V30 4811 H 429.158 0.764557 -1.36324 0
M  V30 4812 H 429.893 3.18484 -0.611418 0
M  V30 4813 H 429.678 3.11272 -2.38438 0
M  V30 4814 H 431.168 3.81871 -1.6901 0
M  V30 4815 N 431.605 1.3629 0.791371 0
M  V30 4816 C 432.833 1.33562 1.58016 0
M  V30 4817 C 433.248 -0.0835616 1.88615 0
M  V30 4818 O 432.605 -1.0399 1.49974 0
M  V30 4819 C 432.656 2.15517 2.90232 0
M  V30 4820 O 432.377 3.51902 2.60953 0
M  V30 4821 C 433.878 2.20546 3.84544 0
M  V30 4822 H 431.098 0.458226 0.490173 0
M  V30 4823 H 433.642 1.79361 0.982345 0
M  V30 4824 H 431.797 1.73278 3.46487 0
M  V30 4825 H 432.211 3.94644 3.4548 0
M  V30 4826 H 433.685 2.82252 4.74382 0
M  V30 4827 H 434.162 1.20838 4.2225 0
M  V30 4828 H 434.768 2.63013 3.34222 0
M  V30 4829 N 433.083 -1.0153 1.20538 0
M  V30 4830 C 434.013 -2.11972 0.979295 0
M  V30 4831 C 434.994 -1.6985 -0.0921787 0
M  V30 4832 O 436.179 -1.94089 0.0655932 0
M  V30 4833 C 433.309 -3.43201 0.531984 0
M  V30 4834 C 432.263 -3.9907 1.54685 0
M  V30 4835 C 431.589 -5.26082 0.956127 0
M  V30 4836 C 432.889 -4.32313 2.93092 0
M  V30 4837 H 434.583 -2.31143 1.90298 0
M  V30 4838 H 432.129 -1.11079 0.916372 0
M  V30 4839 H 434.082 -4.1985 0.361044 0
M  V30 4840 H 432.806 -3.23792 -0.427327 0
M  V30 4841 H 431.465 -3.2453 1.70517 0
M  V30 4842 H 431.113 -5.02999 -0.0111538 0
M  V30 4843 H 430.813 -5.64426 1.63393 0
M  V30 4844 H 432.337 -6.05386 0.796284 0
M  V30 4845 H 433.751 -4.99845 2.80763 0
M  V30 4846 H 432.148 -4.81774 3.57791 0
M  V30 4847 H 433.218 -3.41025 3.44717 0
M  V30 4848 N 434.561 -1.01147 -1.20859 0
M  V30 4849 C 435.494 -0.522108 -2.22147 0
M  V30 4850 C 436.472 0.427686 -1.56874 0
M  V30 4851 O 437.656 0.34889 -1.85243 0
M  V30 4852 C 434.783 0.240819 -3.37843 0
M  V30 4853 C 433.829 -0.657752 -4.21398 0
M  V30 4854 S 434.662 -2.12393 -4.91578 0
M  V30 4855 C 435.818 -1.37102 -6.10699 0
M  V30 4856 H 436.051 -1.38035 -2.63313 0
M  V30 4857 H 433.584 -0.819941 -1.30829 0
M  V30 4858 H 435.542 0.674908 -4.04914 0
M  V30 4859 H 434.203 1.07457 -2.95147 0
M  V30 4860 H 433.396 -0.0697456 -5.03952 0
M  V30 4861 H 432.998 -1.0294 -3.59555 0
M  V30 4862 H 435.29 -0.648315 -6.74391 0
M  V30 4863 H 436.233 -2.17252 -6.73949 0
M  V30 4864 H 436.641 -0.876154 -5.57659 0
M  V30 4865 N 436.039 1.36541 -0.78704 0
M  V30 4866 C 437.285 1.99599 -0.358872 0
M  V30 4867 C 437.618 1.62323 1.06606 0
M  V30 4868 O 436.893 0.876858 1.73613 0
M  V30 4869 C 437.176 3.56327 -0.519944 0
M  V30 4870 C 437.029 4.03464 -1.98839 0
M  V30 4871 C 438.348 4.4005 0.0664737 0
M  V30 4872 H 435.467 0.725107 -0.131869 0
M  V30 4873 H 438.109 1.6199 -0.992936 0
M  V30 4874 H 436.259 3.88495 0.0198321 0
M  V30 4875 H 437.931 3.81793 -2.58905 0
M  V30 4876 H 436.174 3.55092 -2.49183 0
M  V30 4877 H 436.845 5.12439 -2.05207 0
M  V30 4878 H 439.321 4.14228 -0.394267 0
M  V30 4879 H 438.197 5.48847 -0.0762682 0
M  V30 4880 H 438.458 4.26655 1.15835 0
M  V30 4881 N 437.518 0.538854 1.48102 0
M  V30 4882 C 438.451 -0.266495 2.26639 0
M  V30 4883 C 439.429 -0.93687 1.32897 0
M  V30 4884 O 440.613 -0.959507 1.62252 0
M  V30 4885 C 437.74 -1.37814 3.09394 0
M  V30 4886 C 436.786 -0.818247 4.18577 0
M  V30 4887 S 437.619 0.320848 5.34538 0
M  V30 4888 C 438.775 -0.793059 6.20855 0
M  V30 4889 H 439.008 0.399994 2.94597 0
M  V30 4890 H 436.541 0.324808 1.50945 0
M  V30 4891 H 438.499 -2.01488 3.57649 0
M  V30 4892 H 437.16 -2.01639 2.40833 0
M  V30 4893 H 436.353 -1.65247 4.7614 0
M  V30 4894 H 435.955 -0.258036 3.73109 0
M  V30 4895 H 438.247 -1.68961 6.56093 0
M  V30 4896 H 439.19 -0.255204 7.0764 0
M  V30 4897 H 439.598 -1.07746 5.54122 0
M  V30 4898 N 438.996 -1.55193 0.274407 0
M  V30 4899 C 439.926 -2.25471 -0.607032 0
M  V30 4900 C 440.907 -1.24461 -1.15946 0
M  V30 4901 O 442.092 -1.53179 -1.19373 0
M  V30 4902 C 439.222 -2.97526 -1.79153 0
M  V30 4903 C 438.176 -4.05459 -1.37067 0
M  V30 4904 C 437.502 -4.65084 -2.6382 0
M  V30 4905 C 438.802 -5.19691 -0.521389 0
M  V30 4906 H 440.496 -2.99393 -0.0209343 0
M  V30 4907 H 438.042 -1.43997 -0.00862866 0
M  V30 4908 H 439.995 -3.45402 -2.41404 0
M  V30 4909 H 438.719 -2.21138 -2.40344 0
M  V30 4910 H 437.378 -3.58393 -0.771355 0
M  V30 4911 H 437.026 -3.85365 -3.23268 0
M  V30 4912 H 436.726 -5.37961 -2.36372 0
M  V30 4913 H 438.25 -5.15708 -3.26921 0
M  V30 4914 H 439.664 -5.63623 -1.04889 0
M  V30 4915 H 438.061 -5.99126 -0.341825 0
M  V30 4916 H 439.131 -4.82713 0.46 0
M  V30 4917 N 440.474 -0.00167713 -1.576 0
M  V30 4918 C 441.699 0.69739 -1.95323 0
M  V30 4919 C 442.124 1.6642 -0.876706 0
M  V30 4920 O 441.482 1.80548 0.165007 0
M  V30 4921 C 441.53 1.40403 -3.32144 0
M  V30 4922 O 440.634 2.5185 -3.26566 0
M  V30 4923 H 439.975 0.185373 -0.637599 0
M  V30 4924 H 442.505 -0.0553665 -2.04525 0
M  V30 4925 H 442.515 1.76707 -3.67748 0
M  V30 4926 H 441.19 0.695167 -4.10049 0
M  V30 4927 H 439.767 2.17861 -3.0264 0
M  V30 4928 N 441.952 1.55251 0.271103 0
M  V30 4929 C 443.198 1.7713 0.999832 0
M  V30 4930 C 443.553 0.56659 1.83868 0
M  V30 4931 O 442.846 -0.44069 1.86463 0
M  V30 4932 C 443.04 3.01879 1.91321 0
M  V30 4933 C 442.869 4.34368 1.16426 0
M  V30 4934 C 441.639 4.97593 0.879169 0
M  V30 4935 C 443.837 5.1131 0.553749 0
M  V30 4936 N 441.819 6.13813 0.103618 0
M  V30 4937 C 443.19 6.19938 -0.0875442 0
M  V30 4938 C 445.245 4.95754 0.461782 0
M  V30 4939 C 443.948 7.14703 -0.811942 0
M  V30 4940 C 445.974 5.90875 -0.249027 0
M  V30 4941 C 445.336 6.98893 -0.879051 0
M  V30 4942 H 441.435 0.700407 0.347784 0
M  V30 4943 H 444.019 1.92744 0.275314 0
M  V30 4944 H 442.19 2.87637 2.60997 0
M  V30 4945 H 443.922 3.12154 2.57569 0
M  V30 4946 H 440.677 4.58538 1.18491 0
M  V30 4947 H 441.101 6.76455 -0.271543 0
M  V30 4948 H 445.743 4.12342 0.934552 0
M  V30 4949 H 443.461 7.97634 -1.29639 0
M  V30 4950 H 447.047 5.80916 -0.320529 0
M  V30 4951 H 445.927 7.71231 -1.42031 0
M  V30 4952 N 443.43 -0.535701 1.48216 0
M  V30 4953 C 444.676 -1.29375 1.56173 0
M  V30 4954 C 445.009 -1.92804 0.232429 0
M  V30 4955 O 444.284 -1.78992 -0.761048 0
M  V30 4956 C 444.567 -2.38747 2.69577 0
M  V30 4957 C 444.42 -1.80046 4.12193 0
M  V30 4958 C 445.739 -3.40551 2.78771 0
M  V30 4959 H 442.858 -0.469027 0.568491 0
M  V30 4960 H 445.5 -0.597358 1.80365 0
M  V30 4961 H 443.65 -2.98147 2.4908 0
M  V30 4962 H 445.322 -1.24742 4.44114 0
M  V30 4963 H 443.565 -1.10609 4.19462 0
M  V30 4964 H 444.236 -2.59212 4.87353 0
M  V30 4965 H 446.712 -2.91099 2.97322 0
M  V30 4966 H 445.588 -4.1448 3.59857 0
M  V30 4967 H 445.849 -4.00746 1.86696 0
M  V30 4968 N 444.908 -1.36708 -0.784132 0
M  V30 4969 C 446.133 -1.34565 -1.5782 0
M  V30 4970 C 446.558 0.0695257 -1.87971 0
M  V30 4971 O 445.916 1.04302 -1.48293 0
M  V30 4972 C 445.964 -2.17952 -2.87279 0
M  V30 4973 O 445.068 -1.57563 -3.81114 0
M  V30 4974 H 444.409 -0.460337 -0.478524 0
M  V30 4975 H 446.939 -1.80064 -0.971495 0
M  V30 4976 H 446.949 -2.30721 -3.365 0
M  V30 4977 H 445.624 -3.20823 -2.64661 0
M  V30 4978 H 444.201 -1.53764 -3.39722 0
M  V30 4979 N 446.386 1.0089 -1.21074 0
M  V30 4980 C 447.633 1.74607 -1.0256 0
M  V30 4981 C 447.961 1.89426 0.44136 0
M  V30 4982 O 447.216 1.42266 1.34384 0
M  V30 4983 C 447.515 3.16335 -1.66334 0
M  V30 4984 C 447.181 3.21474 -3.16173 0
M  V30 4985 C 445.843 3.22583 -3.57062 0
M  V30 4986 C 448.195 3.19025 -4.12156 0
M  V30 4987 C 445.523 3.18925 -4.92446 0
M  V30 4988 C 447.875 3.16909 -5.47496 0
M  V30 4989 C 446.539 3.16326 -5.87787 0
M  V30 4990 H 445.809 0.638933 -0.375294 0
M  V30 4991 H 448.456 1.18274 -1.50611 0
M  V30 4992 H 446.761 3.75876 -1.10566 0
M  V30 4993 H 448.458 3.72083 -1.49516 0
M  V30 4994 H 445.048 3.2135 -2.83605 0
M  V30 4995 H 449.232 3.17332 -3.81595 0
M  V30 4996 H 444.488 3.16809 -5.22917 0
M  V30 4997 H 448.662 3.13968 -6.21609 0
M  V30 4998 H 446.289 3.13246 -6.92662 0
M  V30 4999 N 447.864 1.01787 1.20321 0
M  V30 5000 C 449.11 0.718699 1.90279 0
M  V30 5001 C 449.465 -0.743669 1.77447 0
M  V30 5002 O 448.758 -1.53345 1.14874 0
M  V30 5003 C 448.952 1.09076 3.40349 0
M  V30 5004 C 448.781 2.58775 3.67784 0
M  V30 5005 C 447.551 3.25578 3.86428 0
M  V30 5006 C 449.749 3.56966 3.70243 0
M  V30 5007 N 447.731 4.64495 4.01395 0
M  V30 5008 C 449.102 4.8145 3.90649 0
M  V30 5009 C 451.157 3.5092 3.53213 0
M  V30 5010 C 449.86 6.00619 3.95789 0
M  V30 5011 C 451.886 4.69493 3.59625 0
M  V30 5012 C 451.248 5.92786 3.80505 0
M  V30 5013 H 447.347 0.31468 0.715891 0
M  V30 5014 H 449.931 1.30295 1.44677 0
M  V30 5015 H 448.102 0.534839 3.847 0
M  V30 5016 H 449.834 0.744997 3.97784 0
M  V30 5017 H 446.589 2.76003 3.84862 0
M  V30 5018 H 447.013 5.36624 4.12752 0
M  V30 5019 H 451.655 2.56593 3.36035 0
M  V30 5020 H 449.373 6.95326 4.11762 0
M  V30 5021 H 452.959 4.66432 3.47754 0
M  V30 5022 H 451.839 6.83003 3.85327 0
M  V30 5023 N 449.342 -1.36122 0.79427 0
M  V30 5024 C 450.591 -1.98361 0.365464 0
M  V30 5025 C 450.904 -1.6374 -1.06997 0
M  V30 5026 O 452.11 -2.19251 -1.60129 0
M  V30 5027 C 450.566 -3.54821 0.602496 0
M  V30 5028 C 450.174 -3.98362 2.04967 0
M  V30 5029 C 451.918 -4.2383 0.238437 0
M  V30 5030 C 449.825 -5.47619 2.2331 0
M  V30 5031 H 448.755 -0.742193 0.13291 0
M  V30 5032 H 451.406 -1.55354 0.976589 0
M  V30 5033 H 449.788 -3.95922 -0.078409 0
M  V30 5034 H 450.962 -3.68447 2.76737 0
M  V30 5035 H 449.277 -3.42206 2.37243 0
M  V30 5036 H 451.874 -5.33529 0.353705 0
M  V30 5037 H 452.217 -4.08264 -0.814006 0
M  V30 5038 H 452.75 -3.88108 0.872769 0
M  V30 5039 H 449.489 -5.68138 3.26955 0
M  V30 5040 H 449.009 -5.79145 1.5605 0
M  V30 5041 H 450.688 -6.13911 2.0426 0
M  V30 5042 N 450.82 -0.546701 -1.47814 0
M  V30 5043 C 452.097 0.0464413 -1.95545 0
M  V30 5044 C 452.477 1.4962 -1.48919 0
M  V30 5045 O 451.825 2.16752 -0.723232 0
M  V30 5046 C 452.035 -0.0881298 -3.48889 0
M  V30 5047 C 453.383 0.0626059 -4.24554 0
M  V30 5048 O 454.407 -0.0151555 -3.56197 0
M  V30 5049 O 453.266 0.228071 -5.46024 0
M  V30 5050 H 450.36 0.0700004 -0.824032 0
M  V30 5051 H 452.906 -0.612482 -1.58262 0
M  V30 5052 H 451.678 -1.09737 -3.75597 0
M  V30 5053 H 451.301 0.608886 -3.9291 0
M  V30 5054 N 452.299 1.55045 -0.282633 0
M  V30 5055 C 453.715 1.59441 0.0712997 0
M  V30 5056 C 453.915 1.2998 1.53972 0
M  V30 5057 O 452.971 1.06431 2.28973 0
M  V30 5058 C 454.284 2.99097 -0.310104 0
M  V30 5059 C 455.832 3.1194 -0.257343 0
M  V30 5060 C 456.307 4.53875 -0.613297 0
M  V30 5061 N 457.798 4.5974 -0.565134 0
M  V30 5062 C 458.533 5.67603 -0.81326 0
M  V30 5063 N 458.029 6.83582 -1.1264 0
M  V30 5064 N 459.822 5.57187 -0.741553 0
M  V30 5065 H 451.973 1.72458 -1.23984 0
M  V30 5066 H 454.236 0.804549 -0.501403 0
M  V30 5067 H 453.942 3.25516 -1.33163 0
M  V30 5068 H 453.816 3.75616 0.345366 0
M  V30 5069 H 456.203 2.85281 0.754905 0
M  V30 5070 H 456.284 2.37618 -0.947178 0
M  V30 5071 H 455.928 4.81261 -1.62327 0
M  V30 5072 H 455.858 5.26508 0.09841 0
M  V30 5073 H 458.349 3.76427 -0.333294 0
M  V30 5074 H 458.662 7.6175 -1.30219 0
M  V30 5075 H 457.007 6.85179 -1.16425 0
M  V30 5076 H 460.198 4.65457 -0.496705 0
M  V30 5077 H 460.371 6.41171 -0.938306 0
M  V30 5078 N 453.777 0.010035 1.57597 0
M  V30 5079 C 455.193 -0.346164 1.55801 0
M  V30 5080 C 455.393 -1.74144 1.01371 0
M  V30 5081 O 454.449 -2.43938 0.651968 0
M  V30 5082 C 455.762 -0.212216 2.9995 0
M  V30 5083 C 457.31 -0.286409 3.11687 0
M  V30 5084 C 457.785 -0.18147 4.5764 0
M  V30 5085 N 459.276 -0.239056 4.62583 0
M  V30 5086 C 460.011 -0.181351 5.73113 0
M  V30 5087 N 459.507 -0.073661 6.92761 0
M  V30 5088 N 461.3 -0.233949 5.61613 0
M  V30 5089 H 453.451 0.922657 1.91313 0
M  V30 5090 H 455.714 0.354595 0.879185 0
M  V30 5091 H 455.42 0.748169 3.4365 0
M  V30 5092 H 455.294 -0.990224 3.6397 0
M  V30 5093 H 457.681 -1.23724 2.67911 0
M  V30 5094 H 457.762 0.521645 2.50425 0
M  V30 5095 H 457.406 0.765863 5.02093 0
M  V30 5096 H 457.336 -1.00814 5.1686 0
M  V30 5097 H 459.827 -0.32321 3.76515 0
M  V30 5098 H 460.14 -0.0358003 7.72792 0
M  V30 5099 H 458.485 -0.0391461 6.94989 0
M  V30 5100 H 461.676 -0.316347 4.6703 0
M  V30 5101 H 461.849 -0.185514 6.47734 0
M  V30 5102 N 455.255 -1.55392 -0.262866 0
M  V30 5103 C 456.218 -1.88181 -1.30846 0
M  V30 5104 C 457.218 -0.757079 -1.41862 0
M  V30 5105 O 458.408 -1.02519 -1.40838 0
M  V30 5106 C 455.54 -2.09609 -2.68844 0
M  V30 5107 H 456.733 -2.81659 -1.02997 0
M  V30 5108 H 454.286 -1.48039 -0.501414 0
M  V30 5109 H 455.021 -1.18547 -3.01856 0
M  V30 5110 H 454.806 -2.91508 -2.62231 0
M  V30 5111 H 456.296 -2.36215 -3.44372 0
M  V30 5112 N 456.733 0.527833 -1.48498 0
M  V30 5113 C 457.979 1.28545 -1.56857 0
M  V30 5114 C 458.312 1.92678 -0.242651 0
M  V30 5115 O 457.587 1.79394 0.751545 0
M  V30 5116 C 457.87 2.37314 -2.70839 0
M  V30 5117 C 457.723 1.77858 -4.13142 0
M  V30 5118 C 459.042 3.39068 -2.80573 0
M  V30 5119 H 456.161 0.466006 -0.570971 0
M  V30 5120 H 458.803 0.587784 -1.8068 0
M  V30 5121 H 456.953 2.96821 -2.50658 0
M  V30 5122 H 458.625 1.22385 -4.44769 0
M  V30 5123 H 456.868 1.08383 -4.20042 0
M  V30 5124 H 457.539 2.56624 -4.88721 0
M  V30 5125 H 460.015 2.89518 -2.98862 0
M  V30 5126 H 458.891 4.12566 -3.6205 0
M  V30 5127 H 459.152 3.9975 -1.88818 0
M  V30 5128 N 458.211 1.37122 0.776871 0
M  V30 5129 C 459.622 1.28667 1.35284 0
M  V30 5130 C 459.973 -0.0680035 1.96082 0
M  V30 5131 O 459.098 -0.969743 1.93455 0
M  V30 5132 C 459.693 2.32997 2.45963 0
M  V30 5133 C 458.252 2.28191 2.99342 0
M  V30 5134 C 457.399 2.17101 1.72517 0
M  V30 5135 H 460.35 1.47819 0.577527 0
M  V30 5136 H 460.371 1.97366 3.2531 0
M  V30 5137 H 459.883 3.3158 2.01684 0
M  V30 5138 H 457.984 1.33115 3.4801 0
M  V30 5139 H 458.097 3.21397 3.55304 0
M  V30 5140 H 456.461 1.63562 1.95242 0
M  V30 5141 H 457.244 3.17591 1.30348 0
M  V30 5142 N 459.689 -1.00246 1.21608 0
M  V30 5143 C 460.652 -2.07233 0.979133 0
M  V30 5144 C 461.652 -1.6072 -0.0508219 0
M  V30 5145 O 462.842 -1.73196 0.186712 0
M  V30 5146 C 459.974 -3.37546 0.477016 0
M  V30 5147 H 461.167 -2.29687 1.92831 0
M  V30 5148 H 458.72 -1.17261 1.03342 0
M  V30 5149 H 459.455 -3.20773 -0.476966 0
M  V30 5150 H 459.24 -3.72638 1.21997 0
M  V30 5151 H 460.73 -4.16285 0.331181 0
M  V30 5152 N 461.167 -1.02423 -1.1978 0
M  V30 5153 C 462.583 -0.740459 -1.41384 0
M  V30 5154 C 462.783 0.676827 -1.89793 0
M  V30 5155 O 461.839 1.4435 -2.0717 0
M  V30 5156 C 463.152 -1.77264 -2.42895 0
M  V30 5157 C 464.7 -1.79165 -2.56649 0
M  V30 5158 C 465.175 -2.8133 -3.6141 0
M  V30 5159 N 466.666 -2.80118 -3.68901 0
M  V30 5160 C 467.401 -3.55824 -4.49641 0
M  V30 5161 N 466.897 -4.41231 -5.34123 0
M  V30 5162 N 468.69 -3.44387 -4.44246 0
M  V30 5163 H 460.841 -1.9391 -0.866764 0
M  V30 5164 H 463.104 -0.838074 -0.443098 0
M  V30 5165 H 462.81 -2.7884 -2.14339 0
M  V30 5166 H 462.684 -1.59108 -3.42001 0
M  V30 5167 H 465.071 -0.782702 -2.84531 0
M  V30 5168 H 465.152 -2.01396 -1.57713 0
M  V30 5169 H 464.796 -3.82394 -3.34271 0
M  V30 5170 H 464.726 -2.56359 -4.59986 0
M  V30 5171 H 467.217 -2.1817 -3.08562 0
M  V30 5172 H 467.53 -4.95747 -5.92836 0
M  V30 5173 H 465.875 -4.45306 -5.33599 0
M  V30 5174 H 469.066 -2.7708 -3.77285 0
M  V30 5175 H 469.239 -4.0364 -5.06931 0
M  V30 5176 N 462.645 1.35699 -0.801477 0
M  V30 5177 C 463.891 1.99208 -0.380022 0
M  V30 5178 C 464.224 1.63445 1.04878 0
M  V30 5179 O 463.499 0.895223 1.72673 0
M  V30 5180 C 463.782 3.55755 -0.557708 0
M  V30 5181 C 463.635 4.01332 -2.03107 0
M  V30 5182 C 464.954 4.40096 0.0197968 0
M  V30 5183 H 462.073 0.723667 -0.139552 0
M  V30 5184 H 464.715 1.60928 -1.01006 0
M  V30 5185 H 462.865 3.88494 -0.0213741 0
M  V30 5186 H 464.537 3.79026 -2.62939 0
M  V30 5187 H 462.78 3.52429 -2.52936 0
M  V30 5188 H 463.451 5.10234 -2.1063 0
M  V30 5189 H 465.927 4.13786 -0.438179 0
M  V30 5190 H 464.803 5.48735 -0.134477 0
M  V30 5191 H 465.064 4.2786 1.11303 0
M  V30 5192 N 464.123 0.554532 1.47522 0
M  V30 5193 C 465.534 0.120446 1.86311 0
M  V30 5194 C 465.885 -1.30904 1.46145 0
M  V30 5195 O 465.01 -1.98434 0.863294 0
M  V30 5196 C 465.605 0.211808 3.38137 0
M  V30 5197 C 464.164 -0.167224 3.76028 0
M  V30 5198 C 463.311 0.560576 2.71575 0
M  V30 5199 H 466.262 0.764408 1.39077 0
M  V30 5200 H 466.283 -0.570275 3.76202 0
M  V30 5201 H 465.795 1.25232 3.6734 0
M  V30 5202 H 463.896 -1.20894 3.52442 0
M  V30 5203 H 464.009 0.189473 4.78725 0
M  V30 5204 H 462.373 0.00396836 2.547 0
M  V30 5205 H 463.156 1.60219 3.0362 0
M  V30 5206 N 465.601 -1.54893 0.290851 0
M  V30 5207 C 466.531 -2.26103 -0.583084 0
M  V30 5208 C 467.512 -1.25684 -1.14619 0
M  V30 5209 O 468.697 -1.54436 -1.17741 0
M  V30 5210 C 465.827 -2.99409 -1.75987 0
M  V30 5211 C 464.781 -4.0689 -1.32758 0
M  V30 5212 C 464.107 -4.67856 -2.58872 0
M  V30 5213 C 465.407 -5.20215 -0.46624 0
M  V30 5214 H 467.101 -2.99398 0.0108214 0
M  V30 5215 H 464.647 -1.43998 0.00664468 0
M  V30 5216 H 466.6 -3.47943 -2.37727 0
M  V30 5217 H 465.324 -2.23675 -2.37985 0
M  V30 5218 H 463.983 -3.59191 -0.733299 0
M  V30 5219 H 463.631 -3.88772 -3.19163 0
M  V30 5220 H 463.331 -5.40438 -2.30653 0
M  V30 5221 H 464.855 -5.19147 -3.21433 0
M  V30 5222 H 466.269 -5.64704 -0.989047 0
M  V30 5223 H 464.666 -5.99455 -0.27826 0
M  V30 5224 H 465.736 -4.82198 0.511173 0
M  V30 5225 N 467.08 -0.0183926 -1.57589 0
M  V30 5226 C 468.328 0.661253 -1.90976 0
M  V30 5227 C 468.649 1.73281 -0.894353 0
M  V30 5228 O 467.919 1.9579 0.0656788 0
M  V30 5229 H 466.499 0.247233 -0.704901 0
M  V30 5230 H 469.161 -0.0636639 -1.94796 0
M  V30 5231 H 468.257 1.12083 -2.9128 0
M  V30 5232 N 468.558 1.5553 0.254621 0
M  V30 5233 C 469.807 1.76202 0.981612 0
M  V30 5234 C 470.12 0.580883 1.86776 0
M  V30 5235 O 471.326 0.670448 2.63092 0
M  V30 5236 C 469.782 3.11921 1.79537 0
M  V30 5237 C 469.39 4.37659 0.956991 0
M  V30 5238 C 471.134 3.41936 2.51555 0
M  V30 5239 C 469.041 5.64411 1.76619 0
M  V30 5240 H 467.971 0.656841 0.370237 0
M  V30 5241 H 470.622 1.81969 0.236556 0
M  V30 5242 H 469.004 3.00241 2.58208 0
M  V30 5243 H 470.178 4.60307 0.21315 0
M  V30 5244 H 468.493 4.14922 0.350497 0
M  V30 5245 H 471.09 4.33849 3.12536 0
M  V30 5246 H 471.433 2.62905 3.22779 0
M  V30 5247 H 471.966 3.54797 1.799 0
M  V30 5248 H 468.705 6.46241 1.09783 0
M  V30 5249 H 468.225 5.45877 2.48551 0
M  V30 5250 H 469.904 6.03386 2.33527 0
M  V30 5251 N 470.036 -0.519951 1.48776 0
M  V30 5252 C 471.264 -1.29971 1.60982 0
M  V30 5253 C 471.679 -1.86803 0.273885 0
M  V30 5254 O 471.036 -1.66904 -0.738193 0
M  V30 5255 C 471.087 -2.44346 2.66415 0
M  V30 5256 O 470.808 -1.89855 3.94825 0
M  V30 5257 C 472.309 -3.36014 2.89153 0
M  V30 5258 H 469.529 -0.394891 0.542496 0
M  V30 5259 H 472.073 -0.626214 1.94676 0
M  V30 5260 H 470.228 -3.07562 2.35552 0
M  V30 5261 H 470.642 -2.64798 4.5275 0
M  V30 5262 H 472.116 -4.12593 3.66703 0
M  V30 5263 H 472.593 -3.91859 1.98351 0
M  V30 5264 H 473.199 -2.78582 3.21359 0
M  V30 5265 N 471.514 -1.37532 -0.769588 0
M  V30 5266 C 472.742 -1.36059 -1.55871 0
M  V30 5267 C 473.157 0.053544 -1.88724 0
M  V30 5268 O 472.514 1.01591 -1.5161 0
M  V30 5269 C 472.565 -2.20107 -2.86767 0
M  V30 5270 O 472.286 -3.56009 -2.55321 0
M  V30 5271 C 473.787 -2.26636 -3.80987 0
M  V30 5272 H 471.007 -0.465967 -0.482821 0
M  V30 5273 H 473.551 -1.80901 -0.953686 0
M  V30 5274 H 471.706 -1.78768 -3.43687 0
M  V30 5275 H 472.12 -4.0009 -3.39158 0
M  V30 5276 H 473.594 -2.89763 -4.69831 0
M  V30 5277 H 474.071 -1.2754 -4.20274 0
M  V30 5278 H 474.677 -2.68296 -3.29996 0
M  V30 5279 N 472.992 0.995999 -1.22138 0
M  V30 5280 C 474.238 1.73767 -1.04561 0
M  V30 5281 C 474.571 1.89633 0.418698 0
M  V30 5282 O 473.846 1.43723 1.3105 0
M  V30 5283 C 474.129 3.14505 -1.75382 0
M  V30 5284 C 473.982 3.06306 -3.29388 0
M  V30 5285 C 475.301 4.13615 -1.50369 0
M  V30 5286 H 472.42 0.630728 -0.38125 0
M  V30 5287 H 475.062 1.16057 -1.50435 0
M  V30 5288 H 473.212 3.63775 -1.36383 0
M  V30 5289 H 474.884 2.64681 -3.77812 0
M  V30 5290 H 473.127 2.43186 -3.59226 0
M  V30 5291 H 473.798 4.05884 -3.74116 0
M  V30 5292 H 476.274 3.73089 -1.84239 0
M  V30 5293 H 475.15 5.10212 -2.02421 0
M  V30 5294 H 475.411 4.39949 -0.435611 0
M  V30 5295 N 474.47 1.03057 1.19235 0
M  V30 5296 C 475.4 0.633497 2.24742 0
M  V30 5297 C 476.381 -0.358335 1.66283 0
M  V30 5298 O 477.566 -0.240676 1.92703 0
M  V30 5299 C 474.696 -0.0147648 3.47297 0
M  V30 5300 C 473.65 0.899527 4.18441 0
M  V30 5301 C 472.976 0.116281 5.34574 0
M  V30 5302 C 474.276 2.21404 4.73051 0
M  V30 5303 H 475.97 1.5155 2.58211 0
M  V30 5304 H 473.516 0.73014 1.24117 0
M  V30 5305 H 475.469 -0.304202 4.20301 0
M  V30 5306 H 474.193 -0.931577 3.13032 0
M  V30 5307 H 472.852 1.17319 3.47321 0
M  V30 5308 H 472.5 -0.802619 4.96555 0
M  V30 5309 H 472.2 0.725293 5.83107 0
M  V30 5310 H 473.724 -0.166376 6.10373 0
M  V30 5311 H 475.138 1.98601 5.37802 0
M  V30 5312 H 473.535 2.77512 5.32078 0
M  V30 5313 H 474.605 2.86752 3.91026 0
M  V30 5314 N 475.948 -1.35272 0.808662 0
M  V30 5315 C 477.176 -2.02946 0.402537 0
M  V30 5316 C 477.591 -1.60937 -0.987147 0
M  V30 5317 O 476.948 -0.807917 -1.63643 0
M  V30 5318 C 476.999 -3.58317 0.47868 0
M  V30 5319 O 476.72 -3.98799 1.81358 0
M  V30 5320 C 478.221 -4.43251 0.0656281 0
M  V30 5321 H 475.441 -0.650831 0.163279 0
M  V30 5322 H 477.985 -1.72849 1.09286 0
M  V30 5323 H 476.14 -3.87055 -0.163415 0
M  V30 5324 H 476.554 -4.93451 1.77781 0
M  V30 5325 H 478.028 -5.51738 0.170017 0
M  V30 5326 H 478.505 -4.27913 -0.989278 0
M  V30 5327 H 479.111 -4.19813 0.68096 0
M  V30 5328 N 477.426 -0.562348 -1.47226 0
M  V30 5329 C 478.359 0.230405 -2.27034 0
M  V30 5330 C 479.337 0.915609 -1.3437 0
M  V30 5331 O 480.521 0.933573 -1.63758 0
M  V30 5332 C 477.648 1.32874 -3.11548 0
M  V30 5333 C 476.694 0.751552 -4.19826 0
M  V30 5334 S 477.527 -0.405848 -5.3396 0
M  V30 5335 C 478.683 0.694186 -6.22038 0
M  V30 5336 H 478.916 -0.446811 -2.93923 0
M  V30 5337 H 476.449 -0.348781 -1.50409 0
M  V30 5338 H 478.407 1.95773 -3.60809 0
M  V30 5339 H 477.068 1.97782 -2.44011 0
M  V30 5340 H 476.261 1.57651 -4.78709 0
M  V30 5341 H 475.863 0.198645 -3.73472 0
M  V30 5342 H 478.155 1.58501 -6.58698 0
M  V30 5343 H 479.098 0.142592 -7.07956 0
M  V30 5344 H 479.506 0.989169 -5.55766 0
M  V30 5345 N 478.904 1.54736 -0.299062 0
M  V30 5346 C 480.129 2.04975 0.316254 0
M  V30 5347 C 480.554 1.17501 1.46885 0
M  V30 5348 O 479.912 0.178678 1.80417 0
M  V30 5349 C 479.96 3.52672 0.751997 0
M  V30 5350 O 479.064 3.68226 1.85697 0
M  V30 5351 H 478.405 0.661126 0.0617175 0
M  V30 5352 H 480.935 1.99805 -0.440341 0
M  V30 5353 H 480.945 3.94488 1.04133 0
M  V30 5354 H 479.62 4.158 -0.0911482 0
M  V30 5355 H 478.197 3.38316 1.56834 0
M  V30 5356 N 480.382 0.0267497 1.57577 0
M  V30 5357 C 481.61 -0.662661 1.96001 0
M  V30 5358 C 482.025 -1.65799 0.903117 0
M  V30 5359 O 481.382 -1.82135 -0.115317 0
M  V30 5360 C 481.433 -1.37112 3.34488 0
M  V30 5361 O 481.154 -0.415683 4.36123 0
M  V30 5362 C 482.655 -2.15257 3.8753 0
M  V30 5363 H 479.875 -0.18287 0.6456 0
M  V30 5364 H 482.419 0.0858116 2.0432 0
M  V30 5365 H 480.574 -2.07101 3.27395 0
M  V30 5366 H 480.988 -0.918496 5.16395 0
M  V30 5367 H 482.462 -2.60285 4.86781 0
M  V30 5368 H 482.939 -2.99063 3.21649 0
M  V30 5369 H 483.545 -1.50231 3.97883 0
M  V30 5370 N 481.861 -1.55662 -0.24637 0
M  V30 5371 C 483.11 -1.7672 -0.972254 0
M  V30 5372 C 483.423 -0.59078 -1.86465 0
M  V30 5373 O 484.629 -0.684391 -2.62732 0
M  V30 5374 C 483.085 -3.12869 -1.7788 0
M  V30 5375 C 482.693 -4.38161 -0.933768 0
M  V30 5376 C 484.437 -3.43265 -2.49738 0
M  V30 5377 C 482.344 -5.6534 -1.73623 0
M  V30 5378 H 481.274 -0.658795 -0.366749 0
M  V30 5379 H 483.925 -1.82092 -0.226902 0
M  V30 5380 H 482.307 -3.01606 -2.56612 0
M  V30 5381 H 483.481 -4.60413 -0.188736 0
M  V30 5382 H 481.796 -4.15102 -0.328488 0
M  V30 5383 H 484.393 -4.35501 -3.10231 0
M  V30 5384 H 484.736 -2.64614 -3.2138 0
M  V30 5385 H 485.269 -3.55746 -1.78016 0
M  V30 5386 H 482.008 -6.46814 -1.06354 0
M  V30 5387 H 481.528 -5.47188 -2.45653 0
M  V30 5388 H 483.207 -6.04616 -2.30323 0
M  V30 5389 N 483.339 0.512053 -1.4905 0
M  V30 5390 C 484.588 1.26343 -1.57227 0
M  V30 5391 C 484.901 1.93876 -0.259155 0
M  V30 5392 O 486.107 2.70612 -0.219358 0
M  V30 5393 C 484.563 2.29343 -2.77362 0
M  V30 5394 C 484.171 1.67799 -4.15388 0
M  V30 5395 C 485.915 3.05378 -2.94864 0
M  V30 5396 C 483.822 2.68845 -5.2676 0
M  V30 5397 H 482.752 0.475231 -0.585382 0
M  V30 5398 H 485.403 0.53862 -1.75417 0
M  V30 5399 H 483.785 3.04938 -2.52643 0
M  V30 5400 H 484.959 0.982715 -4.50199 0
M  V30 5401 H 483.274 1.04194 -4.03153 0
M  V30 5402 H 485.871 3.80921 -3.75238 0
M  V30 5403 H 486.214 3.62327 -2.05 0
M  V30 5404 H 486.747 2.36898 -3.19569 0
M  V30 5405 H 483.486 2.16692 -6.18647 0
M  V30 5406 H 483.006 3.36647 -4.96416 0
M  V30 5407 H 484.685 3.31487 -5.5563 0
M  V30 5408 N 484.817 1.37938 0.762283 0
M  V30 5409 C 486.045 1.36883 1.55147 0
M  V30 5410 C 486.46 -0.0435348 1.8875 0
M  V30 5411 O 485.817 -1.00786 1.52146 0
M  V30 5412 C 485.868 2.21624 2.85596 0
M  V30 5413 O 485.589 3.57358 2.5343 0
M  V30 5414 C 487.09 2.28653 3.7978 0
M  V30 5415 H 484.31 0.468521 0.480343 0
M  V30 5416 H 486.854 1.81404 0.944079 0
M  V30 5417 H 485.009 1.80588 3.42734 0
M  V30 5418 H 485.423 4.01883 3.37032 0
M  V30 5419 H 486.897 2.9225 4.68288 0
M  V30 5420 H 487.374 1.29767 4.19592 0
M  V30 5421 H 487.98 2.70043 3.28568 0
M  V30 5422 N 486.295 -0.989507 1.22664 0
M  V30 5423 C 487.543 -1.72612 1.05117 0
M  V30 5424 C 487.864 -1.90552 -0.414131 0
M  V30 5425 O 487.134 -1.4676 -1.29762 0
M  V30 5426 H 485.714 -0.639555 0.385977 0
M  V30 5427 H 488.376 -1.19158 1.54232 0
M  V30 5428 H 487.472 -2.71926 1.53175 0
M  V30 5429 N 487.773 -1.03688 -1.18687 0
M  V30 5430 C 489.019 -0.739123 -1.88851 0
M  V30 5431 C 489.352 0.731042 -1.79915 0
M  V30 5432 O 488.627 1.53313 -1.19688 0
M  V30 5433 C 488.91 -1.20106 -3.3948 0
M  V30 5434 C 488.763 -2.73304 -3.57246 0
M  V30 5435 C 490.082 -0.788134 -4.32986 0
M  V30 5436 H 487.201 -0.269978 -0.68577 0
M  V30 5437 H 489.843 -1.28822 -1.3966 0
M  V30 5438 H 487.993 -0.733915 -3.81505 0
M  V30 5439 H 489.665 -3.28027 -3.24339 0
M  V30 5440 H 487.908 -3.13313 -3.00029 0
M  V30 5441 H 488.579 -3.00684 -4.62918 0
M  V30 5442 H 491.055 -1.19005 -3.98719 0
M  V30 5443 H 489.931 -1.13915 -5.36949 0
M  V30 5444 H 490.192 0.308988 -4.41019 0
M  V30 5445 N 489.251 1.34841 -0.815825 0
M  V30 5446 C 490.199 2.31549 -0.220888 0
M  V30 5447 C 491.193 1.5707 0.634457 0
M  V30 5448 O 492.399 1.72125 0.526589 0
M  V30 5449 H 488.774 0.750153 -0.0526782 0
M  V30 5450 H 490.745 2.7926 -1.05149 0
M  V30 5451 C 489.494 3.42335 0.608427 0
M  V30 5452 H 488.817 3.9978 -0.0404121 0
M  V30 5453 H 490.257 4.12258 0.990931 0
M  V30 5454 C 488.716 2.86173 1.77782 0
M  V30 5455 O 489.246 2.80474 2.87571 0
M  V30 5456 N 487.452 2.43093 1.59229 0
M  V30 5457 H 486.999 2.47928 0.699237 0
M  V30 5458 H 486.957 2.05866 2.37627 0
M  V30 5459 N 490.729 0.570148 1.46925 0
M  V30 5460 C 491.692 -0.159933 2.28641 0
M  V30 5461 C 492.692 -0.830638 1.37685 0
M  V30 5462 O 493.882 -0.684516 1.60187 0
M  V30 5463 C 491.014 -1.2354 3.17727 0
M  V30 5464 H 492.207 0.558035 2.94662 0
M  V30 5465 H 489.76 0.327603 1.52828 0
M  V30 5466 H 490.495 -1.98535 2.56426 0
M  V30 5467 H 490.28 -0.759125 3.84681 0
M  V30 5468 H 491.77 -1.74782 3.79264 0
M  V30 5469 N 492.207 -1.54576 0.307264 0
M  V30 5470 C 493.432 -2.05139 -0.305379 0
M  V30 5471 C 493.857 -1.18278 -1.46259 0
M  V30 5472 O 493.215 -0.188243 -1.8032 0
M  V30 5473 C 493.263 -3.53066 -0.733283 0
M  V30 5474 O 492.367 -3.69206 -1.83741 0
M  V30 5475 H 491.708 -0.661444 -0.0582105 0
M  V30 5476 H 494.238 -1.99569 0.450931 0
M  V30 5477 H 494.248 -3.95034 -1.02039 0
M  V30 5478 H 492.923 -4.15746 0.113198 0
M  V30 5479 H 491.5 -3.39143 -1.55037 0
M  V30 5480 N 493.685 -0.035106 -1.57561 0
M  V30 5481 C 494.618 0.979673 -2.06101 0
M  V30 5482 C 495.596 1.31378 -0.958046 0
M  V30 5483 O 496.78 1.42942 -1.22881 0
M  V30 5484 C 493.907 2.29809 -2.48808 0
M  V30 5485 C 492.953 2.11817 -3.70184 0
M  V30 5486 S 493.786 1.41143 -5.16565 0
M  V30 5487 C 494.942 2.74341 -5.62572 0
M  V30 5488 H 495.175 0.566506 -2.91853 0
M  V30 5489 H 492.708 0.176744 -1.53385 0
M  V30 5490 H 494.666 3.056 -2.74078 0
M  V30 5491 H 493.327 2.68257 -1.63392 0
M  V30 5492 H 492.52 3.09299 -3.97933 0
M  V30 5493 H 492.122 1.44168 -3.45097 0
M  V30 5494 H 494.414 3.70562 -5.67177 0
M  V30 5495 H 495.357 2.51249 -6.62027 0
M  V30 5496 H 495.765 2.79863 -4.90242 0
M  V30 5497 N 495.163 1.55791 0.238111 0
M  V30 5498 C 496.574 1.68383 0.806472 0
M  V30 5499 C 496.925 0.634157 1.85669 0
M  V30 5500 O 496.05 -0.217913 2.153 0
M  V30 5501 C 496.645 3.05268 1.46959 0
M  V30 5502 C 495.204 3.1977 1.98555 0
M  V30 5503 C 494.351 2.64279 0.839763 0
M  V30 5504 H 497.302 1.58694 0.0137535 0
M  V30 5505 H 497.323 3.00203 2.33792 0
M  V30 5506 H 496.835 3.81643 0.704993 0
M  V30 5507 H 494.936 2.48234 2.77868 0
M  V30 5508 H 495.049 4.26788 2.17689 0
M  V30 5509 H 493.413 2.22329 1.24265 0
M  V30 5510 H 494.196 3.43187 0.0881032 0
M  V30 5511 N 496.642 -0.504142 1.49319 0
M  V30 5512 C 498.058 -0.835039 1.36012 0
M  V30 5513 C 498.258 -1.97674 0.390808 0
M  V30 5514 O 497.314 -2.51867 -0.178655 0
M  V30 5515 C 498.627 -1.17821 2.76656 0
M  V30 5516 C 500.175 -1.2866 2.85334 0
M  V30 5517 C 500.65 -1.66307 4.26739 0
M  V30 5518 N 502.141 -1.73362 4.29534 0
M  V30 5519 C 502.876 -2.0393 5.35911 0
M  V30 5520 N 502.372 -2.32744 6.52535 0
M  V30 5521 N 504.165 -2.05155 5.23324 0
M  V30 5522 H 496.316 0.248764 2.10938 0
M  V30 5523 H 498.579 0.0486962 0.946748 0
M  V30 5524 H 498.285 -0.412682 3.4927 0
M  V30 5525 H 498.159 -2.12239 3.11825 0
M  V30 5526 H 500.546 -2.04285 2.1296 0
M  V30 5527 H 500.627 -0.323004 2.53752 0
M  V30 5528 H 500.271 -0.91234 4.99639 0
M  V30 5529 H 500.201 -2.63761 4.55782 0
M  V30 5530 H 502.692 -1.53268 3.45424 0
M  V30 5531 H 503.005 -2.55248 7.2943 0
M  V30 5532 H 501.35 -2.30207 6.55767 0
M  V30 5533 H 504.541 -1.82119 4.3122 0
M  V30 5534 H 504.714 -2.28644 6.06322 0
M  V30 5535 N 498.12 -1.38341 -0.754957 0
M  V30 5536 C 499.366 -1.34672 -1.51628 0
M  V30 5537 C 499.699 0.0636036 -1.94096 0
M  V30 5538 O 498.974 1.0245 -1.6533 0
M  V30 5539 C 499.257 -2.30116 -2.76981 0
M  V30 5540 C 499.11 -3.80003 -2.4066 0
M  V30 5541 C 500.429 -2.23715 -3.78998 0
M  V30 5542 H 497.548 -0.490517 -0.550056 0
M  V30 5543 H 500.19 -1.69178 -0.864807 0
M  V30 5544 H 498.34 -2.00821 -3.3257 0
M  V30 5545 H 500.012 -4.19966 -1.90856 0
M  V30 5546 H 498.255 -3.97751 -1.73137 0
M  V30 5547 H 498.926 -4.42244 -3.30339 0
M  V30 5548 H 501.402 -2.49574 -3.32945 0
M  V30 5549 H 500.278 -2.9261 -4.64403 0
M  V30 5550 H 500.539 -1.23554 -4.24484 0
M  V30 5551 N 499.598 0.982988 -1.23187 0
M  V30 5552 C 500.823 1.76455 -1.08988 0
M  V30 5553 C 501.248 1.84726 0.354691 0
M  V30 5554 O 500.606 1.30699 1.25649 0
M  V30 5555 C 500.654 3.17094 -1.71708 0
M  V30 5556 O 499.758 4.00648 -0.977477 0
M  V30 5557 H 499.099 0.542988 -0.382177 0
M  V30 5558 H 501.629 1.23413 -1.63188 0
M  V30 5559 H 501.639 3.67684 -1.76841 0
M  V30 5560 H 500.314 3.10389 -2.76823 0
M  V30 5561 H 498.891 3.59161 -1.0029 0
M  V30 5562 N 501.076 1.04316 1.18135 0
M  V30 5563 C 502.306 0.767003 1.91835 0
M  V30 5564 C 502.714 -0.68002 1.76557 0
M  V30 5565 O 502.057 -1.47548 1.09432 0
M  V30 5566 C 502.119 1.05674 3.43618 0
M  V30 5567 C 501.783 2.49818 3.82675 0
M  V30 5568 C 502.78 3.48003 3.86251 0
M  V30 5569 C 500.465 2.84596 4.13897 0
M  V30 5570 C 502.459 4.79016 4.20503 0
M  V30 5571 C 500.146 4.15813 4.4782 0
M  V30 5572 C 501.144 5.12834 4.51099 0
M  V30 5573 O 500.832 6.41699 4.84229 0
M  V30 5574 H 500.564 0.278948 0.615763 0
M  V30 5575 H 503.118 1.3946 1.50798 0
M  V30 5576 H 501.348 0.372029 3.84906 0
M  V30 5577 H 503.037 0.767994 3.98568 0
M  V30 5578 H 503.803 3.22475 3.62264 0
M  V30 5579 H 499.682 2.09748 4.1052 0
M  V30 5580 H 503.226 5.54739 4.22978 0
M  V30 5581 H 499.123 4.41109 4.71268 0
M  V30 5582 H 499.891 6.46387 5.02121 0
M  V30 5583 N 502.554 -1.34406 0.822964 0
M  V30 5584 C 503.803 -1.97542 0.407458 0
M  V30 5585 C 504.116 -1.65973 -1.035 0
M  V30 5586 O 505.322 -2.22598 -1.55442 0
M  V30 5587 C 503.778 -3.53463 0.677623 0
M  V30 5588 C 503.386 -3.93925 2.1337 0
M  V30 5589 C 505.13 -4.23229 0.328284 0
M  V30 5590 C 503.037 -5.42759 2.34876 0
M  V30 5591 H 501.967 -0.739207 0.148623 0
M  V30 5592 H 504.618 -1.53248 1.00932 0
M  V30 5593 H 503 -3.96 0.00558965 0
M  V30 5594 H 504.174 -3.62494 2.8449 0
M  V30 5595 H 502.489 -3.37097 2.44448 0
M  V30 5596 H 505.086 -5.32659 0.466794 0
M  V30 5597 H 505.429 -4.09899 -0.727224 0
M  V30 5598 H 505.962 -3.86169 0.954896 0
M  V30 5599 H 502.701 -5.61075 3.38932 0
M  V30 5600 H 502.221 -5.75704 1.68299 0
M  V30 5601 H 503.9 -6.0944 2.17236 0
M  V30 5602 N 504.032 -0.577932 -1.46621 0
M  V30 5603 C 504.979 0.158048 -2.30258 0
M  V30 5604 C 505.949 0.888669 -1.40328 0
M  V30 5605 O 507.134 0.880283 -1.6928 0
M  V30 5606 C 504.274 1.16884 -3.24703 0
M  V30 5607 C 503.387 0.442163 -4.29731 0
M  V30 5608 C 502.522 1.44007 -5.11308 0
M  V30 5609 C 501.561 0.69952 -6.0809 0
M  V30 5610 N 500.698 1.64525 -6.82551 0
M  V30 5611 H 505.538 -0.561242 -2.92667 0
M  V30 5612 H 503.075 -0.288591 -1.44241 0
M  V30 5613 H 505.033 1.7677 -3.779 0
M  V30 5614 H 503.663 1.85591 -2.64113 0
M  V30 5615 H 502.715 -0.271632 -3.79429 0
M  V30 5616 H 504.027 -0.136992 -4.98612 0
M  V30 5617 H 503.181 2.11186 -5.68758 0
M  V30 5618 H 501.92 2.05315 -4.42377 0
M  V30 5619 H 500.925 0.0139217 -5.49798 0
M  V30 5620 H 502.15 0.091894 -6.79038 0
M  V30 5621 H 500.096 2.24653 -6.16334 0
M  V30 5622 H 500.013 1.11878 -7.47676 0
M  V30 5623 H 501.281 2.30754 -7.44562 0
M  V30 5624 N 505.51 1.54411 -0.315457 0
M  V30 5625 C 506.473 2.22713 0.54142 0
M  V30 5626 C 507.473 1.2179 1.04995 0
M  V30 5627 O 508.663 1.46426 0.943667 0
M  V30 5628 C 505.795 2.92485 1.75116 0
M  V30 5629 H 506.988 2.99849 -0.0555508 0
M  V30 5630 H 504.541 1.56159 -0.0664453 0
M  V30 5631 H 505.276 2.19466 2.38758 0
M  V30 5632 H 505.061 3.66483 1.39401 0
M  V30 5633 H 506.551 3.44548 2.35959 0
M  V30 5634 N 506.988 0.0434614 1.5754 0
M  V30 5635 C 508.234 -0.632971 1.92669 0
M  V30 5636 C 508.567 -1.70947 0.921446 0
M  V30 5637 O 507.842 -1.94426 -0.0537202 0
M  V30 5638 C 508.125 -1.23619 3.38216 0
M  V30 5639 C 507.978 -0.168274 4.49485 0
M  V30 5640 C 509.297 -2.15008 3.84005 0
M  V30 5641 H 506.416 -0.228629 0.700641 0
M  V30 5642 H 509.058 0.103651 1.89717 0
M  V30 5643 H 507.208 -1.864 3.40863 0
M  V30 5644 H 508.88 0.463196 4.58969 0
M  V30 5645 H 507.123 0.504581 4.30855 0
M  V30 5646 H 507.794 -0.630218 5.48391 0
M  V30 5647 H 510.27 -1.62198 3.83185 0
M  V30 5648 H 509.146 -2.54161 4.86511 0
M  V30 5649 H 509.407 -3.04707 3.20322 0
M  V30 5650 N 508.466 -1.55915 -0.229846 0
M  V30 5651 C 509.743 -1.6932 -0.979295 0
M  V30 5652 C 510.123 -0.588321 -2.02736 0
M  V30 5653 O 509.471 0.40586 -2.24867 0
M  V30 5654 C 509.681 -3.10305 -1.59724 0
M  V30 5655 C 511.029 -3.6945 -2.09264 0
M  V30 5656 O 512.053 -3.13214 -1.69633 0
M  V30 5657 O 510.912 -4.68072 -2.82082 0
M  V30 5658 H 508.006 -0.689314 -0.456919 0
M  V30 5659 H 510.552 -1.68238 -0.222283 0
M  V30 5660 H 509.324 -3.82177 -0.840039 0
M  V30 5661 H 508.947 -3.1547 -2.42001 0
M  V30 5662 N 509.944 0.496216 -1.49584 0
M  V30 5663 C 511.193 1.24668 -1.58558 0
M  V30 5664 C 511.506 1.9359 -0.279703 0
M  V30 5665 O 512.712 2.70365 -0.248048 0
M  V30 5666 C 511.168 2.26388 -2.79779 0
M  V30 5667 C 510.776 1.63384 -4.17145 0
M  V30 5668 C 512.52 3.02233 -2.98086 0
M  V30 5669 C 510.427 2.63243 -5.29582 0
M  V30 5670 H 509.357 0.468995 -0.590389 0
M  V30 5671 H 512.008 0.519985 -1.75978 0
M  V30 5672 H 510.39 3.02241 -2.55863 0
M  V30 5673 H 511.564 0.93491 -4.51216 0
M  V30 5674 H 509.879 0.999121 -4.04236 0
M  V30 5675 H 512.476 3.76919 -3.79257 0
M  V30 5676 H 512.819 3.60132 -2.08831 0
M  V30 5677 H 513.352 2.33495 -3.22063 0
M  V30 5678 H 510.091 2.10119 -6.20911 0
M  V30 5679 H 509.611 3.31363 -4.99959 0
M  V30 5680 H 511.29 3.25575 -5.59115 0
M  V30 5681 N 511.423 1.38739 0.74761 0
M  V30 5682 C 512.653 1.3832 1.53464 0
M  V30 5683 C 513.061 -0.0273464 1.8918 0
M  V30 5684 O 512.404 -1.00588 1.53713 0
M  V30 5685 C 512.466 2.18007 2.85855 0
M  V30 5686 C 512.13 3.66762 2.72644 0
M  V30 5687 C 513.127 4.60124 2.42037 0
M  V30 5688 C 510.812 4.10193 2.89909 0
M  V30 5689 C 512.806 5.94897 2.28859 0
M  V30 5690 C 510.493 5.45045 2.7635 0
M  V30 5691 C 511.491 6.37211 2.45869 0
M  V30 5692 O 511.179 7.69581 2.3238 0
M  V30 5693 H 510.911 0.474718 0.481268 0
M  V30 5694 H 513.465 1.83012 0.932518 0
M  V30 5695 H 511.695 1.68043 3.48279 0
M  V30 5696 H 513.384 2.09921 3.47402 0
M  V30 5697 H 514.15 4.27874 2.28361 0
M  V30 5698 H 510.029 3.38797 3.1263 0
M  V30 5699 H 513.573 6.66802 2.04989 0
M  V30 5700 H 509.47 5.76889 2.89601 0
M  V30 5701 H 510.238 7.80169 2.47546 0
M  V30 5702 N 512.901 -0.976442 1.23707 0
M  V30 5703 C 513.831 -2.08749 1.04624 0
M  V30 5704 C 514.812 -1.70057 -0.0380956 0
M  V30 5705 O 515.997 -1.93782 0.127308 0
M  V30 5706 C 513.127 -3.41335 0.640902 0
M  V30 5707 C 512.081 -3.93947 1.67302 0
M  V30 5708 C 511.407 -5.22774 1.12301 0
M  V30 5709 C 512.707 -4.22769 3.06697 0
M  V30 5710 H 514.401 -2.24972 1.97555 0
M  V30 5711 H 511.947 -1.08108 0.951247 0
M  V30 5712 H 513.9 -4.18489 0.494434 0
M  V30 5713 H 512.624 -3.24988 -0.324099 0
M  V30 5714 H 511.283 -3.18941 1.80755 0
M  V30 5715 H 510.931 -5.0278 0.148877 0
M  V30 5716 H 510.631 -5.58942 1.81267 0
M  V30 5717 H 512.155 -6.02546 0.988479 0
M  V30 5718 H 513.569 -4.90659 2.96524 0
M  V30 5719 H 511.966 -4.70147 3.72937 0
M  V30 5720 H 513.036 -3.29885 3.55392 0
M  V30 5721 N 514.379 -1.04941 -1.1758 0
M  V30 5722 C 515.625 -0.768896 -1.88307 0
M  V30 5723 C 515.98 0.696361 -1.79356 0
M  V30 5724 O 515.273 1.50245 -1.18899 0
M  V30 5725 C 515.467 -1.18062 -3.37337 0
M  V30 5726 C 515.296 -2.68436 -3.60794 0
M  V30 5727 C 514.066 -3.35709 -3.77661 0
M  V30 5728 C 516.264 -3.66657 -3.60649 0
M  V30 5729 N 514.246 -4.74974 -3.88939 0
M  V30 5730 C 515.617 -4.91638 -3.77747 0
M  V30 5731 C 517.672 -3.60162 -3.43785 0
M  V30 5732 C 516.375 -6.10902 -3.79726 0
M  V30 5733 C 518.401 -4.78863 -3.47051 0
M  V30 5734 C 517.763 -6.02666 -3.64654 0
M  V30 5735 H 513.862 -0.33355 -0.707296 0
M  V30 5736 H 516.446 -1.34085 -1.41171 0
M  V30 5737 H 514.617 -0.636648 -3.83147 0
M  V30 5738 H 516.349 -0.8502 -3.95669 0
M  V30 5739 H 513.104 -2.8611 -3.77409 0
M  V30 5740 H 513.528 -5.47378 -3.98379 0
M  V30 5741 H 518.17 -2.65412 -3.29114 0
M  V30 5742 H 515.888 -7.05998 -3.93182 0
M  V30 5743 H 519.474 -4.75488 -3.35265 0
M  V30 5744 H 518.354 -6.92979 -3.67083 0
M  V30 5745 N 515.857 1.33968 -0.830081 0
M  V30 5746 C 517.103 1.98357 -0.422191 0
M  V30 5747 C 517.436 1.65633 1.01387 0
M  V30 5748 O 516.711 0.931648 1.70735 0
M  V30 5749 C 516.994 3.54492 -0.633043 0
M  V30 5750 C 516.847 3.96934 -2.11574 0
M  V30 5751 C 518.166 4.40039 -0.0735584 0
M  V30 5752 H 515.285 0.720544 -0.154871 0
M  V30 5753 H 517.927 1.58749 -1.04397 0
M  V30 5754 H 516.077 3.88361 -0.103775 0
M  V30 5755 H 517.749 3.73363 -2.7092 0
M  V30 5756 H 515.992 3.46984 -2.60354 0
M  V30 5757 H 516.663 5.05651 -2.21406 0
M  V30 5758 H 519.139 4.12764 -0.52585 0
M  V30 5759 H 518.015 5.48327 -0.250841 0
M  V30 5760 H 518.276 4.30124 1.02202 0
M  V30 5761 N 517.335 0.585699 1.46312 0
M  V30 5762 C 518.56 0.0762461 2.0726 0
M  V30 5763 C 518.985 -1.22071 1.43109 0
M  V30 5764 O 518.343 -1.73804 0.515942 0
M  V30 5765 C 518.391 -0.0729404 3.60526 0
M  V30 5766 O 517.495 -1.1287 3.96654 0
M  V30 5767 H 516.836 0.0641558 0.660893 0
M  V30 5768 H 519.366 0.809492 1.87905 0
M  V30 5769 H 519.376 -0.278158 4.07051 0
M  V30 5770 H 518.051 0.874188 4.06609 0
M  V30 5771 H 516.628 -0.901703 3.61834 0
M  V30 5772 N 518.813 -1.54241 0.323641 0
M  V30 5773 C 520.06 -2.0057 -0.27891 0
M  V30 5774 C 520.388 -1.21181 -1.52136 0
M  V30 5775 O 519.643 -0.282043 -1.93657 0
M  V30 5776 C 519.942 -3.5129 -0.658031 0
M  V30 5777 C 519.608 -4.48281 0.485252 0
M  V30 5778 C 518.27 -4.74519 0.799055 0
M  V30 5779 C 520.622 -5.05909 1.25322 0
M  V30 5780 C 517.95 -5.55643 1.88354 0
M  V30 5781 C 520.302 -5.88215 2.32779 0
M  V30 5782 C 518.966 -6.12755 2.64741 0
M  V30 5783 H 518.236 -0.733938 -0.10206 0
M  V30 5784 H 520.883 -1.862 0.447435 0
M  V30 5785 H 519.188 -3.63388 -1.4648 0
M  V30 5786 H 520.885 -3.84578 -1.1358 0
M  V30 5787 H 517.475 -4.27979 0.230593 0
M  V30 5788 H 521.659 -4.8562 1.02404 0
M  V30 5789 H 516.915 -5.72888 2.13564 0
M  V30 5790 H 521.089 -6.31888 2.92729 0
M  V30 5791 H 518.716 -6.75404 3.48904 0
M  V30 5792 N 520.291 -0.0518155 -1.57515 0
M  V30 5793 C 521.537 0.622745 -1.93002 0
M  V30 5794 C 521.87 1.70456 -0.930499 0
M  V30 5795 O 521.145 1.94452 0.0434086 0
M  V30 5796 C 521.428 1.21824 -3.38867 0
M  V30 5797 C 521.281 0.144434 -4.49568 0
M  V30 5798 C 522.6 2.12968 -3.8514 0
M  V30 5799 H 519.719 0.22491 -0.701844 0
M  V30 5800 H 522.361 -0.113711 -1.89659 0
M  V30 5801 H 520.511 1.8459 -3.41846 0
M  V30 5802 H 522.183 -0.48753 -4.58717 0
M  V30 5803 H 520.426 -0.527424 -4.30582 0
M  V30 5804 H 521.097 0.601127 -5.48717 0
M  V30 5805 H 523.573 1.60163 -3.8404 0
M  V30 5806 H 522.449 2.51578 -4.87852 0
M  V30 5807 H 522.71 3.03004 -3.21934 0
M  V30 5808 N 521.769 1.56035 0.221574 0
M  V30 5809 C 523.016 1.79047 0.94597 0
M  V30 5810 C 523.344 0.62057 1.84334 0
M  V30 5811 O 522.599 -0.395053 1.91671 0
M  V30 5812 C 522.898 3.07813 1.8162 0
M  V30 5813 C 522.564 4.3797 1.07206 0
M  V30 5814 C 521.226 4.73334 0.866508 0
M  V30 5815 C 523.578 5.18326 0.546565 0
M  V30 5816 C 520.906 5.8657 0.123549 0
M  V30 5817 C 523.258 6.32335 -0.18305 0
M  V30 5818 C 521.922 6.66301 -0.399861 0
M  V30 5819 H 521.192 0.655178 0.346155 0
M  V30 5820 H 523.839 1.90299 0.214146 0
M  V30 5821 H 522.144 2.91682 2.61589 0
M  V30 5822 H 523.841 3.2282 2.37884 0
M  V30 5823 H 520.431 4.10202 1.24226 0
M  V30 5824 H 524.615 4.9144 0.692847 0
M  V30 5825 H 519.871 6.11376 -0.0546591 0
M  V30 5826 H 524.045 6.9383 -0.59775 0
M  V30 5827 H 521.672 7.53889 -0.977489 0
M  V30 5828 N 523.247 -0.488276 1.49845 0
M  V30 5829 C 524.493 -1.24341 1.6021 0
M  V30 5830 C 524.826 -1.91967 0.293651 0
M  V30 5831 O 524.101 -1.81323 -0.703718 0
M  V30 5832 C 524.384 -2.3005 2.77036 0
M  V30 5833 C 524.237 -1.66842 4.17713 0
M  V30 5834 C 525.556 -3.31509 2.89464 0
M  V30 5835 H 522.675 -0.450704 0.583125 0
M  V30 5836 H 525.317 -0.539673 1.82174 0
M  V30 5837 H 523.467 -2.90071 2.58439 0
M  V30 5838 H 525.139 -1.1055 4.47858 0
M  V30 5839 H 523.382 -0.972079 4.22768 0
M  V30 5840 H 524.053 -2.43576 4.95353 0
M  V30 5841 H 526.529 -2.81493 3.06433 0
M  V30 5842 H 525.405 -4.02822 3.72861 0
M  V30 5843 H 525.666 -3.94603 1.99351 0
M  V30 5844 N 524.725 -1.39134 -0.740242 0
M  V30 5845 C 525.972 -1.36071 -1.49969 0
M  V30 5846 C 526.3 0.0450245 -1.94448 0
M  V30 5847 O 525.555 1.02482 -1.66721 0
M  V30 5848 C 525.854 -2.27457 -2.75678 0
M  V30 5849 C 525.52 -3.75185 -2.50094 0
M  V30 5850 C 524.182 -4.15439 -2.42825 0
M  V30 5851 C 526.534 -4.68643 -2.28086 0
M  V30 5852 C 523.862 -5.4722 -2.11584 0
M  V30 5853 C 526.214 -6.00695 -1.98363 0
M  V30 5854 C 524.878 -6.40018 -1.8956 0
M  V30 5855 H 524.148 -0.497921 -0.548777 0
M  V30 5856 H 526.795 -1.71599 -0.85007 0
M  V30 5857 H 525.1 -1.8503 -3.45356 0
M  V30 5858 H 526.797 -2.22384 -3.33686 0
M  V30 5859 H 523.387 -3.43279 -2.56627 0
M  V30 5860 H 527.571 -4.3838 -2.32672 0
M  V30 5861 H 522.827 -5.76615 -2.03287 0
M  V30 5862 H 527.001 -6.72644 -1.80341 0
M  V30 5863 H 524.628 -7.42051 -1.65117 0
M  V30 5864 N 526.204 0.969867 -1.24223 0
M  V30 5865 C 527.134 2.08191 -1.05729 0
M  V30 5866 C 528.115 1.70075 0.0290765 0
M  V30 5867 O 529.3 1.93712 -0.137583 0
M  V30 5868 C 526.43 3.40991 -0.658995 0
M  V30 5869 C 525.384 3.93054 -1.69389 0
M  V30 5870 C 524.71 5.22171 -1.15072 0
M  V30 5871 C 526.01 4.21137 -3.08935 0
M  V30 5872 H 527.704 2.23921 -1.98746 0
M  V30 5873 H 525.25 1.07602 -0.956967 0
M  V30 5874 H 527.203 4.18221 -0.51662 0
M  V30 5875 H 525.927 3.25155 0.30686 0
M  V30 5876 H 524.586 3.17977 -1.82444 0
M  V30 5877 H 524.234 5.02694 -0.175539 0
M  V30 5878 H 523.934 5.57973 -1.84229 0
M  V30 5879 H 525.458 6.02013 -1.02042 0
M  V30 5880 H 526.872 4.8908 -2.99121 0
M  V30 5881 H 525.269 4.68163 -3.75425 0
M  V30 5882 H 526.339 3.27996 -3.57137 0
M  V30 5883 N 527.682 1.05563 1.17022 0
M  V30 5884 C 528.907 0.788437 1.91829 0
M  V30 5885 C 529.332 -0.650356 1.76499 0
M  V30 5886 O 528.69 -1.45229 1.08527 0
M  V30 5887 C 528.738 1.1786 3.40795 0
M  V30 5888 O 527.842 0.312965 4.11211 0
M  V30 5889 H 527.183 0.288794 0.597908 0
M  V30 5890 H 529.713 1.40948 1.48307 0
M  V30 5891 H 529.723 1.14697 3.91546 0
M  V30 5892 H 528.398 2.22666 3.51273 0
M  V30 5893 H 526.975 0.405515 3.70689 0
M  V30 5894 N 529.16 -1.33526 0.837174 0
M  V30 5895 C 530.406 -1.9813 0.432704 0
M  V30 5896 C 530.739 -1.66168 -1.00508 0
M  V30 5897 O 530.014 -0.94069 -1.70239 0
M  V30 5898 C 530.297 -3.54151 0.651834 0
M  V30 5899 C 530.15 -3.95806 2.13676 0
M  V30 5900 C 531.469 -4.39993 0.0968937 0
M  V30 5901 H 528.588 -0.719713 0.15869 0
M  V30 5902 H 531.23 -1.58193 1.05237 0
M  V30 5903 H 529.38 -3.88301 0.124369 0
M  V30 5904 H 531.052 -3.71921 2.72896 0
M  V30 5905 H 529.295 -3.45599 2.62191 0
M  V30 5906 H 529.966 -5.0447 2.24084 0
M  V30 5907 H 532.442 -4.12479 0.547733 0
M  V30 5908 H 531.318 -5.48186 0.279917 0
M  V30 5909 H 531.579 -4.3066 -0.9992 0
M  V30 5910 N 530.638 -0.59345 -1.46 0
M  V30 5911 C 531.568 0.121192 -2.33185 0
M  V30 5912 C 532.549 0.872977 -1.4599 0
M  V30 5913 O 533.734 0.846321 -1.74789 0
M  V30 5914 C 530.864 1.12844 -3.28456 0
M  V30 5915 C 529.818 0.4908 -4.25177 0
M  V30 5916 C 529.144 1.60529 -5.10034 0
M  V30 5917 C 530.444 -0.578949 -5.19081 0
M  V30 5918 H 532.138 -0.606767 -2.93187 0
M  V30 5919 H 529.684 -0.293242 -1.40983 0
M  V30 5920 H 531.637 1.63684 -3.88311 0
M  V30 5921 H 530.361 1.88681 -2.66584 0
M  V30 5922 H 529.02 0.00339328 -3.666 0
M  V30 5923 H 528.668 2.35359 -4.44539 0
M  V30 5924 H 528.368 1.18422 -5.75543 0
M  V30 5925 H 529.892 2.11623 -5.72755 0
M  V30 5926 H 531.306 -0.155199 -5.7309 0
M  V30 5927 H 529.703 -0.920947 -5.92991 0
M  V30 5928 H 530.773 -1.46109 -4.62364 0
M  V30 5929 N 532.116 1.54067 -0.331816 0
M  V30 5930 C 533.026 2.28322 0.539104 0
M  V30 5931 C 534.042 1.32985 1.1221 0
M  V30 5932 O 535.218 1.6601 1.1403 0
M  V30 5933 C 532.283 3.03277 1.68 0
M  V30 5934 C 531.344 4.14216 1.12798 0
M  V30 5935 C 530.577 4.85588 2.2145 0
M  V30 5936 O 530.8 4.56536 3.41952 0
M  V30 5937 O 529.734 5.72309 1.86404 0
M  V30 5938 H 533.56 3.03632 -0.0641692 0
M  V30 5939 H 531.145 1.49083 -0.0972365 0
M  V30 5940 H 533.027 3.50189 2.34405 0
M  V30 5941 H 531.702 2.30834 2.2693 0
M  V30 5942 H 530.609 3.71635 0.428782 0
M  V30 5943 H 531.942 4.88727 0.583698 0
M  V30 5944 N 533.594 0.0601682 1.57485 0
M  V30 5945 C 534.824 -0.620037 1.97076 0
M  V30 5946 C 535.232 -1.64381 0.936784 0
M  V30 5947 O 534.575 -1.83497 -0.0863377 0
M  V30 5948 C 534.637 -1.35617 3.32939 0
M  V30 5949 C 534.301 -0.487208 4.54396 0
M  V30 5950 C 535.298 0.250428 5.19297 0
M  V30 5951 C 532.983 -0.415494 5.00579 0
M  V30 5952 C 534.977 1.04812 6.28723 0
M  V30 5953 C 532.664 0.385879 6.0988 0
M  V30 5954 C 533.662 1.11637 6.73815 0
M  V30 5955 O 533.35 1.90454 7.81014 0
M  V30 5956 H 533.082 -0.173664 0.653312 0
M  V30 5957 H 535.636 0.1256 2.05016 0
M  V30 5958 H 533.866 -2.14763 3.2158 0
M  V30 5959 H 535.555 -1.92749 3.57215 0
M  V30 5960 H 536.321 0.204546 4.84568 0
M  V30 5961 H 532.2 -0.973679 4.506 0
M  V30 5962 H 535.744 1.6188 6.78558 0
M  V30 5963 H 531.641 0.433366 6.44044 0
M  V30 5964 H 532.409 1.82762 7.97835 0
M  V30 5965 N 535.072 -1.5615 -0.213296 0
M  V30 5966 C 536.035 -1.92249 -1.24792 0
M  V30 5967 C 537.035 -0.801828 -1.39382 0
M  V30 5968 O 538.225 -1.06948 -1.37506 0
M  V30 5969 C 535.357 -2.18056 -2.62039 0
M  V30 5970 H 536.55 -2.84793 -0.939845 0
M  V30 5971 H 534.103 -1.49559 -0.454062 0
M  V30 5972 H 534.838 -1.2809 -2.97932 0
M  V30 5973 H 534.623 -2.99703 -2.52825 0
M  V30 5974 H 536.113 -2.47051 -3.36683 0
M  V30 5975 N 536.55 0.480323 -1.50102 0
M  V30 5976 C 537.513 1.56181 -1.6775 0
M  V30 5977 C 538.513 1.51156 -0.548503 0
M  V30 5978 O 539.703 1.5394 -0.815363 0
M  V30 5979 C 536.835 2.95823 -1.69415 0
M  V30 5980 H 538.028 1.41855 -2.6423 0
M  V30 5981 H 535.581 0.70605 -1.39444 0
M  V30 5982 H 536.316 3.15604 -0.745948 0
M  V30 5983 H 536.101 3.00878 -2.51425 0
M  V30 5984 H 537.591 3.74359 -1.85054 0
M  V30 5985 N 538.028 1.39524 0.732853 0
M  V30 5986 C 539.274 1.37068 1.49467 0
M  V30 5987 C 539.607 -0.0327166 1.94172 0
M  V30 5988 O 538.882 -0.998071 1.66939 0
M  V30 5989 C 539.165 2.34494 2.73285 0
M  V30 5990 C 539.018 3.83784 2.34585 0
M  V30 5991 C 540.337 2.29717 3.75391 0
M  V30 5992 H 537.456 0.499206 0.542183 0
M  V30 5993 H 540.098 1.70532 0.837783 0
M  V30 5994 H 538.248 2.06087 3.29333 0
M  V30 5995 H 539.92 4.22949 1.84151 0
M  V30 5996 H 538.163 4.00455 1.66787 0
M  V30 5997 H 538.834 4.47444 3.23262 0
M  V30 5998 H 541.31 2.54839 3.28932 0
M  V30 5999 H 540.186 2.99962 4.59689 0
M  V30 6000 H 540.447 1.30291 4.22465 0
M  V30 6001 N 539.506 -0.963266 1.24736 0
M  V30 6002 C 540.454 -2.07985 1.04139 0
M  V30 6003 C 541.448 -1.69381 -0.0250556 0
M  V30 6004 O 542.654 -1.79531 0.129863 0
M  V30 6005 H 539.029 -0.680627 0.319768 0
M  V30 6006 H 541 -2.22517 1.98818 0
M  V30 6007 C 539.749 -3.4123 0.667615 0
M  V30 6008 H 539.072 -3.71397 1.48 0
M  V30 6009 H 540.512 -4.20244 0.563136 0
M  V30 6010 C 538.971 -3.3104 -0.625647 0
M  V30 6011 O 539.501 -3.65334 -1.67016 0
M  V30 6012 N 537.707 -2.84168 -0.608033 0
M  V30 6013 H 537.254 -2.56458 0.242323 0
M  V30 6014 H 537.212 -2.77732 -1.47352 0
M  V30 6015 N 540.985 -1.06182 -1.16461 0
M  V30 6016 C 542.215 -0.797425 -1.9059 0
M  V30 6017 C 542.623 0.651845 -1.77616 0
M  V30 6018 O 541.966 1.45788 -1.11766 0
M  V30 6019 C 542.028 -1.11128 -3.41893 0
M  V30 6020 C 541.692 -2.55874 -3.78652 0
M  V30 6021 C 542.689 -3.54104 -3.80665 0
M  V30 6022 C 540.374 -2.91144 -4.09317 0
M  V30 6023 C 542.368 -4.85645 -4.12829 0
M  V30 6024 C 540.055 -4.22885 -4.41148 0
M  V30 6025 C 541.053 -5.19945 -4.42883 0
M  V30 6026 O 540.741 -6.49322 -4.73959 0
M  V30 6027 H 540.473 -0.288709 -0.611247 0
M  V30 6028 H 543.027 -1.41841 -1.4856 0
M  V30 6029 H 541.257 -0.433217 -3.84266 0
M  V30 6030 H 542.946 -0.831306 -3.97296 0
M  V30 6031 H 543.712 -3.28197 -3.57088 0
M  V30 6032 H 539.591 -2.16252 -4.07131 0
M  V30 6033 H 543.135 -5.61398 -4.14099 0
M  V30 6034 H 539.032 -4.48551 -4.6419 0
M  V30 6035 H 539.8 -6.54294 -4.91774 0
M  V30 6036 N 542.463 1.3308 -0.844243 0
M  V30 6037 C 543.393 2.3161 -0.296493 0
M  V30 6038 C 544.374 1.59215 0.598707 0
M  V30 6039 O 545.559 1.87077 0.521134 0
M  V30 6040 C 542.689 3.43313 0.524762 0
M  V30 6041 C 541.643 4.27115 -0.275106 0
M  V30 6042 C 540.969 5.30483 0.670236 0
M  V30 6043 C 542.269 5.00443 -1.49514 0
M  V30 6044 H 543.963 2.77672 -1.11976 0
M  V30 6045 H 541.509 1.33496 -0.539899 0
M  V30 6046 H 543.462 4.11273 0.918298 0
M  V30 6047 H 542.186 2.95952 1.3813 0
M  V30 6048 H 540.845 3.60787 -0.650267 0
M  V30 6049 H 540.493 4.79379 1.52332 0
M  V30 6050 H 540.193 5.87435 0.139123 0
M  V30 6051 H 541.717 6.01308 1.06117 0
M  V30 6052 H 543.131 5.61141 -1.17447 0
M  V30 6053 H 541.528 5.67071 -1.96343 0
M  V30 6054 H 542.598 4.28906 -2.26202 0
M  V30 6055 N 543.941 0.601185 1.45683 0
M  V30 6056 C 545.169 0.100054 2.06658 0
M  V30 6057 C 545.584 -1.21285 1.44691 0
M  V30 6058 O 544.941 -1.73735 0.558772 0
M  V30 6059 C 544.992 -0.0528579 3.61461 0
M  V30 6060 O 544.713 1.20809 4.21114 0
M  V30 6061 C 546.214 -0.586193 4.39407 0
M  V30 6062 H 543.434 0.065905 0.667756 0
M  V30 6063 H 545.978 0.827101 1.87028 0
M  V30 6064 H 544.133 -0.730203 3.80456 0
M  V30 6065 H 544.547 1.03368 5.14213 0
M  V30 6066 H 546.021 -0.642297 5.4825 0
M  V30 6067 H 546.498 -1.60713 4.0874 0
M  V30 6068 H 547.104 0.0568935 4.25262 0
M  V30 6069 N 545.419 -1.53889 0.339982 0
M  V30 6070 C 546.647 -2.05271 -0.259114 0
M  V30 6071 C 547.062 -1.21517 -1.44496 0
M  V30 6072 O 546.419 -0.24966 -1.80784 0
M  V30 6073 C 546.47 -3.55092 -0.677634 0
M  V30 6074 O 546.191 -4.35667 0.461051 0
M  V30 6075 C 547.692 -4.22631 -1.33782 0
M  V30 6076 H 544.912 -0.669085 -0.0506566 0
M  V30 6077 H 547.456 -1.9852 0.490935 0
M  V30 6078 H 545.611 -3.62077 -1.37763 0
M  V30 6079 H 546.025 -5.24343 0.128144 0
M  V30 6080 H 547.499 -5.28861 -1.58145 0
M  V30 6081 H 547.976 -3.74758 -2.29027 0
M  V30 6082 H 548.582 -4.19829 -0.679957 0
M  V30 6083 N 546.897 -0.0685191 -1.57451 0
M  V30 6084 C 548.143 0.602239 -1.93652 0
M  V30 6085 C 548.476 1.6946 -0.948526 0
M  V30 6086 O 547.751 1.94487 0.022782 0
M  V30 6087 C 548.034 1.18223 -3.4014 0
M  V30 6088 C 547.887 0.0967431 -4.49696 0
M  V30 6089 C 549.206 2.08872 -3.87377 0
M  V30 6090 H 546.325 0.217453 -0.70419 0
M  V30 6091 H 548.967 -0.133821 -1.89528 0
M  V30 6092 H 547.117 1.80953 -3.43785 0
M  V30 6093 H 548.789 -0.536155 -4.58174 0
M  V30 6094 H 547.032 -0.573063 -4.29998 0
M  V30 6095 H 547.703 0.542894 -5.49324 0
M  V30 6096 H 550.179 1.56081 -3.85717 0
M  V30 6097 H 549.055 2.46389 -4.90493 0
M  V30 6098 H 549.316 2.99572 -3.25129 0
M  V30 6099 N 548.375 1.56261 0.205012 0
M  V30 6100 C 549.307 1.90266 1.27795 0
M  V30 6101 C 550.32 0.792397 1.42214 0
M  V30 6102 O 551.509 1.07077 1.42817 0
M  V30 6103 C 548.609 2.11074 2.65143 0
M  V30 6104 C 547.782 3.42176 2.7246 0
M  V30 6105 C 546.841 3.52216 3.90936 0
M  V30 6106 O 545.867 4.25119 3.78501 0
M  V30 6107 N 547.069 2.84573 5.05963 0
M  V30 6108 H 549.834 2.82896 0.989434 0
M  V30 6109 H 547.395 1.57008 0.394981 0
M  V30 6110 H 549.387 2.15089 3.4281 0
M  V30 6111 H 547.957 1.2499 2.86524 0
M  V30 6112 H 547.177 3.50116 1.81142 0
M  V30 6113 H 548.465 4.28509 2.74331 0
M  V30 6114 H 547.863 2.25152 5.18963 0
M  V30 6115 H 546.42 2.94228 5.81613 0
M  V30 6116 N 549.853 -0.472356 1.50355 0
M  V30 6117 C 550.763 -1.59637 1.7191 0
M  V30 6118 C 551.779 -1.63247 0.602195 0
M  V30 6119 O 552.955 -1.81139 0.880369 0
M  V30 6120 C 550.02 -2.9586 1.80742 0
M  V30 6121 C 549.081 -3.02649 3.04471 0
M  V30 6122 C 548.314 -4.32374 3.12872 0
M  V30 6123 O 548.537 -5.22807 2.28099 0
M  V30 6124 O 547.471 -4.44728 4.05587 0
M  V30 6125 H 551.297 -1.44373 2.67189 0
M  V30 6126 H 548.882 -0.651717 1.34436 0
M  V30 6127 H 550.764 -3.7677 1.88739 0
M  V30 6128 H 549.439 -3.11325 0.88647 0
M  V30 6129 H 548.346 -2.20821 3.01975 0
M  V30 6130 H 549.679 -2.92119 3.9614 0
M  V30 6131 N 551.331 -1.39911 -0.725443 0
M  V30 6132 C 552.747 -1.21725 -1.03224 0
M  V30 6133 C 552.947 -0.0855224 -2.01318 0
M  V30 6134 O 552.003 0.55976 -2.46217 0
M  V30 6135 C 553.316 -2.55511 -1.58539 0
M  V30 6136 C 554.864 -2.62439 -1.70572 0
M  V30 6137 C 555.339 -3.9647 -2.29294 0
M  V30 6138 N 556.83 -3.98159 -2.36692 0
M  V30 6139 C 557.565 -4.98647 -2.83088 0
M  V30 6140 N 557.061 -6.0953 -3.2931 0
M  V30 6141 N 558.854 -4.8602 -2.82384 0
M  V30 6142 H 551.005 -2.12267 -0.075048 0
M  V30 6143 H 553.268 -0.943136 -0.0959066 0
M  V30 6144 H 552.974 -3.38926 -0.939249 0
M  V30 6145 H 552.848 -2.75905 -2.57208 0
M  V30 6146 H 555.235 -1.79401 -2.34306 0
M  V30 6147 H 555.316 -2.45885 -0.705297 0
M  V30 6148 H 554.96 -4.79942 -1.66186 0
M  V30 6149 H 554.89 -4.10349 -3.30032 0
M  V30 6150 H 557.381 -3.18085 -2.04035 0
M  V30 6151 H 557.694 -6.82106 -3.6325 0
M  V30 6152 H 556.039 -6.1311 -3.27294 0
M  V30 6153 H 559.23 -3.98493 -2.45603 0
M  V30 6154 H 559.403 -5.64478 -3.18226 0
M  V30 6155 N 552.809 0.956637 -1.25245 0
M  V30 6156 C 553.756 2.053 -1.05454 0
M  V30 6157 C 554.726 1.66062 0.0356889 0
M  V30 6158 O 555.911 1.90415 -0.121099 0
M  V30 6159 C 553.051 3.38391 -0.677191 0
M  V30 6160 C 552.164 3.90758 -1.84206 0
M  V30 6161 C 551.299 5.12165 -1.40926 0
M  V30 6162 C 550.338 5.56757 -2.54338 0
M  V30 6163 N 549.475 6.69376 -2.11848 0
M  V30 6164 H 554.315 2.21562 -1.99284 0
M  V30 6165 H 551.852 1.08578 -0.992434 0
M  V30 6166 H 553.81 4.1488 -0.43938 0
M  V30 6167 H 552.44 3.22021 0.224127 0
M  V30 6168 H 551.492 3.10808 -2.19323 0
M  V30 6169 H 552.804 4.19802 -2.69383 0
M  V30 6170 H 551.958 5.96065 -1.13098 0
M  V30 6171 H 550.697 4.84832 -0.528175 0
M  V30 6172 H 549.702 4.71423 -2.82913 0
M  V30 6173 H 550.927 5.861 -3.43022 0
M  V30 6174 H 548.873 6.43756 -1.26153 0
M  V30 6175 H 548.79 6.97927 -2.90574 0
M  V30 6176 H 550.058 7.5669 -1.87191 0
M  V30 6177 N 554.287 1.06798 1.15896 0
M  V30 6178 C 555.197 0.694564 2.24083 0
M  V30 6179 C 556.213 -0.291687 1.71538 0
M  V30 6180 O 557.389 -0.139723 2.00915 0
M  V30 6181 C 554.454 0.0921014 3.46578 0
M  V30 6182 C 553.515 1.13087 4.14137 0
M  V30 6183 C 552.748 0.557064 5.30785 0
M  V30 6184 O 552.971 -0.628623 5.66925 0
M  V30 6185 O 551.905 1.29924 5.8771 0
M  V30 6186 H 555.731 1.59663 2.58344 0
M  V30 6187 H 553.316 0.840575 1.2351 0
M  V30 6188 H 555.198 -0.241884 4.20705 0
M  V30 6189 H 553.873 -0.78337 3.14078 0
M  V30 6190 H 552.78 1.51712 3.41957 0
M  V30 6191 H 554.113 1.97805 4.50704 0
M  V30 6192 N 555.766 -1.3263 0.851289 0
M  V30 6193 C 556.698 -2.27824 0.250757 0
M  V30 6194 C 557.711 -1.52285 -0.575598 0
M  V30 6195 O 558.9 -1.73946 -0.400638 0
M  V30 6196 C 556 -3.3232 -0.664571 0
M  V30 6197 C 555.173 -4.37221 0.125187 0
M  V30 6198 C 554.232 -5.21314 -0.715385 0
M  V30 6199 O 553.258 -5.69002 -0.150111 0
M  V30 6200 N 554.46 -5.43823 -2.03069 0
M  V30 6201 H 557.225 -2.79997 1.06873 0
M  V30 6202 H 554.786 -1.45455 0.710943 0
M  V30 6203 H 556.778 -3.85486 -1.23216 0
M  V30 6204 H 555.348 -2.80331 -1.38323 0
M  V30 6205 H 554.568 -3.84384 0.874199 0
M  V30 6206 H 555.856 -5.04399 0.667774 0
M  V30 6207 H 555.254 -5.06803 -2.51332 0
M  V30 6208 H 553.811 -5.99998 -2.54648 0
M  V30 6209 N 557.244 -0.608902 -1.45362 0
M  V30 6210 C 558.191 0.109172 -2.30542 0
M  V30 6211 C 559.161 0.858704 -1.42181 0
M  V30 6212 O 560.346 0.844178 -1.71109 0
M  V30 6213 C 557.486 1.09971 -3.27109 0
M  V30 6214 C 556.599 0.350911 -4.30572 0
M  V30 6215 C 555.734 1.33129 -5.14247 0
M  V30 6216 C 554.773 0.570377 -6.09437 0
M  V30 6217 N 553.91 1.5001 -6.85887 0
M  V30 6218 H 558.75 -0.623195 -2.91411 0
M  V30 6219 H 556.287 -0.319122 -1.43597 0
M  V30 6220 H 558.245 1.68714 -3.81564 0
M  V30 6221 H 556.875 1.79947 -2.67991 0
M  V30 6222 H 555.927 -0.352054 -3.78767 0
M  V30 6223 H 557.239 -0.242725 -4.98209 0
M  V30 6224 H 556.393 1.99074 -5.73109 0
M  V30 6225 H 555.132 1.95885 -4.46632 0
M  V30 6226 H 554.137 -0.102702 -5.49704 0
M  V30 6227 H 555.362 -0.0521607 -6.7908 0
M  V30 6228 H 553.308 2.11529 -6.2096 0
M  V30 6229 H 553.225 0.959934 -7.49881 0
M  V30 6230 H 554.493 2.14909 -7.49289 0
M  V30 6231 N 558.722 1.53707 -0.348139 0
M  V30 6232 C 559.652 2.28111 0.498766 0
M  V30 6233 C 560.633 1.29851 1.09876 0
M  V30 6234 O 561.818 1.587 1.11928 0
M  V30 6235 C 558.948 3.05735 1.64753 0
M  V30 6236 C 557.902 4.11537 1.17565 0
M  V30 6237 C 557.228 4.77142 2.4133 0
M  V30 6238 C 558.528 5.21587 0.272844 0
M  V30 6239 H 560.222 2.99152 -0.121934 0
M  V30 6240 H 557.768 1.43875 -0.0600842 0
M  V30 6241 H 559.721 3.56526 2.24649 0
M  V30 6242 H 558.445 2.32354 2.2952 0
M  V30 6243 H 557.104 3.61665 0.599483 0
M  V30 6244 H 556.752 4.0035 3.04514 0
M  V30 6245 H 556.452 5.48626 2.10436 0
M  V30 6246 H 557.976 5.30719 3.01943 0
M  V30 6247 H 559.39 5.67986 0.778779 0
M  V30 6248 H 557.787 6.00074 0.0555849 0
M  V30 6249 H 558.857 4.79969 -0.689785 0
M  V30 6250 N 560.2 0.0768682 1.57412 0
M  V30 6251 C 561.616 -0.279772 1.57129 0
M  V30 6252 C 561.816 -1.69688 1.08666 0
M  V30 6253 O 560.872 -2.40953 0.754843 0
M  V30 6254 C 562.185 -0.0848055 3.0058 0
M  V30 6255 C 563.733 -0.153954 3.12621 0
M  V30 6256 C 564.208 0.0127946 4.57998 0
M  V30 6257 N 565.699 -0.0426435 4.6318 0
M  V30 6258 C 566.434 0.0618892 5.73367 0
M  V30 6259 N 565.93 0.220229 6.9245 0
M  V30 6260 N 567.723 0.00446072 5.621 0
M  V30 6261 H 559.874 1.00297 1.87228 0
M  V30 6262 H 562.137 0.391565 0.863354 0
M  V30 6263 H 561.843 0.89325 3.40168 0
M  V30 6264 H 561.717 -0.834961 3.67843 0
M  V30 6265 H 564.104 -1.1225 2.72917 0
M  V30 6266 H 564.185 0.627389 2.47987 0
M  V30 6267 H 563.829 0.978128 4.98392 0
M  V30 6268 H 563.759 -0.788016 5.20671 0
M  V30 6269 H 566.25 -0.163226 3.77547 0
M  V30 6270 H 566.563 0.291999 7.72248 0
M  V30 6271 H 564.908 0.255658 6.9453 0
M  V30 6272 H 568.099 -0.117979 4.67951 0
M  V30 6273 H 568.272 0.0893796 6.47938 0
M  V30 6274 N 561.678 -1.56367 -0.196722 0
M  V30 6275 C 562.588 -1.97617 -1.2643 0
M  V30 6276 C 563.604 -0.883598 -1.49895 0
M  V30 6277 O 564.78 -1.18921 -1.62541 0
M  V30 6278 C 561.845 -2.30595 -2.58895 0
M  V30 6279 C 560.906 -3.53551 -2.43516 0
M  V30 6280 C 560.139 -3.84946 -3.69665 0
M  V30 6281 O 560.362 -3.17655 -4.73763 0
M  V30 6282 O 559.296 -4.78379 -3.65291 0
M  V30 6283 H 563.122 -2.88648 -0.944233 0
M  V30 6284 H 560.707 -1.43901 -0.401592 0
M  V30 6285 H 562.589 -2.52889 -3.37083 0
M  V30 6286 H 561.264 -1.42732 -2.90533 0
M  V30 6287 H 560.171 -3.36507 -1.63445 0
M  V30 6288 H 561.504 -4.41875 -2.16812 0
M  V30 6289 N 563.156 0.464375 -1.50603 0
M  V30 6290 C 564.103 1.56152 -1.69956 0
M  V30 6291 C 565.073 1.57046 -0.54091 0
M  V30 6292 O 566.258 1.74473 -0.772258 0
M  V30 6293 C 563.398 2.94079 -1.80586 0
M  V30 6294 C 562.511 3.02923 -3.07996 0
M  V30 6295 C 561.646 4.31806 -3.09382 0
M  V30 6296 C 560.685 4.34417 -4.31218 0
M  V30 6297 N 559.822 5.54782 -4.30304 0
M  V30 6298 H 564.662 1.38955 -2.6362 0
M  V30 6299 H 562.199 0.675482 -1.30674 0
M  V30 6300 H 564.157 3.74073 -1.8473 0
M  V30 6301 H 562.787 3.09896 -0.903556 0
M  V30 6302 H 561.839 2.1576 -3.13292 0
M  V30 6303 H 563.151 3.00712 -3.97962 0
M  V30 6304 H 562.305 5.20153 -3.12292 0
M  V30 6305 H 561.044 4.36636 -2.17257 0
M  V30 6306 H 560.049 3.44467 -4.28512 0
M  V30 6307 H 561.274 4.31273 -5.24576 0
M  V30 6308 H 559.22 5.60384 -3.41037 0
M  V30 6309 H 559.137 5.54339 -5.14047 0
M  V30 6310 H 560.405 6.45235 -4.3737 0
M  V30 6311 N 564.634 1.40294 0.718013 0
M  V30 6312 C 565.564 1.43118 1.84498 0
M  V30 6313 C 566.545 0.292403 1.67568 0
M  V30 6314 O 567.73 0.500675 1.87635 0
M  V30 6315 C 564.86 1.29065 3.22427 0
M  V30 6316 C 563.814 2.40521 3.54025 0
M  V30 6317 C 563.14 2.11546 4.91073 0
M  V30 6318 C 564.44 3.82859 3.55269 0
M  V30 6319 H 566.134 2.37432 1.82391 0
M  V30 6320 H 563.68 1.14283 0.87609 0
M  V30 6321 H 565.633 1.29658 4.00957 0
M  V30 6322 H 564.357 0.312271 3.25104 0
M  V30 6323 H 563.016 2.39173 2.77834 0
M  V30 6324 H 562.664 1.12104 4.90348 0
M  V30 6325 H 562.364 2.86216 5.1318 0
M  V30 6326 H 563.888 2.13817 5.71939 0
M  V30 6327 H 565.302 3.86044 4.23843 0
M  V30 6328 H 563.699 4.57029 3.88902 0
M  V30 6329 H 564.769 4.12617 2.54706 0
M  V30 6330 N 566.112 -0.949982 1.2575 0
M  V30 6331 C 567.523 -1.50989 1.09815 0
M  V30 6332 C 567.874 -1.93497 -0.324556 0
M  V30 6333 O 566.999 -1.79068 -1.21506 0
M  V30 6334 C 567.594 -2.74394 1.98729 0
M  V30 6335 C 566.153 -3.26682 1.86965 0
M  V30 6336 C 565.3 -1.99498 1.92603 0
M  V30 6337 H 568.251 -0.766387 1.38968 0
M  V30 6338 H 568.272 -3.48383 1.53001 0
M  V30 6339 H 567.784 -2.43425 3.02268 0
M  V30 6340 H 565.885 -3.62461 0.863279 0
M  V30 6341 H 565.998 -3.94383 2.72027 0
M  V30 6342 H 564.362 -2.15005 1.36546 0
M  V30 6343 H 565.145 -1.70871 2.97755 0
M  V30 6344 N 567.59 -1.07411 -1.15328 0
M  V30 6345 C 568.83 -0.807011 -1.87794 0
M  V30 6346 C 569.194 0.654987 -1.80482 0
M  V30 6347 O 570.395 1.03716 -2.47985 0
M  V30 6348 C 568.666 -1.30198 -3.32841 0
M  V30 6349 S 570.225 -1.16564 -4.23034 0
M  V30 6350 H 567.043 -0.292429 -0.648079 0
M  V30 6351 H 569.645 -1.37334 -1.39139 0
M  V30 6352 H 568.349 -2.3607 -3.35707 0
M  V30 6353 H 567.88 -0.730881 -3.86551 0
M  V30 6354 H 569.895 -0.103557 -4.96092 0
M  V30 6355 N 569.068 1.32177 -0.85831 0
M  V30 6356 C 570.296 2.01313 -0.477582 0
M  V30 6357 C 570.711 1.6449 0.926736 0
M  V30 6358 O 570.068 0.868096 1.60531 0
M  V30 6359 C 570.119 3.56293 -0.611337 0
M  V30 6360 O 569.84 3.91794 -1.96034 0
M  V30 6361 C 571.341 4.42702 -0.230093 0
M  V30 6362 H 568.561 0.644323 -0.187322 0
M  V30 6363 H 571.105 1.68674 -1.15626 0
M  V30 6364 H 569.26 3.87395 0.0196494 0
M  V30 6365 H 569.674 4.86513 -1.95973 0
M  V30 6366 H 571.148 5.50727 -0.374674 0
M  V30 6367 H 571.625 4.3129 0.829779 0
M  V30 6368 H 572.231 4.16997 -0.836302 0
M  V30 6369 N 570.547 0.616602 1.45037 0
M  V30 6370 C 571.772 0.120192 2.07051 0
M  V30 6371 C 572.197 -1.19008 1.45666 0
M  V30 6372 O 571.555 -1.7267 0.552692 0
M  V30 6373 C 571.603 0.00354901 3.606 0
M  V30 6374 O 570.707 -1.04431 3.98958 0
M  V30 6375 H 570.048 0.0781599 0.659384 0
M  V30 6376 H 572.578 0.849167 1.86146 0
M  V30 6377 H 572.588 -0.191754 4.07549 0
M  V30 6378 H 571.263 0.960239 4.04663 0
M  V30 6379 H 569.84 -0.824749 3.63665 0
M  V30 6380 N 572.025 -1.5352 0.356285 0
M  V30 6381 C 573.273 -2.00719 -0.235837 0
M  V30 6382 C 573.594 -1.24551 -1.5004 0
M  V30 6383 O 572.864 -0.356185 -1.92635 0
M  V30 6384 H 571.444 -0.741542 -0.0901366 0
M  V30 6385 H 574.106 -1.88887 0.480378 0
M  V30 6386 H 573.202 -3.08551 -0.469357 0
M  V30 6387 N 573.503 -0.0852151 -1.57369 0
M  V30 6388 C 574.433 0.874556 -2.16503 0
M  V30 6389 C 575.414 1.30111 -1.09568 0
M  V30 6390 O 576.599 1.36977 -1.37662 0
M  V30 6391 C 573.729 2.13731 -2.73745 0
M  V30 6392 C 572.683 1.84971 -3.85966 0
M  V30 6393 C 572.009 3.17991 -4.29867 0
M  V30 6394 C 573.309 1.14442 -5.09608 0
M  V30 6395 H 575.003 0.381899 -2.96954 0
M  V30 6396 H 572.549 0.18225 -1.42842 0
M  V30 6397 H 574.502 2.81302 -3.13763 0
M  V30 6398 H 573.226 2.65263 -1.90534 0
M  V30 6399 H 571.885 1.19801 -3.46473 0
M  V30 6400 H 571.533 3.6739 -3.4356 0
M  V30 6401 H 571.233 2.99534 -5.05523 0
M  V30 6402 H 572.757 3.86737 -4.72511 0
M  V30 6403 H 574.171 1.72105 -5.46857 0
M  V30 6404 H 572.568 1.06197 -5.90629 0
M  V30 6405 H 573.638 0.12559 -4.84737 0
M  V30 6406 N 574.981 1.5647 0.188427 0
M  V30 6407 C 576.392 1.70864 0.752494 0
M  V30 6408 C 576.743 0.692905 1.83557 0
M  V30 6409 O 575.868 -0.149307 2.15884 0
M  V30 6410 C 576.463 3.09789 1.37173 0
M  V30 6411 C 575.022 3.25925 1.88281 0
M  V30 6412 C 574.169 2.66817 0.755259 0
M  V30 6413 H 577.12 1.58657 -0.0367408 0
M  V30 6414 H 577.141 3.07489 2.24122 0
M  V30 6415 H 576.653 3.83693 0.583219 0
M  V30 6416 H 574.754 2.56948 2.6983 0
M  V30 6417 H 574.867 4.33498 2.04001 0
M  V30 6418 H 573.231 2.2617 1.17128 0
M  V30 6419 H 574.014 3.43294 -0.0211237 0
M  V30 6420 N 576.459 -0.456382 1.50847 0
M  V30 6421 C 577.87 -1.03685 1.55262 0
M  V30 6422 C 578.221 -1.92779 0.364771 0
M  V30 6423 O 577.346 -2.10043 -0.52068 0
M  V30 6424 C 577.941 -1.88718 2.81374 0
M  V30 6425 C 576.5 -2.41847 2.88422 0
M  V30 6426 C 575.647 -1.20564 2.49719 0
M  V30 6427 H 578.598 -0.238399 1.56899 0
M  V30 6428 H 578.619 -2.73957 2.6406 0
M  V30 6429 H 578.131 -1.23847 3.67809 0
M  V30 6430 H 576.232 -3.10228 2.06372 0
M  V30 6431 H 576.345 -2.75947 3.9165 0
M  V30 6432 H 574.709 -1.54504 2.02486 0
M  V30 6433 H 575.492 -0.573326 3.38479 0
M  V30 6434 N 577.937 -1.40673 -0.710563 0
M  V30 6435 C 579.348 -1.34975 -1.28991 0
M  V30 6436 C 579.699 -0.0256272 -1.96183 0
M  V30 6437 O 578.824 0.876339 -1.97862 0
M  V30 6438 C 579.419 -2.44467 -2.34567 0
M  V30 6439 C 577.978 -2.42213 -2.88114 0
M  V30 6440 C 577.125 -2.25085 -1.61963 0
M  V30 6441 H 580.076 -1.50406 -0.506343 0
M  V30 6442 H 580.097 -2.12663 -3.15523 0
M  V30 6443 H 579.609 -3.40825 -1.85634 0
M  V30 6444 H 577.71 -1.49568 -3.41263 0
M  V30 6445 H 577.823 -3.37983 -3.39565 0
M  V30 6446 H 576.187 -1.72691 -1.87216 0
M  V30 6447 H 576.97 -3.23449 -1.15047 0
M  V30 6448 N 579.415 0.9433 -1.26252 0
M  V30 6449 C 580.831 1.21644 -1.03319 0
M  V30 6450 C 581.031 2.0003 0.242983 0
M  V30 6451 O 580.087 2.33838 0.952688 0
M  V30 6452 C 581.4 1.97978 -2.2633 0
M  V30 6453 C 582.948 2.10978 -2.31209 0
M  V30 6454 C 583.423 2.90713 -3.53907 0
M  V30 6455 N 584.914 2.98287 -3.54371 0
M  V30 6456 C 585.649 3.60406 -4.45976 0
M  V30 6457 N 585.145 4.24043 -5.47868 0
M  V30 6458 N 586.938 3.57658 -4.33633 0
M  V30 6459 H 579.089 0.419221 -2.08222 0
M  V30 6460 H 581.352 0.247995 -0.914988 0
M  V30 6461 H 581.058 1.47788 -3.19142 0
M  V30 6462 H 580.932 2.9865 -2.30408 0
M  V30 6463 H 583.319 2.6036 -1.38913 0
M  V30 6464 H 583.4 1.09575 -2.31143 0
M  V30 6465 H 583.044 2.42018 -4.46531 0
M  V30 6466 H 582.974 3.92367 -3.5122 0
M  V30 6467 H 585.465 2.53044 -2.80673 0
M  V30 6468 H 585.778 4.69334 -6.13959 0
M  V30 6469 H 584.123 4.22637 -5.51728 0
M  V30 6470 H 587.314 3.07134 -3.53251 0
M  V30 6471 H 587.487 4.05782 -5.05218 0
M  V30 6472 N 580.893 1.08022 1.14757 0
M  V30 6473 C 582.121 0.828847 1.89572 0
M  V30 6474 C 582.536 -0.618621 1.78377 0
M  V30 6475 O 581.893 -1.42482 1.1404 0
M  V30 6476 C 581.944 1.23677 3.39685 0
M  V30 6477 O 581.665 2.62746 3.50566 0
M  V30 6478 C 583.166 1.01569 4.31507 0
M  V30 6479 H 580.386 0.299196 0.600602 0
M  V30 6480 H 582.93 1.43846 1.45357 0
M  V30 6481 H 581.085 0.671347 3.81539 0
M  V30 6482 H 581.499 2.79573 4.43778 0
M  V30 6483 H 582.973 1.35055 5.35223 0
M  V30 6484 H 583.45 -0.0475433 4.39174 0
M  V30 6485 H 584.056 1.56636 3.95405 0
M  V30 6486 N 582.371 -1.3172 0.865308 0
M  V30 6487 C 583.334 -2.26918 0.322627 0
M  V30 6488 C 584.334 -1.52031 -0.523751 0
M  V30 6489 O 585.524 -1.70973 -0.333727 0
M  V30 6490 C 582.656 -3.36558 -0.542338 0
M  V30 6491 H 583.849 -2.76432 1.16298 0
M  V30 6492 H 581.402 -1.42573 0.640512 0
M  V30 6493 H 582.137 -2.92329 -1.40407 0
M  V30 6494 H 581.922 -3.92048 0.0636395 0
M  V30 6495 H 583.412 -4.07465 -0.91446 0
M  V30 6496 N 583.85 -0.624285 -1.44708 0
M  V30 6497 C 584.783 0.133905 -2.27807 0
M  V30 6498 C 585.76 0.857794 -1.38133 0
M  V30 6499 O 586.945 0.863277 -1.6757 0
M  V30 6500 C 584.072 1.19541 -3.16903 0
M  V30 6501 C 583.118 0.572813 -4.22636 0
M  V30 6502 S 583.951 -0.631953 -5.31758 0
M  V30 6503 C 585.106 0.429733 -6.24423 0
M  V30 6504 H 585.34 -0.571072 -2.91764 0
M  V30 6505 H 582.873 -0.412261 -1.48794 0
M  V30 6506 H 584.831 1.80293 -3.68788 0
M  V30 6507 H 583.492 1.87255 -2.5218 0
M  V30 6508 H 582.685 1.37205 -4.84965 0
M  V30 6509 H 582.287 0.0400641 -3.73979 0
M  V30 6510 H 584.579 1.30421 -6.64828 0
M  V30 6511 H 585.522 -0.157804 -7.07924 0
M  V30 6512 H 585.93 0.75256 -5.59461 0
M  V30 6513 N 585.328 1.53329 -0.364422 0
M  V30 6514 C 586.258 2.28627 0.474543 0
M  V30 6515 C 587.239 1.31009 1.08492 0
M  V30 6516 O 588.424 1.59878 1.10239 0
M  V30 6517 C 585.554 3.07465 1.61501 0
M  V30 6518 C 584.508 4.1276 1.13194 0
M  V30 6519 C 583.834 4.79674 2.36255 0
M  V30 6520 C 585.134 5.21847 0.217507 0
M  V30 6521 H 586.828 2.99005 -0.153656 0
M  V30 6522 H 584.374 1.43803 -0.0753406 0
M  V30 6523 H 586.327 3.58889 2.20855 0
M  V30 6524 H 585.051 2.34775 2.27042 0
M  V30 6525 H 583.71 3.62281 0.56109 0
M  V30 6526 H 583.358 4.03557 3.00251 0
M  V30 6527 H 583.058 5.50827 2.04606 0
M  V30 6528 H 584.582 5.33892 2.96297 0
M  V30 6529 H 585.996 5.6878 0.718493 0
M  V30 6530 H 584.393 6.00099 -0.00806408 0
M  V30 6531 H 585.463 4.7921 -0.740653 0
M  V30 6532 N 586.806 0.0935595 1.57322 0
M  V30 6533 C 588.083 -0.612692 1.85756 0
M  V30 6534 C 588.463 -1.86439 0.99013 0
M  V30 6535 O 587.811 -2.28416 0.0621362 0
M  V30 6536 C 588.021 -0.929547 3.36393 0
M  V30 6537 C 589.369 -1.29366 4.04413 0
M  V30 6538 O 590.393 -1.02061 3.41265 0
M  V30 6539 O 589.252 -1.80498 5.15832 0
M  V30 6540 H 586.346 -0.306444 0.768128 0
M  V30 6541 H 588.892 0.126141 1.69231 0
M  V30 6542 H 587.664 -0.0414766 3.91278 0
M  V30 6543 H 587.287 -1.72441 3.5826 0
M  V30 6544 N 588.284 -1.56567 -0.180126 0
M  V30 6545 C 589.532 -1.81133 -0.896392 0
M  V30 6546 C 589.853 -0.669114 -1.83161 0
M  V30 6547 O 589.123 0.311616 -1.93406 0
M  V30 6548 H 587.703 -0.668172 -0.333999 0
M  V30 6549 H 590.365 -1.94048 -0.182051 0
M  V30 6550 H 589.461 -2.74854 -1.47857 0
M  V30 6551 N 589.762 0.448376 -1.51087 0
M  V30 6552 C 590.71 1.56407 -1.72161 0
M  V30 6553 C 591.704 1.58878 -0.587721 0
M  V30 6554 O 592.91 1.62755 -0.768822 0
M  V30 6555 H 589.285 0.519423 -0.543786 0
M  V30 6556 H 591.256 1.35803 -2.65707 0
M  V30 6557 C 590.005 2.94163 -1.85373 0
M  V30 6558 H 589.328 2.9299 -2.72024 0
M  V30 6559 H 590.768 3.71625 -2.04135 0
M  V30 6560 C 589.227 3.31317 -0.610803 0
M  V30 6561 O 589.757 4.00985 0.239636 0
M  V30 6562 N 587.963 2.86966 -0.458127 0
M  V30 6563 H 587.51 2.30443 -1.15124 0
M  V30 6564 H 587.468 3.12188 0.372289 0
M  V30 6565 N 591.24 1.41047 0.703093 0
M  V30 6566 C 592.47 1.43133 1.48985 0
M  V30 6567 C 592.878 0.0328537 1.89171 0
M  V30 6568 O 592.221 -0.956469 1.56835 0
M  V30 6569 C 592.283 2.26991 2.78775 0
M  V30 6570 C 591.947 3.7525 2.60837 0
M  V30 6571 C 592.944 4.67591 2.27276 0
M  V30 6572 C 590.629 4.19208 2.76712 0
M  V30 6573 C 592.623 6.01877 2.09817 0
M  V30 6574 C 590.31 5.53561 2.5887 0
M  V30 6575 C 591.308 6.4471 2.25472 0
M  V30 6576 O 590.996 7.76584 2.07778 0
M  V30 6577 H 590.728 0.489788 0.465922 0
M  V30 6578 H 593.282 1.85886 0.873822 0
M  V30 6579 H 591.512 1.79038 3.42757 0
M  V30 6580 H 593.201 2.20867 3.40547 0
M  V30 6581 H 593.967 4.34923 2.14633 0
M  V30 6582 H 589.846 3.48572 3.01693 0
M  V30 6583 H 593.39 6.72986 1.83671 0
M  V30 6584 H 589.287 5.85811 2.71102 0
M  V30 6585 H 590.055 7.87649 2.22601 0
M  V30 6586 N 592.718 -0.936591 1.26751 0
M  V30 6587 C 593.943 -1.72288 1.15462 0
M  V30 6588 C 594.368 -1.85915 -0.285887 0
M  V30 6589 O 593.726 -1.35272 -1.20711 0
M  V30 6590 C 593.774 -3.10503 1.83359 0
M  V30 6591 O 592.878 -3.96745 1.1255 0
M  V30 6592 H 592.219 -0.52843 0.402067 0
M  V30 6593 H 594.749 -1.17271 1.67656 0
M  V30 6594 H 594.759 -3.60867 1.90365 0
M  V30 6595 H 593.434 -2.99901 2.88153 0
M  V30 6596 H 592.011 -3.55191 1.13551 0
M  V30 6597 N 594.196 -1.08629 -1.14182 0
M  V30 6598 C 595.473 -0.73002 -1.81466 0
M  V30 6599 C 595.853 0.785996 -1.95922 0
M  V30 6600 O 595.201 1.70535 -1.52086 0
M  V30 6601 C 595.411 -1.45957 -3.17014 0
M  V30 6602 C 596.759 -1.62008 -3.92477 0
M  V30 6603 O 597.783 -1.42141 -3.26611 0
M  V30 6604 O 596.642 -1.94806 -5.106 0
M  V30 6605 H 593.736 -0.261307 -0.784632 0
M  V30 6606 H 596.282 -1.188 -1.2118 0
M  V30 6607 H 595.054 -2.49221 -3.01669 0
M  V30 6608 H 594.677 -0.993222 -3.84995 0
M  V30 6609 N 595.674 1.31259 -0.872281 0
M  V30 6610 C 596.922 1.96233 -0.483409 0
M  V30 6611 C 597.243 1.69276 0.968012 0
M  V30 6612 O 596.513 1.00943 1.67891 0
M  V30 6613 H 595.093 0.726025 -0.175774 0
M  V30 6614 H 597.755 1.60024 -1.11258 0
M  V30 6615 H 596.851 3.05403 -0.643075 0
M  V30 6616 N 597.152 0.631951 1.44375 0
M  V30 6617 C 598.062 -0.073674 2.34484 0
M  V30 6618 C 599.078 -0.834825 1.52665 0
M  V30 6619 O 600.254 -0.786902 1.85391 0
M  V30 6620 C 597.319 -1.04247 3.30656 0
M  V30 6621 C 596.38 -0.280602 4.28382 0
M  V30 6622 C 595.613 -1.20325 5.19959 0
M  V30 6623 O 595.836 -2.44199 5.15484 0
M  V30 6624 O 594.77 -0.687128 5.97965 0
M  V30 6625 H 598.596 0.667477 2.96274 0
M  V30 6626 H 596.181 0.392144 1.44162 0
M  V30 6627 H 598.063 -1.59981 3.89851 0
M  V30 6628 H 596.738 -1.76422 2.71398 0
M  V30 6629 H 595.645 0.319804 3.72731 0
M  V30 6630 H 596.978 0.401144 4.90563 0
M  V30 6631 N 598.631 -1.53133 0.372548 0
M  V30 6632 C 599.877 -2.01654 -0.215277 0
M  V30 6633 C 600.21 -1.25914 -1.47849 0
M  V30 6634 O 599.485 -0.3548 -1.91237 0
M  V30 6635 C 599.768 -3.56609 -0.500187 0
M  V30 6636 C 599.621 -4.43036 0.777145 0
M  V30 6637 C 600.94 -4.20528 -1.29786 0
M  V30 6638 H 598.059 -0.732991 -0.0767686 0
M  V30 6639 H 600.701 -1.83335 0.498814 0
M  V30 6640 H 598.851 -3.7235 -1.10852 0
M  V30 6641 H 600.523 -4.39079 1.41447 0
M  V30 6642 H 598.766 -4.10723 1.39604 0
M  V30 6643 H 599.437 -5.49424 0.532662 0
M  V30 6644 H 601.913 -4.08663 -0.783198 0
M  V30 6645 H 600.789 -5.28962 -1.46596 0
M  V30 6646 H 601.05 -3.77051 -2.30836 0
M  V30 6647 N 600.109 -0.101901 -1.5727 0
M  V30 6648 C 601.057 0.872034 -2.15635 0
M  V30 6649 C 602.051 1.28742 -1.10099 0
M  V30 6650 O 603.257 1.26116 -1.28432 0
M  V30 6651 H 599.632 0.299269 -0.689886 0
M  V30 6652 H 601.603 0.355137 -2.96279 0
M  V30 6653 C 600.352 2.11886 -2.7568 0
M  V30 6654 H 599.675 1.80813 -3.56576 0
M  V30 6655 H 601.115 2.78077 -3.20077 0
M  V30 6656 C 599.574 2.89739 -1.7191 0
M  V30 6657 O 600.104 3.84522 -1.16213 0
M  V30 6658 N 598.31 2.53407 -1.42245 0
M  V30 6659 H 597.857 1.76398 -1.87727 0
M  V30 6660 H 597.815 3.05795 -0.730529 0
M  V30 6661 N 601.587 1.56661 0.17182 0
M  V30 6662 C 602.864 1.72838 0.915778 0
M  V30 6663 C 603.244 0.66316 2.00413 0
M  V30 6664 O 602.592 -0.322123 2.26218 0
M  V30 6665 C 602.802 3.16019 1.48097 0
M  V30 6666 C 604.15 3.76962 1.95408 0
M  V30 6667 O 605.174 3.19294 1.57892 0
M  V30 6668 O 604.033 4.78219 2.64516 0
M  V30 6669 H 601.127 0.705797 0.431021 0
M  V30 6670 H 603.673 1.68947 0.159689 0
M  V30 6671 H 602.445 3.85031 0.697618 0
M  V30 6672 H 602.068 3.24234 2.30126 0
M  V30 6673 N 603.065 -0.440357 1.51323 0
M  V30 6674 C 603.995 -1.54174 1.75364 0
M  V30 6675 C 604.976 -1.59039 0.603375 0
M  V30 6676 O 606.161 -1.74815 0.845774 0
M  V30 6677 C 603.291 -2.92277 1.87593 0
M  V30 6678 C 602.245 -3.02274 3.03009 0
M  V30 6679 C 601.571 -4.42327 3.00418 0
M  V30 6680 C 602.871 -2.76634 4.43024 0
M  V30 6681 H 604.565 -1.34307 2.67585 0
M  V30 6682 H 602.111 -0.644678 1.28763 0
M  V30 6683 H 604.064 -3.69284 2.02995 0
M  V30 6684 H 602.788 -3.13369 0.920179 0
M  V30 6685 H 601.447 -2.27706 2.87307 0
M  V30 6686 H 601.095 -4.60382 2.02626 0
M  V30 6687 H 600.795 -4.49946 3.77918 0
M  V30 6688 H 602.319 -5.21312 3.17909 0
M  V30 6689 H 603.733 -3.43376 4.59093 0
M  V30 6690 H 602.13 -2.95666 5.22208 0
M  V30 6691 H 603.2 -1.72262 4.5327 0
M  V30 6692 N 604.543 -1.41418 -0.695603 0
M  V30 6693 C 605.82 -1.31264 -1.45014 0
M  V30 6694 C 606.2 0.0597994 -2.11015 0
M  V30 6695 O 605.548 1.07403 -2.01685 0
M  V30 6696 C 605.758 -2.466 -2.4696 0
M  V30 6697 C 607.106 -2.87763 -3.12214 0
M  V30 6698 O 608.13 -2.46339 -2.57285 0
M  V30 6699 O 606.989 -3.59395 -4.11701 0
M  V30 6700 H 604.083 -0.516576 -0.645816 0
M  V30 6701 H 606.629 -1.53382 -0.726084 0
M  V30 6702 H 605.401 -3.38183 -1.96845 0
M  V30 6703 H 605.024 -2.26358 -3.26876 0
M  V30 6704 N 606.021 0.929856 -1.27246 0
M  V30 6705 C 606.969 2.05151 -1.09616 0
M  V30 6706 C 607.963 1.69388 -0.0198617 0
M  V30 6707 O 609.169 1.79124 -0.177417 0
M  V30 6708 H 605.544 0.671909 -0.337701 0
M  V30 6709 H 607.515 2.17168 -2.04648 0
M  V30 6710 C 606.264 3.3934 -0.757851 0
M  V30 6711 H 605.587 3.67343 -1.57795 0
M  V30 6712 H 607.027 4.18603 -0.674358 0
M  V30 6713 C 605.486 3.32582 0.537658 0
M  V30 6714 O 606.016 3.69633 1.57271 0
M  V30 6715 N 604.222 2.8568 0.532478 0
M  V30 6716 H 603.769 2.55725 -0.310233 0
M  V30 6717 H 603.727 2.81541 1.39936 0
M  V30 6718 N 607.499 1.09233 1.13605 0
M  V30 6719 C 608.729 0.847677 1.88409 0
M  V30 6720 C 609.137 -0.604524 1.79282 0
M  V30 6721 O 608.48 -1.42773 1.15592 0
M  V30 6722 C 608.542 1.20153 3.38827 0
M  V30 6723 C 608.206 2.65824 3.71735 0
M  V30 6724 C 609.203 3.64072 3.71143 0
M  V30 6725 C 606.888 3.01894 4.01454 0
M  V30 6726 C 608.882 4.96419 3.99808 0
M  V30 6727 C 606.569 4.34433 4.29781 0
M  V30 6728 C 607.567 5.31505 4.28942 0
M  V30 6729 O 607.255 6.61659 4.56576 0
M  V30 6730 H 606.987 0.304813 0.603378 0
M  V30 6731 H 609.541 1.4573 1.44748 0
M  V30 6732 H 607.771 0.534946 3.82982 0
M  V30 6733 H 609.46 0.936349 3.94952 0
M  V30 6734 H 610.226 3.37549 3.4826 0
M  V30 6735 H 606.105 2.26971 4.01255 0
M  V30 6736 H 609.649 5.7218 3.99069 0
M  V30 6737 H 605.546 4.607 4.52135 0
M  V30 6738 H 606.314 6.67102 4.74254 0
M  V30 6739 N 608.977 -1.30795 0.87923 0
M  V30 6740 C 609.91 -2.26396 0.286404 0
M  V30 6741 C 610.888 -1.51528 -0.589748 0
M  V30 6742 O 612.072 -1.80566 -0.541119 0
M  V30 6743 C 609.199 -3.33458 -0.593581 0
M  V30 6744 C 608.245 -4.2597 0.21247 0
M  V30 6745 S 609.078 -5.11132 1.59702 0
M  V30 6746 C 610.234 -6.21705 0.723408 0
M  V30 6747 H 610.467 -2.7633 1.09677 0
M  V30 6748 H 608 -1.38703 0.678305 0
M  V30 6749 H 609.958 -3.9561 -1.09557 0
M  V30 6750 H 608.619 -2.82259 -1.37799 0
M  V30 6751 H 607.812 -5.01907 -0.458822 0
M  V30 6752 H 607.414 -3.68363 0.646883 0
M  V30 6753 H 609.706 -6.77472 -0.0620739 0
M  V30 6754 H 610.649 -6.93007 1.4542 0
M  V30 6755 H 611.057 -5.63771 0.286855 0
M  V30 6756 N 610.455 -0.639598 -1.44038 0
M  V30 6757 C 611.866 -0.228866 -1.85292 0
M  V30 6758 C 612.217 1.22161 -1.53529 0
M  V30 6759 O 611.342 1.93064 -0.977518 0
M  V30 6760 C 611.937 -0.408592 -3.36327 0
M  V30 6761 C 610.496 -0.0522953 -3.76364 0
M  V30 6762 C 609.643 -0.717959 -2.67844 0
M  V30 6763 H 612.594 -0.844194 -1.34384 0
M  V30 6764 H 612.615 0.349968 -3.78887 0
M  V30 6765 H 612.127 -1.46435 -3.59414 0
M  V30 6766 H 610.228 1.0014 -3.58891 0
M  V30 6767 H 610.341 -0.468261 -4.76806 0
M  V30 6768 H 608.705 -0.152459 -2.54243 0
M  V30 6769 H 609.488 -1.77648 -2.93762 0
M  V30 6770 N 611.933 1.52934 -0.380664 0
M  V30 6771 C 612.843 2.29921 0.466192 0
M  V30 6772 C 613.859 1.36488 1.07922 0
M  V30 6773 O 615.035 1.69553 1.0869 0
M  V30 6774 C 612.1 3.08468 1.58266 0
M  V30 6775 C 611.161 4.17595 0.995627 0
M  V30 6776 C 610.394 4.92387 2.05889 0
M  V30 6777 O 610.617 4.67184 3.27254 0
M  V30 6778 O 609.551 5.77949 1.68102 0
M  V30 6779 H 613.377 3.03274 -0.160735 0
M  V30 6780 H 610.962 1.48698 -0.144617 0
M  V30 6781 H 612.844 3.57469 2.23145 0
M  V30 6782 H 611.519 2.37937 2.19471 0
M  V30 6783 H 610.426 3.72811 0.310332 0
M  V30 6784 H 611.759 4.90336 0.427918 0
M  V30 6785 N 613.412 0.11024 1.57214 0
M  V30 6786 C 614.36 -0.860586 2.16094 0
M  V30 6787 C 615.354 -1.28156 1.1078 0
M  V30 6788 O 616.56 -1.25433 1.29099 0
M  V30 6789 H 612.935 -0.295606 0.691463 0
M  V30 6790 H 614.906 -0.33942 2.96463 0
M  V30 6791 C 613.655 -2.10421 2.768 0
M  V30 6792 H 612.978 -1.7892 3.5753 0
M  V30 6793 H 614.418 -2.76375 3.21547 0
M  V30 6794 C 612.877 -2.88823 1.73444 0
M  V30 6795 O 613.407 -3.839 1.18251 0
M  V30 6796 N 611.613 -2.52649 1.43586 0
M  V30 6797 H 611.16 -1.754 1.8866 0
M  V30 6798 H 611.118 -3.05403 0.746735 0
M  V30 6799 N 614.89 -1.56749 -0.16351 0
M  V30 6800 C 616.138 -1.82074 -0.87713 0
M  V30 6801 C 616.459 -0.688503 -1.82441 0
M  V30 6802 O 615.729 0.291085 -1.93725 0
M  V30 6803 H 614.309 -0.671677 -0.326893 0
M  V30 6804 H 616.971 -1.9423 -0.161459 0
M  V30 6805 H 616.067 -2.76407 -1.44934 0
M  V30 6806 N 616.368 0.432326 -1.51554 0
M  V30 6807 C 617.278 1.55023 -1.76082 0
M  V30 6808 C 618.294 1.61593 -0.645265 0
M  V30 6809 O 619.47 1.78742 -0.928086 0
M  V30 6810 C 616.535 2.90964 -1.88523 0
M  V30 6811 C 615.596 2.9447 -3.12388 0
M  V30 6812 C 614.829 4.23926 -3.24225 0
M  V30 6813 O 615.052 5.16576 -2.4188 0
M  V30 6814 O 613.986 4.33818 -4.17235 0
M  V30 6815 H 617.812 1.37238 -2.70923 0
M  V30 6816 H 615.397 0.615845 -1.36117 0
M  V30 6817 H 617.279 3.71633 -1.98662 0
M  V30 6818 H 615.954 3.08865 -0.9687 0
M  V30 6819 H 614.861 2.12737 -3.07723 0
M  V30 6820 H 616.194 2.81514 -4.03746 0
M  V30 6821 N 617.846 1.41785 0.688094 0
M  V30 6822 C 618.793 1.44221 1.80191 0
M  V30 6823 C 619.763 0.295688 1.63447 0
M  V30 6824 O 620.948 0.49783 1.84191 0
M  V30 6825 C 618.088 1.33743 3.1813 0
M  V30 6826 C 617.201 2.58325 3.46254 0
M  V30 6827 C 616.336 2.40086 4.73848 0
M  V30 6828 C 615.375 3.60107 4.94964 0
M  V30 6829 N 614.512 3.40892 6.13789 0
M  V30 6830 H 619.352 2.39411 1.77444 0
M  V30 6831 H 616.889 1.18876 0.866423 0
M  V30 6832 H 618.847 1.25669 3.97823 0
M  V30 6833 H 617.477 0.42157 3.20035 0
M  V30 6834 H 616.529 2.7682 2.60912 0
M  V30 6835 H 617.841 3.4758 3.57756 0
M  V30 6836 H 616.995 2.29522 5.61609 0
M  V30 6837 H 615.734 1.483 4.64606 0
M  V30 6838 H 614.739 3.71118 4.05649 0
M  V30 6839 H 615.964 4.52857 5.06061 0
M  V30 6840 H 613.91 2.51812 6.05745 0
M  V30 6841 H 613.827 4.23727 6.26092 0
M  V30 6842 H 615.095 3.34114 7.04264 0
M  V30 6843 N 619.324 -0.923095 1.27737 0
M  V30 6844 C 620.735 -1.48626 1.12993 0
M  V30 6845 C 621.086 -1.94142 -0.283439 0
M  V30 6846 O 620.211 -1.81605 -1.17681 0
M  V30 6847 C 620.806 -2.70117 2.04505 0
M  V30 6848 C 619.365 -3.22642 1.93853 0
M  V30 6849 C 618.512 -1.95368 1.96791 0
M  V30 6850 H 621.463 -0.736737 1.40563 0
M  V30 6851 H 621.484 -3.4506 1.60356 0
M  V30 6852 H 620.996 -2.36959 3.07363 0
M  V30 6853 H 619.097 -3.60549 0.939968 0
M  V30 6854 H 619.21 -3.88525 2.80331 0
M  V30 6855 H 617.574 -2.12061 1.41076 0
M  V30 6856 H 618.357 -1.64517 3.01312 0
M  V30 6857 N 620.802 -1.09834 -1.13024 0
M  V30 6858 C 622.079 -0.749225 -1.80682 0
M  V30 6859 C 622.459 0.765171 -1.96744 0
M  V30 6860 O 621.807 1.68912 -1.53886 0
M  V30 6861 C 622.017 -1.49311 -3.15448 0
M  V30 6862 C 623.365 -1.66162 -3.90737 0
M  V30 6863 O 624.389 -1.45597 -3.25085 0
M  V30 6864 O 623.248 -2.00211 -5.08505 0
M  V30 6865 H 620.342 -0.269614 -0.781817 0
M  V30 6866 H 622.888 -1.20078 -1.19914 0
M  V30 6867 H 621.66 -2.52407 -2.99009 0
M  V30 6868 H 621.283 -1.034 -3.8392 0
M  V30 6869 N 622.28 1.30327 -0.886154 0
M  V30 6870 C 623.696 1.48676 -0.580323 0
M  V30 6871 C 623.896 1.81189 0.881639 0
M  V30 6872 O 622.952 1.90021 1.66278 0
M  V30 6873 C 624.265 2.60932 -1.49449 0
M  V30 6874 C 625.813 2.74812 -1.49824 0
M  V30 6875 C 626.288 3.90183 -2.39836 0
M  V30 6876 N 627.779 3.97495 -2.37806 0
M  V30 6877 C 628.514 4.86078 -3.04165 0
M  V30 6878 N 628.01 5.79448 -3.79753 0
M  V30 6879 N 629.803 4.79456 -2.93391 0
M  V30 6880 H 621.954 1.07495 -1.8319 0
M  V30 6881 H 624.217 0.532661 -0.784204 0
M  V30 6882 H 623.923 2.43731 -2.5355 0
M  V30 6883 H 623.797 3.57437 -1.20494 0
M  V30 6884 H 626.184 2.91418 -0.464731 0
M  V30 6885 H 626.265 1.78924 -1.82811 0
M  V30 6886 H 625.909 3.74334 -3.43273 0
M  V30 6887 H 625.839 4.85411 -2.04166 0
M  V30 6888 H 628.33 3.30703 -1.82877 0
M  V30 6889 H 628.643 6.43805 -4.27475 0
M  V30 6890 H 626.988 5.79376 -3.8386 0
M  V30 6891 H 630.179 4.05494 -2.33864 0
M  V30 6892 H 630.352 5.48283 -3.45383 0
M  V30 6893 N 623.758 0.647228 1.43697 0
M  V30 6894 C 624.691 -0.097646 2.27991 0
M  V30 6895 C 625.669 -0.83571 1.3948 0
M  V30 6896 O 626.853 -0.836509 1.68922 0
M  V30 6897 C 623.98 -1.14484 3.18765 0
M  V30 6898 C 623.026 -0.505503 4.23494 0
M  V30 6899 S 623.859 0.716471 5.30685 0
M  V30 6900 C 625.015 -0.330339 6.25028 0
M  V30 6901 H 625.248 0.617417 2.90818 0
M  V30 6902 H 622.781 0.435881 1.4812 0
M  V30 6903 H 624.739 -1.74403 3.7161 0
M  V30 6904 H 623.4 -1.83219 2.55127 0
M  V30 6905 H 622.593 -1.29473 4.87086 0
M  V30 6906 H 622.195 0.0194377 3.73995 0
M  V30 6907 H 624.487 -1.19828 6.66819 0
M  V30 6908 H 625.43 0.270409 7.07583 0
M  V30 6909 H 625.838 -0.663459 5.60588 0
M  V30 6910 N 625.236 -1.5273 0.388769 0
M  V30 6911 C 626.169 -2.22861 -0.490752 0
M  V30 6912 C 627.147 -1.22912 -1.06449 0
M  V30 6913 O 628.331 -1.51896 -1.11624 0
M  V30 6914 C 625.458 -2.94141 -1.67925 0
M  V30 6915 C 624.504 -4.08355 -1.23081 0
M  V30 6916 S 625.337 -5.35077 -0.212786 0
M  V30 6917 C 626.493 -6.09879 -1.40708 0
M  V30 6918 H 626.726 -2.97115 0.104787 0
M  V30 6919 H 624.259 -1.53428 0.172956 0
M  V30 6920 H 626.217 -3.35818 -2.36085 0
M  V30 6921 H 624.878 -2.19568 -2.24608 0
M  V30 6922 H 624.071 -4.57328 -2.11818 0
M  V30 6923 H 623.673 -3.68688 -0.628121 0
M  V30 6924 H 625.965 -6.36018 -2.33424 0
M  V30 6925 H 626.908 -7.01586 -0.958271 0
M  V30 6926 H 627.316 -5.40646 -1.62364 0
M  V30 6927 N 626.714 -0.118576 -1.57153 0
M  V30 6928 C 627.96 0.540326 -1.95469 0
M  V30 6929 C 628.293 1.66356 -1.00196 0
M  V30 6930 O 627.568 1.94461 -0.039104 0
M  V30 6931 C 627.851 1.07342 -3.43729 0
M  V30 6932 C 627.704 -0.0463732 -4.49776 0
M  V30 6933 C 629.023 1.96442 -3.93826 0
M  V30 6934 H 626.142 0.19494 -0.710751 0
M  V30 6935 H 628.784 -0.19405 -1.89006 0
M  V30 6936 H 626.934 1.69925 -3.49368 0
M  V30 6937 H 628.606 -0.681648 -4.56236 0
M  V30 6938 H 626.849 -0.709574 -4.27957 0
M  V30 6939 H 627.52 0.367856 -5.50773 0
M  V30 6940 H 629.996 1.43731 -3.90488 0
M  V30 6941 H 628.872 2.3066 -4.98084 0
M  V30 6942 H 629.133 2.89077 -3.34495 0
M  V30 6943 N 628.193 1.56834 0.155195 0
M  V30 6944 C 629.125 1.94235 1.21677 0
M  V30 6945 C 630.138 0.83724 1.39621 0
M  V30 6946 O 631.327 1.11567 1.39338 0
M  V30 6947 C 628.427 2.19402 2.58294 0
M  V30 6948 C 627.6 3.50671 2.61436 0
M  V30 6949 C 626.659 3.64475 3.79532 0
M  V30 6950 O 625.685 4.36945 3.64784 0
M  V30 6951 N 626.887 3.00526 4.96653 0
M  V30 6952 H 629.652 2.85901 0.898932 0
M  V30 6953 H 627.213 1.58185 0.34483 0
M  V30 6954 H 629.205 2.25886 3.35794 0
M  V30 6955 H 627.775 1.34042 2.82403 0
M  V30 6956 H 626.995 3.55702 1.69912 0
M  V30 6957 H 628.283 4.3702 2.60559 0
M  V30 6958 H 627.681 2.41549 5.11538 0
M  V30 6959 H 626.238 3.12583 5.71958 0
M  V30 6960 N 629.671 -0.424282 1.51781 0
M  V30 6961 C 630.601 -1.52305 1.7699 0
M  V30 6962 C 631.582 -1.5839 0.620209 0
M  V30 6963 O 632.767 -1.73908 0.864268 0
M  V30 6964 C 629.897 -2.90271 1.90683 0
M  V30 6965 C 628.851 -2.99043 3.06198 0
M  V30 6966 C 628.177 -4.39116 3.05092 0
M  V30 6967 C 629.477 -2.7192 4.45934 0
M  V30 6968 H 631.171 -1.31461 2.68995 0
M  V30 6969 H 628.717 -0.630985 1.29439 0
M  V30 6970 H 630.67 -3.6711 2.06901 0
M  V30 6971 H 629.394 -3.12376 0.953365 0
M  V30 6972 H 628.053 -2.24646 2.89706 0
M  V30 6973 H 627.701 -4.58207 2.07498 0
M  V30 6974 H 627.401 -4.45912 3.82669 0
M  V30 6975 H 628.925 -5.17911 3.2342 0
M  V30 6976 H 630.339 -3.38487 4.62709 0
M  V30 6977 H 628.736 -2.90111 5.25315 0
M  V30 6978 H 629.806 -1.67445 4.55072 0
M  V30 6979 N 631.149 -1.42148 -0.680565 0
M  V30 6980 C 632.377 -1.45696 -1.46902 0
M  V30 6981 C 632.792 -0.0665858 -1.88683 0
M  V30 6982 O 632.149 0.917436 -1.57764 0
M  V30 6983 C 632.2 -2.37898 -2.72188 0
M  V30 6984 O 631.921 -3.71526 -2.32163 0
M  V30 6985 C 633.422 -2.50407 -3.65802 0
M  V30 6986 H 630.642 -0.495729 -0.45221 0
M  V30 6987 H 633.186 -1.866 -0.836709 0
M  V30 6988 H 631.341 -2.00263 -3.31622 0
M  V30 6989 H 631.755 -4.20849 -3.13027 0
M  V30 6990 H 633.229 -3.19056 -4.50452 0
M  V30 6991 H 633.706 -1.5401 -4.11312 0
M  V30 6992 H 634.312 -2.8874 -3.12265 0
M  V30 6993 N 632.627 0.916307 -1.28225 0
M  V30 6994 C 633.557 2.0352 -1.14464 0
M  V30 6995 C 634.538 1.70045 -0.0430844 0
M  V30 6996 O 635.723 1.92954 -0.219619 0
M  V30 6997 C 632.853 3.37889 -0.803027 0
M  V30 6998 C 631.807 3.85516 -1.85908 0
M  V30 6999 C 631.133 5.1682 -1.37116 0
M  V30 7000 C 632.433 4.07655 -3.26519 0
M  V30 7001 H 634.127 2.1529 -2.08064 0
M  V30 7002 H 631.673 1.03446 -1.00174 0
M  V30 7003 H 633.626 4.15654 -0.693537 0
M  V30 7004 H 632.35 3.26164 0.168674 0
M  V30 7005 H 631.009 3.09953 -1.95767 0
M  V30 7006 H 630.657 5.01497 -0.38859 0
M  V30 7007 H 630.357 5.49657 -2.07728 0
M  V30 7008 H 631.881 5.97143 -1.27484 0
M  V30 7009 H 633.295 4.75953 -3.19596 0
M  V30 7010 H 631.692 4.51818 -3.94943 0
M  V30 7011 H 632.762 3.12553 -3.70727 0
M  V30 7012 N 634.105 1.10431 1.1244 0
M  V30 7013 C 635.068 0.756542 2.16354 0
M  V30 7014 C 636.068 -0.21899 1.59302 0
M  V30 7015 O 637.258 0.00415969 1.742 0
M  V30 7016 C 634.39 0.120612 3.40687 0
M  V30 7017 H 635.583 1.67696 2.48632 0
M  V30 7018 H 633.136 0.904832 1.27446 0
M  V30 7019 H 633.871 -0.810536 3.14008 0
M  V30 7020 H 633.656 0.822693 3.83372 0
M  V30 7021 H 635.146 -0.106945 4.17463 0
M  V30 7022 N 635.583 -1.29855 0.893053 0
M  V30 7023 C 636.808 -2.00512 0.530066 0
M  V30 7024 C 637.233 -1.66446 -0.876199 0
M  V30 7025 O 636.591 -0.885446 -1.58207 0
M  V30 7026 C 636.639 -3.53308 0.721505 0
M  V30 7027 O 635.743 -4.11764 -0.228994 0
M  V30 7028 H 635.084 -0.630617 0.207891 0
M  V30 7029 H 637.614 -1.6551 1.20282 0
M  V30 7030 H 637.624 -4.03206 0.623599 0
M  V30 7031 H 636.299 -3.77439 1.74678 0
M  V30 7032 H 634.876 -3.72805 -0.0841034 0
M  V30 7033 N 637.061 -0.65484 -1.43351 0
M  V30 7034 C 637.971 0.0363603 -2.34572 0
M  V30 7035 C 638.987 0.810432 -1.53974 0
M  V30 7036 O 640.163 0.757308 -1.86619 0
M  V30 7037 C 637.228 0.989733 -3.32273 0
M  V30 7038 C 636.289 0.212414 -4.28774 0
M  V30 7039 C 635.522 1.12038 -5.21808 0
M  V30 7040 O 635.745 2.35967 -5.19303 0
M  V30 7041 O 634.679 0.59191 -5.98982 0
M  V30 7042 H 638.505 -0.714527 -2.95175 0
M  V30 7043 H 636.09 -0.415029 -1.4352 0
M  V30 7044 H 637.972 1.53759 -3.92347 0
M  V30 7045 H 636.647 1.72082 -2.74171 0
M  V30 7046 H 635.554 -0.379062 -3.72175 0
M  V30 7047 H 636.887 -0.479138 -4.89862 0
M  V30 7048 N 638.539 1.52521 -0.396863 0
M  V30 7049 C 639.955 1.5953 -0.0471659 0
M  V30 7050 C 640.155 1.41044 1.43906 0
M  V30 7051 O 639.211 1.23122 2.20448 0
M  V30 7052 C 640.524 2.95972 -0.531113 0
M  V30 7053 C 642.072 3.09172 -0.488024 0
M  V30 7054 C 642.547 4.48075 -0.948281 0
M  V30 7055 N 644.038 4.54281 -0.9046 0
M  V30 7056 C 644.773 5.60007 -1.23205 0
M  V30 7057 N 644.269 6.73343 -1.63036 0
M  V30 7058 N 646.062 5.50151 -1.15282 0
M  V30 7059 H 638.213 1.62786 -1.36435 0
M  V30 7060 H 640.476 0.76514 -0.559701 0
M  V30 7061 H 640.182 3.14741 -1.56942 0
M  V30 7062 H 640.056 3.77143 0.0657922 0
M  V30 7063 H 642.443 2.90095 0.541211 0
M  V30 7064 H 642.524 2.29937 -1.12083 0
M  V30 7065 H 642.168 4.67894 -1.97578 0
M  V30 7066 H 642.098 5.25788 -0.292412 0
M  V30 7067 H 644.589 3.72918 -0.6116 0
M  V30 7068 H 644.902 7.49992 -1.86365 0
M  V30 7069 H 643.247 6.74655 -1.66929 0
M  V30 7070 H 646.438 4.6049 -0.840602 0
M  V30 7071 H 646.611 6.32444 -1.41133 0
M  V30 7072 N 640.017 0.126909 1.57088 0
M  V30 7073 C 641.242 -0.53997 2.00248 0
M  V30 7074 C 641.667 -1.58927 1.00618 0
M  V30 7075 O 641.025 -1.81288 -0.0210131 0
M  V30 7076 C 641.073 -1.13565 3.4225 0
M  V30 7077 O 640.177 -2.25103 3.45547 0
M  V30 7078 H 639.518 -0.13412 0.650314 0
M  V30 7079 H 642.048 0.217718 2.03438 0
M  V30 7080 H 642.058 -1.46925 3.80627 0
M  V30 7081 H 640.733 -0.367122 4.14277 0
M  V30 7082 H 639.31 -1.93123 3.18995 0
M  V30 7083 N 641.495 -1.56914 -0.146875 0
M  V30 7084 C 642.72 -1.87881 -0.878386 0
M  V30 7085 C 643.145 -0.715945 -1.73942 0
M  V30 7086 O 642.503 0.334447 -1.78189 0
M  V30 7087 C 642.551 -3.17431 -1.71084 0
M  V30 7088 O 641.655 -3.01374 -2.81509 0
M  V30 7089 H 640.996 -0.617289 -0.244644 0
M  V30 7090 H 643.526 -2.04136 -0.137654 0
M  V30 7091 H 643.536 -3.49455 -2.10582 0
M  V30 7092 H 642.211 -4.01671 -1.07856 0
M  V30 7093 H 640.788 -2.80758 -2.45416 0
M  V30 7094 N 642.974 0.416227 -1.52004 0
M  V30 7095 C 644.385 0.995319 -1.57957 0
M  V30 7096 C 644.736 1.91744 -0.415754 0
M  V30 7097 O 643.861 2.11349 0.464808 0
M  V30 7098 C 644.456 1.81191 -2.86278 0
M  V30 7099 C 643.015 2.34115 -2.94732 0
M  V30 7100 C 642.162 1.139 -2.52828 0
M  V30 7101 H 645.113 0.196716 -1.57476 0
M  V30 7102 H 645.134 2.66859 -2.71231 0
M  V30 7103 H 644.646 1.14051 -3.70963 0
M  V30 7104 H 642.747 3.04647 -2.14525 0
M  V30 7105 H 642.86 2.65466 -3.98829 0
M  V30 7106 H 641.224 1.49081 -2.06511 0
M  V30 7107 H 642.007 0.483383 -3.3988 0
M  V30 7108 N 644.452 1.42507 0.673017 0
M  V30 7109 C 645.384 1.42074 1.79854 0
M  V30 7110 C 646.397 0.319569 1.59633 0
M  V30 7111 O 647.586 0.582769 1.68719 0
M  V30 7112 C 644.686 1.19886 3.16987 0
M  V30 7113 C 643.859 2.42471 3.64042 0
M  V30 7114 C 642.918 2.15802 4.79913 0
M  V30 7115 O 641.944 2.89015 4.90366 0
M  V30 7116 N 643.146 1.16225 5.68746 0
M  V30 7117 H 645.911 2.3909 1.8071 0
M  V30 7118 H 643.472 1.37409 0.856171 0
M  V30 7119 H 645.464 0.999591 3.92161 0
M  V30 7120 H 644.034 0.313879 3.1102 0
M  V30 7121 H 643.254 2.77954 2.79526 0
M  V30 7122 H 644.542 3.24097 3.92223 0
M  V30 7123 H 643.94 0.556756 5.62954 0
M  V30 7124 H 642.497 1.02285 6.43724 0
M  V30 7125 N 645.93 -0.909495 1.28709 0
M  V30 7126 C 647.346 -1.18862 1.06508 0
M  V30 7127 C 647.546 -2.00604 -0.189864 0
M  V30 7128 O 646.602 -2.36281 -0.890355 0
M  V30 7129 C 647.915 -1.91908 2.31499 0
M  V30 7130 C 649.463 -2.04773 2.36721 0
M  V30 7131 C 649.938 -2.81228 3.6149 0
M  V30 7132 N 651.429 -2.88787 3.62155 0
M  V30 7133 C 652.164 -3.48455 4.55375 0
M  V30 7134 N 651.66 -4.09369 5.58918 0
M  V30 7135 N 653.453 -3.46035 4.42963 0
M  V30 7136 H 645.604 -0.363867 2.0926 0
M  V30 7137 H 647.867 -0.223649 0.921241 0
M  V30 7138 H 647.573 -1.39275 3.22948 0
M  V30 7139 H 647.447 -2.92436 2.38245 0
M  V30 7140 H 649.834 -2.56585 1.45767 0
M  V30 7141 H 649.915 -1.03408 2.33967 0
M  V30 7142 H 649.559 -2.30094 4.5279 0
M  V30 7143 H 649.489 -3.82917 3.61499 0
M  V30 7144 H 651.98 -2.45514 2.87283 0
M  V30 7145 H 652.293 -4.52891 6.26187 0
M  V30 7146 H 650.638 -4.0786 5.62739 0
M  V30 7147 H 653.829 -2.9766 3.6127 0
M  V30 7148 H 654.002 -3.92244 5.15799 0
M  V30 7149 N 647.408 -1.11026 -1.11852 0
M  V30 7150 C 648.355 -0.764662 -2.17765 0
M  V30 7151 C 649.325 0.261854 -1.64023 0
M  V30 7152 O 650.51 0.139748 -1.90288 0
M  V30 7153 C 647.65 -0.209317 -3.44465 0
M  V30 7154 C 646.763 -1.29187 -4.12231 0
M  V30 7155 C 645.898 -0.697523 -5.266 0
M  V30 7156 C 644.937 -1.76023 -5.86244 0
M  V30 7157 N 644.074 -1.18569 -6.92016 0
M  V30 7158 H 648.914 -1.67202 -2.46673 0
M  V30 7159 H 646.451 -0.835065 -1.21099 0
M  V30 7160 H 648.409 0.130599 -4.16996 0
M  V30 7161 H 647.039 0.661251 -3.15955 0
M  V30 7162 H 646.091 -1.74881 -3.37818 0
M  V30 7163 H 647.403 -2.09607 -4.52622 0
M  V30 7164 H 646.557 -0.307412 -6.05921 0
M  V30 7165 H 645.296 0.138044 -4.87505 0
M  V30 7166 H 644.301 -2.1597 -5.05606 0
M  V30 7167 H 645.526 -2.59875 -6.27409 0
M  V30 7168 H 643.472 -0.371695 -6.54946 0
M  V30 7169 H 643.389 -1.92666 -7.31038 0
M  V30 7170 H 644.657 -0.82233 -7.7515 0
M  V30 7171 N 648.886 1.2938 -0.899927 0
M  V30 7172 C 650.111 2.00228 -0.540692 0
M  V30 7173 C 650.536 1.66909 0.867359 0
M  V30 7174 O 649.894 0.893824 1.57735 0
M  V30 7175 C 649.942 3.52921 -0.740232 0
M  V30 7176 O 649.046 4.11879 0.207154 0
M  V30 7177 H 648.387 0.629505 -0.211233 0
M  V30 7178 H 650.917 1.6487 -1.21158 0
M  V30 7179 H 650.927 4.0287 -0.644973 0
M  V30 7180 H 649.602 3.76508 -1.76677 0
M  V30 7181 H 648.179 3.72845 0.0643315 0
M  V30 7182 N 650.364 0.662433 1.43002 0
M  V30 7183 C 651.296 -0.062326 2.29115 0
M  V30 7184 C 652.309 -0.777926 1.43011 0
M  V30 7185 O 653.498 -0.634146 1.66856 0
M  V30 7186 C 650.598 -1.11163 3.2015 0
M  V30 7187 C 649.771 -0.472327 4.34842 0
M  V30 7188 C 648.83 -1.41974 5.06685 0
M  V30 7189 O 647.856 -0.924795 5.61637 0
M  V30 7190 N 649.058 -2.75345 5.11043 0
M  V30 7191 H 651.823 0.676838 2.91957 0
M  V30 7192 H 649.384 0.505907 1.53793 0
M  V30 7193 H 651.376 -1.74643 3.65078 0
M  V30 7194 H 649.946 -1.75266 2.58845 0
M  V30 7195 H 649.166 0.341751 3.92716 0
M  V30 7196 H 650.454 -0.0264381 5.08793 0
M  V30 7197 H 649.852 -3.18108 4.67786 0
M  V30 7198 H 648.409 -3.34105 5.59658 0
M  V30 7199 N 651.842 -1.52309 0.404946 0
M  V30 7200 C 653.258 -1.59503 0.0556255 0
M  V30 7201 C 653.458 -1.41805 -1.43156 0
M  V30 7202 O 652.514 -1.2429 -2.19792 0
M  V30 7203 C 653.827 -2.95687 0.546801 0
M  V30 7204 C 655.375 -3.08909 0.504413 0
M  V30 7205 C 655.85 -4.47566 0.97203 0
M  V30 7206 N 657.341 -4.53795 0.928679 0
M  V30 7207 C 658.076 -5.59346 1.26174 0
M  V30 7208 N 657.572 -6.72469 1.66604 0
M  V30 7209 N 659.365 -5.49532 1.18198 0
M  V30 7210 H 651.516 -1.6206 1.37296 0
M  V30 7211 H 653.779 -0.762161 0.563751 0
M  V30 7212 H 653.485 -3.13905 1.58609 0
M  V30 7213 H 653.359 -3.77172 -0.0457905 0
M  V30 7214 H 655.746 -2.90378 -0.525819 0
M  V30 7215 H 655.827 -2.2934 1.13301 0
M  V30 7216 H 655.471 -4.6684 2.00057 0
M  V30 7217 H 655.401 -5.25625 0.320292 0
M  V30 7218 H 657.892 -3.72588 0.631369 0
M  V30 7219 H 658.205 -7.48993 1.9034 0
M  V30 7220 H 656.55 -6.73761 1.70504 0
M  V30 7221 H 659.741 -4.60038 0.865011 0
M  V30 7222 H 659.914 -6.31687 1.44485 0
M  V30 7223 N 653.32 -0.135238 -1.57019 0
M  V30 7224 C 654.545 0.529343 -2.00531 0
M  V30 7225 C 654.97 1.58391 -1.01459 0
M  V30 7226 O 654.328 1.81296 0.0113986 0
M  V30 7227 C 654.376 1.11748 -3.42848 0
M  V30 7228 O 653.48 2.23267 -3.46736 0
M  V30 7229 H 652.821 0.130669 -0.651016 0
M  V30 7230 H 655.351 -0.228503 -2.0332 0
M  V30 7231 H 655.361 1.44905 -3.81401 0
M  V30 7232 H 654.036 0.345147 -4.14465 0
M  V30 7233 H 652.613 1.91428 -3.20015 0
M  V30 7234 N 654.798 1.5699 0.138552 0
M  V30 7235 C 656.023 1.88344 0.86841 0
M  V30 7236 C 656.448 0.725159 1.7356 0
M  V30 7237 O 655.806 -0.324992 1.78363 0
M  V30 7238 C 655.854 3.18334 1.69398 0
M  V30 7239 O 654.958 3.02863 2.79907 0
M  V30 7240 H 654.299 0.618577 0.241367 0
M  V30 7241 H 656.829 2.04207 0.126826 0
M  V30 7242 H 656.839 3.50567 2.08726 0
M  V30 7243 H 655.514 4.02238 1.05725 0
M  V30 7244 H 654.091 2.82056 2.43924 0
M  V30 7245 N 656.276 -0.40816 1.52223 0
M  V30 7246 C 657.506 -1.17501 1.69932 0
M  V30 7247 C 657.914 -1.84729 0.408874 0
M  V30 7248 O 657.257 -1.7274 -0.625025 0
M  V30 7249 C 657.319 -2.27994 2.77955 0
M  V30 7250 C 656.983 -1.80894 4.19674 0
M  V30 7251 C 657.98 -1.29618 5.03483 0
M  V30 7252 C 655.665 -1.87698 4.65913 0
M  V30 7253 C 657.659 -0.857695 6.31603 0
M  V30 7254 C 655.346 -1.43461 5.94022 0
M  V30 7255 C 656.344 -0.925822 6.76696 0
M  V30 7256 O 656.032 -0.489841 8.02406 0
M  V30 7257 H 655.764 -0.359065 0.572755 0
M  V30 7258 H 658.318 -0.486188 1.99563 0
M  V30 7259 H 656.548 -3.00243 2.43703 0
M  V30 7260 H 658.237 -2.89749 2.84254 0
M  V30 7261 H 659.003 -1.23733 4.68951 0
M  V30 7262 H 654.882 -2.26244 4.01665 0
M  V30 7263 H 658.426 -0.459879 6.96083 0
M  V30 7264 H 654.323 -1.49026 6.28062 0
M  V30 7265 H 655.091 -0.613062 8.16201 0
M  V30 7266 N 657.755 -1.42862 -0.66545 0
M  V30 7267 C 659.001 -1.44043 -1.42757 0
M  V30 7268 C 659.334 -0.0599629 -1.94107 0
M  V30 7269 O 658.609 0.917286 -1.71511 0
M  V30 7270 C 658.892 -2.47266 -2.61786 0
M  V30 7271 C 658.745 -3.94539 -2.16007 0
M  V30 7272 C 660.064 -2.47365 -3.64003 0
M  V30 7273 H 657.183 -0.524506 -0.517748 0
M  V30 7274 H 659.825 -1.74335 -0.755466 0
M  V30 7275 H 657.975 -2.21565 -3.19126 0
M  V30 7276 H 659.647 -4.31254 -1.63762 0
M  V30 7277 H 657.89 -4.07957 -1.47491 0
M  V30 7278 H 658.561 -4.62357 -3.01546 0
M  V30 7279 H 661.037 -2.70243 -3.16399 0
M  V30 7280 H 659.913 -3.21552 -4.44854 0
M  V30 7281 H 660.174 -1.50299 -4.15767 0
M  V30 7282 N 659.233 0.902656 -1.29189 0
M  V30 7283 C 660.458 1.69167 -1.19989 0
M  V30 7284 C 660.883 1.86607 0.236495 0
M  V30 7285 O 660.241 1.38425 1.17082 0
M  V30 7286 C 660.289 3.05532 -1.91527 0
M  V30 7287 O 659.393 3.93621 -1.2303 0
M  V30 7288 H 658.734 0.517584 -0.415936 0
M  V30 7289 H 661.264 1.12785 -1.70706 0
M  V30 7290 H 661.274 3.55693 -1.99866 0
M  V30 7291 H 659.949 2.92156 -2.96003 0
M  V30 7292 H 658.526 3.52055 -1.22928 0
M  V30 7293 N 660.711 1.11618 1.11262 0
M  V30 7294 C 661.644 0.719995 2.16544 0
M  V30 7295 C 662.622 -0.28471 1.60088 0
M  V30 7296 O 663.806 -0.180693 1.87632 0
M  V30 7297 C 660.933 0.0643302 3.38639 0
M  V30 7298 C 659.979 1.03448 4.13764 0
M  V30 7299 S 660.812 2.55789 4.70459 0
M  V30 7300 C 661.968 1.91529 5.95875 0
M  V30 7301 H 662.201 1.61181 2.49816 0
M  V30 7302 H 659.734 0.934401 1.22916 0
M  V30 7303 H 661.692 -0.307609 4.09346 0
M  V30 7304 H 660.353 -0.804471 3.03623 0
M  V30 7305 H 659.546 0.523188 5.01277 0
M  V30 7306 H 659.148 1.34893 3.48826 0
M  V30 7307 H 661.44 1.25286 6.65815 0
M  V30 7308 H 662.383 2.77047 6.51652 0
M  V30 7309 H 662.791 1.37468 5.47506 0
M  V30 7310 N 662.189 -1.289 0.906776 0
M  V30 7311 C 663.605 -1.47733 0.603902 0
M  V30 7312 C 663.805 -1.82568 -0.852702 0
M  V30 7313 O 662.861 -1.92642 -1.63234 0
M  V30 7314 C 664.174 -2.58522 1.53581 0
M  V30 7315 C 665.722 -2.72394 1.54177 0
M  V30 7316 C 666.197 -3.86318 2.46013 0
M  V30 7317 N 667.688 -3.93661 2.441 0
M  V30 7318 C 668.423 -4.81177 3.11859 0
M  V30 7319 N 667.919 -5.73333 3.88923 0
M  V30 7320 N 669.712 -4.74728 3.00981 0
M  V30 7321 H 661.863 -1.04567 1.84877 0
M  V30 7322 H 664.126 -0.520118 0.792579 0
M  V30 7323 H 663.832 -2.39667 2.57396 0
M  V30 7324 H 663.706 -3.55475 1.26165 0
M  V30 7325 H 666.093 -2.90641 0.511034 0
M  V30 7326 H 666.174 -1.75993 1.85634 0
M  V30 7327 H 665.818 -3.68826 3.49185 0
M  V30 7328 H 665.748 -4.82102 2.11862 0
M  V30 7329 H 668.239 -3.27751 1.88115 0
M  V30 7330 H 668.552 -6.36923 4.37663 0
M  V30 7331 H 666.897 -5.73196 3.93029 0
M  V30 7332 H 670.088 -4.01722 2.40286 0
M  V30 7333 H 670.261 -5.42719 3.54062 0
M  V30 7334 N 663.667 -0.670007 -1.42649 0
M  V30 7335 C 664.916 -0.187526 -2.00826 0
M  V30 7336 C 665.229 1.21142 -1.53571 0
M  V30 7337 O 666.435 1.79001 -2.04134 0
M  V30 7338 C 664.891 -0.284409 -3.58774 0
M  V30 7339 C 664.499 -1.6871 -4.15019 0
M  V30 7340 C 666.243 0.139605 -4.2427 0
M  V30 7341 C 664.15 -1.73701 -5.65316 0
M  V30 7342 H 663.08 -0.0663468 -0.751075 0
M  V30 7343 H 665.731 -0.834492 -1.63427 0
M  V30 7344 H 664.113 0.430364 -3.93655 0
M  V30 7345 H 665.287 -2.42857 -3.91608 0
M  V30 7346 H 663.602 -2.05855 -3.61957 0
M  V30 7347 H 666.199 0.122398 -5.3456 0
M  V30 7348 H 666.542 1.17403 -3.99402 0
M  V30 7349 H 667.075 -0.523995 -3.94334 0
M  V30 7350 H 663.814 -2.75109 -5.94975 0
M  V30 7351 H 663.334 -1.03903 -5.90732 0
M  V30 7352 H 665.013 -1.48829 -6.2965 0
M  V30 7353 N 665.145 1.52092 -0.413018 0
M  V30 7354 C 666.422 1.94356 0.22024 0
M  V30 7355 C 666.802 1.35017 1.62277 0
M  V30 7356 O 666.15 0.527511 2.22328 0
M  V30 7357 C 666.36 3.48289 0.222638 0
M  V30 7358 C 667.708 4.22313 0.440098 0
M  V30 7359 O 668.732 3.54919 0.301826 0
M  V30 7360 O 667.591 5.41829 0.712984 0
M  V30 7361 H 664.685 0.814536 0.14304 0
M  V30 7362 H 667.231 1.63083 -0.469242 0
M  V30 7363 H 666.003 3.83872 -0.758836 0
M  V30 7364 H 665.626 3.85934 0.956057 0
M  V30 7365 N 666.623 0.143563 1.56945 0
M  V30 7366 C 667.851 -0.515447 2.00377 0
M  V30 7367 C 668.266 -1.58643 1.02361 0
M  V30 7368 O 667.623 -1.82489 0.0201039 0
M  V30 7369 C 667.674 -1.11923 3.43737 0
M  V30 7370 O 667.395 -0.0910318 4.38005 0
M  V30 7371 C 668.896 -1.85918 4.02429 0
M  V30 7372 H 666.116 -0.134478 0.657386 0
M  V30 7373 H 668.66 0.237135 2.0312 0
M  V30 7374 H 666.815 -1.82245 3.41856 0
M  V30 7375 H 667.229 -0.532916 5.21786 0
M  V30 7376 H 668.703 -2.2346 5.04747 0
M  V30 7377 H 669.18 -2.7438 3.42947 0
M  V30 7378 H 669.786 -1.20303 4.07931 0
M  V30 7379 N 668.101 -1.57061 -0.130224 0
M  V30 7380 C 669.051 -1.95941 -1.16582 0
M  V30 7381 C 670.035 -0.832858 -1.37667 0
M  V30 7382 O 671.227 -1.09647 -1.38948 0
M  V30 7383 C 668.356 -2.35777 -2.49528 0
M  V30 7384 C 667.442 -3.5504 -2.31964 0
M  V30 7385 N 667.833 -4.71071 -1.84189 0
M  V30 7386 C 666.131 -3.60453 -2.62659 0
M  V30 7387 C 666.832 -5.53128 -1.80068 0
M  V30 7388 N 665.808 -4.95303 -2.24001 0
M  V30 7389 H 669.61 -2.83117 -0.788806 0
M  V30 7390 H 667.124 -1.58842 -0.3381 0
M  V30 7391 H 669.121 -2.61843 -3.24413 0
M  V30 7392 H 667.781 -1.49961 -2.87996 0
M  V30 7393 H 668.792 -4.94504 -1.53903 0
M  V30 7394 H 665.469 -2.85217 -3.0489 0
M  V30 7395 H 666.859 -6.56182 -1.4448 0
M  V30 7396 N 669.579 0.400081 -1.52437 0
M  V30 7397 C 670.542 1.4707 -1.75793 0
M  V30 7398 C 671.542 1.48036 -0.627856 0
M  V30 7399 O 672.732 1.49401 -0.895817 0
M  V30 7400 C 669.864 2.86427 -1.84858 0
M  V30 7401 H 671.057 1.27649 -2.71377 0
M  V30 7402 H 668.61 0.631141 -1.42991 0
M  V30 7403 H 669.345 3.11207 -0.912194 0
M  V30 7404 H 669.13 2.87128 -2.6702 0
M  V30 7405 H 670.62 3.64023 -2.04638 0
M  V30 7406 N 671.057 1.43213 0.657864 0
M  V30 7407 C 672.306 1.43871 1.41365 0
M  V30 7408 C 672.619 0.064898 1.95492 0
M  V30 7409 O 673.825 -0.0510796 2.71452 0
M  V30 7410 C 672.281 2.53158 2.55811 0
M  V30 7411 C 671.889 3.96624 2.08311 0
M  V30 7412 C 673.633 2.63004 3.3321 0
M  V30 7413 C 671.54 4.97385 3.1994 0
M  V30 7414 H 670.47 0.535174 0.531136 0
M  V30 7415 H 673.121 1.69185 0.710543 0
M  V30 7416 H 671.503 2.21037 3.2857 0
M  V30 7417 H 672.677 4.38182 1.42593 0
M  V30 7418 H 670.992 3.90781 1.43804 0
M  V30 7419 H 673.589 3.3546 4.16378 0
M  V30 7420 H 673.932 1.67918 3.80932 0
M  V30 7421 H 674.465 2.94403 2.67529 0
M  V30 7422 H 671.204 5.94007 2.77192 0
M  V30 7423 H 670.724 4.60444 3.84385 0
M  V30 7424 H 672.403 5.19877 3.85145 0
M  V30 7425 N 672.536 -0.895792 1.29666 0
M  V30 7426 C 673.813 -1.62723 1.08538 0
M  V30 7427 C 674.193 -2.07848 -0.369119 0
M  V30 7428 O 673.541 -1.8372 -1.35864 0
M  V30 7429 C 673.751 -2.80505 2.07648 0
M  V30 7430 C 675.099 -3.51098 2.3878 0
M  V30 7431 O 676.123 -2.90679 2.05874 0
M  V30 7432 O 674.982 -4.60028 2.9502 0
M  V30 7433 H 672.076 -0.714692 0.416106 0
M  V30 7434 H 674.622 -0.943517 1.41053 0
M  V30 7435 H 673.394 -2.44386 3.05599 0
M  V30 7436 H 673.017 -3.5658 1.75887 0
M  V30 7437 N 674.014 -1.12206 -1.10668 0
M  V30 7438 C 674.961 -0.787716 -2.16942 0
M  V30 7439 C 675.931 0.244442 -1.64291 0
M  V30 7440 O 677.116 0.119558 -1.90425 0
M  V30 7441 C 674.256 -0.24584 -3.44223 0
M  V30 7442 C 673.369 -1.33552 -4.10838 0
M  V30 7443 C 672.504 -0.753337 -5.25831 0
M  V30 7444 C 671.543 -1.82231 -5.84344 0
M  V30 7445 N 670.68 -1.25902 -6.90719 0
M  V30 7446 H 675.52 -1.69809 -2.44885 0
M  V30 7447 H 673.057 -0.847862 -1.20207 0
M  V30 7448 H 675.015 0.0863639 -4.17111 0
M  V30 7449 H 673.645 0.627702 -3.16638 0
M  V30 7450 H 672.697 -1.78454 -3.35944 0
M  V30 7451 H 674.009 -2.14396 -4.50373 0
M  V30 7452 H 673.163 -0.37166 -6.05561 0
M  V30 7453 H 671.902 0.0863297 -4.87624 0
M  V30 7454 H 670.907 -2.2132 -5.03287 0
M  V30 7455 H 672.132 -2.66515 -6.24617 0
M  V30 7456 H 670.078 -0.44114 -6.54515 0
M  V30 7457 H 669.995 -2.00408 -7.28953 0
M  V30 7458 H 671.263 -0.904498 -7.74235 0
M  V30 7459 N 675.492 1.28418 -0.913599 0
M  V30 7460 C 676.722 1.98817 -0.56172 0
M  V30 7461 C 677.13 1.68457 0.861321 0
M  V30 7462 O 676.473 0.933653 1.58204 0
M  V30 7463 C 676.535 3.52801 -0.690785 0
M  V30 7464 C 676.199 4.0675 -2.08334 0
M  V30 7465 C 677.196 4.20597 -3.05604 0
M  V30 7466 C 674.881 4.41445 -2.39648 0
M  V30 7467 C 676.875 4.68392 -4.32305 0
M  V30 7468 C 674.562 4.88934 -3.66588 0
M  V30 7469 C 675.56 5.02364 -4.6273 0
M  V30 7470 O 675.248 5.48817 -5.87414 0
M  V30 7471 H 674.98 0.641608 -0.212874 0
M  V30 7472 H 677.534 1.64584 -1.22887 0
M  V30 7473 H 675.764 3.86686 0.0334336 0
M  V30 7474 H 677.453 4.04422 -0.346031 0
M  V30 7475 H 678.219 3.94067 -2.8273 0
M  V30 7476 H 674.098 4.30242 -1.65567 0
M  V30 7477 H 677.642 4.7879 -5.07352 0
M  V30 7478 H 673.539 5.14904 -3.89287 0
M  V30 7479 H 674.307 5.67103 -5.90201 0
M  V30 7480 N 676.97 0.677563 1.42291 0
M  V30 7481 C 678.195 0.207901 2.06355 0
M  V30 7482 C 678.62 -1.12723 1.50583 0
M  V30 7483 O 677.978 -1.70171 0.62543 0
M  V30 7484 C 678.026 0.156489 3.6026 0
M  V30 7485 O 677.13 -0.874162 4.03029 0
M  V30 7486 H 676.471 0.106056 0.655475 0
M  V30 7487 H 679.001 0.927354 1.82377 0
M  V30 7488 H 679.011 -0.0187258 4.07996 0
M  V30 7489 H 677.686 1.13101 4.00226 0
M  V30 7490 H 676.263 -0.669764 3.66836 0
M  V30 7491 N 678.448 -1.51871 0.421078 0
M  V30 7492 C 679.864 -1.59435 0.0725398 0
M  V30 7493 C 680.064 -1.43315 -1.41644 0
M  V30 7494 O 679.12 -1.26614 -2.18461 0
M  V30 7495 C 680.433 -2.9509 0.578132 0
M  V30 7496 C 681.981 -3.08356 0.537149 0
M  V30 7497 C 682.456 -4.4651 1.01945 0
M  V30 7498 N 683.947 -4.52784 0.976758 0
M  V30 7499 C 684.682 -5.57976 1.32099 0
M  V30 7500 N 684.178 -6.70664 1.73727 0
M  V30 7501 N 685.971 -5.48248 1.2402 0
M  V30 7502 H 678.122 -1.60595 1.39007 0
M  V30 7503 H 680.385 -0.756138 0.571803 0
M  V30 7504 H 680.091 -3.12205 1.61929 0
M  V30 7505 H 679.965 -3.772 -0.00578374 0
M  V30 7506 H 682.352 -2.90919 -0.494991 0
M  V30 7507 H 682.433 -2.28125 1.15727 0
M  V30 7508 H 682.077 -4.64692 2.04997 0
M  V30 7509 H 682.007 -5.25256 0.376023 0
M  V30 7510 H 684.498 -3.71898 0.670851 0
M  V30 7511 H 684.811 -7.46932 1.98274 0
M  V30 7512 H 683.156 -6.71914 1.77641 0
M  V30 7513 H 686.347 -4.59095 0.913756 0
M  V30 7514 H 686.52 -6.30119 1.51176 0
M  V30 7515 N 679.926 -0.151884 -1.56866 0
M  V30 7516 C 681.175 0.497992 -1.95456 0
M  V30 7517 C 681.488 1.6569 -1.03953 0
M  V30 7518 O 682.694 2.37173 -1.32142 0
M  V30 7519 C 681.15 0.93732 -3.4748 0
M  V30 7520 C 680.758 -0.194921 -4.47576 0
M  V30 7521 C 682.502 1.55671 -3.94926 0
M  V30 7522 C 680.409 0.26295 -5.90815 0
M  V30 7523 H 679.339 0.189811 -0.729717 0
M  V30 7524 H 681.99 -0.237011 -1.81963 0
M  V30 7525 H 680.372 1.72773 -3.56322 0
M  V30 7526 H 681.546 -0.971951 -4.50433 0
M  V30 7527 H 679.861 -0.72303 -4.10075 0
M  V30 7528 H 682.458 1.91099 -4.99385 0
M  V30 7529 H 682.801 2.44748 -3.36755 0
M  V30 7530 H 683.334 0.831109 -3.89021 0
M  V30 7531 H 680.073 -0.592568 -6.52816 0
M  V30 7532 H 679.593 1.00575 -5.91308 0
M  V30 7533 H 681.272 0.713333 -6.43056 0
M  V30 7534 N 681.404 1.57128 0.121893 0
M  V30 7535 C 682.653 1.83888 0.828748 0
M  V30 7536 C 682.966 0.737087 1.81181 0
M  V30 7537 O 684.172 0.891007 2.56463 0
M  V30 7538 C 682.628 3.26014 1.52455 0
M  V30 7539 C 682.236 4.44195 0.58263 0
M  V30 7540 C 683.98 3.62025 2.21671 0
M  V30 7541 C 681.887 5.77349 1.28149 0
M  V30 7542 H 680.817 0.685856 0.313238 0
M  V30 7543 H 683.468 1.83319 0.0814851 0
M  V30 7544 H 681.85 3.21044 2.31834 0
M  V30 7545 H 683.024 4.60457 -0.177729 0
M  V30 7546 H 681.339 4.164 -0.00241228 0
M  V30 7547 H 683.936 4.58776 2.74643 0
M  V30 7548 H 684.279 2.89315 2.99337 0
M  V30 7549 H 684.812 3.68767 1.49184 0
M  V30 7550 H 681.551 6.53221 0.546189 0
M  V30 7551 H 681.071 5.64978 2.01394 0
M  V30 7552 H 682.75 6.21006 1.81549 0
M  V30 7553 N 682.882 -0.391992 1.52647 0
M  V30 7554 C 684.129 -1.13732 1.67545 0
M  V30 7555 C 684.457 -1.90045 0.413881 0
M  V30 7556 O 683.712 -1.86157 -0.603646 0
M  V30 7557 C 684.011 -2.14401 2.85949 0
M  V30 7558 C 683.677 -1.54767 4.23507 0
M  V30 7559 C 682.339 -1.38229 4.60919 0
M  V30 7560 C 684.691 -1.11382 5.0916 0
M  V30 7561 C 682.019 -0.7685 5.81645 0
M  V30 7562 C 684.371 -0.514143 6.30507 0
M  V30 7563 C 683.035 -0.33604 6.66654 0
M  V30 7564 H 682.305 -0.416174 0.613091 0
M  V30 7565 H 684.952 -0.422327 1.86785 0
M  V30 7566 H 683.257 -2.92108 2.61114 0
M  V30 7567 H 684.954 -2.71974 2.94671 0
M  V30 7568 H 681.544 -1.68626 3.94035 0
M  V30 7569 H 685.728 -1.22962 4.80826 0
M  V30 7570 H 680.984 -0.618681 6.08262 0
M  V30 7571 H 685.158 -0.169657 6.96193 0
M  V30 7572 H 682.785 0.14166 7.60068 0
M  V30 7573 N 684.36 -1.4356 -0.65026 0
M  V30 7574 C 685.771 -1.40324 -1.2315 0
M  V30 7575 C 686.122 -0.108812 -1.95898 0
M  V30 7576 O 685.247 0.79163 -2.01401 0
M  V30 7577 C 685.842 -2.54195 -2.23987 0
M  V30 7578 C 684.401 -2.54215 -2.77582 0
M  V30 7579 C 683.548 -2.31752 -1.5227 0
M  V30 7580 H 686.499 -1.52418 -0.442095 0
M  V30 7581 H 686.52 -2.25854 -3.0622 0
M  V30 7582 H 686.032 -3.48392 -1.71011 0
M  V30 7583 H 684.133 -1.63907 -3.34612 0
M  V30 7584 H 684.246 -3.52081 -3.24925 0
M  V30 7585 H 682.61 -1.80476 -1.79723 0
M  V30 7586 H 683.393 -3.28037 -1.01225 0
M  V30 7587 N 685.838 0.888903 -1.30139 0
M  V30 7588 C 686.801 1.97576 -1.16174 0
M  V30 7589 C 687.801 1.60525 -0.094086 0
M  V30 7590 O 688.991 1.70812 -0.341889 0
M  V30 7591 C 686.123 3.3188 -0.778983 0
M  V30 7592 H 687.316 2.11393 -2.12728 0
M  V30 7593 H 684.869 1.0748 -1.1348 0
M  V30 7594 H 685.604 3.23765 0.186225 0
M  V30 7595 H 685.389 3.60141 -1.55051 0
M  V30 7596 H 686.879 4.11612 -0.704631 0
M  V30 7597 N 687.317 1.12792 1.10072 0
M  V30 7598 C 688.28 0.802264 2.14701 0
M  V30 7599 C 689.28 -0.18515 1.59731 0
M  V30 7600 O 690.47 0.041109 1.74151 0
M  V30 7601 C 687.602 0.19285 3.40354 0
M  V30 7602 H 688.795 1.72932 2.45019 0
M  V30 7603 H 686.348 0.931662 1.25498 0
M  V30 7604 H 687.083 -0.743748 3.15656 0
M  V30 7605 H 686.868 0.903827 3.81541 0
M  V30 7606 H 688.358 -0.0183704 4.17596 0
M  V30 7607 N 688.795 -1.27931 0.920396 0
M  V30 7608 C 690.025 -1.98516 0.572256 0
M  V30 7609 C 690.433 -1.68912 -0.852375 0
M  V30 7610 O 689.776 -0.94203 -1.57707 0
M  V30 7611 C 689.838 -3.5243 0.709485 0
M  V30 7612 C 689.502 -4.0564 2.10489 0
M  V30 7613 C 690.499 -4.1897 3.07831 0
M  V30 7614 C 688.184 -4.40168 2.41986 0
M  V30 7615 C 690.178 -4.66093 4.34783 0
M  V30 7616 C 687.865 -4.86983 3.69176 0
M  V30 7617 C 688.863 -4.99903 4.65388 0
M  V30 7618 O 688.551 -5.45694 5.90316 0
M  V30 7619 H 688.283 -0.64047 0.216274 0
M  V30 7620 H 690.837 -1.6393 1.23758 0
M  V30 7621 H 689.067 -3.86698 -0.0129263 0
M  V30 7622 H 690.756 -4.04233 0.367474 0
M  V30 7623 H 691.522 -3.92562 2.84816 0
M  V30 7624 H 687.401 -4.29358 1.67846 0
M  V30 7625 H 690.945 -4.76092 5.09884 0
M  V30 7626 H 686.842 -5.12832 3.92012 0
M  V30 7627 H 687.61 -5.63965 5.932 0
M  V30 7628 N 690.273 -0.685099 -1.4193 0
M  V30 7629 C 691.522 -0.208816 -2.00616 0
M  V30 7630 C 691.835 1.19506 -1.54847 0
M  V30 7631 O 693.041 1.76826 -2.06021 0
M  V30 7632 C 691.497 -0.322446 -3.58453 0
M  V30 7633 C 691.105 -1.73102 -4.13206 0
M  V30 7634 C 692.849 0.0945979 -4.24395 0
M  V30 7635 C 690.756 -1.79687 -5.63442 0
M  V30 7636 H 689.686 -0.0743092 -0.750329 0
M  V30 7637 H 692.337 -0.851778 -1.62533 0
M  V30 7638 H 690.719 0.388588 -3.94089 0
M  V30 7639 H 691.893 -2.46997 -3.8901 0
M  V30 7640 H 690.208 -2.09682 -3.59753 0
M  V30 7641 H 692.805 0.0656937 -5.3466 0
M  V30 7642 H 693.148 1.1316 -4.00625 0
M  V30 7643 H 693.681 -0.56579 -3.93756 0
M  V30 7644 H 690.42 -2.81404 -5.92024 0
M  V30 7645 H 689.94 -1.10162 -5.89597 0
M  V30 7646 H 691.619 -1.55498 -6.28036 0
M  V30 7647 N 691.751 1.51645 -0.429126 0
M  V30 7648 C 692.681 2.30434 0.377148 0
M  V30 7649 C 693.662 1.35493 1.02838 0
M  V30 7650 O 694.847 1.6441 1.03359 0
M  V30 7651 C 691.977 3.14038 1.48315 0
M  V30 7652 C 690.931 4.1719 0.955855 0
M  V30 7653 C 690.257 4.89263 2.15698 0
M  V30 7654 C 691.557 5.223 -0.00402136 0
M  V30 7655 H 693.251 2.98085 -0.280336 0
M  V30 7656 H 690.797 1.43354 -0.136265 0
M  V30 7657 H 692.75 3.67933 2.05435 0
M  V30 7658 H 691.474 2.44193 2.16881 0
M  V30 7659 H 690.133 3.64335 0.406929 0
M  V30 7660 H 689.781 4.15929 2.82864 0
M  V30 7661 H 689.481 5.59009 1.81059 0
M  V30 7662 H 691.005 5.45978 2.73387 0
M  V30 7663 H 692.419 5.71315 0.476607 0
M  V30 7664 H 690.816 5.99525 -0.26258 0
M  V30 7665 H 691.886 4.75638 -0.943236 0
M  V30 7666 N 693.229 0.160201 1.56784 0
M  V30 7667 C 694.476 -0.487588 1.96542 0
M  V30 7668 C 694.804 -1.63999 1.04569 0
M  V30 7669 O 694.059 -1.95546 0.0775211 0
M  V30 7670 C 694.358 -1.02259 3.42459 0
M  V30 7671 C 694.024 0.0127436 4.50898 0
M  V30 7672 C 692.686 0.297318 4.80281 0
M  V30 7673 C 695.038 0.716078 5.16257 0
M  V30 7674 C 692.366 1.29081 5.72324 0
M  V30 7675 C 694.718 1.69847 6.09372 0
M  V30 7676 C 693.382 1.99061 6.37127 0
M  V30 7677 H 692.652 -0.178421 0.719199 0
M  V30 7678 H 695.299 0.249818 1.89864 0
M  V30 7679 H 693.604 -1.8376 3.46034 0
M  V30 7680 H 695.301 -1.53261 3.70556 0
M  V30 7681 H 691.891 -0.219235 4.28039 0
M  V30 7682 H 696.075 0.509428 4.93679 0
M  V30 7683 H 691.331 1.52344 5.92116 0
M  V30 7684 H 695.505 2.2489 6.59088 0
M  V30 7685 H 693.132 2.76194 7.08252 0
M  V30 7686 N 694.707 -1.5719 -0.113559 0
M  V30 7687 C 695.655 -2.01725 -1.158 0
M  V30 7688 C 696.649 -0.915105 -1.42556 0
M  V30 7689 O 697.855 -1.10031 -1.42454 0
M  V30 7690 H 694.23 -0.64262 -0.390569 0
M  V30 7691 H 696.201 -2.88666 -0.755926 0
M  V30 7692 C 694.95 -2.44203 -2.47507 0
M  V30 7693 H 694.273 -3.28582 -2.27758 0
M  V30 7694 H 695.713 -2.79158 -3.19135 0
M  V30 7695 C 694.172 -1.30785 -3.10478 0
M  V30 7696 O 694.702 -0.626807 -3.9678 0
M  V30 7697 N 692.908 -1.06352 -2.7044 0
M  V30 7698 H 692.455 -1.61913 -2.00355 0
M  V30 7699 H 692.413 -0.306614 -3.12901 0
M  V30 7700 N 696.185 0.383891 -1.52853 0
M  V30 7701 C 697.115 1.47559 -1.80965 0
M  V30 7702 C 698.096 1.5669 -0.661986 0
M  V30 7703 O 699.281 1.71556 -0.910072 0
M  V30 7704 C 696.411 2.85114 -1.98312 0
M  V30 7705 C 695.365 2.9082 -3.14019 0
M  V30 7706 C 694.691 4.30873 -3.16627 0
M  V30 7707 C 695.991 2.60001 -4.52986 0
M  V30 7708 H 697.685 1.24283 -2.72386 0
M  V30 7709 H 695.231 0.596445 -1.31067 0
M  V30 7710 H 697.184 3.61496 -2.16561 0
M  V30 7711 H 695.908 3.09738 -1.03585 0
M  V30 7712 H 694.567 2.16886 -2.9556 0
M  V30 7713 H 694.215 4.52545 -2.19573 0
M  V30 7714 H 693.915 4.3561 -3.94357 0
M  V30 7715 H 695.439 5.09154 -3.37038 0
M  V30 7716 H 696.853 3.261 -4.71521 0
M  V30 7717 H 695.25 2.76081 -5.32822 0
M  V30 7718 H 696.32 1.5532 -4.59351 0
M  V30 7719 N 697.663 1.43903 0.642637 0
M  V30 7720 C 698.912 1.45362 1.39831 0
M  V30 7721 C 699.225 0.0856289 1.95412 0
M  V30 7722 O 700.431 -0.0222856 2.71491 0
M  V30 7723 C 698.887 2.55857 2.53111 0
M  V30 7724 C 698.495 3.98811 2.04092 0
M  V30 7725 C 700.239 2.66524 3.30402 0
M  V30 7726 C 698.146 5.00751 3.14647 0
M  V30 7727 H 697.076 0.540777 0.52543 0
M  V30 7728 H 699.727 1.69929 0.692559 0
M  V30 7729 H 698.109 2.2451 3.26207 0
M  V30 7730 H 699.283 4.3967 1.37938 0
M  V30 7731 H 697.598 3.92284 1.39651 0
M  V30 7732 H 700.195 3.39858 4.12796 0
M  V30 7733 H 700.538 1.71949 3.79129 0
M  V30 7734 H 701.071 2.97224 2.64392 0
M  V30 7735 H 697.81 5.96914 2.70876 0
M  V30 7736 H 697.33 4.64495 3.79479 0
M  V30 7737 H 699.009 5.23933 3.79609 0
M  V30 7738 N 699.141 -0.881989 1.30609 0
M  V30 7739 C 700.371 -1.66469 1.22359 0
M  V30 7740 C 700.779 -1.87969 -0.215507 0
M  V30 7741 O 700.122 -1.42938 -1.15388 0
M  V30 7742 C 700.184 -3.06135 1.88472 0
M  V30 7743 C 699.848 -3.07795 3.37804 0
M  V30 7744 C 700.845 -2.86633 4.33749 0
M  V30 7745 C 698.53 -3.29297 3.793 0
M  V30 7746 C 700.524 -2.86934 5.69164 0
M  V30 7747 C 698.211 -3.29228 5.14832 0
M  V30 7748 C 699.209 -3.08071 6.09574 0
M  V30 7749 O 698.897 -3.07824 7.4263 0
M  V30 7750 H 698.629 -0.526129 0.424458 0
M  V30 7751 H 701.183 -1.11004 1.72821 0
M  V30 7752 H 699.413 -3.63276 1.32543 0
M  V30 7753 H 701.102 -3.66571 1.74301 0
M  V30 7754 H 701.868 -2.69814 4.0302 0
M  V30 7755 H 697.747 -3.44799 3.05998 0
M  V30 7756 H 701.291 -2.70339 6.43088 0
M  V30 7757 H 697.188 -3.45583 5.452 0
M  V30 7758 H 697.956 -3.2397 7.51656 0
M  V30 7759 N 700.619 -1.13374 -1.09472 0
M  V30 7760 C 701.865 -0.906459 -1.82085 0
M  V30 7761 C 702.22 0.5614 -1.84027 0
M  V30 7762 O 701.513 1.41012 -1.29716 0
M  V30 7763 C 701.707 -1.42759 -3.2765 0
M  V30 7764 C 701.536 -2.94459 -3.39888 0
M  V30 7765 C 700.306 -3.62798 -3.51718 0
M  V30 7766 C 702.504 -3.92398 -3.32457 0
M  V30 7767 N 700.486 -5.02516 -3.52635 0
M  V30 7768 C 701.857 -5.18304 -3.40237 0
M  V30 7769 C 703.912 -3.84671 -3.16122 0
M  V30 7770 C 702.615 -6.37386 -3.33364 0
M  V30 7771 C 704.641 -5.03287 -3.10574 0
M  V30 7772 C 704.003 -6.28055 -3.18945 0
M  V30 7773 H 700.102 -0.385097 -0.680606 0
M  V30 7774 H 702.686 -1.44187 -1.30836 0
M  V30 7775 H 700.857 -0.919102 -3.77369 0
M  V30 7776 H 702.589 -1.14136 -3.88272 0
M  V30 7777 H 699.344 -3.13317 -3.55147 0
M  V30 7778 H 699.768 -5.75421 -3.56679 0
M  V30 7779 H 704.41 -2.89094 -3.0852 0
M  V30 7780 H 702.128 -7.33219 -3.3973 0
M  V30 7781 H 705.714 -4.99047 -2.9907 0
M  V30 7782 H 704.594 -7.18299 -3.14668 0
M  V30 7783 N 702.098 1.27442 -0.927168 0
M  V30 7784 C 703.323 1.99036 -0.583042 0
M  V30 7785 C 703.748 1.68711 0.83176 0
M  V30 7786 O 703.106 0.927081 1.55804 0
M  V30 7787 C 703.154 3.51271 -0.814925 0
M  V30 7788 O 702.258 4.12226 0.119742 0
M  V30 7789 H 701.599 0.624883 -0.224538 0
M  V30 7790 H 704.129 1.62263 -1.24628 0
M  V30 7791 H 704.139 4.01411 -0.730282 0
M  V30 7792 H 702.814 3.72676 -1.84623 0
M  V30 7793 H 701.391 3.72897 -0.0147688 0
M  V30 7794 N 703.576 0.692616 1.41565 0
M  V30 7795 C 704.825 0.219452 2.00503 0
M  V30 7796 C 705.138 -1.18683 1.55479 0
M  V30 7797 O 706.344 -1.75731 2.06956 0
M  V30 7798 C 704.8 0.341451 3.58277 0
M  V30 7799 C 704.408 1.75291 4.12283 0
M  V30 7800 C 706.152 -0.0720899 4.24439 0
M  V30 7801 C 704.059 1.82673 5.62481 0
M  V30 7802 H 702.989 0.0782874 0.749925 0
M  V30 7803 H 705.64 0.860386 1.62079 0
M  V30 7804 H 704.022 -0.367683 3.94289 0
M  V30 7805 H 705.196 2.49057 3.87695 0
M  V30 7806 H 703.511 2.11587 3.58636 0
M  V30 7807 H 706.108 -0.0373385 5.34687 0
M  V30 7808 H 706.451 -1.11034 4.0122 0
M  V30 7809 H 706.984 0.586663 3.9345 0
M  V30 7810 H 703.723 2.84539 5.90523 0
M  V30 7811 H 703.243 1.13288 5.89004 0
M  V30 7812 H 704.922 1.58827 6.27203 0
M  V30 7813 N 705.054 -1.51416 0.437162 0
M  V30 7814 C 706.301 -2.02086 -0.129364 0
M  V30 7815 C 706.629 -1.32133 -1.42728 0
M  V30 7816 O 705.884 -0.424916 -1.91031 0
M  V30 7817 C 706.183 -3.55203 -0.39564 0
M  V30 7818 C 705.849 -4.43447 0.81644 0
M  V30 7819 C 704.511 -4.67285 1.14884 0
M  V30 7820 C 706.863 -4.95219 1.62503 0
M  V30 7821 C 704.191 -5.40141 2.29052 0
M  V30 7822 C 706.543 -5.69327 2.7577 0
M  V30 7823 C 705.207 -5.91429 3.09464 0
M  V30 7824 H 704.477 -0.739486 -0.0473375 0
M  V30 7825 H 707.124 -1.82368 0.584321 0
M  V30 7826 H 705.429 -3.73252 -1.19121 0
M  V30 7827 H 707.126 -3.91944 -0.847399 0
M  V30 7828 H 703.716 -4.2509 0.547422 0
M  V30 7829 H 707.9 -4.76686 1.38144 0
M  V30 7830 H 703.156 -5.55468 2.55471 0
M  V30 7831 H 707.33 -6.08433 3.38795 0
M  V30 7832 H 704.957 -6.47662 3.98042 0
M  V30 7833 N 706.532 -0.168513 -1.56696 0
M  V30 7834 C 707.757 0.486688 -2.01609 0
M  V30 7835 C 708.182 1.56203 -1.04796 0
M  V30 7836 O 707.54 1.8128 -0.0270596 0
M  V30 7837 C 707.588 1.04451 -3.45141 0
M  V30 7838 O 706.692 2.15862 -3.51393 0
M  V30 7839 H 706.033 0.116831 -0.653641 0
M  V30 7840 H 708.563 -0.271579 -2.0279 0
M  V30 7841 H 708.573 1.36782 -3.84389 0
M  V30 7842 H 707.248 0.257155 -4.15104 0
M  V30 7843 H 705.825 1.84597 -3.24004 0
M  V30 7844 O 708.049 1.61471 -0.0305634 0
M  V30 7845 H 708.74 1.84756 0.581805 0
M  V30 END ATOM
M  V30 BEGIN BOND
M  V30 END BOND
M  V30 END CTAB
M  END
$$$$
