drugbank_target|P24158 Myeloblastin (DB05161)
 OpenBabel12092119443D

  0  0  0     0  0            999 V3000
M  V30 BEGIN CTAB
M  V30 COUNTS 3910 3961 0 0 0
M  V30 BEGIN ATOM
M  V30 1 H -0.908 1.98254 -0.117106 0
M  V30 2 N 0 1.576 0 0
M  V30 3 C 0.933 2.03868 1.02534 0
M  V30 4 C 1.911 0.928543 1.3348 0
M  V30 5 O 3.095 1.19667 1.45644 0
M  V30 6 C 0.222 2.43627 2.35294 0
M  V30 7 C -0.732 3.65373 2.2001 0
M  V30 8 S 0.101 5.13292 1.52614 0
M  V30 9 C 1.257 5.56322 2.86805 0
M  V30 10 H 1.49 2.90518 0.631377 0
M  V30 11 H -0.977 1.52953 0.210867 0
M  V30 12 H 0.981 2.67203 3.11629 0
M  V30 13 H -0.358 1.57376 2.7183 0
M  V30 14 H -1.165 3.90944 3.18086 0
M  V30 15 H -1.563 3.418 1.51819 0
M  V30 16 H 0.729 5.58782 3.83104 0
M  V30 17 H 1.672 6.56266 2.65933 0
M  V30 18 H 2.08 4.83886 2.90714 0
M  V30 19 N 1.4781 -0.272755 1.55222 0
M  V30 20 C 2.4411 -1.32041 1.87344 0
M  V30 21 C 3.4411 -1.42342 0.74803 0
M  V30 22 O 4.6311 -1.41488 1.0162 0
M  V30 23 C 1.7631 -2.70173 2.07893 0
M  V30 24 H 2.9561 -1.04789 2.80997 0
M  V30 25 H 0.5091 -0.51083 1.47717 0
M  V30 26 H 1.2441 -3.02605 1.16622 0
M  V30 27 H 1.0291 -2.64082 2.89833 0
M  V30 28 H 2.5191 -3.45869 2.34017 0
M  V30 29 N 2.9562 -1.48159 -0.537278 0
M  V30 30 C 3.9062 -1.5854 -1.63857 0
M  V30 31 C 4.8902 -0.442969 -1.54682 0
M  V30 32 O 6.0822 -0.69401 -1.62827 0
M  V30 33 C 3.2112 -1.62144 -3.02596 0
M  V30 34 C 2.2972 -2.81841 -3.16901 0
M  V30 35 N 2.6882 -4.06337 -3.01204 0
M  V30 36 C 0.9862 -2.79021 -3.47942 0
M  V30 37 C 1.6872 -4.86606 -3.18731 0
M  V30 38 N 0.6632 -4.19288 -3.45974 0
M  V30 39 H 4.4652 -2.5255 -1.50319 0
M  V30 40 H 1.9792 -1.4443 -0.742555 0
M  V30 41 H 3.9762 -1.67674 -3.81695 0
M  V30 42 H 2.6362 -0.69245 -3.17231 0
M  V30 43 H 3.6472 -4.36888 -2.78117 0
M  V30 44 H 0.3242 -1.95347 -3.6898 0
M  V30 45 H 1.7142 -5.95385 -3.11394 0
M  V30 46 N 4.4343 0.785586 -1.36625 0
M  V30 47 C 5.8503 1.08419 -1.17122 0
M  V30 48 C 6.0503 2.015 0.00208491 0
M  V30 49 O 5.1063 2.43551 0.666278 0
M  V30 50 C 6.4193 1.69498 -2.48377 0
M  V30 51 C 7.9673 1.81821 -2.54775 0
M  V30 52 C 8.4423 2.46315 -3.86126 0
M  V30 53 N 9.9333 2.53779 -3.87492 0
M  V30 54 C 10.6683 3.045 -4.85868 0
M  V30 55 N 10.1643 3.55499 -5.94637 0
M  V30 56 N 11.9573 3.03247 -4.73284 0
M  V30 57 H 4.1083 0.167264 -2.1174 0
M  V30 58 H 6.3713 0.13682 -0.938075 0
M  V30 59 H 6.0773 1.08571 -3.34522 0
M  V30 60 H 5.9513 2.6896 -2.64462 0
M  V30 61 H 8.3383 2.41884 -1.69045 0
M  V30 62 H 8.4193 0.811532 -2.42586 0
M  V30 63 H 8.0633 1.86895 -4.72263 0
M  V30 64 H 7.9933 3.47561 -3.95612 0
M  V30 65 H 10.4843 2.17672 -3.08913 0
M  V30 66 H 10.7973 3.92562 -6.65669 0
M  V30 67 H 9.1423 3.5364 -5.98301 0
M  V30 68 H 12.3333 2.62696 -3.87438 0
M  V30 69 H 12.5063 3.42467 -5.50109 0
M  V30 70 N 5.9124 1.20967 1.01018 0
M  V30 71 C 7.3234 1.02319 1.56165 0
M  V30 72 C 7.6744 -0.418546 1.91684 0
M  V30 73 O 6.7994 -1.30096 1.72928 0
M  V30 74 C 7.3944 1.85109 2.8376 0
M  V30 75 C 5.9534 1.70809 3.35412 0
M  V30 76 C 5.1004 1.82643 2.08655 0
M  V30 77 H 8.0514 1.35065 0.833255 0
M  V30 78 H 8.0724 1.35827 3.55431 0
M  V30 79 H 7.5844 2.90035 2.57878 0
M  V30 80 H 5.6854 0.685464 3.66241 0
M  V30 81 H 5.7984 2.52467 4.07182 0
M  V30 82 H 4.1624 1.25896 2.21409 0
M  V30 83 H 4.9454 2.89066 1.85191 0
M  V30 84 N 7.3905 -1.2043 1.01659 0
M  V30 85 C 8.8015 -1.71517 0.737482 0
M  V30 86 C 9.1525 -1.81547 -0.743973 0
M  V30 87 O 8.2775 -1.47803 -1.58061 0
M  V30 88 C 8.8725 -3.11515 1.33206 0
M  V30 89 C 7.4315 -3.59912 1.10183 0
M  V30 90 C 6.5785 -2.37116 1.43776 0
M  V30 91 H 9.5295 -1.05444 1.18606 0
M  V30 92 H 9.5505 -3.73575 0.722636 0
M  V30 93 H 9.0625 -3.04182 2.41028 0
M  V30 94 H 7.1635 -3.72577 0.0412756 0
M  V30 95 H 7.2765 -4.44731 1.78188 0
M  V30 96 H 5.6405 -2.39857 0.856778 0
M  V30 97 H 6.4235 -2.32424 2.52654 0
M  V30 98 N 8.8686 -0.792821 -1.36206 0
M  V30 99 C 10.0936 -0.377701 -2.03932 0
M  V30 100 C 10.5186 0.998947 -1.59382 0
M  V30 101 O 9.8766 1.64421 -0.763903 0
M  V30 102 C 9.9246 -0.453635 -3.57735 0
M  V30 103 O 9.0286 0.538151 -4.08874 0
M  V30 104 H 8.3696 -0.159855 -0.644471 0
M  V30 105 H 10.8996 -1.07488 -1.7409 0
M  V30 106 H 10.9096 -0.318464 -4.06755 0
M  V30 107 H 9.5846 -1.45784 -3.89512 0
M  V30 108 H 8.1616 0.364359 -3.71116 0
M  V30 109 N 10.3467 1.47872 -0.545128 0
M  V30 110 C 11.7577 1.86384 -0.108581 0
M  V30 111 C 12.1087 1.45309 1.31832 0
M  V30 112 O 11.2337 0.850641 1.9898 0
M  V30 113 C 11.8287 3.38265 -0.190274 0
M  V30 114 C 10.3877 3.75914 0.191164 0
M  V30 115 C 9.5347 2.71926 -0.543273 0
M  V30 116 H 12.4857 1.39561 -0.755537 0
M  V30 117 H 12.5067 3.75831 0.594217 0
M  V30 118 H 12.0187 3.6813 -1.2289 0
M  V30 119 H 10.1197 3.51665 1.23136 0
M  V30 120 H 10.2327 4.78836 -0.158987 0
M  V30 121 H 8.5967 2.54697 0.0122495 0
M  V30 122 H 9.3797 3.04634 -1.58282 0
M  V30 123 N 11.8248 0.280983 1.55075 0
M  V30 124 C 12.7878 -0.590896 2.21452 0
M  V30 125 C 13.7878 -1.07682 1.19421 0
M  V30 126 O 14.9778 -0.97605 1.44288 0
M  V30 127 C 12.1098 -1.81587 2.88511 0
M  V30 128 H 13.3028 -0.0112554 2.99898 0
M  V30 129 H 10.8558 0.0316438 1.56268 0
M  V30 130 H 11.5908 -2.43587 2.14093 0
M  V30 131 H 11.3758 -1.4753 3.63287 0
M  V30 132 H 12.8658 -2.43575 3.39206 0
M  V30 133 N 13.3029 -1.57598 0.00835791 0
M  V30 134 C 14.2329 -2.1198 -0.979113 0
M  V30 135 C 15.2139 -1.03091 -1.35301 0
M  V30 136 O 16.3989 -1.30818 -1.43528 0
M  V30 137 C 13.5289 -2.62995 -2.26828 0
M  V30 138 C 12.4829 -3.76485 -2.03576 0
M  V30 139 C 11.8089 -4.13846 -3.38579 0
M  V30 140 C 13.1089 -5.0342 -1.39161 0
M  V30 141 H 14.8029 -2.94738 -0.526281 0
M  V30 142 H 12.3489 -1.41783 -0.251704 0
M  V30 143 H 14.3019 -2.99669 -2.96271 0
M  V30 144 H 13.0259 -1.7737 -2.7424 0
M  V30 145 H 11.6849 -3.40217 -1.36557 0
M  V30 146 H 11.3329 -3.25232 -3.83709 0
M  V30 147 H 11.0329 -4.90312 -3.23834 0
M  V30 148 H 12.5569 -4.53086 -4.09323 0
M  V30 149 H 13.9709 -5.37812 -1.98573 0
M  V30 150 H 12.3679 -5.84746 -1.34878 0
M  V30 151 H 13.4379 -4.83548 -0.361868 0
M  V30 152 N 14.781 0.264519 -1.55364 0
M  V30 153 C 15.744 1.31046 -1.88042 0
M  V30 154 C 16.744 1.41943 -0.755569 0
M  V30 155 O 17.934 1.40947 -1.02369 0
M  V30 156 C 15.066 2.69067 -2.09323 0
M  V30 157 H 16.259 1.03297 -2.81549 0
M  V30 158 H 13.812 0.502989 -1.47986 0
M  V30 159 H 14.547 3.01982 -1.18226 0
M  V30 160 H 14.332 2.62542 -2.91229 0
M  V30 161 H 15.822 3.44623 -2.35848 0
M  V30 162 N 16.2591 1.48442 0.529413 0
M  V30 163 C 17.4841 1.60406 1.31471 0
M  V30 164 C 17.9091 0.264738 1.86228 0
M  V30 165 O 17.2671 -0.763668 1.64432 0
M  V30 166 C 17.3151 2.65419 2.44101 0
M  V30 167 O 16.4191 2.22618 3.47153 0
M  V30 168 H 15.7601 0.537863 0.389357 0
M  V30 169 H 18.2901 1.94432 0.636965 0
M  V30 170 H 18.3001 2.86709 2.90279 0
M  V30 171 H 16.9751 3.62652 2.03608 0
M  V30 172 H 15.5521 2.11543 3.0709 0
M  V30 173 N 17.7372 -0.778329 1.37039 0
M  V30 174 C 18.9832 -1.53892 1.32079 0
M  V30 175 C 19.3162 -1.9396 -0.0965386 0
M  V30 176 O 18.5912 -1.63568 -1.05242 0
M  V30 177 C 18.8742 -2.80847 2.25382 0
M  V30 178 C 18.7272 -2.47076 3.75864 0
M  V30 179 C 20.0462 -3.82741 2.1725 0
M  V30 180 H 17.1652 -0.558303 0.48111 0
M  V30 181 H 19.8072 -0.893397 1.67685 0
M  V30 182 H 17.9572 -3.35931 1.95148 0
M  V30 183 H 19.6292 -1.97957 4.16666 0
M  V30 184 H 17.8722 -1.79863 3.94755 0
M  V30 185 H 18.5432 -3.37798 4.36574 0
M  V30 186 H 21.0192 -3.37133 2.43887 0
M  V30 187 H 19.8952 -4.69303 2.84686 0
M  V30 188 H 20.1562 -4.2652 1.16331 0
M  V30 189 N 19.2153 -1.21501 -1.00376 0
M  V30 190 C 20.1453 -0.999478 -2.11028 0
M  V30 191 C 21.1263 0.0759671 -1.6993 0
M  V30 192 O 22.3113 -0.0841106 -1.94018 0
M  V30 193 C 19.4413 -0.564709 -3.42678 0
M  V30 194 C 18.3953 -1.58486 -3.97576 0
M  V30 195 C 17.7213 -1.00628 -5.25146 0
M  V30 196 C 19.0213 -2.97204 -4.29496 0
M  V30 197 H 20.7153 -1.92495 -2.29317 0
M  V30 198 H 18.2613 -0.92693 -1.102 0
M  V30 199 H 20.2143 -0.401091 -4.19487 0
M  V30 200 H 18.9383 0.396411 -3.24185 0
M  V30 201 H 17.5973 -1.73606 -3.22888 0
M  V30 202 H 17.2453 -0.0368439 -5.02987 0
M  V30 203 H 16.9453 -1.68771 -5.62841 0
M  V30 204 H 18.4693 -0.854015 -6.04598 0
M  V30 205 H 19.8833 -2.8552 -4.97143 0
M  V30 206 H 18.2803 -3.62372 -4.78338 0
M  V30 207 H 19.3503 -3.47956 -3.3772 0
M  V30 208 N 20.6934 1.19889 -1.02296 0
M  V30 209 C 21.6234 2.25141 -0.619174 0
M  V30 210 C 22.6044 1.66051 0.368915 0
M  V30 211 O 23.7894 1.92546 0.252941 0
M  V30 212 C 20.9194 3.4728 0.0368783 0
M  V30 213 C 19.8734 4.19005 -0.872865 0
M  V30 214 C 19.1994 5.34637 -0.0822402 0
M  V30 215 C 20.4994 4.74452 -2.18387 0
M  V30 216 H 22.1934 2.59171 -1.49903 0
M  V30 217 H 19.7394 1.24579 -0.722222 0
M  V30 218 H 21.6924 4.20098 0.330958 0
M  V30 219 H 20.4164 3.12433 0.95149 0
M  V30 220 H 19.0754 3.48061 -1.15105 0
M  V30 221 H 18.7234 4.96034 0.83422 0
M  V30 222 H 18.4234 5.83557 -0.688149 0
M  V30 223 H 19.9474 6.10255 0.205238 0
M  V30 224 H 21.3614 5.39055 -1.95172 0
M  V30 225 H 19.7584 5.33834 -2.74119 0
M  V30 226 H 20.8284 3.92844 -2.84257 0
M  V30 227 N 22.1715 0.800033 1.35784 0
M  V30 228 C 23.1345 0.211565 2.28221 0
M  V30 229 C 24.1345 -0.59728 1.49296 0
M  V30 230 O 25.3245 -0.416721 1.69142 0
M  V30 231 C 22.4565 -0.705846 3.33513 0
M  V30 232 H 23.6495 1.02677 2.81776 0
M  V30 233 H 21.2025 0.570211 1.45528 0
M  V30 234 H 21.9375 -1.54498 2.85133 0
M  V30 235 H 21.7225 -0.127655 3.91892 0
M  V30 236 H 23.2125 -1.11211 4.02519 0
M  V30 237 N 23.6496 -1.47581 0.552962 0
M  V30 238 C 24.5796 -2.32762 -0.185451 0
M  V30 239 C 25.5606 -1.43527 -0.912905 0
M  V30 240 O 26.7456 -1.72388 -0.894201 0
M  V30 241 C 23.8756 -3.25219 -1.21859 0
M  V30 242 C 22.8296 -4.23661 -0.607864 0
M  V30 243 C 22.1556 -5.05413 -1.74533 0
M  V30 244 C 23.4556 -5.20481 0.435582 0
M  V30 245 H 25.1496 -2.94749 0.525684 0
M  V30 246 H 22.6956 -1.41738 0.254251 0
M  V30 247 H 24.6486 -3.8365 -1.7433 0
M  V30 248 H 23.3726 -2.61279 -1.95961 0
M  V30 249 H 22.0316 -3.66451 -0.104489 0
M  V30 250 H 21.6796 -4.3788 -2.47529 0
M  V30 251 H 21.3796 -5.72059 -1.34249 0
M  V30 252 H 22.9036 -5.66701 -2.27338 0
M  V30 253 H 24.3176 -5.733 -0.00290157 0
M  V30 254 H 22.7146 -5.95305 0.757067 0
M  V30 255 H 23.7846 -4.66217 1.33303 0
M  V30 256 N 25.1277 -0.289203 -1.54924 0
M  V30 257 C 26.0577 0.58549 -2.2604 0
M  V30 258 C 27.0387 1.14753 -1.25562 0
M  V30 259 O 28.2237 1.17906 -1.54311 0
M  V30 260 C 25.3537 1.76305 -2.99222 0
M  V30 261 C 24.3077 1.33191 -4.06748 0
M  V30 262 C 23.6337 2.5937 -4.6758 0
M  V30 263 C 24.9337 0.471775 -5.20165 0
M  V30 264 H 26.6277 -0.00763532 -2.99399 0
M  V30 265 H 24.1737 -0.00511229 -1.43999 0
M  V30 266 H 26.1267 2.38097 -3.47689 0
M  V30 267 H 24.8507 2.38223 -2.23422 0
M  V30 268 H 23.5097 0.737121 -3.59113 0
M  V30 269 H 23.1577 3.19576 -3.88433 0
M  V30 270 H 22.8577 2.31228 -5.40192 0
M  V30 271 H 24.3817 3.21985 -5.18804 0
M  V30 272 H 25.7957 0.995056 -5.64599 0
M  V30 273 H 24.1927 0.284639 -5.99425 0
M  V30 274 H 25.2627 -0.506041 -4.82252 0
M  V30 275 N 26.6058 1.57591 -0.0167156 0
M  V30 276 C 27.5358 2.12496 0.967858 0
M  V30 277 C 28.5168 1.03807 1.34752 0
M  V30 278 O 29.7018 1.31577 1.42833 0
M  V30 279 C 26.8318 2.64194 2.25431 0
M  V30 280 C 25.7858 3.77559 2.01576 0
M  V30 281 C 25.1118 4.15636 3.36379 0
M  V30 282 C 26.4118 5.04151 1.36489 0
M  V30 283 H 28.1058 2.95013 0.510643 0
M  V30 284 H 25.6518 1.41915 0.244181 0
M  V30 285 H 27.6048 3.01236 2.94678 0
M  V30 286 H 26.3288 1.78821 2.73296 0
M  V30 287 H 24.9878 3.40937 1.34751 0
M  V30 288 H 24.6358 3.27263 3.81979 0
M  V30 289 H 24.3358 4.92022 3.21229 0
M  V30 290 H 25.8598 4.5525 4.06915 0
M  V30 291 H 27.2738 5.38857 1.95718 0
M  V30 292 H 25.6708 5.85453 1.31776 0
M  V30 293 H 26.7408 4.83733 0.336219 0
M  V30 294 N 28.0839 -0.256276 1.55502 0
M  V30 295 C 29.3089 -1.00766 1.81276 0
M  V30 296 C 29.7339 -1.78524 0.59252 0
M  V30 297 O 29.0919 -1.75413 -0.45827 0
M  V30 298 C 29.1399 -1.92869 3.04687 0
M  V30 299 O 28.2439 -3.019 2.80945 0
M  V30 300 H 27.5849 -0.287224 0.598664 0
M  V30 301 H 30.1149 -0.280109 2.02674 0
M  V30 302 H 30.1249 -2.34511 3.33869 0
M  V30 303 H 28.7999 -1.35689 3.93143 0
M  V30 304 H 27.3769 -2.64454 2.62904 0
M  V30 305 N 29.562 -1.4872 -0.521534 0
M  V30 306 C 30.81 -1.56857 -1.27437 0
M  V30 307 C 31.131 -0.247982 -1.93417 0
M  V30 308 O 30.401 0.731151 -1.81744 0
M  V30 309 H 28.981 -0.577885 -0.473347 0
M  V30 310 H 31.643 -1.85233 -0.606205 0
M  V30 311 H 30.739 -2.35402 -2.0492 0
M  V30 312 N 31.0401 0.771051 -1.3745 0
M  V30 313 C 32.0031 1.86598 -1.33093 0
M  V30 314 C 33.0031 1.59076 -0.234845 0
M  V30 315 O 34.1931 1.67145 -0.490732 0
M  V30 316 C 31.3251 3.23747 -1.06773 0
M  V30 317 H 32.5181 1.91873 -2.30488 0
M  V30 318 H 30.0711 0.970876 -1.2249 0
M  V30 319 H 30.8061 3.24148 -0.099129 0
M  V30 320 H 30.5911 3.45115 -1.86112 0
M  V30 321 H 32.0811 4.03824 -1.06377 0
M  V30 322 N 32.5182 1.22032 0.997298 0
M  V30 323 C 33.4812 0.987909 2.06816 0
M  V30 324 C 34.4812 -0.0440084 1.6074 0
M  V30 325 O 35.6712 0.194053 1.73116 0
M  V30 326 C 32.8032 0.49132 3.37341 0
M  V30 327 H 33.9962 1.93803 2.28868 0
M  V30 328 H 31.5492 1.03838 1.16822 0
M  V30 329 H 32.2842 -0.463364 3.20973 0
M  V30 330 H 32.0692 1.23575 3.72118 0
M  V30 331 H 33.5592 0.348824 4.16141 0
M  V30 332 N 33.9963 -1.19345 1.0293 0
M  V30 333 C 35.4123 -1.41069 0.746446 0
M  V30 334 C 35.6123 -1.90078 -0.668776 0
M  V30 335 O 34.6683 -2.0778 -1.4347 0
M  V30 336 C 35.9813 -2.42141 1.78292 0
M  V30 337 C 37.5293 -2.55887 1.80252 0
M  V30 338 C 38.0043 -3.60214 2.8286 0
M  V30 339 N 39.4953 -3.67711 2.81679 0
M  V30 340 C 40.2303 -4.48128 3.57727 0
M  V30 341 N 39.7263 -5.32248 4.43491 0
M  V30 342 N 41.5193 -4.42782 3.46267 0
M  V30 343 H 33.6703 -0.858536 1.94275 0
M  V30 344 H 35.9333 -0.439541 0.839945 0
M  V30 345 H 35.6393 -2.13155 2.79746 0
M  V30 346 H 35.5133 -3.41323 1.60557 0
M  V30 347 H 37.9003 -2.84196 0.794757 0
M  V30 348 H 37.9813 -1.56858 2.02062 0
M  V30 349 H 37.6253 -3.32647 3.83807 0
M  V30 350 H 37.5553 -4.58895 2.58307 0
M  V30 351 H 40.0463 -3.07634 2.19476 0
M  V30 352 H 40.3593 -5.90729 4.98256 0
M  V30 353 H 38.7043 -5.31707 4.47564 0
M  V30 354 H 41.8953 -3.76107 2.78677 0
M  V30 355 H 42.0683 -5.05215 4.05785 0
M  V30 356 N 35.4744 -0.807222 -1.35358 0
M  V30 357 C 36.4374 -0.223665 -2.28106 0
M  V30 358 C 37.4374 0.589354 -1.4961 0
M  V30 359 O 38.6274 0.407745 -1.69361 0
M  V30 360 C 35.7594 0.688149 -3.33882 0
M  V30 361 H 36.9524 -1.04169 -2.81227 0
M  V30 362 H 34.5054 -0.577921 -1.45223 0
M  V30 363 H 35.2404 1.52984 -2.85948 0
M  V30 364 H 35.0254 0.10687 -3.91954 0
M  V30 365 H 36.5154 1.09075 -4.03104 0
M  V30 366 N 36.9525 1.47285 -0.560781 0
M  V30 367 C 37.9155 2.28535 0.174488 0
M  V30 368 C 38.9155 1.37153 0.839388 0
M  V30 369 O 40.1055 1.59748 0.694702 0
M  V30 370 C 37.2375 3.16934 1.25561 0
M  V30 371 H 38.4305 2.95012 -0.539262 0
M  V30 372 H 35.9835 1.53034 -0.317865 0
M  V30 373 H 36.7185 2.55157 2.00164 0
M  V30 374 H 36.5035 3.8419 0.783604 0
M  V30 375 H 37.9935 3.78143 1.77193 0
M  V30 376 N 38.4306 0.297415 1.54768 0
M  V30 377 C 39.3406 -0.58983 2.27064 0
M  V30 378 C 40.3566 -1.15144 1.30453 0
M  V30 379 O 41.5326 -1.17699 1.63428 0
M  V30 380 C 38.5976 -1.74714 2.9946 0
M  V30 381 C 37.6586 -1.21997 4.11601 0
M  V30 382 C 36.8916 -2.32212 4.80535 0
M  V30 383 O 37.1146 -3.52036 4.48806 0
M  V30 384 O 36.0486 -1.99106 5.68014 0
M  V30 385 H 39.8746 -0.00348199 3.037 0
M  V30 386 H 37.4596 0.0640035 1.49263 0
M  V30 387 H 39.3416 -2.42147 3.44881 0
M  V30 388 H 38.0166 -2.32016 2.25722 0
M  V30 389 H 36.9236 -0.511458 3.70587 0
M  V30 390 H 38.2566 -0.692419 4.87305 0
M  V30 391 N 39.9087 -1.5758 0.0250728 0
M  V30 392 C 41.1577 -1.90811 -0.653767 0
M  V30 393 C 41.4707 -0.90273 -1.73523 0
M  V30 394 O 42.6767 -1.12614 -2.47043 0
M  V30 395 C 41.1327 -3.38804 -1.21409 0
M  V30 396 C 40.7407 -4.47692 -0.166126 0
M  V30 397 C 42.4847 -3.81108 -1.86967 0
M  V30 398 C 40.3917 -5.86779 -0.737856 0
M  V30 399 H 39.3217 -0.712063 -0.247956 0
M  V30 400 H 41.9727 -1.83281 0.0897137 0
M  V30 401 H 40.3547 -3.41252 -2.00905 0
M  V30 402 H 41.5287 -4.56797 0.606079 0
M  V30 403 H 39.8437 -4.14565 0.390466 0
M  V30 404 H 42.4407 -4.82375 -2.30692 0
M  V30 405 H 42.7837 -3.15953 -2.71071 0
M  V30 406 H 43.3167 -3.81065 -1.14167 0
M  V30 407 H 40.0557 -6.55468 0.0649577 0
M  V30 408 H 39.5757 -5.81288 -1.47864 0
M  V30 409 H 41.2547 -6.35223 -1.22884 0
M  V30 410 N 41.3868 0.248026 -1.55636 0
M  V30 411 C 42.6328 0.97767 -1.77678 0
M  V30 412 C 42.9658 1.85016 -0.590135 0
M  V30 413 O 42.2408 1.90095 0.411611 0
M  V30 414 C 42.5238 1.83914 -3.09593 0
M  V30 415 C 42.3768 0.99491 -4.38659 0
M  V30 416 C 43.6958 2.82183 -3.37729 0
M  V30 417 H 40.8148 0.354005 -0.646413 0
M  V30 418 H 43.4568 0.248253 -1.88371 0
M  V30 419 H 41.6068 2.46104 -3.00608 0
M  V30 420 H 43.2788 0.391789 -4.59633 0
M  V30 421 H 41.5218 0.299231 -4.32767 0
M  V30 422 H 42.1928 1.63145 -5.2734 0
M  V30 423 H 44.6688 2.30129 -3.4667 0
M  V30 424 H 43.5448 3.39582 -4.31249 0
M  V30 425 H 43.8058 3.58588 -2.58586 0
M  V30 426 N 42.8649 1.48995 0.513639 0
M  V30 427 C 44.1129 1.57531 1.26604 0
M  V30 428 C 44.4339 0.258236 1.93283 0
M  V30 429 O 43.7039 -0.721502 1.8213 0
M  V30 430 H 42.2839 0.580387 0.470276 0
M  V30 431 H 44.9459 1.85552 0.596373 0
M  V30 432 H 44.0419 2.36486 2.03669 0
M  V30 433 N 44.343 -0.763751 1.37857 0
M  V30 434 C 45.591 -1.51957 1.33243 0
M  V30 435 C 45.912 -1.94835 -0.0801709 0
M  V30 436 O 45.182 -1.66894 -1.02582 0
M  V30 437 H 43.762 -0.563626 0.49024 0
M  V30 438 H 46.424 -0.908504 1.7243 0
M  V30 439 H 45.52 -2.41523 1.97669 0
M  V30 440 N 45.8211 -1.22559 -0.990812 0
M  V30 441 C 46.7711 -0.964807 -2.0658 0
M  V30 442 C 47.7551 0.0853472 -1.60673 0
M  V30 443 O 48.9471 -0.125443 -1.76555 0
M  V30 444 C 46.0761 -0.546707 -3.38919 0
M  V30 445 C 45.1621 -1.6317 -3.91454 0
M  V30 446 N 45.5531 -2.85985 -4.17189 0
M  V30 447 C 43.8511 -1.50387 -4.19881 0
M  V30 448 C 44.5521 -3.56159 -4.59919 0
M  V30 449 N 43.5281 -2.83637 -4.63736 0
M  V30 450 H 47.3301 -1.89769 -2.24421 0
M  V30 451 H 44.8441 -1.12343 -1.17273 0
M  V30 452 H 46.8411 -0.34119 -4.15502 0
M  V30 453 H 45.5011 0.379254 -3.22478 0
M  V30 454 H 46.5121 -3.22392 -4.05319 0
M  V30 455 H 43.1891 -0.644254 -4.12499 0
M  V30 456 H 44.5791 -4.6139 -4.88435 0
M  V30 457 N 47.2992 1.18797 -1.03562 0
M  V30 458 C 48.2092 2.25913 -0.632505 0
M  V30 459 C 49.2252 1.70668 0.338882 0
M  V30 460 O 50.4012 2.00453 0.195076 0
M  V30 461 C 47.4662 3.467 0.00350942 0
M  V30 462 C 46.5272 4.17098 -1.01624 0
M  V30 463 C 45.7602 5.32119 -0.410478 0
M  V30 464 O 45.9832 5.64976 0.784725 0
M  V30 465 O 44.9172 5.9107 -1.13667 0
M  V30 466 H 48.7432 2.62648 -1.52478 0
M  V30 467 H 46.3282 1.25781 -0.806195 0
M  V30 468 H 48.2102 4.19878 0.35781 0
M  V30 469 H 46.8852 3.11798 0.869686 0
M  V30 470 H 45.7922 3.4601 -1.42224 0
M  V30 471 H 47.1252 4.55987 -1.85301 0
M  V30 472 N 48.7773 0.814389 1.34928 0
M  V30 473 C 49.7403 0.235759 2.27984 0
M  V30 474 C 50.7403 -0.581412 1.49921 0
M  V30 475 O 51.9303 -0.398758 1.69575 0
M  V30 476 C 49.0623 -0.670433 3.34242 0
M  V30 477 H 50.2553 1.05659 2.80671 0
M  V30 478 H 47.8083 0.585614 1.44915 0
M  V30 479 H 48.5433 -1.51466 2.86755 0
M  V30 480 H 48.3283 -0.0860822 3.92005 0
M  V30 481 H 49.8183 -1.06935 4.03676 0
M  V30 482 N 50.2554 -1.46986 0.568584 0
M  V30 483 C 51.1874 -2.28233 -0.210337 0
M  V30 484 C 52.2004 -1.37682 -0.868767 0
M  V30 485 O 53.3894 -1.62406 -0.740705 0
M  V30 486 C 50.4894 -3.12293 -1.3163 0
M  V30 487 C 49.6624 -4.30878 -0.7525 0
M  V30 488 C 48.7214 -4.96445 -1.74439 0
M  V30 489 O 47.7474 -5.54482 -1.286 0
M  V30 490 N 48.9494 -4.92171 -3.07812 0
M  V30 491 H 51.7144 -2.95723 0.486648 0
M  V30 492 H 49.2754 -1.56742 0.405409 0
M  V30 493 H 51.2674 -3.53022 -1.97883 0
M  V30 494 H 49.8374 -2.46971 -1.91636 0
M  V30 495 H 49.0574 -3.94104 0.0871128 0
M  V30 496 H 50.3454 -5.07558 -0.35536 0
M  V30 497 H 49.7434 -4.46239 -3.47688 0
M  V30 498 H 48.3004 -5.36884 -3.69592 0
M  V30 499 N 51.7335 -0.305618 -1.54608 0
M  V30 500 C 53.1445 0.186098 -1.8577 0
M  V30 501 C 53.4955 1.53058 -1.22751 0
M  V30 502 O 52.6205 2.09888 -0.526893 0
M  V30 503 C 53.2155 0.344449 -3.37044 0
M  V30 504 C 51.7745 0.780384 -3.68221 0
M  V30 505 C 50.9215 -0.108554 -2.77087 0
M  V30 506 H 53.8725 -0.526485 -1.49712 0
M  V30 507 H 53.8935 1.17828 -3.61796 0
M  V30 508 H 53.4055 -0.634235 -3.82883 0
M  V30 509 H 51.5065 1.76945 -3.27904 0
M  V30 510 H 51.6195 0.596572 -4.75371 0
M  V30 511 H 49.9835 0.412931 -2.5133 0
M  V30 512 H 50.7665 -1.08368 -3.25747 0
M  V30 513 N 53.2116 1.57565 -0.0334293 0
M  V30 514 C 54.1616 2.06978 0.956237 0
M  V30 515 C 55.1456 0.971193 1.28283 0
M  V30 516 O 56.3376 1.23471 1.26822 0
M  V30 517 C 53.4666 2.60393 2.23719 0
M  V30 518 C 52.5526 3.7719 1.93877 0
M  V30 519 N 52.9436 4.87639 1.34321 0
M  V30 520 C 51.2416 3.85758 2.23845 0
M  V30 521 C 51.9426 5.68825 1.21709 0
M  V30 522 N 50.9186 5.1587 1.71404 0
M  V30 523 H 54.7206 2.89773 0.490815 0
M  V30 524 H 52.2346 1.61492 0.171478 0
M  V30 525 H 54.2316 2.94088 2.95496 0
M  V30 526 H 52.8916 1.79031 2.70884 0
M  V30 527 H 53.9026 5.07803 1.01767 0
M  V30 528 H 50.5796 3.1531 2.73653 0
M  V30 529 H 51.9696 6.67631 0.75621 0
M  V30 530 N 54.6897 -0.239769 1.55765 0
M  V30 531 C 55.9147 -0.988373 1.82335 0
M  V30 532 C 56.3397 -1.77886 0.611421 0
M  V30 533 O 55.6977 -1.75889 -0.439639 0
M  V30 534 C 55.7457 -1.89627 3.06715 0
M  V30 535 O 54.8497 -2.98904 2.84131 0
M  V30 536 H 54.1907 -0.280858 0.601677 0
M  V30 537 H 56.7207 -0.258597 2.02959 0
M  V30 538 H 56.7307 -2.30957 3.36338 0
M  V30 539 H 55.4057 -1.31511 3.9456 0
M  V30 540 H 53.9827 -2.61651 2.65694 0
M  V30 541 N 56.1678 -1.49265 -0.50573 0
M  V30 542 C 57.5838 -1.35923 -0.836486 0
M  V30 543 C 57.7838 -0.388704 -1.97715 0
M  V30 544 O 56.8398 0.181336 -2.51848 0
M  V30 545 C 58.1528 -2.76531 -1.18115 0
M  V30 546 C 59.7008 -2.85197 -1.28964 0
M  V30 547 C 60.1758 -4.26561 -1.66761 0
M  V30 548 N 61.6668 -4.2935 -1.73819 0
M  V30 549 C 62.4018 -5.35693 -2.045 0
M  V30 550 N 61.8978 -6.52287 -2.33438 0
M  V30 551 N 63.6908 -5.23105 -2.05711 0
M  V30 552 H 55.8418 -2.10965 0.246519 0
M  V30 553 H 58.1048 -0.9468 0.0476887 0
M  V30 554 H 57.8108 -3.49226 -0.416398 0
M  V30 555 H 57.6848 -3.11599 -2.1257 0
M  V30 556 H 60.0718 -2.12742 -2.04511 0
M  V30 557 H 60.1528 -2.53718 -0.325704 0
M  V30 558 H 59.7968 -4.99541 -0.917656 0
M  V30 559 H 59.7268 -4.55502 -2.64246 0
M  V30 560 H 62.2178 -3.4526 -1.53635 0
M  V30 561 H 62.5308 -7.29158 -2.56024 0
M  V30 562 H 60.8758 -6.55521 -2.30905 0
M  V30 563 H 64.0668 -4.31026 -1.82577 0
M  V30 564 H 64.2398 -6.06078 -2.29289 0
M  V30 565 N 57.6459 0.756429 -1.3826 0
M  V30 566 C 59.0569 1.33359 -1.30661 0
M  V30 567 C 59.4079 1.96161 0.0388875 0
M  V30 568 O 58.5329 1.94874 0.940918 0
M  V30 569 C 59.1279 2.42477 -2.36622 0
M  V30 570 C 57.6869 2.95922 -2.3261 0
M  V30 571 C 56.8339 1.69275 -2.19639 0
M  V30 572 H 59.7849 0.55552 -1.4866 0
M  V30 573 H 59.8059 3.22345 -2.02174 0
M  V30 574 H 59.3179 1.96739 -3.34538 0
M  V30 575 H 57.4189 3.45996 -1.38267 0
M  V30 576 H 57.5319 3.50494 -3.26636 0
M  V30 577 H 55.8959 1.92793 -1.66442 0
M  V30 578 H 56.6789 1.25619 -3.19491 0
M  V30 579 N 59.124 1.23083 0.984299 0
M  V30 580 C 60.354 1.08556 1.75781 0
M  V30 581 C 60.762 -0.366171 1.85623 0
M  V30 582 O 60.105 -1.26524 1.33182 0
M  V30 583 C 60.167 1.63208 3.20318 0
M  V30 584 C 59.831 3.11922 3.33997 0
M  V30 585 C 60.828 4.09259 3.2063 0
M  V30 586 C 58.513 3.51552 3.58771 0
M  V30 587 C 60.507 5.4421 3.31835 0
M  V30 588 C 58.194 4.86649 3.69616 0
M  V30 589 C 59.192 5.82787 3.56157 0
M  V30 590 O 58.88 7.15431 3.66626 0
M  V30 591 H 58.612 0.380713 0.5586 0
M  V30 592 H 61.166 1.63321 1.2456 0
M  V30 593 H 59.396 1.0286 3.72769 0
M  V30 594 H 61.085 1.44216 3.79416 0
M  V30 595 H 61.851 3.79984 3.01392 0
M  V30 596 H 57.73 2.77239 3.6832 0
M  V30 597 H 61.274 6.1923 3.21247 0
M  V30 598 H 57.171 5.15601 3.88363 0
M  V30 599 H 57.939 7.23127 3.83445 0
M  V30 600 N 60.6021 -1.18246 1.0419 0
M  V30 601 C 61.5351 -2.20746 0.578474 0
M  V30 602 C 62.5131 -1.57912 -0.387624 0
M  V30 603 O 63.6971 -1.86071 -0.301634 0
M  V30 604 C 60.8241 -3.38346 -0.154762 0
M  V30 605 C 59.8701 -4.19587 0.764782 0
M  V30 606 S 60.7031 -4.86014 2.24835 0
M  V30 607 C 61.8591 -6.07012 1.526 0
M  V30 608 H 62.0921 -2.59715 1.44691 0
M  V30 609 H 59.6251 -1.287 0.85297 0
M  V30 610 H 61.5831 -4.065 -0.571641 0
M  V30 611 H 60.2441 -2.97786 -0.999105 0
M  V30 612 H 59.4371 -5.03611 0.197976 0
M  V30 613 H 59.0391 -3.56818 1.12057 0
M  V30 614 H 61.3311 -6.72523 0.819733 0
M  V30 615 H 62.2741 -6.68202 2.34333 0
M  V30 616 H 62.6821 -5.55249 1.01779 0
M  V30 617 N 62.0802 -0.821533 -1.34494 0
M  V30 618 C 63.0432 -0.247847 -2.27856 0
M  V30 619 C 64.0432 0.573453 -1.50227 0
M  V30 620 O 65.2332 0.389759 -1.69784 0
M  V30 621 C 62.3652 0.652698 -3.34593 0
M  V30 622 H 63.5582 -1.07146 -2.80107 0
M  V30 623 H 61.1112 -0.593291 -1.44602 0
M  V30 624 H 61.8462 1.49943 -2.87555 0
M  V30 625 H 61.6312 0.065292 -3.92046 0
M  V30 626 H 63.1212 1.04793 -4.04238 0
M  V30 627 N 63.5583 1.46682 -0.576371 0
M  V30 628 C 64.7833 2.07304 -0.0630475 0
M  V30 629 C 65.2083 1.42329 1.2298 0
M  V30 630 O 64.5663 0.504865 1.74129 0
M  V30 631 C 64.6143 3.60472 0.095895 0
M  V30 632 O 63.7183 3.95927 1.15394 0
M  V30 633 H 63.0593 0.661288 -0.0599463 0
M  V30 634 H 65.5893 1.88417 -0.797511 0
M  V30 635 H 65.5993 4.06865 0.304071 0
M  V30 636 H 64.2743 4.07157 -0.84828 0
M  V30 637 H 62.8513 3.61252 0.924724 0
M  V30 638 N 65.0364 0.313813 1.54444 0
M  V30 639 C 65.9664 -0.549454 2.26943 0
M  V30 640 C 66.9474 -1.12741 1.27372 0
M  V30 641 O 68.1324 -1.15436 1.56167 0
M  V30 642 C 65.2624 -1.71523 3.01989 0
M  V30 643 C 64.2164 -1.26703 4.08816 0
M  V30 644 C 63.5424 -2.51898 4.71647 0
M  V30 645 C 64.8424 -0.388962 5.2085 0
M  V30 646 H 66.5364 0.0552661 2.99349 0
M  V30 647 H 64.0824 0.0280207 1.43973 0
M  V30 648 H 66.0354 -2.32535 3.51433 0
M  V30 649 H 64.7594 -2.34639 2.27183 0
M  V30 650 H 63.4184 -0.679896 3.6024 0
M  V30 651 H 63.0664 -3.13356 3.93468 0
M  V30 652 H 62.7664 -2.22605 5.43802 0
M  V30 653 H 64.2904 -3.1369 5.23861 0
M  V30 654 H 65.7044 -0.905107 5.6611 0
M  V30 655 H 64.1014 -0.18924 5.99802 0
M  V30 656 H 65.1714 0.582699 4.81386 0
M  V30 657 N 66.5145 -1.57545 0.0417849 0
M  V30 658 C 67.4465 -2.07904 -0.964799 0
M  V30 659 C 68.4595 -1.00497 -1.28079 0
M  V30 660 O 69.6485 -1.28087 -1.24322 0
M  V30 661 C 66.7485 -2.49928 -2.28887 0
M  V30 662 C 65.9215 -3.80562 -2.15619 0
M  V30 663 C 64.9805 -4.08999 -3.31069 0
M  V30 664 O 64.0065 -4.79061 -3.0739 0
M  V30 665 N 65.2085 -3.6017 -4.55256 0
M  V30 666 H 67.9735 -2.94886 -0.535029 0
M  V30 667 H 65.5345 -1.61252 -0.144681 0
M  V30 668 H 67.5265 -2.66034 -3.04972 0
M  V30 669 H 66.0965 -1.68245 -2.63463 0
M  V30 670 H 65.3165 -3.74129 -1.24183 0
M  V30 671 H 66.6045 -4.66126 -2.03971 0
M  V30 672 H 66.0025 -3.03512 -4.77386 0
M  V30 673 H 64.5595 -3.81532 -5.28466 0
M  V30 674 N 67.9926 0.231505 -1.5589 0
M  V30 675 C 68.9256 1.31369 -1.86595 0
M  V30 676 C 69.9036 1.45671 -0.722397 0
M  V30 677 O 71.0876 1.61642 -0.969743 0
M  V30 678 C 68.2146 2.68529 -2.06421 0
M  V30 679 C 67.2606 2.71295 -3.29092 0
M  V30 680 S 68.0936 2.26358 -4.85306 0
M  V30 681 C 69.2496 3.65414 -5.08157 0
M  V30 682 H 69.4826 1.05128 -2.78092 0
M  V30 683 H 67.0156 0.433259 -1.48197 0
M  V30 684 H 68.9736 3.47499 -2.18528 0
M  V30 685 H 67.6346 2.91999 -1.15738 0
M  V30 686 H 66.8276 3.72063 -3.39978 0
M  V30 687 H 66.4296 2.0038 -3.15791 0
M  V30 688 H 68.7216 4.6103 -4.96445 0
M  V30 689 H 69.6646 3.5945 -6.10083 0
M  V30 690 H 70.0726 3.5864 -4.35933 0
M  V30 691 N 69.4707 1.49531 0.497807 0
M  V30 692 C 70.8867 1.36365 0.829266 0
M  V30 693 C 71.0867 0.399184 1.97506 0
M  V30 694 O 70.1427 -0.167977 2.51941 0
M  V30 695 C 71.4557 2.77153 1.16647 0
M  V30 696 C 73.0037 2.85877 1.27449 0
M  V30 697 C 73.4787 4.2744 1.64497 0
M  V30 698 N 74.9697 4.30265 1.7154 0
M  V30 699 C 75.7047 5.3677 2.01656 0
M  V30 700 N 75.2007 6.53516 2.29976 0
M  V30 701 N 76.9937 5.24189 2.02934 0
M  V30 702 H 69.1447 2.10831 -0.257703 0
M  V30 703 H 71.4077 0.946534 -0.0527091 0
M  V30 704 H 71.1137 3.49442 0.397872 0
M  V30 705 H 70.9877 3.12722 2.10915 0
M  V30 706 H 73.3747 2.13824 2.0338 0
M  V30 707 H 73.4557 2.53887 0.312244 0
M  V30 708 H 73.0997 5.00021 0.891151 0
M  V30 709 H 73.0297 4.56896 2.61827 0
M  V30 710 H 75.5207 3.4607 1.51802 0
M  V30 711 H 75.8337 7.30506 2.52153 0
M  V30 712 H 74.1787 6.56737 2.27425 0
M  V30 713 H 77.3697 4.31988 1.80289 0
M  V30 714 H 77.5427 6.07286 2.26071 0
M  V30 715 N 70.9488 -0.749086 1.3866 0
M  V30 716 C 72.1968 -1.50535 1.34847 0
M  V30 717 C 72.5178 -1.94909 -0.0595016 0
M  V30 718 O 71.7878 -1.67973 -1.00806 0
M  V30 719 H 70.3678 -0.558395 0.49619 0
M  V30 720 H 73.0298 -0.890165 1.73384 0
M  V30 721 H 72.1258 -2.39413 2.00219 0
M  V30 722 N 72.4269 -1.23603 -0.977757 0
M  V30 723 C 73.3749 -1.01704 -2.09187 0
M  V30 724 C 74.3689 0.0448214 -1.69341 0
M  V30 725 O 75.5749 -0.108902 -1.7967 0
M  V30 726 H 71.9499 -0.311803 -0.684312 0
M  V30 727 H 73.9209 -1.96207 -2.24823 0
M  V30 728 C 72.6699 -0.627746 -3.41986 0
M  V30 729 H 71.9929 -1.43656 -3.73099 0
M  V30 730 H 73.4329 -0.514053 -4.20872 0
M  V30 731 C 71.8919 0.664238 -3.30287 0
M  V30 732 O 72.4219 1.71268 -3.6336 0
M  V30 733 N 70.6279 0.641156 -2.83439 0
M  V30 734 H 70.1749 -0.212376 -2.56723 0
M  V30 735 H 70.1329 1.50583 -2.75993 0
M  V30 736 N 73.905 1.17692 -1.04816 0
M  V30 737 C 75.316 1.69501 -0.782698 0
M  V30 738 C 75.667 1.83456 0.695577 0
M  V30 739 O 74.792 1.51942 1.54086 0
M  V30 740 C 75.387 3.07874 -1.41419 0
M  V30 741 C 73.946 3.56864 -1.19686 0
M  V30 742 C 73.093 2.3322 -1.50012 0
M  V30 743 H 76.044 1.02262 -1.2136 0
M  V30 744 H 76.065 3.71528 -0.821428 0
M  V30 745 H 75.577 2.97685 -2.49009 0
M  V30 746 H 73.678 3.72337 -0.140043 0
M  V30 747 H 73.791 4.39851 -1.89916 0
M  V30 748 H 72.155 2.37501 -0.920071 0
M  V30 749 H 72.938 2.25644 -2.58727 0
M  V30 750 N 75.3831 0.828654 1.34056 0
M  V30 751 C 76.6311 0.41863 1.97717 0
M  V30 752 C 76.9521 -1.02314 1.66002 0
M  V30 753 O 76.2221 -1.71119 0.953683 0
M  V30 754 H 74.8021 0.151809 0.731412 0
M  V30 755 H 77.4641 1.05936 1.63596 0
M  V30 756 H 76.5601 0.542318 3.07352 0
M  V30 757 N 76.8612 -1.46375 0.584142 0
M  V30 758 C 78.0862 -2.07268 0.0740405 0
M  V30 759 C 78.5112 -1.42979 -1.22223 0
M  V30 760 O 77.8692 -0.514092 -1.73859 0
M  V30 761 C 77.9172 -3.60518 -0.0767769 0
M  V30 762 O 77.0212 -3.96533 -1.13292 0
M  V30 763 H 76.3622 -0.660961 0.0634524 0
M  V30 764 H 78.8922 -1.87991 0.807492 0
M  V30 765 H 78.9022 -4.07021 -0.282489 0
M  V30 766 H 77.5772 -4.06702 0.86986 0
M  V30 767 H 76.1542 -3.61738 -0.905553 0
M  V30 768 N 78.3393 -0.321999 -1.54275 0
M  V30 769 C 79.2893 0.560185 -2.21011 0
M  V30 770 C 80.2733 1.08283 -1.19011 0
M  V30 771 O 81.4653 1.02011 -1.44647 0
M  V30 772 C 78.5943 1.72137 -2.97025 0
M  V30 773 C 77.6803 1.21369 -4.06363 0
M  V30 774 N 78.0713 0.425566 -5.04007 0
M  V30 775 C 76.3693 1.49255 -4.20284 0
M  V30 776 C 77.0703 0.152601 -5.815 0
M  V30 777 N 76.0463 0.738294 -5.38563 0
M  V30 778 H 79.8483 -0.049265 -2.93859 0
M  V30 779 H 77.3623 -0.127779 -1.61897 0
M  V30 780 H 79.3593 2.36512 -3.43319 0
M  V30 781 H 78.0193 2.33431 -2.25699 0
M  V30 782 H 79.0303 0.068551 -5.17855 0
M  V30 783 H 75.7073 2.11145 -3.60172 0
M  V30 784 H 77.0973 -0.481764 -6.70171 0
M  V30 785 N 79.8174 1.5752 -0.0501392 0
M  V30 786 C 81.0644 1.9265 0.623874 0
M  V30 787 C 81.3924 0.928411 1.70912 0
M  V30 788 O 80.6474 -0.0594525 1.9561 0
M  V30 789 C 80.9464 3.34467 1.25963 0
M  V30 790 C 80.6124 4.49883 0.302689 0
M  V30 791 C 79.2744 4.81184 0.0393636 0
M  V30 792 C 81.6264 5.20002 -0.353205 0
M  V30 793 C 78.9544 5.79951 -0.887308 0
M  V30 794 C 81.3064 6.1976 -1.26806 0
M  V30 795 C 79.9704 6.49491 -1.54007 0
M  V30 796 H 79.2404 0.704957 0.228292 0
M  V30 797 H 81.8874 1.91146 -0.116398 0
M  V30 798 H 80.1924 3.32333 2.07514 0
M  V30 799 H 81.8894 3.58928 1.78806 0
M  V30 800 H 78.4794 4.25457 0.518109 0
M  V30 801 H 82.6634 4.96033 -0.162854 0
M  V30 802 H 77.9194 6.01322 -1.10553 0
M  V30 803 H 82.0934 6.73205 -1.78236 0
M  V30 804 H 79.7204 7.25837 -2.25976 0
M  V30 805 N 81.2955 -0.223234 1.56011 0
M  V30 806 C 82.5355 -0.954962 1.8072 0
M  V30 807 C 82.8995 -1.81598 0.623384 0
M  V30 808 O 84.1005 -2.58132 0.749745 0
M  V30 809 C 82.3715 -1.77313 3.10314 0
M  V30 810 S 83.9305 -2.56073 3.56332 0
M  V30 811 H 80.7485 -0.320812 0.634508 0
M  V30 812 H 83.3505 -0.220686 1.9425 0
M  V30 813 H 82.0545 -1.13071 3.94516 0
M  V30 814 H 81.5855 -2.54974 2.99586 0
M  V30 815 H 83.6005 -3.79619 3.19536 0
M  V30 816 N 82.7736 -1.49793 -0.48987 0
M  V30 817 C 84.0216 -1.59525 -1.24081 0
M  V30 818 C 84.3426 -0.288953 -1.92847 0
M  V30 819 O 83.6126 0.692436 -1.83254 0
M  V30 820 H 82.1926 -0.587796 -0.460983 0
M  V30 821 H 84.8546 -1.86477 -0.566778 0
M  V30 822 H 83.9506 -2.39696 -1.99881 0
M  V30 823 N 84.2517 0.741722 -1.39055 0
M  V30 824 C 85.4997 1.49818 -1.35643 0
M  V30 825 C 85.8207 1.94938 0.0491642 0
M  V30 826 O 85.0907 1.68505 0.999141 0
M  V30 827 H 83.6707 0.555755 -0.499144 0
M  V30 828 H 86.3327 0.880957 -1.73854 0
M  V30 829 H 85.4287 2.38348 -2.01486 0
M  V30 830 N 85.7298 1.2412 0.971189 0
M  V30 831 C 86.9578 1.10575 1.74874 0
M  V30 832 C 87.3728 -0.342017 1.85676 0
M  V30 833 O 86.7298 -1.23617 1.34258 0
M  V30 834 C 86.7808 1.73579 3.171 0
M  V30 835 O 86.5018 3.12695 3.06844 0
M  V30 836 C 88.0028 1.65598 4.11208 0
M  V30 837 H 85.2228 0.386504 0.548503 0
M  V30 838 H 87.7668 1.64156 1.21955 0
M  V30 839 H 85.9218 1.24009 3.67016 0
M  V30 840 H 86.3358 3.43412 3.96445 0
M  V30 841 H 87.8098 2.1437 5.08674 0
M  V30 842 H 88.2868 0.616532 4.34851 0
M  V30 843 H 88.8928 2.14578 3.67201 0
M  V30 844 N 87.2079 -1.17134 1.05439 0
M  V30 845 C 88.1379 -2.2342 0.678649 0
M  V30 846 C 89.1189 -1.66971 -0.32476 0
M  V30 847 O 90.3039 -1.93149 -0.201802 0
M  V30 848 C 87.4339 -3.47256 0.0552099 0
M  V30 849 C 86.3879 -4.16543 0.98365 0
M  V30 850 C 85.7139 -5.34231 0.223961 0
M  V30 851 C 87.0139 -4.68495 2.3089 0
M  V30 852 H 88.7079 -2.55105 1.56722 0
M  V30 853 H 86.2539 -1.2262 0.754998 0
M  V30 854 H 88.2069 -4.20828 -0.21946 0
M  V30 855 H 86.9309 -3.14846 -0.868319 0
M  V30 856 H 85.5899 -3.44887 1.24293 0
M  V30 857 H 85.2379 -4.98071 -0.702412 0
M  V30 858 H 84.9379 -5.81527 0.842627 0
M  V30 859 H 86.4619 -6.10585 -0.0433671 0
M  V30 860 H 87.8759 -5.33691 2.09396 0
M  V30 861 H 86.2729 -5.26379 2.88176 0
M  V30 862 H 87.3429 -3.85169 2.94572 0
M  V30 863 N 88.686 -0.835752 -1.33615 0
M  V30 864 C 89.935 -0.426289 -1.97144 0
M  V30 865 C 90.248 1.01912 -1.66953 0
M  V30 866 O 91.454 1.53311 -2.24072 0
M  V30 867 C 89.91 -0.711321 -3.52801 0
M  V30 868 C 89.518 -2.1712 -3.91871 0
M  V30 869 C 91.262 -0.368654 -4.22896 0
M  V30 870 C 89.169 -2.40044 -5.40493 0
M  V30 871 H 88.099 -0.15567 -0.737755 0
M  V30 872 H 90.75 -1.0239 -1.52278 0
M  V30 873 H 89.132 -0.0433766 -3.95976 0
M  V30 874 H 90.306 -2.87936 -3.59763 0
M  V30 875 H 88.621 -2.47654 -3.34749 0
M  V30 876 H 91.218 -0.517601 -5.32189 0
M  V30 877 H 91.561 0.688078 -4.10574 0
M  V30 878 H 92.094 -0.991702 -3.8524 0
M  V30 879 H 88.833 -3.44271 -5.57815 0
M  V30 880 H 88.353 -1.73785 -5.74072 0
M  V30 881 H 90.032 -2.23042 -6.0734 0
M  V30 882 N 90.1641 1.46063 -0.591896 0
M  V30 883 C 91.1141 2.27458 0.157172 0
M  V30 884 C 92.0981 1.3641 0.853301 0
M  V30 885 O 93.2901 1.60517 0.74588 0
M  V30 886 C 90.4191 3.22956 1.16423 0
M  V30 887 C 89.5051 4.2149 0.469742 0
M  V30 888 N 89.8961 5.03519 -0.479839 0
M  V30 889 C 88.1941 4.40161 0.719319 0
M  V30 890 C 88.8951 5.74904 -0.886591 0
M  V30 891 N 87.8711 5.43097 -0.233731 0
M  V30 892 H 91.6731 2.88272 -0.572392 0
M  V30 893 H 89.1871 1.57024 -0.414375 0
M  V30 894 H 91.1841 3.79986 1.71513 0
M  V30 895 H 89.8441 2.63701 1.89451 0
M  V30 896 H 90.8551 5.1078 -0.855823 0
M  V30 897 H 87.5321 3.92046 1.43548 0
M  V30 898 H 88.9221 6.50844 -1.66888 0
M  V30 899 N 91.6422 0.330177 1.54103 0
M  V30 900 C 93.0532 -0.15652 1.86043 0
M  V30 901 C 93.4042 -1.51086 1.2517 0
M  V30 902 O 92.5292 -2.09023 0.560217 0
M  V30 903 C 93.1242 -0.290784 3.3755 0
M  V30 904 C 91.6832 -0.721705 3.69416 0
M  V30 905 C 90.8302 0.152622 2.7688 0
M  V30 906 H 93.7812 0.550237 1.48856 0
M  V30 907 H 93.8022 -1.12058 3.63625 0
M  V30 908 H 93.3142 0.695068 3.81825 0
M  V30 909 H 91.4152 -1.71706 3.30678 0
M  V30 910 H 91.5282 -0.520869 4.7626 0
M  V30 911 H 89.8922 -0.372894 2.51956 0
M  V30 912 H 90.6752 1.13536 3.23982 0
M  V30 913 N 93.1203 -1.57491 0.0584922 0
M  V30 914 C 94.3453 -1.97711 -0.62652 0
M  V30 915 C 94.7703 -0.936132 -1.63151 0
M  V30 916 O 94.1283 0.099811 -1.81025 0
M  V30 917 C 94.1763 -3.36989 -1.28338 0
M  V30 918 O 93.2803 -3.35433 -2.39913 0
M  V30 919 H 92.6213 -0.643868 -0.162266 0
M  V30 920 H 95.1513 -2.04193 0.129064 0
M  V30 921 H 95.1613 -3.73879 -1.63335 0
M  V30 922 H 93.8363 -4.12289 -0.546889 0
M  V30 923 H 92.4133 -3.10298 -2.06809 0
M  V30 924 N 94.5984 0.214957 -1.56127 0
M  V30 925 C 95.8454 0.938372 -1.79446 0
M  V30 926 C 96.1734 1.8407 -0.628378 0
M  V30 927 O 95.4284 1.91837 0.386925 0
M  V30 928 C 95.7274 1.80314 -3.0858 0
M  V30 929 C 95.3934 1.05349 -4.3842 0
M  V30 930 C 94.0554 0.846435 -4.73697 0
M  V30 931 C 96.4074 0.524588 -5.18553 0
M  V30 932 C 93.7354 0.098683 -5.86617 0
M  V30 933 C 96.0874 -0.209853 -6.32252 0
M  V30 934 C 94.7514 -0.428102 -6.66126 0
M  V30 935 H 94.0214 0.343375 -0.656639 0
M  V30 936 H 96.6684 0.206077 -1.90388 0
M  V30 937 H 94.9734 2.6035 -2.92789 0
M  V30 938 H 96.6704 2.36513 -3.23825 0
M  V30 939 H 93.2604 1.22486 -4.10725 0
M  V30 940 H 97.4444 0.672008 -4.91729 0
M  V30 941 H 92.7004 -0.0805753 -6.11347 0
M  V30 942 H 96.8744 -0.627157 -6.9357 0
M  V30 943 H 94.5014 -1.00944 -7.53468 0
M  V30 944 N 96.0765 1.50051 0.48192 0
M  V30 945 C 97.3225 1.60736 1.2366 0
M  V30 946 C 97.6555 0.301786 1.91841 0
M  V30 947 O 96.9305 -0.696025 1.8162 0
M  V30 948 C 97.2135 2.78009 2.28874 0
M  V30 949 C 97.0665 4.18416 1.65069 0
M  V30 950 C 98.3855 2.90867 3.30279 0
M  V30 951 H 95.5045 0.585031 0.448228 0
M  V30 952 H 98.1465 1.82402 0.531946 0
M  V30 953 H 96.2965 2.59667 2.88973 0
M  V30 954 H 97.9685 4.48322 1.0865 0
M  V30 955 H 96.2115 4.23177 0.954148 0
M  V30 956 H 96.8825 4.96381 2.41474 0
M  V30 957 H 99.3585 3.07623 2.80191 0
M  V30 958 H 98.2345 3.74566 4.01238 0
M  V30 959 H 98.4955 2.01021 3.93755 0
M  V30 960 N 97.5546 -0.734337 1.39446 0
M  V30 961 C 98.4846 -1.86155 1.40955 0
M  V30 962 C 99.4656 -1.67898 0.272827 0
M  V30 963 O 100.651 -1.88207 0.478743 0
M  V30 964 C 97.7806 -3.23912 1.25294 0
M  V30 965 C 96.7346 -3.56808 2.36373 0
M  V30 966 C 96.0606 -4.93508 2.058 0
M  V30 967 C 97.3606 -3.59713 3.78687 0
M  V30 968 H 99.0546 -1.8515 2.35287 0
M  V30 969 H 96.6006 -0.889367 1.13253 0
M  V30 970 H 98.5536 -4.02443 1.2497 0
M  V30 971 H 97.2776 -3.25446 0.274308 0
M  V30 972 H 95.9366 -2.80606 2.35914 0
M  V30 973 H 95.5846 -4.91623 1.06374 0
M  V30 974 H 95.2846 -5.16486 2.80208 0
M  V30 975 H 96.8086 -5.74396 2.07128 0
M  V30 976 H 98.2226 -4.2832 3.81071 0
M  V30 977 H 96.6196 -3.94209 4.52459 0
M  V30 978 H 97.6896 -2.59504 4.09617 0
M  V30 979 N 99.0327 -1.24633 -0.964593 0
M  V30 980 C 100.261 -1.11501 -1.74285 0
M  V30 981 C 100.676 0.332165 -1.85855 0
M  V30 982 O 100.033 1.22903 -1.34911 0
M  V30 983 C 100.084 -1.75258 -3.16175 0
M  V30 984 O 99.8047 -3.14318 -3.05182 0
M  V30 985 C 101.306 -1.67776 -4.10324 0
M  V30 986 H 98.5257 -0.389407 -0.546446 0
M  V30 987 H 101.07 -1.64801 -1.21083 0
M  V30 988 H 99.2247 -1.25954 -3.66353 0
M  V30 989 H 99.6387 -3.4551 -3.94618 0
M  V30 990 H 101.113 -2.17064 -5.0753 0
M  V30 991 H 101.59 -0.639584 -4.34518 0
M  V30 992 H 102.196 -2.16522 -3.66058 0
M  V30 993 N 100.511 1.16574 -1.06058 0
M  V30 994 C 101.474 2.19085 -0.673392 0
M  V30 995 C 102.474 1.5835 0.279648 0
M  V30 996 O 103.664 1.74088 0.0623488 0
M  V30 997 C 100.796 3.40899 0.00954234 0
M  V30 998 H 101.989 2.54853 -1.58081 0
M  V30 999 H 99.5418 1.30808 -0.855516 0
M  V30 1000 H 100.277 3.10684 0.929826 0
M  V30 1001 H 100.062 3.86233 -0.67573 0
M  V30 1002 H 101.552 4.1675 0.266245 0
M  V30 1003 N 101.989 0.842826 1.3317 0
M  V30 1004 C 102.952 0.284065 2.27433 0
M  V30 1005 C 103.952 -0.54948 1.5112 0
M  V30 1006 O 105.142 -0.362699 1.70382 0
M  V30 1007 C 102.274 -0.599384 3.35589 0
M  V30 1008 H 103.467 1.11589 2.78366 0
M  V30 1009 H 101.02 0.616221 1.4364 0
M  V30 1010 H 101.755 -1.45349 2.89904 0
M  V30 1011 H 101.54 -0.00291266 3.921 0
M  V30 1012 H 103.03 -0.983488 4.05854 0
M  V30 1013 N 103.467 -1.45747 0.599634 0
M  V30 1014 C 104.417 -2.27538 -0.145107 0
M  V30 1015 C 105.401 -1.3686 -0.846055 0
M  V30 1016 O 106.593 -1.6091 -0.737357 0
M  V30 1017 C 103.722 -3.23569 -1.14708 0
M  V30 1018 C 102.808 -4.21734 -0.447383 0
M  V30 1019 N 103.199 -5.03257 0.506535 0
M  V30 1020 C 101.497 -4.40536 -0.695966 0
M  V30 1021 C 102.198 -5.74426 0.917068 0
M  V30 1022 N 101.174 -5.42966 0.26253 0
M  V30 1023 H 104.976 -2.87965 0.587672 0
M  V30 1024 H 102.49 -1.56803 0.422697 0
M  V30 1025 H 104.487 -3.8089 -1.69495 0
M  V30 1026 H 103.147 -2.64702 -1.8805 0
M  V30 1027 H 104.158 -5.10319 0.882899 0
M  V30 1028 H 100.835 -3.92802 -1.41467 0
M  V30 1029 H 102.225 -6.4995 1.70338 0
M  V30 1030 N 104.945 -0.338344 -1.53925 0
M  V30 1031 C 106.185 0.260168 -2.02737 0
M  V30 1032 C 106.549 1.48181 -1.22092 0
M  V30 1033 O 107.75 2.15416 -1.60777 0
M  V30 1034 C 106.021 0.571627 -3.52799 0
M  V30 1035 S 107.58 1.14769 -4.23525 0
M  V30 1036 H 104.398 0.077791 -0.706732 0
M  V30 1037 H 107 -0.474899 -1.89644 0
M  V30 1038 H 105.704 -0.325392 -4.09108 0
M  V30 1039 H 105.235 1.3365 -3.70002 0
M  V30 1040 H 107.25 2.43372 -4.32417 0
M  V30 1041 N 106.423 1.57458 -0.0668435 0
M  V30 1042 C 107.353 2.15468 0.899764 0
M  V30 1043 C 108.334 1.08042 1.31381 0
M  V30 1044 O 109.519 1.36054 1.38574 0
M  V30 1045 C 106.649 2.71232 2.16911 0
M  V30 1046 C 105.603 3.83781 1.89463 0
M  V30 1047 C 104.929 4.26127 3.22986 0
M  V30 1048 C 106.229 5.08238 1.20381 0
M  V30 1049 H 107.923 2.96488 0.416529 0
M  V30 1050 H 105.469 1.4262 0.198908 0
M  V30 1051 H 107.422 3.10458 2.84945 0
M  V30 1052 H 106.146 1.87426 2.67468 0
M  V30 1053 H 104.805 3.45051 1.23836 0
M  V30 1054 H 104.453 3.39249 3.71374 0
M  V30 1055 H 104.153 5.01993 3.05413 0
M  V30 1056 H 105.677 4.67966 3.92225 0
M  V30 1057 H 107.091 5.44811 1.78475 0
M  V30 1058 H 105.488 5.89349 1.13083 0
M  V30 1059 H 106.558 4.84558 0.182153 0
M  V30 1060 N 107.901 -0.206675 1.56239 0
M  V30 1061 C 109.317 -0.557025 1.49564 0
M  V30 1062 C 109.517 -1.86424 0.764735 0
M  V30 1063 O 108.573 -2.50584 0.310491 0
M  V30 1064 C 109.886 -0.622478 2.94186 0
M  V30 1065 C 111.434 -0.712099 3.04792 0
M  V30 1066 C 111.909 -0.808767 4.50803 0
M  V30 1067 N 113.4 -0.8726 4.54907 0
M  V30 1068 C 114.135 -0.967365 5.65181 0
M  V30 1069 N 113.631 -1.02515 6.85173 0
M  V30 1070 N 115.424 -1.00366 5.53067 0
M  V30 1071 H 107.575 0.650943 2.02179 0
M  V30 1072 H 109.838 0.230387 0.919579 0
M  V30 1073 H 109.544 0.268727 3.50672 0
M  V30 1074 H 109.418 -1.4811 3.46905 0
M  V30 1075 H 111.805 -1.59374 2.48363 0
M  V30 1076 H 111.886 0.172489 2.55218 0
M  V30 1077 H 111.53 0.0684754 5.07854 0
M  V30 1078 H 111.46 -1.70899 4.98098 0
M  V30 1079 H 113.951 -0.837657 3.68499 0
M  V30 1080 H 114.264 -1.09765 7.64965 0
M  V30 1081 H 112.609 -0.994026 6.87855 0
M  V30 1082 H 115.8 -0.95527 4.58249 0
M  V30 1083 H 115.973 -1.07405 6.39037 0
M  V30 1084 N 109.379 -1.50304 -0.473955 0
M  V30 1085 C 110.656 -1.51667 -1.23518 0
M  V30 1086 C 111.036 -0.259701 -2.09496 0
M  V30 1087 O 110.384 0.756986 -2.15597 0
M  V30 1088 C 110.594 -2.81082 -2.06868 0
M  V30 1089 C 111.942 -3.31631 -2.65153 0
M  V30 1090 O 112.966 -2.82384 -2.17113 0
M  V30 1091 O 111.825 -4.17471 -3.52675 0
M  V30 1092 H 108.919 -0.60822 -0.560355 0
M  V30 1093 H 111.465 -1.62592 -0.486011 0
M  V30 1094 H 110.237 -3.64041 -1.4349 0
M  V30 1095 H 109.86 -2.73146 -2.88924 0
M  V30 1096 N 110.857 0.726932 -1.39834 0
M  V30 1097 C 112.106 1.48214 -1.36805 0
M  V30 1098 C 112.419 1.95576 0.0305291 0
M  V30 1099 O 113.625 2.7088 0.183417 0
M  V30 1100 C 112.081 2.67854 -2.40379 0
M  V30 1101 C 111.689 2.27408 -3.85992 0
M  V30 1102 C 113.433 3.45641 -2.46439 0
M  V30 1103 C 111.34 3.43819 -4.81189 0
M  V30 1104 H 110.27 0.556606 -0.508631 0
M  V30 1105 H 112.921 0.792216 -1.65518 0
M  V30 1106 H 111.303 3.3896 -2.04749 0
M  V30 1107 H 112.477 1.63795 -4.30706 0
M  V30 1108 H 110.792 1.62692 -3.83302 0
M  V30 1109 H 113.389 4.32244 -3.14753 0
M  V30 1110 H 113.732 3.88669 -1.49139 0
M  V30 1111 H 114.265 2.8157 -2.81004 0
M  V30 1112 H 111.004 3.05834 -5.79781 0
M  V30 1113 H 110.524 4.06385 -4.41148 0
M  V30 1114 H 112.203 4.10043 -5.00474 0
M  V30 1115 N 112.336 1.25143 0.95797 0
M  V30 1116 C 113.747 1.08851 1.51685 0
M  V30 1117 C 114.098 -0.33687 1.93286 0
M  V30 1118 O 113.223 -1.22644 1.7829 0
M  V30 1119 C 113.818 1.96978 2.75654 0
M  V30 1120 C 112.377 1.84881 3.27866 0
M  V30 1121 C 111.524 1.91329 2.0072 0
M  V30 1122 H 114.475 1.38478 0.77522 0
M  V30 1123 H 114.496 1.5078 3.4935 0
M  V30 1124 H 114.008 3.00712 2.45345 0
M  V30 1125 H 112.109 0.840182 3.63004 0
M  V30 1126 H 112.222 2.6951 3.96107 0
M  V30 1127 H 110.586 1.35174 2.15871 0
M  V30 1128 H 111.369 2.96661 1.72764 0
M  V30 1129 N 113.814 -1.1601 1.06675 0
M  V30 1130 C 114.746 -2.20115 0.638921 0
M  V30 1131 C 115.759 -1.59916 -0.305057 0
M  V30 1132 O 116.948 -1.78245 -0.0954446 0
M  V30 1133 C 114.048 -3.38798 -0.0830083 0
M  V30 1134 C 113.221 -4.2855 0.875426 0
M  V30 1135 C 112.28 -5.25849 0.192042 0
M  V30 1136 O 111.306 -5.63102 0.830921 0
M  V30 1137 N 112.508 -5.70648 -1.06493 0
M  V30 1138 H 115.273 -2.57439 1.53444 0
M  V30 1139 H 112.834 -1.31057 0.950557 0
M  V30 1140 H 114.826 -4.00936 -0.550685 0
M  V30 1141 H 113.396 -2.99947 -0.880386 0
M  V30 1142 H 112.616 -3.63617 1.52238 0
M  V30 1143 H 113.904 -4.85393 1.52548 0
M  V30 1144 H 113.302 -5.42482 -1.60405 0
M  V30 1145 H 111.859 -6.34859 -1.47641 0
M  V30 1146 N 115.292 -0.849877 -1.32721 0
M  V30 1147 C 116.708 -0.539102 -1.50219 0
M  V30 1148 C 116.908 0.931271 -1.78689 0
M  V30 1149 O 115.964 1.71455 -1.85363 0
M  V30 1150 C 117.277 -1.42196 -2.64954 0
M  V30 1151 C 118.825 -1.42189 -2.78839 0
M  V30 1152 C 119.3 -2.28985 -3.96648 0
M  V30 1153 N 120.791 -2.26754 -4.03902 0
M  V30 1154 C 121.526 -2.90644 -4.94281 0
M  V30 1155 N 121.022 -3.63629 -5.897 0
M  V30 1156 N 122.815 -2.80057 -4.87365 0
M  V30 1157 H 114.966 -1.80156 -1.12506 0
M  V30 1158 H 117.229 -0.769217 -0.554085 0
M  V30 1159 H 116.935 -2.46733 -2.50631 0
M  V30 1160 H 116.809 -1.10591 -3.60624 0
M  V30 1161 H 119.196 -0.38419 -2.92588 0
M  V30 1162 H 119.277 -1.77807 -1.83898 0
M  V30 1163 H 118.921 -3.32819 -3.83658 0
M  V30 1164 H 118.851 -1.90702 -4.90857 0
M  V30 1165 H 121.342 -1.73688 -3.3562 0
M  V30 1166 H 121.655 -4.09558 -6.55349 0
M  V30 1167 H 120 -3.67737 -5.89741 0
M  V30 1168 H 123.191 -2.22593 -4.11789 0
M  V30 1169 H 123.364 -3.30132 -5.57599 0
M  V30 1170 N 116.77 1.45427 -0.607355 0
M  V30 1171 C 117.7 2.3329 0.0989352 0
M  V30 1172 C 118.681 1.46816 0.859007 0
M  V30 1173 O 119.866 1.75588 0.829604 0
M  V30 1174 C 116.996 3.29518 1.09705 0
M  V30 1175 C 115.95 4.25626 0.450206 0
M  V30 1176 C 115.276 5.11542 1.55655 0
M  V30 1177 C 116.576 5.18505 -0.628455 0
M  V30 1178 H 118.27 2.92595 -0.634716 0
M  V30 1179 H 115.816 1.40696 -0.306681 0
M  V30 1180 H 117.769 3.89855 1.59971 0
M  V30 1181 H 116.493 2.68372 1.86129 0
M  V30 1182 H 115.152 3.66586 -0.0315886 0
M  V30 1183 H 114.8 4.46765 2.31107 0
M  V30 1184 H 114.5 5.76647 1.12925 0
M  V30 1185 H 116.024 5.74748 2.06148 0
M  V30 1186 H 117.438 5.72916 -0.209877 0
M  V30 1187 H 115.835 5.92085 -0.977489 0
M  V30 1188 H 116.905 4.60948 -1.50514 0
M  V30 1189 N 118.248 0.346503 1.53744 0
M  V30 1190 C 119.494 -0.249473 2.0126 0
M  V30 1191 C 119.827 -1.49965 1.23386 0
M  V30 1192 O 119.102 -1.91811 0.32229 0
M  V30 1193 C 119.385 -0.560643 3.55709 0
M  V30 1194 C 119.238 0.701836 4.44291 0
M  V30 1195 C 120.557 -1.36905 4.18264 0
M  V30 1196 H 117.676 -0.0891987 0.731582 0
M  V30 1197 H 120.318 0.467624 1.84156 0
M  V30 1198 H 118.468 -1.17156 3.70414 0
M  V30 1199 H 120.14 1.33974 4.41417 0
M  V30 1200 H 118.383 1.32612 4.13033 0
M  V30 1201 H 119.054 0.43933 5.50249 0
M  V30 1202 H 121.53 -0.852448 4.07275 0
M  V30 1203 H 120.406 -1.55553 5.26398 0
M  V30 1204 H 120.667 -2.37203 3.73078 0
M  V30 1205 N 119.726 -1.57421 0.075193 0
M  V30 1206 C 120.674 -2.14124 -0.908508 0
M  V30 1207 C 121.668 -1.07898 -1.30592 0
M  V30 1208 O 122.874 -1.26273 -1.28277 0
M  V30 1209 H 119.249 -0.684707 -0.310935 0
M  V30 1210 H 121.22 -2.95634 -0.405374 0
M  V30 1211 C 119.969 -2.72044 -2.16535 0
M  V30 1212 H 119.292 -3.53456 -1.86839 0
M  V30 1213 H 120.732 -3.15311 -2.83469 0
M  V30 1214 C 119.191 -1.66968 -2.92615 0
M  V30 1215 O 119.721 -1.0967 -3.86439 0
M  V30 1216 N 117.927 -1.37923 -2.55784 0
M  V30 1217 H 117.474 -1.84706 -1.79559 0
M  V30 1218 H 117.432 -0.67852 -3.06991 0
M  V30 1219 N 121.204 0.198386 -1.56346 0
M  V30 1220 C 122.45 0.920648 -1.80698 0
M  V30 1221 C 122.783 1.83045 -0.648697 0
M  V30 1222 O 122.058 1.91308 0.350925 0
M  V30 1223 C 122.341 1.73971 -3.15287 0
M  V30 1224 C 122.194 0.85485 -4.41602 0
M  V30 1225 C 123.513 2.71296 -3.46535 0
M  V30 1226 H 120.632 0.333261 -0.657348 0
M  V30 1227 H 123.274 0.188198 -1.89066 0
M  V30 1228 H 121.424 2.36416 -3.08285 0
M  V30 1229 H 123.096 0.245362 -4.60647 0
M  V30 1230 H 121.339 0.161398 -4.335 0
M  V30 1231 H 122.01 1.46286 -5.32264 0
M  V30 1232 H 124.486 2.18983 -3.53816 0
M  V30 1233 H 123.362 3.2569 -4.41834 0
M  V30 1234 H 123.623 3.5018 -2.69864 0
M  V30 1235 N 122.682 1.50554 0.465978 0
M  V30 1236 C 123.928 1.62038 1.21949 0
M  V30 1237 C 124.261 0.322116 1.9151 0
M  V30 1238 O 123.536 -0.676723 1.82348 0
M  V30 1239 C 123.819 2.80421 2.25912 0
M  V30 1240 C 123.672 4.20144 1.60622 0
M  V30 1241 C 124.991 2.94354 3.27176 0
M  V30 1242 H 122.11 0.589752 0.441998 0
M  V30 1243 H 124.752 1.82956 0.51257 0
M  V30 1244 H 122.902 2.62717 2.86203 0
M  V30 1245 H 124.574 4.49449 1.03889 0
M  V30 1246 H 122.817 4.24165 0.909211 0
M  V30 1247 H 123.488 4.98914 2.36196 0
M  V30 1248 H 125.964 3.10578 2.76913 0
M  V30 1249 H 124.84 3.788 3.97242 0
M  V30 1250 H 125.101 2.05186 3.916 0
M  V30 1251 N 124.16 -0.719506 1.40217 0
M  V30 1252 C 125.09 -1.8465 1.42922 0
M  V30 1253 C 126.071 -1.67599 0.29062 0
M  V30 1254 O 127.256 -1.87688 0.498677 0
M  V30 1255 C 124.386 -3.22565 1.28722 0
M  V30 1256 C 123.34 -3.54281 2.40144 0
M  V30 1257 C 122.666 -4.91298 2.11023 0
M  V30 1258 C 123.966 -3.55676 3.82481 0
M  V30 1259 H 125.66 -1.82644 2.37237 0
M  V30 1260 H 123.206 -0.877305 1.1419 0
M  V30 1261 H 125.159 -4.01095 1.29232 0
M  V30 1262 H 123.883 -3.25137 0.308811 0
M  V30 1263 H 122.542 -2.78088 2.38877 0
M  V30 1264 H 122.19 -4.90468 1.11582 0
M  V30 1265 H 121.89 -5.13485 2.8567 0
M  V30 1266 H 123.414 -5.72166 2.13209 0
M  V30 1267 H 124.828 -4.24254 3.85592 0
M  V30 1268 H 123.225 -3.89388 4.56614 0
M  V30 1269 H 124.295 -2.55144 4.12346 0
M  V30 1270 N 125.638 -1.25649 -0.95132 0
M  V30 1271 C 126.886 -1.10375 -1.69298 0
M  V30 1272 C 127.207 0.355339 -1.91735 0
M  V30 1273 O 126.477 1.25188 -1.50681 0
M  V30 1274 H 125.057 -0.405461 -0.627384 0
M  V30 1275 H 127.719 -1.57823 -1.14358 0
M  V30 1276 H 126.815 -1.61465 -2.67087 0
M  V30 1277 N 127.117 1.15442 -1.07289 0
M  V30 1278 C 128.08 2.18358 -0.696591 0
M  V30 1279 C 129.08 1.58637 0.262837 0
M  V30 1280 O 130.27 1.74145 0.0438809 0
M  V30 1281 C 127.402 3.4089 -0.0266151 0
M  V30 1282 H 128.595 2.53162 -1.60776 0
M  V30 1283 H 126.148 1.29893 -0.869342 0
M  V30 1284 H 126.883 3.11653 0.896822 0
M  V30 1285 H 126.668 3.85495 -0.716657 0
M  V30 1286 H 128.158 4.17009 0.222028 0
M  V30 1287 N 128.595 0.856903 1.32268 0
M  V30 1288 C 129.545 0.274899 2.26337 0
M  V30 1289 C 130.529 -0.580543 1.50062 0
M  V30 1290 O 131.721 -0.429559 1.71708 0
M  V30 1291 C 128.85 -0.533841 3.39124 0
M  V30 1292 C 127.936 0.334114 4.22782 0
M  V30 1293 N 128.327 1.42143 4.85416 0
M  V30 1294 C 126.625 0.124256 4.45827 0
M  V30 1295 C 127.326 1.95559 5.47843 0
M  V30 1296 N 126.302 1.25444 5.28928 0
M  V30 1297 H 130.104 1.10612 2.72291 0
M  V30 1298 H 127.618 0.703258 1.46383 0
M  V30 1299 H 129.615 -0.96722 4.05525 0
M  V30 1300 H 128.275 -1.36283 2.94715 0
M  V30 1301 H 129.286 1.80436 4.85451 0
M  V30 1302 H 125.963 -0.669837 4.12092 0
M  V30 1303 H 127.353 2.86714 6.07655 0
M  V30 1304 N 130.073 -1.45103 0.615059 0
M  V30 1305 C 131.021 -2.32331 -0.111791 0
M  V30 1306 C 132.015 -1.46409 -0.852102 0
M  V30 1307 O 133.221 -1.62849 -0.766821 0
M  V30 1308 H 129.596 -0.749993 -0.0549072 0
M  V30 1309 H 131.567 -2.91407 0.642225 0
M  V30 1310 C 130.316 -3.3015 -1.09071 0
M  V30 1311 H 129.639 -3.96265 -0.530485 0
M  V30 1312 H 131.079 -3.93898 -1.56908 0
M  V30 1313 C 129.538 -2.57875 -2.168 0
M  V30 1314 O 130.068 -2.36567 -3.24652 0
M  V30 1315 N 128.274 -2.17884 -1.92289 0
M  V30 1316 H 127.821 -2.35413 -1.04587 0
M  V30 1317 H 127.779 -1.6985 -2.64572 0
M  V30 1318 N 131.551 -0.354651 -1.53558 0
M  V30 1319 C 132.797 0.238797 -2.01389 0
M  V30 1320 C 133.13 1.49309 -1.2418 0
M  V30 1321 O 132.405 1.91638 -0.332457 0
M  V30 1322 C 132.688 0.541771 -3.56001 0
M  V30 1323 C 132.541 -0.725388 -4.43912 0
M  V30 1324 C 133.86 1.34685 -4.18984 0
M  V30 1325 H 130.979 0.0853177 -0.732045 0
M  V30 1326 H 133.621 -0.477384 -1.83905 0
M  V30 1327 H 131.771 1.15189 -3.71031 0
M  V30 1328 H 133.443 -1.36313 -4.407 0
M  V30 1329 H 131.686 -1.34801 -4.12324 0
M  V30 1330 H 132.357 -0.468505 -5.50008 0
M  V30 1331 H 134.833 0.830837 -4.07721 0
M  V30 1332 H 133.709 1.52759 -5.27215 0
M  V30 1333 H 133.97 2.35221 -3.74331 0
M  V30 1334 N 133.029 1.57378 -0.0835403 0
M  V30 1335 C 134.445 1.57246 0.273109 0
M  V30 1336 C 134.645 1.09385 1.69225 0
M  V30 1337 O 133.701 0.765051 2.40631 0
M  V30 1338 C 135.014 3.00614 0.0720628 0
M  V30 1339 C 136.562 3.12684 0.1407 0
M  V30 1340 C 137.037 4.57989 -0.0322094 0
M  V30 1341 N 138.528 4.63194 0.0230085 0
M  V30 1342 C 139.263 5.73335 -0.0861941 0
M  V30 1343 N 138.759 6.9235 -0.24958 0
M  V30 1344 N 140.552 5.62093 -0.0282886 0
M  V30 1345 H 132.703 1.86801 -1.0109 0
M  V30 1346 H 134.966 0.861687 -0.395222 0
M  V30 1347 H 134.672 3.39786 -0.907662 0
M  V30 1348 H 134.546 3.68193 0.81936 0
M  V30 1349 H 136.933 2.73391 1.11092 0
M  V30 1350 H 137.014 2.47719 -0.637896 0
M  V30 1351 H 136.658 4.97973 -0.999247 0
M  V30 1352 H 136.588 5.21 0.765937 0
M  V30 1353 H 139.079 3.77613 0.14722 0
M  V30 1354 H 139.392 7.72117 -0.324733 0
M  V30 1355 H 137.737 6.94415 -0.285097 0
M  V30 1356 H 140.928 4.67997 0.0981408 0
M  V30 1357 H 141.101 6.47895 -0.116845 0
M  V30 1358 N 134.507 -0.190092 1.56449 0
M  V30 1359 C 135.735 -0.925772 1.85033 0
M  V30 1360 C 136.15 -1.76638 0.666658 0
M  V30 1361 O 135.507 -1.78822 -0.364565 0
M  V30 1362 C 135.558 -1.81786 3.12468 0
M  V30 1363 O 135.279 -1.01118 4.26271 0
M  V30 1364 C 136.78 -2.6648 3.54265 0
M  V30 1365 H 134 -0.269872 0.614337 0
M  V30 1366 H 136.544 -0.195837 2.0356 0
M  V30 1367 H 134.699 -2.50136 2.95822 0
M  V30 1368 H 135.113 -1.61956 4.98869 0
M  V30 1369 H 136.587 -3.24722 4.46385 0
M  V30 1370 H 137.064 -3.40434 2.77491 0
M  V30 1371 H 137.67 -2.03493 3.73458 0
M  V30 1372 N 135.985 -1.50799 -0.457987 0
M  V30 1373 C 136.917 -1.66786 -1.57211 0
M  V30 1374 C 137.93 -0.548962 -1.53265 0
M  V30 1375 O 139.119 -0.8226 -1.58416 0
M  V30 1376 C 136.219 -1.64834 -2.96113 0
M  V30 1377 C 135.392 -2.92971 -3.24787 0
M  V30 1378 C 134.451 -2.83485 -4.43309 0
M  V30 1379 O 133.477 -3.5744 -4.42973 0
M  V30 1380 N 134.679 -1.97929 -5.45714 0
M  V30 1381 H 137.444 -2.62889 -1.43909 0
M  V30 1382 H 135.005 -1.48427 -0.646617 0
M  V30 1383 H 136.997 -1.56084 -3.7339 0
M  V30 1384 H 135.567 -0.764118 -3.03117 0
M  V30 1385 H 134.787 -3.15749 -2.36 0
M  V30 1386 H 136.075 -3.77834 -3.40762 0
M  V30 1387 H 135.473 -1.37182 -5.48815 0
M  V30 1388 H 134.03 -1.95073 -6.21924 0
M  V30 1389 N 137.463 0.71206 -1.40597 0
M  V30 1390 C 138.373 1.8562 -1.43466 0
M  V30 1391 C 139.389 1.70902 -0.326902 0
M  V30 1392 O 140.565 1.93105 -0.572043 0
M  V30 1393 C 137.63 3.21451 -1.29884 0
M  V30 1394 C 136.691 3.48398 -2.50833 0
M  V30 1395 C 135.924 4.77749 -2.3789 0
M  V30 1396 O 136.147 5.53089 -1.39459 0
M  V30 1397 O 135.081 5.05111 -3.27333 0
M  V30 1398 H 138.907 1.86155 -2.39958 0
M  V30 1399 H 136.492 0.86295 -1.21957 0
M  V30 1400 H 138.374 4.02579 -1.24531 0
M  V30 1401 H 137.049 3.21636 -0.364997 0
M  V30 1402 H 135.956 2.67265 -2.61763 0
M  V30 1403 H 137.289 3.53014 -3.4299 0
M  V30 1404 N 138.941 1.26152 0.944643 0
M  V30 1405 C 140.352 1.10454 1.50522 0
M  V30 1406 C 140.703 -0.31635 1.93633 0
M  V30 1407 O 139.828 -1.20746 1.79581 0
M  V30 1408 C 140.423 1.99891 2.73549 0
M  V30 1409 C 138.982 1.88348 3.25886 0
M  V30 1410 C 138.129 1.93447 1.9868 0
M  V30 1411 H 141.08 1.39292 0.760489 0
M  V30 1412 H 141.101 1.54477 3.47732 0
M  V30 1413 H 140.613 3.03297 2.42141 0
M  V30 1414 H 138.714 0.878636 3.62092 0
M  V30 1415 H 138.827 2.73696 3.93227 0
M  V30 1416 H 137.191 1.37456 2.14425 0
M  V30 1417 H 137.974 2.98476 1.69607 0
M  V30 1418 N 140.419 -1.14872 1.07899 0
M  V30 1419 C 141.647 -1.89661 0.82683 0
M  V30 1420 C 142.062 -1.78312 -0.620519 0
M  V30 1421 O 141.419 -1.13888 -1.42604 0
M  V30 1422 C 141.47 -3.39817 1.23316 0
M  V30 1423 O 141.191 -3.50845 2.62372 0
M  V30 1424 C 142.692 -4.31615 1.0111 0
M  V30 1425 H 139.912 -0.60092 0.298557 0
M  V30 1426 H 142.456 -1.4551 1.43691 0
M  V30 1427 H 140.611 -3.8161 0.667286 0
M  V30 1428 H 141.025 -4.44076 2.79101 0
M  V30 1429 H 142.499 -5.35367 1.34486 0
M  V30 1430 H 142.976 -4.39169 -0.0522168 0
M  V30 1431 H 143.582 -3.95572 1.56215 0
M  V30 1432 N 141.898 -0.863906 -1.31812 0
M  V30 1433 C 142.83 -0.272485 -2.27575 0
M  V30 1434 C 143.843 0.56104 -1.52827 0
M  V30 1435 O 145.032 0.384021 -1.7432 0
M  V30 1436 C 142.132 0.63283 -3.32939 0
M  V30 1437 C 141.305 -0.166902 -4.37081 0
M  V30 1438 C 140.364 0.665608 -5.21973 0
M  V30 1439 O 139.39 0.0958091 -5.69119 0
M  V30 1440 N 140.592 1.9787 -5.45736 0
M  V30 1441 H 143.357 -1.0954 -2.78964 0
M  V30 1442 H 140.918 -0.724791 -1.4477 0
M  V30 1443 H 142.91 1.19532 -3.86645 0
M  V30 1444 H 141.48 1.35642 -2.81638 0
M  V30 1445 H 140.7 -0.910838 -3.83533 0
M  V30 1446 H 141.988 -0.715874 -5.03739 0
M  V30 1447 H 141.386 2.46484 -5.09178 0
M  V30 1448 H 139.943 2.48911 -6.024 0
M  V30 1449 N 143.376 1.44774 -0.622745 0
M  V30 1450 C 144.308 2.28856 0.125485 0
M  V30 1451 C 145.321 1.40811 0.817069 0
M  V30 1452 O 146.51 1.65044 0.679918 0
M  V30 1453 C 143.61 3.16963 1.19949 0
M  V30 1454 C 142.783 4.33374 0.592064 0
M  V30 1455 C 141.842 5.02577 1.55893 0
M  V30 1456 O 140.868 5.58873 1.07933 0
M  V30 1457 N 142.07 5.03256 2.89334 0
M  V30 1458 H 144.835 2.93713 -0.596068 0
M  V30 1459 H 142.396 1.55129 -0.463303 0
M  V30 1460 H 144.388 3.60123 1.84644 0
M  V30 1461 H 142.958 2.53913 1.82337 0
M  V30 1462 H 142.178 3.93509 -0.233322 0
M  V30 1463 H 143.466 5.08527 0.166738 0
M  V30 1464 H 142.864 4.58836 3.30887 0
M  V30 1465 H 141.421 5.50232 3.49412 0
M  V30 1466 N 144.854 0.36279 1.53368 0
M  V30 1467 C 145.804 -0.501391 2.22419 0
M  V30 1468 C 146.788 -1.0509 1.2184 0
M  V30 1469 O 147.98 -0.981404 1.47301 0
M  V30 1470 C 145.109 -1.64201 3.01484 0
M  V30 1471 C 144.195 -1.10552 4.09438 0
M  V30 1472 N 144.586 -0.291788 5.04958 0
M  V30 1473 C 142.884 -1.3806 4.24094 0
M  V30 1474 C 143.585 0.00162655 5.817 0
M  V30 1475 N 142.561 -0.595244 5.40331 0
M  V30 1476 H 146.363 0.127159 2.93625 0
M  V30 1477 H 143.877 0.170658 1.61501 0
M  V30 1478 H 145.874 -2.27326 3.49469 0
M  V30 1479 H 144.534 -2.27365 2.31809 0
M  V30 1480 H 145.545 0.0687731 5.17854 0
M  V30 1481 H 142.222 -2.01522 3.65644 0
M  V30 1482 H 143.612 0.659278 6.68658 0
M  V30 1483 N 146.332 -1.57332 0.0918853 0
M  V30 1484 C 147.579 -1.94236 -0.572577 0
M  V30 1485 C 147.907 -0.973398 -1.6839 0
M  V30 1486 O 147.162 0.00756912 -1.95699 0
M  V30 1487 C 147.461 -3.37689 -1.17051 0
M  V30 1488 C 147.127 -4.50527 -0.183304 0
M  V30 1489 C 145.789 -4.81119 0.0882276 0
M  V30 1490 C 148.141 -5.18883 0.49095 0
M  V30 1491 C 145.469 -5.77395 1.04076 0
M  V30 1492 C 147.821 -6.1618 1.43193 0
M  V30 1493 C 146.485 -6.45179 1.71173 0
M  V30 1494 H 145.755 -0.710762 -0.209521 0
M  V30 1495 H 148.402 -1.9077 0.167036 0
M  V30 1496 H 146.707 -3.37718 -1.9863 0
M  V30 1497 H 148.404 -3.63543 -1.69227 0
M  V30 1498 H 144.994 -4.26681 -0.405124 0
M  V30 1499 H 149.178 -4.95427 0.294312 0
M  V30 1500 H 144.434 -5.98179 1.26457 0
M  V30 1501 H 148.608 -6.68243 1.96023 0
M  V30 1502 H 146.235 -7.1959 2.4514 0
M  V30 1503 N 147.81 0.181792 -1.56548 0
M  V30 1504 C 149.035 0.920019 -1.85877 0
M  V30 1505 C 149.46 1.75494 -0.677021 0
M  V30 1506 O 148.818 1.77399 0.374056 0
M  V30 1507 C 148.866 1.78112 -3.13542 0
M  V30 1508 O 147.97 2.88152 -2.95029 0
M  V30 1509 H 147.311 0.258334 -0.611686 0
M  V30 1510 H 149.841 0.183092 -2.03779 0
M  V30 1511 H 149.851 2.18314 -3.44678 0
M  V30 1512 H 148.526 1.16777 -3.99169 0
M  V30 1513 H 147.103 2.51609 -2.75222 0
M  V30 1514 N 149.288 1.51039 0.449983 0
M  V30 1515 C 150.534 1.63322 1.20223 0
M  V30 1516 C 150.867 0.34241 1.91158 0
M  V30 1517 O 150.142 -0.657344 1.83055 0
M  V30 1518 C 150.425 2.82801 2.22925 0
M  V30 1519 C 150.278 4.21823 1.56157 0
M  V30 1520 C 151.597 2.97807 3.24035 0
M  V30 1521 H 148.716 0.594407 0.435718 0
M  V30 1522 H 151.358 1.83489 0.493136 0
M  V30 1523 H 149.508 2.65738 2.834 0
M  V30 1524 H 151.18 4.50526 0.991162 0
M  V30 1525 H 149.423 4.25105 0.864172 0
M  V30 1526 H 150.094 5.01391 2.30891 0
M  V30 1527 H 152.57 3.13497 2.73603 0
M  V30 1528 H 151.446 3.82992 3.93202 0
M  V30 1529 H 151.707 2.09328 3.89402 0
M  V30 1530 N 150.766 -0.704594 1.40972 0
M  V30 1531 C 151.729 -1.80035 1.41845 0
M  V30 1532 C 152.729 -1.57774 0.310474 0
M  V30 1533 O 153.919 -1.64613 0.56992 0
M  V30 1534 C 151.051 -3.18284 1.22098 0
M  V30 1535 H 152.244 -1.80658 2.3938 0
M  V30 1536 H 149.797 -0.911329 1.26982 0
M  V30 1537 H 150.532 -3.23306 0.253672 0
M  V30 1538 H 150.317 -3.35843 2.02366 0
M  V30 1539 H 151.807 -3.98289 1.25522 0
M  V30 1540 N 152.244 -1.26651 -0.937939 0
M  V30 1541 C 153.176 -1.04283 -2.04102 0
M  V30 1542 C 154.189 -0.00221014 -1.628 0
M  V30 1543 O 155.378 -0.242645 -1.76843 0
M  V30 1544 C 152.478 -0.557846 -3.34277 0
M  V30 1545 C 151.651 -1.66843 -4.04329 0
M  V30 1546 C 150.71 -1.18095 -5.12777 0
M  V30 1547 O 149.736 -1.87865 -5.37304 0
M  V30 1548 N 150.938 -0.0311006 -5.80492 0
M  V30 1549 H 153.703 -1.9927 -2.23856 0
M  V30 1550 H 151.264 -1.1808 -1.10764 0
M  V30 1551 H 153.256 -0.215836 -4.04124 0
M  V30 1552 H 151.826 0.298523 -3.11171 0
M  V30 1553 H 151.046 -2.18123 -3.28353 0
M  V30 1554 H 152.334 -2.41408 -4.47883 0
M  V30 1555 H 151.732 0.551486 -5.63005 0
M  V30 1556 H 150.289 0.251809 -6.51313 0
M  V30 1557 N 153.722 1.14298 -1.08507 0
M  V30 1558 C 154.968 1.85633 -0.816581 0
M  V30 1559 C 155.301 1.82784 0.656021 0
M  V30 1560 O 154.576 1.25926 1.48233 0
M  V30 1561 C 154.859 3.34223 -1.34041 0
M  V30 1562 C 154.712 3.45639 -2.87843 0
M  V30 1563 C 156.031 4.29356 -0.9665 0
M  V30 1564 H 153.15 0.67402 -0.298104 0
M  V30 1565 H 155.792 1.34214 -1.34487 0
M  V30 1566 H 153.942 3.78144 -0.89104 0
M  V30 1567 H 155.614 3.10498 -3.41158 0
M  V30 1568 H 153.857 2.86817 -3.25451 0
M  V30 1569 H 154.528 4.50089 -3.19569 0
M  V30 1570 H 157.004 3.93457 -1.35391 0
M  V30 1571 H 155.88 5.3178 -1.3602 0
M  V30 1572 H 156.141 4.41919 0.126362 0
M  V30 1573 N 155.201 0.870884 1.31352 0
M  V30 1574 C 156.448 0.482273 1.96673 0
M  V30 1575 C 156.776 -0.965638 1.68836 0
M  V30 1576 O 156.031 -1.69514 0.977937 0
M  V30 1577 C 156.33 0.687157 3.50732 0
M  V30 1578 C 155.996 2.108 3.9859 0
M  V30 1579 C 154.658 2.49656 4.1137 0
M  V30 1580 C 157.01 3.03459 4.23748 0
M  V30 1581 C 154.338 3.80412 4.46659 0
M  V30 1582 C 156.69 4.3373 4.60501 0
M  V30 1583 C 155.354 4.725 4.71487 0
M  V30 1584 H 154.624 0.176476 0.719679 0
M  V30 1585 H 157.271 1.10405 1.56471 0
M  V30 1586 H 155.576 -0.0177476 3.91796 0
M  V30 1587 H 157.273 0.366284 3.99324 0
M  V30 1588 H 153.863 1.79633 3.8914 0
M  V30 1589 H 158.047 2.74665 4.13368 0
M  V30 1590 H 153.303 4.1021 4.53362 0
M  V30 1591 H 157.477 5.05578 4.78919 0
M  V30 1592 H 155.104 5.73859 4.98588 0
M  V30 1593 N 156.679 -1.44442 0.630414 0
M  V30 1594 C 157.609 -2.33418 -0.0618083 0
M  V30 1595 C 158.59 -1.48165 -0.835541 0
M  V30 1596 O 159.775 -1.76886 -0.801564 0
M  V30 1597 C 156.905 -3.31222 -1.04449 0
M  V30 1598 C 155.859 -4.26288 -0.382436 0
M  V30 1599 C 155.185 -5.13954 -1.47497 0
M  V30 1600 C 156.485 -5.1744 0.710865 0
M  V30 1601 H 158.179 -2.91548 0.681184 0
M  V30 1602 H 155.725 -1.40191 0.329026 0
M  V30 1603 H 157.678 -3.92351 -1.53748 0
M  V30 1604 H 156.402 -2.71299 -1.81836 0
M  V30 1605 H 155.061 -3.6649 0.0899054 0
M  V30 1606 H 154.709 -4.50385 -2.2397 0
M  V30 1607 H 154.409 -5.7837 -1.03737 0
M  V30 1608 H 155.933 -5.77955 -1.96979 0
M  V30 1609 H 157.347 -5.72509 0.300996 0
M  V30 1610 H 155.744 -5.90455 1.07156 0
M  V30 1611 H 156.814 -4.58496 1.57829 0
M  V30 1612 N 158.157 -0.370918 -1.53173 0
M  V30 1613 C 159.105 0.488101 -2.27421 0
M  V30 1614 C 160.099 1.07884 -1.30604 0
M  V30 1615 O 161.305 1.02143 -1.48212 0
M  V30 1616 H 157.68 0.176134 -0.731082 0
M  V30 1617 H 159.651 -0.159815 -2.97972 0
M  V30 1618 C 158.4 1.61306 -3.08019 0
M  V30 1619 H 157.723 1.1678 -3.82364 0
M  V30 1620 H 159.163 2.18872 -3.63141 0
M  V30 1621 C 157.622 2.55848 -2.19188 0
M  V30 1622 O 158.152 3.58799 -1.80626 0
M  V30 1623 N 156.358 2.2516 -1.83715 0
M  V30 1624 H 155.905 1.41476 -2.15273 0
M  V30 1625 H 155.863 2.8867 -1.24567 0
M  V30 1626 N 159.635 1.57281 -0.100228 0
M  V30 1627 C 160.583 2.15542 0.874328 0
M  V30 1628 C 161.577 1.09962 1.28859 0
M  V30 1629 O 162.783 1.28298 1.26252 0
M  V30 1630 H 159.158 0.689567 0.300003 0
M  V30 1631 H 161.129 2.96241 0.35829 0
M  V30 1632 C 159.878 2.75454 2.1218 0
M  V30 1633 H 159.201 3.56384 1.81193 0
M  V30 1634 H 160.641 3.19781 2.78417 0
M  V30 1635 C 159.1 1.71602 2.89921 0
M  V30 1636 O 159.63 1.15804 3.84646 0
M  V30 1637 N 157.836 1.41975 2.53558 0
M  V30 1638 H 157.383 1.87539 1.76598 0
M  V30 1639 H 157.341 0.727274 3.05873 0
M  V30 1640 N 161.113 -0.173488 1.56642 0
M  V30 1641 C 162.343 -0.904781 1.85734 0
M  V30 1642 C 162.751 -1.76431 0.68328 0
M  V30 1643 O 162.094 -1.802 -0.356865 0
M  V30 1644 C 162.156 -1.83382 3.09211 0
M  V30 1645 C 161.82 -1.15411 4.42187 0
M  V30 1646 C 162.817 -0.520609 5.17287 0
M  V30 1647 C 160.502 -1.15151 4.88923 0
M  V30 1648 C 162.496 0.106412 6.37311 0
M  V30 1649 C 160.183 -0.520664 6.08878 0
M  V30 1650 C 161.181 0.107196 6.82916 0
M  V30 1651 O 160.869 0.728102 8.00596 0
M  V30 1652 H 160.601 -0.268408 0.62043 0
M  V30 1653 H 163.155 -0.179096 2.04618 0
M  V30 1654 H 161.385 -2.59976 2.86268 0
M  V30 1655 H 163.074 -2.43476 3.24768 0
M  V30 1656 H 163.84 -0.514606 4.82262 0
M  V30 1657 H 159.719 -1.62961 4.31236 0
M  V30 1658 H 163.263 0.597081 6.9504 0
M  V30 1659 H 159.16 -0.524242 6.43368 0
M  V30 1660 H 159.928 0.627138 8.16094 0
M  V30 1661 N 162.591 -1.51276 -0.441967 0
M  V30 1662 C 163.868 -1.54252 -1.20273 0
M  V30 1663 C 164.248 -0.30408 -2.08898 0
M  V30 1664 O 163.596 0.711084 -2.17154 0
M  V30 1665 C 163.806 -2.85406 -2.00859 0
M  V30 1666 C 165.154 -3.37181 -2.58059 0
M  V30 1667 O 166.178 -2.86925 -2.11074 0
M  V30 1668 O 165.037 -4.24858 -3.43741 0
M  V30 1669 H 162.131 -0.619969 -0.547328 0
M  V30 1670 H 164.677 -1.63586 -0.451413 0
M  V30 1671 H 163.449 -3.67003 -1.35736 0
M  V30 1672 H 163.072 -2.79213 -2.83065 0
M  V30 1673 N 164.069 0.697108 -1.41344 0
M  V30 1674 C 165.032 1.79281 -1.42797 0
M  V30 1675 C 166.032 1.57607 -0.318837 0
M  V30 1676 O 167.222 1.64309 -0.578642 0
M  V30 1677 C 164.354 3.17632 -1.23785 0
M  V30 1678 H 165.547 1.79385 -2.40335 0
M  V30 1679 H 163.1 0.904582 -1.27464 0
M  V30 1680 H 163.835 3.23167 -0.270814 0
M  V30 1681 H 163.62 3.34765 -2.04144 0
M  V30 1682 H 165.11 3.97617 -1.27633 0
M  V30 1683 N 165.547 1.27147 0.931209 0
M  V30 1684 C 166.457 1.11372 2.06478 0
M  V30 1685 C 167.473 0.044645 1.73943 0
M  V30 1686 O 168.649 0.250417 1.99837 0
M  V30 1687 C 165.714 0.758838 3.38294 0
M  V30 1688 C 164.775 1.90841 3.84549 0
M  V30 1689 C 164.008 1.57036 5.10074 0
M  V30 1690 O 164.231 0.476645 5.68405 0
M  V30 1691 O 163.165 2.40839 5.51616 0
M  V30 1692 H 166.991 2.06493 2.22698 0
M  V30 1693 H 164.576 1.06301 1.04978 0
M  V30 1694 H 166.458 0.574098 4.17471 0
M  V30 1695 H 165.133 -0.162879 3.2329 0
M  V30 1696 H 164.04 2.14819 3.06274 0
M  V30 1697 H 165.373 2.81021 4.04089 0
M  V30 1698 N 167.025 -1.13721 1.09112 0
M  V30 1699 C 167.973 -2.21103 0.722219 0
M  V30 1700 C 168.967 -1.67147 -0.275374 0
M  V30 1701 O 170.173 -1.79477 -0.137176 0
M  V30 1702 H 166.548 -0.720445 0.215553 0
M  V30 1703 H 168.519 -2.49483 1.63709 0
M  V30 1704 C 167.268 -3.47352 0.15543 0
M  V30 1705 H 166.591 -3.89206 0.914246 0
M  V30 1706 H 168.031 -4.2395 -0.0647967 0
M  V30 1707 C 166.49 -3.1814 -1.10852 0
M  V30 1708 O 167.02 -3.36604 -2.19227 0
M  V30 1709 N 165.226 -2.72045 -1.02176 0
M  V30 1710 H 164.773 -2.57221 -0.139764 0
M  V30 1711 H 164.731 -2.52875 -1.8682 0
M  V30 1712 N 168.503 -0.877838 -1.30888 0
M  V30 1713 C 169.45 -0.337538 -2.28318 0
M  V30 1714 C 170.42 0.568346 -1.56074 0
M  V30 1715 O 171.605 0.498298 -1.84178 0
M  V30 1716 C 168.745 0.448142 -3.42178 0
M  V30 1717 C 167.858 -0.48615 -4.29256 0
M  V30 1718 C 166.993 0.314427 -5.30269 0
M  V30 1719 C 166.032 -0.615791 -6.08995 0
M  V30 1720 N 165.169 0.14902 -7.01942 0
M  V30 1721 H 170.009 -1.17356 -2.73919 0
M  V30 1722 H 167.546 -0.590094 -1.34745 0
M  V30 1723 H 169.504 0.919517 -4.06941 0
M  V30 1724 H 168.134 1.24879 -2.97666 0
M  V30 1725 H 167.186 -1.076 -3.64865 0
M  V30 1726 H 168.498 -1.19909 -4.84173 0
M  V30 1727 H 167.652 0.847969 -6.00745 0
M  V30 1728 H 166.391 1.06062 -4.76027 0
M  V30 1729 H 165.396 -1.16102 -5.37401 0
M  V30 1730 H 166.621 -1.36097 -6.65323 0
M  V30 1731 H 164.567 0.877884 -6.50099 0
M  V30 1732 H 164.484 -0.504433 -7.54315 0
M  V30 1733 H 165.752 0.663537 -7.76671 0
M  V30 1734 N 169.982 1.44106 -0.638065 0
M  V30 1735 C 170.912 2.33448 0.0494287 0
M  V30 1736 C 171.893 1.48606 0.827672 0
M  V30 1737 O 173.078 1.77308 0.792173 0
M  V30 1738 C 170.208 3.31771 1.02691 0
M  V30 1739 C 169.162 4.26485 0.359823 0
M  V30 1740 C 168.488 5.14729 1.44769 0
M  V30 1741 C 169.788 5.17056 -0.738296 0
M  V30 1742 H 171.482 2.91183 -0.696636 0
M  V30 1743 H 169.028 1.40014 -0.336456 0
M  V30 1744 H 170.981 3.93161 1.51666 0
M  V30 1745 H 169.705 2.7226 1.80395 0
M  V30 1746 H 168.364 3.66437 -0.10934 0
M  V30 1747 H 168.012 4.51566 2.21578 0
M  V30 1748 H 167.712 5.78913 1.00668 0
M  V30 1749 H 169.236 5.78991 1.93911 0
M  V30 1750 H 170.65 5.72342 -0.331354 0
M  V30 1751 H 169.047 5.89879 -1.10286 0
M  V30 1752 H 170.117 4.57652 -1.60258 0
M  V30 1753 N 171.46 0.379036 1.52974 0
M  V30 1754 C 172.408 -0.476033 2.27677 0
M  V30 1755 C 173.402 -1.0719 1.31174 0
M  V30 1756 O 174.608 -1.01355 1.48752 0
M  V30 1757 H 170.983 -0.172255 0.732006 0
M  V30 1758 H 172.954 0.175615 2.97883 0
M  V30 1759 C 171.703 -1.5967 3.0887 0
M  V30 1760 H 171.026 -1.1475 3.82978 0
M  V30 1761 H 172.466 -2.16943 3.64296 0
M  V30 1762 C 170.925 -2.54682 2.20542 0
M  V30 1763 O 171.455 -3.57836 1.82527 0
M  V30 1764 N 169.661 -2.24183 1.84907 0
M  V30 1765 H 169.208 -1.40333 2.1602 0
M  V30 1766 H 169.166 -2.88006 1.26096 0
M  V30 1767 N 172.938 -1.57226 0.108567 0
M  V30 1768 C 174.215 -1.86333 -0.594939 0
M  V30 1769 C 174.595 -1.00788 -1.85486 0
M  V30 1770 O 173.943 -0.0839293 -2.28346 0
M  V30 1771 C 174.153 -3.37265 -0.897405 0
M  V30 1772 C 175.501 -4.05629 -1.25501 0
M  V30 1773 O 176.525 -3.42224 -0.987998 0
M  V30 1774 O 175.384 -5.17531 -1.75567 0
M  V30 1775 H 172.478 -0.771018 -0.2991 0
M  V30 1776 H 175.024 -1.69102 0.142283 0
M  V30 1777 H 173.796 -3.913 -0.00413806 0
M  V30 1778 H 173.419 -3.59889 -1.69014 0
M  V30 1779 N 174.416 0.165178 -1.56732 0
M  V30 1780 C 175.662 0.882112 -1.82611 0
M  V30 1781 C 175.995 1.81628 -0.687378 0
M  V30 1782 O 175.27 1.92009 0.310267 0
M  V30 1783 C 175.553 1.67245 -3.18906 0
M  V30 1784 C 175.406 0.760987 -4.43316 0
M  V30 1785 C 176.725 2.63884 -3.52212 0
M  V30 1786 H 173.844 0.319242 -0.664269 0
M  V30 1787 H 176.486 0.148052 -1.89422 0
M  V30 1788 H 174.636 2.29824 -3.1323 0
M  V30 1789 H 176.308 0.147596 -4.61064 0
M  V30 1790 H 174.551 0.0694102 -4.33744 0
M  V30 1791 H 175.222 1.34962 -5.35247 0
M  V30 1792 H 177.698 2.11429 -3.58381 0
M  V30 1793 H 176.574 3.16245 -4.48643 0
M  V30 1794 H 176.835 3.44377 -2.77231 0
M  V30 1795 N 175.894 1.51508 0.433938 0
M  V30 1796 C 176.824 1.76016 1.53429 0
M  V30 1797 C 177.805 0.610112 1.58782 0
M  V30 1798 O 178.99 0.853177 1.74455 0
M  V30 1799 C 176.12 1.88831 2.9148 0
M  V30 1800 C 175.074 3.04288 3.00987 0
M  V30 1801 C 174.4 3.0229 4.4105 0
M  V30 1802 C 175.7 4.44193 2.74754 0
M  V30 1803 H 177.394 2.68152 1.33171 0
M  V30 1804 H 174.94 1.29035 0.639214 0
M  V30 1805 H 176.893 2.04559 3.6842 0
M  V30 1806 H 175.617 0.933455 3.12976 0
M  V30 1807 H 174.276 2.8827 2.26486 0
M  V30 1808 H 173.924 2.04576 4.59519 0
M  V30 1809 H 173.624 3.79822 4.4834 0
M  V30 1810 H 175.148 3.20116 5.1996 0
M  V30 1811 H 176.562 4.60544 3.41426 0
M  V30 1812 H 174.959 5.23457 2.9345 0
M  V30 1813 H 176.029 4.53996 1.70339 0
M  V30 1814 N 177.372 -0.689602 1.41712 0
M  V30 1815 C 178.302 -1.81577 1.46806 0
M  V30 1816 C 179.283 -1.66945 0.326105 0
M  V30 1817 O 180.468 -1.86588 0.538377 0
M  V30 1818 C 177.598 -3.19762 1.35535 0
M  V30 1819 C 176.552 -3.49107 2.47605 0
M  V30 1820 C 175.878 -4.86711 2.21397 0
M  V30 1821 C 177.178 -3.47483 3.89939 0
M  V30 1822 H 178.872 -1.7757 2.41058 0
M  V30 1823 H 176.418 -0.852887 1.16025 0
M  V30 1824 H 178.371 -3.98263 1.3771 0
M  V30 1825 H 177.095 -3.24409 0.377708 0
M  V30 1826 H 175.754 -2.72959 2.44722 0
M  V30 1827 H 175.402 -4.8799 1.21961 0
M  V30 1828 H 175.102 -5.0731 2.96497 0
M  V30 1829 H 176.626 -5.67515 2.25297 0
M  V30 1830 H 178.04 -4.1598 3.94505 0
M  V30 1831 H 176.437 -3.79615 4.64771 0
M  V30 1832 H 177.507 -2.46341 4.17665 0
M  V30 1833 N 178.85 -1.27639 -0.924453 0
M  V30 1834 C 180.099 -1.13549 -1.66702 0
M  V30 1835 C 180.412 0.317487 -1.93006 0
M  V30 1836 O 181.618 0.579333 -2.65247 0
M  V30 1837 C 180.074 -1.98426 -3.00259 0
M  V30 1838 C 179.682 -3.484 -2.81641 0
M  V30 1839 C 181.426 -1.92993 -3.78092 0
M  V30 1840 C 179.333 -4.25464 -4.10773 0
M  V30 1841 H 178.263 -0.421351 -0.625283 0
M  V30 1842 H 180.914 -1.52085 -1.02676 0
M  V30 1843 H 179.296 -1.52736 -3.6536 0
M  V30 1844 H 180.47 -4.01973 -2.25287 0
M  V30 1845 H 178.785 -3.55245 -2.17232 0
M  V30 1846 H 181.382 -2.47844 -4.7379 0
M  V30 1847 H 181.725 -0.904281 -4.0636 0
M  V30 1848 H 182.258 -2.36595 -3.19793 0
M  V30 1849 H 178.997 -5.28566 -3.87683 0
M  V30 1850 H 178.517 -3.76667 -4.66779 0
M  V30 1851 H 180.196 -4.34812 -4.79111 0
M  V30 1852 N 180.328 1.1314 -1.09713 0
M  V30 1853 C 181.26 2.18343 -0.697056 0
M  V30 1854 C 182.273 1.60669 0.262551 0
M  V30 1855 O 183.462 1.78435 0.0481527 0
M  V30 1856 C 180.562 3.38899 -0.00684728 0
M  V30 1857 C 179.735 4.26078 -0.988741 0
M  V30 1858 C 178.794 5.25155 -0.331394 0
M  V30 1859 O 177.82 5.60701 -0.979926 0
M  V30 1860 N 179.022 5.73271 0.913261 0
M  V30 1861 H 181.787 2.5328 -1.60216 0
M  V30 1862 H 179.348 1.28491 -0.984971 0
M  V30 1863 H 181.34 4.02255 0.444191 0
M  V30 1864 H 179.91 3.02175 0.800551 0
M  V30 1865 H 179.13 3.59453 -1.61826 0
M  V30 1866 H 180.418 4.81178 -1.65364 0
M  V30 1867 H 179.816 5.46544 1.45966 0
M  V30 1868 H 178.373 6.3855 1.30757 0
M  V30 1869 N 181.806 0.884767 1.30421 0
M  V30 1870 C 182.736 0.367574 2.30589 0
M  V30 1871 C 183.717 -0.549464 1.60981 0
M  V30 1872 O 184.902 -0.46336 1.88591 0
M  V30 1873 C 182.032 -0.418944 3.44764 0
M  V30 1874 C 180.986 0.406316 4.26067 0
M  V30 1875 C 180.312 -0.506793 5.32293 0
M  V30 1876 C 181.612 1.64832 4.95608 0
M  V30 1877 H 183.306 1.20462 2.74097 0
M  V30 1878 H 180.852 0.580695 1.31772 0
M  V30 1879 H 182.805 -0.791395 4.13902 0
M  V30 1880 H 181.529 -1.28964 3.0006 0
M  V30 1881 H 180.188 0.760903 3.58617 0
M  V30 1882 H 179.836 -1.37519 4.83836 0
M  V30 1883 H 179.536 0.0415828 5.87585 0
M  V30 1884 H 181.06 -0.875764 6.04287 0
M  V30 1885 H 182.474 1.34646 5.57264 0
M  V30 1886 H 180.871 2.13688 5.60765 0
M  V30 1887 H 181.941 2.39284 4.21748 0
M  V30 1888 N 183.284 -1.43765 0.645699 0
M  V30 1889 C 184.509 -2.06767 0.161883 0
M  V30 1890 C 184.934 -1.48034 -1.16049 0
M  V30 1891 O 184.292 -0.587369 -1.71522 0
M  V30 1892 C 184.34 -3.60519 0.0762003 0
M  V30 1893 O 183.444 -4.00982 -0.963721 0
M  V30 1894 H 182.785 -0.657675 0.091429 0
M  V30 1895 H 185.315 -1.84397 0.886499 0
M  V30 1896 H 185.325 -4.07853 -0.109604 0
M  V30 1897 H 184 -4.02646 1.04157 0
M  V30 1898 H 182.577 -3.65253 -0.751312 0
M  V30 1899 N 184.763 -0.387143 -1.52771 0
M  V30 1900 C 185.988 0.198407 -2.06449 0
M  V30 1901 C 186.413 1.39918 -1.25716 0
M  V30 1902 O 185.771 1.79099 -0.281657 0
M  V30 1903 C 185.819 0.548893 -3.56398 0
M  V30 1904 O 184.923 1.64315 -3.78252 0
M  V30 1905 H 184.264 0.0237731 -0.663574 0
M  V30 1906 H 186.794 -0.553989 -1.96957 0
M  V30 1907 H 186.804 0.813812 -3.99801 0
M  V30 1908 H 185.479 -0.329005 -4.14597 0
M  V30 1909 H 184.056 1.37211 -3.46738 0
M  V30 1910 N 186.241 1.57166 -0.116904 0
M  V30 1911 C 187.652 1.82169 0.408809 0
M  V30 1912 C 188.003 1.03393 1.66746 0
M  V30 1913 O 187.128 0.269886 2.1471 0
M  V30 1914 C 187.723 3.30429 0.748466 0
M  V30 1915 C 186.282 3.5612 1.21882 0
M  V30 1916 C 185.429 2.76374 0.226452 0
M  V30 1917 H 188.38 1.5497 -0.342063 0
M  V30 1918 H 188.401 3.44943 1.60607 0
M  V30 1919 H 187.913 3.87737 -0.167784 0
M  V30 1920 H 186.014 3.04168 2.15204 0
M  V30 1921 H 186.127 4.64705 1.16559 0
M  V30 1922 H 184.491 2.44515 0.713063 0
M  V30 1923 H 185.274 3.3644 -0.682859 0
M  V30 1924 N 187.719 -0.156864 1.56817 0
M  V30 1925 C 188.682 -1.17781 1.96622 0
M  V30 1926 C 189.682 -1.36401 0.851555 0
M  V30 1927 O 190.872 -1.33561 1.11836 0
M  V30 1928 C 188.004 -2.54008 2.27361 0
M  V30 1929 H 189.197 -0.836564 2.87996 0
M  V30 1930 H 186.75 -0.39985 1.51099 0
M  V30 1931 H 187.485 -2.9312 1.38748 0
M  V30 1932 H 187.27 -2.41856 3.08623 0
M  V30 1933 H 188.76 -3.27558 2.59029 0
M  V30 1934 N 189.197 -1.51736 -0.425897 0
M  V30 1935 C 190.145 -1.74464 -1.53834 0
M  V30 1936 C 191.139 -0.611241 -1.57988 0
M  V30 1937 O 192.345 -0.792899 -1.61596 0
M  V30 1938 H 188.72 -0.551437 -0.511293 0
M  V30 1939 H 190.691 -2.67694 -1.31843 0
M  V30 1940 C 189.44 -1.8972 -2.91379 0
M  V30 1941 H 188.763 -2.76344 -2.88919 0
M  V30 1942 H 190.203 -2.09629 -3.68553 0
M  V30 1943 C 188.662 -0.65992 -3.30374 0
M  V30 1944 O 189.192 0.180083 -4.01296 0
M  V30 1945 N 187.398 -0.500677 -2.86254 0
M  V30 1946 H 186.945 -1.18532 -2.28709 0
M  V30 1947 H 186.903 0.325903 -3.12706 0
M  V30 1948 N 190.675 0.682077 -1.42076 0
M  V30 1949 C 191.605 1.80796 -1.47767 0
M  V30 1950 C 192.586 1.6677 -0.334954 0
M  V30 1951 O 193.771 1.863 -0.548264 0
M  V30 1952 C 190.901 3.19038 -1.37229 0
M  V30 1953 C 189.855 3.47789 -2.49453 0
M  V30 1954 C 189.181 4.8553 -2.23975 0
M  V30 1955 C 190.481 3.45411 -3.91776 0
M  V30 1956 H 192.175 1.7629 -2.41997 0
M  V30 1957 H 189.721 0.846721 -1.16476 0
M  V30 1958 H 191.674 3.97528 -1.39821 0
M  V30 1959 H 190.398 3.24204 -0.394907 0
M  V30 1960 H 189.057 2.71657 -2.46166 0
M  V30 1961 H 188.705 4.87337 -1.24547 0
M  V30 1962 H 188.405 5.0573 -2.99184 0
M  V30 1963 H 189.929 5.66312 -2.28304 0
M  V30 1964 H 191.343 4.13882 -3.96705 0
M  V30 1965 H 189.74 3.77145 -4.66778 0
M  V30 1966 H 190.81 2.44122 -4.18966 0
M  V30 1967 N 192.153 1.28127 0.917671 0
M  V30 1968 C 193.378 1.18007 1.70555 0
M  V30 1969 C 193.803 -0.258257 1.86319 0
M  V30 1970 O 193.161 -1.1869 1.37049 0
M  V30 1971 C 193.209 1.87948 3.07746 0
M  V30 1972 O 192.313 1.18427 3.9503 0
M  V30 1973 H 191.654 0.409867 0.522403 0
M  V30 1974 H 194.184 1.69379 1.1477 0
M  V30 1975 H 194.194 1.95701 3.58001 0
M  V30 1976 H 192.869 2.92573 2.95591 0
M  V30 1977 H 191.446 1.18811 3.53466 0
M  V30 1978 N 193.631 -1.12557 1.10312 0
M  V30 1979 C 194.594 -2.16434 0.75424 0
M  V30 1980 C 195.594 -1.59278 -0.220685 0
M  V30 1981 O 196.784 -1.742 0.00230591 0
M  V30 1982 C 193.916 -3.40699 0.116987 0
M  V30 1983 H 195.109 -2.48811 1.67431 0
M  V30 1984 H 192.662 -1.27542 0.903475 0
M  V30 1985 H 193.397 -3.13921 -0.813877 0
M  V30 1986 H 193.182 -3.83459 0.818613 0
M  V30 1987 H 194.672 -4.17451 -0.111387 0
M  V30 1988 N 195.109 -0.891671 -1.2995 0
M  V30 1989 C 196.334 -0.527932 -2.00568 0
M  V30 1990 C 196.759 0.877969 -1.66353 0
M  V30 1991 O 196.117 1.58301 -0.883762 0
M  V30 1992 C 196.165 -0.717745 -3.53385 0
M  V30 1993 O 195.269 0.233376 -4.11739 0
M  V30 1994 H 194.61 -0.20722 -0.630837 0
M  V30 1995 H 197.14 -1.20105 -1.65638 0
M  V30 1996 H 197.15 -0.619307 -4.03272 0
M  V30 1997 H 195.825 -1.74276 -3.77625 0
M  V30 1998 H 194.402 0.0880706 -3.72796 0
M  V30 1999 N 196.587 1.43421 -0.653314 0
M  V30 2000 C 197.833 2.02111 -0.166992 0
M  V30 2001 C 198.166 1.51423 1.21592 0
M  V30 2002 O 197.441 0.707389 1.8118 0
M  V30 2003 C 197.724 3.5966 -0.177948 0
M  V30 2004 C 197.577 4.20579 -1.59478 0
M  V30 2005 C 198.896 4.37413 0.4856 0
M  V30 2006 H 196.015 0.734374 -0.0621557 0
M  V30 2007 H 198.657 1.70717 -0.834016 0
M  V30 2008 H 196.807 3.86537 0.390032 0
M  V30 2009 H 198.479 4.04732 -2.21336 0
M  V30 2010 H 196.722 3.77226 -2.14204 0
M  V30 2011 H 197.393 5.29665 -1.5543 0
M  V30 2012 H 199.869 4.161 0.00234528 0
M  V30 2013 H 198.745 5.47075 0.447207 0
M  V30 2014 H 199.006 4.13672 1.55974 0
M  V30 2015 N 198.065 0.39524 1.52563 0
M  V30 2016 C 199.028 -0.425001 2.25225 0
M  V30 2017 C 200.028 -0.985266 1.27079 0
M  V30 2018 O 201.218 -0.866332 1.5113 0
M  V30 2019 C 198.35 -1.59686 3.01186 0
M  V30 2020 H 199.543 0.211233 2.99155 0
M  V30 2021 H 197.096 0.147472 1.55603 0
M  V30 2022 H 197.831 -2.27035 2.31572 0
M  V30 2023 H 197.616 -1.20176 3.73229 0
M  V30 2024 H 199.106 -2.17743 3.5634 0
M  V30 2025 N 199.544 -1.57102 0.125237 0
M  V30 2026 C 200.772 -1.99761 -0.538797 0
M  V30 2027 C 201.187 -1.00503 -1.59827 0
M  V30 2028 O 200.544 0.00119474 -1.825 0
M  V30 2029 C 200.595 -3.42408 -1.15927 0
M  V30 2030 O 200.316 -4.37869 -0.142143 0
M  V30 2031 C 201.817 -4.00232 -1.90602 0
M  V30 2032 H 199.037 -0.655772 -0.14214 0
M  V30 2033 H 201.581 -2.03383 0.213413 0
M  V30 2034 H 199.736 -3.39706 -1.86223 0
M  V30 2035 H 200.15 -5.21128 -0.593775 0
M  V30 2036 H 201.624 -5.02105 -2.29335 0
M  V30 2037 H 202.101 -3.39721 -2.78363 0
M  V30 2038 H 202.707 -4.06499 -1.25055 0
M  V30 2039 N 201.022 0.148545 -1.56898 0
M  V30 2040 C 202.268 0.862694 -1.83536 0
M  V30 2041 C 202.601 1.80889 -0.706604 0
M  V30 2042 O 201.876 1.92328 0.289885 0
M  V30 2043 C 202.159 1.63853 -3.20662 0
M  V30 2044 C 202.012 0.713925 -4.44098 0
M  V30 2045 C 203.331 2.60133 -3.54991 0
M  V30 2046 H 200.45 0.312179 -0.667618 0
M  V30 2047 H 203.092 0.127953 -1.89569 0
M  V30 2048 H 201.242 2.26489 -3.1565 0
M  V30 2049 H 202.914 0.098686 -4.61194 0
M  V30 2050 H 201.157 0.0234019 -4.33794 0
M  V30 2051 H 201.828 1.29278 -5.36648 0
M  V30 2052 H 204.304 2.07616 -3.60603 0
M  V30 2053 H 203.18 3.11468 -4.51972 0
M  V30 2054 H 203.441 3.41417 -2.80868 0
M  V30 2055 N 202.5 1.5196 0.417844 0
M  V30 2056 C 203.432 1.70895 1.52733 0
M  V30 2057 C 204.445 0.589405 1.51756 0
M  V30 2058 O 205.634 0.864312 1.56179 0
M  V30 2059 C 202.734 1.72627 2.91639 0
M  V30 2060 C 201.907 3.01479 3.16905 0
M  V30 2061 C 200.966 2.95139 4.35637 0
M  V30 2062 O 199.992 3.69059 4.3334 0
M  V30 2063 N 201.194 2.12328 5.40275 0
M  V30 2064 H 203.959 2.66612 1.36888 0
M  V30 2065 H 201.52 1.50089 0.607037 0
M  V30 2066 H 203.512 1.65928 3.6912 0
M  V30 2067 H 202.082 0.844216 3.00985 0
M  V30 2068 H 201.302 3.21895 2.27546 0
M  V30 2069 H 202.59 3.86736 3.30625 0
M  V30 2070 H 201.988 1.51685 5.44985 0
M  V30 2071 H 200.545 2.11494 6.16534 0
M  V30 2072 N 203.978 -0.674533 1.42435 0
M  V30 2073 C 204.908 -1.80009 1.48724 0
M  V30 2074 C 205.889 -1.6659 0.343793 0
M  V30 2075 O 207.074 -1.86007 0.558137 0
M  V30 2076 C 204.204 -3.18306 1.38919 0
M  V30 2077 C 203.158 -3.46461 2.51294 0
M  V30 2078 C 202.484 -4.84335 2.26547 0
M  V30 2079 C 203.784 -3.43328 3.93603 0
M  V30 2080 H 205.478 -1.75004 2.42928 0
M  V30 2081 H 203.024 -0.840533 1.16923 0
M  V30 2082 H 204.977 -3.9678 1.41927 0
M  V30 2083 H 203.701 -3.2399 0.412094 0
M  V30 2084 H 202.36 -2.70348 2.47604 0
M  V30 2085 H 202.008 -4.86669 1.2713 0
M  V30 2086 H 201.708 -5.04136 3.01861 0
M  V30 2087 H 203.232 -5.65094 2.31304 0
M  V30 2088 H 204.646 -4.11772 3.98894 0
M  V30 2089 H 203.043 -3.74664 4.68771 0
M  V30 2090 H 204.113 -2.41897 4.20255 0
M  V30 2091 N 205.456 -1.28612 -0.910864 0
M  V30 2092 C 206.867 -1.14406 -1.47541 0
M  V30 2093 C 207.218 0.264901 -1.94403 0
M  V30 2094 O 206.343 1.15942 -1.82719 0
M  V30 2095 C 206.938 -2.07073 -2.68153 0
M  V30 2096 C 205.497 -1.96923 -3.20778 0
M  V30 2097 C 204.644 -1.98646 -1.93481 0
M  V30 2098 H 207.595 -1.41259 -0.723291 0
M  V30 2099 H 207.616 -1.63642 -3.43514 0
M  V30 2100 H 207.128 -3.09611 -2.34015 0
M  V30 2101 H 205.229 -0.97433 -3.59635 0
M  V30 2102 H 205.342 -2.84026 -3.85832 0
M  V30 2103 H 203.706 -1.43093 -2.10705 0
M  V30 2104 H 204.489 -3.02868 -1.61634 0
M  V30 2105 N 206.934 1.1197 -1.10907 0
M  V30 2106 C 207.866 2.17592 -0.720175 0
M  V30 2107 C 208.879 1.60938 0.245495 0
M  V30 2108 O 210.068 1.78476 0.0292245 0
M  V30 2109 C 207.168 3.38873 -0.0427917 0
M  V30 2110 C 206.341 4.25006 -1.03388 0
M  V30 2111 C 205.4 5.24774 -0.387075 0
M  V30 2112 O 204.426 5.59631 -1.03934 0
M  V30 2113 N 205.628 5.74208 0.852407 0
M  V30 2114 H 208.393 2.51567 -1.62893 0
M  V30 2115 H 205.954 1.27439 -0.998543 0
M  V30 2116 H 207.946 4.02703 0.401501 0
M  V30 2117 H 206.516 3.03007 0.768456 0
M  V30 2118 H 205.736 3.57716 -1.65629 0
M  V30 2119 H 207.024 4.79397 -1.70458 0
M  V30 2120 H 206.422 5.48062 1.40161 0
M  V30 2121 H 204.979 6.39901 1.23977 0
M  V30 2122 N 208.412 0.89855 1.29475 0
M  V30 2123 C 209.344 0.332726 2.26772 0
M  V30 2124 C 210.357 -0.520323 1.54261 0
M  V30 2125 O 211.546 -0.337668 1.75277 0
M  V30 2126 C 208.646 -0.544334 3.345 0
M  V30 2127 C 207.819 0.282728 4.36485 0
M  V30 2128 C 206.878 -0.526982 5.23555 0
M  V30 2129 O 205.904 0.0551165 5.69173 0
M  V30 2130 N 207.106 -1.83331 5.5079 0
M  V30 2131 H 209.871 1.16897 2.75962 0
M  V30 2132 H 207.432 0.762919 1.42798 0
M  V30 2133 H 209.424 -1.09239 3.89678 0
M  V30 2134 H 207.994 -1.28127 2.85136 0
M  V30 2135 H 207.214 1.01221 3.80983 0
M  V30 2136 H 208.502 0.84918 5.01664 0
M  V30 2137 H 207.9 -2.32898 5.15534 0
M  V30 2138 H 206.457 -2.32852 6.08788 0
M  V30 2139 N 209.89 -1.43072 0.660911 0
M  V30 2140 C 211.167 -1.95307 0.107017 0
M  V30 2141 C 211.547 -1.60192 -1.37484 0
M  V30 2142 O 210.895 -0.890949 -2.10415 0
M  V30 2143 C 211.105 -3.47124 0.361402 0
M  V30 2144 C 212.453 -4.23738 0.270455 0
M  V30 2145 O 213.477 -3.54981 0.294382 0
M  V30 2146 O 212.336 -5.46131 0.200737 0
M  V30 2147 H 209.43 -0.826984 -0.00517729 0
M  V30 2148 H 211.976 -1.52972 0.734681 0
M  V30 2149 H 210.748 -3.65837 1.38848 0
M  V30 2150 H 210.371 -3.96475 -0.298953 0
M  V30 2151 N 211.368 -0.403325 -1.52352 0
M  V30 2152 C 212.3 0.4603 -2.2453 0
M  V30 2153 C 213.313 1.01505 -1.27282 0
M  V30 2154 O 214.502 0.914982 -1.53266 0
M  V30 2155 C 211.602 1.65208 -2.95905 0
M  V30 2156 C 210.775 1.22224 -4.19976 0
M  V30 2157 C 209.834 2.28028 -4.74226 0
M  V30 2158 O 208.86 1.88857 -5.36956 0
M  V30 2159 N 210.062 3.6012 -4.55295 0
M  V30 2160 H 212.827 -0.158156 -2.99282 0
M  V30 2161 H 210.388 -0.230402 -1.60252 0
M  V30 2162 H 212.38 2.35541 -3.29093 0
M  V30 2163 H 210.95 2.17658 -2.24374 0
M  V30 2164 H 210.17 0.34725 -3.92668 0
M  V30 2165 H 211.458 0.911924 -5.00561 0
M  V30 2166 H 210.856 3.94698 -4.05253 0
M  V30 2167 H 209.413 4.26447 -4.92936 0
M  V30 2168 N 212.846 1.57033 -0.133567 0
M  V30 2169 C 214.257 1.82593 0.389464 0
M  V30 2170 C 214.608 1.05156 1.6564 0
M  V30 2171 O 213.733 0.292644 2.14412 0
M  V30 2172 C 214.328 3.31204 0.713377 0
M  V30 2173 C 212.887 3.57393 1.18098 0
M  V30 2174 C 212.034 2.76598 0.197126 0
M  V30 2175 H 214.985 1.54598 -0.358481 0
M  V30 2176 H 215.006 3.46627 1.56939 0
M  V30 2177 H 214.518 3.87537 -0.2089 0
M  V30 2178 H 212.619 3.06433 2.11966 0
M  V30 2179 H 212.732 4.65915 1.11624 0
M  V30 2180 H 211.096 2.45257 0.687088 0
M  V30 2181 H 211.879 3.35697 -0.718504 0
M  V30 2182 N 214.325 -0.140222 1.56975 0
M  V30 2183 C 215.571 -0.852949 1.83991 0
M  V30 2184 C 215.904 -1.80512 0.716187 0
M  V30 2185 O 215.179 -1.92479 -0.279681 0
M  V30 2186 C 215.462 -1.6215 3.21527 0
M  V30 2187 C 215.315 -0.690363 4.4447 0
M  V30 2188 C 216.634 -2.58247 3.56366 0
M  V30 2189 H 213.753 -0.308634 0.669264 0
M  V30 2190 H 216.395 -0.117898 1.89634 0
M  V30 2191 H 214.545 -2.24812 3.16847 0
M  V30 2192 H 216.217 -0.0742264 4.6124 0
M  V30 2193 H 214.46 -0.000396433 4.338 0
M  V30 2194 H 215.131 -1.2643 5.37326 0
M  V30 2195 H 217.607 -2.05701 3.61699 0
M  V30 2196 H 216.483 -3.09067 4.53617 0
M  V30 2197 H 216.744 -3.39923 2.82674 0
M  V30 2198 N 215.803 -1.52179 -0.40978 0
M  V30 2199 C 217.214 -1.58377 -0.988615 0
M  V30 2200 C 217.565 -0.423879 -1.91566 0
M  V30 2201 O 216.69 0.455844 -2.11544 0
M  V30 2202 C 217.285 -2.87044 -1.79976 0
M  V30 2203 C 215.844 -2.95722 -2.32863 0
M  V30 2204 C 214.991 -2.53309 -1.12828 0
M  V30 2205 H 217.942 -1.57558 -0.190039 0
M  V30 2206 H 217.963 -2.7236 -2.65707 0
M  V30 2207 H 217.475 -3.71444 -1.12478 0
M  V30 2208 H 215.576 -2.15814 -3.03735 0
M  V30 2209 H 215.689 -3.99951 -2.63773 0
M  V30 2210 H 214.053 -2.07142 -1.48204 0
M  V30 2211 H 214.836 -3.40082 -0.46897 0
M  V30 2212 N 217.281 0.66697 -1.42791 0
M  V30 2213 C 218.231 1.77313 -1.43332 0
M  V30 2214 C 219.215 1.5801 -0.303586 0
M  V30 2215 O 220.407 1.68356 -0.546385 0
M  V30 2216 C 217.536 3.15822 -1.34578 0
M  V30 2217 C 216.622 3.40721 -2.52528 0
M  V30 2218 N 217.013 3.36162 -3.77927 0
M  V30 2219 C 215.311 3.71387 -2.46956 0
M  V30 2220 C 216.012 3.60762 -4.56318 0
M  V30 2221 N 214.988 3.81908 -3.86843 0
M  V30 2222 H 218.79 1.72193 -2.38174 0
M  V30 2223 H 216.304 0.868114 -1.3725 0
M  V30 2224 H 218.301 3.951 -1.33048 0
M  V30 2225 H 216.961 3.22133 -0.407453 0
M  V30 2226 H 217.972 3.15885 -4.10411 0
M  V30 2227 H 214.649 3.84897 -1.61743 0
M  V30 2228 H 216.039 3.63132 -5.65318 0
M  V30 2229 N 218.759 1.29093 0.90403 0
M  V30 2230 C 220.007 1.16583 1.65085 0
M  V30 2231 C 220.328 -0.283933 1.92922 0
M  V30 2232 O 219.598 -1.19509 1.55224 0
M  V30 2233 H 218.178 0.428467 0.611903 0
M  V30 2234 H 220.84 1.61959 1.08422 0
M  V30 2235 H 219.936 1.71266 2.6091 0
M  V30 2236 N 220.237 -1.11381 1.11499 0
M  V30 2237 C 221.465 -1.86934 0.88675 0
M  V30 2238 C 221.88 -1.80195 -0.563476 0
M  V30 2239 O 221.237 -1.18367 -1.38908 0
M  V30 2240 C 221.288 -3.35722 1.34064 0
M  V30 2241 O 221.009 -3.4232 2.73401 0
M  V30 2242 C 222.51 -4.2818 1.14791 0
M  V30 2243 H 219.73 -0.591117 0.317523 0
M  V30 2244 H 222.274 -1.40865 1.48248 0
M  V30 2245 H 220.429 -3.79294 0.788355 0
M  V30 2246 H 220.843 -4.34971 2.93087 0
M  V30 2247 H 222.317 -5.30817 1.5145 0
M  V30 2248 H 222.794 -4.39113 0.0875279 0
M  V30 2249 H 223.4 -3.90402 1.68721 0
M  V30 2250 N 221.715 -0.905404 -1.28997 0
M  V30 2251 C 222.647 -0.344748 -2.26592 0
M  V30 2252 C 223.66 0.512135 -1.54535 0
M  V30 2253 O 224.849 0.328368 -1.75454 0
M  V30 2254 C 221.949 0.526587 -3.34784 0
M  V30 2255 C 221.122 -0.305871 -4.36329 0
M  V30 2256 C 220.181 0.499209 -5.23827 0
M  V30 2257 O 219.207 -0.0853004 -5.69136 0
M  V30 2258 N 220.409 1.80408 -5.51755 0
M  V30 2259 H 223.174 -1.18359 -2.75338 0
M  V30 2260 H 220.735 -0.770481 -1.42391 0
M  V30 2261 H 222.727 1.07171 -3.90252 0
M  V30 2262 H 221.297 1.26613 -2.85811 0
M  V30 2263 H 220.517 -1.0324 -3.80441 0
M  V30 2264 H 221.805 -0.875773 -5.01206 0
M  V30 2265 H 221.203 2.3016 -5.16762 0
M  V30 2266 H 219.76 2.29621 -6.10014 0
M  V30 2267 N 223.193 1.4272 -0.668489 0
M  V30 2268 C 224.433 2.03497 -0.19194 0
M  V30 2269 C 224.797 1.51684 1.17712 0
M  V30 2270 O 225.998 2.04205 1.74796 0
M  V30 2271 C 224.269 3.56734 -0.218032 0
M  V30 2272 S 225.828 4.38395 0.188438 0
M  V30 2273 H 222.646 0.706542 -0.0794959 0
M  V30 2274 H 225.248 1.74563 -0.880235 0
M  V30 2275 H 223.952 3.91943 -1.2169 0
M  V30 2276 H 223.483 3.90333 0.490303 0
M  V30 2277 H 225.498 4.75345 1.42345 0
M  V30 2278 N 224.671 0.411399 1.52136 0
M  V30 2279 C 225.601 -0.404015 2.29978 0
M  V30 2280 C 226.582 -1.04412 1.34284 0
M  V30 2281 O 227.767 -1.0527 1.63192 0
M  V30 2282 C 224.897 -1.5197 3.12286 0
M  V30 2283 C 223.851 -1.00448 4.16046 0
M  V30 2284 C 223.177 -2.21393 4.86712 0
M  V30 2285 C 224.477 -0.0569336 5.22269 0
M  V30 2286 H 226.171 0.245529 2.98392 0
M  V30 2287 H 223.717 0.119525 1.43503 0
M  V30 2288 H 225.67 -2.09715 3.6551 0
M  V30 2289 H 224.394 -2.19716 2.41646 0
M  V30 2290 H 223.053 -0.449421 3.63835 0
M  V30 2291 H 222.701 -2.87699 4.12599 0
M  V30 2292 H 222.401 -1.87571 5.56858 0
M  V30 2293 H 223.925 -2.7974 5.4275 0
M  V30 2294 H 225.339 -0.54325 5.7072 0
M  V30 2295 H 223.736 0.192594 5.99791 0
M  V30 2296 H 224.806 0.887663 4.76706 0
M  V30 2297 N 226.149 -1.5696 0.141893 0
M  V30 2298 C 227.112 -2.15316 -0.785587 0
M  V30 2299 C 228.112 -1.09366 -1.1788 0
M  V30 2300 O 229.302 -1.35031 -1.10056 0
M  V30 2301 C 226.434 -2.71211 -2.06537 0
M  V30 2302 H 227.627 -2.98608 -0.278041 0
M  V30 2303 H 225.18 -1.5593 -0.107519 0
M  V30 2304 H 225.915 -1.91571 -2.6167 0
M  V30 2305 H 225.7 -3.4872 -1.79268 0
M  V30 2306 H 227.19 -3.16189 -2.72789 0
M  V30 2307 N 227.627 0.131896 -1.57047 0
M  V30 2308 C 228.56 1.19236 -1.94571 0
M  V30 2309 C 229.538 1.40782 -0.813576 0
M  V30 2310 O 230.722 1.55148 -1.07058 0
M  V30 2311 C 227.849 2.54858 -2.23081 0
M  V30 2312 C 226.895 2.49817 -3.45679 0
M  V30 2313 S 227.728 1.95036 -4.98719 0
M  V30 2314 C 228.884 3.32357 -5.30367 0
M  V30 2315 H 229.117 0.872297 -2.84215 0
M  V30 2316 H 226.65 0.338134 -1.50652 0
M  V30 2317 H 228.608 3.32898 -2.40185 0
M  V30 2318 H 227.269 2.84047 -1.34074 0
M  V30 2319 H 226.462 3.49688 -3.62952 0
M  V30 2320 H 226.064 1.79892 -3.27895 0
M  V30 2321 H 228.356 4.28525 -5.2476 0
M  V30 2322 H 229.299 3.19923 -6.31708 0
M  V30 2323 H 229.707 3.3019 -4.57859 0
M  V30 2324 N 229.106 1.52395 0.401703 0
M  V30 2325 C 230.354 1.66488 1.14569 0
M  V30 2326 C 230.675 0.400897 1.90835 0
M  V30 2327 O 229.945 -0.584415 1.8698 0
M  V30 2328 H 228.525 0.613672 0.425929 0
M  V30 2329 H 231.187 1.89464 0.457093 0
M  V30 2330 H 230.283 2.50942 1.85566 0
M  V30 2331 N 230.584 -0.659388 1.43143 0
M  V30 2332 C 231.83 -1.41984 1.45644 0
M  V30 2333 C 232.185 -1.92245 0.0771718 0
M  V30 2334 O 231.478 -1.68976 -0.903205 0
M  V30 2335 C 231.672 -2.62206 2.42864 0
M  V30 2336 C 231.501 -2.23711 3.90107 0
M  V30 2337 C 230.271 -2.12332 4.58523 0
M  V30 2338 C 232.469 -1.84384 4.80112 0
M  V30 2339 N 230.451 -1.67102 5.9072 0
M  V30 2340 C 231.822 -1.5019 6.01534 0
M  V30 2341 C 233.877 -1.71512 4.67427 0
M  V30 2342 C 232.58 -1.04414 7.11681 0
M  V30 2343 C 234.606 -1.27142 5.77572 0
M  V30 2344 C 233.968 -0.938808 6.98116 0
M  V30 2345 H 230.067 -0.515448 0.588079 0
M  V30 2346 H 232.651 -0.759409 1.79279 0
M  V30 2347 H 230.822 -3.25917 2.11265 0
M  V30 2348 H 232.554 -3.28877 2.35843 0
M  V30 2349 H 229.309 -2.31893 4.12944 0
M  V30 2350 H 229.733 -1.46866 6.60878 0
M  V30 2351 H 234.375 -1.95868 3.74694 0
M  V30 2352 H 232.093 -0.788061 8.04248 0
M  V30 2353 H 235.679 -1.17681 5.69774 0
M  V30 2354 H 234.559 -0.6007 7.81896 0
M  V30 2355 N 232.062 -1.29571 -0.897171 0
M  V30 2356 C 233.31 -1.17456 -1.64464 0
M  V30 2357 C 233.631 0.273698 -1.9307 0
M  V30 2358 O 232.901 1.18684 -1.55855 0
M  V30 2359 H 231.481 -0.431706 -0.609622 0
M  V30 2360 H 234.143 -1.62531 -1.07562 0
M  V30 2361 H 233.239 -1.72648 -2.59998 0
M  V30 2362 N 233.54 1.10788 -1.12088 0
M  V30 2363 C 234.956 1.34691 -0.856186 0
M  V30 2364 C 235.156 1.94791 0.515615 0
M  V30 2365 O 234.212 2.18524 1.26505 0
M  V30 2366 C 235.525 2.27208 -1.9697 0
M  V30 2367 C 237.073 2.40755 -2.00016 0
M  V30 2368 C 237.548 3.36598 -3.1059 0
M  V30 2369 N 239.039 3.44164 -3.10008 0
M  V30 2370 C 239.774 4.18284 -3.92206 0
M  V30 2371 N 239.27 4.95322 -4.84384 0
M  V30 2372 N 241.063 4.13865 -3.80357 0
M  V30 2373 H 233.214 0.70144 -2.00483 0
M  V30 2374 H 235.477 0.371405 -0.872217 0
M  V30 2375 H 235.183 1.90251 -2.958 0
M  V30 2376 H 235.057 3.27485 -1.87172 0
M  V30 2377 H 237.444 2.76982 -1.01808 0
M  V30 2378 H 237.525 1.40305 -2.13888 0
M  V30 2379 H 237.169 3.01096 -4.09028 0
M  V30 2380 H 237.099 4.36918 -2.93956 0
M  V30 2381 H 239.59 2.8922 -2.43228 0
M  V30 2382 H 239.903 5.49267 -5.43623 0
M  V30 2383 H 238.248 4.94459 -4.884 0
M  V30 2384 H 241.439 3.52773 -3.07683 0
M  V30 2385 H 241.612 4.71372 -4.44649 0
M  V30 2386 N 235.018 0.912232 1.28515 0
M  V30 2387 C 236.264 0.545405 1.95328 0
M  V30 2388 C 236.597 -0.908313 1.71649 0
M  V30 2389 O 235.872 -1.64575 1.03659 0
M  V30 2390 C 236.155 0.853483 3.4984 0
M  V30 2391 C 236.008 2.35982 3.82926 0
M  V30 2392 C 237.327 0.348589 4.38717 0
M  V30 2393 H 234.446 0.199626 0.709449 0
M  V30 2394 H 237.088 1.1412 1.5191 0
M  V30 2395 H 235.238 0.34643 3.86952 0
M  V30 2396 H 236.91 2.93738 3.55691 0
M  V30 2397 H 235.153 2.81543 3.30024 0
M  V30 2398 H 235.824 2.52593 4.90816 0
M  V30 2399 H 238.3 0.78294 4.08668 0
M  V30 2400 H 237.176 0.593242 5.45685 0
M  V30 2401 H 237.437 -0.751049 4.35674 0
M  V30 2402 N 236.496 -1.42363 0.676048 0
M  V30 2403 C 237.744 -2.01123 0.198437 0
M  V30 2404 C 238.065 -1.53731 -1.19966 0
M  V30 2405 O 237.335 -0.759518 -1.80577 0
M  V30 2406 H 235.915 -0.743678 0.0703721 0
M  V30 2407 H 238.577 -1.74263 0.872837 0
M  V30 2408 H 237.673 -3.11454 0.200686 0
M  V30 2409 N 237.974 -0.419461 -1.51915 0
M  V30 2410 C 238.937 0.389116 -2.25873 0
M  V30 2411 C 239.937 0.964924 -1.28631 0
M  V30 2412 O 241.127 0.842179 -1.52489 0
M  V30 2413 C 238.259 1.54874 -3.03689 0
M  V30 2414 H 239.452 -0.258799 -2.98781 0
M  V30 2415 H 237.005 -0.172209 -1.55348 0
M  V30 2416 H 237.74 2.23323 -2.35154 0
M  V30 2417 H 237.525 1.14223 -3.75094 0
M  V30 2418 H 239.015 2.12046 -3.59759 0
M  V30 2419 N 239.452 1.56882 -0.150215 0
M  V30 2420 C 240.402 2.13501 0.800071 0
M  V30 2421 C 241.386 1.06368 1.20726 0
M  V30 2422 O 242.578 1.32538 1.17314 0
M  V30 2423 C 239.707 2.76271 2.03787 0
M  V30 2424 C 238.793 3.90533 1.65364 0
M  V30 2425 N 239.184 4.96259 0.977794 0
M  V30 2426 C 237.482 4.013 1.94613 0
M  V30 2427 C 238.183 5.76286 0.791794 0
M  V30 2428 N 237.159 5.27163 1.32666 0
M  V30 2429 H 240.961 2.92615 0.274517 0
M  V30 2430 H 238.475 1.62319 0.0512144 0
M  V30 2431 H 240.472 3.15197 2.72867 0
M  V30 2432 H 239.132 1.98631 2.56857 0
M  V30 2433 H 240.143 5.13953 0.638193 0
M  V30 2434 H 236.82 3.3474 2.4951 0
M  V30 2435 H 238.21 6.71401 0.258894 0
M  V30 2436 N 240.93 -0.123565 1.57115 0
M  V30 2437 C 242.207 -0.862196 1.75572 0
M  V30 2438 C 242.587 -1.98279 0.724475 0
M  V30 2439 O 241.935 -2.27102 -0.252407 0
M  V30 2440 C 242.145 -1.38309 3.20424 0
M  V30 2441 C 243.493 -1.83724 3.82793 0
M  V30 2442 O 244.517 -1.47999 3.23998 0
M  V30 2443 O 243.376 -2.49685 4.86127 0
M  V30 2444 H 240.47 -0.409113 0.718718 0
M  V30 2445 H 243.016 -0.107661 1.69358 0
M  V30 2446 H 241.788 -0.578889 3.86994 0
M  V30 2447 H 241.411 -2.20046 3.31158 0
M  V30 2448 N 242.408 -1.52605 -0.393616 0
M  V30 2449 C 243.819 -1.59417 -0.971761 0
M  V30 2450 C 244.17 -0.444173 -1.91106 0
M  V30 2451 O 243.295 0.433382 -2.12016 0
M  V30 2452 C 243.89 -2.88936 -1.76921 0
M  V30 2453 C 242.449 -2.98175 -2.29714 0
M  V30 2454 C 241.596 -2.54491 -1.10135 0
M  V30 2455 H 244.547 -1.57751 -0.173317 0
M  V30 2456 H 244.568 -2.75163 -2.62804 0
M  V30 2457 H 244.08 -3.72616 -1.08532 0
M  V30 2458 H 242.181 -2.19024 -3.01429 0
M  V30 2459 H 242.294 -4.02726 -2.59517 0
M  V30 2460 H 240.658 -2.08702 -1.45999 0
M  V30 2461 H 241.441 -3.4056 -0.432874 0
M  V30 2462 N 243.887 0.651787 -1.4349 0
M  V30 2463 C 245.298 1.233 -1.40193 0
M  V30 2464 C 245.649 1.9591 -0.106727 0
M  V30 2465 O 244.774 2.01316 0.793773 0
M  V30 2466 C 245.369 2.24257 -2.53957 0
M  V30 2467 C 243.928 2.77852 -2.5392 0
M  V30 2468 C 243.075 1.52517 -2.3159 0
M  V30 2469 H 246.026 0.443717 -1.52371 0
M  V30 2470 H 246.047 3.0646 -2.25528 0
M  V30 2471 H 245.559 1.71382 -3.4821 0
M  V30 2472 H 243.66 3.34786 -1.63551 0
M  V30 2473 H 243.773 3.25299 -3.51735 0
M  V30 2474 H 242.137 1.79915 -1.80285 0
M  V30 2475 H 242.92 1.01574 -3.27929 0
M  V30 2476 N 245.365 1.30045 0.890287 0
M  V30 2477 C 246.328 1.15963 1.977 0
M  V30 2478 C 247.328 0.0923777 1.60534 0
M  V30 2479 O 248.518 0.340071 1.70848 0
M  V30 2480 C 245.65 0.775451 3.31963 0
M  V30 2481 H 246.843 2.12502 2.11619 0
M  V30 2482 H 244.396 1.13366 1.07601 0
M  V30 2483 H 245.131 -0.189671 3.23745 0
M  V30 2484 H 244.916 1.54668 3.60306 0
M  V30 2485 H 246.406 0.700251 4.11687 0
M  V30 2486 N 246.843 -1.10192 1.12674 0
M  V30 2487 C 247.775 -2.16418 0.754701 0
M  V30 2488 C 248.788 -1.61309 -0.21986 0
M  V30 2489 O 249.977 -1.785 -0.000826841 0
M  V30 2490 C 247.077 -3.38762 0.096698 0
M  V30 2491 C 246.25 -4.23307 1.10136 0
M  V30 2492 C 245.309 -5.24092 0.470513 0
M  V30 2493 O 244.335 -5.57906 1.12824 0
M  V30 2494 N 245.537 -5.75491 -0.760948 0
M  V30 2495 H 248.302 -2.48943 1.66875 0
M  V30 2496 H 245.863 -1.25834 1.01869 0
M  V30 2497 H 247.855 -4.03291 -0.337384 0
M  V30 2498 H 246.425 -3.04192 -0.720153 0
M  V30 2499 H 245.645 -3.55036 1.71299 0
M  V30 2500 H 246.933 -4.76624 1.78064 0
M  V30 2501 H 246.331 -5.50222 -1.31424 0
M  V30 2502 H 244.888 -6.41792 -1.13781 0
M  V30 2503 N 248.321 -0.919034 -1.28029 0
M  V30 2504 C 249.567 -0.555757 -1.95036 0
M  V30 2505 C 249.9 0.899198 -1.72128 0
M  V30 2506 O 249.175 1.64023 -1.04531 0
M  V30 2507 C 249.458 -0.872024 -3.49382 0
M  V30 2508 C 249.311 -2.3801 -3.81669 0
M  V30 2509 C 250.63 -0.37185 -4.38526 0
M  V30 2510 H 247.749 -0.203386 -0.708381 0
M  V30 2511 H 250.391 -1.14924 -1.51303 0
M  V30 2512 H 248.541 -0.366946 -3.86763 0
M  V30 2513 H 250.213 -2.9562 -3.54128 0
M  V30 2514 H 248.456 -2.83289 -3.28526 0
M  V30 2515 H 249.127 -2.55192 -4.8947 0
M  V30 2516 H 251.603 -0.804602 -4.08247 0
M  V30 2517 H 250.479 -0.622173 -5.45362 0
M  V30 2518 H 250.74 0.727934 -4.36066 0
M  V30 2519 N 249.799 1.42003 -0.683588 0
M  V30 2520 C 250.729 2.33487 -0.024866 0
M  V30 2521 C 251.71 1.51163 0.779975 0
M  V30 2522 O 252.895 1.79739 0.735362 0
M  V30 2523 C 250.025 3.3487 0.920836 0
M  V30 2524 C 248.979 4.27414 0.223958 0
M  V30 2525 C 248.305 5.19074 1.2832 0
M  V30 2526 C 249.605 5.14445 -0.90242 0
M  V30 2527 H 251.299 2.88819 -0.788921 0
M  V30 2528 H 248.845 1.38873 -0.38083 0
M  V30 2529 H 250.798 3.97787 1.39081 0
M  V30 2530 H 249.522 2.77861 1.71642 0
M  V30 2531 H 248.181 3.65904 -0.225864 0
M  V30 2532 H 247.829 4.58387 2.071 0
M  V30 2533 H 247.529 5.81822 0.821995 0
M  V30 2534 H 249.053 5.84867 1.75392 0
M  V30 2535 H 250.467 5.70998 -0.513272 0
M  V30 2536 H 248.864 5.86072 -1.28997 0
M  V30 2537 H 249.934 4.52322 -1.74737 0
M  V30 2538 N 251.277 0.427512 1.51691 0
M  V30 2539 C 252.209 -0.424521 2.25234 0
M  V30 2540 C 253.222 -0.994671 1.2888 0
M  V30 2541 O 254.411 -0.890483 1.54702 0
M  V30 2542 C 251.511 -1.60479 2.98496 0
M  V30 2543 C 250.684 -1.15527 4.21868 0
M  V30 2544 C 249.743 -2.20454 4.77793 0
M  V30 2545 O 248.769 -1.8029 5.39893 0
M  V30 2546 N 249.971 -3.52831 4.60967 0
M  V30 2547 H 252.736 0.205749 2.98993 0
M  V30 2548 H 250.297 0.255867 1.59865 0
M  V30 2549 H 252.289 -2.30276 3.32799 0
M  V30 2550 H 250.859 -2.14061 2.27809 0
M  V30 2551 H 250.079 -0.284736 3.9317 0
M  V30 2552 H 251.367 -0.832173 5.01949 0
M  V30 2553 H 250.765 -3.88201 4.11481 0
M  V30 2554 H 249.322 -4.18551 4.99658 0
M  V30 2555 N 252.755 -1.56801 0.158532 0
M  V30 2556 C 253.665 -2.20916 -0.789518 0
M  V30 2557 C 254.681 -1.1969 -1.26294 0
M  V30 2558 O 255.857 -1.52308 -1.31773 0
M  V30 2559 C 252.922 -2.82727 -2.00665 0
M  V30 2560 C 251.983 -3.99114 -1.58134 0
M  V30 2561 C 251.216 -4.57968 -2.74045 0
M  V30 2562 O 251.439 -4.15704 -3.90572 0
M  V30 2563 O 250.373 -5.48047 -2.48855 0
M  V30 2564 H 254.199 -3.02464 -0.273681 0
M  V30 2565 H 251.784 -1.4924 -0.0690548 0
M  V30 2566 H 253.666 -3.21968 -2.71872 0
M  V30 2567 H 252.341 -2.04184 -2.51179 0
M  V30 2568 H 251.248 -3.64567 -0.839155 0
M  V30 2569 H 252.581 -4.79212 -1.12325 0
M  V30 2570 N 254.233 0.115231 -1.57178 0
M  V30 2571 C 255.163 1.1423 -2.03651 0
M  V30 2572 C 256.144 1.42967 -0.921655 0
M  V30 2573 O 257.329 1.53343 -1.19162 0
M  V30 2574 C 254.459 2.4675 -2.44401 0
M  V30 2575 C 253.413 2.32467 -3.59365 0
M  V30 2576 C 252.739 3.69984 -3.86026 0
M  V30 2577 C 254.039 1.78203 -4.90959 0
M  V30 2578 H 255.733 0.755749 -2.89705 0
M  V30 2579 H 253.279 0.362093 -1.39373 0
M  V30 2580 H 255.232 3.18854 -2.75517 0
M  V30 2581 H 253.956 2.87302 -1.55322 0
M  V30 2582 H 252.615 1.62811 -3.28463 0
M  V30 2583 H 252.263 4.08028 -2.94147 0
M  V30 2584 H 251.963 3.61279 -4.63412 0
M  V30 2585 H 253.487 4.43587 -4.19599 0
M  V30 2586 H 254.901 2.40128 -5.20587 0
M  V30 2587 H 253.298 1.8031 -5.72371 0
M  V30 2588 H 254.368 0.739876 -4.79222 0
M  V30 2589 N 255.711 1.52812 0.385517 0
M  V30 2590 C 256.659 1.78482 1.49155 0
M  V30 2591 C 257.653 0.652914 1.56312 0
M  V30 2592 O 258.859 0.835464 1.59436 0
M  V30 2593 H 255.234 0.5648 0.496493 0
M  V30 2594 H 257.205 2.71095 1.24699 0
M  V30 2595 C 255.954 1.97378 2.86247 0
M  V30 2596 H 255.277 2.83907 2.81491 0
M  V30 2597 H 256.717 2.19327 3.62866 0
M  V30 2598 C 255.176 0.74728 3.28508 0
M  V30 2599 O 255.706 -0.0736232 4.01633 0
M  V30 2600 N 253.912 0.576396 2.84826 0
M  V30 2601 H 253.459 1.24555 2.25486 0
M  V30 2602 H 253.417 -0.24288 3.1346 0
M  V30 2603 N 257.189 -0.644168 1.43834 0
M  V30 2604 C 258.435 -1.40603 1.46146 0
M  V30 2605 C 258.768 -1.93997 0.0887717 0
M  V30 2606 O 258.043 -1.72854 -0.891724 0
M  V30 2607 C 258.326 -2.58086 2.51124 0
M  V30 2608 C 258.179 -2.10126 3.97702 0
M  V30 2609 C 259.498 -3.60291 2.52742 0
M  V30 2610 H 256.617 -0.509905 0.532134 0
M  V30 2611 H 259.259 -0.729502 1.75437 0
M  V30 2612 H 257.409 -3.15801 2.26278 0
M  V30 2613 H 259.081 -1.57342 4.33637 0
M  V30 2614 H 257.324 -1.41419 4.10101 0
M  V30 2615 H 257.995 -2.94649 4.66783 0
M  V30 2616 H 260.471 -3.12352 2.7491 0
M  V30 2617 H 259.347 -4.40032 3.28121 0
M  V30 2618 H 259.608 -4.1349 1.56455 0
M  V30 2619 N 258.668 -1.30515 -0.883378 0
M  V30 2620 C 259.896 -1.22359 -1.66841 0
M  V30 2621 C 260.311 0.213296 -1.87591 0
M  V30 2622 O 259.668 1.14075 -1.42454 0
M  V30 2623 C 259.719 -1.95011 -3.04389 0
M  V30 2624 O 259.44 -3.3309 -2.84575 0
M  V30 2625 C 260.941 -1.93532 -3.98824 0
M  V30 2626 H 258.161 -0.423371 -0.520575 0
M  V30 2627 H 260.705 -1.72167 -1.10357 0
M  V30 2628 H 258.86 -1.48997 -3.57601 0
M  V30 2629 H 259.274 -3.69907 -3.71846 0
M  V30 2630 H 260.748 -2.48902 -4.92699 0
M  V30 2631 H 261.225 -0.914627 -4.29571 0
M  V30 2632 H 261.831 -2.39364 -3.51547 0
M  V30 2633 N 260.146 1.09593 -1.13257 0
M  V30 2634 C 261.392 1.82003 -0.89458 0
M  V30 2635 C 261.725 1.85402 0.577906 0
M  V30 2636 O 261 1.32099 1.42759 0
M  V30 2637 C 261.283 3.28237 -1.48096 0
M  V30 2638 C 261.136 3.3312 -3.02244 0
M  V30 2639 C 262.455 4.24871 -1.14774 0
M  V30 2640 H 259.574 0.66077 -0.326424 0
M  V30 2641 H 262.216 1.28389 -1.40058 0
M  V30 2642 H 260.366 3.74024 -1.05062 0
M  V30 2643 H 262.038 2.95748 -3.54021 0
M  V30 2644 H 260.281 2.72756 -3.37323 0
M  V30 2645 H 260.952 4.3613 -3.38371 0
M  V30 2646 H 263.428 3.87361 -1.51957 0
M  V30 2647 H 262.304 5.25532 -1.58452 0
M  V30 2648 H 262.565 4.42058 -0.0611849 0
M  V30 2649 N 261.624 0.925811 1.2754 0
M  V30 2650 C 262.87 0.566092 1.94739 0
M  V30 2651 C 263.203 -0.890057 1.72603 0
M  V30 2652 O 262.478 -1.63467 1.05399 0
M  V30 2653 C 262.761 0.89054 3.48915 0
M  V30 2654 C 262.614 2.4003 3.80402 0
M  V30 2655 C 263.933 0.395101 4.38323 0
M  V30 2656 H 261.052 0.20714 0.707292 0
M  V30 2657 H 263.694 1.15725 1.50691 0
M  V30 2658 H 261.844 0.387452 3.86563 0
M  V30 2659 H 263.516 2.97494 3.52555 0
M  V30 2660 H 261.759 2.85028 3.2702 0
M  V30 2661 H 262.43 2.57785 4.8811 0
M  V30 2662 H 264.906 0.826241 4.07814 0
M  V30 2663 H 263.782 0.651086 5.45025 0
M  V30 2664 H 264.043 -0.704798 4.36446 0
M  V30 2665 N 263.102 -1.41638 0.69111 0
M  V30 2666 C 264.33 -2.05628 0.22909 0
M  V30 2667 C 264.745 -1.51992 -1.11999 0
M  V30 2668 O 264.102 -0.666322 -1.69901 0
M  V30 2669 C 264.153 -3.61084 0.173283 0
M  V30 2670 O 263.874 -4.12735 1.46907 0
M  V30 2671 C 265.375 -4.42213 -0.310266 0
M  V30 2672 H 262.595 -0.662327 0.107534 0
M  V30 2673 H 265.139 -1.81489 0.942438 0
M  V30 2674 H 263.294 -3.84278 -0.490858 0
M  V30 2675 H 263.708 -5.06743 1.35322 0
M  V30 2676 H 265.182 -5.51194 -0.298196 0
M  V30 2677 H 265.659 -4.1799 -1.34838 0
M  V30 2678 H 266.265 -4.24074 0.322716 0
M  V30 2679 N 264.58 -0.43555 -1.51462 0
M  V30 2680 C 265.827 0.131514 -2.02072 0
M  V30 2681 C 266.155 1.42868 -1.31981 0
M  V30 2682 O 265.41 1.91076 -0.422883 0
M  V30 2683 C 265.709 0.39942 -3.55161 0
M  V30 2684 C 265.375 -0.81172 -4.43533 0
M  V30 2685 C 264.037 -1.14387 -4.67407 0
M  V30 2686 C 266.389 -1.61976 -4.95392 0
M  V30 2687 C 263.717 -2.28477 -5.40384 0
M  V30 2688 C 266.069 -2.75164 -5.6962 0
M  V30 2689 C 264.733 -3.08835 -5.91758 0
M  V30 2690 H 264.003 0.0481244 -0.739436 0
M  V30 2691 H 266.65 -0.58238 -1.8243 0
M  V30 2692 H 264.955 1.19519 -3.73125 0
M  V30 2693 H 266.652 0.85157 -3.91854 0
M  V30 2694 H 263.242 -0.542898 -4.25148 0
M  V30 2695 H 267.426 -1.37637 -4.76833 0
M  V30 2696 H 262.682 -2.5488 -5.55739 0
M  V30 2697 H 266.856 -3.38147 -6.08793 0
M  V30 2698 H 264.483 -3.97353 -6.48086 0
M  V30 2699 N 266.058 1.56714 -0.166846 0
M  V30 2700 C 267.305 1.96747 0.479252 0
M  V30 2701 C 267.633 1.05263 1.63554 0
M  V30 2702 O 266.888 0.0858098 1.95512 0
M  V30 2703 C 267.187 3.42889 1.00806 0
M  V30 2704 C 266.853 4.50889 -0.0318574 0
M  V30 2705 C 265.515 4.8015 -0.317675 0
M  V30 2706 C 267.867 5.15949 -0.737956 0
M  V30 2707 C 265.195 5.71772 -1.31506 0
M  V30 2708 C 267.547 6.08647 -1.72429 0
M  V30 2709 C 266.211 6.36277 -2.0176 0
M  V30 2710 H 265.481 0.719949 0.175371 0
M  V30 2711 H 268.128 1.89756 -0.257864 0
M  V30 2712 H 266.433 3.4681 1.82291 0
M  V30 2713 H 268.13 3.71203 1.51689 0
M  V30 2714 H 264.72 4.28128 0.201088 0
M  V30 2715 H 268.904 4.93458 -0.530351 0
M  V30 2716 H 264.16 5.91465 -1.54853 0
M  V30 2717 H 268.334 6.58129 -2.27682 0
M  V30 2718 H 265.961 7.07075 -2.79194 0
M  V30 2719 N 267.536 -0.106894 1.57237 0
M  V30 2720 C 268.776 -0.818277 1.87306 0
M  V30 2721 C 269.14 -1.76474 0.756371 0
M  V30 2722 O 270.341 -2.5186 0.939155 0
M  V30 2723 C 268.612 -1.53806 3.22612 0
M  V30 2724 S 270.171 -2.28935 3.74345 0
M  V30 2725 H 266.989 -0.272862 0.656557 0
M  V30 2726 H 269.591 -0.075988 1.95352 0
M  V30 2727 H 268.295 -0.834951 4.01817 0
M  V30 2728 H 267.826 -2.32049 3.17674 0
M  V30 2729 H 269.841 -3.54871 3.46815 0
M  V30 2730 N 269.014 -1.53014 -0.377408 0
M  V30 2731 C 270.43 -1.42523 -0.718281 0
M  V30 2732 C 270.63 -0.55487 -1.9371 0
M  V30 2733 O 269.686 -0.0327593 -2.52479 0
M  V30 2734 C 270.999 -2.85546 -0.942539 0
M  V30 2735 C 272.547 -2.95101 -1.04329 0
M  V30 2736 C 273.022 -4.3916 -1.3001 0
M  V30 2737 N 274.513 -4.42536 -1.36806 0
M  V30 2738 C 275.248 -5.51097 -1.58364 0
M  V30 2739 N 274.744 -6.69724 -1.77317 0
M  V30 2740 N 276.537 -5.38657 -1.60638 0
M  V30 2741 H 268.688 -2.08116 0.424426 0
M  V30 2742 H 270.951 -0.939352 0.127759 0
M  V30 2743 H 270.657 -3.51499 -0.118929 0
M  V30 2744 H 270.531 -3.28493 -1.85397 0
M  V30 2745 H 272.918 -2.29309 -1.85745 0
M  V30 2746 H 272.999 -2.55566 -0.109505 0
M  V30 2747 H 272.643 -5.05521 -0.490991 0
M  V30 2748 H 272.573 -4.76258 -2.24691 0
M  V30 2749 H 275.064 -3.57039 -1.23821 0
M  V30 2750 H 275.377 -7.48233 -1.93306 0
M  V30 2751 H 273.722 -6.72732 -1.74518 0
M  V30 2752 H 276.913 -4.44948 -1.45391 0
M  V30 2753 H 277.086 -6.2333 -1.77098 0
M  V30 2754 N 270.492 0.636531 -1.44174 0
M  V30 2755 C 271.903 1.21806 -1.41493 0
M  V30 2756 C 272.254 1.95785 -0.1275 0
M  V30 2757 O 271.379 2.02147 0.772376 0
M  V30 2758 C 271.974 2.21551 -2.56321 0
M  V30 2759 C 270.533 2.75143 -2.56853 0
M  V30 2760 C 269.68 1.50052 -2.33195 0
M  V30 2761 H 272.631 0.427531 -1.52833 0
M  V30 2762 H 272.652 3.0405 -2.28765 0
M  V30 2763 H 272.164 1.67679 -3.50008 0
M  V30 2764 H 270.265 3.33033 -1.67093 0
M  V30 2765 H 270.378 3.2155 -3.55165 0
M  V30 2766 H 268.742 1.77993 -1.82183 0
M  V30 2767 H 269.525 0.980903 -3.28988 0
M  V30 2768 N 271.97 1.30982 0.876444 0
M  V30 2769 C 272.92 1.14688 1.97055 0
M  V30 2770 C 273.904 0.0596593 1.60789 0
M  V30 2771 O 275.096 0.283892 1.74708 0
M  V30 2772 C 272.225 0.849627 3.3262 0
M  V30 2773 C 271.311 1.97752 3.75173 0
M  V30 2774 N 271.702 3.22384 3.89746 0
M  V30 2775 C 270 1.8758 4.04635 0
M  V30 2776 C 270.701 3.96121 4.25985 0
M  V30 2777 N 269.677 3.24237 4.36315 0
M  V30 2778 H 273.479 2.09204 2.06424 0
M  V30 2779 H 270.993 1.22445 1.06682 0
M  V30 2780 H 272.99 0.713895 4.10742 0
M  V30 2781 H 271.65 -0.087376 3.24582 0
M  V30 2782 H 272.661 3.57575 3.74647 0
M  V30 2783 H 269.338 1.01303 4.05024 0
M  V30 2784 H 270.728 5.03491 4.44911 0
M  V30 2785 N 273.449 -1.08991 1.13837 0
M  V30 2786 C 274.397 -2.17841 0.815347 0
M  V30 2787 C 275.391 -1.68164 -0.204233 0
M  V30 2788 O 276.597 -1.79897 -0.0609304 0
M  V30 2789 H 272.972 -0.710654 0.245915 0
M  V30 2790 H 274.943 -2.42315 1.74143 0
M  V30 2791 C 273.692 -3.46381 0.302614 0
M  V30 2792 H 273.015 -3.84979 1.0785 0
M  V30 2793 H 274.455 -4.23844 0.115074 0
M  V30 2794 C 272.914 -3.22556 -0.972591 0
M  V30 2795 O 273.444 -3.45599 -2.04754 0
M  V30 2796 N 271.65 -2.76134 -0.905455 0
M  V30 2797 H 271.197 -2.57582 -0.0305421 0
M  V30 2798 H 271.155 -2.60571 -1.75926 0
M  V30 2799 N 274.927 -0.932562 -1.27047 0
M  V30 2800 C 276.176 -0.571351 -1.93439 0
M  V30 2801 C 276.489 0.892467 -1.74053 0
M  V30 2802 O 277.695 1.36267 -2.34826 0
M  V30 2803 C 276.151 -0.97106 -3.46552 0
M  V30 2804 C 275.759 -2.4559 -3.74686 0
M  V30 2805 C 277.503 -0.681333 -4.18997 0
M  V30 2806 C 275.41 -2.79475 -5.21198 0
M  V30 2807 H 274.34 -0.209966 -0.724176 0
M  V30 2808 H 276.991 -1.13403 -1.44263 0
M  V30 2809 H 275.373 -0.336983 -3.94564 0
M  V30 2810 H 276.547 -3.13829 -3.37414 0
M  V30 2811 H 274.862 -2.71802 -3.15456 0
M  V30 2812 H 277.459 -0.910939 -5.26883 0
M  V30 2813 H 277.802 0.381628 -4.14547 0
M  V30 2814 H 278.335 -1.27473 -3.76823 0
M  V30 2815 H 275.074 -3.847 -5.30741 0
M  V30 2816 H 274.594 -2.1589 -5.596 0
M  V30 2817 H 276.273 -2.67478 -5.89122 0
M  V30 2818 N 276.405 1.4127 -0.698611 0
M  V30 2819 C 277.645 2.03044 -0.235062 0
M  V30 2820 C 278.009 1.54146 1.14468 0
M  V30 2821 O 279.21 2.07867 1.70425 0
M  V30 2822 C 277.481 3.56192 -0.293651 0
M  V30 2823 S 279.04 4.38696 0.0954053 0
M  V30 2824 H 275.858 0.704697 -0.0944648 0
M  V30 2825 H 278.46 1.72656 -0.917064 0
M  V30 2826 H 277.164 3.89274 -1.29977 0
M  V30 2827 H 276.695 3.91285 0.407397 0
M  V30 2828 H 278.71 4.78257 1.3223 0
M  V30 2829 N 277.883 0.443576 1.51229 0
M  V30 2830 C 279.111 -0.11929 2.06556 0
M  V30 2831 C 279.526 -1.35921 1.31038 0
M  V30 2832 O 278.883 -1.78675 0.371704 0
M  V30 2833 C 278.934 -0.435228 3.5887 0
M  V30 2834 O 278.655 0.755486 4.31537 0
M  V30 2835 C 280.156 -1.04808 4.30732 0
M  V30 2836 H 277.376 -0.0051584 0.67098 0
M  V30 2837 H 279.92 0.624453 1.94733 0
M  V30 2838 H 278.075 -1.12887 3.70588 0
M  V30 2839 H 278.489 0.483491 5.22267 0
M  V30 2840 H 279.963 -1.2191 5.3837 0
M  V30 2841 H 280.44 -2.03081 3.89429 0
M  V30 2842 H 281.046 -0.393637 4.23474 0
M  V30 2843 N 279.361 -1.56624 0.175154 0
M  V30 2844 C 280.608 -1.96999 -0.468811 0
M  V30 2845 C 280.936 -1.06129 -1.62994 0
M  V30 2846 O 280.191 -0.0961771 -1.95464 0
M  V30 2847 C 280.49 -3.43419 -0.989864 0
M  V30 2848 C 280.156 -4.50866 0.0557687 0
M  V30 2849 C 278.818 -4.79975 0.343134 0
M  V30 2850 C 281.17 -5.15551 0.765308 0
M  V30 2851 C 278.498 -5.71066 1.34536 0
M  V30 2852 C 280.85 -6.07724 1.75654 0
M  V30 2853 C 279.514 -6.35199 2.05132 0
M  V30 2854 H 278.784 -0.720869 -0.17155 0
M  V30 2855 H 281.431 -1.89616 0.267924 0
M  V30 2856 H 279.736 -3.47772 -1.80449 0
M  V30 2857 H 281.433 -3.72002 -1.49719 0
M  V30 2858 H 278.023 -4.28229 -0.178381 0
M  V30 2859 H 282.207 -4.9317 0.556513 0
M  V30 2860 H 277.463 -5.90635 1.57988 0
M  V30 2861 H 281.637 -6.56912 2.31169 0
M  V30 2862 H 279.264 -7.05584 2.8294 0
M  V30 2863 N 280.839 0.0985539 -1.57292 0
M  V30 2864 C 282.085 0.803867 -1.86188 0
M  V30 2865 C 282.418 1.78549 -0.763794 0
M  V30 2866 O 281.693 1.93153 0.22855 0
M  V30 2867 C 281.976 1.53568 -3.25713 0
M  V30 2868 C 281.829 0.572277 -4.46145 0
M  V30 2869 C 283.148 2.48708 -3.63087 0
M  V30 2870 H 280.267 0.290781 -0.677211 0
M  V30 2871 H 282.909 0.0675783 -1.8988 0
M  V30 2872 H 281.059 2.16332 -3.22696 0
M  V30 2873 H 282.731 -0.0480894 -4.61275 0
M  V30 2874 H 280.974 -0.114618 -4.33649 0
M  V30 2875 H 281.645 1.12139 -5.40489 0
M  V30 2876 H 284.121 1.96039 -3.67026 0
M  V30 2877 H 282.997 2.96932 -4.61652 0
M  V30 2878 H 283.258 3.32309 -2.91588 0
M  V30 2879 N 282.317 1.53212 0.369288 0
M  V30 2880 C 283.728 1.60943 0.946276 0
M  V30 2881 C 284.079 0.47452 1.90375 0
M  V30 2882 O 283.204 -0.399597 2.12679 0
M  V30 2883 C 283.799 2.91715 1.72302 0
M  V30 2884 C 282.358 3.01792 2.24941 0
M  V30 2885 C 281.505 2.56211 1.06072 0
M  V30 2886 H 284.456 1.58007 0.148198 0
M  V30 2887 H 284.477 2.79309 2.58393 0
M  V30 2888 H 283.989 3.74295 1.0259 0
M  V30 2889 H 282.09 2.23791 2.97906 0
M  V30 2890 H 282.203 4.06803 2.53077 0
M  V30 2891 H 280.567 2.10998 1.4266 0
M  V30 2892 H 281.35 3.41206 0.378639 0
M  V30 2893 N 283.795 -0.628877 1.44509 0
M  V30 2894 C 285.211 -0.947305 1.28446 0
M  V30 2895 C 285.411 -2.00275 0.221872 0
M  V30 2896 O 284.467 -2.49447 -0.391471 0
M  V30 2897 C 285.78 -1.40843 2.65676 0
M  V30 2898 C 287.328 -1.52379 2.73404 0
M  V30 2899 C 287.803 -2.01875 4.11109 0
M  V30 2900 N 289.294 -2.09142 4.13296 0
M  V30 2901 C 290.029 -2.48615 5.16699 0
M  V30 2902 N 289.525 -2.87209 6.30462 0
M  V30 2903 N 291.318 -2.48768 5.04054 0
M  V30 2904 H 283.469 0.0690977 2.12288 0
M  V30 2905 H 285.732 -0.0317164 0.947469 0
M  V30 2906 H 285.438 -0.707206 3.44516 0
M  V30 2907 H 285.312 -2.37902 2.92716 0
M  V30 2908 H 287.699 -2.21598 1.9488 0
M  V30 2909 H 287.78 -0.536898 2.50102 0
M  V30 2910 H 287.424 -1.3325 4.90109 0
M  V30 2911 H 287.354 -3.0144 4.31789 0
M  V30 2912 H 289.845 -1.81991 3.31191 0
M  V30 2913 H 290.158 -3.16149 7.05174 0
M  V30 2914 H 288.503 -2.84955 6.33897 0
M  V30 2915 H 291.694 -2.18009 4.14234 0
M  V30 2916 H 291.867 -2.79207 5.84763 0
M  V30 2917 N 285.273 -1.31445 -0.869486 0
M  V30 2918 C 286.689 -1.10113 -1.15531 0
M  V30 2919 C 286.889 0.128087 -2.01092 0
M  V30 2920 O 285.945 0.817276 -2.38908 0
M  V30 2921 C 287.258 -2.37291 -1.84698 0
M  V30 2922 C 288.806 -2.42906 -1.97397 0
M  V30 2923 C 289.281 -3.69967 -2.69979 0
M  V30 2924 N 290.772 -3.70864 -2.77514 0
M  V30 2925 C 291.507 -4.65875 -3.34287 0
M  V30 2926 N 291.003 -5.71242 -3.91988 0
M  V30 2927 N 292.796 -4.53394 -3.3225 0
M  V30 2928 H 284.947 -2.1028 -0.299347 0
M  V30 2929 H 287.21 -0.927683 -0.195214 0
M  V30 2930 H 286.916 -3.27078 -1.29278 0
M  V30 2931 H 286.79 -2.47125 -2.84972 0
M  V30 2932 H 289.177 -1.53588 -2.51982 0
M  V30 2933 H 289.258 -2.37036 -0.961643 0
M  V30 2934 H 288.902 -4.59652 -2.16062 0
M  V30 2935 H 288.832 -3.73103 -3.7162 0
M  V30 2936 H 291.323 -2.94697 -2.36563 0
M  V30 2937 H 291.636 -6.39817 -4.33421 0
M  V30 2938 H 289.981 -5.75015 -3.90362 0
M  V30 2939 H 293.172 -3.70252 -2.8641 0
M  V30 2940 H 293.345 -5.27617 -3.76197 0
M  V30 2941 N 286.751 1.08385 -1.14413 0
M  V30 2942 C 287.698 2.15311 -0.831265 0
M  V30 2943 C 288.668 1.64751 0.211292 0
M  V30 2944 O 289.853 1.90627 0.0811674 0
M  V30 2945 C 286.993 3.43658 -0.315143 0
M  V30 2946 C 286.106 4.08064 -1.41802 0
M  V30 2947 C 285.241 5.24207 -0.859126 0
M  V30 2948 C 284.28 5.80554 -1.93967 0
M  V30 2949 N 283.417 6.88042 -1.39793 0
M  V30 2950 H 288.257 2.41415 -1.74708 0
M  V30 2951 H 285.794 1.18474 -0.871909 0
M  V30 2952 H 287.752 4.172 0.00230884 0
M  V30 2953 H 286.382 3.17839 0.56378 0
M  V30 2954 H 285.434 3.3228 -1.85187 0
M  V30 2955 H 286.746 4.45962 -2.23427 0
M  V30 2956 H 285.9 6.04689 -0.49359 0
M  V30 2957 H 284.639 4.87699 -0.011932 0
M  V30 2958 H 283.644 4.98725 -2.31415 0
M  V30 2959 H 284.869 6.19121 -2.79046 0
M  V30 2960 H 282.815 6.53493 -0.572919 0
M  V30 2961 H 282.732 7.24767 -2.15054 0
M  V30 2962 H 284 7.72255 -1.0603 0
M  V30 2963 N 288.23 0.939286 1.26551 0
M  V30 2964 C 289.193 0.451987 2.24699 0
M  V30 2965 C 290.193 -0.435869 1.5478 0
M  V30 2966 O 291.383 -0.235314 1.72603 0
M  V30 2967 C 288.515 -0.348801 3.39111 0
M  V30 2968 H 289.708 1.3193 2.69322 0
M  V30 2969 H 287.261 0.721072 1.38673 0
M  V30 2970 H 287.996 -1.23444 2.99887 0
M  V30 2971 H 287.781 0.287945 3.91041 0
M  V30 2972 H 289.271 -0.679726 4.12031 0
M  V30 2973 N 289.708 -1.40897 0.706093 0
M  V30 2974 C 290.956 -2.00657 0.241054 0
M  V30 2975 C 291.277 -1.56241 -1.16678 0
M  V30 2976 O 290.547 -0.79765 -1.78926 0
M  V30 2977 H 289.127 -0.742018 0.0861308 0
M  V30 2978 H 291.789 -1.72372 0.909604 0
M  V30 2979 H 290.885 -3.10958 0.266705 0
M  V30 2980 N 291.186 -0.45159 -1.50991 0
M  V30 2981 C 292.435 0.111653 -2.01391 0
M  V30 2982 C 292.748 1.42529 -1.33959 0
M  V30 2983 O 293.954 2.07232 -1.75405 0
M  V30 2984 C 292.41 0.249514 -3.59034 0
M  V30 2985 C 292.018 -1.05453 -4.35412 0
M  V30 2986 C 293.762 0.765762 -4.17536 0
M  V30 2987 C 291.669 -0.881529 -5.84793 0
M  V30 2988 H 290.599 0.0455022 -0.752626 0
M  V30 2989 H 293.25 -0.583524 -1.73975 0
M  V30 2990 H 291.632 1.00803 -3.82955 0
M  V30 2991 H 292.806 -1.82248 -4.23229 0
M  V30 2992 H 291.121 -1.50039 -3.88429 0
M  V30 2993 H 293.718 0.911913 -5.26866 0
M  V30 2994 H 294.061 1.75201 -3.77638 0
M  V30 2995 H 294.594 0.0651744 -3.97747 0
M  V30 2996 H 291.333 -1.84057 -6.29129 0
M  V30 2997 H 290.853 -0.153625 -5.99603 0
M  V30 2998 H 292.532 -0.540363 -6.4474 0
M  V30 2999 N 292.664 1.56529 -0.183458 0
M  V30 3000 C 293.904 1.99141 0.460667 0
M  V30 3001 C 294.268 1.06736 1.59597 0
M  V30 3002 O 295.469 1.38538 2.30349 0
M  V30 3003 C 293.74 3.45358 0.919939 0
M  V30 3004 S 295.299 4.09999 1.56354 0
M  V30 3005 H 292.117 0.695479 0.147748 0
M  V30 3006 H 294.719 1.93429 -0.283782 0
M  V30 3007 H 293.423 4.10315 0.0834208 0
M  V30 3008 H 292.954 3.54862 1.69814 0
M  V30 3009 H 294.969 4.06046 2.85203 0
M  V30 3010 N 294.142 -0.090211 1.57342 0
M  V30 3011 C 295.389 -0.792807 1.86335 0
M  V30 3012 C 295.717 -1.78494 0.772662 0
M  V30 3013 O 294.972 -1.94305 -0.233258 0
M  V30 3014 C 295.271 -1.55222 3.21933 0
M  V30 3015 C 294.937 -0.701765 4.45406 0
M  V30 3016 C 293.599 -0.467334 4.78925 0
M  V30 3017 C 295.951 -0.11086 5.21082 0
M  V30 3018 C 293.279 0.367785 5.85546 0
M  V30 3019 C 295.631 0.711609 6.28585 0
M  V30 3020 C 294.295 0.956086 6.60617 0
M  V30 3021 H 293.565 -0.290109 0.681849 0
M  V30 3022 H 296.212 -0.0541332 1.91423 0
M  V30 3023 H 294.517 -2.3626 3.12551 0
M  V30 3024 H 296.214 -2.10032 3.41595 0
M  V30 3025 H 292.804 -0.894598 4.1916 0
M  V30 3026 H 296.988 -0.279129 4.95514 0
M  V30 3027 H 292.244 0.566128 6.08773 0
M  V30 3028 H 296.418 1.17632 6.86393 0
M  V30 3029 H 294.045 1.60499 7.43064 0
M  V30 3030 N 295.62 -1.53406 -0.361157 0
M  V30 3031 C 296.868 -1.69467 -1.10115 0
M  V30 3032 C 297.189 -0.451352 -1.89705 0
M  V30 3033 O 296.459 0.534636 -1.88463 0
M  V30 3034 H 295.039 -0.624749 -0.409508 0
M  V30 3035 H 297.701 -1.90609 -0.406699 0
M  V30 3036 H 296.797 -2.55774 -1.78847 0
M  V30 3037 N 297.098 0.621204 -1.44841 0
M  V30 3038 C 298.375 1.38 -1.38619 0
M  V30 3039 C 298.755 2.11041 -0.0498935 0
M  V30 3040 O 298.103 2.06992 0.967816 0
M  V30 3041 C 298.313 2.33817 -2.59096 0
M  V30 3042 C 299.661 2.96844 -3.03593 0
M  V30 3043 O 300.685 2.44141 -2.59371 0
M  V30 3044 O 299.544 3.92476 -3.80296 0
M  V30 3045 H 296.638 0.61811 -0.549426 0
M  V30 3046 H 299.184 0.645429 -1.56947 0
M  V30 3047 H 297.956 1.79012 -3.47952 0
M  V30 3048 H 297.579 3.14676 -2.43032 0
M  V30 3049 N 298.576 1.31904 0.862503 0
M  V30 3050 C 299.801 1.25135 1.65397 0
M  V30 3051 C 300.226 -0.179 1.87246 0
M  V30 3052 O 299.584 -1.1277 1.4196 0
M  V30 3053 C 299.632 2.00832 2.99498 0
M  V30 3054 O 298.736 1.35075 3.89652 0
M  V30 3055 H 298.077 0.431655 0.504549 0
M  V30 3056 H 300.607 1.74094 1.07483 0
M  V30 3057 H 300.617 2.10709 3.49379 0
M  V30 3058 H 299.292 3.04847 2.82916 0
M  V30 3059 H 297.869 1.33696 3.48109 0
M  V30 3060 N 300.054 -1.07777 1.14986 0
M  V30 3061 C 301.302 -1.79934 0.920235 0
M  V30 3062 C 301.623 -1.86955 -0.554336 0
M  V30 3063 O 300.893 -1.36731 -1.40291 0
M  V30 3064 H 299.473 -0.666424 0.337473 0
M  V30 3065 H 302.135 -1.3027 1.44968 0
M  V30 3066 H 301.231 -2.82539 1.32583 0
M  V30 3067 N 301.532 -0.945985 -1.26051 0
M  V30 3068 C 302.78 -0.594941 -1.93145 0
M  V30 3069 C 303.101 0.86953 -1.7454 0
M  V30 3070 O 302.371 1.61838 -1.10387 0
M  V30 3071 H 300.951 -0.217044 -0.714773 0
M  V30 3072 H 303.613 -1.20235 -1.53393 0
M  V30 3073 H 302.709 -0.816835 -3.01221 0
M  V30 3074 N 303.011 1.40521 -0.713556 0
M  V30 3075 C 304.422 1.83853 -0.324807 0
M  V30 3076 C 304.773 1.59667 1.14021 0
M  V30 3077 O 303.898 1.07649 1.87725 0
M  V30 3078 C 304.493 3.33751 -0.582746 0
M  V30 3079 C 303.052 3.75584 -0.247727 0
M  V30 3080 C 302.199 2.63753 -0.856121 0
M  V30 3081 H 305.15 1.29817 -0.91286 0
M  V30 3082 H 305.171 3.80194 0.152682 0
M  V30 3083 H 304.683 3.51322 -1.64908 0
M  V30 3084 H 302.784 3.63608 0.813624 0
M  V30 3085 H 302.897 4.7373 -0.715307 0
M  V30 3086 H 301.261 2.53108 -0.28432 0
M  V30 3087 H 302.044 2.84137 -1.92668 0
M  V30 3088 N 304.489 0.459591 1.5075 0
M  V30 3089 C 305.419 -0.330644 2.31147 0
M  V30 3090 C 306.4 -1.00087 1.37538 0
M  V30 3091 O 307.585 -1.00025 1.66459 0
M  V30 3092 C 304.715 -1.41958 3.16962 0
M  V30 3093 C 303.669 -0.871608 4.19031 0
M  V30 3094 C 302.995 -2.05797 4.9351 0
M  V30 3095 C 304.295 0.109251 5.22186 0
M  V30 3096 H 305.989 0.340336 2.97459 0
M  V30 3097 H 303.535 0.165119 1.4305 0
M  V30 3098 H 305.488 -1.9798 3.71997 0
M  V30 3099 H 304.212 -2.11917 2.48513 0
M  V30 3100 H 302.871 -0.333442 3.6508 0
M  V30 3101 H 302.519 -2.74427 4.21544 0
M  V30 3102 H 302.219 -1.6976 5.62544 0
M  V30 3103 H 303.743 -2.62331 5.51375 0
M  V30 3104 H 305.157 -0.361405 5.7216 0
M  V30 3105 H 303.554 0.383316 5.98875 0
M  V30 3106 H 304.624 1.03887 4.73641 0
M  V30 3107 N 305.967 -1.56429 0.191757 0
M  V30 3108 C 307.216 -1.9666 -0.448088 0
M  V30 3109 C 307.529 -1.08136 -1.62991 0
M  V30 3110 O 308.735 -1.38135 -2.33733 0
M  V30 3111 C 307.191 -3.49753 -0.848585 0
M  V30 3112 C 306.799 -4.46935 0.308764 0
M  V30 3113 C 308.543 -3.9876 -1.4557 0
M  V30 3114 C 306.45 -5.91293 -0.112506 0
M  V30 3115 H 305.38 -0.734312 -0.171179 0
M  V30 3116 H 308.031 -1.81301 0.283242 0
M  V30 3117 H 306.413 -3.60604 -1.63649 0
M  V30 3118 H 307.587 -4.47813 1.08627 0
M  V30 3119 H 305.902 -4.08102 0.827158 0
M  V30 3120 H 308.499 -5.04086 -1.78328 0
M  V30 3121 H 308.842 -3.42875 -2.36099 0
M  V30 3122 H 309.375 -3.9101 -0.731836 0
M  V30 3123 H 306.114 -6.51097 0.758514 0
M  V30 3124 H 305.634 -5.93676 -0.854941 0
M  V30 3125 H 307.313 -6.44663 -0.549448 0
M  V30 3126 N 307.445 0.0818655 -1.57387 0
M  V30 3127 C 308.685 0.788375 -1.88584 0
M  V30 3128 C 309.049 1.75248 -0.784351 0
M  V30 3129 O 310.25 2.50334 -0.979105 0
M  V30 3130 C 308.521 1.48654 -3.25018 0
M  V30 3131 S 310.08 2.22951 -3.7794 0
M  V30 3132 H 306.898 0.262383 -0.660815 0
M  V30 3133 H 309.5 0.0448995 -1.95448 0
M  V30 3134 H 308.204 0.770919 -4.03094 0
M  V30 3135 H 307.735 2.26965 -3.21326 0
M  V30 3136 H 309.75 3.49309 -3.52417 0
M  V30 3137 N 308.923 1.53595 0.353017 0
M  V30 3138 C 310.2 1.61002 1.11075 0
M  V30 3139 C 310.58 0.425356 2.0677 0
M  V30 3140 O 309.928 -0.583267 2.2093 0
M  V30 3141 C 310.138 2.96631 1.83877 0
M  V30 3142 C 311.486 3.51653 2.37961 0
M  V30 3143 O 312.51 2.98743 1.93987 0
M  V30 3144 O 311.369 4.44177 3.18386 0
M  V30 3145 H 308.463 0.650825 0.510251 0
M  V30 3146 H 311.009 1.6594 0.35527 0
M  V30 3147 H 309.781 3.74293 1.14108 0
M  V30 3148 H 309.404 2.95242 2.66304 0
M  V30 3149 N 310.401 -0.613514 1.45168 0
M  V30 3150 C 311.649 -1.36997 1.48581 0
M  V30 3151 C 311.97 -1.94589 0.126545 0
M  V30 3152 O 311.24 -1.76816 -0.843372 0
M  V30 3153 H 309.82 -0.508558 0.547154 0
M  V30 3154 H 312.482 -0.720853 1.81079 0
M  V30 3155 H 311.578 -2.1924 2.22127 0
M  V30 3156 N 311.879 -1.3236 -0.855495 0
M  V30 3157 C 313.128 -1.22226 -1.60448 0
M  V30 3158 C 313.441 0.214733 -1.94418 0
M  V30 3159 O 314.647 0.437917 -2.67945 0
M  V30 3160 C 313.103 -2.14063 -2.89318 0
M  V30 3161 C 312.711 -3.62839 -2.62777 0
M  V30 3162 C 314.455 -2.12764 -3.67331 0
M  V30 3163 C 312.362 -4.4664 -3.87643 0
M  V30 3164 H 311.292 -0.453904 -0.602069 0
M  V30 3165 H 313.943 -1.57314 -0.944698 0
M  V30 3166 H 312.325 -1.71889 -3.5675 0
M  V30 3167 H 313.499 -4.1335 -2.03662 0
M  V30 3168 H 311.814 -3.66261 -1.98096 0
M  V30 3169 H 314.411 -2.72611 -4.59987 0
M  V30 3170 H 314.754 -1.11841 -4.00995 0
M  V30 3171 H 315.287 -2.53214 -3.06802 0
M  V30 3172 H 312.026 -5.48373 -3.5912 0
M  V30 3173 H 311.546 -4.0088 -4.46156 0
M  V30 3174 H 313.225 -4.59597 -4.55389 0
M  V30 3175 N 313.357 1.07166 -1.15556 0
M  V30 3176 C 314.606 1.79181 -0.926132 0
M  V30 3177 C 314.919 1.87768 0.547967 0
M  V30 3178 O 316.125 2.56323 0.895036 0
M  V30 3179 C 314.581 3.22 -1.60761 0
M  V30 3180 C 314.189 3.21607 -3.11886 0
M  V30 3181 C 315.933 3.9861 -1.4598 0
M  V30 3182 C 313.84 4.59092 -3.72812 0
M  V30 3183 H 312.77 0.67154 -0.342856 0
M  V30 3184 H 315.421 1.2027 -1.3859 0
M  V30 3185 H 313.803 3.81115 -1.07553 0
M  V30 3186 H 314.977 2.72127 -3.71865 0
M  V30 3187 H 313.292 2.58495 -3.2645 0
M  V30 3188 H 315.889 5.00225 -1.88888 0
M  V30 3189 H 316.232 4.143 -0.407541 0
M  V30 3190 H 316.765 3.45996 -1.96295 0
M  V30 3191 H 313.504 4.48606 -4.77946 0
M  V30 3192 H 313.024 5.08803 -3.17616 0
M  V30 3193 H 314.703 5.28059 -3.73848 0
M  V30 3194 N 314.835 0.952656 1.25548 0
M  V30 3195 C 315.767 0.428609 2.25157 0
M  V30 3196 C 316.78 -0.454428 1.56329 0
M  V30 3197 O 317.969 -0.263023 1.76552 0
M  V30 3198 C 315.069 -0.401972 3.36508 0
M  V30 3199 C 314.242 0.467601 4.34893 0
M  V30 3200 C 313.301 -0.30445 5.25319 0
M  V30 3201 O 312.327 0.296473 5.68427 0
M  V30 3202 N 313.529 -1.59805 5.5807 0
M  V30 3203 H 316.294 1.28497 2.70756 0
M  V30 3204 H 313.855 0.822798 1.39433 0
M  V30 3205 H 315.847 -0.926134 3.9396 0
M  V30 3206 H 314.417 -1.15918 2.90313 0
M  V30 3207 H 313.637 1.17288 3.76347 0
M  V30 3208 H 314.925 1.06119 4.97611 0
M  V30 3209 H 314.323 -2.10823 5.24948 0
M  V30 3210 H 312.88 -2.06822 6.18116 0
M  V30 3211 N 316.313 -1.40141 0.720998 0
M  V30 3212 C 317.561 -2.0039 0.262323 0
M  V30 3213 C 317.882 -1.57469 -1.15015 0
M  V30 3214 O 317.152 -0.816582 -1.78069 0
M  V30 3215 H 315.732 -0.741063 0.093996 0
M  V30 3216 H 318.394 -1.71398 0.927835 0
M  V30 3217 H 317.49 -3.10658 0.299671 0
M  V30 3218 N 317.792 -0.46758 -1.50504 0
M  V30 3219 C 319.041 0.0902868 -2.01498 0
M  V30 3220 C 319.354 1.411 -1.35463 0
M  V30 3221 O 320.56 2.0536 -1.77594 0
M  V30 3222 C 319.016 0.21142 -3.59278 0
M  V30 3223 C 318.624 -1.10065 -4.34269 0
M  V30 3224 C 320.368 0.721433 -4.18325 0
M  V30 3225 C 318.275 -0.943505 -5.83825 0
M  V30 3226 H 317.205 0.037517 -0.753066 0
M  V30 3227 H 319.856 -0.601943 -1.73346 0
M  V30 3228 H 318.238 0.967352 -3.84003 0
M  V30 3229 H 319.412 -1.86726 -4.21272 0
M  V30 3230 H 317.727 -1.5415 -3.86816 0
M  V30 3231 H 320.324 0.85598 -5.27804 0
M  V30 3232 H 320.667 1.71186 -3.79475 0
M  V30 3233 H 321.2 0.0229843 -3.97793 0
M  V30 3234 H 317.939 -1.90719 -6.27141 0
M  V30 3235 H 317.459 -0.217213 -5.99407 0
M  V30 3236 H 319.138 -0.608715 -6.4413 0
M  V30 3237 N 319.27 1.56325 -0.20005 0
M  V30 3238 C 320.547 1.89484 0.48529 0
M  V30 3239 C 320.927 1.1143 1.79294 0
M  V30 3240 O 320.275 0.216919 2.27468 0
M  V30 3241 C 320.485 3.41923 0.699243 0
M  V30 3242 C 321.833 4.12256 1.01638 0
M  V30 3243 O 322.857 3.47402 0.786792 0
M  V30 3244 O 321.716 5.26887 1.45095 0
M  V30 3245 H 318.81 0.787144 0.253639 0
M  V30 3246 H 321.356 1.67985 -0.240633 0
M  V30 3247 H 320.128 3.90658 -0.224008 0
M  V30 3248 H 319.751 3.69131 1.47744 0
M  V30 3249 N 320.748 -0.0735177 1.57428 0
M  V30 3250 C 321.973 -0.789787 1.91774 0
M  V30 3251 C 322.398 -1.70413 0.796306 0
M  V30 3252 O 321.756 -1.79555 -0.250961 0
M  V30 3253 C 321.804 -1.5609 3.25067 0
M  V30 3254 O 320.908 -2.67144 3.14178 0
M  V30 3255 H 320.249 -0.215582 0.628029 0
M  V30 3256 H 322.779 -0.0422781 2.04556 0
M  V30 3257 H 322.789 -1.94052 3.58898 0
M  V30 3258 H 321.464 -0.890015 4.06265 0
M  V30 3259 H 320.041 -2.32052 2.91901 0
M  V30 3260 N 322.226 -1.5378 -0.344866 0
M  V30 3261 C 323.473 -1.70963 -1.08526 0
M  V30 3262 C 323.801 -0.472126 -1.88683 0
M  V30 3263 O 323.056 0.546116 -1.87926 0
M  V30 3264 C 323.355 -2.92407 -2.05506 0
M  V30 3265 C 323.021 -4.28066 -1.41671 0
M  V30 3266 C 321.683 -4.64951 -1.2399 0
M  V30 3267 C 324.035 -5.12344 -0.956726 0
M  V30 3268 C 321.363 -5.83733 -0.589277 0
M  V30 3269 C 323.715 -6.3179 -0.320015 0
M  V30 3270 C 322.379 -6.67372 -0.130881 0
M  V30 3271 H 321.649 -0.625598 -0.397124 0
M  V30 3272 H 324.296 -1.87995 -0.36469 0
M  V30 3273 H 322.601 -2.69973 -2.8394 0
M  V30 3274 H 324.298 -3.02895 -2.62784 0
M  V30 3275 H 320.888 -3.99034 -1.56429 0
M  V30 3276 H 325.072 -4.8438 -1.08118 0
M  V30 3277 H 320.328 -6.09877 -0.431344 0
M  V30 3278 H 324.502 -6.96386 0.0445072 0
M  V30 3279 H 322.129 -7.59273 0.375318 0
M  V30 3280 N 323.704 0.605807 -1.45491 0
M  V30 3281 C 324.95 1.36679 -1.49823 0
M  V30 3282 C 325.283 1.93693 -0.140175 0
M  V30 3283 O 324.558 1.75158 0.845581 0
M  V30 3284 C 324.841 2.51337 -2.57879 0
M  V30 3285 C 324.694 1.99508 -4.03134 0
M  V30 3286 C 326.013 3.53463 -2.62205 0
M  V30 3287 H 323.132 0.495617 -0.545466 0
M  V30 3288 H 325.774 0.682732 -1.7731 0
M  V30 3289 H 323.924 3.09691 -2.34571 0
M  V30 3290 H 325.596 1.45789 -4.37656 0
M  V30 3291 H 323.839 1.30496 -4.13707 0
M  V30 3292 H 324.51 2.82169 -4.74431 0
M  V30 3293 H 326.986 3.04953 -2.83095 0
M  V30 3294 H 325.862 4.31178 -3.39672 0
M  V30 3295 H 326.123 4.09197 -1.67363 0
M  V30 3296 N 325.182 1.32811 0.848464 0
M  V30 3297 C 326.431 1.23075 1.59798 0
M  V30 3298 C 326.744 -0.204419 1.94529 0
M  V30 3299 O 327.95 -0.423701 2.68173 0
M  V30 3300 C 326.406 2.15594 2.88179 0
M  V30 3301 C 326.014 3.64228 2.60849 0
M  V30 3302 C 327.758 2.14709 3.66197 0
M  V30 3303 C 325.665 4.48689 3.85269 0
M  V30 3304 H 324.595 0.457091 0.599653 0
M  V30 3305 H 327.246 1.57813 0.936342 0
M  V30 3306 H 325.628 1.73778 3.55833 0
M  V30 3307 H 326.802 4.14424 2.01467 0
M  V30 3308 H 325.117 3.67306 1.96151 0
M  V30 3309 H 327.714 2.75046 4.58534 0
M  V30 3310 H 328.057 1.13966 4.00397 0
M  V30 3311 H 328.59 2.54837 3.05455 0
M  V30 3312 H 325.329 5.5027 3.56207 0
M  V30 3313 H 324.849 4.03241 4.44024 0
M  V30 3314 H 326.528 4.62006 4.52946 0
M  V30 3315 N 326.66 -1.06551 1.16123 0
M  V30 3316 C 327.906 -1.79719 0.952505 0
M  V30 3317 C 328.261 -1.85396 -0.514385 0
M  V30 3318 O 327.554 -1.33263 -1.37665 0
M  V30 3319 C 327.748 -3.23911 1.51052 0
M  V30 3320 C 327.577 -3.32284 3.03013 0
M  V30 3321 C 326.347 -3.42371 3.71632 0
M  V30 3322 C 328.545 -3.22363 4.00732 0
M  V30 3323 N 326.527 -3.39732 5.11327 0
M  V30 3324 C 327.898 -3.26937 5.26794 0
M  V30 3325 C 329.953 -3.0623 3.92591 0
M  V30 3326 C 328.656 -3.17035 6.45663 0
M  V30 3327 C 330.682 -2.97665 5.11028 0
M  V30 3328 C 330.044 -3.02858 6.35969 0
M  V30 3329 H 326.143 -0.670585 0.402293 0
M  V30 3330 H 328.727 -1.27125 1.4747 0
M  V30 3331 H 326.898 -3.74907 1.01484 0
M  V30 3332 H 328.63 -3.85242 1.2398 0
M  V30 3333 H 325.385 -3.47058 3.22254 0
M  V30 3334 H 325.809 -3.41919 5.84312 0
M  V30 3335 H 330.451 -3.01063 2.96852 0
M  V30 3336 H 328.169 -3.2096 7.41627 0
M  V30 3337 H 331.755 -2.86273 5.06497 0
M  V30 3338 H 330.635 -2.96286 7.26075 0
M  V30 3339 N 328.138 -0.959301 -1.25041 0
M  V30 3340 C 329.386 -0.615393 -1.92503 0
M  V30 3341 C 329.707 0.850969 -1.75452 0
M  V30 3342 O 328.977 1.60658 -1.12098 0
M  V30 3343 H 327.557 -0.224613 -0.712431 0
M  V30 3344 H 330.219 -1.21855 -1.5211 0
M  V30 3345 H 329.315 -0.848738 -3.00338 0
M  V30 3346 N 329.616 1.39756 -0.72842 0
M  V30 3347 C 330.856 2.025 -0.278078 0
M  V30 3348 C 331.22 1.5654 1.11173 0
M  V30 3349 O 332.421 2.11435 1.65978 0
M  V30 3350 C 330.692 3.55489 -0.369139 0
M  V30 3351 S 332.251 4.388 0.00232983 0
M  V30 3352 H 329.069 0.702534 -0.109391 0
M  V30 3353 H 331.671 1.70672 -0.95348 0
M  V30 3354 H 330.375 3.86429 -1.38204 0
M  V30 3355 H 329.906 3.92061 0.324308 0
M  V30 3356 H 331.921 4.80954 1.22055 0
M  V30 3357 N 331.094 0.475555 1.50254 0
M  V30 3358 C 332.057 -0.305016 2.27161 0
M  V30 3359 C 333.057 -0.916519 1.32123 0
M  V30 3360 O 334.247 -0.785003 1.5551 0
M  V30 3361 C 331.379 -1.43496 3.09227 0
M  V30 3362 H 332.572 0.369511 2.97615 0
M  V30 3363 H 330.125 0.229747 1.54602 0
M  V30 3364 H 330.86 -2.14441 2.43281 0
M  V30 3365 H 330.645 -1.00223 3.79075 0
M  V30 3366 H 332.135 -1.98548 3.67381 0
M  V30 3367 N 332.573 -1.56217 0.208337 0
M  V30 3368 C 333.801 -2.02337 -0.43215 0
M  V30 3369 C 334.216 -1.08834 -1.54275 0
M  V30 3370 O 333.573 -0.0955462 -1.8225 0
M  V30 3371 C 333.624 -3.48072 -0.976138 0
M  V30 3372 O 333.345 -4.38007 0.0901621 0
M  V30 3373 C 334.846 -4.09773 -1.69119 0
M  V30 3374 H 332.066 -0.662385 -0.10718 0
M  V30 3375 H 334.61 -2.01966 0.320923 0
M  V30 3376 H 332.765 -3.49099 -1.67954 0
M  V30 3377 H 333.179 -5.23543 -0.316701 0
M  V30 3378 H 334.653 -5.13556 -2.02397 0
M  V30 3379 H 335.13 -3.53999 -2.59964 0
M  V30 3380 H 335.736 -4.12556 -1.03332 0
M  V30 3381 N 334.051 0.0651679 -1.57465 0
M  V30 3382 C 335.467 0.420105 -1.53972 0
M  V30 3383 C 335.667 1.78782 -0.929474 0
M  V30 3384 O 334.723 2.46771 -0.534839 0
M  V30 3385 C 336.036 0.355084 -2.98596 0
M  V30 3386 C 337.584 0.434792 -3.09965 0
M  V30 3387 C 338.059 0.399609 -4.56253 0
M  V30 3388 N 339.55 0.459488 -4.60915 0
M  V30 3389 C 340.285 0.454584 -5.71595 0
M  V30 3390 N 339.781 0.404102 -6.9162 0
M  V30 3391 N 341.574 0.501635 -5.59857 0
M  V30 3392 H 333.725 -0.830328 -1.95498 0
M  V30 3393 H 335.988 -0.312244 -0.895102 0
M  V30 3394 H 335.694 -0.583357 -3.46828 0
M  V30 3395 H 335.568 1.16275 -3.58831 0
M  V30 3396 H 337.955 1.36366 -2.61703 0
M  V30 3397 H 338.036 -0.40157 -2.52628 0
M  V30 3398 H 337.68 -0.525436 -5.05175 0
M  V30 3399 H 337.61 1.25359 -5.11461 0
M  V30 3400 H 340.101 0.502482 -3.74544 0
M  V30 3401 H 340.414 0.404468 -7.71741 0
M  V30 3402 H 338.759 0.37069 -6.94011 0
M  V30 3403 H 341.95 0.538812 -4.64989 0
M  V30 3404 H 342.123 0.494345 -6.46112 0
M  V30 3405 N 335.529 1.53961 0.336706 0
M  V30 3406 C 336.459 1.85417 1.41925 0
M  V30 3407 C 337.44 0.709856 1.5458 0
M  V30 3408 O 338.625 0.962396 1.68676 0
M  V30 3409 C 335.755 2.06985 2.78881 0
M  V30 3410 C 334.709 3.22813 2.81026 0
M  V30 3411 C 334.035 3.29727 4.20932 0
M  V30 3412 C 335.335 4.60767 2.45949 0
M  V30 3413 H 337.029 2.76079 1.15848 0
M  V30 3414 H 334.575 1.32839 0.555859 0
M  V30 3415 H 336.528 2.27575 3.54665 0
M  V30 3416 H 335.252 1.13061 3.06406 0
M  V30 3417 H 333.911 3.0209 2.07695 0
M  V30 3418 H 333.559 2.33385 4.45579 0
M  V30 3419 H 333.259 4.07566 4.23277 0
M  V30 3420 H 334.783 3.52536 4.98549 0
M  V30 3421 H 336.197 4.81325 3.11446 0
M  V30 3422 H 334.594 5.4106 2.59566 0
M  V30 3423 H 335.664 4.6391 1.41122 0
M  V30 3424 N 337.007 -0.598083 1.45811 0
M  V30 3425 C 338.254 -1.35681 1.50323 0
M  V30 3426 C 338.582 -1.9393 0.148739 0
M  V30 3427 O 337.837 -1.76094 -0.853787 0
M  V30 3428 C 338.136 -2.51669 2.53766 0
M  V30 3429 C 337.802 -2.11508 3.98215 0
M  V30 3430 C 336.464 -2.0027 4.37545 0
M  V30 3431 C 338.816 -1.80308 4.89018 0
M  V30 3432 C 336.144 -1.56067 5.65562 0
M  V30 3433 C 338.496 -1.37589 6.17456 0
M  V30 3434 C 337.16 -1.24916 6.55708 0
M  V30 3435 H 336.43 -0.496492 0.550069 0
M  V30 3436 H 339.077 -0.675052 1.79207 0
M  V30 3437 H 337.382 -3.25225 2.18486 0
M  V30 3438 H 339.079 -3.09895 2.54492 0
M  V30 3439 H 335.669 -2.21185 3.67117 0
M  V30 3440 H 339.853 -1.87884 4.59362 0
M  V30 3441 H 335.109 -1.44886 5.93985 0
M  V30 3442 H 339.283 -1.12495 6.87254 0
M  V30 3443 H 336.91 -0.904386 7.54801 0
M  V30 3444 N 338.485 -1.33259 -0.841409 0
M  V30 3445 C 339.896 -1.22066 -1.41269 0
M  V30 3446 C 340.247 0.161479 -1.95534 0
M  V30 3447 O 339.372 1.06094 -1.88608 0
M  V30 3448 C 339.967 -2.20996 -2.568 0
M  V30 3449 C 338.526 -2.13649 -3.09888 0
M  V30 3450 C 337.673 -2.08623 -1.82679 0
M  V30 3451 H 340.624 -1.44895 -0.647395 0
M  V30 3452 H 340.645 -1.81621 -3.34356 0
M  V30 3453 H 340.157 -3.2158 -2.17274 0
M  V30 3454 H 338.258 -1.16359 -3.53965 0
M  V30 3455 H 338.371 -3.04079 -3.70234 0
M  V30 3456 H 336.735 -1.54061 -2.02824 0
M  V30 3457 H 337.518 -3.1101 -1.45353 0
M  V30 3458 N 339.963 1.05934 -1.16686 0
M  V30 3459 C 341.24 1.75643 -0.860747 0
M  V30 3460 C 341.62 2.01144 0.640641 0
M  V30 3461 O 340.968 1.64147 1.58959 0
M  V30 3462 C 341.178 3.05493 -1.68745 0
M  V30 3463 C 342.526 3.79581 -1.90271 0
M  V30 3464 O 343.55 3.15344 -1.65641 0
M  V30 3465 O 342.409 4.9499 -2.31618 0
M  V30 3466 H 339.503 0.763426 -0.317977 0
M  V30 3467 H 342.049 1.1217 -1.27342 0
M  V30 3468 H 340.821 2.8264 -2.70611 0
M  V30 3469 H 340.444 3.76702 -1.27206 0
M  V30 3470 N 341.441 0.965919 1.2453 0
M  V30 3471 C 342.688 0.626831 1.92554 0
M  V30 3472 C 343.016 -0.837739 1.75534 0
M  V30 3473 O 342.271 -1.61793 1.10098 0
M  V30 3474 C 342.57 0.945428 3.44669 0
M  V30 3475 C 342.236 2.39785 3.81856 0
M  V30 3476 C 340.898 2.79483 3.91718 0
M  V30 3477 C 343.25 3.34055 4.00071 0
M  V30 3478 C 340.578 4.12496 4.1721 0
M  V30 3479 C 342.93 4.66694 4.27059 0
M  V30 3480 C 341.594 5.06172 4.3514 0
M  V30 3481 H 340.864 0.229374 0.704605 0
M  V30 3482 H 343.511 1.21707 1.4785 0
M  V30 3483 H 341.816 0.272926 3.90848 0
M  V30 3484 H 343.513 0.661484 3.95507 0
M  V30 3485 H 340.103 2.08003 3.74743 0
M  V30 3486 H 344.287 3.04571 3.91855 0
M  V30 3487 H 339.543 4.42709 4.21685 0
M  V30 3488 H 343.717 5.3971 4.40097 0
M  V30 3489 H 341.344 6.09262 4.54646 0
M  V30 3490 N 342.919 -1.39368 0.735821 0
M  V30 3491 C 344.166 -2.00497 0.284123 0
M  V30 3492 C 344.494 -1.58387 -1.12889 0
M  V30 3493 O 343.749 -0.804359 -1.78406 0
M  V30 3494 C 344.048 -3.5583 0.334651 0
M  V30 3495 C 343.714 -4.17593 1.7008 0
M  V30 3496 C 342.376 -4.34176 2.07472 0
M  V30 3497 C 344.728 -4.51848 2.59775 0
M  V30 3498 C 342.056 -4.82304 3.34065 0
M  V30 3499 C 344.408 -5.01384 3.85741 0
M  V30 3500 C 343.072 -5.16175 4.23225 0
M  V30 3501 H 342.342 -0.73367 0.103968 0
M  V30 3502 H 344.989 -1.66683 0.942825 0
M  V30 3503 H 343.294 -3.89674 -0.407625 0
M  V30 3504 H 344.991 -4.00986 -0.0329927 0
M  V30 3505 H 341.581 -4.05087 1.40008 0
M  V30 3506 H 345.765 -4.38653 2.32157 0
M  V30 3507 H 341.021 -4.91941 3.63049 0
M  V30 3508 H 345.195 -5.26863 4.55399 0
M  V30 3509 H 342.822 -5.5323 5.21384 0
M  V30 3510 N 344.397 -0.483516 -1.5 0
M  V30 3511 C 345.625 0.0644831 -2.06799 0
M  V30 3512 C 346.04 1.32399 -1.34596 0
M  V30 3513 O 345.397 1.77626 -0.418946 0
M  V30 3514 C 345.448 0.339927 -3.59898 0
M  V30 3515 O 345.169 -0.869635 -4.29382 0
M  V30 3516 C 346.67 0.933515 -4.33359 0
M  V30 3517 H 343.89 -0.0126333 -0.670881 0
M  V30 3518 H 346.434 -0.675864 -1.93009 0
M  V30 3519 H 344.589 1.03022 -3.7345 0
M  V30 3520 H 345.003 -0.62179 -5.20801 0
M  V30 3521 H 346.477 1.07593 -5.41413 0
M  V30 3522 H 346.954 1.92685 -3.94676 0
M  V30 3523 H 347.56 0.281221 -4.24369 0
M  V30 3524 N 345.875 1.56104 -0.216619 0
M  V30 3525 C 347.291 1.58995 0.13886 0
M  V30 3526 C 347.491 1.23333 1.59346 0
M  V30 3527 O 346.547 0.966234 2.33281 0
M  V30 3528 C 347.86 3.00143 -0.182968 0
M  V30 3529 C 349.408 3.12751 -0.124807 0
M  V30 3530 C 349.883 4.56068 -0.420241 0
M  V30 3531 N 351.374 4.61723 -0.369634 0
M  V30 3532 C 352.109 5.70542 -0.571789 0
M  V30 3533 N 351.605 6.87744 -0.835453 0
M  V30 3534 N 353.398 5.59831 -0.504563 0
M  V30 3535 H 345.549 1.77562 -1.16557 0
M  V30 3536 H 347.812 0.825091 -0.466828 0
M  V30 3537 H 347.518 3.30871 -1.19237 0
M  V30 3538 H 347.392 3.73813 0.504367 0
M  V30 3539 H 349.779 2.81822 0.875223 0
M  V30 3540 H 349.86 2.41421 -0.845544 0
M  V30 3541 H 349.504 4.87713 -1.41769 0
M  V30 3542 H 349.434 5.25617 0.321631 0
M  V30 3543 H 351.925 3.77502 -0.173338 0
M  V30 3544 H 352.238 7.66587 -0.977938 0
M  V30 3545 H 350.583 6.895 -0.872592 0
M  V30 3546 H 353.774 4.67145 -0.298842 0
M  V30 3547 H 353.947 6.44573 -0.665519 0
M  V30 3548 N 347.353 -0.0568162 1.57498 0
M  V30 3549 C 348.599 -0.75422 1.88253 0
M  V30 3550 C 348.932 -1.76461 0.810865 0
M  V30 3551 O 348.207 -1.93691 -0.177259 0
M  V30 3552 C 348.49 -1.44878 3.2967 0
M  V30 3553 C 348.343 -0.453789 4.47505 0
M  V30 3554 C 349.662 -2.38994 3.69554 0
M  V30 3555 H 346.781 -0.272724 0.684683 0
M  V30 3556 H 349.423 -0.0172113 1.89992 0
M  V30 3557 H 347.573 -2.077 3.28318 0
M  V30 3558 H 349.245 0.170371 4.60985 0
M  V30 3559 H 347.488 0.229552 4.33192 0
M  V30 3560 H 348.159 -0.977699 5.43273 0
M  V30 3561 H 350.635 -1.86239 3.72095 0
M  V30 3562 H 349.511 -2.84587 4.69363 0
M  V30 3563 H 349.772 -3.24461 3.00296 0
M  V30 3564 N 348.832 -1.54138 -0.328536 0
M  V30 3565 C 349.795 -1.82462 -1.38709 0
M  V30 3566 C 350.795 -0.696229 -1.44946 0
M  V30 3567 O 351.985 -0.964535 -1.4506 0
M  V30 3568 C 349.117 -1.98018 -2.77492 0
M  V30 3569 H 350.31 -2.77037 -1.14851 0
M  V30 3570 H 347.863 -1.45779 -0.563751 0
M  V30 3571 H 348.598 -1.05637 -3.06613 0
M  V30 3572 H 348.383 -2.80124 -2.74359 0
M  V30 3573 H 349.873 -2.21396 -3.54081 0
M  V30 3574 N 350.31 0.590341 -1.46126 0
M  V30 3575 C 351.24 1.71032 -1.58966 0
M  V30 3576 C 352.221 1.64302 -0.440335 0
M  V30 3577 O 353.406 1.82436 -0.665634 0
M  V30 3578 C 350.536 3.09665 -1.57241 0
M  V30 3579 C 349.49 3.31221 -2.71066 0
M  V30 3580 C 348.816 4.70303 -2.54399 0
M  V30 3581 C 350.116 3.19796 -4.1295 0
M  V30 3582 H 351.81 1.60543 -2.52718 0
M  V30 3583 H 349.356 0.770933 -1.21625 0
M  V30 3584 H 351.309 3.87831 -1.64819 0
M  V30 3585 H 350.033 3.21036 -0.600289 0
M  V30 3586 H 348.692 2.55452 -2.62944 0
M  V30 3587 H 348.34 4.78429 -1.55288 0
M  V30 3588 H 348.04 4.85679 -3.30741 0
M  V30 3589 H 349.564 5.50647 -2.63857 0
M  V30 3590 H 350.978 3.87815 -4.22223 0
M  V30 3591 H 349.375 3.46696 -4.89818 0
M  V30 3592 H 350.445 2.16983 -4.33643 0
M  V30 3593 N 351.788 1.33704 0.83433 0
M  V30 3594 C 353.018 1.28281 1.6195 0
M  V30 3595 C 353.426 -0.147603 1.88623 0
M  V30 3596 O 352.769 -1.1016 1.47005 0
M  V30 3597 C 352.831 1.99386 2.99141 0
M  V30 3598 C 352.495 3.48681 2.95416 0
M  V30 3599 C 353.492 4.438 2.70809 0
M  V30 3600 C 351.177 3.90925 3.15409 0
M  V30 3601 C 353.171 5.79138 2.66229 0
M  V30 3602 C 350.858 5.26366 3.10454 0
M  V30 3603 C 351.856 6.20284 2.85895 0
M  V30 3604 O 351.544 7.53245 2.80852 0
M  V30 3605 H 351.276 0.44315 0.510484 0
M  V30 3606 H 353.83 1.76711 1.04702 0
M  V30 3607 H 352.06 1.45554 3.58261 0
M  V30 3608 H 353.749 1.87403 3.60049 0
M  V30 3609 H 354.515 4.12485 2.5511 0
M  V30 3610 H 350.394 3.18229 3.33543 0
M  V30 3611 H 353.938 6.52416 2.4698 0
M  V30 3612 H 349.835 5.57304 3.25703 0
M  V30 3613 H 350.603 7.62846 2.96661 0
M  V30 3614 N 353.266 -1.05314 1.17247 0
M  V30 3615 C 354.512 -1.78557 0.961513 0
M  V30 3616 C 354.845 -1.87419 -0.508697 0
M  V30 3617 O 354.12 -1.37307 -1.37757 0
M  V30 3618 C 354.403 -3.22514 1.60176 0
M  V30 3619 C 354.256 -3.21673 3.14399 0
M  V30 3620 C 355.575 -4.20318 1.30463 0
M  V30 3621 H 352.694 -0.6482 0.350723 0
M  V30 3622 H 355.336 -1.23102 1.44727 0
M  V30 3623 H 353.486 -3.69867 1.18871 0
M  V30 3624 H 355.158 -2.82405 3.64753 0
M  V30 3625 H 353.401 -2.60048 3.47214 0
M  V30 3626 H 354.072 -4.23271 3.54324 0
M  V30 3627 H 356.548 -3.81454 1.66229 0
M  V30 3628 H 355.424 -5.19289 1.77848 0
M  V30 3629 H 355.685 -4.41526 0.22521 0
M  V30 3630 N 354.744 -0.972509 -1.24016 0
M  V30 3631 C 356.021 -0.553733 -1.87598 0
M  V30 3632 C 356.401 0.969158 -1.87538 0
M  V30 3633 O 355.749 1.84255 -1.35139 0
M  V30 3634 C 355.959 -1.15076 -3.29482 0
M  V30 3635 C 357.307 -1.23862 -4.06132 0
M  V30 3636 O 358.331 -1.10363 -3.38672 0
M  V30 3637 O 357.19 -1.45252 -5.26844 0
M  V30 3638 H 354.284 -0.185331 -0.805966 0
M  V30 3639 H 356.83 -1.06709 -1.31952 0
M  V30 3640 H 355.602 -2.19333 -3.2405 0
M  V30 3641 H 355.225 -0.621746 -3.92709 0
M  V30 3642 N 356.222 1.38976 -0.743202 0
M  V30 3643 C 357.468 2.01114 -0.304109 0
M  V30 3644 C 357.823 1.57929 1.09892 0
M  V30 3645 O 357.116 0.801983 1.74008 0
M  V30 3646 C 357.31 3.55647 -0.353517 0
M  V30 3647 C 357.139 4.13837 -1.75981 0
M  V30 3648 C 355.909 4.46062 -2.37395 0
M  V30 3649 C 358.107 4.36812 -2.71477 0
M  V30 3650 N 356.089 4.898 -3.70093 0
M  V30 3651 C 357.46 4.82844 -3.88923 0
M  V30 3652 C 359.515 4.18893 -2.69134 0
M  V30 3653 C 358.218 5.12837 -5.04371 0
M  V30 3654 C 360.244 4.50005 -3.83731 0
M  V30 3655 C 359.606 4.96251 -4.99914 0
M  V30 3656 H 355.705 0.765931 -0.157716 0
M  V30 3657 H 358.289 1.68763 -0.970931 0
M  V30 3658 H 356.46 3.87368 0.282987 0
M  V30 3659 H 358.192 4.04564 0.104904 0
M  V30 3660 H 354.947 4.34145 -1.89248 0
M  V30 3661 H 355.371 5.16016 -4.38242 0
M  V30 3662 H 360.013 3.82335 -1.80499 0
M  V30 3663 H 357.731 5.48297 -5.9363 0
M  V30 3664 H 361.317 4.37755 -3.83225 0
M  V30 3665 H 360.197 5.19867 -5.87118 0
M  V30 3666 N 357.7 0.491464 1.49741 0
M  V30 3667 C 358.949 -0.0582189 2.01616 0
M  V30 3668 C 359.262 -1.38927 1.3769 0
M  V30 3669 O 360.468 -2.02509 1.80838 0
M  V30 3670 C 358.924 -0.154235 3.59569 0
M  V30 3671 C 358.532 1.1696 4.32463 0
M  V30 3672 C 360.276 -0.65479 4.1942 0
M  V30 3673 C 358.183 1.03627 5.8225 0
M  V30 3674 H 357.113 -0.0255317 0.753568 0
M  V30 3675 H 359.764 0.629445 1.72367 0
M  V30 3676 H 358.146 -0.906138 3.85493 0
M  V30 3677 H 359.32 1.93405 4.18248 0
M  V30 3678 H 357.635 1.60285 3.84315 0
M  V30 3679 H 360.232 -0.771903 5.29099 0
M  V30 3680 H 360.575 -1.65127 3.8215 0
M  V30 3681 H 361.108 0.040304 3.9778 0
M  V30 3682 H 357.847 2.00672 6.24028 0
M  V30 3683 H 357.367 0.312546 5.98985 0
M  V30 3684 H 359.046 0.711114 6.4308 0
M  V30 3685 N 359.178 -1.55987 0.224894 0
M  V30 3686 C 360.594 -1.59066 -0.130426 0
M  V30 3687 C 360.794 -1.24176 -1.5869 0
M  V30 3688 O 359.85 -0.978592 -2.32766 0
M  V30 3689 C 361.163 -3.00042 0.198883 0
M  V30 3690 C 362.711 -3.1268 0.141391 0
M  V30 3691 C 363.186 -4.55839 0.444422 0
M  V30 3692 N 364.677 -4.6152 0.394115 0
M  V30 3693 C 365.412 -5.70231 0.602038 0
M  V30 3694 N 364.908 -6.87291 0.871914 0
M  V30 3695 N 366.701 -5.59555 0.534245 0
M  V30 3696 H 358.852 -1.76941 1.17497 0
M  V30 3697 H 361.115 -0.822604 0.471197 0
M  V30 3698 H 360.821 -3.30234 1.2099 0
M  V30 3699 H 360.695 -3.74075 -0.484535 0
M  V30 3700 H 363.082 -2.82283 -0.860265 0
M  V30 3701 H 363.163 -2.40969 0.858335 0
M  V30 3702 H 362.807 -4.86954 1.44353 0
M  V30 3703 H 362.737 -5.2578 -0.293752 0
M  V30 3704 H 365.228 -3.77405 0.193356 0
M  V30 3705 H 365.541 -7.66058 1.01858 0
M  V30 3706 H 363.886 -6.89028 0.909145 0
M  V30 3707 H 367.077 -4.6698 0.323612 0
M  V30 3708 H 367.25 -6.44211 0.699693 0
M  V30 3709 N 360.656 0.0484629 -1.57525 0
M  V30 3710 C 361.881 0.759177 -1.93006 0
M  V30 3711 C 362.306 1.69125 -0.823317 0
M  V30 3712 O 361.664 1.79931 0.222364 0
M  V30 3713 C 361.712 1.50899 -3.27509 0
M  V30 3714 O 360.816 2.62112 -3.18388 0
M  V30 3715 H 360.157 0.205564 -0.631379 0
M  V30 3716 H 362.687 0.00972959 -2.04598 0
M  V30 3717 H 362.697 1.88317 -3.6194 0
M  V30 3718 H 361.372 0.825269 -4.0763 0
M  V30 3719 H 359.949 2.27379 -2.95556 0
M  V30 3720 N 362.134 1.5431 0.320358 0
M  V30 3721 C 363.362 1.76636 1.07738 0
M  V30 3722 C 363.777 0.51649 1.81598 0
M  V30 3723 O 363.134 -0.512942 1.75143 0
M  V30 3724 C 363.185 2.96158 2.07299 0
M  V30 3725 O 362.906 4.16313 1.36438 0
M  V30 3726 C 364.407 3.3072 2.95193 0
M  V30 3727 H 361.627 0.589597 0.320339 0
M  V30 3728 H 364.171 2.01207 0.36551 0
M  V30 3729 H 362.326 2.73851 2.74016 0
M  V30 3730 H 362.74 4.83565 2.03138 0
M  V30 3731 H 364.214 4.17643 3.60941 0
M  V30 3732 H 364.691 2.48026 3.62463 0
M  V30 3733 H 365.297 3.55117 2.34034 0
M  V30 3734 N 363.613 -0.582584 1.46437 0
M  V30 3735 C 364.543 -1.70187 1.59871 0
M  V30 3736 C 365.524 -1.64066 0.449042 0
M  V30 3737 O 366.709 -1.82081 0.6753 0
M  V30 3738 C 363.839 -3.08827 1.58881 0
M  V30 3739 C 362.793 -3.29779 2.72819 0
M  V30 3740 C 362.119 -4.68947 2.5689 0
M  V30 3741 C 363.419 -3.17601 4.1464 0
M  V30 3742 H 365.113 -1.592 2.53566 0
M  V30 3743 H 362.659 -0.764472 1.22032 0
M  V30 3744 H 364.612 -3.86951 1.66873 0
M  V30 3745 H 363.336 -3.20713 0.617306 0
M  V30 3746 H 361.995 -2.54054 2.64296 0
M  V30 3747 H 361.643 -4.77599 1.57823 0
M  V30 3748 H 361.343 -4.83919 3.33312 0
M  V30 3749 H 362.867 -5.4924 2.66773 0
M  V30 3750 H 364.281 -3.8557 4.24274 0
M  V30 3751 H 362.678 -3.44094 4.9165 0
M  V30 3752 H 363.748 -2.14681 4.34788 0
M  V30 3753 N 365.091 -1.34144 -0.827227 0
M  V30 3754 C 366.507 -1.13732 -1.11969 0
M  V30 3755 C 366.707 0.0640463 -2.01398 0
M  V30 3756 O 365.763 0.740856 -2.41387 0
M  V30 3757 C 367.076 -2.43047 -1.77055 0
M  V30 3758 C 368.624 -2.49063 -1.89569 0
M  V30 3759 C 369.099 -3.78369 -2.58072 0
M  V30 3760 N 370.59 -3.79505 -2.65575 0
M  V30 3761 C 371.325 -4.76274 -3.19297 0
M  V30 3762 N 370.821 -5.83424 -3.73616 0
M  V30 3763 N 372.614 -4.63735 -3.17658 0
M  V30 3764 H 364.765 -2.11126 -0.232296 0
M  V30 3765 H 367.028 -0.933424 -0.165602 0
M  V30 3766 H 366.734 -3.31025 -1.18807 0
M  V30 3767 H 366.608 -2.56066 -2.76966 0
M  V30 3768 H 368.995 -1.61527 -2.46968 0
M  V30 3769 H 369.076 -2.39975 -0.885745 0
M  V30 3770 H 368.72 -4.66293 -2.01329 0
M  V30 3771 H 368.65 -3.84737 -3.59562 0
M  V30 3772 H 371.141 -3.02074 -2.27068 0
M  V30 3773 H 371.454 -6.53282 -4.12846 0
M  V30 3774 H 369.799 -5.87143 -3.71871 0
M  V30 3775 H 372.99 -3.79177 -2.74486 0
M  V30 3776 H 373.163 -5.39318 -3.59221 0
M  V30 3777 N 366.569 1.04691 -1.17803 0
M  V30 3778 C 367.985 1.29963 -0.926379 0
M  V30 3779 C 368.185 1.97251 0.411635 0
M  V30 3780 O 367.241 2.24922 1.14744 0
M  V30 3781 C 368.554 2.16447 -2.08737 0
M  V30 3782 C 370.102 2.29814 -2.12496 0
M  V30 3783 C 370.577 3.19661 -3.27995 0
M  V30 3784 N 372.068 3.27247 -3.27816 0
M  V30 3785 C 372.803 3.96906 -4.13827 0
M  V30 3786 N 372.299 4.6895 -5.09959 0
M  V30 3787 N 374.092 3.93122 -4.01761 0
M  V30 3788 H 366.243 0.594182 -2.0392 0
M  V30 3789 H 368.506 0.324649 -0.890678 0
M  V30 3790 H 368.212 1.74304 -3.05469 0
M  V30 3791 H 368.086 3.17103 -2.04268 0
M  V30 3792 H 370.473 2.71196 -1.16347 0
M  V30 3793 H 370.554 1.2877 -2.21025 0
M  V30 3794 H 370.198 2.78991 -4.24413 0
M  V30 3795 H 370.128 4.20722 -3.16703 0
M  V30 3796 H 372.619 2.75921 -2.58217 0
M  V30 3797 H 372.932 5.19679 -5.71974 0
M  V30 3798 H 371.277 4.67875 -5.13924 0
M  V30 3799 H 374.468 3.35967 -3.2595 0
M  V30 3800 H 374.641 4.47139 -4.6901 0
M  V30 3801 N 368.047 0.979072 1.23499 0
M  V30 3802 C 369.293 0.648178 1.92163 0
M  V30 3803 C 369.626 -0.816049 1.76222 0
M  V30 3804 O 368.901 -1.58849 1.12237 0
M  V30 3805 C 369.184 1.03773 3.44824 0
M  V30 3806 C 369.037 2.55948 3.69879 0
M  V30 3807 C 370.356 0.580653 4.36253 0
M  V30 3808 H 367.475 0.236952 0.69787 0
M  V30 3809 H 370.117 1.22012 1.45647 0
M  V30 3810 H 368.267 0.551058 3.84572 0
M  V30 3811 H 369.939 3.12179 3.3962 0
M  V30 3812 H 368.182 2.98641 3.14636 0
M  V30 3813 H 368.853 2.78255 4.76737 0
M  V30 3814 H 371.329 0.998465 4.03943 0
M  V30 3815 H 370.205 0.881663 5.41773 0
M  V30 3816 H 370.466 -0.519052 4.39042 0
M  V30 3817 N 369.525 -1.3858 0.750561 0
M  V30 3818 C 370.435 -2.34278 0.122825 0
M  V30 3819 C 371.451 -1.59116 -0.704131 0
M  V30 3820 O 372.627 -1.91326 -0.628987 0
M  V30 3821 C 369.692 -3.38221 -0.762086 0
M  V30 3822 C 368.753 -4.29227 0.078896 0
M  V30 3823 C 367.986 -5.28205 -0.763874 0
M  V30 3824 O 368.209 -5.34112 -2.00201 0
M  V30 3825 O 367.143 -6.01618 -0.18428 0
M  V30 3826 H 370.969 -2.89649 0.913088 0
M  V30 3827 H 368.554 -1.40374 0.511417 0
M  V30 3828 H 370.436 -4.01872 -1.26793 0
M  V30 3829 H 369.111 -2.85211 -1.5309 0
M  V30 3830 H 368.018 -3.68747 0.630621 0
M  V30 3831 H 369.351 -4.85484 0.810289 0
M  V30 3832 N 371.003 -0.499398 -1.49478 0
M  V30 3833 C 371.966 0.268838 -2.27618 0
M  V30 3834 C 372.966 0.895383 -1.33565 0
M  V30 3835 O 374.156 0.760164 -1.56739 0
M  V30 3836 C 371.288 1.38559 -3.11471 0
M  V30 3837 H 372.481 -0.416812 -2.96989 0
M  V30 3838 H 370.034 -0.254313 -1.54217 0
M  V30 3839 H 370.769 2.10544 -2.46661 0
M  V30 3840 H 370.554 0.941797 -3.80621 0
M  V30 3841 H 372.044 1.92678 -3.70493 0
M  V30 3842 N 372.481 1.55866 -0.233164 0
M  V30 3843 C 373.428 2.20796 0.67215 0
M  V30 3844 C 374.398 1.16731 1.18166 0
M  V30 3845 O 375.583 1.45129 1.23864 0
M  V30 3846 C 372.723 2.90072 1.86955 0
M  V30 3847 C 371.836 4.08759 1.39786 0
M  V30 3848 C 370.971 4.65787 2.55374 0
M  V30 3849 C 370.01 5.76752 2.04998 0
M  V30 3850 N 369.147 6.28021 3.13901 0
M  V30 3851 H 373.987 2.9779 0.111749 0
M  V30 3852 H 371.524 1.47036 0.0434007 0
M  V30 3853 H 373.482 3.28428 2.57276 0
M  V30 3854 H 372.112 2.15575 2.40265 0
M  V30 3855 H 371.164 3.7581 0.589173 0
M  V30 3856 H 372.476 4.88906 0.98856 0
M  V30 3857 H 371.63 5.06646 3.33758 0
M  V30 3858 H 370.369 3.84828 2.99598 0
M  V30 3859 H 369.374 5.35383 1.25079 0
M  V30 3860 H 370.599 6.59553 1.61759 0
M  V30 3861 H 368.545 5.49971 3.57586 0
M  V30 3862 H 368.462 7.03323 2.7726 0
M  V30 3863 H 369.73 6.73538 3.92386 0
M  V30 3864 N 373.959 -0.0401083 1.57549 0
M  V30 3865 C 375.207 -0.731677 1.8839 0
M  V30 3866 C 375.528 -1.76481 0.829425 0
M  V30 3867 O 374.798 -1.95411 -0.1383 0
M  V30 3868 H 373.378 -0.273225 0.695239 0
M  V30 3869 H 376.04 -0.00867725 1.94898 0
M  V30 3870 H 375.136 -1.22816 2.86919 0
M  V30 3871 N 375.437 -1.54477 -0.31217 0
M  V30 3872 C 376.853 -1.45442 -0.657185 0
M  V30 3873 C 377.053 -0.63653 -1.91182 0
M  V30 3874 O 376.109 -0.139815 -2.52113 0
M  V30 3875 C 377.422 -2.89287 -0.82058 0
M  V30 3876 C 378.97 -2.9926 -0.917188 0
M  V30 3877 C 379.445 -4.44279 -1.11267 0
M  V30 3878 N 380.936 -4.4794 -1.17914 0
M  V30 3879 C 381.671 -5.57318 -1.34848 0
M  V30 3880 N 381.167 -6.76642 -1.48752 0
M  V30 3881 N 382.96 -5.44986 -1.37647 0
M  V30 3882 H 375.111 -2.06129 0.512313 0
M  V30 3883 H 377.374 -0.933088 0.167485 0
M  V30 3884 H 377.08 -3.51687 0.0302604 0
M  V30 3885 H 376.954 -3.36061 -1.71298 0
M  V30 3886 H 379.341 -2.36981 -1.75852 0
M  V30 3887 H 379.422 -2.558 -0.00101257 0
M  V30 3888 H 379.066 -5.07149 -0.27614 0
M  V30 3889 H 378.996 -4.85359 -2.04289 0
M  V30 3890 H 381.487 -3.61969 -1.08567 0
M  V30 3891 H 381.8 -7.55758 -1.61397 0
M  V30 3892 H 380.145 -6.79529 -1.45828 0
M  V30 3893 H 383.336 -4.50715 -1.26388 0
M  V30 3894 H 383.509 -6.3028 -1.50501 0
M  V30 3895 N 376.915 0.57481 -1.46744 0
M  V30 3896 C 378.326 1.15695 -1.46532 0
M  V30 3897 C 378.677 1.95068 -0.210425 0
M  V30 3898 O 377.802 2.05241 0.685944 0
M  V30 3899 C 378.397 2.1048 -2.65487 0
M  V30 3900 C 376.956 2.64002 -2.68291 0
M  V30 3901 C 376.103 1.40026 -2.39349 0
M  V30 3902 H 379.054 0.362325 -1.54509 0
M  V30 3903 H 379.075 2.94074 -2.41455 0
M  V30 3904 H 378.587 1.52683 -3.56805 0
M  V30 3905 H 376.688 3.25646 -1.81067 0
M  V30 3906 H 376.801 3.06197 -3.68483 0
M  V30 3907 H 375.165 1.70106 -1.89568 0
M  V30 3908 H 375.948 0.840485 -3.32852 0
M  V30 3909 O 378.432 1.44602 0.719209 0
M  V30 3910 H 379.123 1.36947 1.36986 0
M  V30 END ATOM
M  V30 BEGIN BOND
M  V30 END BOND
M  V30 END CTAB
M  END
$$$$
