drugbank_target|P24183 Formate dehydrogenase, nitrate-inducible, major subunit (DB07918)
 OpenBabel12092120473D

  0  0  0     0  0            999 V3000
M  V30 BEGIN CTAB
M  V30 COUNTS 15670 15872 0 0 0
M  V30 BEGIN ATOM
M  V30 1 H -0.908 1.98254 -0.117106 0
M  V30 2 N 0 1.576 0 0
M  V30 3 C 0.933 2.03868 1.02534 0
M  V30 4 C 1.911 0.928543 1.3348 0
M  V30 5 O 3.095 1.19667 1.45644 0
M  V30 6 C 0.222 2.43627 2.35294 0
M  V30 7 C -0.732 3.65373 2.2001 0
M  V30 8 S 0.101 5.13292 1.52614 0
M  V30 9 C 1.257 5.56322 2.86805 0
M  V30 10 H 1.49 2.90518 0.631377 0
M  V30 11 H -0.977 1.52953 0.210867 0
M  V30 12 H 0.981 2.67203 3.11629 0
M  V30 13 H -0.358 1.57376 2.7183 0
M  V30 14 H -1.165 3.90944 3.18086 0
M  V30 15 H -1.563 3.418 1.51819 0
M  V30 16 H 0.729 5.58782 3.83104 0
M  V30 17 H 1.672 6.56266 2.65933 0
M  V30 18 H 2.08 4.83886 2.90714 0
M  V30 19 N 1.4781 -0.272755 1.55222 0
M  V30 20 C 2.7551 -1.02562 1.66555 0
M  V30 21 C 3.1351 -2.04282 0.532189 0
M  V30 22 O 2.4831 -2.23662 -0.467717 0
M  V30 23 C 2.6931 -1.6822 3.05782 0
M  V30 24 C 4.0411 -2.19373 3.63539 0
M  V30 25 O 5.0651 -1.78206 3.08417 0
M  V30 26 O 3.9241 -2.94883 4.60115 0
M  V30 27 H 1.0181 -0.475755 0.676451 0
M  V30 28 H 3.5641 -0.268593 1.67561 0
M  V30 29 H 2.3361 -0.945112 3.79715 0
M  V30 30 H 1.9591 -2.50609 3.08676 0
M  V30 31 N 2.9562 -1.48159 -0.537278 0
M  V30 32 C 4.2022 -1.56035 -1.29541 0
M  V30 33 C 4.5352 -0.230377 -1.92829 0
M  V30 34 O 3.8102 0.762952 -1.78911 0
M  V30 35 C 4.0932 -2.69323 -2.39034 0
M  V30 36 C 3.9462 -4.12002 -1.80485 0
M  V30 37 C 5.2652 -2.78408 -3.40847 0
M  V30 38 H 2.3842 -0.567992 -0.469632 0
M  V30 39 H 5.0262 -1.80302 -0.599277 0
M  V30 40 H 3.1762 -2.48763 -2.98412 0
M  V30 41 H 4.8482 -4.43981 -1.25215 0
M  V30 42 H 3.0912 -4.19344 -1.11055 0
M  V30 43 H 3.7622 -4.87077 -2.59731 0
M  V30 44 H 6.2382 -2.97012 -2.91416 0
M  V30 45 H 5.1142 -3.59416 -4.14863 0
M  V30 46 H 5.3752 -1.86269 -4.00944 0
M  V30 47 N 4.4343 0.785586 -1.36625 0
M  V30 48 C 5.6593 1.57963 -1.34397 0
M  V30 49 C 6.0843 1.87964 0.071526 0
M  V30 50 O 5.4423 1.48182 1.0446 0
M  V30 51 C 5.4903 2.87511 -2.17646 0
M  V30 52 O 4.5943 3.81281 -1.57158 0
M  V30 53 H 3.9353 0.479014 -0.459828 0
M  V30 54 H 6.4653 0.973411 -1.79961 0
M  V30 55 H 6.4753 3.36745 -2.30362 0
M  V30 56 H 5.1503 2.65002 -3.20541 0
M  V30 57 H 3.7273 3.39885 -1.53403 0
M  V30 58 N 5.9124 1.20967 1.01018 0
M  V30 59 C 7.3284 0.965905 1.27053 0
M  V30 60 C 7.5284 -0.350785 1.98423 0
M  V30 61 O 6.5844 -1.07773 2.28344 0
M  V30 62 C 7.8974 2.15294 2.09926 0
M  V30 63 C 9.4454 2.19463 2.23171 0
M  V30 64 C 9.9204 3.3767 3.09424 0
M  V30 65 N 11.4114 3.37724 3.17012 0
M  V30 66 C 12.1464 4.25837 3.83993 0
M  V30 67 N 11.6424 5.24138 4.53047 0
M  V30 68 N 13.4354 4.1366 3.80581 0
M  V30 69 H 5.5864 2.0565 0.531194 0
M  V30 70 H 7.8494 0.90024 0.297106 0
M  V30 71 H 7.5554 3.10684 1.64828 0
M  V30 72 H 7.4294 2.13923 3.10672 0
M  V30 73 H 9.8164 1.24632 2.6749 0
M  V30 74 H 9.8974 2.2488 1.21912 0
M  V30 75 H 9.5414 4.32791 2.65808 0
M  V30 76 H 9.4714 3.29491 4.10784 0
M  V30 77 H 11.9624 2.6658 2.6785 0
M  V30 78 H 12.2754 5.87684 5.01844 0
M  V30 79 H 10.6204 5.28068 4.5185 0
M  V30 80 H 13.8114 3.36127 3.25785 0
M  V30 81 H 13.9844 4.82538 4.32505 0
M  V30 82 N 7.3905 -1.2043 1.01659 0
M  V30 83 C 8.8065 -1.41852 0.731442 0
M  V30 84 C 9.0065 -1.89358 -0.688898 0
M  V30 85 O 8.0625 -2.06247 -1.45666 0
M  V30 86 C 9.3755 -2.44019 1.75714 0
M  V30 87 C 10.9235 -2.57785 1.77527 0
M  V30 88 C 11.3985 -3.63194 2.79023 0
M  V30 89 N 12.8895 -3.70678 2.77763 0
M  V30 90 C 13.6245 -4.51897 3.52954 0
M  V30 91 N 13.1205 -5.36921 4.37821 0
M  V30 92 N 14.9135 -4.4643 3.41551 0
M  V30 93 H 7.0645 -0.879093 1.93354 0
M  V30 94 H 9.3275 -0.448425 0.835236 0
M  V30 95 H 9.0335 -2.1611 2.77469 0
M  V30 96 H 8.9075 -3.43007 1.56927 0
M  V30 97 H 11.2945 -2.85023 0.764569 0
M  V30 98 H 11.3755 -1.58992 2.00387 0
M  V30 99 H 11.0195 -3.36699 3.80258 0
M  V30 100 H 10.9495 -4.61609 2.53425 0
M  V30 101 H 13.4405 -3.09944 2.16201 0
M  V30 102 H 13.7535 -5.95981 4.91962 0
M  V30 103 H 12.0985 -5.36424 4.41899 0
M  V30 104 H 15.2895 -3.79042 2.74672 0
M  V30 105 H 15.4625 -5.09491 4.00404 0
M  V30 106 N 8.8686 -0.792821 -1.36206 0
M  V30 107 C 9.8006 -0.151469 -2.28699 0
M  V30 108 C 10.8136 0.641262 -1.49638 0
M  V30 109 O 12.0026 0.475885 -1.72039 0
M  V30 110 C 9.1026 0.808424 -3.29117 0
M  V30 111 C 8.2756 0.0650202 -4.37352 0
M  V30 112 C 7.3346 0.941358 -5.17711 0
M  V30 113 O 6.3606 0.397352 -5.67811 0
M  V30 114 N 7.5626 2.2652 -5.3448 0
M  V30 115 H 10.3276 -0.945982 -2.84379 0
M  V30 116 H 7.8886 -0.647032 -1.48409 0
M  V30 117 H 9.8806 1.3986 -3.79765 0
M  V30 118 H 8.4506 1.5038 -2.74052 0
M  V30 119 H 7.6706 -0.706255 -3.87822 0
M  V30 120 H 8.9586 -0.447847 -5.06825 0
M  V30 121 H 8.3566 2.73128 -4.95396 0
M  V30 122 H 6.9136 2.80493 -5.88359 0
M  V30 123 N 10.3467 1.47872 -0.545128 0
M  V30 124 C 11.5937 2.02493 -0.0165858 0
M  V30 125 C 11.9217 1.42073 1.32836 0
M  V30 126 O 11.1767 0.561459 1.87473 0
M  V30 127 C 11.4757 3.57131 0.13867 0
M  V30 128 C 11.1417 4.36411 -1.13384 0
M  V30 129 C 9.8037 4.57792 -1.48256 0
M  V30 130 C 12.1557 4.82223 -1.97764 0
M  V30 131 C 9.4837 5.22233 -2.67376 0
M  V30 132 C 11.8357 5.47977 -3.16076 0
M  V30 133 C 10.4997 5.67593 -3.51275 0
M  V30 134 H 9.7697 0.740975 -0.00606918 0
M  V30 135 H 12.4167 1.77683 -0.714207 0
M  V30 136 H 10.7217 3.80865 0.919172 0
M  V30 137 H 12.4187 3.97031 0.562782 0
M  V30 138 H 9.0087 4.2004 -0.852297 0
M  V30 139 H 13.1927 4.65493 -1.72132 0
M  V30 140 H 8.4487 5.35616 -2.94831 0
M  V30 141 H 12.6227 5.8244 -3.81755 0
M  V30 142 H 10.2497 6.17298 -4.43675 0
M  V30 143 N 11.8248 0.280983 1.55075 0
M  V30 144 C 13.0718 -0.334115 1.99725 0
M  V30 145 C 13.3998 -1.5542 1.1694 0
M  V30 146 O 12.6548 -1.94361 0.228531 0
M  V30 147 C 12.9538 -0.754656 3.49342 0
M  V30 148 C 12.6198 0.361445 4.49449 0
M  V30 149 C 11.2818 0.667893 4.76542 0
M  V30 150 C 13.6338 1.11322 5.09173 0
M  V30 151 C 10.9618 1.7296 5.60626 0
M  V30 152 C 13.3138 2.1647 5.9441 0
M  V30 153 C 11.9778 2.47742 6.19822 0
M  V30 154 H 11.2478 -0.122261 0.730844 0
M  V30 155 H 13.8948 0.395917 1.87363 0
M  V30 156 H 12.1998 -1.56446 3.5921 0
M  V30 157 H 13.8968 -1.24142 3.813 0
M  V30 158 H 10.4868 0.112481 4.28452 0
M  V30 159 H 14.6708 0.88973 4.8826 0
M  V30 160 H 9.9268 1.97684 5.78559 0
M  V30 161 H 14.1008 2.75193 6.3972 0
M  V30 162 H 11.7278 3.30145 6.84769 0
M  V30 163 N 13.3029 -1.57598 0.00835791 0
M  V30 164 C 14.2499 -2.08945 -0.980346 0
M  V30 165 C 15.2199 -0.986738 -1.33614 0
M  V30 166 O 16.4049 -1.25968 -1.43306 0
M  V30 167 C 13.5449 -2.60425 -2.26435 0
M  V30 168 C 12.6579 -3.84628 -1.96685 0
M  V30 169 C 11.7929 -4.24579 -3.19228 0
M  V30 170 C 10.8319 -5.41596 -2.85202 0
M  V30 171 N 9.9689 -5.768 -4.00307 0
M  V30 172 H 14.8089 -2.93148 -0.535551 0
M  V30 173 H 12.3459 -1.44912 -0.252776 0
M  V30 174 H 14.3039 -2.88354 -3.01509 0
M  V30 175 H 12.9339 -1.79083 -2.68568 0
M  V30 176 H 11.9859 -3.63556 -1.11942 0
M  V30 177 H 13.2979 -4.69796 -1.67611 0
M  V30 178 H 12.4519 -4.53834 -4.02641 0
M  V30 179 H 11.1909 -3.38137 -3.51447 0
M  V30 180 H 10.1959 -5.12056 -2.00198 0
M  V30 181 H 11.4209 -6.29721 -2.54222 0
M  V30 182 H 9.3669 -4.93316 -4.32407 0
M  V30 183 H 9.2839 -6.5656 -3.74786 0
M  V30 184 H 10.5519 -6.10652 -4.84484 0
M  V30 185 N 14.781 0.264519 -1.55364 0
M  V30 186 C 16.03 0.992812 -1.75574 0
M  V30 187 C 16.343 1.87142 -0.568979 0
M  V30 188 O 17.549 2.63513 -0.653682 0
M  V30 189 C 16.005 1.81519 -3.10771 0
M  V30 190 C 15.613 0.984839 -4.37041 0
M  V30 191 C 17.357 2.53727 -3.40327 0
M  V30 192 C 15.264 1.80209 -5.63275 0
M  V30 193 H 14.194 0.374412 -0.65447 0
M  V30 194 H 16.845 0.248138 -1.81815 0
M  V30 195 H 15.227 2.60115 -2.98591 0
M  V30 196 H 16.401 0.242455 -4.60162 0
M  V30 197 H 14.716 0.37691 -4.14691 0
M  V30 198 H 17.313 3.15292 -4.3185 0
M  V30 199 H 17.656 3.24447 -2.60845 0
M  V30 200 H 18.189 1.82156 -3.53644 0
M  V30 201 H 14.928 1.13896 -6.45529 0
M  V30 202 H 14.448 2.52022 -5.44284 0
M  V30 203 H 16.127 2.37364 -6.01887 0
M  V30 204 N 16.2591 1.48442 0.529413 0
M  V30 205 C 17.4991 1.58086 1.29569 0
M  V30 206 C 17.8631 0.249302 1.90375 0
M  V30 207 O 19.0641 0.220738 2.67892 0
M  V30 208 C 17.3351 2.68793 2.35552 0
M  V30 209 S 18.8941 2.98207 3.21898 0
M  V30 210 H 15.7121 0.557922 0.440732 0
M  V30 211 H 18.3141 1.85966 0.603059 0
M  V30 212 H 17.0181 3.64102 1.89363 0
M  V30 213 H 16.5491 2.42817 3.09522 0
M  V30 214 H 18.5641 2.37548 4.35644 0
M  V30 215 N 17.7372 -0.778329 1.37039 0
M  V30 216 C 18.7002 -1.87301 1.32102 0
M  V30 217 C 19.7002 -1.59198 0.226405 0
M  V30 218 O 20.8902 -1.67403 0.481861 0
M  V30 219 C 18.0222 -3.24309 1.05055 0
M  V30 220 H 19.2152 -1.93093 2.29467 0
M  V30 221 H 16.7682 -0.977358 1.21973 0
M  V30 222 H 17.5032 -3.24196 0.0819373 0
M  V30 223 H 17.2882 -3.46098 1.84279 0
M  V30 224 H 18.7782 -4.04382 1.04234 0
M  V30 225 N 19.2153 -1.21501 -1.00376 0
M  V30 226 C 20.4633 -1.03095 -1.73827 0
M  V30 227 C 20.7843 0.436341 -1.90055 0
M  V30 228 O 20.0543 1.31466 -1.45236 0
M  V30 229 H 18.6343 -0.378487 -0.644016 0
M  V30 230 H 21.2963 -1.52831 -1.20949 0
M  V30 231 H 20.3923 -1.49991 -2.73695 0
M  V30 232 N 20.6934 1.19889 -1.02296 0
M  V30 233 C 21.9414 1.89046 -0.714558 0
M  V30 234 C 22.2624 1.79636 0.758681 0
M  V30 235 O 21.5324 1.20292 1.54618 0
M  V30 236 H 20.1124 0.699802 -0.261317 0
M  V30 237 H 22.7744 1.45574 -1.29592 0
M  V30 238 H 21.8704 2.95524 -1.0036 0
M  V30 239 N 22.1715 0.800033 1.35784 0
M  V30 240 C 23.1045 0.151499 2.27697 0
M  V30 241 C 24.0825 -0.678663 1.4776 0
M  V30 242 O 25.2665 -0.647358 1.77035 0
M  V30 243 C 22.3935 -0.790492 3.29346 0
M  V30 244 C 21.4395 -0.0407832 4.26481 0
M  V30 245 S 22.2725 1.29077 5.19711 0
M  V30 246 C 23.4285 0.353055 6.24903 0
M  V30 247 H 23.6615 0.930796 2.82353 0
M  V30 248 H 21.1945 0.594767 1.42485 0
M  V30 249 H 23.1525 -1.3285 3.88409 0
M  V30 250 H 21.8135 -1.54312 2.73581 0
M  V30 251 H 21.0065 -0.755971 4.98298 0
M  V30 252 H 20.6085 0.427063 3.71554 0
M  V30 253 H 22.9005 -0.464147 6.75908 0
M  V30 254 H 23.8435 1.04023 7.00418 0
M  V30 255 H 24.2515 -0.0483344 5.64479 0
M  V30 256 N 23.6496 -1.47581 0.552962 0
M  V30 257 C 24.6126 -2.28439 -0.186605 0
M  V30 258 C 25.6126 -1.36706 -0.84665 0
M  V30 259 O 26.8026 -1.59378 -0.703164 0
M  V30 260 C 23.9346 -3.16264 -1.2724 0
M  V30 261 H 25.1276 -2.95294 0.523609 0
M  V30 262 H 22.6806 -1.532 0.309745 0
M  V30 263 H 23.4156 -2.54091 -2.01514 0
M  V30 264 H 23.2006 -3.83769 -0.803968 0
M  V30 265 H 24.6906 -3.77198 -1.79196 0
M  V30 266 N 25.1277 -0.289203 -1.54924 0
M  V30 267 C 26.3757 0.322879 -1.99504 0
M  V30 268 C 26.6967 1.55313 -1.1791 0
M  V30 269 O 25.9667 1.94001 -0.272097 0
M  V30 270 H 24.5467 0.122291 -0.736922 0
M  V30 271 H 27.2087 -0.397802 -1.90797 0
M  V30 272 H 26.3047 0.603061 -3.06218 0
M  V30 273 N 26.6058 1.57591 -0.0167156 0
M  V30 274 C 27.8338 1.95575 0.675128 0
M  V30 275 C 28.2488 0.892542 1.6637 0
M  V30 276 O 27.6058 -0.126912 1.82058 0
M  V30 277 C 27.6568 3.33608 1.39239 0
M  V30 278 O 27.3778 4.3585 0.443444 0
M  V30 279 C 28.8788 3.86151 2.17721 0
M  V30 280 H 26.0988 0.644423 0.186978 0
M  V30 281 H 28.6428 2.0437 -0.0728 0
M  V30 282 H 26.7978 3.2607 2.09182 0
M  V30 283 H 27.2118 5.158 0.951358 0
M  V30 284 H 28.6858 4.85114 2.63379 0
M  V30 285 H 29.1628 3.19738 3.01105 0
M  V30 286 H 29.7688 3.96918 1.52761 0
M  V30 287 N 28.0839 -0.256276 1.55502 0
M  V30 288 C 29.3119 -1.00342 1.8094 0
M  V30 289 C 29.7269 -1.79307 0.59114 0
M  V30 290 O 29.0839 -1.77114 -0.440081 0
M  V30 291 C 29.1349 -1.94875 3.04476 0
M  V30 292 O 28.8559 -1.19107 4.21598 0
M  V30 293 C 30.3569 -2.81266 3.42644 0
M  V30 294 H 27.5769 -0.295685 0.602338 0
M  V30 295 H 30.1209 -0.281998 2.02546 0
M  V30 296 H 28.2759 -2.62457 2.84947 0
M  V30 297 H 28.6899 -1.82969 4.91551 0
M  V30 298 H 30.1639 -3.43362 4.32211 0
M  V30 299 H 30.6409 -3.51897 2.62802 0
M  V30 300 H 31.2469 -2.1915 3.64491 0
M  V30 301 N 29.562 -1.4872 -0.521534 0
M  V30 302 C 30.808 -1.574 -1.27879 0
M  V30 303 C 31.141 -0.250817 -1.92573 0
M  V30 304 O 30.416 0.743934 -1.79711 0
M  V30 305 C 30.699 -2.71843 -2.36164 0
M  V30 306 C 30.552 -4.13893 -1.76105 0
M  V30 307 C 31.871 -2.82008 -3.37875 0
M  V30 308 H 28.99 -0.572941 -0.463581 0
M  V30 309 H 31.632 -1.80927 -0.580119 0
M  V30 310 H 29.782 -2.51914 -2.95756 0
M  V30 311 H 31.454 -4.45284 -1.20499 0
M  V30 312 H 29.697 -4.20498 -1.06601 0
M  V30 313 H 30.368 -4.89804 -2.5455 0
M  V30 314 H 32.844 -3.00086 -2.88249 0
M  V30 315 H 31.72 -3.63796 -4.11028 0
M  V30 316 H 31.981 -1.90511 -3.98946 0
M  V30 317 N 31.0401 0.771051 -1.3745 0
M  V30 318 C 32.0031 1.86598 -1.33093 0
M  V30 319 C 33.0031 1.59076 -0.234845 0
M  V30 320 O 34.1931 1.67145 -0.490732 0
M  V30 321 C 31.3251 3.23747 -1.06773 0
M  V30 322 H 32.5181 1.91873 -2.30488 0
M  V30 323 H 30.0711 0.970876 -1.2249 0
M  V30 324 H 30.8061 3.24148 -0.099129 0
M  V30 325 H 30.5911 3.45115 -1.86112 0
M  V30 326 H 32.0811 4.03824 -1.06377 0
M  V30 327 N 32.5182 1.22032 0.997298 0
M  V30 328 C 33.4812 0.987909 2.06816 0
M  V30 329 C 34.4812 -0.0440084 1.6074 0
M  V30 330 O 35.6712 0.194053 1.73116 0
M  V30 331 C 32.8032 0.49132 3.37341 0
M  V30 332 H 33.9962 1.93803 2.28868 0
M  V30 333 H 31.5492 1.03838 1.16822 0
M  V30 334 H 32.2842 -0.463364 3.20973 0
M  V30 335 H 32.0692 1.23575 3.72118 0
M  V30 336 H 33.5592 0.348824 4.16141 0
M  V30 337 N 33.9963 -1.19345 1.0293 0
M  V30 338 C 34.9263 -2.2481 0.631105 0
M  V30 339 C 35.9073 -1.66245 -0.360104 0
M  V30 340 O 37.0923 -1.92677 -0.242726 0
M  V30 341 C 34.2223 -3.47295 -0.0184607 0
M  V30 342 C 33.1763 -4.18536 0.895073 0
M  V30 343 C 32.5023 -5.34586 0.110592 0
M  V30 344 C 33.8023 -4.73287 2.209 0
M  V30 345 H 35.4963 -2.58372 1.51275 0
M  V30 346 H 33.0423 -1.24194 0.728818 0
M  V30 347 H 34.9953 -4.20268 -0.308675 0
M  V30 348 H 33.7193 -3.12933 -0.934907 0
M  V30 349 H 32.3783 -3.47446 1.16949 0
M  V30 350 H 32.0263 -4.96469 -0.807902 0
M  V30 351 H 31.7263 -5.83183 0.719087 0
M  V30 352 H 33.2503 -6.10355 -0.172871 0
M  V30 353 H 34.6643 -5.38013 1.98028 0
M  V30 354 H 33.0613 -5.32373 2.76946 0
M  V30 355 H 34.1313 -3.91331 2.86336 0
M  V30 356 N 35.4744 -0.807222 -1.35358 0
M  V30 357 C 36.7224 -0.387122 -1.98358 0
M  V30 358 C 37.0434 1.04942 -1.64354 0
M  V30 359 O 36.3134 1.72615 -0.926339 0
M  V30 360 H 34.8934 -0.140154 -0.733734 0
M  V30 361 H 37.5554 -1.0332 -1.6526 0
M  V30 362 H 36.6514 -0.493352 -3.08176 0
M  V30 363 N 36.9525 1.47285 -0.560781 0
M  V30 364 C 38.1995 2.02464 -0.038062 0
M  V30 365 C 38.5275 1.43474 1.31322 0
M  V30 366 O 37.7825 0.581311 1.86867 0
M  V30 367 C 38.0815 3.57258 0.100784 0
M  V30 368 C 37.7475 4.35184 -1.18007 0
M  V30 369 C 36.4095 4.56194 -1.53103 0
M  V30 370 C 38.7615 4.80098 -2.02867 0
M  V30 371 C 36.0895 5.19367 -2.729 0
M  V30 372 C 38.4415 5.44593 -3.21871 0
M  V30 373 C 37.1055 5.63835 -3.57276 0
M  V30 374 H 36.3755 0.740869 -0.0139279 0
M  V30 375 H 39.0225 1.76916 -0.733012 0
M  V30 376 H 37.3275 3.81819 0.878724 0
M  V30 377 H 39.0245 3.97606 0.520639 0
M  V30 378 H 35.6145 4.19113 -0.8968 0
M  V30 379 H 39.7985 4.63642 -1.7706 0
M  V30 380 H 35.0545 5.32459 -3.00496 0
M  V30 381 H 39.2285 5.78358 -3.87911 0
M  V30 382 H 36.8555 6.12557 -4.50197 0
M  V30 383 N 38.4306 0.297415 1.54768 0
M  V30 384 C 39.3936 -0.567375 2.22066 0
M  V30 385 C 40.3936 -1.06409 1.20556 0
M  V30 386 O 41.5836 -0.960691 1.45315 0
M  V30 387 C 38.7156 -1.78517 2.90421 0
M  V30 388 H 39.9086 0.0205534 2.99893 0
M  V30 389 H 37.4616 0.0482163 1.56226 0
M  V30 390 H 38.1966 -2.41303 2.16664 0
M  V30 391 H 37.9816 -1.43669 3.64831 0
M  V30 392 H 39.4716 -2.39964 3.41771 0
M  V30 393 N 39.9087 -1.5758 0.0250728 0
M  V30 394 C 41.3197 -1.79476 -0.514323 0
M  V30 395 C 41.6707 -0.934956 -1.72491 0
M  V30 396 O 40.7957 -0.144245 -2.15919 0
M  V30 397 C 41.3907 -3.25503 -0.939842 0
M  V30 398 C 39.9497 -3.48408 -1.42438 0
M  V30 399 C 39.0967 -2.74583 -0.387201 0
M  V30 400 H 42.0477 -1.567 0.25113 0
M  V30 401 H 42.0687 -3.34992 -1.80445 0
M  V30 402 H 41.5807 -3.88056 -0.0585628 0
M  V30 403 H 39.6817 -2.91103 -2.32572 0
M  V30 404 H 39.7947 -4.57119 -1.43455 0
M  V30 405 H 38.1587 -2.39942 -0.854409 0
M  V30 406 H 38.9417 -3.39849 0.485543 0
M  V30 407 N 41.3868 0.248026 -1.55636 0
M  V30 408 C 42.3338 1.30707 -1.90222 0
M  V30 409 C 43.3038 1.47881 -0.756332 0
M  V30 410 O 44.4888 1.61883 -1.00988 0
M  V30 411 C 41.6288 2.65769 -2.20138 0
M  V30 412 C 40.7418 2.56612 -3.47526 0
M  V30 413 C 39.8768 3.8402 -3.67017 0
M  V30 414 C 38.9158 3.69476 -4.8801 0
M  V30 415 N 38.0528 4.88774 -5.04029 0
M  V30 416 H 42.8928 1.00512 -2.80538 0
M  V30 417 H 40.4298 0.485055 -1.38873 0
M  V30 418 H 42.3878 3.44386 -2.35487 0
M  V30 419 H 41.0178 2.94115 -1.33027 0
M  V30 420 H 40.0698 1.69571 -3.40514 0
M  V30 421 H 41.3818 2.41774 -4.36287 0
M  V30 422 H 40.5358 4.7108 -3.8232 0
M  V30 423 H 39.2748 4.01754 -2.76487 0
M  V30 424 H 38.2798 2.80799 -4.72686 0
M  V30 425 H 39.5048 3.53238 -5.8 0
M  V30 426 H 37.4508 5.0687 -4.16435 0
M  V30 427 H 37.3678 4.76562 -5.86877 0
M  V30 428 H 38.6358 5.77335 -5.23741 0
M  V30 429 N 42.8649 1.48995 0.513639 0
M  V30 430 C 43.7969 1.60836 1.63293 0
M  V30 431 C 44.8099 0.491701 1.55197 0
M  V30 432 O 45.9989 0.763238 1.6136 0
M  V30 433 C 43.0989 1.53731 3.02027 0
M  V30 434 C 42.2719 2.80715 3.35437 0
M  V30 435 C 41.3309 2.66837 4.53525 0
M  V30 436 O 40.3569 3.40753 4.55934 0
M  V30 437 N 41.5589 1.77539 5.52684 0
M  V30 438 H 44.3239 2.57366 1.53566 0
M  V30 439 H 41.8849 1.45925 0.701259 0
M  V30 440 H 43.8769 1.42118 3.78926 0
M  V30 441 H 42.4469 0.651092 3.05744 0
M  V30 442 H 41.6669 3.06772 2.47557 0
M  V30 443 H 42.9549 3.64927 3.54551 0
M  V30 444 H 42.3529 1.16719 5.53528 0
M  V30 445 H 40.9099 1.71856 6.28736 0
M  V30 446 N 44.343 -0.763751 1.37857 0
M  V30 447 C 45.306 -1.85889 1.34081 0
M  V30 448 C 46.306 -1.58949 0.243277 0
M  V30 449 O 47.496 -1.66882 0.499589 0
M  V30 450 C 44.628 -3.23176 1.08489 0
M  V30 451 H 45.821 -1.90648 2.31502 0
M  V30 452 H 43.374 -0.964367 1.23003 0
M  V30 453 H 44.109 -3.24091 0.116318 0
M  V30 454 H 43.894 -3.44124 1.8794 0
M  V30 455 H 45.384 -4.03254 1.08517 0
M  V30 456 N 45.8211 -1.22559 -0.990812 0
M  V30 457 C 46.7511 -1.0218 -2.09956 0
M  V30 458 C 47.7321 0.0579394 -1.70001 0
M  V30 459 O 48.9171 -0.104684 -1.93918 0
M  V30 460 C 46.0471 -0.601023 -3.4206 0
M  V30 461 C 45.0011 -1.62694 -3.95872 0
M  V30 462 C 44.3271 -1.06193 -5.24049 0
M  V30 463 C 45.6271 -3.01743 -4.2632 0
M  V30 464 H 47.3211 -1.94916 -2.27262 0
M  V30 465 H 44.8671 -0.938566 -1.09211 0
M  V30 466 H 46.8201 -0.445561 -4.19038 0
M  V30 467 H 45.5441 0.362005 -3.24588 0
M  V30 468 H 44.2031 -1.77021 -3.21028 0
M  V30 469 H 43.8511 -0.0901903 -5.02919 0
M  V30 470 H 43.5511 -1.74732 -5.61019 0
M  V30 471 H 45.0751 -0.918092 -6.03658 0
M  V30 472 H 46.4891 -2.90777 -4.94087 0
M  V30 473 H 44.8861 -3.67425 -4.74467 0
M  V30 474 H 45.9561 -3.51518 -3.34011 0
M  V30 475 N 47.2992 1.18797 -1.03562 0
M  V30 476 C 48.2622 2.20464 -0.626769 0
M  V30 477 C 49.2622 1.57721 0.313173 0
M  V30 478 O 50.4522 1.73917 0.0992615 0
M  V30 479 C 47.5842 3.40802 0.0818498 0
M  V30 480 H 48.7772 2.58149 -1.5264 0
M  V30 481 H 46.3302 1.32593 -0.827578 0
M  V30 482 H 47.0652 3.08642 0.995518 0
M  V30 483 H 46.8502 3.8758 -0.593652 0
M  V30 484 H 48.3402 4.16092 0.354584 0
M  V30 485 N 48.7773 0.814389 1.34928 0
M  V30 486 C 49.7093 0.187834 2.28429 0
M  V30 487 C 50.7223 -0.617374 1.5064 0
M  V30 488 O 51.9113 -0.448454 1.72775 0
M  V30 489 C 49.0113 -0.755962 3.30361 0
M  V30 490 C 48.1843 0.00456686 4.374 0
M  V30 491 C 47.2433 -0.858876 5.19143 0
M  V30 492 O 46.2693 -0.306968 5.68372 0
M  V30 493 N 47.4713 -2.17988 5.38016 0
M  V30 494 H 50.2363 0.991105 2.82838 0
M  V30 495 H 47.7973 0.670561 1.4736 0
M  V30 496 H 49.7893 -1.338 3.81942 0
M  V30 497 H 48.3593 -1.46001 2.7641 0
M  V30 498 H 47.5793 0.767865 3.86649 0
M  V30 499 H 48.8673 0.528422 5.06049 0
M  V30 500 H 48.2653 -2.65212 4.99679 0
M  V30 501 H 46.8223 -2.71098 5.92747 0
M  V30 502 N 50.2554 -1.46986 0.568584 0
M  V30 503 C 51.2184 -2.28624 -0.162366 0
M  V30 504 C 52.2184 -1.37596 -0.832103 0
M  V30 505 O 53.4084 -1.60115 -0.68622 0
M  V30 506 C 50.5404 -3.17596 -1.23878 0
M  V30 507 H 51.7334 -2.94722 0.554899 0
M  V30 508 H 49.2864 -1.52863 0.325976 0
M  V30 509 H 50.0214 -2.56214 -1.98808 0
M  V30 510 H 49.8064 -3.846 -0.763219 0
M  V30 511 H 51.2964 -3.79078 -1.75185 0
M  V30 512 N 51.7335 -0.305618 -1.54608 0
M  V30 513 C 53.1495 0.0476228 -1.59529 0
M  V30 514 C 53.3495 1.52025 -1.32252 0
M  V30 515 O 52.4055 2.27368 -1.09818 0
M  V30 516 C 53.7185 -0.354471 -2.98603 0
M  V30 517 C 55.2665 -0.303622 -3.11524 0
M  V30 518 C 55.7415 -0.680608 -4.52915 0
M  V30 519 N 57.2325 -0.63332 -4.5885 0
M  V30 520 C 57.9675 -0.897432 -5.66334 0
M  V30 521 N 57.4635 -1.22775 -6.81834 0
M  V30 522 N 59.2565 -0.824186 -5.56025 0
M  V30 523 H 51.4075 -1.2653 -1.70599 0
M  V30 524 H 53.6705 -0.513291 -0.797017 0
M  V30 525 H 53.3765 -1.3798 -3.23503 0
M  V30 526 H 53.2505 0.289568 -3.76087 0
M  V30 527 H 55.6375 0.712472 -2.8637 0
M  V30 528 H 55.7185 -0.982348 -2.36185 0
M  V30 529 H 55.3625 -1.69453 -4.78799 0
M  V30 530 H 55.2925 0.0202385 -5.26596 0
M  V30 531 H 57.7835 -0.389138 -3.75891 0
M  V30 532 H 58.0965 -1.41513 -7.59733 0
M  V30 533 H 56.4415 -1.26583 -6.83375 0
M  V30 534 H 59.6325 -0.565748 -4.64669 0
M  V30 535 H 59.8055 -1.03338 -6.39707 0
M  V30 536 N 53.2116 1.57565 -0.0334293 0
M  V30 537 C 54.1596 2.1164 0.96496 0
M  V30 538 C 55.1536 1.04398 1.33407 0
M  V30 539 O 56.3596 1.22828 1.3158 0
M  V30 540 H 52.7346 0.676222 0.32898 0
M  V30 541 H 54.7056 2.94455 0.483614 0
M  V30 542 C 53.4546 2.66207 2.23672 0
M  V30 543 H 52.7776 3.48378 1.96145 0
M  V30 544 H 54.2176 3.07685 2.9173 0
M  V30 545 C 52.6766 1.59151 2.96939 0
M  V30 546 O 53.2066 0.993858 3.89211 0
M  V30 547 N 51.4126 1.31093 2.59351 0
M  V30 548 H 50.9596 1.7988 1.84393 0
M  V30 549 H 50.9176 0.596889 3.08682 0
M  V30 550 N 54.6897 -0.239769 1.55765 0
M  V30 551 C 55.9197 -0.982743 1.8173 0
M  V30 552 C 56.3277 -1.7917 0.607835 0
M  V30 553 O 55.6707 -1.78525 -0.432973 0
M  V30 554 C 55.7327 -1.96332 3.01155 0
M  V30 555 C 55.3967 -1.34062 4.36894 0
M  V30 556 C 56.3937 -0.739539 5.14613 0
M  V30 557 C 54.0787 -1.35784 4.83599 0
M  V30 558 C 56.0727 -0.163989 6.37189 0
M  V30 559 C 53.7597 -0.778441 6.06122 0
M  V30 560 C 54.7577 -0.182548 6.82756 0
M  V30 561 O 54.4457 0.387887 8.02964 0
M  V30 562 H 54.1777 -0.294481 0.608487 0
M  V30 563 H 56.7317 -0.26572 2.03674 0
M  V30 564 H 54.9617 -2.71884 2.74984 0
M  V30 565 H 56.6507 -2.57032 3.14149 0
M  V30 566 H 57.4167 -0.718687 4.79646 0
M  V30 567 H 53.2957 -1.81105 4.23936 0
M  V30 568 H 56.8397 0.301753 6.96947 0
M  V30 569 H 52.7367 -0.796645 6.40565 0
M  V30 570 H 53.5047 0.28044 8.18019 0
M  V30 571 N 56.1678 -1.49265 -0.50573 0
M  V30 572 C 57.1148 -1.65585 -1.6078 0
M  V30 573 C 58.0848 -0.497396 -1.58478 0
M  V30 574 O 59.2698 -0.72385 -1.76536 0
M  V30 575 C 56.4098 -1.72408 -2.98948 0
M  V30 576 C 55.5228 -2.99525 -3.11301 0
M  V30 577 C 54.6578 -2.97356 -4.40174 0
M  V30 578 C 53.6968 -4.19074 -4.46143 0
M  V30 579 N 52.8338 -4.14841 -5.66437 0
M  V30 580 H 57.6738 -2.59688 -1.46172 0
M  V30 581 H 55.2108 -1.28761 -0.711261 0
M  V30 582 H 57.1688 -1.74344 -3.79025 0
M  V30 583 H 55.7988 -0.817753 -3.1227 0
M  V30 584 H 54.8508 -3.07222 -2.24318 0
M  V30 585 H 56.1628 -3.89518 -3.11572 0
M  V30 586 H 55.3168 -2.97829 -5.28567 0
M  V30 587 H 54.0558 -2.05133 -4.42461 0
M  V30 588 H 53.0608 -4.1885 -3.56153 0
M  V30 589 H 54.2858 -5.12483 -4.45575 0
M  V30 590 H 52.2318 -3.25453 -5.69575 0
M  V30 591 H 52.1488 -4.98564 -5.68304 0
M  V30 592 H 53.4168 -4.1941 -6.57051 0
M  V30 593 N 57.6459 0.756429 -1.3826 0
M  V30 594 C 58.5759 1.88374 -1.37976 0
M  V30 595 C 59.5569 1.68311 -0.246082 0
M  V30 596 O 60.7419 1.88944 -0.44874 0
M  V30 597 C 57.8719 3.25864 -1.20125 0
M  V30 598 C 56.8259 3.60523 -2.30666 0
M  V30 599 C 56.1519 4.9672 -1.97923 0
M  V30 600 C 57.4519 3.65692 -3.72916 0
M  V30 601 H 59.1459 1.88869 -2.32312 0
M  V30 602 H 56.6919 0.907272 -1.11824 0
M  V30 603 H 58.6449 4.0438 -1.18552 0
M  V30 604 H 57.3689 3.25841 -0.222498 0
M  V30 605 H 56.0279 2.84324 -2.3142 0
M  V30 606 H 55.6759 4.93253 -0.985393 0
M  V30 607 H 55.3759 5.20878 -2.71955 0
M  V30 608 H 56.8999 5.77618 -1.97964 0
M  V30 609 H 58.3139 4.34328 -3.74208 0
M  V30 610 H 56.7109 4.01358 -4.4613 0
M  V30 611 H 57.7809 2.65987 -4.05436 0
M  V30 612 N 59.124 1.23083 0.984299 0
M  V30 613 C 60.054 1.03292 2.09411 0
M  V30 614 C 61.035 -0.048923 1.7003 0
M  V30 615 O 62.22 0.114967 1.93859 0
M  V30 616 C 59.35 0.619155 3.41736 0
M  V30 617 C 58.304 1.64791 3.95004 0
M  V30 618 C 57.63 1.0897 5.23478 0
M  V30 619 C 58.93 3.03999 4.24714 0
M  V30 620 H 60.624 1.96119 2.26225 0
M  V30 621 H 58.17 0.944344 1.08711 0
M  V30 622 H 60.123 0.467777 4.18796 0
M  V30 623 H 58.847 -0.344786 3.24775 0
M  V30 624 H 57.506 1.78721 3.20085 0
M  V30 625 H 57.154 0.11686 5.02864 0
M  V30 626 H 56.854 1.77704 5.60085 0
M  V30 627 H 58.378 0.950093 6.03163 0
M  V30 628 H 59.792 2.93393 4.92538 0
M  V30 629 H 58.189 3.69936 4.72512 0
M  V30 630 H 59.259 3.53285 3.32142 0
M  V30 631 N 60.6021 -1.18246 1.0419 0
M  V30 632 C 62.0181 -1.40269 0.761366 0
M  V30 633 C 62.2181 -1.90777 -0.648578 0
M  V30 634 O 61.2741 -2.0929 -1.41258 0
M  V30 635 C 62.5871 -2.40237 1.8085 0
M  V30 636 C 64.1351 -2.53961 1.82955 0
M  V30 637 C 64.6101 -3.57194 2.86664 0
M  V30 638 N 66.1011 -3.64702 2.85563 0
M  V30 639 C 66.8361 -4.44309 3.6246 0
M  V30 640 N 66.3321 -5.27514 4.49111 0
M  V30 641 N 68.1251 -4.39084 3.50944 0
M  V30 642 H 60.2761 -0.837882 1.95175 0
M  V30 643 H 62.5391 -0.430608 0.84456 0
M  V30 644 H 62.2451 -2.10176 2.81991 0
M  V30 645 H 62.1191 -3.39601 1.64168 0
M  V30 646 H 64.5061 -2.83338 0.824855 0
M  V30 647 H 64.5871 -1.54706 2.03715 0
M  V30 648 H 64.2311 -3.28558 3.87314 0
M  V30 649 H 64.1611 -4.5613 2.6316 0
M  V30 650 H 66.6521 -3.05289 2.22727 0
M  V30 651 H 66.9651 -5.85411 5.04493 0
M  V30 652 H 65.3101 -5.2693 4.53178 0
M  V30 653 H 68.5011 -3.7313 2.82651 0
M  V30 654 H 68.6741 -5.00883 4.11121 0
M  V30 655 N 62.0802 -0.821533 -1.34494 0
M  V30 656 C 63.0432 -0.247847 -2.27856 0
M  V30 657 C 64.0432 0.573453 -1.50227 0
M  V30 658 O 65.2332 0.389759 -1.69784 0
M  V30 659 C 62.3652 0.652698 -3.34593 0
M  V30 660 H 63.5582 -1.07146 -2.80107 0
M  V30 661 H 61.1112 -0.593291 -1.44602 0
M  V30 662 H 61.8462 1.49943 -2.87555 0
M  V30 663 H 61.6312 0.065292 -3.92046 0
M  V30 664 H 63.1212 1.04793 -4.04238 0
M  V30 665 N 63.5583 1.46682 -0.576371 0
M  V30 666 C 64.5053 2.30241 0.160499 0
M  V30 667 C 65.4753 1.40233 0.890162 0
M  V30 668 O 66.6603 1.69186 0.882084 0
M  V30 669 C 63.8003 3.24578 1.1723 0
M  V30 670 C 62.9133 4.29684 0.446736 0
M  V30 671 C 62.0483 5.11154 1.44551 0
M  V30 672 C 61.0873 6.08015 0.70599 0
M  V30 673 N 60.2243 6.82376 1.65251 0
M  V30 674 H 65.0643 2.92727 -0.558127 0
M  V30 675 H 62.6013 1.44272 -0.287056 0
M  V30 676 H 64.5593 3.77711 1.77172 0
M  V30 677 H 63.1893 2.63916 1.85872 0
M  V30 678 H 62.2413 3.79458 -0.267594 0
M  V30 679 H 63.5533 4.98626 -0.131686 0
M  V30 680 H 62.7073 5.68533 2.11791 0
M  V30 681 H 61.4463 4.42158 2.05786 0
M  V30 682 H 60.4513 5.49796 0.0197725 0
M  V30 683 H 61.6763 6.79028 0.09912 0
M  V30 684 H 59.6223 6.16094 2.25308 0
M  V30 685 H 59.5393 7.47556 1.12673 0
M  V30 686 H 60.8073 7.44316 2.31546 0
M  V30 687 N 65.0364 0.313813 1.54444 0
M  V30 688 C 65.9464 -0.565714 2.27677 0
M  V30 689 C 66.9624 -1.13754 1.31666 0
M  V30 690 O 68.1384 -1.15959 1.64668 0
M  V30 691 C 65.2034 -1.71528 3.01296 0
M  V30 692 C 64.2644 -1.17624 4.12872 0
M  V30 693 C 63.4974 -2.27102 4.8297 0
M  V30 694 O 63.7204 -3.47256 4.52514 0
M  V30 695 O 62.6544 -1.9307 5.70094 0
M  V30 696 H 66.4804 0.0287296 3.03686 0
M  V30 697 H 64.0654 0.0798312 1.49187 0
M  V30 698 H 65.9474 -2.38476 3.4743 0
M  V30 699 H 64.6224 -2.29608 2.2817 0
M  V30 700 H 63.5294 -0.472124 3.71109 0
M  V30 701 H 64.8624 -0.640695 4.88012 0
M  V30 702 N 66.5145 -1.57545 0.0417849 0
M  V30 703 C 67.7635 -1.91494 -0.633492 0
M  V30 704 C 68.0765 -0.921084 -1.72556 0
M  V30 705 O 69.2825 -1.15228 -2.45835 0
M  V30 706 C 67.7385 -3.40072 -1.17808 0
M  V30 707 C 67.3465 -4.47843 -0.118633 0
M  V30 708 C 69.0905 -3.8307 -1.82915 0
M  V30 709 C 66.9975 -5.87529 -0.675578 0
M  V30 710 H 65.9275 -0.714653 -0.24039 0
M  V30 711 H 68.5785 -1.83175 0.109148 0
M  V30 712 H 66.9605 -3.43364 -1.97274 0
M  V30 713 H 68.1345 -4.56128 0.654494 0
M  V30 714 H 66.4495 -4.14128 0.434414 0
M  V30 715 H 69.0465 -4.84794 -2.25563 0
M  V30 716 H 69.3895 -3.1881 -2.67705 0
M  V30 717 H 69.9225 -3.82255 -1.10119 0
M  V30 718 H 66.6615 -6.55362 0.134475 0
M  V30 719 H 66.1815 -5.82824 -1.4169 0
M  V30 720 H 67.8605 -6.36491 -1.1614 0
M  V30 721 N 67.9926 0.231505 -1.5589 0
M  V30 722 C 69.4086 0.580748 -1.48659 0
M  V30 723 C 69.6086 1.87617 -0.73498 0
M  V30 724 O 68.6646 2.51046 -0.270586 0
M  V30 725 C 69.9776 0.669202 -2.93159 0
M  V30 726 C 71.5256 0.760499 -3.03621 0
M  V30 727 C 72.0006 0.880383 -4.49459 0
M  V30 728 N 73.4916 0.944861 -4.53461 0
M  V30 729 C 74.2266 1.05716 -5.63571 0
M  V30 730 N 73.7226 1.13403 -6.83456 0
M  V30 731 N 75.5156 1.09152 -5.514 0
M  V30 732 H 67.6666 -0.618695 -2.03189 0
M  V30 733 H 69.9296 -0.215728 -0.923128 0
M  V30 734 H 69.6356 -0.212904 -3.51055 0
M  V30 735 H 69.5096 1.5361 -3.44505 0
M  V30 736 H 71.8966 1.63305 -2.45796 0
M  V30 737 H 71.9776 -0.131864 -2.5546 0
M  V30 738 H 71.6216 0.0123284 -5.07899 0
M  V30 739 H 71.5516 1.78802 -4.95316 0
M  V30 740 H 74.0426 0.896176 -3.6712 0
M  V30 741 H 74.3556 1.21921 -7.63122 0
M  V30 742 H 72.7006 1.10333 -6.86186 0
M  V30 743 H 75.8916 1.02805 -4.56671 0
M  V30 744 H 76.0646 1.17558 -6.37247 0
M  V30 745 N 69.4707 1.49531 0.497807 0
M  V30 746 C 70.4187 1.66926 1.61983 0
M  V30 747 C 71.4127 0.535167 1.60724 0
M  V30 748 O 72.6187 0.714896 1.65195 0
M  V30 749 H 68.9937 0.526415 0.537021 0
M  V30 750 H 70.9647 2.61098 1.44465 0
M  V30 751 C 69.7137 1.75602 3.00099 0
M  V30 752 H 69.0367 2.62244 3.01775 0
M  V30 753 H 70.4767 1.91807 3.78135 0
M  V30 754 C 68.9357 0.501543 3.33146 0
M  V30 755 O 69.4657 -0.371342 3.9998 0
M  V30 756 N 67.6717 0.363531 2.88317 0
M  V30 757 H 67.2187 1.07485 2.34104 0
M  V30 758 H 67.1767 -0.474728 3.10795 0
M  V30 759 N 70.9488 -0.749086 1.3866 0
M  V30 760 C 72.1768 -1.53834 1.38358 0
M  V30 761 C 72.5918 -1.88783 -0.0255219 0
M  V30 762 O 71.9488 -1.53101 -0.993292 0
M  V30 763 C 71.9998 -2.83468 2.2434 0
M  V30 764 O 71.7208 -2.50008 3.5976 0
M  V30 765 C 73.2218 -3.7758 2.32267 0
M  V30 766 H 70.4418 -0.47585 0.473083 0
M  V30 767 H 72.9858 -0.926726 1.82297 0
M  V30 768 H 71.1408 -3.40995 1.83851 0
M  V30 769 H 71.5548 -3.33182 4.05081 0
M  V30 770 H 73.0288 -4.65478 2.96706 0
M  V30 771 H 73.5058 -4.18334 1.33765 0
M  V30 772 H 74.1118 -3.25976 2.73166 0
M  V30 773 N 72.4269 -1.23603 -0.977757 0
M  V30 774 C 73.6669 -1.08148 -1.73446 0
M  V30 775 C 74.0309 0.374785 -1.88307 0
M  V30 776 O 75.2319 0.650588 -2.60808 0
M  V30 777 C 73.5029 -1.78991 -3.0935 0
M  V30 778 S 75.0619 -1.79141 -4.00567 0
M  V30 779 H 71.8799 -0.386987 -0.596458 0
M  V30 780 H 74.4819 -1.5678 -1.16792 0
M  V30 781 H 73.1859 -2.8408 -2.96187 0
M  V30 782 H 72.7169 -1.30651 -3.71071 0
M  V30 783 H 74.7319 -0.851892 -4.88833 0
M  V30 784 N 73.905 1.17692 -1.04816 0
M  V30 785 C 75.133 1.91786 -0.776254 0
M  V30 786 C 75.548 1.76604 0.667577 0
M  V30 787 O 74.905 1.10067 1.45573 0
M  V30 788 C 74.956 3.42967 -1.14263 0
M  V30 789 O 74.677 3.57678 -2.52978 0
M  V30 790 C 76.178 4.34144 -0.896311 0
M  V30 791 H 73.398 0.608624 -0.282519 0
M  V30 792 H 75.942 1.49268 -1.39783 0
M  V30 793 H 74.097 3.83245 -0.565874 0
M  V30 794 H 74.511 4.51319 -2.67229 0
M  V30 795 H 75.985 5.38744 -1.20244 0
M  V30 796 H 76.462 4.38876 0.168636 0
M  V30 797 H 77.068 3.99574 -1.45672 0
M  V30 798 N 75.3831 0.828654 1.34056 0
M  V30 799 C 76.6131 0.431993 2.02033 0
M  V30 800 C 77.0211 -0.96844 1.62536 0
M  V30 801 O 76.3641 -1.6391 0.829408 0
M  V30 802 C 76.4261 0.461224 3.56529 0
M  V30 803 C 76.0901 1.81599 4.1937 0
M  V30 804 C 77.0871 2.7777 4.39477 0
M  V30 805 C 74.7721 2.10604 4.56017 0
M  V30 806 C 76.7661 4.01115 4.95364 0
M  V30 807 C 74.4531 3.34207 5.11614 0
M  V30 808 C 75.4511 4.2928 5.31232 0
M  V30 809 O 75.1391 5.50699 5.8565 0
M  V30 810 H 74.8711 0.170943 0.654029 0
M  V30 811 H 77.4251 1.11988 1.72185 0
M  V30 812 H 75.6551 -0.283388 3.8566 0
M  V30 813 H 77.3441 0.0838149 4.05813 0
M  V30 814 H 78.1101 2.56659 4.11523 0
M  V30 815 H 73.9891 1.37402 4.40047 0
M  V30 816 H 77.5331 4.75333 5.10592 0
M  V30 817 H 73.4301 3.55179 5.38997 0
M  V30 818 H 74.1981 5.52298 6.04077 0
M  V30 819 N 76.8612 -1.46375 0.584142 0
M  V30 820 C 78.1012 -2.0427 0.0729695 0
M  V30 821 C 78.4652 -1.44563 -1.26355 0
M  V30 822 O 79.6662 -1.93667 -1.86405 0
M  V30 823 C 77.9372 -3.57399 0.00967464 0
M  V30 824 S 79.4962 -4.36551 -0.443714 0
M  V30 825 H 76.3142 -0.709975 0.0381673 0
M  V30 826 H 78.9162 -1.79398 0.776962 0
M  V30 827 H 77.6202 -3.98372 0.986319 0
M  V30 828 H 77.1512 -3.8681 -0.717044 0
M  V30 829 H 79.1662 -4.66237 -1.69816 0
M  V30 830 N 78.3393 -0.321999 -1.54275 0
M  V30 831 C 79.5643 0.285791 -2.05422 0
M  V30 832 C 79.9893 1.45124 -1.19669 0
M  V30 833 O 79.3473 1.80132 -0.205441 0
M  V30 834 C 79.3953 0.69956 -3.53749 0
M  V30 835 O 78.4993 1.8021 -3.70942 0
M  V30 836 H 77.8403 0.0518962 -0.661969 0
M  V30 837 H 80.3703 -0.469954 -1.9913 0
M  V30 838 H 80.3803 0.982649 -3.9599 0
M  V30 839 H 79.0553 -0.152864 -4.15619 0
M  V30 840 H 77.6323 1.51794 -3.40607 0
M  V30 841 N 79.8174 1.5752 -0.0501392 0
M  V30 842 C 81.0634 1.92936 0.624798 0
M  V30 843 C 81.3964 0.928685 1.70555 0
M  V30 844 O 80.6714 -0.0454779 1.94447 0
M  V30 845 C 80.9544 3.38737 1.22185 0
M  V30 846 C 80.8074 4.49552 0.149218 0
M  V30 847 C 82.1264 3.84913 2.13378 0
M  V30 848 H 79.2454 0.701604 0.225657 0
M  V30 849 H 81.8874 1.89671 -0.111693 0
M  V30 850 H 80.0374 3.4165 1.84953 0
M  V30 851 H 81.7094 4.58768 -0.482648 0
M  V30 852 H 79.9524 4.30638 -0.522841 0
M  V30 853 H 80.6234 5.48653 0.606966 0
M  V30 854 H 83.0994 3.8387 1.60572 0
M  V30 855 H 81.9754 4.87584 2.52097 0
M  V30 856 H 82.2364 3.21611 3.03346 0
M  V30 857 N 81.2955 -0.223234 1.56011 0
M  V30 858 C 82.5435 -0.946003 1.78592 0
M  V30 859 C 82.8645 -1.84936 0.618349 0
M  V30 860 O 82.1345 -1.92473 -0.364833 0
M  V30 861 H 80.7145 -0.352298 0.658707 0
M  V30 862 H 83.3765 -0.235494 1.93472 0
M  V30 863 H 82.4725 -1.55381 2.70672 0
M  V30 864 N 82.7736 -1.49793 -0.48987 0
M  V30 865 C 84.0136 -1.61466 -1.25332 0
M  V30 866 C 84.3776 -0.299688 -1.89647 0
M  V30 867 O 85.5786 -0.291687 -2.67213 0
M  V30 868 C 83.8496 -2.74944 -2.28343 0
M  V30 869 S 85.4086 -3.06637 -3.13878 0
M  V30 870 H 82.2266 -0.569411 -0.425784 0
M  V30 871 H 84.8286 -1.875 -0.553541 0
M  V30 872 H 83.5326 -3.68994 -1.79643 0
M  V30 873 H 83.0636 -2.50938 -3.02975 0
M  V30 874 H 85.0786 -2.49015 -4.29192 0
M  V30 875 N 84.2517 0.741722 -1.39055 0
M  V30 876 C 85.4997 1.49818 -1.35643 0
M  V30 877 C 85.8207 1.94938 0.0491642 0
M  V30 878 O 85.0907 1.68505 0.999141 0
M  V30 879 H 83.6707 0.555755 -0.499144 0
M  V30 880 H 86.3327 0.880957 -1.73854 0
M  V30 881 H 85.4287 2.38348 -2.01486 0
M  V30 882 N 85.7298 1.2412 0.971189 0
M  V30 883 C 86.6598 1.05508 2.08304 0
M  V30 884 C 87.6408 -0.0308864 1.70072 0
M  V30 885 O 88.8258 0.135521 1.93727 0
M  V30 886 C 85.9558 0.655365 3.4106 0
M  V30 887 C 84.9098 1.68971 3.93234 0
M  V30 888 C 84.2358 1.14516 5.22293 0
M  V30 889 C 85.5358 3.08487 4.21465 0
M  V30 890 H 87.2298 1.98507 2.24132 0
M  V30 891 H 84.7758 0.955821 1.07704 0
M  V30 892 H 86.7288 0.51217 4.18276 0
M  V30 893 H 85.4528 -0.31032 3.25122 0
M  V30 894 H 84.1118 1.82106 3.18171 0
M  V30 895 H 83.7598 0.170189 5.02712 0
M  V30 896 H 83.4598 1.83635 5.58168 0
M  V30 897 H 84.9838 1.01401 6.02121 0
M  V30 898 H 86.3978 2.98601 4.89398 0
M  V30 899 H 84.7948 3.74926 4.68562 0
M  V30 900 H 85.8648 3.56787 3.28376 0
M  V30 901 N 87.2079 -1.17134 1.05439 0
M  V30 902 C 88.1379 -2.2342 0.678649 0
M  V30 903 C 89.1189 -1.66971 -0.32476 0
M  V30 904 O 90.3039 -1.93149 -0.201802 0
M  V30 905 C 87.4339 -3.47256 0.0552099 0
M  V30 906 C 86.3879 -4.16543 0.98365 0
M  V30 907 C 85.7139 -5.34231 0.223961 0
M  V30 908 C 87.0139 -4.68495 2.3089 0
M  V30 909 H 88.7079 -2.55105 1.56722 0
M  V30 910 H 86.2539 -1.2262 0.754998 0
M  V30 911 H 88.2069 -4.20828 -0.21946 0
M  V30 912 H 86.9309 -3.14846 -0.868319 0
M  V30 913 H 85.5899 -3.44887 1.24293 0
M  V30 914 H 85.2379 -4.98071 -0.702412 0
M  V30 915 H 84.9379 -5.81527 0.842627 0
M  V30 916 H 86.4619 -6.10585 -0.0433671 0
M  V30 917 H 87.8759 -5.33691 2.09396 0
M  V30 918 H 86.2729 -5.26379 2.88176 0
M  V30 919 H 87.3429 -3.85169 2.94572 0
M  V30 920 N 88.686 -0.835752 -1.33615 0
M  V30 921 C 89.619 -0.211815 -2.27215 0
M  V30 922 C 90.597 0.639249 -1.49507 0
M  V30 923 O 91.781 0.600193 -1.78689 0
M  V30 924 C 88.908 0.702893 -3.31326 0
M  V30 925 C 87.954 -0.0723049 -4.26439 0
M  V30 926 S 88.787 -1.42811 -5.16106 0
M  V30 927 C 89.943 -0.518613 -6.23748 0
M  V30 928 H 90.176 -1.00533 -2.79786 0
M  V30 929 H 87.709 -0.632336 -1.40858 0
M  V30 930 H 89.667 1.22505 -3.91794 0
M  V30 931 H 88.328 1.47004 -2.77576 0
M  V30 932 H 87.521 0.62359 -5.00127 0
M  V30 933 H 87.123 -0.525424 -3.70291 0
M  V30 934 H 89.415 0.284778 -6.76901 0
M  V30 935 H 90.358 -1.22556 -6.97413 0
M  V30 936 H 90.766 -0.101344 -5.64409 0
M  V30 937 N 90.1641 1.46063 -0.591896 0
M  V30 938 C 91.3941 2.06418 -0.0867676 0
M  V30 939 C 91.8021 1.43975 1.22751 0
M  V30 940 O 91.1451 0.542531 1.75506 0
M  V30 941 C 91.2071 3.59213 0.143725 0
M  V30 942 C 90.8711 4.439 -1.08635 0
M  V30 943 C 91.8681 4.79864 -2.00067 0
M  V30 944 C 89.5531 4.84896 -1.31077 0
M  V30 945 C 91.5471 5.55661 -3.12282 0
M  V30 946 C 89.2341 5.6045 -2.43596 0
M  V30 947 C 90.2321 5.95747 -3.34027 0
M  V30 948 O 89.9201 6.69772 -4.4459 0
M  V30 949 H 89.6521 0.673443 -0.0587447 0
M  V30 950 H 92.2061 1.88539 -0.814994 0
M  V30 951 H 90.4361 3.75433 0.926668 0
M  V30 952 H 92.1251 4.01463 0.5985 0
M  V30 953 H 92.8911 4.48763 -1.83947 0
M  V30 954 H 88.7701 4.56867 -0.61594 0
M  V30 955 H 92.3141 5.8313 -3.82891 0
M  V30 956 H 88.2111 5.90965 -2.59674 0
M  V30 957 H 88.9791 6.88207 -4.43073 0
M  V30 958 N 91.6422 0.330177 1.54103 0
M  V30 959 C 92.8672 -0.274893 2.0557 0
M  V30 960 C 93.2922 -1.44487 1.20437 0
M  V30 961 O 92.6502 -1.80021 0.214991 0
M  V30 962 C 92.6982 -0.68079 3.54115 0
M  V30 963 O 91.8022 -1.7824 3.71893 0
M  V30 964 H 91.1432 -0.0483849 0.662235 0
M  V30 965 H 93.6732 0.480508 1.98878 0
M  V30 966 H 93.6832 -0.961635 3.96505 0
M  V30 967 H 92.3582 0.174903 4.15532 0
M  V30 968 H 90.9352 -1.49985 3.41407 0
M  V30 969 N 93.1203 -1.57491 0.0584922 0
M  V30 970 C 94.0503 -2.14988 -0.911178 0
M  V30 971 C 95.0313 -1.07343 -1.31952 0
M  V30 972 O 96.2163 -1.35318 -1.39294 0
M  V30 973 C 93.3463 -2.70078 -2.18347 0
M  V30 974 C 92.3003 -3.82771 -1.91495 0
M  V30 975 C 91.6263 -4.24408 -3.25241 0
M  V30 976 C 92.9263 -5.07592 -1.23075 0
M  V30 977 H 94.6203 -2.96263 -0.432246 0
M  V30 978 H 92.1663 -1.42512 -0.206469 0
M  V30 979 H 94.1193 -3.08943 -2.86587 0
M  V30 980 H 92.8433 -1.86005 -2.68458 0
M  V30 981 H 91.5023 -3.44389 -1.25664 0
M  V30 982 H 91.1503 -3.37275 -3.73168 0
M  V30 983 H 90.8503 -5.00366 -3.08071 0
M  V30 984 H 92.3743 -4.65879 -3.94701 0
M  V30 985 H 93.7883 -5.43857 -1.81362 0
M  V30 986 H 92.1853 -5.88741 -1.16207 0
M  V30 987 H 93.2553 -4.84454 -0.207847 0
M  V30 988 N 94.5984 0.214957 -1.56127 0
M  V30 989 C 95.8464 0.936518 -1.79091 0
M  V30 990 C 96.1674 1.84606 -0.628148 0
M  V30 991 O 95.4374 1.92664 0.35462 0
M  V30 992 H 94.0174 0.3488 -0.660566 0
M  V30 993 H 96.6794 0.22523 -1.93594 0
M  V30 994 H 95.7754 1.53943 -2.71492 0
M  V30 995 N 96.0765 1.50051 0.48192 0
M  V30 996 C 97.3535 1.51009 1.2432 0
M  V30 997 C 97.7335 0.248587 2.09631 0
M  V30 998 O 97.0815 -0.768409 2.15192 0
M  V30 999 C 97.2915 2.79981 2.08355 0
M  V30 1000 C 98.6395 3.3022 2.66908 0
M  V30 1001 O 99.6635 2.81228 2.18607 0
M  V30 1002 O 98.5225 4.15595 3.54884 0
M  V30 1003 H 95.6165 0.605239 0.563573 0
M  V30 1004 H 98.1625 1.62332 0.494627 0
M  V30 1005 H 96.9345 3.63275 1.45419 0
M  V30 1006 H 96.5575 2.7161 2.90368 0
M  V30 1007 N 97.5546 -0.734337 1.39446 0
M  V30 1008 C 98.8026 -1.49096 1.36436 0
M  V30 1009 C 99.1236 -1.94961 -0.0388255 0
M  V30 1010 O 98.3936 -1.69033 -0.990191 0
M  V30 1011 H 96.9736 -0.5531 0.502085 0
M  V30 1012 H 99.6356 -0.871725 1.74319 0
M  V30 1013 H 98.7316 -2.37276 2.02747 0
M  V30 1014 N 99.0327 -1.24633 -0.964593 0
M  V30 1015 C 99.9957 -1.0424 -2.04124 0
M  V30 1016 C 100.996 0.00137563 -1.608 0
M  V30 1017 O 102.186 -0.239883 -1.7254 0
M  V30 1018 C 99.3177 -0.580588 -3.3592 0
M  V30 1019 H 100.511 -1.99803 -2.23649 0
M  V30 1020 H 98.0637 -1.06899 -1.14027 0
M  V30 1021 H 98.7987 0.3781 -3.22088 0
M  V30 1022 H 98.5837 -1.33398 -3.6871 0
M  V30 1023 H 100.074 -0.459034 -4.15069 0
M  V30 1024 N 100.511 1.16574 -1.06058 0
M  V30 1025 C 101.458 2.20883 -0.669263 0
M  V30 1026 C 102.428 1.62729 0.332918 0
M  V30 1027 O 103.613 1.895 0.222346 0
M  V30 1028 C 100.753 3.45049 -0.0593572 0
M  V30 1029 C 99.8658 4.17458 -1.11143 0
M  V30 1030 C 99.0008 5.29135 -0.467916 0
M  V30 1031 C 98.0398 5.93343 -1.50369 0
M  V30 1032 N 97.1768 6.96516 -0.883706 0
M  V30 1033 H 102.017 2.53709 -1.5632 0
M  V30 1034 H 99.5538 1.24616 -0.781625 0
M  V30 1035 H 101.512 4.16033 0.311771 0
M  V30 1036 H 100.142 3.12781 0.797992 0
M  V30 1037 H 99.1938 3.45101 -1.60029 0
M  V30 1038 H 100.506 4.61307 -1.89731 0
M  V30 1039 H 99.6598 6.06684 -0.0436871 0
M  V30 1040 H 98.3988 4.86443 0.349864 0
M  V30 1041 H 97.4038 5.14517 -1.93784 0
M  V30 1042 H 98.6288 6.38114 -2.32352 0
M  V30 1043 H 96.5748 6.55943 -0.086595 0
M  V30 1044 H 96.4918 7.38723 -1.607 0
M  V30 1045 H 97.7598 7.77993 -0.484543 0
M  V30 1046 N 101.989 0.842826 1.3317 0
M  V30 1047 C 102.937 0.267495 2.31057 0
M  V30 1048 C 103.931 -0.602682 1.58316 0
M  V30 1049 O 105.137 -0.491803 1.73151 0
M  V30 1050 H 101.512 0.0677813 0.748939 0
M  V30 1051 H 103.483 1.10754 2.77085 0
M  V30 1052 C 102.232 -0.539331 3.43492 0
M  V30 1053 H 101.555 0.12095 3.99617 0
M  V30 1054 H 102.995 -0.90767 4.14171 0
M  V30 1055 C 101.454 -1.71981 2.89697 0
M  V30 1056 O 101.984 -2.81862 2.86211 0
M  V30 1057 N 100.19 -1.54299 2.46252 0
M  V30 1058 H 99.7369 -0.649143 2.49287 0
M  V30 1059 H 99.6949 -2.33431 2.10612 0
M  V30 1060 N 103.467 -1.45747 0.599634 0
M  V30 1061 C 104.43 -2.28917 -0.113835 0
M  V30 1062 C 105.43 -1.3933 -0.802729 0
M  V30 1063 O 106.62 -1.61534 -0.652103 0
M  V30 1064 C 103.752 -3.20152 -1.17114 0
M  V30 1065 H 104.945 -2.93478 0.617289 0
M  V30 1066 H 102.498 -1.52137 0.358327 0
M  V30 1067 H 103.233 -2.60374 -1.93329 0
M  V30 1068 H 103.018 -3.86133 -0.681468 0
M  V30 1069 H 104.508 -3.82708 -1.67105 0
M  V30 1070 N 104.945 -0.338344 -1.53925 0
M  V30 1071 C 106.361 0.0137736 -1.59594 0
M  V30 1072 C 106.561 1.49186 -1.35447 0
M  V30 1073 O 105.617 2.24987 -1.14616 0
M  V30 1074 C 106.93 -0.41773 -2.97784 0
M  V30 1075 C 108.478 -0.369633 -3.1081 0
M  V30 1076 C 108.953 -0.776524 -4.51369 0
M  V30 1077 N 110.444 -0.730506 -4.57403 0
M  V30 1078 C 111.179 -1.01736 -5.64303 0
M  V30 1079 N 110.675 -1.3721 -6.79077 0
M  V30 1080 N 112.468 -0.941942 -5.54151 0
M  V30 1081 H 104.619 -1.3012 -1.67876 0
M  V30 1082 H 106.882 -0.530082 -0.78595 0
M  V30 1083 H 106.588 -1.44811 -3.20504 0
M  V30 1084 H 106.462 0.209729 -3.76616 0
M  V30 1085 H 108.849 0.651568 -2.87817 0
M  V30 1086 H 108.93 -1.03223 -2.34049 0
M  V30 1087 H 108.574 -1.79571 -4.75096 0
M  V30 1088 H 108.504 -0.0914649 -5.26521 0
M  V30 1089 H 110.995 -0.468783 -3.74981 0
M  V30 1090 H 111.308 -1.57597 -7.5656 0
M  V30 1091 H 109.653 -1.4105 -6.80536 0
M  V30 1092 H 112.844 -0.664184 -4.63364 0
M  V30 1093 H 113.017 -1.16884 -6.37371 0
M  V30 1094 N 106.423 1.57458 -0.0668435 0
M  V30 1095 C 107.333 2.15937 0.916975 0
M  V30 1096 C 108.349 1.12123 1.33058 0
M  V30 1097 O 109.525 1.44366 1.40429 0
M  V30 1098 C 106.59 2.70547 2.16807 0
M  V30 1099 C 105.651 3.89215 1.81135 0
M  V30 1100 C 104.884 4.41211 3.0028 0
M  V30 1101 O 105.107 3.92225 4.14144 0
M  V30 1102 O 104.041 5.32605 2.80384 0
M  V30 1103 H 107.867 3.00354 0.449561 0
M  V30 1104 H 105.452 1.48584 0.155949 0
M  V30 1105 H 107.334 3.0557 2.90181 0
M  V30 1106 H 106.009 1.89192 2.62656 0
M  V30 1107 H 104.916 3.59054 1.05028 0
M  V30 1108 H 106.249 4.71848 1.40073 0
M  V30 1109 N 107.901 -0.206675 1.56239 0
M  V30 1110 C 108.864 -1.23976 1.92776 0
M  V30 1111 C 109.864 -1.39041 0.807729 0
M  V30 1112 O 111.054 -1.37051 1.0753 0
M  V30 1113 C 108.186 -2.61112 2.19165 0
M  V30 1114 H 109.379 -0.927764 2.85189 0
M  V30 1115 H 106.932 -0.447718 1.4975 0
M  V30 1116 H 107.667 -2.97386 1.29352 0
M  V30 1117 H 107.452 -2.51552 3.00772 0
M  V30 1118 H 108.942 -3.35633 2.48476 0
M  V30 1119 N 109.379 -1.50304 -0.473955 0
M  V30 1120 C 110.628 -1.60392 -1.22301 0
M  V30 1121 C 110.941 -0.308411 -1.93153 0
M  V30 1122 O 112.147 -0.288156 -2.69966 0
M  V30 1123 C 110.603 -2.83109 -2.2221 0
M  V30 1124 C 110.211 -4.19524 -1.57173 0
M  V30 1125 C 111.955 -3.0254 -2.97775 0
M  V30 1126 C 109.862 -5.33431 -2.55353 0
M  V30 1127 H 108.792 -0.597286 -0.460179 0
M  V30 1128 H 111.443 -1.76731 -0.493803 0
M  V30 1129 H 109.825 -2.60322 -2.9841 0
M  V30 1130 H 110.999 -4.52554 -0.867824 0
M  V30 1131 H 109.314 -4.05674 -0.939002 0
M  V30 1132 H 111.911 -3.84811 -3.71248 0
M  V30 1133 H 112.254 -2.14154 -3.56992 0
M  V30 1134 H 112.787 -3.25494 -2.28688 0
M  V30 1135 H 109.526 -6.23962 -2.00878 0
M  V30 1136 H 109.046 -5.04823 -3.23904 0
M  V30 1137 H 110.725 -5.63887 -3.17239 0
M  V30 1138 N 110.857 0.726932 -1.39834 0
M  V30 1139 C 112.087 1.51393 -1.40583 0
M  V30 1140 C 112.495 1.892 -0.000740625 0
M  V30 1141 O 111.838 1.55189 0.982951 0
M  V30 1142 C 111.9 2.82588 -2.22226 0
M  V30 1143 C 111.564 2.67169 -3.70769 0
M  V30 1144 C 112.561 2.3518 -4.63666 0
M  V30 1145 C 110.246 2.83788 -4.14451 0
M  V30 1146 C 112.24 2.20002 -5.98229 0
M  V30 1147 C 109.927 2.68229 -5.49087 0
M  V30 1148 C 110.925 2.36382 -6.4079 0
M  V30 1149 O 110.613 2.2093 -7.72946 0
M  V30 1150 H 110.345 0.474168 -0.48181 0
M  V30 1151 H 112.899 0.905247 -1.84376 0
M  V30 1152 H 111.129 3.45746 -1.73195 0
M  V30 1153 H 112.818 3.44247 -2.15055 0
M  V30 1154 H 113.584 2.21984 -4.31217 0
M  V30 1155 H 109.463 3.07566 -3.43401 0
M  V30 1156 H 113.007 1.95067 -6.69772 0
M  V30 1157 H 108.904 2.81006 -5.81125 0
M  V30 1158 H 109.672 2.35937 -7.83757 0
M  V30 1159 N 112.336 1.25143 0.95797 0
M  V30 1160 C 113.286 1.01924 2.0395 0
M  V30 1161 C 114.27 -0.0427175 1.60843 0
M  V30 1162 O 115.462 0.17221 1.7616 0
M  V30 1163 C 112.591 0.636373 3.3735 0
M  V30 1164 C 111.677 1.73492 3.8699 0
M  V30 1165 N 112.068 2.96945 4.0946 0
M  V30 1166 C 110.366 1.61467 4.15746 0
M  V30 1167 C 111.067 3.68228 4.50315 0
M  V30 1168 N 110.043 2.95833 4.56053 0
M  V30 1169 H 113.845 1.95653 2.19311 0
M  V30 1170 H 111.359 1.15413 1.14253 0
M  V30 1171 H 113.356 0.451233 4.14451 0
M  V30 1172 H 112.016 -0.293621 3.2337 0
M  V30 1173 H 113.027 3.33025 3.96629 0
M  V30 1174 H 109.704 0.753394 4.10646 0
M  V30 1175 H 111.094 4.74178 4.76031 0
M  V30 1176 N 113.814 -1.1601 1.06675 0
M  V30 1177 C 115.063 -1.85973 0.780818 0
M  V30 1178 C 115.376 -1.82819 -0.695444 0
M  V30 1179 O 116.582 -2.484 -1.09589 0
M  V30 1180 C 115.038 -3.33757 1.34665 0
M  V30 1181 C 114.646 -3.45374 2.85343 0
M  V30 1182 C 116.39 -4.0895 1.13843 0
M  V30 1183 C 114.297 -4.87266 3.35151 0
M  V30 1184 H 113.227 -0.696661 0.288407 0
M  V30 1185 H 115.878 -1.30903 1.28595 0
M  V30 1186 H 114.26 -3.88456 0.769274 0
M  V30 1187 H 115.434 -3.00816 3.49065 0
M  V30 1188 H 113.749 -2.83619 3.04876 0
M  V30 1189 H 116.346 -5.13654 1.4854 0
M  V30 1190 H 116.689 -4.16229 0.0770282 0
M  V30 1191 H 117.222 -3.605 1.68179 0
M  V30 1192 H 113.961 -4.85168 4.40786 0
M  V30 1193 H 113.481 -5.32433 2.76179 0
M  V30 1194 H 115.16 -5.56097 3.30704 0
M  V30 1195 N 115.292 -0.849877 -1.32721 0
M  V30 1196 C 116.202 -0.293791 -2.32753 0
M  V30 1197 C 117.218 0.585906 -1.63839 0
M  V30 1198 O 118.394 0.487413 -1.95413 0
M  V30 1199 C 115.459 0.512752 -3.42887 0
M  V30 1200 C 114.52 -0.39252 -4.27502 0
M  V30 1201 C 113.753 0.375625 -5.32377 0
M  V30 1202 O 113.976 1.60613 -5.4732 0
M  V30 1203 O 112.91 -0.256094 -6.01355 0
M  V30 1204 H 116.736 -1.12242 -2.82197 0
M  V30 1205 H 114.321 -0.612685 -1.36259 0
M  V30 1206 H 116.203 0.970704 -4.10067 0
M  V30 1207 H 114.878 1.31826 -2.95641 0
M  V30 1208 H 113.785 -0.898547 -3.63149 0
M  V30 1209 H 115.118 -1.16309 -4.7826 0
M  V30 1210 N 116.77 1.45427 -0.607355 0
M  V30 1211 C 118.018 2.01841 -0.102253 0
M  V30 1212 C 118.339 1.47832 1.27164 0
M  V30 1213 O 117.609 0.672497 1.83995 0
M  V30 1214 H 116.189 0.746188 -0.0348101 0
M  V30 1215 H 118.851 1.78229 -0.7887 0
M  V30 1216 H 117.947 3.12057 -0.0518585 0
M  V30 1217 N 118.248 0.346503 1.53744 0
M  V30 1218 C 119.525 -0.304532 1.93215 0
M  V30 1219 C 119.905 -1.67993 1.27834 0
M  V30 1220 O 119.253 -2.24411 0.430352 0
M  V30 1221 C 119.463 -0.373852 3.46992 0
M  V30 1222 C 120.811 -0.62329 4.2 0
M  V30 1223 O 121.835 -0.455847 3.53271 0
M  V30 1224 O 120.694 -0.947879 5.38217 0
M  V30 1225 H 117.788 -0.178318 0.807547 0
M  V30 1226 H 120.334 0.397895 1.64969 0
M  V30 1227 H 119.106 0.591224 3.86808 0
M  V30 1228 H 118.729 -1.12294 3.81413 0
M  V30 1229 N 119.726 -1.57421 0.075193 0
M  V30 1230 C 121.137 -1.81021 -0.456964 0
M  V30 1231 C 121.488 -0.98936 -1.69429 0
M  V30 1232 O 120.613 -0.212865 -2.15351 0
M  V30 1233 C 121.208 -3.28329 -0.83581 0
M  V30 1234 C 119.767 -3.52764 -1.31281 0
M  V30 1235 C 118.914 -2.75676 -0.299648 0
M  V30 1236 H 121.865 -1.55822 0.300856 0
M  V30 1237 H 121.886 -3.40564 -1.69696 0
M  V30 1238 H 121.398 -3.88046 0.0649238 0
M  V30 1239 H 119.499 -2.98355 -2.23193 0
M  V30 1240 H 119.612 -4.61451 -1.28839 0
M  V30 1241 H 117.976 -2.42538 -0.777641 0
M  V30 1242 H 118.759 -3.38132 0.593417 0
M  V30 1243 N 121.204 0.198386 -1.56346 0
M  V30 1244 C 122.481 0.944982 -1.71258 0
M  V30 1245 C 122.861 2.0151 -0.629048 0
M  V30 1246 O 122.209 2.25639 0.360473 0
M  V30 1247 C 122.419 1.5344 -3.1346 0
M  V30 1248 C 123.767 2.01778 -3.73591 0
M  V30 1249 O 124.791 1.63288 -3.16568 0
M  V30 1250 O 123.65 2.72594 -4.73661 0
M  V30 1251 H 120.744 0.442939 -0.69838 0
M  V30 1252 H 123.29 0.188342 -1.68652 0
M  V30 1253 H 122.062 0.762869 -3.83792 0
M  V30 1254 H 121.685 2.35596 -3.20282 0
M  V30 1255 N 122.682 1.50554 0.465978 0
M  V30 1256 C 123.632 1.66177 1.56106 0
M  V30 1257 C 124.616 0.516265 1.52393 0
M  V30 1258 O 125.808 0.770906 1.5933 0
M  V30 1259 C 122.937 1.76396 2.94515 0
M  V30 1260 C 122.023 2.9664 3.03093 0
M  V30 1261 N 122.414 4.20245 2.81474 0
M  V30 1262 C 120.712 2.95304 3.34233 0
M  V30 1263 C 121.413 5.01259 2.95151 0
M  V30 1264 N 120.389 4.35318 3.25576 0
M  V30 1265 H 124.191 2.59434 1.38099 0
M  V30 1266 H 121.705 1.47808 0.6728 0
M  V30 1267 H 123.702 1.85694 3.73261 0
M  V30 1268 H 122.362 0.843017 3.13565 0
M  V30 1269 H 123.373 4.4966 2.56956 0
M  V30 1270 H 120.05 2.12729 3.59239 0
M  V30 1271 H 121.44 6.09564 2.82632 0
M  V30 1272 N 124.16 -0.719506 1.40217 0
M  V30 1273 C 125.571 -1.29848 1.34151 0
M  V30 1274 C 125.922 -1.96196 0.0131349 0
M  V30 1275 O 125.047 -1.973 -0.88892 0
M  V30 1276 C 125.642 -2.36118 2.42968 0
M  V30 1277 C 124.201 -2.8965 2.40374 0
M  V30 1278 C 123.348 -1.63393 2.24049 0
M  V30 1279 H 126.299 -0.51591 1.5008 0
M  V30 1280 H 126.32 -3.16871 2.10649 0
M  V30 1281 H 125.832 -1.878 3.39636 0
M  V30 1282 H 123.933 -3.42208 1.47392 0
M  V30 1283 H 124.046 -3.4171 3.35814 0
M  V30 1284 H 122.41 -1.88312 1.71495 0
M  V30 1285 H 123.193 -1.17104 3.2271 0
M  V30 1286 N 125.638 -1.25649 -0.95132 0
M  V30 1287 C 126.884 -1.10757 -1.69884 0
M  V30 1288 C 127.217 0.350061 -1.91019 0
M  V30 1289 O 126.492 1.25783 -1.48354 0
M  V30 1290 C 126.775 -1.86606 -3.07978 0
M  V30 1291 C 126.628 -3.40217 -2.94232 0
M  V30 1292 C 127.947 -1.65182 -4.07925 0
M  V30 1293 H 125.066 -0.40374 -0.616574 0
M  V30 1294 H 127.708 -1.54521 -1.10558 0
M  V30 1295 H 125.858 -1.49409 -3.58621 0
M  V30 1296 H 127.53 -3.87108 -2.50889 0
M  V30 1297 H 125.773 -3.67759 -2.30078 0
M  V30 1298 H 126.444 -3.88505 -3.92133 0
M  V30 1299 H 128.92 -1.9757 -3.66204 0
M  V30 1300 H 127.796 -2.20683 -5.02583 0
M  V30 1301 H 128.057 -0.593933 -4.38092 0
M  V30 1302 N 127.117 1.15442 -1.07289 0
M  V30 1303 C 128.342 1.90638 -0.816828 0
M  V30 1304 C 128.767 1.77445 0.624083 0
M  V30 1305 O 128.125 1.10671 1.43602 0
M  V30 1306 C 128.173 3.39008 -1.22906 0
M  V30 1307 O 127.277 4.10701 -0.373975 0
M  V30 1308 H 126.618 0.593555 -0.297638 0
M  V30 1309 H 129.148 1.46198 -1.43134 0
M  V30 1310 H 129.158 3.89801 -1.20497 0
M  V30 1311 H 127.833 3.47929 -2.27856 0
M  V30 1312 H 126.41 3.70046 -0.460499 0
M  V30 1313 N 128.595 0.856903 1.32268 0
M  V30 1314 C 130.011 0.547061 1.49931 0
M  V30 1315 C 130.211 -0.921781 1.7918 0
M  V30 1316 O 129.267 -1.70469 1.8627 0
M  V30 1317 C 130.58 1.43599 2.64196 0
M  V30 1318 C 132.128 1.43665 2.78081 0
M  V30 1319 C 132.603 2.31085 3.95428 0
M  V30 1320 N 134.094 2.28893 4.02694 0
M  V30 1321 C 134.829 2.93262 4.92732 0
M  V30 1322 N 134.325 3.66751 5.87763 0
M  V30 1323 N 136.118 2.82638 4.85873 0
M  V30 1324 H 128.269 1.8075 1.11549 0
M  V30 1325 H 130.532 0.772144 0.549997 0
M  V30 1326 H 130.238 2.48058 2.49319 0
M  V30 1327 H 130.112 1.12502 3.60032 0
M  V30 1328 H 132.499 0.399701 2.92381 0
M  V30 1329 H 132.58 1.7878 1.82952 0
M  V30 1330 H 132.224 3.34849 3.81888 0
M  V30 1331 H 132.154 1.93302 4.89839 0
M  V30 1332 H 134.645 1.75466 3.34694 0
M  V30 1333 H 134.958 4.13027 6.53168 0
M  V30 1334 H 133.303 3.70859 5.87783 0
M  V30 1335 H 136.494 2.24774 4.10602 0
M  V30 1336 H 136.667 3.33084 5.55841 0
M  V30 1337 N 130.073 -1.45103 0.615059 0
M  V30 1338 C 131.321 -2.01784 0.112955 0
M  V30 1339 C 131.642 -1.48504 -1.26378 0
M  V30 1340 O 130.912 -0.682245 -1.83636 0
M  V30 1341 H 129.492 -0.745993 0.0387668 0
M  V30 1342 H 132.154 -1.77808 0.798141 0
M  V30 1343 H 131.25 -3.12025 0.0684069 0
M  V30 1344 N 131.551 -0.354651 -1.53558 0
M  V30 1345 C 132.514 0.484566 -2.24019 0
M  V30 1346 C 133.514 1.01861 -1.24422 0
M  V30 1347 O 134.704 0.906097 -1.4878 0
M  V30 1348 C 131.836 1.67615 -2.96847 0
M  V30 1349 H 133.029 -0.131843 -2.9961 0
M  V30 1350 H 130.582 -0.106165 -1.55939 0
M  V30 1351 H 131.317 2.33095 -2.25471 0
M  V30 1352 H 131.102 1.30029 -3.69912 0
M  V30 1353 H 132.592 2.27114 -3.50441 0
M  V30 1354 N 133.029 1.57378 -0.0835403 0
M  V30 1355 C 133.959 2.1641 0.87686 0
M  V30 1356 C 134.94 1.09429 1.30228 0
M  V30 1357 O 136.125 1.37516 1.37124 0
M  V30 1358 C 133.255 2.73517 2.14022 0
M  V30 1359 C 132.209 3.85769 1.85381 0
M  V30 1360 C 131.535 4.29529 3.18448 0
M  V30 1361 C 132.835 5.09486 1.14984 0
M  V30 1362 H 134.529 2.96914 0.385059 0
M  V30 1363 H 132.075 1.42823 0.18377 0
M  V30 1364 H 134.028 3.13463 2.81636 0
M  V30 1365 H 132.752 1.90252 2.65465 0
M  V30 1366 H 131.411 3.46345 1.20169 0
M  V30 1367 H 131.059 3.43169 3.67755 0
M  V30 1368 H 130.759 5.05204 3.00071 0
M  V30 1369 H 132.283 4.72099 3.8724 0
M  V30 1370 H 133.697 5.46674 1.72687 0
M  V30 1371 H 132.094 5.90515 1.06826 0
M  V30 1372 H 133.164 4.84724 0.130749 0
M  V30 1373 N 134.507 -0.190092 1.56449 0
M  V30 1374 C 135.747 -0.916414 1.82705 0
M  V30 1375 C 136.111 -1.80235 0.661763 0
M  V30 1376 O 137.312 -2.56484 0.80433 0
M  V30 1377 C 135.583 -1.70691 3.14005 0
M  V30 1378 S 137.142 -2.48457 3.61683 0
M  V30 1379 H 133.96 -0.307281 0.64117 0
M  V30 1380 H 136.562 -0.179433 1.94675 0
M  V30 1381 H 135.266 -1.04677 3.96826 0
M  V30 1382 H 134.797 -2.48562 3.04927 0
M  V30 1383 H 136.812 -3.72756 3.27517 0
M  V30 1384 N 135.985 -1.50799 -0.457987 0
M  V30 1385 C 137.396 -1.55152 -1.0385 0
M  V30 1386 C 137.747 -0.362719 -1.92818 0
M  V30 1387 O 136.872 0.522915 -2.09987 0
M  V30 1388 C 137.467 -2.81173 -1.89017 0
M  V30 1389 C 136.026 -2.88164 -2.42154 0
M  V30 1390 C 135.173 -2.49591 -1.20829 0
M  V30 1391 H 138.124 -1.56874 -0.240068 0
M  V30 1392 H 138.145 -2.63769 -2.74238 0
M  V30 1393 H 137.657 -3.67677 -1.24238 0
M  V30 1394 H 135.758 -2.06042 -3.10447 0
M  V30 1395 H 135.871 -3.91356 -2.76364 0
M  V30 1396 H 134.235 -2.02322 -1.54719 0
M  V30 1397 H 135.018 -3.38418 -0.576927 0
M  V30 1398 N 137.463 0.71206 -1.40597 0
M  V30 1399 C 138.41 1.82613 -1.41142 0
M  V30 1400 C 139.38 1.63925 -0.267903 0
M  V30 1401 O 140.565 1.85009 -0.466495 0
M  V30 1402 C 137.705 3.20354 -1.28324 0
M  V30 1403 C 136.818 3.50589 -2.52411 0
M  V30 1404 C 135.953 4.77855 -2.32009 0
M  V30 1405 C 134.992 5.01005 -3.51654 0
M  V30 1406 N 134.129 6.19487 -3.30425 0
M  V30 1407 H 138.969 1.81482 -2.36365 0
M  V30 1408 H 136.506 0.886475 -1.17388 0
M  V30 1409 H 138.464 3.99899 -1.18899 0
M  V30 1410 H 137.094 3.20705 -0.367189 0
M  V30 1411 H 136.146 2.65573 -2.72351 0
M  V30 1412 H 137.458 3.63604 -3.41458 0
M  V30 1413 H 136.612 5.65424 -2.19956 0
M  V30 1414 H 135.351 4.67056 -1.40392 0
M  V30 1415 H 134.356 4.1189 -3.64179 0
M  V30 1416 H 135.581 5.13674 -4.44202 0
M  V30 1417 H 133.527 6.09932 -2.41494 0
M  V30 1418 H 133.444 6.33194 -4.13039 0
M  V30 1419 H 134.712 7.09834 -3.22113 0
M  V30 1420 N 138.941 1.26152 0.944643 0
M  V30 1421 C 140.189 1.11271 1.6871 0
M  V30 1422 C 140.51 -0.345166 1.91921 0
M  V30 1423 O 139.78 -1.24387 1.51343 0
M  V30 1424 H 138.36 0.408783 0.625224 0
M  V30 1425 H 141.022 1.58427 1.1352 0
M  V30 1426 H 140.118 1.62879 2.66227 0
M  V30 1427 N 140.419 -1.14872 1.07899 0
M  V30 1428 C 141.382 -2.17986 0.708161 0
M  V30 1429 C 142.382 -1.58775 -0.25442 0
M  V30 1430 O 143.572 -1.74166 -0.034645 0
M  V30 1431 C 140.704 -3.40871 0.0446929 0
M  V30 1432 H 141.897 -2.52306 1.62116 0
M  V30 1433 H 139.45 -1.2943 0.876218 0
M  V30 1434 H 140.185 -3.12124 -0.880281 0
M  V30 1435 H 139.97 -3.8511 0.737091 0
M  V30 1436 H 141.46 -4.17121 -0.19991 0
M  V30 1437 N 141.898 -0.863906 -1.31812 0
M  V30 1438 C 143.146 -0.470904 -1.96537 0
M  V30 1439 C 143.467 0.978771 -1.68657 0
M  V30 1440 O 142.737 1.6853 -0.998717 0
M  V30 1441 H 141.317 -0.171148 -0.72713 0
M  V30 1442 H 143.979 -1.10236 -1.60729 0
M  V30 1443 H 143.075 -0.623616 -3.05806 0
M  V30 1444 N 143.376 1.44774 -0.622745 0
M  V30 1445 C 144.306 2.33382 0.0741861 0
M  V30 1446 C 145.287 1.47719 0.843387 0
M  V30 1447 O 146.472 1.76458 0.810934 0
M  V30 1448 C 143.602 3.30663 1.06204 0
M  V30 1449 C 142.556 4.26079 0.405037 0
M  V30 1450 C 141.882 5.13165 1.5022 0
M  V30 1451 C 143.182 5.1781 -0.683414 0
M  V30 1452 H 144.876 2.91905 -0.665713 0
M  V30 1453 H 142.422 1.40363 -0.321587 0
M  V30 1454 H 144.375 3.9153 1.55827 0
M  V30 1455 H 143.099 2.70331 1.83272 0
M  V30 1456 H 141.758 3.66532 -0.0704683 0
M  V30 1457 H 141.406 4.49191 2.26355 0
M  V30 1458 H 141.106 5.77812 1.06803 0
M  V30 1459 H 142.63 5.76902 2.00041 0
M  V30 1460 H 144.044 5.72661 -0.270631 0
M  V30 1461 H 142.441 5.91015 -1.04023 0
M  V30 1462 H 143.511 4.59326 -1.55395 0
M  V30 1463 N 144.854 0.36279 1.53368 0
M  V30 1464 C 145.784 -0.476976 2.28576 0
M  V30 1465 C 146.765 -1.08631 1.30894 0
M  V30 1466 O 147.95 -1.10409 1.59761 0
M  V30 1467 C 145.08 -1.61828 3.07293 0
M  V30 1468 C 144.034 -1.13633 4.1264 0
M  V30 1469 C 143.36 -2.36766 4.79423 0
M  V30 1470 C 144.66 -0.223061 5.21823 0
M  V30 1471 H 146.354 0.150474 2.99022 0
M  V30 1472 H 143.9 0.0738103 1.43811 0
M  V30 1473 H 145.853 -2.21237 3.58653 0
M  V30 1474 H 144.577 -2.27292 2.34533 0
M  V30 1475 H 143.236 -0.564945 3.62221 0
M  V30 1476 H 142.884 -3.0068 4.03238 0
M  V30 1477 H 142.584 -2.05192 5.50609 0
M  V30 1478 H 144.108 -2.96865 5.33576 0
M  V30 1479 H 145.522 -0.724545 5.68703 0
M  V30 1480 H 143.919 0.001678 6.001 0
M  V30 1481 H 144.989 0.735553 4.79289 0
M  V30 1482 N 146.332 -1.57332 0.0918853 0
M  V30 1483 C 147.609 -1.85691 -0.614668 0
M  V30 1484 C 147.989 -0.988146 -1.86545 0
M  V30 1485 O 147.337 -0.0597055 -2.28422 0
M  V30 1486 C 147.547 -3.36294 -0.933126 0
M  V30 1487 C 148.895 -4.04275 -1.29796 0
M  V30 1488 O 149.919 -3.41157 -1.02424 0
M  V30 1489 O 148.778 -5.1564 -1.81047 0
M  V30 1490 H 145.872 -0.767802 -0.307261 0
M  V30 1491 H 148.418 -1.69244 0.12434 0
M  V30 1492 H 147.19 -3.91273 -0.0456404 0
M  V30 1493 H 146.813 -3.58076 -1.72822 0
M  V30 1494 N 147.81 0.181792 -1.56548 0
M  V30 1495 C 149.04 0.914618 -1.85252 0
M  V30 1496 C 149.448 1.76791 -0.673914 0
M  V30 1497 O 148.791 1.80009 0.366416 0
M  V30 1498 C 148.853 1.85019 -3.08234 0
M  V30 1499 C 148.517 1.17754 -4.41569 0
M  V30 1500 C 149.514 0.548035 -5.17003 0
M  V30 1501 C 147.199 1.17742 -4.88305 0
M  V30 1502 C 149.193 -0.0726128 -6.37359 0
M  V30 1503 C 146.88 0.552946 -6.08593 0
M  V30 1504 C 147.878 -0.070978 -6.82963 0
M  V30 1505 O 147.566 -0.685635 -8.00971 0
M  V30 1506 H 147.298 0.271695 -0.618998 0
M  V30 1507 H 149.852 0.189944 -2.0452 0
M  V30 1508 H 148.082 2.61491 -2.84885 0
M  V30 1509 H 149.771 2.45195 -3.23472 0
M  V30 1510 H 150.537 0.540174 -4.81982 0
M  V30 1511 H 146.416 1.65246 -4.30366 0
M  V30 1512 H 149.96 -0.560213 -6.95347 0
M  V30 1513 H 145.857 0.558354 -6.43081 0
M  V30 1514 H 146.625 -0.58385 -8.16415 0
M  V30 1515 N 149.288 1.51039 0.449983 0
M  V30 1516 C 150.534 1.63322 1.20223 0
M  V30 1517 C 150.867 0.34241 1.91158 0
M  V30 1518 O 150.142 -0.657344 1.83055 0
M  V30 1519 C 150.425 2.82801 2.22925 0
M  V30 1520 C 150.278 4.21823 1.56157 0
M  V30 1521 C 151.597 2.97807 3.24035 0
M  V30 1522 H 148.716 0.594407 0.435718 0
M  V30 1523 H 151.358 1.83489 0.493136 0
M  V30 1524 H 149.508 2.65738 2.834 0
M  V30 1525 H 151.18 4.50526 0.991162 0
M  V30 1526 H 149.423 4.25105 0.864172 0
M  V30 1527 H 150.094 5.01391 2.30891 0
M  V30 1528 H 152.57 3.13497 2.73603 0
M  V30 1529 H 151.446 3.82992 3.93202 0
M  V30 1530 H 151.707 2.09328 3.89402 0
M  V30 1531 N 150.766 -0.704594 1.40972 0
M  V30 1532 C 151.714 -1.83994 1.42299 0
M  V30 1533 C 152.708 -1.66684 0.302111 0
M  V30 1534 O 153.914 -1.73655 0.473697 0
M  V30 1535 H 150.289 -0.606171 0.44504 0
M  V30 1536 H 152.26 -1.79992 2.38003 0
M  V30 1537 C 151.009 -3.21946 1.31323 0
M  V30 1538 H 150.332 -3.35878 2.16855 0
M  V30 1539 H 151.772 -4.01491 1.36311 0
M  V30 1540 C 150.231 -3.36891 0.0245977 0
M  V30 1541 O 150.761 -3.90687 -0.934153 0
M  V30 1542 N 148.967 -2.90559 -0.0485243 0
M  V30 1543 H 148.514 -2.46968 0.732419 0
M  V30 1544 H 148.472 -3.00937 -0.910171 0
M  V30 1545 N 152.244 -1.26651 -0.937939 0
M  V30 1546 C 153.469 -1.15279 -1.72411 0
M  V30 1547 C 153.894 0.287866 -1.85884 0
M  V30 1548 O 153.252 1.20855 -1.35143 0
M  V30 1549 C 153.3 -1.83028 -3.10698 0
M  V30 1550 O 152.404 -1.12128 -3.96864 0
M  V30 1551 H 151.745 -0.401504 -0.528858 0
M  V30 1552 H 154.275 -1.67531 -1.1745 0
M  V30 1553 H 154.285 -1.89981 -3.6107 0
M  V30 1554 H 152.96 -2.87833 -3.00208 0
M  V30 1555 H 151.537 -1.13173 -3.55312 0
M  V30 1556 N 153.722 1.14298 -1.08507 0
M  V30 1557 C 154.632 2.23027 -0.727753 0
M  V30 1558 C 155.648 1.71952 0.26619 0
M  V30 1559 O 156.824 2.011 0.109882 0
M  V30 1560 C 153.889 3.46403 -0.143541 0
M  V30 1561 C 152.95 4.12413 -1.19223 0
M  V30 1562 C 152.183 5.29899 -0.635798 0
M  V30 1563 O 152.406 5.67796 0.544393 0
M  V30 1564 O 151.34 5.85717 -1.38634 0
M  V30 1565 H 155.166 2.55945 -1.63481 0
M  V30 1566 H 152.751 1.22248 -0.858817 0
M  V30 1567 H 154.633 4.21018 0.179404 0
M  V30 1568 H 153.308 3.15206 0.736659 0
M  V30 1569 H 152.215 3.39667 -1.56772 0
M  V30 1570 H 153.548 4.47718 -2.04474 0
M  V30 1571 N 155.201 0.870884 1.31352 0
M  V30 1572 C 156.149 0.316445 2.30437 0
M  V30 1573 C 157.143 -0.568965 1.59559 0
M  V30 1574 O 158.349 -0.454964 1.74155 0
M  V30 1575 H 154.724 0.0836521 0.747333 0
M  V30 1576 H 156.695 1.16606 2.74673 0
M  V30 1577 C 155.444 -0.46635 3.44558 0
M  V30 1578 H 154.767 0.205687 3.99271 0
M  V30 1579 H 156.207 -0.819614 4.16003 0
M  V30 1580 C 154.666 -1.65797 2.9328 0
M  V30 1581 O 155.196 -2.75728 2.92125 0
M  V30 1582 N 153.402 -1.49041 2.4947 0
M  V30 1583 H 152.949 -0.59612 2.50608 0
M  V30 1584 H 152.907 -2.28911 2.15516 0
M  V30 1585 N 156.679 -1.44442 0.630414 0
M  V30 1586 C 158.095 -1.56832 0.295973 0
M  V30 1587 C 158.295 -1.61806 -1.20088 0
M  V30 1588 O 157.351 -1.5607 -1.9849 0
M  V30 1589 C 158.664 -2.84031 0.987264 0
M  V30 1590 C 160.212 -2.97742 0.96534 0
M  V30 1591 C 160.687 -4.27743 1.63708 0
M  V30 1592 N 162.178 -4.34555 1.60364 0
M  V30 1593 C 162.913 -5.33862 2.09234 0
M  V30 1594 N 162.409 -6.39578 2.66292 0
M  V30 1595 N 164.202 -5.25366 1.99867 0
M  V30 1596 H 156.353 -1.39457 1.60205 0
M  V30 1597 H 158.616 -0.668237 0.672431 0
M  V30 1598 H 158.322 -2.86338 2.04215 0
M  V30 1599 H 158.196 -3.73534 0.524588 0
M  V30 1600 H 160.583 -2.94989 -0.0810639 0
M  V30 1601 H 160.664 -2.09589 1.4665 0
M  V30 1602 H 160.308 -4.31255 2.68293 0
M  V30 1603 H 160.238 -5.14752 1.11076 0
M  V30 1604 H 162.729 -3.58772 1.18705 0
M  V30 1605 H 163.042 -7.11637 3.01317 0
M  V30 1606 H 161.387 -6.40265 2.70343 0
M  V30 1607 H 164.578 -4.41688 1.55013 0
M  V30 1608 H 164.751 -6.02606 2.38265 0
M  V30 1609 N 158.157 -0.370918 -1.53173 0
M  V30 1610 C 159.087 0.464847 -2.28826 0
M  V30 1611 C 160.068 1.07936 -1.31468 0
M  V30 1612 O 161.253 1.0956 -1.60344 0
M  V30 1613 C 158.383 1.60196 -3.08147 0
M  V30 1614 C 157.337 1.11443 -4.13237 0
M  V30 1615 C 156.663 2.3422 -4.80672 0
M  V30 1616 C 157.963 0.195384 -5.21934 0
M  V30 1617 H 159.657 -0.166329 -2.98938 0
M  V30 1618 H 157.203 -0.0814359 -1.4377 0
M  V30 1619 H 159.156 2.19332 -3.59822 0
M  V30 1620 H 157.88 2.26045 -2.35735 0
M  V30 1621 H 156.539 0.545727 -3.62515 0
M  V30 1622 H 156.187 2.98537 -4.04827 0
M  V30 1623 H 155.887 2.02269 -5.51689 0
M  V30 1624 H 157.411 2.94032 -5.35143 0
M  V30 1625 H 158.825 0.694375 -5.69079 0
M  V30 1626 H 157.222 -0.0335027 -6.00091 0
M  V30 1627 H 158.292 -0.760961 -4.78892 0
M  V30 1628 N 159.635 1.57281 -0.100228 0
M  V30 1629 C 161.051 1.57527 0.256416 0
M  V30 1630 C 161.251 1.11173 1.68056 0
M  V30 1631 O 160.307 0.79053 2.39806 0
M  V30 1632 C 161.62 3.00673 0.0401747 0
M  V30 1633 C 163.168 3.12815 0.107528 0
M  V30 1634 C 163.643 4.57929 -0.0807834 0
M  V30 1635 N 165.134 4.63193 -0.0261207 0
M  V30 1636 C 165.869 5.73212 -0.146999 0
M  V30 1637 N 165.365 6.92047 -0.322999 0
M  V30 1638 N 167.158 5.62031 -0.0879044 0
M  V30 1639 H 159.309 1.85718 -1.03065 0
M  V30 1640 H 161.572 0.857446 -0.404339 0
M  V30 1641 H 161.278 3.38804 -0.943649 0
M  V30 1642 H 161.152 3.69042 0.780262 0
M  V30 1643 H 163.539 2.74554 1.08186 0
M  V30 1644 H 163.62 2.47028 -0.664134 0
M  V30 1645 H 163.264 4.96886 -1.05201 0
M  V30 1646 H 163.194 5.21783 0.710635 0
M  V30 1647 H 165.685 3.77748 0.107161 0
M  V30 1648 H 165.998 7.7173 -0.406608 0
M  V30 1649 H 164.343 6.94074 -0.358733 0
M  V30 1650 H 167.534 4.68075 0.048498 0
M  V30 1651 H 167.707 6.47734 -0.185557 0
M  V30 1652 N 161.113 -0.173488 1.56642 0
M  V30 1653 C 162.343 -0.904781 1.85734 0
M  V30 1654 C 162.751 -1.76431 0.68328 0
M  V30 1655 O 162.094 -1.802 -0.356865 0
M  V30 1656 C 162.156 -1.83382 3.09211 0
M  V30 1657 C 161.82 -1.15411 4.42187 0
M  V30 1658 C 162.817 -0.520609 5.17287 0
M  V30 1659 C 160.502 -1.15151 4.88923 0
M  V30 1660 C 162.496 0.106412 6.37311 0
M  V30 1661 C 160.183 -0.520664 6.08878 0
M  V30 1662 C 161.181 0.107196 6.82916 0
M  V30 1663 O 160.869 0.728102 8.00596 0
M  V30 1664 H 160.601 -0.268408 0.62043 0
M  V30 1665 H 163.155 -0.179096 2.04618 0
M  V30 1666 H 161.385 -2.59976 2.86268 0
M  V30 1667 H 163.074 -2.43476 3.24768 0
M  V30 1668 H 163.84 -0.514606 4.82262 0
M  V30 1669 H 159.719 -1.62961 4.31236 0
M  V30 1670 H 163.263 0.597081 6.9504 0
M  V30 1671 H 159.16 -0.524242 6.43368 0
M  V30 1672 H 159.928 0.627138 8.16094 0
M  V30 1673 N 162.591 -1.51276 -0.441967 0
M  V30 1674 C 164.002 -1.56244 -1.02199 0
M  V30 1675 C 164.353 -0.383149 -1.92422 0
M  V30 1676 O 163.478 0.500613 -2.1053 0
M  V30 1677 C 164.073 -2.83162 -1.86024 0
M  V30 1678 C 162.632 -2.90716 -2.39084 0
M  V30 1679 C 161.779 -2.50858 -1.18175 0
M  V30 1680 H 164.73 -1.5712 -0.223416 0
M  V30 1681 H 164.751 -2.66663 -2.71425 0
M  V30 1682 H 164.263 -3.68974 -1.20331 0
M  V30 1683 H 162.364 -2.09323 -3.08244 0
M  V30 1684 H 162.477 -3.94266 -2.72198 0
M  V30 1685 H 160.841 -2.03951 -1.52565 0
M  V30 1686 H 161.624 -3.3901 -0.541001 0
M  V30 1687 N 164.069 0.697108 -1.41344 0
M  V30 1688 C 164.979 1.84088 -1.45427 0
M  V30 1689 C 165.995 1.70545 -0.34501 0
M  V30 1690 O 167.171 1.92488 -0.592492 0
M  V30 1691 C 164.236 3.20056 -1.33286 0
M  V30 1692 C 163.297 3.45718 -2.54514 0
M  V30 1693 C 162.53 4.75199 -2.42944 0
M  V30 1694 O 162.753 5.51579 -1.45318 0
M  V30 1695 O 161.687 5.0161 -3.32672 0
M  V30 1696 H 165.513 1.836 -2.41919 0
M  V30 1697 H 163.098 0.849966 -1.22866 0
M  V30 1698 H 164.98 4.01236 -1.28794 0
M  V30 1699 H 163.655 3.2123 -0.39909 0
M  V30 1700 H 162.562 2.64474 -2.64583 0
M  V30 1701 H 163.895 3.49356 -3.46715 0
M  V30 1702 N 165.547 1.27147 0.931209 0
M  V30 1703 C 166.777 1.15914 1.71019 0
M  V30 1704 C 167.185 -0.287112 1.87009 0
M  V30 1705 O 166.528 -1.20761 1.38429 0
M  V30 1706 C 166.59 1.76647 3.13107 0
M  V30 1707 C 166.254 3.25807 3.20467 0
M  V30 1708 C 167.251 4.22489 3.02983 0
M  V30 1709 C 164.936 3.66452 3.43538 0
M  V30 1710 C 166.93 5.57794 3.08454 0
M  V30 1711 C 164.617 5.01888 3.48643 0
M  V30 1712 C 165.615 5.97369 3.31119 0
M  V30 1713 O 165.303 7.30337 3.35952 0
M  V30 1714 H 165.035 0.404062 0.54195 0
M  V30 1715 H 167.589 1.68457 1.17521 0
M  V30 1716 H 165.819 1.18578 3.68071 0
M  V30 1717 H 167.508 1.60179 3.72958 0
M  V30 1718 H 168.274 3.92425 2.85004 0
M  V30 1719 H 164.153 2.92611 3.5623 0
M  V30 1720 H 167.697 6.32298 2.94694 0
M  V30 1721 H 163.594 5.31609 3.66145 0
M  V30 1722 H 164.362 7.38739 3.5243 0
M  V30 1723 N 167.025 -1.13721 1.09112 0
M  V30 1724 C 168.441 -1.36914 0.820174 0
M  V30 1725 C 168.641 -1.93356 -0.567079 0
M  V30 1726 O 167.697 -2.15093 -1.32255 0
M  V30 1727 C 169.01 -2.3235 1.90877 0
M  V30 1728 C 170.558 -2.45973 1.93562 0
M  V30 1729 C 171.033 -3.44714 3.01556 0
M  V30 1730 N 172.524 -3.52263 3.00775 0
M  V30 1731 C 173.259 -4.28536 3.80978 0
M  V30 1732 N 172.755 -5.07991 4.71081 0
M  V30 1733 N 174.548 -4.23804 3.69251 0
M  V30 1734 H 166.699 -0.754348 1.98553 0
M  V30 1735 H 168.962 -0.3944 0.862063 0
M  V30 1736 H 168.668 -1.98027 2.90651 0
M  V30 1737 H 168.542 -3.32332 1.78424 0
M  V30 1738 H 170.929 -2.79584 0.944286 0
M  V30 1739 H 171.01 -1.45926 2.10093 0
M  V30 1740 H 170.654 -3.11835 4.00901 0
M  V30 1741 H 170.584 -4.44558 2.82269 0
M  V30 1742 H 173.075 -2.95567 2.35475 0
M  V30 1743 H 173.388 -5.63487 5.28869 0
M  V30 1744 H 171.733 -5.07235 4.75119 0
M  V30 1745 H 174.924 -3.60806 2.98222 0
M  V30 1746 H 175.097 -4.82995 4.31995 0
M  V30 1747 N 168.503 -0.877838 -1.30888 0
M  V30 1748 C 169.466 -0.344265 -2.266 0
M  V30 1749 C 170.466 0.50922 -1.52524 0
M  V30 1750 O 171.656 0.317398 -1.71284 0
M  V30 1751 C 168.788 0.510198 -3.37061 0
M  V30 1752 H 169.981 -1.1893 -2.7531 0
M  V30 1753 H 167.534 -0.654088 -1.41956 0
M  V30 1754 H 168.269 1.37612 -2.93655 0
M  V30 1755 H 168.054 -0.101047 -3.9197 0
M  V30 1756 H 169.544 0.875537 -4.08319 0
M  V30 1757 N 169.982 1.44106 -0.638065 0
M  V30 1758 C 171.393 1.85316 -0.226894 0
M  V30 1759 C 171.744 1.53399 1.22324 0
M  V30 1760 O 170.869 0.975463 1.93167 0
M  V30 1761 C 171.464 3.3637 -0.405013 0
M  V30 1762 C 170.023 3.76369 -0.0482902 0
M  V30 1763 C 169.17 2.67921 -0.715108 0
M  V30 1764 H 172.121 1.34474 -0.842764 0
M  V30 1765 H 172.142 3.7885 0.354 0
M  V30 1766 H 171.654 3.59569 -1.46053 0
M  V30 1767 H 169.755 3.58784 1.00522 0
M  V30 1768 H 169.868 4.76856 -0.463187 0
M  V30 1769 H 168.232 2.54259 -0.149753 0
M  V30 1770 H 169.015 2.93951 -1.77335 0
M  V30 1771 N 171.46 0.379036 1.52974 0
M  V30 1772 C 172.708 -0.206014 2.01047 0
M  V30 1773 C 173.029 -1.48175 1.26765 0
M  V30 1774 O 172.299 -1.92085 0.384743 0
M  V30 1775 H 170.879 -0.0791184 0.742798 0
M  V30 1776 H 173.541 0.508366 1.88153 0
M  V30 1777 H 172.637 -0.423501 3.09213 0
M  V30 1778 N 172.938 -1.57226 0.108567 0
M  V30 1779 C 174.163 -1.99604 -0.563303 0
M  V30 1780 C 174.588 -0.987563 -1.6009 0
M  V30 1781 O 173.946 0.0421687 -1.81251 0
M  V30 1782 C 173.994 -3.40902 -1.17552 0
M  V30 1783 O 173.098 -3.42896 -2.2912 0
M  V30 1784 H 172.439 -0.648704 -0.1417 0
M  V30 1785 H 174.969 -2.03679 0.193961 0
M  V30 1786 H 174.979 -3.78886 -1.51357 0
M  V30 1787 H 173.654 -4.1382 -0.415445 0
M  V30 1788 H 172.231 -3.1672 -1.96832 0
M  V30 1789 N 174.416 0.165178 -1.56732 0
M  V30 1790 C 175.693 0.908443 -1.73224 0
M  V30 1791 C 176.073 2.0013 -0.67165 0
M  V30 1792 O 175.421 2.26353 0.31253 0
M  V30 1793 C 175.631 1.46756 -3.16644 0
M  V30 1794 C 176.979 1.93809 -3.77787 0
M  V30 1795 O 178.003 1.56537 -3.1996 0
M  V30 1796 O 176.862 2.62486 -4.79336 0
M  V30 1797 H 173.956 0.428025 -0.707618 0
M  V30 1798 H 176.502 0.152526 -1.69013 0
M  V30 1799 H 175.274 0.68129 -3.85323 0
M  V30 1800 H 174.897 2.28749 -3.25207 0
M  V30 1801 N 175.894 1.51508 0.433938 0
M  V30 1802 C 176.841 1.73068 1.52696 0
M  V30 1803 C 177.811 0.572441 1.55924 0
M  V30 1804 O 178.996 0.807253 1.72882 0
M  V30 1805 C 176.136 1.86474 2.90381 0
M  V30 1806 C 175.249 3.14037 2.96656 0
M  V30 1807 C 174.384 3.18019 4.25485 0
M  V30 1808 C 173.423 4.39882 4.2564 0
M  V30 1809 N 172.56 4.41394 5.45999 0
M  V30 1810 H 177.4 2.66366 1.33615 0
M  V30 1811 H 174.937 1.32008 0.649018 0
M  V30 1812 H 176.895 1.92229 3.70275 0
M  V30 1813 H 175.525 0.965809 3.08013 0
M  V30 1814 H 174.577 3.17575 2.09404 0
M  V30 1815 H 175.889 4.0394 2.92633 0
M  V30 1816 H 175.043 3.22708 5.13755 0
M  V30 1817 H 173.782 2.2601 4.3217 0
M  V30 1818 H 172.787 4.35366 3.35763 0
M  V30 1819 H 174.012 5.33159 4.20617 0
M  V30 1820 H 171.958 3.52258 5.53399 0
M  V30 1821 H 171.875 5.25111 5.4387 0
M  V30 1822 H 173.143 4.50281 6.36292 0
M  V30 1823 N 177.372 -0.689602 1.41712 0
M  V30 1824 C 178.618 -1.45041 1.42599 0
M  V30 1825 C 178.973 -1.92366 0.0363764 0
M  V30 1826 O 178.266 -1.67022 -0.938844 0
M  V30 1827 C 178.46 -2.67298 2.37247 0
M  V30 1828 C 178.289 -2.31935 3.85274 0
M  V30 1829 C 177.059 -2.2201 4.53916 0
M  V30 1830 C 179.257 -1.94526 4.76093 0
M  V30 1831 N 177.239 -1.79594 5.87043 0
M  V30 1832 C 178.61 -1.62915 5.98213 0
M  V30 1833 C 180.665 -1.81388 4.63684 0
M  V30 1834 C 179.368 -1.19486 7.09306 0
M  V30 1835 C 181.394 -1.39364 5.74745 0
M  V30 1836 C 180.756 -1.08668 6.95967 0
M  V30 1837 H 176.855 -0.527806 0.577014 0
M  V30 1838 H 179.439 -0.797266 1.77628 0
M  V30 1839 H 177.61 -3.30325 2.04304 0
M  V30 1840 H 179.342 -3.33806 2.28814 0
M  V30 1841 H 176.097 -2.406 4.07932 0
M  V30 1842 H 176.521 -1.60851 6.57614 0
M  V30 1843 H 181.163 -2.03772 3.70455 0
M  V30 1844 H 178.881 -0.958477 8.02396 0
M  V30 1845 H 182.467 -1.2974 5.6715 0
M  V30 1846 H 181.347 -0.766417 7.80446 0
M  V30 1847 N 178.85 -1.27639 -0.924453 0
M  V30 1848 C 179.782 -1.06442 -2.02985 0
M  V30 1849 C 180.795 -0.0194771 -1.62788 0
M  V30 1850 O 181.984 -0.261388 -1.76576 0
M  V30 1851 C 179.084 -0.59327 -3.33667 0
M  V30 1852 C 178.257 -1.71123 -4.02537 0
M  V30 1853 C 177.316 -1.23527 -5.11495 0
M  V30 1854 O 176.342 -1.93553 -5.35281 0
M  V30 1855 N 177.544 -0.0926678 -5.80426 0
M  V30 1856 H 180.309 -2.01633 -2.2173 0
M  V30 1857 H 177.87 -1.19248 -1.09505 0
M  V30 1858 H 179.862 -0.258686 -4.03872 0
M  V30 1859 H 178.432 0.265502 -3.1147 0
M  V30 1860 H 177.652 -2.21593 -3.26022 0
M  V30 1861 H 178.94 -2.46145 -4.45298 0
M  V30 1862 H 178.338 0.491741 -5.63559 0
M  V30 1863 H 176.895 0.182714 -6.51544 0
M  V30 1864 N 180.328 1.1314 -1.09713 0
M  V30 1865 C 181.744 1.36477 -0.827423 0
M  V30 1866 C 181.944 1.93654 0.556817 0
M  V30 1867 O 181 2.15791 1.31112 0
M  V30 1868 C 182.313 2.31334 -1.92106 0
M  V30 1869 C 183.861 2.44943 -1.94864 0
M  V30 1870 C 184.336 3.4311 -3.0338 0
M  V30 1871 N 185.827 3.50662 -3.02639 0
M  V30 1872 C 186.562 4.2651 -3.83246 0
M  V30 1873 N 186.058 5.05485 -4.73768 0
M  V30 1874 N 187.851 4.2184 -3.71493 0
M  V30 1875 H 180.002 0.743807 -1.9895 0
M  V30 1876 H 182.265 0.389823 -0.864143 0
M  V30 1877 H 181.971 1.96483 -2.91698 0
M  V30 1878 H 181.845 3.31381 -1.80184 0
M  V30 1879 H 184.232 2.79079 -0.959099 0
M  V30 1880 H 184.313 1.4481 -2.10864 0
M  V30 1881 H 183.957 3.09704 -4.02549 0
M  V30 1882 H 183.887 4.43055 -2.84622 0
M  V30 1883 H 186.378 2.94315 -2.37039 0
M  V30 1884 H 186.691 5.60675 -5.3185 0
M  V30 1885 H 185.036 5.04708 -4.77802 0
M  V30 1886 H 188.227 3.5922 -3.00131 0
M  V30 1887 H 188.4 4.80697 -4.3455 0
M  V30 1888 N 181.806 0.884767 1.30421 0
M  V30 1889 C 183.055 0.499164 1.95426 0
M  V30 1890 C 183.368 -0.95645 1.70621 0
M  V30 1891 O 184.574 -1.44889 2.29607 0
M  V30 1892 C 183.03 0.84177 3.49917 0
M  V30 1893 C 182.638 2.31514 3.83543 0
M  V30 1894 C 184.382 0.525355 4.21237 0
M  V30 1895 C 182.289 2.59939 5.31212 0
M  V30 1896 H 181.219 0.182944 0.73147 0
M  V30 1897 H 183.87 1.07971 1.48373 0
M  V30 1898 H 182.252 0.190311 3.95542 0
M  V30 1899 H 183.426 3.0109 3.48829 0
M  V30 1900 H 181.741 2.59907 3.25326 0
M  V30 1901 H 184.338 0.714762 5.29901 0
M  V30 1902 H 184.681 -0.535222 4.12845 0
M  V30 1903 H 185.214 1.134 3.81294 0
M  V30 1904 H 181.953 3.64736 5.44654 0
M  V30 1905 H 181.473 1.94972 5.67227 0
M  V30 1906 H 183.152 2.45429 5.98643 0
M  V30 1907 N 183.284 -1.43765 0.645699 0
M  V30 1908 C 184.509 -2.06767 0.161883 0
M  V30 1909 C 184.934 -1.48034 -1.16049 0
M  V30 1910 O 184.292 -0.587369 -1.71522 0
M  V30 1911 C 184.34 -3.60519 0.0762003 0
M  V30 1912 O 183.444 -4.00982 -0.963721 0
M  V30 1913 H 182.785 -0.657675 0.091429 0
M  V30 1914 H 185.315 -1.84397 0.886499 0
M  V30 1915 H 185.325 -4.07853 -0.109604 0
M  V30 1916 H 184 -4.02646 1.04157 0
M  V30 1917 H 182.577 -3.65253 -0.751312 0
M  V30 1918 N 184.763 -0.387143 -1.52771 0
M  V30 1919 C 186.009 0.188506 -2.02525 0
M  V30 1920 C 186.364 1.44649 -1.26864 0
M  V30 1921 O 185.657 1.88189 -0.359945 0
M  V30 1922 C 185.851 0.512209 -3.53711 0
M  V30 1923 C 185.68 -0.712855 -4.44014 0
M  V30 1924 C 184.45 -1.23147 -4.90064 0
M  V30 1925 C 186.648 -1.58453 -4.89282 0
M  V30 1926 N 184.63 -2.41431 -5.64433 0
M  V30 1927 C 186.001 -2.61381 -5.6221 0
M  V30 1928 C 188.056 -1.60488 -4.71326 0
M  V30 1929 C 186.759 -3.66227 -6.19088 0
M  V30 1930 C 188.785 -2.6424 -5.29085 0
M  V30 1931 C 188.147 -3.6589 -6.01917 0
M  V30 1932 H 184.246 0.0311236 -0.78138 0
M  V30 1933 H 186.83 -0.536548 -1.87161 0
M  V30 1934 H 185.001 1.20632 -3.69192 0
M  V30 1935 H 186.733 1.07482 -3.90166 0
M  V30 1936 H 183.488 -0.792795 -4.66917 0
M  V30 1937 H 183.912 -3.01274 -6.0627 0
M  V30 1938 H 188.554 -0.83247 -4.14524 0
M  V30 1939 H 186.272 -4.44337 -6.74974 0
M  V30 1940 H 189.858 -2.66695 -5.17074 0
M  V30 1941 H 188.738 -4.44855 -6.45813 0
M  V30 1942 N 186.241 1.57166 -0.116904 0
M  V30 1943 C 187.151 2.18745 0.847812 0
M  V30 1944 C 188.167 1.163 1.29423 0
M  V30 1945 O 189.343 1.48761 1.35765 0
M  V30 1946 C 186.408 2.77307 2.0809 0
M  V30 1947 C 185.469 3.94781 1.68661 0
M  V30 1948 C 184.702 4.50541 2.86091 0
M  V30 1949 O 184.925 4.05202 4.01456 0
M  V30 1950 O 183.859 5.41256 2.63298 0
M  V30 1951 H 187.685 3.01632 0.353778 0
M  V30 1952 H 185.27 1.49005 0.108599 0
M  V30 1953 H 187.152 3.14647 2.80313 0
M  V30 1954 H 185.827 1.97452 2.56504 0
M  V30 1955 H 184.734 3.62214 0.935518 0
M  V30 1956 H 186.067 4.76065 1.24991 0
M  V30 1957 N 187.719 -0.156864 1.56817 0
M  V30 1958 C 188.629 -1.2136 2.00771 0
M  V30 1959 C 189.645 -1.47598 0.921459 0
M  V30 1960 O 190.821 -1.59462 1.2302 0
M  V30 1961 C 187.886 -2.52943 2.37109 0
M  V30 1962 C 186.947 -2.34439 3.59634 0
M  V30 1963 C 186.18 -3.59748 3.94229 0
M  V30 1964 O 186.403 -4.65526 3.29609 0
M  V30 1965 O 185.337 -3.52998 4.8752 0
M  V30 1966 H 189.163 -0.870468 2.90958 0
M  V30 1967 H 186.748 -0.36484 1.44877 0
M  V30 1968 H 188.63 -3.30538 2.61386 0
M  V30 1969 H 187.305 -2.86806 1.5008 0
M  V30 1970 H 186.212 -1.54828 3.40557 0
M  V30 1971 H 187.545 -2.05496 4.4725 0
M  V30 1972 N 189.197 -1.51736 -0.425897 0
M  V30 1973 C 190.16 -1.73271 -1.50032 0
M  V30 1974 C 191.16 -0.602639 -1.4908 0
M  V30 1975 O 192.35 -0.87033 -1.509 0
M  V30 1976 C 189.482 -1.79969 -2.89523 0
M  V30 1977 H 190.675 -2.69172 -1.32237 0
M  V30 1978 H 188.228 -1.41899 -0.65532 0
M  V30 1979 H 188.963 -0.859241 -3.1271 0
M  V30 1980 H 188.748 -2.62109 -2.91619 0
M  V30 1981 H 190.238 -1.9843 -3.67444 0
M  V30 1982 N 190.675 0.682077 -1.42076 0
M  V30 1983 C 191.922 1.44215 -1.42156 0
M  V30 1984 C 192.25 1.94468 -0.0354186 0
M  V30 1985 O 191.505 1.70816 0.955002 0
M  V30 1986 C 191.804 2.66036 -2.38662 0
M  V30 1987 C 191.47 2.34366 -3.85206 0
M  V30 1988 C 190.132 2.25439 -4.25124 0
M  V30 1989 C 192.484 2.08513 -4.77673 0
M  V30 1990 C 189.812 1.88775 -5.55501 0
M  V30 1991 C 192.164 1.73354 -6.08384 0
M  V30 1992 C 190.828 1.62933 -6.47309 0
M  V30 1993 H 190.098 0.527718 -0.520187 0
M  V30 1994 H 192.745 0.778387 -1.74967 0
M  V30 1995 H 191.05 3.3741 -1.99152 0
M  V30 1996 H 192.747 3.24205 -2.35991 0
M  V30 1997 H 189.337 2.42213 -3.53597 0
M  V30 1998 H 193.521 2.14346 -4.47626 0
M  V30 1999 H 188.777 1.7927 -5.84527 0
M  V30 2000 H 192.951 1.52373 -6.79526 0
M  V30 2001 H 190.578 1.34292 -7.48244 0
M  V30 2002 N 192.153 1.28127 0.917671 0
M  V30 2003 C 193.378 1.18007 1.70555 0
M  V30 2004 C 193.803 -0.258257 1.86319 0
M  V30 2005 O 193.161 -1.1869 1.37049 0
M  V30 2006 C 193.209 1.87948 3.07746 0
M  V30 2007 O 192.313 1.18427 3.9503 0
M  V30 2008 H 191.654 0.409867 0.522403 0
M  V30 2009 H 194.184 1.69379 1.1477 0
M  V30 2010 H 194.194 1.95701 3.58001 0
M  V30 2011 H 192.869 2.92573 2.95591 0
M  V30 2012 H 191.446 1.18811 3.53466 0
M  V30 2013 N 193.631 -1.12557 1.10312 0
M  V30 2014 C 195.047 -1.36036 0.834649 0
M  V30 2015 C 195.247 -1.93946 -0.546539 0
M  V30 2016 O 194.303 -2.16484 -1.29966 0
M  V30 2017 C 195.616 -2.30312 1.9333 0
M  V30 2018 C 197.164 -2.43906 1.9616 0
M  V30 2019 C 197.639 -3.41496 3.05195 0
M  V30 2020 N 199.13 -3.49053 3.04494 0
M  V30 2021 C 199.865 -4.24471 3.85502 0
M  V30 2022 N 199.361 -5.02966 4.76442 0
M  V30 2023 N 201.154 -4.19864 3.73725 0
M  V30 2024 H 193.305 -0.733246 1.99342 0
M  V30 2025 H 195.568 -0.385234 0.866198 0
M  V30 2026 H 195.274 -1.94933 2.92735 0
M  V30 2027 H 195.148 -3.30421 1.81939 0
M  V30 2028 H 197.535 -2.78567 0.973886 0
M  V30 2029 H 197.616 -1.4369 2.11629 0
M  V30 2030 H 197.26 -3.07565 4.04186 0
M  V30 2031 H 197.19 -4.41539 2.86968 0
M  V30 2032 H 199.681 -2.93053 2.38596 0
M  V30 2033 H 199.994 -5.57846 5.34815 0
M  V30 2034 H 198.339 -5.02167 4.80472 0
M  V30 2035 H 201.53 -3.57623 3.02032 0
M  V30 2036 H 201.703 -4.78386 4.37093 0
M  V30 2037 N 195.109 -0.891671 -1.2995 0
M  V30 2038 C 196.358 -0.509521 -1.95158 0
M  V30 2039 C 196.671 0.947388 -1.71125 0
M  V30 2040 O 197.877 1.43669 -2.30372 0
M  V30 2041 C 196.333 -0.860315 -3.49466 0
M  V30 2042 C 195.941 -2.33545 -3.8231 0
M  V30 2043 C 197.685 -0.547687 -4.20952 0
M  V30 2044 C 195.592 -2.62752 -5.29826 0
M  V30 2045 H 194.522 -0.18682 -0.730489 0
M  V30 2046 H 197.173 -1.08756 -1.47798 0
M  V30 2047 H 195.555 -0.211285 -3.95436 0
M  V30 2048 H 196.729 -3.02936 -3.47227 0
M  V30 2049 H 195.044 -2.61629 -3.23944 0
M  V30 2050 H 197.641 -0.742854 -5.29515 0
M  V30 2051 H 197.984 0.51332 -4.13123 0
M  V30 2052 H 198.517 -1.1542 -3.80688 0
M  V30 2053 H 195.256 -3.6762 -5.42712 0
M  V30 2054 H 194.776 -1.97977 -5.66185 0
M  V30 2055 H 196.455 -2.48601 -5.97333 0
M  V30 2056 N 196.587 1.43421 -0.653314 0
M  V30 2057 C 197.55 2.29182 0.0287951 0
M  V30 2058 C 198.55 1.42213 0.750465 0
M  V30 2059 O 199.74 1.63843 0.591701 0
M  V30 2060 C 196.872 3.24278 1.05151 0
M  V30 2061 H 198.065 2.90985 -0.725786 0
M  V30 2062 H 195.618 1.50702 -0.414545 0
M  V30 2063 H 196.353 2.6737 1.83532 0
M  V30 2064 H 196.138 3.88396 0.537687 0
M  V30 2065 H 197.628 3.88647 1.52786 0
M  V30 2066 N 198.065 0.39524 1.52563 0
M  V30 2067 C 199.012 -0.437036 2.26624 0
M  V30 2068 C 199.982 -1.05281 1.28472 0
M  V30 2069 O 201.167 -1.07971 1.57311 0
M  V30 2070 C 198.307 -1.55524 3.08069 0
M  V30 2071 C 197.42 -0.961745 4.21158 0
M  V30 2072 C 196.555 -2.05149 4.89987 0
M  V30 2073 C 195.594 -1.4342 5.95061 0
M  V30 2074 N 194.731 -2.46351 6.57462 0
M  V30 2075 H 199.571 0.200976 2.97322 0
M  V30 2076 H 197.108 0.110944 1.46681 0
M  V30 2077 H 199.066 -2.21437 3.53584 0
M  V30 2078 H 197.696 -2.16348 2.3957 0
M  V30 2079 H 196.748 -0.192048 3.79915 0
M  V30 2080 H 198.06 -0.470701 4.96574 0
M  V30 2081 H 197.214 -2.78819 5.38837 0
M  V30 2082 H 195.953 -2.57615 4.14109 0
M  V30 2083 H 194.958 -0.682774 5.45544 0
M  V30 2084 H 196.183 -0.917416 6.72875 0
M  V30 2085 H 194.129 -2.97975 5.8442 0
M  V30 2086 H 194.046 -2.02019 7.28508 0
M  V30 2087 H 195.314 -3.19633 7.10954 0
M  V30 2088 N 199.544 -1.57102 0.125237 0
M  V30 2089 C 200.474 -2.18659 -0.819174 0
M  V30 2090 C 201.455 -1.12843 -1.27281 0
M  V30 2091 O 202.64 -1.41104 -1.33429 0
M  V30 2092 C 199.77 -2.79096 -2.06695 0
M  V30 2093 C 198.724 -3.90548 -1.75088 0
M  V30 2094 C 198.05 -4.37821 -3.06948 0
M  V30 2095 C 199.35 -5.12356 -1.01435 0
M  V30 2096 H 201.044 -2.9783 -0.306202 0
M  V30 2097 H 198.59 -1.4326 -0.145839 0
M  V30 2098 H 200.543 -3.2082 -2.73226 0
M  V30 2099 H 199.267 -1.97223 -2.60328 0
M  V30 2100 H 197.926 -3.49409 -1.10944 0
M  V30 2101 H 197.574 -3.52799 -3.58527 0
M  V30 2102 H 197.274 -5.12982 -2.86571 0
M  V30 2103 H 198.798 -4.822 -3.74587 0
M  V30 2104 H 200.212 -5.5106 -1.58132 0
M  V30 2105 H 198.609 -5.9314 -0.911319 0
M  V30 2106 H 199.679 -4.849 -0.00218681 0
M  V30 2107 N 201.022 0.148545 -1.56898 0
M  V30 2108 C 201.955 1.21293 -1.93296 0
M  V30 2109 C 202.933 1.41637 -0.798599 0
M  V30 2110 O 204.117 1.56275 -1.05406 0
M  V30 2111 C 201.244 2.5721 -2.20365 0
M  V30 2112 C 200.29 2.53469 -3.4301 0
M  V30 2113 S 201.123 2.00315 -4.96623 0
M  V30 2114 C 202.279 3.37964 -5.26812 0
M  V30 2115 H 202.512 0.902393 -2.83274 0
M  V30 2116 H 200.045 0.354094 -1.50285 0
M  V30 2117 H 202.003 3.35427 -2.36641 0
M  V30 2118 H 200.664 2.85454 -1.31054 0
M  V30 2119 H 199.857 3.53518 -3.59223 0
M  V30 2120 H 199.459 1.83359 -3.25968 0
M  V30 2121 H 201.751 4.34066 -5.20185 0
M  V30 2122 H 202.694 3.26606 -6.28279 0
M  V30 2123 H 203.102 3.35028 -4.54331 0
M  V30 2124 N 202.5 1.5196 0.417844 0
M  V30 2125 C 203.447 1.74678 1.50852 0
M  V30 2126 C 204.417 0.588947 1.55308 0
M  V30 2127 O 205.602 0.825544 1.72016 0
M  V30 2128 C 202.742 1.89544 2.88387 0
M  V30 2129 C 201.855 3.17166 2.93309 0
M  V30 2130 C 200.99 3.22513 4.22088 0
M  V30 2131 C 200.029 4.44372 4.20951 0
M  V30 2132 N 199.166 4.47161 5.41287 0
M  V30 2133 H 204.006 2.67768 1.30783 0
M  V30 2134 H 201.543 1.32689 0.63498 0
M  V30 2135 H 203.501 1.96146 3.68216 0
M  V30 2136 H 202.131 0.998424 3.06971 0
M  V30 2137 H 201.183 3.19778 2.06024 0
M  V30 2138 H 202.495 4.07021 2.88332 0
M  V30 2139 H 201.649 3.28139 5.10303 0
M  V30 2140 H 200.388 2.30581 4.29748 0
M  V30 2141 H 199.393 4.38902 3.31127 0
M  V30 2142 H 200.618 5.3759 4.14938 0
M  V30 2143 H 198.564 3.58108 5.49632 0
M  V30 2144 H 198.481 5.3085 5.3827 0
M  V30 2145 H 199.749 4.57005 6.3148 0
M  V30 2146 N 203.978 -0.674533 1.42435 0
M  V30 2147 C 204.941 -1.76986 1.45632 0
M  V30 2148 C 205.941 -1.5708 0.343871 0
M  V30 2149 O 207.131 -1.63367 0.604709 0
M  V30 2150 C 204.263 -3.15623 1.28822 0
M  V30 2151 H 205.456 -1.75539 2.43158 0
M  V30 2152 H 203.009 -0.884189 1.28887 0
M  V30 2153 H 203.744 -3.22696 0.322193 0
M  V30 2154 H 203.529 -3.31475 2.09444 0
M  V30 2155 H 205.019 -3.95537 1.33942 0
M  V30 2156 N 205.456 -1.28612 -0.910864 0
M  V30 2157 C 206.733 -1.06632 -1.63979 0
M  V30 2158 C 207.113 0.393351 -2.07403 0
M  V30 2159 O 206.461 1.37999 -1.82122 0
M  V30 2160 C 206.671 -2.0436 -2.8291 0
M  V30 2161 C 208.019 -2.34666 -3.5386 0
M  V30 2162 O 209.043 -2.02467 -2.93062 0
M  V30 2163 O 207.902 -2.89631 -4.63439 0
M  V30 2164 H 204.996 -0.407737 -0.7195 0
M  V30 2165 H 207.542 -1.39942 -0.959914 0
M  V30 2166 H 206.314 -3.02727 -2.47936 0
M  V30 2167 H 205.937 -1.71714 -3.58609 0
M  V30 2168 N 206.934 1.1197 -1.10907 0
M  V30 2169 C 208.35 1.35591 -0.841852 0
M  V30 2170 C 208.55 1.94233 0.536246 0
M  V30 2171 O 207.606 2.1717 1.28816 0
M  V30 2172 C 208.919 2.29284 -1.94549 0
M  V30 2173 C 210.467 2.42862 -1.97451 0
M  V30 2174 C 210.942 3.39873 -3.07002 0
M  V30 2175 N 212.433 3.47433 -3.06341 0
M  V30 2176 C 213.168 4.22421 -3.87748 0
M  V30 2177 N 212.664 5.00432 -4.79103 0
M  V30 2178 N 214.457 4.17876 -3.75946 0
M  V30 2179 H 206.608 0.722664 -1.99728 0
M  V30 2180 H 208.871 0.380635 -0.868229 0
M  V30 2181 H 208.577 1.93378 -2.93765 0
M  V30 2182 H 208.451 3.29452 -1.83688 0
M  V30 2183 H 210.838 2.78046 -0.988645 0
M  V30 2184 H 210.919 1.42566 -2.12388 0
M  V30 2185 H 210.563 3.05417 -4.05811 0
M  V30 2186 H 210.493 4.40011 -2.89306 0
M  V30 2187 H 212.984 2.91784 -2.40147 0
M  V30 2188 H 213.297 5.55002 -5.37766 0
M  V30 2189 H 211.642 4.99612 -4.83128 0
M  V30 2190 H 214.833 3.56016 -3.03924 0
M  V30 2191 H 215.006 4.76061 -4.39624 0
M  V30 2192 N 208.412 0.89855 1.29475 0
M  V30 2193 C 209.689 0.443416 1.90508 0
M  V30 2194 C 210.069 -1.07685 1.81569 0
M  V30 2195 O 209.417 -1.9182 1.24166 0
M  V30 2196 C 209.627 0.956708 3.35631 0
M  V30 2197 C 210.975 0.999728 4.12663 0
M  V30 2198 O 211.999 0.904299 3.4453 0
M  V30 2199 O 210.858 1.14289 5.34416 0
M  V30 2200 H 207.952 0.138025 0.815401 0
M  V30 2201 H 210.498 0.98834 1.37949 0
M  V30 2202 H 209.27 2.00067 3.36287 0
M  V30 2203 H 208.893 0.391728 3.95666 0
M  V30 2204 N 209.89 -1.43072 0.660911 0
M  V30 2205 C 210.853 -2.29194 -0.0166406 0
M  V30 2206 C 211.853 -1.42609 -0.742912 0
M  V30 2207 O 213.043 -1.64155 -0.583004 0
M  V30 2208 C 210.175 -3.24831 -1.0343 0
M  V30 2209 H 211.368 -2.90596 0.741208 0
M  V30 2210 H 208.921 -1.5048 0.422532 0
M  V30 2211 H 209.656 -2.68339 -1.82111 0
M  V30 2212 H 209.441 -3.88676 -0.517082 0
M  V30 2213 H 210.931 -3.89451 -1.50723 0
M  V30 2214 N 211.368 -0.403325 -1.52352 0
M  V30 2215 C 212.316 0.439752 -2.28405 0
M  V30 2216 C 213.31 1.05089 -1.32863 0
M  V30 2217 O 214.516 0.989759 -1.50345 0
M  V30 2218 H 210.891 0.160587 -0.734653 0
M  V30 2219 H 212.862 -0.222983 -2.97566 0
M  V30 2220 C 211.611 1.54736 -3.11371 0
M  V30 2221 H 210.934 1.08643 -3.84755 0
M  V30 2222 H 212.374 2.1112 -3.67701 0
M  V30 2223 C 210.833 2.51141 -2.24566 0
M  V30 2224 O 211.363 3.54887 -1.88196 0
M  V30 2225 N 209.569 2.21213 -1.8845 0
M  V30 2226 H 209.116 1.36878 -2.18225 0
M  V30 2227 H 209.074 2.85963 -1.30662 0
M  V30 2228 N 212.846 1.57033 -0.133567 0
M  V30 2229 C 214.093 1.95686 0.520877 0
M  V30 2230 C 214.421 1.0177 1.6575 0
M  V30 2231 O 213.676 0.0443195 1.9565 0
M  V30 2232 C 213.975 3.40674 1.08057 0
M  V30 2233 C 213.641 4.50855 0.0637899 0
M  V30 2234 C 212.303 4.80716 -0.215757 0
M  V30 2235 C 214.655 5.17398 -0.62835 0
M  V30 2236 C 211.983 5.74433 -1.19348 0
M  V30 2237 C 214.335 6.12167 -1.5948 0
M  V30 2238 C 212.999 6.40414 -1.88218 0
M  V30 2239 H 212.269 0.716067 0.190602 0
M  V30 2240 H 214.916 1.9026 -0.217556 0
M  V30 2241 H 213.221 3.42865 1.89606 0
M  V30 2242 H 214.918 3.67902 1.59529 0
M  V30 2243 H 211.508 4.27605 0.291855 0
M  V30 2244 H 215.692 4.94472 -0.425562 0
M  V30 2245 H 210.948 5.94616 -1.42272 0
M  V30 2246 H 215.122 6.6281 -2.13671 0
M  V30 2247 H 212.749 7.12838 -2.64133 0
M  V30 2248 N 214.325 -0.140222 1.56975 0
M  V30 2249 C 215.574 -0.850152 1.82908 0
M  V30 2250 C 215.887 -1.82028 0.715892 0
M  V30 2251 O 217.093 -2.57485 0.861016 0
M  V30 2252 C 215.549 -1.5625 3.24213 0
M  V30 2253 C 215.157 -0.63443 4.43485 0
M  V30 2254 C 216.901 -2.25881 3.59413 0
M  V30 2255 C 214.808 -1.34879 5.75814 0
M  V30 2256 H 213.738 -0.321221 0.682153 0
M  V30 2257 H 216.389 -0.102874 1.83211 0
M  V30 2258 H 214.771 -2.35565 3.18316 0
M  V30 2259 H 215.945 0.12398 4.60633 0
M  V30 2260 H 214.26 -0.0461836 4.16374 0
M  V30 2261 H 216.857 -2.79978 4.5554 0
M  V30 2262 H 217.2 -3.02693 2.85802 0
M  V30 2263 H 217.733 -1.53477 3.67001 0
M  V30 2264 H 214.472 -0.622385 6.52539 0
M  V30 2265 H 213.992 -2.07974 5.6259 0
M  V30 2266 H 215.671 -1.88784 6.18845 0
M  V30 2267 N 215.803 -1.52179 -0.40978 0
M  V30 2268 C 216.713 -1.78364 -1.52392 0
M  V30 2269 C 217.729 -0.669183 -1.60617 0
M  V30 2270 O 218.905 -0.954518 -1.77344 0
M  V30 2271 C 215.97 -1.92822 -2.88133 0
M  V30 2272 C 215.031 -3.16725 -2.898 0
M  V30 2273 C 214.264 -3.30483 -4.19067 0
M  V30 2274 O 214.487 -2.49522 -5.12928 0
M  V30 2275 O 213.421 -4.2363 -4.27576 0
M  V30 2276 H 217.247 -2.72931 -1.33201 0
M  V30 2277 H 214.832 -1.37016 -0.59557 0
M  V30 2278 H 216.714 -2.04157 -3.68643 0
M  V30 2279 H 215.389 -1.01444 -3.07393 0
M  V30 2280 H 214.296 -3.10848 -2.08146 0
M  V30 2281 H 215.629 -4.07881 -2.75489 0
M  V30 2282 N 217.281 0.66697 -1.42791 0
M  V30 2283 C 218.228 1.7803 -1.4688 0
M  V30 2284 C 219.198 1.6299 -0.319919 0
M  V30 2285 O 220.383 1.83432 -0.525118 0
M  V30 2286 C 217.523 3.1611 -1.38451 0
M  V30 2287 C 216.636 3.42381 -2.63437 0
M  V30 2288 C 215.771 4.70232 -2.47094 0
M  V30 2289 C 214.81 4.89564 -3.67415 0
M  V30 2290 N 213.947 6.08661 -3.49966 0
M  V30 2291 H 218.787 1.7387 -2.42019 0
M  V30 2292 H 216.324 0.84868 -1.20149 0
M  V30 2293 H 218.282 3.95914 -1.31561 0
M  V30 2294 H 216.912 3.19374 -0.469033 0
M  V30 2295 H 215.964 2.56774 -2.80662 0
M  V30 2296 H 217.276 3.52557 -3.52853 0
M  V30 2297 H 216.43 5.5814 -2.37834 0
M  V30 2298 H 215.169 4.62353 -1.5518 0
M  V30 2299 H 214.174 4.00096 -3.77099 0
M  V30 2300 H 215.399 4.99282 -4.6032 0
M  V30 2301 H 213.345 6.0194 -2.60776 0
M  V30 2302 H 213.262 6.19733 -4.32975 0
M  V30 2303 H 214.53 6.99226 -3.44532 0
M  V30 2304 N 218.759 1.29093 0.90403 0
M  V30 2305 C 219.707 1.13727 2.02901 0
M  V30 2306 C 220.701 0.0539853 1.69314 0
M  V30 2307 O 221.907 0.213469 1.7873 0
M  V30 2308 H 218.282 0.35117 0.664969 0
M  V30 2309 H 220.253 2.08982 2.13001 0
M  V30 2310 C 219.002 0.826066 3.37745 0
M  V30 2311 H 218.325 1.65164 3.64089 0
M  V30 2312 H 219.765 0.758559 4.17159 0
M  V30 2313 C 218.224 -0.470541 3.33598 0
M  V30 2314 O 218.754 -1.49792 3.72727 0
M  V30 2315 N 216.96 -0.474812 2.86695 0
M  V30 2316 H 216.507 0.361692 2.55048 0
M  V30 2317 H 216.465 -1.34236 2.84303 0
M  V30 2318 N 220.237 -1.11381 1.11499 0
M  V30 2319 C 221.147 -2.21019 0.786628 0
M  V30 2320 C 222.163 -1.72597 -0.220507 0
M  V30 2321 O 223.339 -2.01321 -0.0565251 0
M  V30 2322 C 220.404 -3.459 0.235333 0
M  V30 2323 C 219.465 -4.09107 1.30115 0
M  V30 2324 C 218.698 -5.28027 0.776068 0
M  V30 2325 O 218.921 -5.6904 -0.393661 0
M  V30 2326 O 217.855 -5.81835 1.54114 0
M  V30 2327 H 221.681 -2.51521 1.70209 0
M  V30 2328 H 219.266 -1.19928 0.890928 0
M  V30 2329 H 221.148 -4.21346 -0.067715 0
M  V30 2330 H 219.823 -3.17049 -0.652828 0
M  V30 2331 H 218.73 -3.35391 1.65722 0
M  V30 2332 H 220.063 -4.42139 2.16273 0
M  V30 2333 N 221.715 -0.905404 -1.28997 0
M  V30 2334 C 222.647 -0.344748 -2.26592 0
M  V30 2335 C 223.66 0.512135 -1.54535 0
M  V30 2336 O 224.849 0.328368 -1.75454 0
M  V30 2337 C 221.949 0.526587 -3.34784 0
M  V30 2338 C 221.122 -0.305871 -4.36329 0
M  V30 2339 C 220.181 0.499209 -5.23827 0
M  V30 2340 O 219.207 -0.0853004 -5.69136 0
M  V30 2341 N 220.409 1.80408 -5.51755 0
M  V30 2342 H 223.174 -1.18359 -2.75338 0
M  V30 2343 H 220.735 -0.770481 -1.42391 0
M  V30 2344 H 222.727 1.07171 -3.90252 0
M  V30 2345 H 221.297 1.26613 -2.85811 0
M  V30 2346 H 220.517 -1.0324 -3.80441 0
M  V30 2347 H 221.805 -0.875773 -5.01206 0
M  V30 2348 H 221.203 2.3016 -5.16762 0
M  V30 2349 H 219.76 2.29621 -6.10014 0
M  V30 2350 N 223.193 1.4272 -0.668489 0
M  V30 2351 C 224.441 2.01226 -0.187769 0
M  V30 2352 C 224.762 1.53092 1.2078 0
M  V30 2353 O 224.032 0.74993 1.80977 0
M  V30 2354 H 222.612 0.744041 -0.0664272 0
M  V30 2355 H 225.274 1.74723 -0.863583 0
M  V30 2356 H 224.37 3.11556 -0.184166 0
M  V30 2357 N 224.671 0.411399 1.52136 0
M  V30 2358 C 225.917 -0.163888 2.02137 0
M  V30 2359 C 226.25 -1.44597 1.29636 0
M  V30 2360 O 225.525 -1.90272 0.403353 0
M  V30 2361 C 225.808 -0.40927 3.57767 0
M  V30 2362 C 225.661 0.889643 4.40914 0
M  V30 2363 C 226.98 -1.19042 4.23694 0
M  V30 2364 H 224.099 -0.0580896 0.734707 0
M  V30 2365 H 226.741 0.54531 1.82007 0
M  V30 2366 H 224.891 -1.0134 3.7505 0
M  V30 2367 H 226.563 1.52575 4.35337 0
M  V30 2368 H 224.806 1.50011 4.07037 0
M  V30 2369 H 225.477 0.672314 5.4789 0
M  V30 2370 H 227.953 -0.678942 4.10524 0
M  V30 2371 H 226.829 -1.33086 5.32522 0
M  V30 2372 H 227.09 -2.21166 3.82803 0
M  V30 2373 N 226.149 -1.5696 0.141893 0
M  V30 2374 C 227.377 -2.00322 -0.517579 0
M  V30 2375 C 227.792 -1.02193 -1.58752 0
M  V30 2376 O 227.149 -0.0181619 -1.82491 0
M  V30 2377 C 227.2 -3.43618 -1.12289 0
M  V30 2378 O 226.921 -4.37995 -0.0956929 0
M  V30 2379 C 228.422 -4.02231 -1.86347 0
M  V30 2380 H 225.642 -0.657243 -0.135177 0
M  V30 2381 H 228.186 -2.03146 0.234973 0
M  V30 2382 H 226.341 -3.41662 -1.82609 0
M  V30 2383 H 226.755 -5.21729 -0.538469 0
M  V30 2384 H 228.229 -5.04509 -2.23997 0
M  V30 2385 H 228.706 -3.42655 -2.74744 0
M  V30 2386 H 229.312 -4.07802 -1.20737 0
M  V30 2387 N 227.627 0.131896 -1.57047 0
M  V30 2388 C 228.873 0.843179 -1.84441 0
M  V30 2389 C 229.206 1.80129 -0.725749 0
M  V30 2390 O 228.481 1.92624 0.269469 0
M  V30 2391 C 228.764 1.60442 -3.22382 0
M  V30 2392 C 228.617 0.666782 -4.4483 0
M  V30 2393 C 229.936 2.56354 -3.5773 0
M  V30 2394 H 227.055 0.305081 -0.670891 0
M  V30 2395 H 229.697 0.107839 -1.89694 0
M  V30 2396 H 227.847 2.23128 -3.18035 0
M  V30 2397 H 229.519 0.0497646 -4.61273 0
M  V30 2398 H 227.762 -0.022609 -4.33794 0
M  V30 2399 H 228.433 1.23579 -5.37989 0
M  V30 2400 H 230.909 2.0378 -3.62785 0
M  V30 2401 H 229.785 3.06657 -4.5525 0
M  V30 2402 H 230.046 3.38419 -2.84473 0
M  V30 2403 N 229.106 1.52395 0.401703 0
M  V30 2404 C 230.054 1.7689 1.51039 0
M  V30 2405 C 231.048 0.636298 1.56996 0
M  V30 2406 O 232.254 0.818507 1.60314 0
M  V30 2407 H 228.629 0.559502 0.502456 0
M  V30 2408 H 230.6 2.69757 1.27568 0
M  V30 2409 C 229.349 1.94331 2.88324 0
M  V30 2410 H 228.672 2.80905 2.84486 0
M  V30 2411 H 230.112 2.15466 3.65172 0
M  V30 2412 C 228.571 0.712396 3.29282 0
M  V30 2413 O 229.101 -0.116218 4.01532 0
M  V30 2414 N 227.307 0.546154 2.85422 0
M  V30 2415 H 226.854 1.22156 2.26794 0
M  V30 2416 H 226.812 -0.276113 3.13185 0
M  V30 2417 N 230.584 -0.659388 1.43143 0
M  V30 2418 C 232 -0.974337 1.26407 0
M  V30 2419 C 232.2 -2.007 0.179341 0
M  V30 2420 O 231.256 -2.4856 -0.444295 0
M  V30 2421 C 232.569 -1.46447 2.62628 0
M  V30 2422 C 234.117 -1.58144 2.7011 0
M  V30 2423 C 234.592 -2.1055 4.06734 0
M  V30 2424 N 236.083 -2.17861 4.08767 0
M  V30 2425 C 236.818 -2.59519 5.1131 0
M  V30 2426 N 236.314 -3.00518 6.24228 0
M  V30 2427 N 238.107 -2.59404 4.98664 0
M  V30 2428 H 230.258 0.0240528 2.12386 0
M  V30 2429 H 232.521 -0.0518065 0.946583 0
M  V30 2430 H 232.227 -0.780123 3.42939 0
M  V30 2431 H 232.101 -2.44058 2.87603 0
M  V30 2432 H 234.488 -2.25682 1.90136 0
M  V30 2433 H 234.569 -0.589828 2.48907 0
M  V30 2434 H 234.213 -1.43616 4.87172 0
M  V30 2435 H 234.143 -3.10531 4.25298 0
M  V30 2436 H 236.634 -1.88975 3.27257 0
M  V30 2437 H 236.947 -3.31036 6.98309 0
M  V30 2438 H 235.292 -2.98337 6.2771 0
M  V30 2439 H 238.483 -2.26747 4.09516 0
M  V30 2440 H 238.656 -2.91548 5.78709 0
M  V30 2441 N 232.062 -1.29571 -0.897171 0
M  V30 2442 C 233.308 -1.18873 -1.65048 0
M  V30 2443 C 233.663 0.256707 -1.9068 0
M  V30 2444 O 232.956 1.18202 -1.50794 0
M  V30 2445 C 233.15 -1.9382 -3.00281 0
M  V30 2446 C 232.979 -3.45503 -2.8785 0
M  V30 2447 C 231.749 -4.14856 -2.88483 0
M  V30 2448 C 233.947 -4.40956 -2.64693 0
M  V30 2449 N 231.929 -5.52886 -2.66815 0
M  V30 2450 C 233.3 -5.66464 -2.5203 0
M  V30 2451 C 235.355 -4.3069 -2.49821 0
M  V30 2452 C 234.058 -6.82871 -2.26008 0
M  V30 2453 C 236.084 -5.46852 -2.25182 0
M  V30 2454 C 235.446 -6.71333 -2.13286 0
M  V30 2455 H 231.545 -0.489998 -0.609447 0
M  V30 2456 H 234.129 -1.63431 -1.05822 0
M  V30 2457 H 232.3 -1.51671 -3.57562 0
M  V30 2458 H 234.032 -1.75366 -3.64731 0
M  V30 2459 H 230.787 -3.66579 -2.99861 0
M  V30 2460 H 231.211 -6.25487 -2.59027 0
M  V30 2461 H 235.853 -3.35141 -2.5776 0
M  V30 2462 H 233.571 -7.78473 -2.16806 0
M  V30 2463 H 237.157 -5.40809 -2.14515 0
M  V30 2464 H 236.037 -7.59701 -1.94485 0
M  V30 2465 N 233.54 1.10788 -1.12088 0
M  V30 2466 C 234.47 2.19083 -0.807755 0
M  V30 2467 C 235.451 1.6858 0.226859 0
M  V30 2468 O 236.636 1.93997 0.0888475 0
M  V30 2469 C 233.766 3.46344 -0.257576 0
M  V30 2470 C 232.72 4.101 -1.22483 0
M  V30 2471 C 232.046 5.32016 -0.535052 0
M  V30 2472 C 233.346 4.54236 -2.57811 0
M  V30 2473 H 235.04 2.45534 -1.71328 0
M  V30 2474 H 232.586 1.1801 -0.825205 0
M  V30 2475 H 234.539 4.21392 -0.0262679 0
M  V30 2476 H 233.263 3.19373 0.683278 0
M  V30 2477 H 231.922 3.37054 -1.44189 0
M  V30 2478 H 231.57 5.01319 0.410827 0
M  V30 2479 H 231.27 5.75625 -1.18024 0
M  V30 2480 H 232.794 6.09799 -0.312695 0
M  V30 2481 H 234.208 5.20575 -2.40155 0
M  V30 2482 H 232.605 5.08682 -3.18375 0
M  V30 2483 H 233.675 3.6734 -3.16528 0
M  V30 2484 N 235.018 0.912232 1.28515 0
M  V30 2485 C 236.243 0.559774 1.99703 0
M  V30 2486 C 236.668 -0.851393 1.67729 0
M  V30 2487 O 236.026 -1.56875 0.908834 0
M  V30 2488 C 236.074 0.773874 3.52198 0
M  V30 2489 O 235.178 -0.167842 4.12058 0
M  V30 2490 H 234.519 0.21723 0.627461 0
M  V30 2491 H 237.049 1.22725 1.63706 0
M  V30 2492 H 237.059 0.683386 4.02236 0
M  V30 2493 H 235.734 1.80261 3.74805 0
M  V30 2494 H 234.311 -0.0287509 3.72889 0
M  V30 2495 N 236.496 -1.42363 0.676048 0
M  V30 2496 C 237.724 -2.05859 0.207268 0
M  V30 2497 C 238.139 -1.50796 -1.13605 0
M  V30 2498 O 237.496 -0.648265 -1.70598 0
M  V30 2499 C 237.547 -3.61248 0.134975 0
M  V30 2500 O 237.268 -4.1427 1.42521 0
M  V30 2501 C 238.769 -4.41859 -0.357151 0
M  V30 2502 H 235.989 -0.663431 0.100503 0
M  V30 2503 H 238.533 -1.82479 0.923136 0
M  V30 2504 H 236.688 -3.83735 -0.531588 0
M  V30 2505 H 237.102 -5.0815 1.29939 0
M  V30 2506 H 238.576 -5.50847 -0.356641 0
M  V30 2507 H 239.053 -4.16536 -1.39264 0
M  V30 2508 H 239.659 -4.24392 0.27772 0
M  V30 2509 N 237.974 -0.419461 -1.51915 0
M  V30 2510 C 239.222 0.152637 -2.01523 0
M  V30 2511 C 239.543 1.44762 -1.30649 0
M  V30 2512 O 238.813 1.90997 -0.435535 0
M  V30 2513 H 237.393 0.0593966 -0.744635 0
M  V30 2514 H 240.055 -0.558073 -1.86739 0
M  V30 2515 H 239.151 0.341369 -3.10227 0
M  V30 2516 N 239.452 1.56882 -0.150215 0
M  V30 2517 C 240.385 2.12712 0.826358 0
M  V30 2518 C 241.363 1.05154 1.24022 0
M  V30 2519 O 242.547 1.33004 1.33575 0
M  V30 2520 C 239.674 2.64945 2.11002 0
M  V30 2521 C 238.72 3.8468 1.84183 0
M  V30 2522 S 239.553 5.25502 1.02995 0
M  V30 2523 C 240.709 5.81125 2.32474 0
M  V30 2524 H 240.942 2.95214 0.351598 0
M  V30 2525 H 238.475 1.54267 0.0641211 0
M  V30 2526 H 240.433 2.95689 2.84742 0
M  V30 2527 H 239.094 1.82568 2.55593 0
M  V30 2528 H 238.287 4.19482 2.79375 0
M  V30 2529 H 237.889 3.54714 1.1855 0
M  V30 2530 H 240.181 5.92753 3.281 0
M  V30 2531 H 241.124 6.78625 2.02171 0
M  V30 2532 H 241.532 5.09392 2.43269 0
M  V30 2533 N 240.93 -0.123565 1.57115 0
M  V30 2534 C 241.86 -1.15309 2.03042 0
M  V30 2535 C 242.841 -1.43454 0.914061 0
M  V30 2536 O 244.026 -1.53973 1.18347 0
M  V30 2537 C 241.156 -2.48043 2.43089 0
M  V30 2538 C 240.11 -2.3437 3.58127 0
M  V30 2539 C 239.436 -3.72026 3.84059 0
M  V30 2540 C 240.736 -1.80804 4.90007 0
M  V30 2541 H 242.43 -0.771102 2.893 0
M  V30 2542 H 239.976 -0.369479 1.39179 0
M  V30 2543 H 241.929 -3.20311 2.73823 0
M  V30 2544 H 240.653 -2.88122 1.53796 0
M  V30 2545 H 239.312 -1.64551 3.27595 0
M  V30 2546 H 238.96 -4.09582 2.91979 0
M  V30 2547 H 238.66 -3.63732 4.6149 0
M  V30 2548 H 240.184 -4.45806 4.1724 0
M  V30 2549 H 241.598 -2.42886 5.19307 0
M  V30 2550 H 239.995 -1.83343 5.71407 0
M  V30 2551 H 241.065 -0.76528 4.78823 0
M  V30 2552 N 242.408 -1.52605 -0.393616 0
M  V30 2553 C 243.648 -1.6911 -1.1481 0
M  V30 2554 C 244.012 -0.41969 -1.87357 0
M  V30 2555 O 245.213 -0.461034 -2.64817 0
M  V30 2556 C 243.484 -2.88909 -2.10395 0
M  V30 2557 S 245.043 -3.25977 -2.93742 0
M  V30 2558 H 241.861 -0.595337 -0.38871 0
M  V30 2559 H 244.463 -1.90641 -0.433178 0
M  V30 2560 H 243.167 -3.79672 -1.55812 0
M  V30 2561 H 242.698 -2.69698 -2.86403 0
M  V30 2562 H 244.713 -2.75806 -4.12487 0
M  V30 2563 N 243.887 0.651787 -1.4349 0
M  V30 2564 C 244.85 1.74647 -1.48429 0
M  V30 2565 C 245.85 1.56513 -0.368817 0
M  V30 2566 O 247.04 1.62385 -0.630623 0
M  V30 2567 C 244.172 3.13533 -1.33827 0
M  V30 2568 H 245.365 1.71649 -2.4592 0
M  V30 2569 H 242.918 0.863573 -1.30277 0
M  V30 2570 H 243.653 3.22142 -0.37349 0
M  V30 2571 H 243.438 3.28101 -2.14691 0
M  V30 2572 H 244.928 3.93356 -1.40218 0
M  V30 2573 N 245.365 1.30045 0.890287 0
M  V30 2574 C 246.59 1.21598 1.68014 0
M  V30 2575 C 247.015 -0.218678 1.86825 0
M  V30 2576 O 246.373 -1.15756 1.39536 0
M  V30 2577 C 246.421 1.94434 3.03691 0
M  V30 2578 O 245.525 1.2678 3.92429 0
M  V30 2579 H 244.866 0.420856 0.513592 0
M  V30 2580 H 247.396 1.71775 1.11151 0
M  V30 2581 H 247.406 2.03251 3.5377 0
M  V30 2582 H 246.081 2.98777 2.89318 0
M  V30 2583 H 244.658 1.26282 3.50866 0
M  V30 2584 N 246.843 -1.10192 1.12674 0
M  V30 2585 C 248.091 -1.81845 0.881861 0
M  V30 2586 C 248.412 -1.85737 -0.593867 0
M  V30 2587 O 247.682 -1.33724 -1.4316 0
M  V30 2588 H 246.262 -0.673432 0.323261 0
M  V30 2589 H 248.924 -1.33316 1.42172 0
M  V30 2590 H 248.02 -2.85288 1.2656 0
M  V30 2591 N 248.321 -0.919034 -1.28029 0
M  V30 2592 C 249.284 -0.416182 -2.2539 0
M  V30 2593 C 250.284 0.460438 -1.54067 0
M  V30 2594 O 251.474 0.262744 -1.72207 0
M  V30 2595 C 248.606 0.402707 -3.38513 0
M  V30 2596 H 249.799 -1.27629 -2.71387 0
M  V30 2597 H 247.352 -0.698919 -1.39803 0
M  V30 2598 H 248.087 1.282 -2.97885 0
M  V30 2599 H 247.872 -0.225698 -3.9145 0
M  V30 2600 H 249.362 0.745191 -4.10897 0
M  V30 2601 N 249.799 1.42003 -0.683588 0
M  V30 2602 C 251.024 2.06265 -0.216647 0
M  V30 2603 C 251.449 1.51059 1.12083 0
M  V30 2604 O 250.807 0.632638 1.69904 0
M  V30 2605 C 250.855 3.60191 -0.171759 0
M  V30 2606 O 249.959 4.03396 0.857069 0
M  V30 2607 H 249.3 0.65502 -0.108834 0
M  V30 2608 H 251.83 1.81982 -0.935077 0
M  V30 2609 H 251.84 4.08 0.0014303 0
M  V30 2610 H 250.515 3.99743 -1.14796 0
M  V30 2611 H 249.092 3.67117 0.654208 0
M  V30 2612 N 251.277 0.427512 1.51691 0
M  V30 2613 C 252.225 -0.403359 2.29076 0
M  V30 2614 C 253.219 -1.02962 1.34518 0
M  V30 2615 O 254.425 -0.965715 1.51901 0
M  V30 2616 H 250.8 -0.148879 0.737115 0
M  V30 2617 H 252.771 0.270295 2.97173 0
M  V30 2618 C 251.52 -1.49763 3.13794 0
M  V30 2619 H 250.843 -1.02508 3.86435 0
M  V30 2620 H 252.283 -2.05244 3.71014 0
M  V30 2621 C 250.742 -2.47536 2.28533 0
M  V30 2622 O 251.272 -3.51848 1.93819 0
M  V30 2623 N 249.478 -2.18187 1.91945 0
M  V30 2624 H 249.025 -1.33389 2.20375 0
M  V30 2625 H 248.983 -2.83848 1.35195 0
M  V30 2626 N 252.755 -1.56801 0.158532 0
M  V30 2627 C 253.665 -2.20916 -0.789518 0
M  V30 2628 C 254.681 -1.1969 -1.26294 0
M  V30 2629 O 255.857 -1.52308 -1.31773 0
M  V30 2630 C 252.922 -2.82727 -2.00665 0
M  V30 2631 C 251.983 -3.99114 -1.58134 0
M  V30 2632 C 251.216 -4.57968 -2.74045 0
M  V30 2633 O 251.439 -4.15704 -3.90572 0
M  V30 2634 O 250.373 -5.48047 -2.48855 0
M  V30 2635 H 254.199 -3.02464 -0.273681 0
M  V30 2636 H 251.784 -1.4924 -0.0690548 0
M  V30 2637 H 253.666 -3.21968 -2.71872 0
M  V30 2638 H 252.341 -2.04184 -2.51179 0
M  V30 2639 H 251.248 -3.64567 -0.839155 0
M  V30 2640 H 252.581 -4.79212 -1.12325 0
M  V30 2641 N 254.233 0.115231 -1.57178 0
M  V30 2642 C 255.461 0.836437 -1.89239 0
M  V30 2643 C 255.876 1.73256 -0.750175 0
M  V30 2644 O 255.233 1.80357 0.278832 0
M  V30 2645 C 255.284 1.66671 -3.20785 0
M  V30 2646 O 255.005 0.806652 -4.3061 0
M  V30 2647 C 256.506 2.49274 -3.66575 0
M  V30 2648 H 253.726 0.240253 -0.626514 0
M  V30 2649 H 256.27 0.0984932 -2.04263 0
M  V30 2650 H 254.425 2.35737 -3.0742 0
M  V30 2651 H 254.839 1.37969 -5.06028 0
M  V30 2652 H 256.313 3.03055 -4.6137 0
M  V30 2653 H 256.79 3.26807 -2.93417 0
M  V30 2654 H 257.396 1.85443 -3.82741 0
M  V30 2655 N 255.711 1.52812 0.385517 0
M  V30 2656 C 256.959 1.67694 1.12797 0
M  V30 2657 C 257.28 0.421115 1.90399 0
M  V30 2658 O 256.55 -0.564551 1.87589 0
M  V30 2659 H 255.13 0.618155 0.419396 0
M  V30 2660 H 257.792 1.89938 0.436972 0
M  V30 2661 H 256.888 2.52896 1.82894 0
M  V30 2662 N 257.189 -0.644168 1.43834 0
M  V30 2663 C 258.122 -1.76906 1.44151 0
M  V30 2664 C 259.1 -1.59774 0.301857 0
M  V30 2665 O 260.284 -1.81834 0.496841 0
M  V30 2666 C 257.411 -3.14321 1.26174 0
M  V30 2667 C 256.457 -3.50134 2.43533 0
M  V30 2668 S 257.29 -3.49085 4.06079 0
M  V30 2669 C 258.446 -4.89142 3.90501 0
M  V30 2670 H 258.679 -1.76368 2.39336 0
M  V30 2671 H 256.212 -0.817624 1.30974 0
M  V30 2672 H 258.17 -3.93625 1.16489 0
M  V30 2673 H 256.831 -3.12412 0.325224 0
M  V30 2674 H 256.024 -4.50095 2.26783 0
M  V30 2675 H 255.626 -2.78264 2.4989 0
M  V30 2676 H 257.918 -5.78036 3.53385 0
M  V30 2677 H 258.861 -5.10945 4.90246 0
M  V30 2678 H 259.269 -4.63102 3.22795 0
M  V30 2679 N 258.668 -1.30515 -0.883378 0
M  V30 2680 C 259.598 -1.19607 -2.00541 0
M  V30 2681 C 260.579 -0.086346 -1.69881 0
M  V30 2682 O 261.764 -0.268654 -1.92333 0
M  V30 2683 C 258.894 -0.888758 -3.35736 0
M  V30 2684 C 257.848 -1.95659 -3.8066 0
M  V30 2685 C 257.174 -1.50224 -5.13164 0
M  V30 2686 C 258.474 -3.36788 -3.99213 0
M  V30 2687 H 260.168 -2.13476 -2.09925 0
M  V30 2688 H 257.714 -1.02775 -1.00863 0
M  V30 2689 H 259.667 -0.799094 -4.13754 0
M  V30 2690 H 258.391 0.0856125 -3.26488 0
M  V30 2691 H 257.05 -2.03591 -3.04871 0
M  V30 2692 H 256.698 -0.516092 -5.00345 0
M  V30 2693 H 256.398 -2.2165 -5.44192 0
M  V30 2694 H 257.922 -1.42639 -5.93706 0
M  V30 2695 H 259.336 -3.31605 -4.67665 0
M  V30 2696 H 257.733 -4.06314 -4.41621 0
M  V30 2697 H 258.803 -3.78561 -3.03017 0
M  V30 2698 N 260.146 1.09593 -1.13257 0
M  V30 2699 C 261.374 1.855 -0.916378 0
M  V30 2700 C 261.789 1.81069 0.534738 0
M  V30 2701 O 261.146 1.20562 1.37007 0
M  V30 2702 C 261.197 3.33546 -1.39388 0
M  V30 2703 O 260.918 3.37927 -2.78813 0
M  V30 2704 C 262.419 4.26299 -1.21588 0
M  V30 2705 H 259.639 0.585991 -0.326887 0
M  V30 2706 H 262.183 1.38488 -1.5047 0
M  V30 2707 H 260.338 3.77992 -0.848597 0
M  V30 2708 H 260.752 4.30254 -2.9997 0
M  V30 2709 H 262.226 5.28341 -1.59876 0
M  V30 2710 H 262.703 4.38918 -0.157376 0
M  V30 2711 H 263.309 3.87668 -1.7491 0
M  V30 2712 N 261.624 0.925811 1.2754 0
M  V30 2713 C 262.556 0.380753 2.26015 0
M  V30 2714 C 263.569 -0.487485 1.5533 0
M  V30 2715 O 264.758 -0.300413 1.75954 0
M  V30 2716 C 261.858 -0.473259 3.35579 0
M  V30 2717 C 261.031 0.375249 4.35787 0
M  V30 2718 C 260.09 -0.415809 5.24555 0
M  V30 2719 O 259.116 0.175834 5.68928 0
M  V30 2720 N 260.318 -1.71607 5.54555 0
M  V30 2721 H 263.083 1.22725 2.73421 0
M  V30 2722 H 260.644 0.793037 1.41147 0
M  V30 2723 H 262.636 -1.00949 3.91907 0
M  V30 2724 H 261.206 -1.2205 2.87789 0
M  V30 2725 H 260.426 1.09279 3.7875 0
M  V30 2726 H 261.714 0.955399 4.99749 0
M  V30 2727 H 261.112 -2.2191 5.20358 0
M  V30 2728 H 259.669 -2.19887 6.1359 0
M  V30 2729 N 263.102 -1.41638 0.69111 0
M  V30 2730 C 264.049 -2.30789 0.0229705 0
M  V30 2731 C 265.019 -1.46863 -0.775911 0
M  V30 2732 O 266.204 -1.75661 -0.74485 0
M  V30 2733 C 263.344 -3.32868 -0.910666 0
M  V30 2734 C 262.457 -4.31875 -0.103874 0
M  V30 2735 C 261.592 -5.21024 -1.03475 0
M  V30 2736 C 260.631 -6.11702 -0.220598 0
M  V30 2737 N 259.768 -6.93349 -1.10504 0
M  V30 2738 H 264.608 -2.87366 0.788978 0
M  V30 2739 H 262.145 -1.41535 0.400794 0
M  V30 2740 H 264.103 -3.90596 -1.46597 0
M  V30 2741 H 262.733 -2.77851 -1.64312 0
M  V30 2742 H 261.785 -3.76131 0.568285 0
M  V30 2743 H 263.097 -4.96003 0.527504 0
M  V30 2744 H 262.251 -5.83565 -1.65943 0
M  V30 2745 H 260.99 -4.57112 -1.69999 0
M  V30 2746 H 259.995 -5.48215 0.417187 0
M  V30 2747 H 261.22 -6.77668 0.440784 0
M  V30 2748 H 259.166 -6.3205 -1.75638 0
M  V30 2749 H 259.083 -7.54146 -0.529125 0
M  V30 2750 H 260.351 -7.60362 -1.71667 0
M  V30 2751 N 264.58 -0.43555 -1.51462 0
M  V30 2752 C 265.827 0.131514 -2.02072 0
M  V30 2753 C 266.155 1.42868 -1.31981 0
M  V30 2754 O 265.41 1.91076 -0.422883 0
M  V30 2755 C 265.709 0.39942 -3.55161 0
M  V30 2756 C 265.375 -0.81172 -4.43533 0
M  V30 2757 C 264.037 -1.14387 -4.67407 0
M  V30 2758 C 266.389 -1.61976 -4.95392 0
M  V30 2759 C 263.717 -2.28477 -5.40384 0
M  V30 2760 C 266.069 -2.75164 -5.6962 0
M  V30 2761 C 264.733 -3.08835 -5.91758 0
M  V30 2762 H 264.003 0.0481244 -0.739436 0
M  V30 2763 H 266.65 -0.58238 -1.8243 0
M  V30 2764 H 264.955 1.19519 -3.73125 0
M  V30 2765 H 266.652 0.85157 -3.91854 0
M  V30 2766 H 263.242 -0.542898 -4.25148 0
M  V30 2767 H 267.426 -1.37637 -4.76833 0
M  V30 2768 H 262.682 -2.5488 -5.55739 0
M  V30 2769 H 266.856 -3.38147 -6.08793 0
M  V30 2770 H 264.483 -3.97353 -6.48086 0
M  V30 2771 N 266.058 1.56714 -0.166846 0
M  V30 2772 C 267.021 2.16539 0.751232 0
M  V30 2773 C 268.021 1.11228 1.16125 0
M  V30 2774 O 269.211 1.36765 1.07894 0
M  V30 2775 C 266.343 2.74462 2.02196 0
M  V30 2776 H 267.536 2.99013 0.230499 0
M  V30 2777 H 265.089 1.56081 0.0826982 0
M  V30 2778 H 265.824 1.95709 2.58589 0
M  V30 2779 H 265.609 3.51527 1.73698 0
M  V30 2780 H 267.099 3.20489 2.67725 0
M  V30 2781 N 267.536 -0.106894 1.57237 0
M  V30 2782 C 268.952 -0.46078 1.52804 0
M  V30 2783 C 269.152 -1.81184 0.881746 0
M  V30 2784 O 268.208 -2.48102 0.469224 0
M  V30 2785 C 269.521 -0.434127 2.9755 0
M  V30 2786 C 271.069 -0.516821 3.08704 0
M  V30 2787 C 271.544 -0.520436 4.55033 0
M  V30 2788 N 273.035 -0.58153 4.59535 0
M  V30 2789 C 273.77 -0.605973 5.70189 0
M  V30 2790 N 273.266 -0.587331 6.90306 0
M  V30 2791 N 275.059 -0.649895 5.5833 0
M  V30 2792 H 267.21 0.778203 1.9763 0
M  V30 2793 H 269.473 0.288403 0.903066 0
M  V30 2794 H 269.179 0.491197 3.48253 0
M  V30 2795 H 269.053 -1.25748 3.55622 0
M  V30 2796 H 271.44 -1.43256 2.57995 0
M  V30 2797 H 271.521 0.334449 2.53604 0
M  V30 2798 H 271.165 0.391313 5.0639 0
M  V30 2799 H 271.095 -1.38876 5.07958 0
M  V30 2800 H 273.586 -0.60161 3.73081 0
M  V30 2801 H 273.899 -0.60894 7.70397 0
M  V30 2802 H 272.244 -0.554564 6.92784 0
M  V30 2803 H 275.435 -0.661907 4.63397 0
M  V30 2804 H 275.608 -0.665476 6.44574 0
M  V30 2805 N 269.014 -1.53014 -0.377408 0
M  V30 2806 C 270.239 -1.72818 -1.14668 0
M  V30 2807 C 270.664 -0.450725 -1.8262 0
M  V30 2808 O 270.022 0.59439 -1.7128 0
M  V30 2809 C 270.07 -2.88627 -2.16164 0
M  V30 2810 O 269.174 -2.56409 -3.22998 0
M  V30 2811 H 268.515 -0.574301 -0.333278 0
M  V30 2812 H 271.045 -1.99853 -0.438152 0
M  V30 2813 H 271.055 -3.14455 -2.59966 0
M  V30 2814 H 269.73 -3.81294 -1.66095 0
M  V30 2815 H 268.307 -2.4136 -2.84253 0
M  V30 2816 N 270.492 0.636531 -1.44174 0
M  V30 2817 C 271.422 1.76003 -1.53444 0
M  V30 2818 C 272.403 1.65619 -0.387841 0
M  V30 2819 O 273.588 1.84461 -0.607257 0
M  V30 2820 C 270.718 3.14511 -1.4731 0
M  V30 2821 C 269.672 3.39677 -2.60391 0
M  V30 2822 C 268.998 4.78159 -2.39308 0
M  V30 2823 C 270.298 3.32772 -4.02567 0
M  V30 2824 H 271.992 1.68501 -2.47483 0
M  V30 2825 H 269.538 0.809237 -1.19111 0
M  V30 2826 H 271.491 3.92878 -1.52397 0
M  V30 2827 H 270.215 3.22783 -0.49785 0
M  V30 2828 H 268.874 2.63688 -2.54684 0
M  V30 2829 H 268.522 4.83128 -1.39988 0
M  V30 2830 H 268.222 4.95956 -3.15122 0
M  V30 2831 H 269.746 5.58762 -2.46205 0
M  V30 2832 H 271.16 4.01051 -4.09672 0
M  V30 2833 H 269.557 3.62104 -4.7854 0
M  V30 2834 H 270.627 2.30669 -4.2652 0
M  V30 2835 N 271.97 1.30982 0.876444 0
M  V30 2836 C 273.218 1.20058 1.62575 0
M  V30 2837 C 273.539 -0.242947 1.93481 0
M  V30 2838 O 272.809 -1.1619 1.57724 0
M  V30 2839 H 271.389 0.44135 0.602677 0
M  V30 2840 H 274.051 1.64222 1.04962 0
M  V30 2841 H 273.147 1.76762 2.57219 0
M  V30 2842 N 273.449 -1.08991 1.13837 0
M  V30 2843 C 274.382 -2.15049 0.763477 0
M  V30 2844 C 275.36 -1.60629 -0.252398 0
M  V30 2845 O 276.544 -1.87958 -0.142853 0
M  V30 2846 C 273.671 -3.38441 0.132545 0
M  V30 2847 C 272.717 -4.11596 1.11763 0
M  V30 2848 S 273.55 -4.6521 2.65216 0
M  V30 2849 C 274.706 -5.91896 2.03495 0
M  V30 2850 H 274.939 -2.46518 1.66182 0
M  V30 2851 H 272.472 -1.21008 0.958976 0
M  V30 2852 H 274.43 -4.09883 -0.225074 0
M  V30 2853 H 273.091 -3.05182 -0.743135 0
M  V30 2854 H 272.284 -5.00121 0.624076 0
M  V30 2855 H 271.886 -3.46038 1.41894 0
M  V30 2856 H 274.178 -6.63156 1.38675 0
M  V30 2857 H 275.121 -6.45938 2.9012 0
M  V30 2858 H 275.529 -5.44625 1.48471 0
M  V30 2859 N 274.927 -0.932562 -1.27047 0
M  V30 2860 C 275.857 -0.452902 -2.29066 0
M  V30 2861 C 276.838 0.489338 -1.62909 0
M  V30 2862 O 278.023 0.393046 -1.90181 0
M  V30 2863 C 275.153 0.290698 -3.46081 0
M  V30 2864 C 274.107 -0.564168 -4.24265 0
M  V30 2865 C 273.433 0.308886 -5.33807 0
M  V30 2866 C 274.733 -1.83112 -4.89149 0
M  V30 2867 H 276.427 -1.30552 -2.69437 0
M  V30 2868 H 273.973 -0.629201 -1.29526 0
M  V30 2869 H 275.926 0.637233 -4.16554 0
M  V30 2870 H 274.65 1.17738 -3.0464 0
M  V30 2871 H 273.309 -0.893477 -3.55545 0
M  V30 2872 H 272.957 1.19467 -4.88607 0
M  V30 2873 H 272.657 -0.259633 -5.87026 0
M  V30 2874 H 274.181 0.650884 -6.07121 0
M  V30 2875 H 275.595 -1.55236 -5.51883 0
M  V30 2876 H 273.992 -2.34353 -5.52448 0
M  V30 2877 H 275.062 -2.54772 -4.12576 0
M  V30 2878 N 276.405 1.4127 -0.698611 0
M  V30 2879 C 277.368 2.29158 -0.044132 0
M  V30 2880 C 278.368 1.44529 0.704841 0
M  V30 2881 O 279.558 1.65643 0.539276 0
M  V30 2882 C 276.69 3.27459 0.947809 0
M  V30 2883 H 277.883 2.88529 -0.817994 0
M  V30 2884 H 275.436 1.49307 -0.46228 0
M  V30 2885 H 276.171 2.73073 1.74933 0
M  V30 2886 H 275.956 3.8991 0.41385 0
M  V30 2887 H 277.446 3.93311 1.40344 0
M  V30 2888 N 277.883 0.443576 1.51229 0
M  V30 2889 C 279.129 -0.120975 2.02439 0
M  V30 2890 C 279.462 -1.41815 1.32674 0
M  V30 2891 O 278.737 -1.89373 0.443622 0
M  V30 2892 C 279.02 -0.333291 3.58554 0
M  V30 2893 C 278.873 0.982968 4.38928 0
M  V30 2894 C 280.192 -1.10028 4.26124 0
M  V30 2895 H 277.311 -0.0424923 0.735774 0
M  V30 2896 H 279.953 0.583794 1.80809 0
M  V30 2897 H 278.103 -0.933614 3.77115 0
M  V30 2898 H 279.775 1.61775 4.32003 0
M  V30 2899 H 278.018 1.58611 4.03763 0
M  V30 2900 H 278.689 0.788379 5.46341 0
M  V30 2901 H 281.165 -0.591711 4.11871 0
M  V30 2902 H 280.041 -1.21761 5.35225 0
M  V30 2903 H 280.302 -2.12996 3.87408 0
M  V30 2904 N 279.361 -1.56624 0.175154 0
M  V30 2905 C 280.638 -1.88688 -0.515373 0
M  V30 2906 C 281.018 -1.08564 -1.81044 0
M  V30 2907 O 280.366 -0.180703 -2.27784 0
M  V30 2908 C 280.576 -3.40768 -0.753552 0
M  V30 2909 C 281.924 -4.10587 -1.08184 0
M  V30 2910 O 282.948 -3.46106 -0.841961 0
M  V30 2911 O 281.807 -5.24512 -1.53459 0
M  V30 2912 H 278.901 -0.78301 -0.26613 0
M  V30 2913 H 281.447 -1.68347 0.213877 0
M  V30 2914 H 280.219 -3.90965 0.161829 0
M  V30 2915 H 279.842 -3.66733 -1.53598 0
M  V30 2916 N 280.839 0.0985539 -1.57292 0
M  V30 2917 C 281.787 1.1387 -2.02821 0
M  V30 2918 C 282.781 1.41676 -0.928666 0
M  V30 2919 O 283.987 1.41398 -1.11385 0
M  V30 2920 H 280.362 0.384419 -0.646317 0
M  V30 2921 H 282.333 0.728347 -2.89375 0
M  V30 2922 C 281.082 2.45166 -2.46554 0
M  V30 2923 H 280.405 2.24613 -3.3074 0
M  V30 2924 H 281.845 3.16456 -2.8219 0
M  V30 2925 C 280.304 3.09216 -1.33742 0
M  V30 2926 O 280.834 3.96163 -0.66464 0
M  V30 2927 N 279.04 2.69413 -1.08928 0
M  V30 2928 H 278.587 1.98801 -1.63817 0
M  V30 2929 H 278.545 3.12594 -0.336458 0
M  V30 2930 N 282.317 1.53212 0.369288 0
M  V30 2931 C 283.249 1.75668 1.47219 0
M  V30 2932 C 284.262 0.637387 1.49804 0
M  V30 2933 O 285.451 0.913561 1.5335 0
M  V30 2934 C 282.551 1.81818 2.85999 0
M  V30 2935 C 281.724 3.11409 3.07153 0
M  V30 2936 C 280.783 3.08849 4.26026 0
M  V30 2937 O 279.809 3.82659 4.2138 0
M  V30 2938 N 281.011 2.29409 5.33246 0
M  V30 2939 H 283.776 2.70832 1.28337 0
M  V30 2940 H 281.337 1.51944 0.55898 0
M  V30 2941 H 283.329 1.77588 3.63655 0
M  V30 2942 H 281.899 0.939544 2.98146 0
M  V30 2943 H 281.119 3.28971 2.1719 0
M  V30 2944 H 282.407 3.97059 3.18154 0
M  V30 2945 H 281.805 1.68946 5.39883 0
M  V30 2946 H 280.362 2.31001 6.09493 0
M  V30 2947 N 283.795 -0.628877 1.44509 0
M  V30 2948 C 284.758 -1.72263 1.51188 0
M  V30 2949 C 285.758 -1.55907 0.39367 0
M  V30 2950 O 286.948 -1.61361 0.656377 0
M  V30 2951 C 284.08 -3.11365 1.38798 0
M  V30 2952 H 285.273 -1.67714 2.4862 0
M  V30 2953 H 282.826 -0.842737 1.31634 0
M  V30 2954 H 283.561 -3.21507 0.424693 0
M  V30 2955 H 283.346 -3.24644 2.19884 0
M  V30 2956 H 284.836 -3.91075 1.46458 0
M  V30 2957 N 285.273 -1.31445 -0.869486 0
M  V30 2958 C 286.689 -1.10113 -1.15531 0
M  V30 2959 C 286.889 0.128087 -2.01092 0
M  V30 2960 O 285.945 0.817276 -2.38908 0
M  V30 2961 C 287.258 -2.37291 -1.84698 0
M  V30 2962 C 288.806 -2.42906 -1.97397 0
M  V30 2963 C 289.281 -3.69967 -2.69979 0
M  V30 2964 N 290.772 -3.70864 -2.77514 0
M  V30 2965 C 291.507 -4.65875 -3.34287 0
M  V30 2966 N 291.003 -5.71242 -3.91988 0
M  V30 2967 N 292.796 -4.53394 -3.3225 0
M  V30 2968 H 284.947 -2.1028 -0.299347 0
M  V30 2969 H 287.21 -0.927683 -0.195214 0
M  V30 2970 H 286.916 -3.27078 -1.29278 0
M  V30 2971 H 286.79 -2.47125 -2.84972 0
M  V30 2972 H 289.177 -1.53588 -2.51982 0
M  V30 2973 H 289.258 -2.37036 -0.961643 0
M  V30 2974 H 288.902 -4.59652 -2.16062 0
M  V30 2975 H 288.832 -3.73103 -3.7162 0
M  V30 2976 H 291.323 -2.94697 -2.36563 0
M  V30 2977 H 291.636 -6.39817 -4.33421 0
M  V30 2978 H 289.981 -5.75015 -3.90362 0
M  V30 2979 H 293.172 -3.70252 -2.8641 0
M  V30 2980 H 293.345 -5.27617 -3.76197 0
M  V30 2981 N 286.751 1.08385 -1.14413 0
M  V30 2982 C 287.997 1.81044 -0.913834 0
M  V30 2983 C 288.33 1.86004 0.558209 0
M  V30 2984 O 287.605 1.33606 1.4135 0
M  V30 2985 C 287.888 3.26648 -1.51569 0
M  V30 2986 C 287.741 3.29895 -3.0576 0
M  V30 2987 C 289.06 4.23629 -1.19273 0
M  V30 2988 H 286.179 0.65727 -0.333414 0
M  V30 2989 H 288.821 1.26896 -1.41412 0
M  V30 2990 H 286.971 3.72889 -1.09023 0
M  V30 2991 H 288.643 2.91977 -3.57137 0
M  V30 2992 H 286.886 2.69163 -3.40197 0
M  V30 2993 H 287.557 4.32516 -3.42977 0
M  V30 2994 H 290.033 3.85727 -1.56057 0
M  V30 2995 H 288.909 5.23822 -1.64017 0
M  V30 2996 H 289.17 4.41968 -0.108068 0
M  V30 2997 N 288.23 0.939286 1.26551 0
M  V30 2998 C 289.47 0.5933 1.956 0
M  V30 2999 C 289.834 -0.851515 1.72085 0
M  V30 3000 O 291.035 -1.30634 2.34921 0
M  V30 3001 C 289.306 0.923996 3.45249 0
M  V30 3002 Se 290.865 0.688269 4.33369 0
M  V30 3003 H 287.683 0.218591 0.676564 0
M  V30 3004 H 290.285 1.2102 1.5354 0
M  V30 3005 H 288.989 1.97297 3.59864 0
M  V30 3006 H 288.52 0.296746 3.92279 0
M  V30 3007 H 290.535 -0.448434 4.9417 0
M  V30 3008 N 289.708 -1.40897 0.706093 0
M  V30 3009 C 290.658 -2.27987 0.0240746 0
M  V30 3010 C 291.642 -1.42759 -0.742204 0
M  V30 3011 O 292.834 -1.65936 -0.615966 0
M  V30 3012 C 289.963 -3.31186 -0.903907 0
M  V30 3013 C 289.049 -4.2389 -0.133318 0
M  V30 3014 N 289.44 -4.98113 0.878444 0
M  V30 3015 C 287.738 -4.44485 -0.367269 0
M  V30 3016 C 288.439 -5.6604 1.34064 0
M  V30 3017 N 287.415 -5.39522 0.664565 0
M  V30 3018 H 291.217 -2.82812 0.799658 0
M  V30 3019 H 288.731 -1.53235 0.537845 0
M  V30 3020 H 290.728 -3.92413 -1.40775 0
M  V30 3021 H 289.388 -2.77922 -1.67897 0
M  V30 3022 H 290.399 -5.02364 1.25901 0
M  V30 3023 H 287.076 -4.02213 -1.1194 0
M  V30 3024 H 288.466 -6.35524 2.1808 0
M  V30 3025 N 291.186 -0.45159 -1.50991 0
M  V30 3026 C 292.434 0.109857 -2.01801 0
M  V30 3027 C 292.755 1.41958 -1.3369 0
M  V30 3028 O 292.025 1.9003 -0.475951 0
M  V30 3029 H 290.605 0.0435884 -0.745727 0
M  V30 3030 H 293.267 -0.597557 -1.85514 0
M  V30 3031 H 292.363 0.275489 -3.10882 0
M  V30 3032 N 292.664 1.56529 -0.183458 0
M  V30 3033 C 294.075 1.83739 0.331177 0
M  V30 3034 C 294.426 1.10373 1.62211 0
M  V30 3035 O 293.551 0.36071 2.13373 0
M  V30 3036 C 294.146 3.33306 0.607646 0
M  V30 3037 C 292.705 3.60969 1.06668 0
M  V30 3038 C 291.852 2.77086 0.109029 0
M  V30 3039 H 294.803 1.53379 -0.407484 0
M  V30 3040 H 294.824 3.51444 1.45832 0
M  V30 3041 H 294.336 3.86677 -0.332086 0
M  V30 3042 H 292.437 3.13021 2.0211 0
M  V30 3043 H 292.55 4.69231 0.967447 0
M  V30 3044 H 290.914 2.47319 0.608714 0
M  V30 3045 H 291.697 3.33241 -0.82494 0
M  V30 3046 N 294.142 -0.090211 1.57342 0
M  V30 3047 C 295.37 -0.806224 1.90546 0
M  V30 3048 C 295.785 -1.72041 0.777644 0
M  V30 3049 O 295.142 -1.80778 -0.250103 0
M  V30 3050 C 295.193 -1.61546 3.23396 0
M  V30 3051 O 294.914 -0.738043 4.31839 0
M  V30 3052 C 296.415 -2.4341 3.70495 0
M  V30 3053 H 293.635 -0.230256 0.630257 0
M  V30 3054 H 296.179 -0.0659843 2.04394 0
M  V30 3055 H 294.334 -2.30816 3.11131 0
M  V30 3056 H 294.748 -1.29901 5.08159 0
M  V30 3057 H 296.222 -2.95676 4.66133 0
M  V30 3058 H 296.699 -3.22098 2.98579 0
M  V30 3059 H 297.305 -1.79331 3.85643 0
M  V30 3060 N 295.62 -1.53406 -0.361157 0
M  V30 3061 C 296.866 -1.70054 -1.10496 0
M  V30 3062 C 297.199 -0.453278 -1.88836 0
M  V30 3063 O 296.474 0.5495 -1.86576 0
M  V30 3064 C 296.757 -2.95317 -2.06058 0
M  V30 3065 C 296.61 -4.3021 -1.31298 0
M  V30 3066 C 297.929 -3.16193 -3.06121 0
M  V30 3067 H 295.048 -0.618799 -0.400321 0
M  V30 3068 H 297.69 -1.86052 -0.385318 0
M  V30 3069 H 295.84 -2.81809 -2.67425 0
M  V30 3070 H 297.512 -4.55538 -0.726807 0
M  V30 3071 H 295.755 -4.29421 -0.614853 0
M  V30 3072 H 296.426 -5.14 -2.01265 0
M  V30 3073 H 298.902 -3.28916 -2.5486 0
M  V30 3074 H 297.778 -4.05266 -3.70204 0
M  V30 3075 H 298.039 -2.31676 -3.76535 0
M  V30 3076 N 297.098 0.621204 -1.44841 0
M  V30 3077 C 298.061 1.71459 -1.521 0
M  V30 3078 C 299.061 1.55696 -0.401933 0
M  V30 3079 O 300.251 1.61011 -0.664925 0
M  V30 3080 C 297.383 3.10624 -1.40447 0
M  V30 3081 H 298.576 1.66394 -2.49506 0
M  V30 3082 H 296.129 0.835745 -1.3208 0
M  V30 3083 H 296.864 3.21277 -0.441737 0
M  V30 3084 H 296.649 3.23473 -2.21602 0
M  V30 3085 H 298.139 3.90293 -1.4853 0
M  V30 3086 N 298.576 1.31904 0.862503 0
M  V30 3087 C 299.801 1.25135 1.65397 0
M  V30 3088 C 300.226 -0.179 1.87246 0
M  V30 3089 O 299.584 -1.1277 1.4196 0
M  V30 3090 C 299.632 2.00832 2.99498 0
M  V30 3091 O 298.736 1.35075 3.89652 0
M  V30 3092 H 298.077 0.431655 0.504549 0
M  V30 3093 H 300.607 1.74094 1.07483 0
M  V30 3094 H 300.617 2.10709 3.49379 0
M  V30 3095 H 299.292 3.04847 2.82916 0
M  V30 3096 H 297.869 1.33696 3.48109 0
M  V30 3097 N 300.054 -1.07777 1.14986 0
M  V30 3098 C 300.984 -2.16865 0.865557 0
M  V30 3099 C 301.965 -1.69123 -0.182083 0
M  V30 3100 O 303.15 -1.94164 -0.0373815 0
M  V30 3101 C 300.28 -3.45539 0.349313 0
M  V30 3102 C 299.234 -4.06708 1.33313 0
M  V30 3103 C 298.56 -5.30411 0.675918 0
M  V30 3104 C 299.86 -4.47241 2.69764 0
M  V30 3105 H 301.554 -2.40905 1.77778 0
M  V30 3106 H 299.1 -1.15781 0.856203 0
M  V30 3107 H 301.053 -4.21174 0.137983 0
M  V30 3108 H 299.777 -3.21072 -0.598362 0
M  V30 3109 H 298.436 -3.33112 1.53075 0
M  V30 3110 H 298.084 -5.02232 -0.277767 0
M  V30 3111 H 297.784 -5.72293 1.33244 0
M  V30 3112 H 299.308 -6.08755 0.474262 0
M  V30 3113 H 300.722 -5.14025 2.53873 0
M  V30 3114 H 299.119 -5.00062 3.3175 0
M  V30 3115 H 300.189 -3.58818 3.26156 0
M  V30 3116 N 301.532 -0.945985 -1.26051 0
M  V30 3117 C 302.495 -0.463897 -2.24456 0
M  V30 3118 C 303.495 0.427655 -1.55009 0
M  V30 3119 O 304.685 0.226157 -1.72726 0
M  V30 3120 C 301.817 0.330812 -3.39291 0
M  V30 3121 H 303.01 -1.33357 -2.68619 0
M  V30 3122 H 300.563 -0.728416 -1.38289 0
M  V30 3123 H 301.298 1.21852 -3.00537 0
M  V30 3124 H 301.083 -0.308679 -3.90883 0
M  V30 3125 H 302.573 0.657865 -4.12386 0
M  V30 3126 N 303.011 1.40521 -0.713556 0
M  V30 3127 C 304.422 1.83853 -0.324807 0
M  V30 3128 C 304.773 1.59667 1.14021 0
M  V30 3129 O 303.898 1.07649 1.87725 0
M  V30 3130 C 304.493 3.33751 -0.582746 0
M  V30 3131 C 303.052 3.75584 -0.247727 0
M  V30 3132 C 302.199 2.63753 -0.856121 0
M  V30 3133 H 305.15 1.29817 -0.91286 0
M  V30 3134 H 305.171 3.80194 0.152682 0
M  V30 3135 H 304.683 3.51322 -1.64908 0
M  V30 3136 H 302.784 3.63608 0.813624 0
M  V30 3137 H 302.897 4.7373 -0.715307 0
M  V30 3138 H 301.261 2.53108 -0.28432 0
M  V30 3139 H 302.044 2.84137 -1.92668 0
M  V30 3140 N 304.489 0.459591 1.5075 0
M  V30 3141 C 305.717 -0.0973749 2.06671 0
M  V30 3142 C 306.132 -1.34524 1.32472 0
M  V30 3143 O 305.489 -1.7827 0.390634 0
M  V30 3144 C 305.54 -0.39714 3.59312 0
M  V30 3145 O 305.261 0.801214 4.30711 0
M  V30 3146 C 306.762 -1.00234 4.31819 0
M  V30 3147 H 303.982 0.00195854 0.670997 0
M  V30 3148 H 306.526 0.645072 1.94059 0
M  V30 3149 H 304.681 -1.08951 3.71764 0
M  V30 3150 H 305.095 0.538857 5.21725 0
M  V30 3151 H 306.569 -1.16193 5.39632 0
M  V30 3152 H 307.046 -1.98939 3.91561 0
M  V30 3153 H 307.652 -0.348699 4.23868 0
M  V30 3154 N 305.967 -1.56429 0.191757 0
M  V30 3155 C 307.214 -1.97485 -0.447891 0
M  V30 3156 C 307.542 -1.07852 -1.61859 0
M  V30 3157 O 306.797 -0.116903 -1.95351 0
M  V30 3158 C 307.096 -3.44449 -0.953384 0
M  V30 3159 C 306.762 -4.50781 0.103586 0
M  V30 3160 C 305.424 -4.79584 0.394023 0
M  V30 3161 C 307.776 -5.1471 0.819946 0
M  V30 3162 C 305.104 -5.69607 1.40585 0
M  V30 3163 C 307.456 -6.05827 1.8209 0
M  V30 3164 C 306.12 -6.32987 2.11857 0
M  V30 3165 H 305.39 -0.722648 -0.163895 0
M  V30 3166 H 308.037 -1.89322 0.28802 0
M  V30 3167 H 306.342 -3.49666 -1.76751 0
M  V30 3168 H 308.039 -3.73569 -1.45765 0
M  V30 3169 H 304.629 -4.28394 -0.132951 0
M  V30 3170 H 308.813 -4.92552 0.608789 0
M  V30 3171 H 304.069 -5.88926 1.64243 0
M  V30 3172 H 308.243 -6.54424 2.38123 0
M  V30 3173 H 305.87 -7.02544 2.90407 0
M  V30 3174 N 307.445 0.0818655 -1.57387 0
M  V30 3175 C 308.693 0.781368 -1.86384 0
M  V30 3176 C 309.014 1.78618 -0.782342 0
M  V30 3177 O 308.284 1.94976 0.190061 0
M  V30 3178 H 306.864 0.291562 -0.687751 0
M  V30 3179 H 309.526 0.060348 -1.94807 0
M  V30 3180 H 308.622 1.3038 -2.83562 0
M  V30 3181 N 308.923 1.53595 0.353017 0
M  V30 3182 C 310.339 1.43648 0.695516 0
M  V30 3183 C 310.539 0.585617 1.92802 0
M  V30 3184 O 309.595 0.0729223 2.52395 0
M  V30 3185 C 310.908 2.8701 0.896991 0
M  V30 3186 C 312.456 2.96723 0.996209 0
M  V30 3187 C 312.931 4.41173 1.23007 0
M  V30 3188 N 314.422 4.44657 1.29749 0
M  V30 3189 C 315.157 5.53547 1.49577 0
M  V30 3190 N 314.653 6.72461 1.66639 0
M  V30 3191 N 316.446 5.41145 1.52048 0
M  V30 3192 H 308.597 2.07415 -0.457481 0
M  V30 3193 H 310.86 0.9372 -0.142687 0
M  V30 3194 H 310.566 3.51644 0.0629938 0
M  V30 3195 H 310.44 3.31401 1.80148 0
M  V30 3196 H 312.827 2.32235 1.82074 0
M  V30 3197 H 312.908 2.55707 0.0688331 0
M  V30 3198 H 312.552 5.06238 0.410505 0
M  V30 3199 H 312.482 4.79772 2.17086 0
M  V30 3200 H 314.973 3.58963 1.18126 0
M  V30 3201 H 315.286 7.51214 1.81378 0
M  V30 3202 H 313.631 6.75423 1.63794 0
M  V30 3203 H 316.822 4.47205 1.38294 0
M  V30 3204 H 316.995 6.26068 1.67159 0
M  V30 3205 N 310.401 -0.613514 1.45168 0
M  V30 3206 C 311.649 -1.36997 1.48581 0
M  V30 3207 C 311.97 -1.94589 0.126545 0
M  V30 3208 O 311.24 -1.76816 -0.843372 0
M  V30 3209 H 309.82 -0.508558 0.547154 0
M  V30 3210 H 312.482 -0.720853 1.81079 0
M  V30 3211 H 311.578 -2.1924 2.22127 0
M  V30 3212 N 311.879 -1.3236 -0.855495 0
M  V30 3213 C 312.842 -1.21164 -1.94556 0
M  V30 3214 C 313.842 -0.134908 -1.60233 0
M  V30 3215 O 315.032 -0.385249 -1.69887 0
M  V30 3216 C 312.164 -0.863192 -3.29791 0
M  V30 3217 H 313.357 -2.18038 -2.05911 0
M  V30 3218 H 310.91 -1.16179 -1.04557 0
M  V30 3219 H 311.645 0.103769 -3.24134 0
M  V30 3220 H 311.43 -1.64166 -3.56078 0
M  V30 3221 H 312.92 -0.809156 -4.09686 0
M  V30 3222 N 313.357 1.07166 -1.15556 0
M  V30 3223 C 314.29 2.13808 -0.797593 0
M  V30 3224 C 315.268 1.6101 0.226812 0
M  V30 3225 O 316.452 1.88161 0.112932 0
M  V30 3226 C 313.579 3.38187 -0.186371 0
M  V30 3227 C 312.625 4.09766 -1.18297 0
M  V30 3228 S 313.458 4.60932 -2.72584 0
M  V30 3229 C 314.614 5.88583 -2.12886 0
M  V30 3230 H 314.847 2.43843 -1.70083 0
M  V30 3231 H 312.38 1.19467 -0.978106 0
M  V30 3232 H 314.338 4.10189 0.159837 0
M  V30 3233 H 312.999 3.06326 0.694489 0
M  V30 3234 H 312.192 4.99065 -0.703562 0
M  V30 3235 H 311.794 3.43736 -1.47381 0
M  V30 3236 H 314.086 6.60866 -1.49208 0
M  V30 3237 H 315.029 6.41241 -3.0036 0
M  V30 3238 H 315.437 5.42194 -1.57116 0
M  V30 3239 N 314.835 0.952656 1.25548 0
M  V30 3240 C 316.063 0.623496 1.97282 0
M  V30 3241 C 316.478 -0.803987 1.70826 0
M  V30 3242 O 315.835 -1.53755 0.983147 0
M  V30 3243 C 315.886 0.870209 3.5087 0
M  V30 3244 O 315.607 2.24156 3.76412 0
M  V30 3245 C 317.108 0.553164 4.39835 0
M  V30 3246 H 314.328 0.233931 0.628902 0
M  V30 3247 H 316.872 1.27649 1.59768 0
M  V30 3248 H 315.027 0.263652 3.86502 0
M  V30 3249 H 315.441 2.31021 4.70882 0
M  V30 3250 H 316.915 0.776342 5.46513 0
M  V30 3251 H 317.392 -0.512215 4.36203 0
M  V30 3252 H 317.998 1.13896 4.09766 0
M  V30 3253 N 316.313 -1.40141 0.720998 0
M  V30 3254 C 317.261 -2.3252 0.0608547 0
M  V30 3255 C 318.255 -1.52326 -0.741152 0
M  V30 3256 O 319.461 -1.68089 -0.643911 0
M  V30 3257 H 315.836 -0.751999 0.000876664 0
M  V30 3258 H 317.807 -2.8584 0.856614 0
M  V30 3259 C 316.556 -3.37331 -0.842809 0
M  V30 3260 H 315.879 -3.99108 -0.235084 0
M  V30 3261 H 317.319 -4.04452 -1.27257 0
M  V30 3262 C 315.778 -2.73246 -1.97074 0
M  V30 3263 O 316.308 -2.59998 -3.06209 0
M  V30 3264 N 314.514 -2.31547 -1.75597 0
M  V30 3265 H 314.061 -2.42522 -0.868368 0
M  V30 3266 H 314.019 -1.89007 -2.51244 0
M  V30 3267 N 317.792 -0.46758 -1.50504 0
M  V30 3268 C 318.742 0.34698 -2.25344 0
M  V30 3269 C 319.726 0.964469 -1.2879 0
M  V30 3270 O 320.918 0.8776 -1.53711 0
M  V30 3271 C 318.047 1.43042 -3.1208 0
M  V30 3272 C 317.133 0.82084 -4.16081 0
M  V30 3273 N 317.524 -0.0567602 -5.05768 0
M  V30 3274 C 315.822 1.08517 -4.32597 0
M  V30 3275 C 316.523 -0.402343 -5.80307 0
M  V30 3276 N 315.499 0.221607 -5.43148 0
M  V30 3277 H 319.301 -0.329129 -2.92051 0
M  V30 3278 H 316.815 -0.281508 -1.59942 0
M  V30 3279 H 318.812 2.02712 -3.64299 0
M  V30 3280 H 317.472 2.10856 -2.46921 0
M  V30 3281 H 318.483 -0.425349 -5.1615 0
M  V30 3282 H 315.16 1.75855 -3.78657 0
M  V30 3283 H 316.55 -1.11834 -6.62528 0
M  V30 3284 N 319.27 1.56325 -0.20005 0
M  V30 3285 C 320.516 1.98772 0.431408 0
M  V30 3286 C 320.871 1.0849 1.58895 0
M  V30 3287 O 320.164 0.130331 1.91156 0
M  V30 3288 C 320.358 3.4495 0.935103 0
M  V30 3289 C 320.187 4.49371 -0.172096 0
M  V30 3290 C 318.957 5.0134 -0.631377 0
M  V30 3291 C 321.155 5.04822 -0.982806 0
M  V30 3292 N 319.137 5.89433 -1.71588 0
M  V30 3293 C 320.508 5.89632 -1.91661 0
M  V30 3294 C 322.563 4.87242 -1.02467 0
M  V30 3295 C 321.266 6.58741 -2.88881 0
M  V30 3296 C 323.292 5.57094 -1.98494 0
M  V30 3297 C 322.654 6.41655 -2.90617 0
M  V30 3298 H 318.753 0.771922 0.125144 0
M  V30 3299 H 321.337 1.92266 -0.306883 0
M  V30 3300 H 319.508 3.51946 1.64282 0
M  V30 3301 H 321.24 3.74354 1.53758 0
M  V30 3302 H 317.995 4.73071 -0.223827 0
M  V30 3303 H 318.419 6.38182 -2.25948 0
M  V30 3304 H 323.061 4.21538 -0.326408 0
M  V30 3305 H 320.779 7.23641 -3.5968 0
M  V30 3306 H 324.365 5.45466 -2.0238 0
M  V30 3307 H 323.245 6.94755 -3.63711 0
M  V30 3308 N 320.748 -0.0735177 1.57428 0
M  V30 3309 C 321.994 -0.774145 1.87443 0
M  V30 3310 C 322.327 -1.77311 0.792103 0
M  V30 3311 O 321.602 -1.93492 -0.197793 0
M  V30 3312 C 321.885 -1.48367 3.28115 0
M  V30 3313 C 321.738 -0.501227 4.46999 0
M  V30 3314 C 323.057 -2.429 3.66998 0
M  V30 3315 H 320.176 -0.279971 0.681752 0
M  V30 3316 H 322.818 -0.0373616 1.89963 0
M  V30 3317 H 320.968 -2.11171 3.26097 0
M  V30 3318 H 322.64 0.121468 4.6114 0
M  V30 3319 H 320.883 0.183593 4.33411 0
M  V30 3320 H 321.554 -1.03526 5.42205 0
M  V30 3321 H 324.03 -1.90175 3.70098 0
M  V30 3322 H 322.906 -2.89549 4.66318 0
M  V30 3323 H 323.167 -3.27628 2.96837 0
M  V30 3324 N 322.226 -1.5378 -0.344866 0
M  V30 3325 C 323.503 -1.61589 -1.10219 0
M  V30 3326 C 323.883 -0.436316 -2.06542 0
M  V30 3327 O 323.231 0.571543 -2.21237 0
M  V30 3328 C 323.441 -2.97602 -1.82301 0
M  V30 3329 C 324.789 -3.5291 -2.36093 0
M  V30 3330 O 325.813 -2.99768 -1.924 0
M  V30 3331 O 324.672 -4.45859 -3.16026 0
M  V30 3332 H 321.766 -0.653522 -0.506792 0
M  V30 3333 H 324.312 -1.66126 -0.346465 0
M  V30 3334 H 323.084 -3.74893 -1.12121 0
M  V30 3335 H 322.707 -2.9665 -2.64735 0
M  V30 3336 N 323.704 0.605807 -1.45491 0
M  V30 3337 C 324.953 1.36086 -1.48874 0
M  V30 3338 C 325.266 1.95131 -0.135333 0
M  V30 3339 O 326.472 2.7146 -0.0468144 0
M  V30 3340 C 324.928 2.46518 -2.62215 0
M  V30 3341 C 324.536 1.93877 -4.03876 0
M  V30 3342 C 326.28 3.23512 -2.74846 0
M  V30 3343 C 324.187 3.01801 -5.08596 0
M  V30 3344 H 323.117 0.511497 -0.553974 0
M  V30 3345 H 325.768 0.649089 -1.71636 0
M  V30 3346 H 324.15 3.20388 -2.32739 0
M  V30 3347 H 325.324 1.26704 -4.43038 0
M  V30 3348 H 323.639 1.29622 -3.95711 0
M  V30 3349 H 326.236 4.04013 -3.50253 0
M  V30 3350 H 326.579 3.74631 -1.81542 0
M  V30 3351 H 327.112 2.56742 -3.03856 0
M  V30 3352 H 323.851 2.55597 -6.03614 0
M  V30 3353 H 323.371 3.67535 -4.74002 0
M  V30 3354 H 325.05 3.66152 -5.33424 0
M  V30 3355 N 325.182 1.32811 0.848464 0
M  V30 3356 C 326.129 1.22265 1.95755 0
M  V30 3357 C 327.099 0.103413 1.65778 0
M  V30 3358 O 328.284 0.280033 1.88734 0
M  V30 3359 C 325.424 0.958014 3.31536 0
M  V30 3360 C 324.537 2.16262 3.73971 0
M  V30 3361 C 323.672 1.83295 4.98575 0
M  V30 3362 C 322.711 3.00041 5.33518 0
M  V30 3363 N 321.848 2.67125 6.49299 0
M  V30 3364 H 326.688 2.17128 2.04107 0
M  V30 3365 H 324.225 1.07982 0.998913 0
M  V30 3366 H 326.183 0.785052 4.09747 0
M  V30 3367 H 324.813 0.046159 3.22767 0
M  V30 3368 H 323.865 2.44565 2.91362 0
M  V30 3369 H 325.177 3.03572 3.95785 0
M  V30 3370 H 324.331 1.62586 5.84509 0
M  V30 3371 H 323.07 0.932078 4.7871 0
M  V30 3372 H 322.075 3.21374 4.46093 0
M  V30 3373 H 323.3 3.90869 5.55336 0
M  V30 3374 H 321.246 1.79586 6.3094 0
M  V30 3375 H 321.163 3.47965 6.71161 0
M  V30 3376 H 322.431 2.49861 7.3837 0
M  V30 3377 N 326.66 -1.06551 1.16123 0
M  V30 3378 C 327.608 -2.16063 0.861371 0
M  V30 3379 C 328.602 -1.6856 -0.168517 0
M  V30 3380 O 329.808 -1.79986 -0.0227579 0
M  V30 3381 H 326.183 -0.705278 0.260934 0
M  V30 3382 H 328.154 -2.38567 1.79244 0
M  V30 3383 C 326.903 -3.45661 0.376018 0
M  V30 3384 H 326.226 -3.82604 1.15992 0
M  V30 3385 H 327.666 -4.23504 0.204951 0
M  V30 3386 C 326.125 -3.24546 -0.903954 0
M  V30 3387 O 326.655 -3.49865 -1.97377 0
M  V30 3388 N 324.861 -2.77992 -0.846679 0
M  V30 3389 H 324.408 -2.57589 0.0241017 0
M  V30 3390 H 324.366 -2.64244 -1.70359 0
M  V30 3391 N 328.138 -0.959301 -1.25041 0
M  V30 3392 C 329.101 -0.487677 -2.23952 0
M  V30 3393 C 330.101 0.41119 -1.55454 0
M  V30 3394 O 331.291 0.207825 -1.72956 0
M  V30 3395 C 328.423 0.294807 -3.39623 0
M  V30 3396 H 329.616 -1.36198 -2.67189 0
M  V30 3397 H 327.169 -0.743042 -1.37508 0
M  V30 3398 H 327.904 1.18658 -3.01813 0
M  V30 3399 H 327.689 -0.35012 -3.90534 0
M  V30 3400 H 329.179 0.614089 -4.1306 0
M  V30 3401 N 329.616 1.39756 -0.72842 0
M  V30 3402 C 330.564 2.32485 -0.0731849 0
M  V30 3403 C 331.558 1.52717 0.733063 0
M  V30 3404 O 332.764 1.68428 0.634988 0
M  V30 3405 H 329.139 0.751984 -0.00486469 0
M  V30 3406 H 331.11 2.85382 -0.871761 0
M  V30 3407 C 329.859 3.37773 0.824908 0
M  V30 3408 H 329.182 3.99227 0.213915 0
M  V30 3409 H 330.622 4.05121 1.25111 0
M  V30 3410 C 329.081 2.74287 1.95622 0
M  V30 3411 O 329.611 2.61618 3.04826 0
M  V30 3412 N 327.817 2.32475 1.74367 0
M  V30 3413 H 327.364 2.4298 0.855494 0
M  V30 3414 H 327.322 1.90337 2.50238 0
M  V30 3415 N 331.094 0.475555 1.50254 0
M  V30 3416 C 332.34 -0.0780073 2.0265 0
M  V30 3417 C 332.673 -1.38968 1.35652 0
M  V30 3418 O 331.948 -1.8839 0.483691 0
M  V30 3419 C 332.231 -0.257161 3.59181 0
M  V30 3420 C 332.084 1.07585 4.36744 0
M  V30 3421 C 333.403 -1.00965 4.28362 0
M  V30 3422 H 330.522 -0.0268758 0.73651 0
M  V30 3423 H 333.164 0.622015 1.7953 0
M  V30 3424 H 331.314 -0.853412 3.79011 0
M  V30 3425 H 332.986 1.70902 4.28474 0
M  V30 3426 H 331.229 1.6714 4.00308 0
M  V30 3427 H 331.9 0.904088 5.44546 0
M  V30 3428 H 334.376 -0.504214 4.13034 0
M  V30 3429 H 333.252 -1.10381 5.37687 0
M  V30 3430 H 333.513 -2.04731 3.91839 0
M  V30 3431 N 332.573 -1.56217 0.208337 0
M  V30 3432 C 333.819 -1.98242 -0.427552 0
M  V30 3433 C 334.152 -1.09554 -1.60348 0
M  V30 3434 O 333.427 -0.15035 -1.93918 0
M  V30 3435 C 333.71 -3.4931 -0.874907 0
M  V30 3436 C 333.563 -4.48773 0.303751 0
M  V30 3437 C 334.882 -4.04424 -1.73577 0
M  V30 3438 H 332.001 -0.720744 -0.153936 0
M  V30 3439 H 334.643 -1.87586 0.30192 0
M  V30 3440 H 332.793 -3.58522 -1.49648 0
M  V30 3441 H 334.465 -4.51586 0.941682 0
M  V30 3442 H 332.708 -4.23194 0.953375 0
M  V30 3443 H 333.379 -5.51976 -0.0519883 0
M  V30 3444 H 335.855 -3.98075 -1.21143 0
M  V30 3445 H 334.731 -5.1047 -2.01771 0
M  V30 3446 H 334.992 -3.50494 -2.69456 0
M  V30 3447 N 334.051 0.0651679 -1.57465 0
M  V30 3448 C 334.984 1.10876 -1.99453 0
M  V30 3449 C 335.962 1.37205 -0.872555 0
M  V30 3450 O 337.146 1.50468 -1.13542 0
M  V30 3451 C 334.273 2.45167 -2.3369 0
M  V30 3452 C 333.319 2.3493 -3.55964 0
M  V30 3453 S 334.152 1.73708 -5.06543 0
M  V30 3454 C 335.308 3.09563 -5.43987 0
M  V30 3455 H 335.541 0.750967 -2.87659 0
M  V30 3456 H 333.074 0.273933 -1.51951 0
M  V30 3457 H 335.032 3.22412 -2.54088 0
M  V30 3458 H 333.693 2.78105 -1.46001 0
M  V30 3459 H 332.886 3.3398 -3.77457 0
M  V30 3460 H 332.488 1.65823 -3.3523 0
M  V30 3461 H 334.78 4.05882 -5.42463 0
M  V30 3462 H 335.723 2.92843 -6.44708 0
M  V30 3463 H 336.131 3.10474 -4.71451 0
M  V30 3464 N 335.529 1.53961 0.336706 0
M  V30 3465 C 336.775 1.7179 1.07777 0
M  V30 3466 C 337.108 0.483263 1.88091 0
M  V30 3467 O 336.383 -0.519747 1.87427 0
M  V30 3468 C 336.666 2.98558 2.01334 0
M  V30 3469 C 336.519 4.32245 1.24437 0
M  V30 3470 C 337.838 3.21023 3.01052 0
M  V30 3471 H 334.957 0.625089 0.390426 0
M  V30 3472 H 337.599 1.86641 0.35567 0
M  V30 3473 H 335.749 2.86028 2.62908 0
M  V30 3474 H 337.421 4.56637 0.654243 0
M  V30 3475 H 335.664 4.30344 0.546458 0
M  V30 3476 H 336.335 5.17137 1.93063 0
M  V30 3477 H 338.811 3.32929 2.49595 0
M  V30 3478 H 337.687 4.11104 3.6371 0
M  V30 3479 H 337.948 2.37637 3.72802 0
M  V30 3480 N 337.007 -0.598083 1.45811 0
M  V30 3481 C 337.94 -1.7223 1.49706 0
M  V30 3482 C 338.918 -1.58732 0.352535 0
M  V30 3483 O 340.102 -1.80162 0.554438 0
M  V30 3484 C 337.229 -3.10148 1.3611 0
M  V30 3485 C 336.275 -3.42209 2.54549 0
M  V30 3486 S 337.108 -3.35989 4.16979 0
M  V30 3487 C 338.264 -4.76471 4.05865 0
M  V30 3488 H 338.497 -1.68665 2.44826 0
M  V30 3489 H 336.03 -0.775541 1.33509 0
M  V30 3490 H 337.988 -3.8972 1.28953 0
M  V30 3491 H 336.649 -3.11219 0.424451 0
M  V30 3492 H 335.842 -4.42652 2.40988 0
M  V30 3493 H 335.444 -2.70173 2.58617 0
M  V30 3494 H 337.736 -5.665 3.71596 0
M  V30 3495 H 338.679 -4.95089 5.06253 0
M  V30 3496 H 339.087 -4.52599 3.37364 0
M  V30 3497 N 338.485 -1.33259 -0.841409 0
M  V30 3498 C 339.733 -1.24326 -1.59334 0
M  V30 3499 C 340.054 0.191564 -1.94057 0
M  V30 3500 O 339.324 1.11967 -1.60749 0
M  V30 3501 H 337.904 -0.457174 -0.590763 0
M  V30 3502 H 340.566 -1.66947 -1.00571 0
M  V30 3503 H 339.662 -1.8352 -2.52442 0
M  V30 3504 N 339.963 1.05934 -1.16686 0
M  V30 3505 C 341.211 1.78447 -0.948744 0
M  V30 3506 C 341.532 1.87813 0.524523 0
M  V30 3507 O 340.802 1.38945 1.38098 0
M  V30 3508 H 339.382 0.660971 -0.348033 0
M  V30 3509 H 342.044 1.27947 -1.47022 0
M  V30 3510 H 341.14 2.80394 -1.37061 0
M  V30 3511 N 341.441 0.965919 1.2453 0
M  V30 3512 C 342.389 0.486506 2.27455 0
M  V30 3513 C 343.383 -0.449041 1.6334 0
M  V30 3514 O 344.589 -0.324527 1.7705 0
M  V30 3515 H 340.964 0.138857 0.739069 0
M  V30 3516 H 342.935 1.3666 2.65267 0
M  V30 3517 C 341.684 -0.209481 3.47068 0
M  V30 3518 H 341.007 0.50129 3.96645 0
M  V30 3519 H 342.447 -0.508775 4.20936 0
M  V30 3520 C 340.906 -1.43586 3.0477 0
M  V30 3521 O 341.436 -2.53299 3.11773 0
M  V30 3522 N 339.642 -1.30126 2.59838 0
M  V30 3523 H 339.189 -0.408583 2.54339 0
M  V30 3524 H 339.147 -2.12294 2.31902 0
M  V30 3525 N 342.919 -1.39368 0.735821 0
M  V30 3526 C 343.882 -2.2896 0.104874 0
M  V30 3527 C 344.882 -1.46347 -0.666274 0
M  V30 3528 O 346.072 -1.67014 -0.49517 0
M  V30 3529 C 343.204 -3.29857 -0.860656 0
M  V30 3530 H 344.397 -2.86259 0.894205 0
M  V30 3531 H 341.95 -1.48029 0.501704 0
M  V30 3532 H 342.685 -2.77615 -1.67631 0
M  V30 3533 H 342.47 -3.9087 -0.310327 0
M  V30 3534 H 343.96 -3.96893 -1.29867 0
M  V30 3535 N 344.397 -0.483516 -1.5 0
M  V30 3536 C 345.36 0.292965 -2.2732 0
M  V30 3537 C 346.36 0.909499 -1.32608 0
M  V30 3538 O 347.55 0.776745 -1.55924 0
M  V30 3539 C 344.682 1.41854 -3.09984 0
M  V30 3540 H 345.875 -0.385289 -2.97415 0
M  V30 3541 H 343.428 -0.237942 -1.54478 0
M  V30 3542 H 344.163 2.13148 -2.44414 0
M  V30 3543 H 343.948 0.982114 -3.79601 0
M  V30 3544 H 345.438 1.96597 -3.68429 0
M  V30 3545 N 345.875 1.56104 -0.216619 0
M  V30 3546 C 346.785 2.23694 0.706982 0
M  V30 3547 C 347.801 1.24295 1.21765 0
M  V30 3548 O 348.977 1.57094 1.2603 0
M  V30 3549 C 346.042 2.8998 1.90033 0
M  V30 3550 C 345.103 4.04708 1.43213 0
M  V30 3551 C 344.336 4.67824 2.56859 0
M  V30 3552 O 344.559 4.29913 3.74874 0
M  V30 3553 O 343.493 5.56905 2.28343 0
M  V30 3554 H 347.319 3.03272 0.161235 0
M  V30 3555 H 344.904 1.49394 0.0136177 0
M  V30 3556 H 346.786 3.31837 2.59735 0
M  V30 3557 H 345.461 2.13365 2.43428 0
M  V30 3558 H 344.368 3.6743 0.70327 0
M  V30 3559 H 345.701 4.83051 0.944615 0
M  V30 3560 N 347.353 -0.0568162 1.57498 0
M  V30 3561 C 348.316 -1.05038 2.03715 0
M  V30 3562 C 349.316 -1.30709 0.936577 0
M  V30 3563 O 350.506 -1.26178 1.20103 0
M  V30 3564 C 347.638 -2.39034 2.43055 0
M  V30 3565 H 348.831 -0.651715 2.92733 0
M  V30 3566 H 346.384 -0.302947 1.53336 0
M  V30 3567 H 347.119 -2.83703 1.57108 0
M  V30 3568 H 346.904 -2.21739 3.2338 0
M  V30 3569 H 348.394 -3.10421 2.79336 0
M  V30 3570 N 348.832 -1.54138 -0.328536 0
M  V30 3571 C 349.782 -1.79557 -1.4051 0
M  V30 3572 C 350.766 -0.651373 -1.47126 0
M  V30 3573 O 351.958 -0.911226 -1.51742 0
M  V30 3574 C 349.087 -2.02196 -2.77438 0
M  V30 3575 C 348.173 -3.22724 -2.75155 0
M  V30 3576 N 348.564 -4.43881 -2.42494 0
M  V30 3577 C 346.862 -3.24196 -3.06289 0
M  V30 3578 C 347.563 -5.25797 -2.48822 0
M  V30 3579 N 346.539 -4.62862 -2.8506 0
M  V30 3580 H 350.341 -2.70814 -1.1418 0
M  V30 3581 H 347.855 -1.53265 -0.536991 0
M  V30 3582 H 349.852 -2.18546 -3.55026 0
M  V30 3583 H 348.512 -1.12191 -3.04702 0
M  V30 3584 H 349.523 -4.70969 -2.15428 0
M  V30 3585 H 346.2 -2.44208 -3.38627 0
M  V30 3586 H 347.59 -6.32535 -2.26603 0
M  V30 3587 N 350.31 0.590341 -1.46126 0
M  V30 3588 C 351.721 1.17243 -1.45296 0
M  V30 3589 C 352.072 1.95281 -0.189723 0
M  V30 3590 O 351.197 2.04502 0.707674 0
M  V30 3591 C 351.792 2.13284 -2.6324 0
M  V30 3592 C 350.351 2.66832 -2.65476 0
M  V30 3593 C 349.498 1.42557 -2.3785 0
M  V30 3594 H 352.449 0.378692 -1.54116 0
M  V30 3595 H 352.47 2.96619 -2.38323 0
M  V30 3596 H 351.982 1.56459 -3.55165 0
M  V30 3597 H 350.083 3.27548 -1.77603 0
M  V30 3598 H 350.196 3.10088 -3.65215 0
M  V30 3599 H 348.56 1.72107 -1.87753 0
M  V30 3600 H 349.343 0.875741 -3.31942 0
M  V30 3601 N 351.788 1.33704 0.83433 0
M  V30 3602 C 353.034 1.25603 1.59222 0
M  V30 3603 C 353.367 -0.176659 1.93395 0
M  V30 3604 O 352.642 -1.11915 1.59076 0
M  V30 3605 C 352.925 2.13576 2.89926 0
M  V30 3606 C 352.778 3.65326 2.62406 0
M  V30 3607 C 354.097 2.01238 3.91397 0
M  V30 3608 H 351.216 0.457613 0.577719 0
M  V30 3609 H 353.858 1.63848 0.961972 0
M  V30 3610 H 352.008 1.8109 3.43713 0
M  V30 3611 H 353.68 4.08124 2.15017 0
M  V30 3612 H 351.923 3.8698 1.96033 0
M  V30 3613 H 352.594 4.22232 3.55562 0
M  V30 3614 H 355.07 2.29738 3.46929 0
M  V30 3615 H 353.946 2.65036 4.80673 0
M  V30 3616 H 354.207 0.985951 4.30966 0
M  V30 3617 N 353.266 -1.05314 1.17247 0
M  V30 3618 C 354.514 -1.77941 0.958194 0
M  V30 3619 C 354.835 -1.88089 -0.514556 0
M  V30 3620 O 354.105 -1.39676 -1.37359 0
M  V30 3621 H 352.685 -0.659116 0.351533 0
M  V30 3622 H 355.347 -1.27166 1.47699 0
M  V30 3623 H 354.443 -2.79663 1.38546 0
M  V30 3624 N 354.744 -0.972509 -1.24016 0
M  V30 3625 C 355.991 -0.637034 -1.92219 0
M  V30 3626 C 356.319 0.828418 -1.75976 0
M  V30 3627 O 355.574 1.61206 -1.10955 0
M  V30 3628 C 355.873 -0.963694 -3.44162 0
M  V30 3629 C 355.539 -2.41807 -3.80579 0
M  V30 3630 C 354.201 -2.81556 -3.9023 0
M  V30 3631 C 356.553 -3.36172 -3.98293 0
M  V30 3632 C 353.881 -4.14702 -4.15017 0
M  V30 3633 C 356.233 -4.68952 -4.24578 0
M  V30 3634 C 354.897 -5.08472 -4.32449 0
M  V30 3635 H 354.167 -0.233107 -0.703379 0
M  V30 3636 H 356.814 -1.2249 -1.47202 0
M  V30 3637 H 355.119 -0.29365 -3.90698 0
M  V30 3638 H 356.816 -0.682449 -3.9515 0
M  V30 3639 H 353.406 -2.09988 -3.73635 0
M  V30 3640 H 357.59 -3.06644 -3.90234 0
M  V30 3641 H 352.846 -4.4494 -4.19331 0
M  V30 3642 H 357.02 -5.42037 -4.37229 0
M  V30 3643 H 354.647 -6.11665 -4.51409 0
M  V30 3644 N 356.222 1.38976 -0.743202 0
M  V30 3645 C 357.638 1.53984 -0.419664 0
M  V30 3646 C 357.838 1.70837 1.0685 0
M  V30 3647 O 356.894 1.7135 1.8546 0
M  V30 3648 C 358.207 2.75287 -1.20985 0
M  V30 3649 C 359.755 2.89129 -1.19889 0
M  V30 3650 C 360.23 4.13381 -1.97181 0
M  V30 3651 N 361.721 4.20437 -1.94389 0
M  V30 3652 C 362.456 5.15547 -2.50996 0
M  V30 3653 N 361.952 6.16395 -3.16274 0
M  V30 3654 N 363.745 5.07822 -2.40984 0
M  V30 3655 H 355.896 1.26285 -1.7078 0
M  V30 3656 H 358.159 0.612689 -0.723406 0
M  V30 3657 H 357.865 2.69204 -2.26323 0
M  V30 3658 H 357.739 3.68184 -0.819759 0
M  V30 3659 H 360.126 2.947 -0.153606 0
M  V30 3660 H 360.207 1.97272 -1.62841 0
M  V30 3661 H 359.851 4.08572 -3.01714 0
M  V30 3662 H 359.781 5.04298 -1.51629 0
M  V30 3663 H 362.272 3.48205 -1.46839 0
M  V30 3664 H 362.585 6.85443 -3.56915 0
M  V30 3665 H 360.93 6.16758 -3.20367 0
M  V30 3666 H 364.121 4.27973 -1.89622 0
M  V30 3667 H 364.294 5.81767 -2.85397 0
M  V30 3668 N 357.7 0.491464 1.49741 0
M  V30 3669 C 358.946 -0.0485431 2.03342 0
M  V30 3670 C 359.301 -1.35566 1.36527 0
M  V30 3671 O 358.594 -1.85262 0.488729 0
M  V30 3672 C 358.788 -0.267329 3.56399 0
M  V30 3673 C 358.617 1.01703 4.38049 0
M  V30 3674 C 357.387 1.56614 4.80417 0
M  V30 3675 C 359.585 1.91782 4.77204 0
M  V30 3676 N 357.567 2.7974 5.4646 0
M  V30 3677 C 358.938 2.99489 5.42868 0
M  V30 3678 C 360.993 1.92575 4.5915 0
M  V30 3679 C 359.696 4.08005 5.92389 0
M  V30 3680 C 361.722 3.0006 5.09626 0
M  V30 3681 C 361.084 4.06485 5.75282 0
M  V30 3682 H 357.183 0.0227779 0.781668 0
M  V30 3683 H 359.767 0.664204 1.8302 0
M  V30 3684 H 357.938 -0.949126 3.76625 0
M  V30 3685 H 359.67 -0.803492 3.96644 0
M  V30 3686 H 356.425 1.11256 4.60347 0
M  V30 3687 H 356.849 3.42323 5.84075 0
M  V30 3688 H 361.491 1.11605 4.07804 0
M  V30 3689 H 359.209 4.89779 6.42761 0
M  V30 3690 H 362.795 3.01681 4.97473 0
M  V30 3691 H 361.675 4.88287 6.13633 0
M  V30 3692 N 359.178 -1.55987 0.224894 0
M  V30 3693 C 360.141 -2.19178 -0.670348 0
M  V30 3694 C 361.141 -1.15461 -1.11917 0
M  V30 3695 O 362.331 -1.40675 -1.02743 0
M  V30 3696 C 359.463 -2.81777 -1.9187 0
M  V30 3697 H 360.656 -2.99662 -0.119364 0
M  V30 3698 H 358.209 -1.5628 -0.0247128 0
M  V30 3699 H 358.944 -2.05172 -2.51147 0
M  V30 3700 H 358.729 -3.57732 -1.60531 0
M  V30 3701 H 360.219 -3.30205 -2.55645 0
M  V30 3702 N 360.656 0.0484629 -1.57525 0
M  V30 3703 C 361.589 1.08755 -2.00618 0
M  V30 3704 C 362.567 1.36272 -0.887058 0
M  V30 3705 O 363.751 1.49255 -1.15131 0
M  V30 3706 C 360.878 2.42675 -2.36277 0
M  V30 3707 C 359.924 2.31142 -3.58435 0
M  V30 3708 S 360.757 1.68326 -5.08357 0
M  V30 3709 C 361.913 3.03776 -5.47239 0
M  V30 3710 H 362.146 0.720415 -2.88439 0
M  V30 3711 H 359.679 0.257801 -1.52233 0
M  V30 3712 H 361.637 3.19699 -2.57494 0
M  V30 3713 H 360.298 2.76541 -1.48942 0
M  V30 3714 H 359.491 3.29957 -3.80978 0
M  V30 3715 H 359.093 1.62258 -3.36969 0
M  V30 3716 H 361.385 4.00106 -5.46737 0
M  V30 3717 H 362.328 2.85988 -6.47778 0
M  V30 3718 H 362.736 3.05456 -4.74718 0
M  V30 3719 N 362.134 1.5431 0.320358 0
M  V30 3720 C 363.044 1.86946 1.41734 0
M  V30 3721 C 364.06 0.761689 1.56443 0
M  V30 3722 O 365.236 1.05629 1.71477 0
M  V30 3723 C 362.301 2.09293 2.76401 0
M  V30 3724 C 361.362 3.33082 2.70841 0
M  V30 3725 C 360.595 3.54353 3.99086 0
M  V30 3726 O 360.818 2.79002 4.97508 0
M  V30 3727 O 359.752 4.47838 4.0215 0
M  V30 3728 H 363.578 2.80232 1.17062 0
M  V30 3729 H 361.163 1.40255 0.514673 0
M  V30 3730 H 363.045 2.25303 3.56113 0
M  V30 3731 H 361.72 1.19194 3.00956 0
M  V30 3732 H 360.627 3.22454 1.89668 0
M  V30 3733 H 361.96 4.23249 2.5124 0
M  V30 3734 N 363.613 -0.582584 1.46437 0
M  V30 3735 C 364.576 -1.67366 1.56592 0
M  V30 3736 C 365.576 -1.54575 0.443072 0
M  V30 3737 O 366.766 -1.59191 0.707381 0
M  V30 3738 C 363.898 -3.06791 1.48634 0
M  V30 3739 H 365.091 -1.5972 2.5383 0
M  V30 3740 H 362.644 -0.800432 1.34249 0
M  V30 3741 H 363.379 -3.19993 0.526763 0
M  V30 3742 H 363.164 -3.17484 2.30101 0
M  V30 3743 H 364.654 -3.86218 1.58826 0
M  V30 3744 N 365.091 -1.34144 -0.827227 0
M  V30 3745 C 366.038 -1.25364 -1.93785 0
M  V30 3746 C 367.008 -0.129774 -1.65592 0
M  V30 3747 O 368.193 -0.310024 -1.88264 0
M  V30 3748 C 365.333 -1.01064 -3.2997 0
M  V30 3749 C 364.446 -2.22185 -3.70484 0
M  V30 3750 C 363.581 -1.91203 -4.95595 0
M  V30 3751 C 362.62 -3.08491 -5.28677 0
M  V30 3752 N 361.757 -2.77421 -6.44967 0
M  V30 3753 H 366.597 -2.20347 -2.00627 0
M  V30 3754 H 364.134 -1.09558 -0.981608 0
M  V30 3755 H 366.092 -0.850139 -4.08446 0
M  V30 3756 H 364.722 -0.0975026 -3.22653 0
M  V30 3757 H 363.774 -2.4917 -2.87434 0
M  V30 3758 H 365.086 -3.0983 -3.90905 0
M  V30 3759 H 364.24 -1.71864 -5.81848 0
M  V30 3760 H 362.979 -1.00812 -4.77167 0
M  V30 3761 H 361.984 -3.28431 -4.40923 0
M  V30 3762 H 363.209 -3.99655 -5.49047 0
M  V30 3763 H 361.155 -1.89601 -6.28003 0
M  V30 3764 H 361.072 -3.58598 -6.6554 0
M  V30 3765 H 362.34 -2.61577 -7.34301 0
M  V30 3766 N 366.569 1.04691 -1.17803 0
M  V30 3767 C 367.517 2.14665 -0.895635 0
M  V30 3768 C 368.511 1.68806 0.141679 0
M  V30 3769 O 369.717 1.79999 -0.00587914 0
M  V30 3770 H 366.092 0.701038 -0.272121 0
M  V30 3771 H 368.063 2.35685 -1.83017 0
M  V30 3772 C 366.812 3.45019 -0.430962 0
M  V30 3773 H 366.135 3.8071 -1.22064 0
M  V30 3774 H 367.575 4.23125 -0.272301 0
M  V30 3775 C 366.034 3.25943 0.852207 0
M  V30 3776 O 366.564 3.5296 1.91786 0
M  V30 3777 N 364.77 2.79304 0.802346 0
M  V30 3778 H 364.317 2.57518 -0.0650788 0
M  V30 3779 H 364.275 2.66921 1.66134 0
M  V30 3780 N 368.047 0.979072 1.23499 0
M  V30 3781 C 368.995 0.510604 2.26926 0
M  V30 3782 C 369.989 -0.431691 1.63807 0
M  V30 3783 O 371.195 -0.30573 1.77385 0
M  V30 3784 H 367.57 0.146688 0.737554 0
M  V30 3785 H 369.541 1.39466 2.63803 0
M  V30 3786 C 368.29 -0.172658 3.47271 0
M  V30 3787 H 367.613 0.543331 3.96091 0
M  V30 3788 H 369.053 -0.464101 4.21452 0
M  V30 3789 C 367.512 -1.40345 3.06276 0
M  V30 3790 O 368.042 -2.49978 3.14442 0
M  V30 3791 N 366.248 -1.27362 2.61203 0
M  V30 3792 H 365.795 -0.381584 2.54758 0
M  V30 3793 H 365.753 -2.09822 2.34141 0
M  V30 3794 N 369.525 -1.3858 0.750561 0
M  V30 3795 C 370.473 -2.32339 0.110162 0
M  V30 3796 C 371.467 -1.53864 -0.708674 0
M  V30 3797 O 372.673 -1.69417 -0.608112 0
M  V30 3798 H 369.048 -0.751812 0.0168275 0
M  V30 3799 H 371.019 -2.83959 0.917053 0
M  V30 3800 C 369.768 -3.39043 -0.771067 0
M  V30 3801 H 369.091 -3.99517 -0.150374 0
M  V30 3802 H 370.531 -4.07061 -1.1865 0
M  V30 3803 C 368.99 -2.77365 -1.91234 0
M  V30 3804 O 369.52 -2.66434 -3.00626 0
M  V30 3805 N 367.726 -2.35219 -1.70646 0
M  V30 3806 H 367.273 -2.4431 -0.81673 0
M  V30 3807 H 367.231 -1.94294 -2.47178 0
M  V30 3808 N 371.003 -0.499398 -1.49478 0
M  V30 3809 C 372.28 0.108629 -1.95298 0
M  V30 3810 C 372.66 1.54282 -1.44084 0
M  V30 3811 O 372.008 2.18944 -0.653908 0
M  V30 3812 C 372.218 0.0229111 -3.48992 0
M  V30 3813 C 373.566 0.197643 -4.2414 0
M  V30 3814 O 374.59 0.0981735 -3.56065 0
M  V30 3815 O 373.449 0.401669 -5.45022 0
M  V30 3816 H 370.543 0.096181 -0.821388 0
M  V30 3817 H 373.089 -0.561822 -1.6013 0
M  V30 3818 H 371.861 -0.977321 -3.78899 0
M  V30 3819 H 371.484 0.733579 -3.90774 0
M  V30 3820 N 372.481 1.55866 -0.233164 0
M  V30 3821 C 373.444 2.1953 0.658715 0
M  V30 3822 C 374.444 1.16053 1.11303 0
M  V30 3823 O 375.634 1.41218 1.01996 0
M  V30 3824 C 372.766 2.82791 1.90373 0
M  V30 3825 H 373.959 2.99721 0.10347 0
M  V30 3826 H 371.512 1.56291 0.0164245 0
M  V30 3827 H 372.247 2.06501 2.50056 0
M  V30 3828 H 372.032 3.58578 1.58632 0
M  V30 3829 H 373.522 3.31556 2.53891 0
M  V30 3830 N 373.959 -0.0401083 1.57549 0
M  V30 3831 C 375.187 -0.745196 1.93014 0
M  V30 3832 C 375.602 -1.6948 0.831984 0
M  V30 3833 O 374.959 -1.81482 -0.192463 0
M  V30 3834 C 375.01 -1.51176 3.28372 0
M  V30 3835 O 374.731 -0.600284 4.33968 0
M  V30 3836 C 376.232 -2.315 3.78051 0
M  V30 3837 H 373.452 -0.210088 0.637263 0
M  V30 3838 H 375.996 -0.000924689 2.045 0
M  V30 3839 H 374.151 -2.20801 3.18317 0
M  V30 3840 H 374.565 -1.13669 5.12035 0
M  V30 3841 H 376.039 -2.80697 4.75303 0
M  V30 3842 H 376.516 -3.12436 3.08675 0
M  V30 3843 H 377.122 -1.66971 3.91153 0
M  V30 3844 N 375.437 -1.54477 -0.31217 0
M  V30 3845 C 376.367 -1.87652 -1.38957 0
M  V30 3846 C 377.348 -0.734358 -1.53431 0
M  V30 3847 O 378.533 -0.98911 -1.67123 0
M  V30 3848 C 375.663 -2.11396 -2.75552 0
M  V30 3849 C 374.617 -3.27243 -2.75855 0
M  V30 3850 C 373.943 -3.36382 -4.15633 0
M  V30 3851 C 375.243 -4.64622 -2.38587 0
M  V30 3852 H 376.937 -2.77887 -1.11442 0
M  V30 3853 H 374.483 -1.33707 -0.534655 0
M  V30 3854 H 376.436 -2.33189 -3.51 0
M  V30 3855 H 375.16 -1.17921 -3.04569 0
M  V30 3856 H 373.819 -3.05356 -2.02863 0
M  V30 3857 H 373.467 -2.40445 -4.41809 0
M  V30 3858 H 373.167 -4.14249 -4.1674 0
M  V30 3859 H 374.691 -3.60422 -4.92877 0
M  V30 3860 H 376.105 -4.86219 -3.03749 0
M  V30 3861 H 374.502 -5.45121 -2.50925 0
M  V30 3862 H 375.572 -4.66097 -1.33723 0
M  V30 3863 N 376.915 0.57481 -1.46744 0
M  V30 3864 C 378.164 1.32898 -1.51727 0
M  V30 3865 C 378.477 1.948 -0.176692 0
M  V30 3866 O 379.683 2.71299 -0.104385 0
M  V30 3867 C 378.139 2.40901 -2.67385 0
M  V30 3868 C 377.747 1.85266 -4.07898 0
M  V30 3869 C 379.491 3.17609 -2.81646 0
M  V30 3870 C 377.398 2.90945 -5.14883 0
M  V30 3871 H 376.328 0.499631 -0.564699 0
M  V30 3872 H 378.979 0.612536 -1.72975 0
M  V30 3873 H 377.361 3.15379 -2.39483 0
M  V30 3874 H 378.535 1.17278 -4.45626 0
M  V30 3875 H 376.85 1.21199 -3.98371 0
M  V30 3876 H 379.447 3.96493 -3.58744 0
M  V30 3877 H 379.79 3.70696 -1.89448 0
M  V30 3878 H 380.323 2.50239 -3.09233 0
M  V30 3879 H 377.062 2.42736 -6.089 0
M  V30 3880 H 376.582 3.57398 -4.81691 0
M  V30 3881 H 378.261 3.54755 -5.41071 0
M  V30 3882 N 378.394 1.34581 0.820102 0
M  V30 3883 C 379.64 1.27285 1.57881 0
M  V30 3884 C 379.973 -0.156137 1.93571 0
M  V30 3885 O 379.248 -1.10222 1.60254 0
M  V30 3886 C 379.531 2.16639 2.87645 0
M  V30 3887 C 379.384 3.68088 2.58517 0
M  V30 3888 C 380.703 2.05378 3.8924 0
M  V30 3889 H 377.822 0.463714 0.572833 0
M  V30 3890 H 380.464 1.64859 0.944539 0
M  V30 3891 H 378.614 1.84725 3.41773 0
M  V30 3892 H 380.286 4.10382 2.10676 0
M  V30 3893 H 378.529 3.89038 1.91917 0
M  V30 3894 H 379.2 4.2598 3.51063 0
M  V30 3895 H 381.676 2.33404 3.44473 0
M  V30 3896 H 380.552 2.7012 4.77835 0
M  V30 3897 H 380.813 1.0316 4.29896 0
M  V30 3898 N 379.872 -1.04064 1.18357 0
M  V30 3899 C 381.118 -1.77528 0.980397 0
M  V30 3900 C 381.451 -1.87948 -0.48879 0
M  V30 3901 O 380.726 -1.3876 -1.36293 0
M  V30 3902 C 381.009 -3.20797 1.63588 0
M  V30 3903 C 380.862 -3.1832 3.17793 0
M  V30 3904 C 382.181 -4.18911 1.34914 0
M  V30 3905 H 379.3 -0.644443 0.357578 0
M  V30 3906 H 381.942 -1.2156 1.46024 0
M  V30 3907 H 380.092 -3.68586 1.22788 0
M  V30 3908 H 381.764 -2.78521 3.67728 0
M  V30 3909 H 380.007 -2.56351 3.49952 0
M  V30 3910 H 380.678 -4.19489 3.58794 0
M  V30 3911 H 383.154 -3.7967 1.70265 0
M  V30 3912 H 382.03 -5.17374 1.83346 0
M  V30 3913 H 382.291 -4.41262 0.272027 0
M  V30 3914 N 381.35 -0.985608 -1.22978 0
M  V30 3915 C 382.627 -0.573599 -1.87001 0
M  V30 3916 C 383.007 0.949213 -1.88555 0
M  V30 3917 O 382.355 1.82811 -1.37086 0
M  V30 3918 C 382.565 -1.18564 -3.28243 0
M  V30 3919 C 383.913 -1.28163 -4.04796 0
M  V30 3920 O 384.937 -1.13949 -3.37482 0
M  V30 3921 O 383.796 -1.50832 -5.25273 0
M  V30 3922 H 380.89 -0.193868 -0.803955 0
M  V30 3923 H 383.436 -1.08102 -1.30813 0
M  V30 3924 H 382.208 -2.22758 -3.21706 0
M  V30 3925 H 381.831 -0.663363 -3.92027 0
M  V30 3926 N 382.828 1.3818 -0.7579 0
M  V30 3927 C 384.239 1.82726 -0.383134 0
M  V30 3928 C 384.59 1.63214 1.08884 0
M  V30 3929 O 383.715 1.13566 1.84205 0
M  V30 3930 C 384.31 3.31728 -0.688631 0
M  V30 3931 C 382.869 3.74606 -0.367091 0
M  V30 3932 C 382.016 2.60896 -0.939599 0
M  V30 3933 H 384.967 1.26847 -0.953699 0
M  V30 3934 H 384.988 3.80487 0.0316492 0
M  V30 3935 H 384.5 3.45898 -1.76001 0
M  V30 3936 H 382.601 3.66013 0.697532 0
M  V30 3937 H 382.714 4.71215 -0.865658 0
M  V30 3938 H 381.078 2.52075 -0.3647 0
M  V30 3939 H 381.861 2.77864 -2.0161 0
M  V30 3940 N 384.306 0.507319 1.49211 0
M  V30 3941 C 385.722 0.163682 1.58758 0
M  V30 3942 C 385.922 -1.33208 1.51188 0
M  V30 3943 O 384.978 -2.10855 1.38911 0
M  V30 3944 C 386.291 0.746095 2.91297 0
M  V30 3945 C 387.839 0.712773 3.04776 0
M  V30 3946 C 388.314 1.27336 4.39943 0
M  V30 3947 N 389.805 1.23433 4.46451 0
M  V30 3948 C 390.54 1.63821 5.495 0
M  V30 3949 N 390.036 2.11832 6.5962 0
M  V30 3950 N 391.829 1.55198 5.4025 0
M  V30 3951 H 383.98 1.47972 1.52375 0
M  V30 3952 H 386.243 0.614147 0.722168 0
M  V30 3953 H 385.949 1.79534 3.02424 0
M  V30 3954 H 385.823 0.210137 3.76614 0
M  V30 3955 H 388.21 -0.327656 2.93275 0
M  V30 3956 H 388.291 1.28595 2.21127 0
M  V30 3957 H 387.935 2.3126 4.52196 0
M  V30 3958 H 387.865 0.676066 5.22242 0
M  V30 3959 H 390.356 0.882627 3.67448 0
M  V30 3960 H 390.669 2.40703 7.34358 0
M  V30 3961 H 389.014 2.1581 6.60644 0
M  V30 3962 H 392.205 1.17505 4.53112 0
M  V30 3963 H 392.378 1.86997 6.20432 0
M  V30 3964 N 385.784 -1.5574 0.241426 0
M  V30 3965 C 387.031 -1.9881 -0.384836 0
M  V30 3966 C 387.359 -1.12947 -1.58346 0
M  V30 3967 O 386.614 -0.178993 -1.9488 0
M  V30 3968 C 386.913 -3.47308 -0.843317 0
M  V30 3969 C 386.579 -4.50223 0.246946 0
M  V30 3970 C 385.241 -4.78088 0.546399 0
M  V30 3971 C 387.593 -5.11841 0.983282 0
M  V30 3972 C 384.921 -5.64846 1.58636 0
M  V30 3973 C 387.273 -5.99727 2.01272 0
M  V30 3974 C 385.937 -6.25927 2.31888 0
M  V30 3975 H 385.207 -0.727496 -0.140821 0
M  V30 3976 H 387.854 -1.8831 0.348106 0
M  V30 3977 H 386.159 -3.55112 -1.65537 0
M  V30 3978 H 387.856 -3.78017 -1.33806 0
M  V30 3979 H 384.446 -4.286 0.00340639 0
M  V30 3980 H 388.63 -4.90366 0.765182 0
M  V30 3981 H 383.886 -5.83403 1.82896 0
M  V30 3982 H 388.06 -6.46517 2.58823 0
M  V30 3983 H 385.687 -6.92949 3.12611 0
M  V30 3984 N 387.262 0.0317525 -1.57568 0
M  V30 3985 C 388.49 0.734949 -1.93407 0
M  V30 3986 C 388.905 1.69036 -0.84096 0
M  V30 3987 O 388.262 1.81582 0.182836 0
M  V30 3988 C 388.313 1.49432 -3.29169 0
M  V30 3989 O 388.034 0.577261 -4.3428 0
M  V30 3990 C 389.535 2.29492 -3.79273 0
M  V30 3991 H 386.755 0.206706 -0.638368 0
M  V30 3992 H 389.299 -0.00992046 -2.04498 0
M  V30 3993 H 387.454 2.1911 -3.19483 0
M  V30 3994 H 387.868 1.10952 -5.1263 0
M  V30 3995 H 389.342 2.78172 -4.76785 0
M  V30 3996 H 389.819 3.10794 -3.10328 0
M  V30 3997 H 390.425 1.64894 -3.92033 0
M  V30 3998 N 388.74 1.54641 0.303973 0
M  V30 3999 C 390.156 1.45788 0.649463 0
M  V30 4000 C 390.356 0.64666 1.90842 0
M  V30 4001 O 389.412 0.153183 2.52035 0
M  V30 4002 C 390.725 2.89718 0.805227 0
M  V30 4003 C 392.273 2.99742 0.901305 0
M  V30 4004 C 392.748 4.44863 1.08909 0
M  V30 4005 N 394.239 4.48559 1.15536 0
M  V30 4006 C 394.974 5.58026 1.3189 0
M  V30 4007 N 394.47 6.77422 1.45161 0
M  V30 4008 N 396.263 5.45708 1.34755 0
M  V30 4009 H 388.414 2.05854 -0.523237 0
M  V30 4010 H 390.677 0.932186 -0.172431 0
M  V30 4011 H 390.383 3.51666 -0.0489108 0
M  V30 4012 H 390.257 3.36964 1.69513 0
M  V30 4013 H 392.644 2.3791 1.74593 0
M  V30 4014 H 392.725 2.55797 -0.0125531 0
M  V30 4015 H 392.369 5.07288 0.249241 0
M  V30 4016 H 392.299 4.86436 2.01713 0
M  V30 4017 H 394.79 3.6254 1.06646 0
M  V30 4018 H 395.103 7.56604 1.57387 0
M  V30 4019 H 393.448 6.80292 1.42223 0
M  V30 4020 H 396.639 4.51378 1.23996 0
M  V30 4021 H 396.812 6.3107 1.47157 0
M  V30 4022 N 390.218 -0.567019 1.47046 0
M  V30 4023 C 391.446 -1.35027 1.56765 0
M  V30 4024 C 391.861 -1.8758 0.214316 0
M  V30 4025 O 391.218 -1.64471 -0.790919 0
M  V30 4026 C 391.269 -2.52698 2.58507 0
M  V30 4027 O 390.99 -2.0232 3.88585 0
M  V30 4028 C 392.491 -3.45043 2.78316 0
M  V30 4029 H 389.711 -0.41195 0.529658 0
M  V30 4030 H 392.255 -0.687832 1.92585 0
M  V30 4031 H 390.41 -3.149 2.25648 0
M  V30 4032 H 390.824 -2.79068 4.44096 0
M  V30 4033 H 392.298 -4.2405 3.53391 0
M  V30 4034 H 392.775 -3.97971 1.85784 0
M  V30 4035 H 393.381 -2.88665 3.12334 0
M  V30 4036 N 391.696 -1.35014 -0.812953 0
M  V30 4037 C 392.659 -1.27292 -1.90602 0
M  V30 4038 C 393.659 -0.185817 -1.59723 0
M  V30 4039 O 394.849 -0.439102 -1.68575 0
M  V30 4040 C 391.981 -0.967676 -3.26877 0
M  V30 4041 H 393.174 -2.24479 -1.9887 0
M  V30 4042 H 390.727 -1.19446 -1.00808 0
M  V30 4043 H 391.462 0.0005954 -3.243 0
M  V30 4044 H 391.247 -1.75412 -3.50675 0
M  V30 4045 H 392.737 -0.939085 -4.06904 0
M  V30 4046 N 393.175 1.03435 -1.18907 0
M  V30 4047 C 394.4 1.80919 -1.01406 0
M  V30 4048 C 394.825 1.83055 0.432721 0
M  V30 4049 O 394.183 1.25252 1.31079 0
M  V30 4050 C 394.231 3.24091 -1.58105 0
M  V30 4051 O 393.335 4.04434 -0.806669 0
M  V30 4052 H 392.676 0.558709 -0.358803 0
M  V30 4053 H 395.206 1.30223 -1.57807 0
M  V30 4054 H 395.216 3.74853 -1.61087 0
M  V30 4055 H 393.891 3.21851 -2.6341 0
M  V30 4056 H 392.468 3.63091 -0.849666 0
M  V30 4057 N 394.653 0.992116 1.22453 0
M  V30 4058 C 395.899 0.668523 1.91464 0
M  V30 4059 C 396.232 -0.797313 1.77078 0
M  V30 4060 O 395.507 -1.5765 1.13916 0
M  V30 4061 C 395.79 1.07424 3.43703 0
M  V30 4062 C 395.643 2.59857 3.67143 0
M  V30 4063 C 396.962 0.626891 4.35612 0
M  V30 4064 H 394.081 0.244341 0.695318 0
M  V30 4065 H 396.723 1.2355 1.44345 0
M  V30 4066 H 394.873 0.591816 3.83966 0
M  V30 4067 H 396.545 3.15764 3.3629 0
M  V30 4068 H 394.788 3.01961 3.11451 0
M  V30 4069 H 395.459 2.83296 4.73759 0
M  V30 4070 H 397.935 1.04125 4.02861 0
M  V30 4071 H 396.811 0.939076 5.40807 0
M  V30 4072 H 397.072 -0.472457 4.39568 0
M  V30 4073 N 396.131 -1.37776 0.765217 0
M  V30 4074 C 397.094 -2.28686 0.153416 0
M  V30 4075 C 398.094 -1.47727 -0.635081 0
M  V30 4076 O 399.284 -1.68027 -0.459632 0
M  V30 4077 C 396.416 -3.31608 -0.790495 0
M  V30 4078 H 397.609 -2.84297 0.954723 0
M  V30 4079 H 395.162 -1.46932 0.53299 0
M  V30 4080 H 395.897 -2.81109 -1.61705 0
M  V30 4081 H 395.682 -3.9144 -0.227348 0
M  V30 4082 H 397.172 -3.99559 -1.21419 0
M  V30 4083 N 397.609 -0.515225 -1.4894 0
M  V30 4084 C 398.886 0.0879088 -1.95402 0
M  V30 4085 C 399.266 1.52745 -1.45712 0
M  V30 4086 O 398.614 2.18238 -0.677093 0
M  V30 4087 C 398.824 -0.0141055 -3.48997 0
M  V30 4088 C 400.172 0.152646 -4.24326 0
M  V30 4089 O 401.196 0.0604025 -3.56149 0
M  V30 4090 O 400.055 0.34384 -5.45417 0
M  V30 4091 H 397.149 0.0874636 -0.822362 0
M  V30 4092 H 399.695 -0.578775 -1.59525 0
M  V30 4093 H 398.467 -1.01745 -3.77841 0
M  V30 4094 H 398.09 0.692091 -3.9153 0
M  V30 4095 N 399.087 1.5561 -0.249682 0
M  V30 4096 C 400.336 1.98187 0.37479 0
M  V30 4097 C 400.649 1.14111 1.58865 0
M  V30 4098 O 401.855 1.46714 2.28445 0
M  V30 4099 C 400.311 3.52661 0.718192 0
M  V30 4100 C 399.919 4.45481 -0.474428 0
M  V30 4101 C 401.663 4.03888 1.3067 0
M  V30 4102 C 399.57 5.91303 -0.107026 0
M  V30 4103 H 398.5 0.740159 0.143808 0
M  V30 4104 H 401.151 1.80125 -0.350336 0
M  V30 4105 H 399.533 3.66429 1.50152 0
M  V30 4106 H 400.707 4.43473 -1.25172 0
M  V30 4107 H 399.022 4.04751 -0.978052 0
M  V30 4108 H 401.619 5.10358 1.59496 0
M  V30 4109 H 401.962 3.51401 2.23211 0
M  V30 4110 H 402.495 3.93457 0.586211 0
M  V30 4111 H 399.234 6.47833 -0.999642 0
M  V30 4112 H 398.754 5.9644 0.634013 0
M  V30 4113 H 400.433 6.46258 0.309807 0
M  V30 4114 N 400.565 -0.0233959 1.57583 0
M  V30 4115 C 401.795 -0.723631 1.93513 0
M  V30 4116 C 402.203 -1.69115 0.848333 0
M  V30 4117 O 401.546 -1.82781 -0.183484 0
M  V30 4118 C 401.608 -1.53075 3.25282 0
M  V30 4119 C 401.272 -0.727388 4.51174 0
M  V30 4120 C 402.269 -0.0251924 5.19894 0
M  V30 4121 C 399.954 -0.680256 4.97672 0
M  V30 4122 C 401.948 0.713374 6.33395 0
M  V30 4123 C 399.635 0.0620523 6.11068 0
M  V30 4124 C 400.633 0.757622 6.78785 0
M  V30 4125 O 400.321 1.48787 7.90011 0
M  V30 4126 H 400.053 -0.208051 0.643188 0
M  V30 4127 H 402.607 0.0167489 2.05393 0
M  V30 4128 H 400.837 -2.31508 3.09744 0
M  V30 4129 H 402.526 -2.11413 3.46496 0
M  V30 4130 H 403.292 -0.0526003 4.84971 0
M  V30 4131 H 399.171 -1.21116 4.44805 0
M  V30 4132 H 402.715 1.25683 6.86185 0
M  V30 4133 H 398.612 0.0913634 6.45435 0
M  V30 4134 H 399.38 1.40213 8.06401 0
M  V30 4135 N 402.043 -1.548 -0.295768 0
M  V30 4136 C 403.006 -1.85363 -1.34808 0
M  V30 4137 C 404.006 -0.726817 -1.43436 0
M  V30 4138 O 405.196 -0.995088 -1.42981 0
M  V30 4139 C 402.328 -2.03859 -2.73229 0
M  V30 4140 H 403.521 -2.7941 -1.08949 0
M  V30 4141 H 401.074 -1.46942 -0.532702 0
M  V30 4142 H 401.809 -1.12117 -3.04303 0
M  V30 4143 H 401.594 -2.8588 -2.68356 0
M  V30 4144 H 403.084 -2.28857 -3.49305 0
M  V30 4145 N 403.521 0.559213 -1.47345 0
M  V30 4146 C 404.932 1.14134 -1.47751 0
M  V30 4147 C 405.283 1.94834 -0.231103 0
M  V30 4148 O 404.408 2.05957 0.664137 0
M  V30 4149 C 405.003 2.07653 -2.67705 0
M  V30 4150 C 403.562 2.61141 -2.71076 0
M  V30 4151 C 402.709 1.3748 -2.40821 0
M  V30 4152 H 405.66 0.345917 -1.54884 0
M  V30 4153 H 405.681 2.91497 -2.44561 0
M  V30 4154 H 405.193 1.4889 -3.58404 0
M  V30 4155 H 403.294 3.23707 -1.84511 0
M  V30 4156 H 403.407 3.02272 -3.7171 0
M  V30 4157 H 401.771 1.68086 -1.91362 0
M  V30 4158 H 402.554 0.805135 -3.33725 0
M  V30 4159 N 404.999 1.35443 0.805782 0
M  V30 4160 C 406.248 1.28097 1.55801 0
M  V30 4161 C 406.561 -0.142428 1.95081 0
M  V30 4162 O 407.767 -0.33817 2.69386 0
M  V30 4163 C 406.223 2.24653 2.81174 0
M  V30 4164 C 405.831 3.72342 2.49129 0
M  V30 4165 C 407.575 2.2625 3.59181 0
M  V30 4166 C 405.482 4.60719 3.70799 0
M  V30 4167 H 404.412 0.475937 0.584808 0
M  V30 4168 H 407.063 1.60712 0.885661 0
M  V30 4169 H 405.445 1.85011 3.50124 0
M  V30 4170 H 406.619 4.20624 1.88181 0
M  V30 4171 H 404.934 3.73361 1.84366 0
M  V30 4172 H 407.531 2.89495 4.49552 0
M  V30 4173 H 407.874 1.26647 3.96568 0
M  V30 4174 H 408.407 2.64426 2.97193 0
M  V30 4175 H 405.146 5.61324 3.3852 0
M  V30 4176 H 404.666 4.17163 4.3097 0
M  V30 4177 H 406.345 4.76182 4.38018 0
M  V30 4178 N 406.477 -1.02803 1.19454 0
M  V30 4179 C 407.893 -1.28473 0.946937 0
M  V30 4180 C 408.093 -1.97881 -0.380202 0
M  V30 4181 O 407.149 -2.26719 -1.11151 0
M  V30 4182 C 408.462 -2.13099 2.12154 0
M  V30 4183 C 410.01 -2.26404 2.16126 0
M  V30 4184 C 410.485 -3.14402 3.33039 0
M  V30 4185 N 411.976 -3.21991 3.32981 0
M  V30 4186 C 412.711 -3.90272 4.20089 0
M  V30 4187 N 412.207 -4.60777 5.17355 0
M  V30 4188 N 414 -3.8668 4.07964 0
M  V30 4189 H 406.151 -0.561665 2.04839 0
M  V30 4190 H 408.414 -0.310438 0.89573 0
M  V30 4191 H 408.12 -1.69422 3.08203 0
M  V30 4192 H 407.994 -3.13813 2.09287 0
M  V30 4193 H 410.381 -2.69311 1.20647 0
M  V30 4194 H 410.462 -1.25237 2.23045 0
M  V30 4195 H 410.106 -2.72204 4.28798 0
M  V30 4196 H 410.036 -4.1563 3.23356 0
M  V30 4197 H 412.527 -2.71778 2.62574 0
M  V30 4198 H 412.84 -5.10513 5.80169 0
M  V30 4199 H 411.185 -4.5964 5.21302 0
M  V30 4200 H 414.376 -3.30739 3.31254 0
M  V30 4201 H 414.549 -4.39621 4.76064 0
M  V30 4202 N 407.956 -0.998596 -1.21925 0
M  V30 4203 C 409.181 -0.696015 -1.95372 0
M  V30 4204 C 409.606 0.733826 -1.73195 0
M  V30 4205 O 408.964 1.50242 -1.01474 0
M  V30 4206 C 409.012 -1.01466 -3.4603 0
M  V30 4207 O 408.116 -0.116415 -4.12236 0
M  V30 4208 H 407.457 -0.259938 -0.611006 0
M  V30 4209 H 409.987 -1.33711 -1.54863 0
M  V30 4210 H 409.997 -0.958855 -3.96573 0
M  V30 4211 H 408.672 -2.05653 -3.61497 0
M  V30 4212 H 407.249 -0.228193 -3.72201 0
M  V30 4213 N 409.434 1.37368 -0.772513 0
M  V30 4214 C 410.682 1.99279 -0.336516 0
M  V30 4215 C 411.003 1.6163 1.09091 0
M  V30 4216 O 410.273 0.882109 1.74916 0
M  V30 4217 H 408.853 0.737063 -0.121435 0
M  V30 4218 H 411.515 1.67836 -0.990809 0
M  V30 4219 H 410.611 3.09332 -0.414763 0
M  V30 4220 N 410.912 0.523116 1.48665 0
M  V30 4221 C 412.14 -0.0096312 2.06898 0
M  V30 4222 C 412.555 -1.28784 1.38059 0
M  V30 4223 O 411.912 -1.76453 0.465893 0
M  V30 4224 C 411.963 -0.244386 3.60673 0
M  V30 4225 O 411.684 0.983172 4.26925 0
M  V30 4226 C 413.185 -0.818289 4.35682 0
M  V30 4227 H 410.405 0.0304161 0.67031 0
M  V30 4228 H 412.949 0.726799 1.91149 0
M  V30 4229 H 411.104 -0.930847 3.76051 0
M  V30 4230 H 411.518 0.759653 5.1897 0
M  V30 4231 H 412.992 -0.93201 5.44075 0
M  V30 4232 H 413.469 -1.82153 3.99646 0
M  V30 4233 H 414.075 -0.168609 4.24966 0
M  V30 4234 N 412.39 -1.55475 0.257931 0
M  V30 4235 C 413.667 -1.91155 -0.414629 0
M  V30 4236 C 414.047 -1.18008 -1.75035 0
M  V30 4237 O 413.395 -0.301193 -2.26506 0
M  V30 4238 C 413.605 -3.44283 -0.571859 0
M  V30 4239 C 414.953 -4.15744 -0.862678 0
M  V30 4240 O 415.977 -3.50083 -0.657314 0
M  V30 4241 O 414.836 -5.31909 -1.2544 0
M  V30 4242 H 411.93 -0.796016 -0.22425 0
M  V30 4243 H 414.476 -1.66976 0.302814 0
M  V30 4244 H 413.248 -3.89558 0.368844 0
M  V30 4245 H 412.871 -3.7436 -1.33943 0
M  V30 4246 N 413.868 0.0150385 -1.57593 0
M  V30 4247 C 415.117 0.702115 -1.89085 0
M  V30 4248 C 415.43 1.75764 -0.858277 0
M  V30 4249 O 416.636 2.49829 -1.0629 0
M  V30 4250 C 415.092 1.29992 -3.35604 0
M  V30 4251 C 414.7 0.280007 -4.47124 0
M  V30 4252 C 416.444 1.96606 -3.76227 0
M  V30 4253 C 414.351 0.886949 -5.84711 0
M  V30 4254 H 413.281 0.265997 -0.705522 0
M  V30 4255 H 415.932 -0.0430408 -1.8345 0
M  V30 4256 H 414.314 2.09525 -3.36029 0
M  V30 4257 H 415.488 -0.489631 -4.58191 0
M  V30 4258 H 413.803 -0.284835 -4.15425 0
M  V30 4259 H 416.4 2.42893 -4.76347 0
M  V30 4260 H 416.743 2.79024 -3.08952 0
M  V30 4261 H 417.276 1.23828 -3.78036 0
M  V30 4262 H 414.015 0.101876 -6.55421 0
M  V30 4263 H 413.535 1.6261 -5.77337 0
M  V30 4264 H 415.214 1.39011 -6.3189 0
M  V30 4265 N 415.346 1.54954 0.287554 0
M  V30 4266 C 416.574 1.78881 1.03967 0
M  V30 4267 C 416.989 0.554894 1.80462 0
M  V30 4268 O 416.346 -0.475676 1.76192 0
M  V30 4269 C 416.397 3.00488 2.0097 0
M  V30 4270 O 416.118 4.19113 1.27577 0
M  V30 4271 C 417.619 3.36907 2.88112 0
M  V30 4272 H 414.839 0.596259 0.307761 0
M  V30 4273 H 417.383 2.01937 0.322749 0
M  V30 4274 H 415.538 2.79601 2.68145 0
M  V30 4275 H 415.952 4.87765 1.92835 0
M  V30 4276 H 417.426 4.25205 3.52001 0
M  V30 4277 H 417.903 2.55659 3.57121 0
M  V30 4278 H 418.509 3.60001 2.26449 0
M  V30 4279 N 416.824 -0.551391 1.4764 0
M  V30 4280 C 418.071 -1.3083 1.54563 0
M  V30 4281 C 418.399 -1.93359 0.210361 0
M  V30 4282 O 417.654 -1.78721 -0.797332 0
M  V30 4283 C 417.953 -2.43469 2.61644 0
M  V30 4284 C 417.619 -1.98732 4.04742 0
M  V30 4285 C 416.281 -1.86248 4.43695 0
M  V30 4286 C 418.633 -1.64659 4.94507 0
M  V30 4287 C 415.961 -1.37995 5.70241 0
M  V30 4288 C 418.313 -1.17875 6.21521 0
M  V30 4289 C 416.977 -1.03992 6.5935 0
M  V30 4290 H 416.247 -0.478741 0.565587 0
M  V30 4291 H 418.894 -0.617697 1.81264 0
M  V30 4292 H 417.199 -3.18109 2.28722 0
M  V30 4293 H 418.896 -3.01642 2.64222 0
M  V30 4294 H 415.486 -2.09393 3.73968 0
M  V30 4295 H 419.67 -1.73174 4.65107 0
M  V30 4296 H 414.926 -1.25915 5.98294 0
M  V30 4297 H 419.1 -0.905739 6.90485 0
M  V30 4298 H 416.727 -0.663794 7.57296 0
M  V30 4299 N 418.302 -1.35869 -0.798587 0
M  V30 4300 C 419.232 -1.32118 -1.92528 0
M  V30 4301 C 420.213 -0.194209 -1.68988 0
M  V30 4302 O 421.398 -0.390426 -1.90235 0
M  V30 4303 C 418.528 -1.10047 -3.29404 0
M  V30 4304 C 417.482 -2.19471 -3.67446 0
M  V30 4305 C 416.808 -1.82555 -5.02571 0
M  V30 4306 C 418.108 -3.61495 -3.76987 0
M  V30 4307 H 419.802 -2.26394 -1.95924 0
M  V30 4308 H 417.348 -1.08981 -0.94123 0
M  V30 4309 H 419.301 -1.06061 -4.07835 0
M  V30 4310 H 418.025 -0.122195 -3.26371 0
M  V30 4311 H 416.684 -2.22568 -2.91306 0
M  V30 4312 H 416.332 -0.833249 -4.9605 0
M  V30 4313 H 416.032 -2.5581 -5.28995 0
M  V30 4314 H 417.556 -1.80108 -5.83432 0
M  V30 4315 H 418.97 -3.60676 -4.4563 0
M  V30 4316 H 417.367 -4.33577 -4.14887 0
M  V30 4317 H 418.437 -3.97065 -2.78329 0
M  V30 4318 N 419.78 1.02168 -1.19998 0
M  V30 4319 C 421.005 1.79833 -1.03319 0
M  V30 4320 C 421.43 1.83504 0.413281 0
M  V30 4321 O 420.788 1.26635 1.29743 0
M  V30 4322 C 420.836 3.22396 -1.61533 0
M  V30 4323 O 419.94 4.03555 -0.849519 0
M  V30 4324 H 419.281 0.554872 -0.364709 0
M  V30 4325 H 421.811 1.28542 -1.59179 0
M  V30 4326 H 421.821 3.73124 -1.65054 0
M  V30 4327 H 420.496 3.19039 -2.66809 0
M  V30 4328 H 419.073 3.62169 -0.888129 0
M  V30 4329 N 421.258 1.00505 1.21394 0
M  V30 4330 C 422.506 0.686415 1.90086 0
M  V30 4331 C 422.827 -0.785264 1.7849 0
M  V30 4332 O 422.097 -1.56387 1.17983 0
M  V30 4333 H 420.677 0.2509 0.703604 0
M  V30 4334 H 423.339 1.27417 1.47482 0
M  V30 4335 H 422.435 0.959621 2.96981 0
M  V30 4336 N 422.737 -1.36956 0.779787 0
M  V30 4337 C 423.983 -1.99787 0.348281 0
M  V30 4338 C 424.316 -1.61756 -1.07465 0
M  V30 4339 O 423.591 -0.867639 -1.74075 0
M  V30 4340 C 423.874 -3.56597 0.50104 0
M  V30 4341 C 423.727 -4.04513 1.96697 0
M  V30 4342 C 425.046 -4.40008 -0.0898097 0
M  V30 4343 H 422.165 -0.725796 0.128022 0
M  V30 4344 H 424.807 -1.62514 0.984331 0
M  V30 4345 H 422.957 -3.88479 -0.0404347 0
M  V30 4346 H 424.629 -3.83161 2.56876 0
M  V30 4347 H 422.872 -3.56408 2.47297 0
M  V30 4348 H 423.543 -5.1352 2.02486 0
M  V30 4349 H 426.019 -4.14431 0.372293 0
M  V30 4350 H 424.895 -5.4888 0.0471605 0
M  V30 4351 H 425.156 -4.26035 -1.18096 0
M  V30 4352 N 424.215 -0.530993 -1.48385 0
M  V30 4353 C 425.145 0.219985 -2.32461 0
M  V30 4354 C 426.126 0.934111 -1.42156 0
M  V30 4355 O 427.311 0.919694 -1.71042 0
M  V30 4356 C 424.441 1.26674 -3.23375 0
M  V30 4357 C 423.395 0.67069 -4.22712 0
M  V30 4358 C 422.721 1.82017 -5.02766 0
M  V30 4359 C 424.021 -0.358268 -5.2107 0
M  V30 4360 H 425.715 -0.48187 -2.95497 0
M  V30 4361 H 423.261 -0.233182 -1.42099 0
M  V30 4362 H 425.214 1.80006 -3.81019 0
M  V30 4363 H 423.938 1.99818 -2.58341 0
M  V30 4364 H 422.597 0.158878 -3.66256 0
M  V30 4365 H 422.245 2.54002 -4.34157 0
M  V30 4366 H 421.945 1.42727 -5.70003 0
M  V30 4367 H 423.469 2.35725 -5.63264 0
M  V30 4368 H 424.883 0.0880081 -5.73232 0
M  V30 4369 H 423.28 -0.66861 -5.96364 0
M  V30 4370 H 424.35 -1.26367 -4.68145 0
M  V30 4371 N 425.693 1.55336 -0.266172 0
M  V30 4372 C 427.109 1.59356 0.0882065 0
M  V30 4373 C 427.309 1.2834 1.55342 0
M  V30 4374 O 426.365 1.03996 2.30089 0
M  V30 4375 C 427.678 2.99409 -0.278364 0
M  V30 4376 C 429.226 3.12196 -0.224243 0
M  V30 4377 C 429.701 4.545 -0.565123 0
M  V30 4378 N 431.192 4.60313 -0.51634 0
M  V30 4379 C 431.927 5.68434 -0.753013 0
M  V30 4380 N 431.423 6.84738 -1.05383 0
M  V30 4381 N 433.216 5.57942 -0.682414 0
M  V30 4382 H 425.367 1.73764 -1.22147 0
M  V30 4383 H 427.63 0.809822 -0.492841 0
M  V30 4384 H 427.336 3.2691 -1.29703 0
M  V30 4385 H 427.21 3.75228 0.385186 0
M  V30 4386 H 429.597 2.84464 0.78512 0
M  V30 4387 H 429.678 2.38609 -0.921922 0
M  V30 4388 H 429.322 4.82956 -1.57213 0
M  V30 4389 H 429.252 5.26374 0.154248 0
M  V30 4390 H 431.743 3.7676 -0.29335 0
M  V30 4391 H 432.056 7.63088 -1.22133 0
M  V30 4392 H 430.401 6.86375 -1.09151 0
M  V30 4393 H 433.592 4.65958 -0.44731 0
M  V30 4394 H 433.765 6.4213 -0.870248 0
M  V30 4395 N 427.171 -0.0066808 1.57599 0
M  V30 4396 C 428.401 -0.703066 1.94269 0
M  V30 4397 C 428.809 -1.68206 0.866222 0
M  V30 4398 O 428.152 -1.82966 -0.164087 0
M  V30 4399 C 428.214 -1.49616 3.26887 0
M  V30 4400 C 427.878 -0.679494 4.5192 0
M  V30 4401 C 428.875 0.0299508 5.19891 0
M  V30 4402 C 426.56 -0.627433 4.98366 0
M  V30 4403 C 428.554 0.780514 6.32603 0
M  V30 4404 C 426.241 0.126861 6.10968 0
M  V30 4405 C 427.239 0.829574 6.77943 0
M  V30 4406 O 426.927 1.57157 7.88389 0
M  V30 4407 H 426.659 -0.201217 0.645359 0
M  V30 4408 H 429.213 0.0385326 2.05364 0
M  V30 4409 H 427.443 -2.28209 3.12182 0
M  V30 4410 H 429.132 -2.07726 3.48719 0
M  V30 4411 H 429.898 -0.00115963 4.85 0
M  V30 4412 H 425.777 -1.16392 4.46065 0
M  V30 4413 H 429.321 1.32954 6.84813 0
M  V30 4414 H 425.218 0.159815 6.45302 0
M  V30 4415 H 425.986 1.48758 8.04868 0
M  V30 4416 N 428.649 -1.55105 -0.279332 0
M  V30 4417 C 429.579 -1.90557 -1.34945 0
M  V30 4418 C 430.56 -0.766738 -1.51839 0
M  V30 4419 O 431.745 -1.02434 -1.64988 0
M  V30 4420 C 428.875 -2.17193 -2.71006 0
M  V30 4421 C 427.829 -3.33021 -2.68851 0
M  V30 4422 C 427.155 -3.45123 -4.08405 0
M  V30 4423 C 428.455 -4.69578 -2.28678 0
M  V30 4424 H 430.149 -2.80188 -1.05522 0
M  V30 4425 H 427.695 -1.34811 -0.506173 0
M  V30 4426 H 429.648 -2.40581 -3.45975 0
M  V30 4427 H 428.372 -1.24355 -3.01999 0
M  V30 4428 H 427.031 -3.0959 -1.9634 0
M  V30 4429 H 426.679 -2.49762 -4.3661 0
M  V30 4430 H 426.379 -4.22995 -4.07859 0
M  V30 4431 H 427.903 -3.70796 -4.85121 0
M  V30 4432 H 429.317 -4.92553 -2.93368 0
M  V30 4433 H 427.714 -5.5032 -2.39306 0
M  V30 4434 H 428.784 -4.68828 -1.23807 0
M  V30 4435 N 430.127 0.543554 -1.4793 0
M  V30 4436 C 431.376 1.29649 -1.54512 0
M  V30 4437 C 431.689 1.94382 -0.217973 0
M  V30 4438 O 432.895 2.71017 -0.161908 0
M  V30 4439 C 431.351 2.35175 -2.72435 0
M  V30 4440 C 430.959 1.76572 -4.11736 0
M  V30 4441 C 432.703 3.11564 -2.8832 0
M  V30 4442 C 430.61 2.79958 -5.20939 0
M  V30 4443 H 429.54 0.487541 -0.57517 0
M  V30 4444 H 432.191 0.575708 -1.74235 0
M  V30 4445 H 430.573 3.10229 -2.46118 0
M  V30 4446 H 431.747 1.07799 -4.48013 0
M  V30 4447 H 430.062 1.12722 -4.00852 0
M  V30 4448 H 432.659 3.88794 -3.67074 0
M  V30 4449 H 433.002 3.66594 -1.97268 0
M  V30 4450 H 433.535 2.43623 -3.14472 0
M  V30 4451 H 430.274 2.29766 -6.13912 0
M  V30 4452 H 429.794 3.47101 -4.89164 0
M  V30 4453 H 431.473 3.43198 -5.48474 0
M  V30 4454 N 431.605 1.3629 0.791371 0
M  V30 4455 C 432.515 1.32606 1.93527 0
M  V30 4456 C 433.531 0.228541 1.72493 0
M  V30 4457 O 434.707 0.460571 1.96063 0
M  V30 4458 C 431.772 1.11271 3.28359 0
M  V30 4459 C 430.833 2.3048 3.62185 0
M  V30 4460 C 430.066 2.10154 4.90583 0
M  V30 4461 O 430.289 1.07572 5.60165 0
M  V30 4462 O 429.223 2.97884 5.23019 0
M  V30 4463 H 433.049 2.28909 1.99585 0
M  V30 4464 H 430.634 1.16818 0.931344 0
M  V30 4465 H 432.516 1.01283 4.09047 0
M  V30 4466 H 431.191 0.180292 3.23198 0
M  V30 4467 H 430.098 2.46036 2.81811 0
M  V30 4468 H 431.431 3.22221 3.72068 0
M  V30 4469 N 433.083 -1.0153 1.20538 0
M  V30 4470 C 434.031 -2.12215 0.952235 0
M  V30 4471 C 435.025 -1.69123 -0.0968735 0
M  V30 4472 O 436.231 -1.7992 0.0536006 0
M  V30 4473 H 432.606 -0.693576 0.290613 0
M  V30 4474 H 434.577 -2.3075 1.89201 0
M  V30 4475 C 433.326 -3.43755 0.522287 0
M  V30 4476 H 432.649 -3.7734 1.32115 0
M  V30 4477 H 434.089 -4.22254 0.384389 0
M  V30 4478 C 432.548 -3.28088 -0.765489 0
M  V30 4479 O 433.078 -3.57921 -1.8236 0
M  V30 4480 N 431.284 -2.81333 -0.728011 0
M  V30 4481 H 430.831 -2.57255 0.133332 0
M  V30 4482 H 430.789 -2.71232 -1.58999 0
M  V30 4483 N 434.561 -1.01147 -1.20859 0
M  V30 4484 C 435.509 -0.57059 -2.25493 0
M  V30 4485 C 436.503 0.388109 -1.64894 0
M  V30 4486 O 437.709 0.258592 -1.78133 0
M  V30 4487 H 434.084 -0.166191 -0.733406 0
M  V30 4488 H 436.055 -1.46411 -2.60012 0
M  V30 4489 C 434.804 0.0805241 -3.47607 0
M  V30 4490 H 434.127 -0.648156 -3.94511 0
M  V30 4491 H 435.567 0.352197 -4.22535 0
M  V30 4492 C 434.026 1.32175 -3.09889 0
M  V30 4493 O 434.556 2.41553 -3.20959 0
M  V30 4494 N 432.762 1.20392 -2.64488 0
M  V30 4495 H 432.309 0.313905 -2.5568 0
M  V30 4496 H 432.267 2.03541 -2.39621 0
M  V30 4497 N 436.039 1.36541 -0.78704 0
M  V30 4498 C 436.986 2.30082 -0.181901 0
M  V30 4499 C 437.956 1.5186 0.672896 0
M  V30 4500 O 439.141 1.80374 0.622072 0
M  V30 4501 C 436.281 3.3835 0.679197 0
M  V30 4502 C 435.394 4.31565 -0.193882 0
M  V30 4503 C 434.529 5.26915 0.673364 0
M  V30 4504 C 433.568 6.11769 -0.201315 0
M  V30 4505 N 432.705 6.99315 0.624777 0
M  V30 4506 H 437.545 2.81248 -0.985064 0
M  V30 4507 H 435.082 1.38437 -0.497342 0
M  V30 4508 H 437.04 3.99767 1.19341 0
M  V30 4509 H 435.67 2.8851 1.44781 0
M  V30 4510 H 434.722 3.71323 -0.826044 0
M  V30 4511 H 436.034 4.91191 -0.867937 0
M  V30 4512 H 435.188 5.9361 1.25348 0
M  V30 4513 H 433.927 4.67737 1.38105 0
M  V30 4514 H 432.932 5.44039 -0.793849 0
M  V30 4515 H 434.157 6.73022 -0.906568 0
M  V30 4516 H 432.103 6.42648 1.3168 0
M  V30 4517 H 432.02 7.56 0.00835237 0
M  V30 4518 H 433.288 7.70382 1.18879 0
M  V30 4519 N 437.518 0.538854 1.48102 0
M  V30 4520 C 438.767 0.0059532 2.01699 0
M  V30 4521 C 439.08 -1.34476 1.42041 0
M  V30 4522 O 440.286 -1.96653 1.87189 0
M  V30 4523 C 438.742 -0.0397627 3.59878 0
M  V30 4524 C 438.35 1.30659 4.28523 0
M  V30 4525 C 440.094 -0.521024 4.2129 0
M  V30 4526 C 438.001 1.22098 5.78659 0
M  V30 4527 H 436.931 -0.00154456 0.753998 0
M  V30 4528 H 439.582 0.683963 1.70277 0
M  V30 4529 H 437.964 -0.783037 3.88181 0
M  V30 4530 H 439.138 2.06613 4.11883 0
M  V30 4531 H 437.453 1.7243 3.79021 0
M  V30 4532 H 440.05 -0.603184 5.31287 0
M  V30 4533 H 440.393 -1.52885 3.8721 0
M  V30 4534 H 440.926 0.166834 3.9745 0
M  V30 4535 H 437.665 2.20424 6.17328 0
M  V30 4536 H 437.185 0.50295 5.97688 0
M  V30 4537 H 438.864 0.915345 6.40492 0
M  V30 4538 N 438.996 -1.55193 0.274407 0
M  V30 4539 C 439.944 -2.23924 -0.629362 0
M  V30 4540 C 440.938 -1.23602 -1.1584 0
M  V30 4541 O 442.144 -1.41535 -1.11211 0
M  V30 4542 H 438.519 -0.718637 -0.221507 0
M  V30 4543 H 440.49 -2.98388 -0.0268322 0
M  V30 4544 C 439.239 -2.97329 -1.80252 0
M  V30 4545 H 438.562 -3.74313 -1.40462 0
M  V30 4546 H 440.002 -3.48743 -2.41152 0
M  V30 4547 C 438.461 -2.0276 -2.69054 0
M  V30 4548 O 438.991 -1.57836 -3.69392 0
M  V30 4549 N 437.197 -1.69275 -2.36208 0
M  V30 4550 H 436.744 -2.06004 -1.54661 0
M  V30 4551 H 436.702 -1.06271 -2.95895 0
M  V30 4552 N 440.474 -0.00167713 -1.576 0
M  V30 4553 C 441.437 0.974046 -2.07473 0
M  V30 4554 C 442.437 1.27143 -0.984444 0
M  V30 4555 O 443.627 1.21633 -1.24703 0
M  V30 4556 C 440.759 2.29849 -2.51759 0
M  V30 4557 H 441.952 0.54262 -2.9495 0
M  V30 4558 H 439.505 0.245829 -1.54355 0
M  V30 4559 H 440.24 2.77677 -1.67529 0
M  V30 4560 H 440.025 2.09584 -3.31386 0
M  V30 4561 H 441.515 2.9984 -2.90664 0
M  V30 4562 N 441.952 1.55251 0.271103 0
M  V30 4563 C 442.862 1.9136 1.35714 0
M  V30 4564 C 443.878 0.811075 1.5394 0
M  V30 4565 O 445.054 1.11031 1.6803 0
M  V30 4566 C 442.119 2.1798 2.69603 0
M  V30 4567 C 441.18 3.4153 2.60107 0
M  V30 4568 C 440.413 3.66871 3.8761 0
M  V30 4569 O 440.636 2.94689 4.8838 0
M  V30 4570 O 439.57 4.60405 3.87699 0
M  V30 4571 H 443.396 2.83815 1.08088 0
M  V30 4572 H 440.981 1.41821 0.469792 0
M  V30 4573 H 442.863 2.36518 3.48765 0
M  V30 4574 H 441.538 1.28708 2.97012 0
M  V30 4575 H 440.445 3.28325 1.79314 0
M  V30 4576 H 441.778 4.31027 2.37647 0
M  V30 4577 N 443.43 -0.535701 1.48216 0
M  V30 4578 C 444.66 -1.3148 1.59363 0
M  V30 4579 C 445.068 -1.8753 0.250844 0
M  V30 4580 O 444.411 -1.66821 -0.769174 0
M  V30 4581 C 444.473 -2.50731 2.57632 0
M  V30 4582 C 444.137 -2.15811 4.02833 0
M  V30 4583 C 445.134 -1.71822 4.90686 0
M  V30 4584 C 442.819 -2.26509 4.48329 0
M  V30 4585 C 444.813 -1.3899 6.22062 0
M  V30 4586 C 442.5 -1.93289 5.79726 0
M  V30 4587 C 443.498 -1.49599 6.66415 0
M  V30 4588 O 443.186 -1.16812 7.95368 0
M  V30 4589 H 442.918 -0.406315 0.540263 0
M  V30 4590 H 445.472 -0.653569 1.94725 0
M  V30 4591 H 443.702 -3.19817 2.1738 0
M  V30 4592 H 445.391 -3.12797 2.58675 0
M  V30 4593 H 446.157 -1.63031 4.56778 0
M  V30 4594 H 442.036 -2.59471 3.81045 0
M  V30 4595 H 445.58 -1.04816 6.89681 0
M  V30 4596 H 441.477 -2.01718 6.13172 0
M  V30 4597 H 442.245 -1.30259 8.08069 0
M  V30 4598 N 444.908 -1.36708 -0.784132 0
M  V30 4599 C 446.154 -1.31426 -1.54451 0
M  V30 4600 C 446.487 0.10476 -1.93917 0
M  V30 4601 O 445.762 1.05934 -1.6312 0
M  V30 4602 C 446.045 -2.24189 -2.818 0
M  V30 4603 C 445.898 -3.74813 -2.48667 0
M  V30 4604 C 447.217 -2.15626 -3.83658 0
M  V30 4605 H 444.336 -0.478739 -0.560337 0
M  V30 4606 H 446.978 -1.67305 -0.900498 0
M  V30 4607 H 445.128 -1.93722 -3.36755 0
M  V30 4608 H 446.8 -4.15823 -1.99722 0
M  V30 4609 H 445.043 -3.93989 -1.81535 0
M  V30 4610 H 445.714 -4.35138 -3.39646 0
M  V30 4611 H 448.19 -2.42456 -3.38163 0
M  V30 4612 H 447.066 -2.82694 -4.70506 0
M  V30 4613 H 447.327 -1.14522 -4.27009 0
M  V30 4614 N 446.386 1.0089 -1.21074 0
M  V30 4615 C 447.333 2.09588 -0.966512 0
M  V30 4616 C 448.303 1.65761 0.106089 0
M  V30 4617 O 449.488 1.90758 -0.0402287 0
M  V30 4618 C 446.628 3.40958 -0.533058 0
M  V30 4619 C 445.741 3.9822 -1.67467 0
M  V30 4620 C 444.876 5.17682 -1.19076 0
M  V30 4621 C 443.915 5.67043 -2.30496 0
M  V30 4622 N 443.052 6.77759 -1.83267 0
M  V30 4623 H 447.892 2.29815 -1.89708 0
M  V30 4624 H 445.429 1.12689 -0.945489 0
M  V30 4625 H 447.387 4.1637 -0.263019 0
M  V30 4626 H 446.017 3.20781 0.360505 0
M  V30 4627 H 445.069 3.1983 -2.05944 0
M  V30 4628 H 446.381 4.3085 -2.51336 0
M  V30 4629 H 445.535 6.00326 -0.877151 0
M  V30 4630 H 444.274 4.86635 -0.322066 0
M  V30 4631 H 443.279 4.82999 -2.62664 0
M  V30 4632 H 444.504 6.00121 -3.17855 0
M  V30 4633 H 442.45 6.48527 -0.987356 0
M  V30 4634 H 442.367 7.09624 -2.60711 0
M  V30 4635 H 443.635 7.63949 -1.54928 0
M  V30 4636 N 447.864 1.01787 1.20321 0
M  V30 4637 C 448.814 0.559976 2.21016 0
M  V30 4638 C 449.798 -0.385366 1.56217 0
M  V30 4639 O 450.99 -0.208126 1.75772 0
M  V30 4640 C 448.119 -0.0990553 3.43157 0
M  V30 4641 C 447.205 0.86807 4.15121 0
M  V30 4642 N 447.596 2.0261 4.63447 0
M  V30 4643 C 445.894 0.689162 4.40643 0
M  V30 4644 C 446.595 2.63518 5.18588 0
M  V30 4645 N 445.571 1.91569 5.08726 0
M  V30 4646 H 449.373 1.44281 2.56048 0
M  V30 4647 H 446.887 0.883381 1.36272 0
M  V30 4648 H 448.884 -0.444643 4.14522 0
M  V30 4649 H 447.544 -0.977709 3.0963 0
M  V30 4650 H 448.555 2.40598 4.58621 0
M  V30 4651 H 445.232 -0.14133 4.17261 0
M  V30 4652 H 446.622 3.61527 5.66346 0
M  V30 4653 N 449.342 -1.36122 0.79427 0
M  V30 4654 C 450.572 -2.03067 0.380437 0
M  V30 4655 C 450.98 -1.60018 -1.00949 0
M  V30 4656 O 450.323 -0.787425 -1.65968 0
M  V30 4657 C 450.385 -3.57587 0.37034 0
M  V30 4658 C 450.049 -4.23855 1.70867 0
M  V30 4659 C 451.046 -4.46404 2.66496 0
M  V30 4660 C 448.731 -4.61229 1.9893 0
M  V30 4661 C 450.725 -5.05412 3.88378 0
M  V30 4662 C 448.412 -5.19953 3.21079 0
M  V30 4663 C 449.41 -5.41985 4.15621 0
M  V30 4664 O 449.098 -5.99475 5.35616 0
M  V30 4665 H 448.83 -0.658168 0.154243 0
M  V30 4666 H 451.384 -1.7498 1.0757 0
M  V30 4667 H 449.614 -3.84814 -0.381444 0
M  V30 4668 H 451.303 -4.05895 -0.0194894 0
M  V30 4669 H 452.069 -4.17921 2.46103 0
M  V30 4670 H 447.948 -4.43402 1.26158 0
M  V30 4671 H 451.492 -5.22524 4.62185 0
M  V30 4672 H 447.389 -5.47862 3.41347 0
M  V30 4673 H 448.157 -6.17937 5.36745 0
M  V30 4674 N 450.82 -0.546701 -1.47814 0
M  V30 4675 C 452.048 -0.0232857 -2.06887 0
M  V30 4676 C 452.463 1.26571 -1.4009 0
M  V30 4677 O 451.82 1.7569 -0.493906 0
M  V30 4678 C 451.871 0.186975 -3.61016 0
M  V30 4679 O 451.592 -1.05097 -4.25307 0
M  V30 4680 C 453.093 0.748872 -4.36929 0
M  V30 4681 H 450.313 -0.0410763 -0.669742 0
M  V30 4682 H 452.857 -0.757117 -1.89968 0
M  V30 4683 H 451.012 0.870903 -3.77484 0
M  V30 4684 H 451.426 -0.842121 -5.17695 0
M  V30 4685 H 452.9 0.845334 -5.45489 0
M  V30 4686 H 453.377 1.75772 -4.02493 0
M  V30 4687 H 453.983 0.100979 -4.2518 0
M  V30 4688 N 452.299 1.55045 -0.282633 0
M  V30 4689 C 453.247 2.24254 0.617478 0
M  V30 4690 C 454.241 1.24215 1.15183 0
M  V30 4691 O 455.447 1.42123 1.10459 0
M  V30 4692 H 451.822 0.719801 0.217693 0
M  V30 4693 H 453.793 2.98398 0.0110076 0
M  V30 4694 C 452.542 2.98281 1.78672 0
M  V30 4695 H 451.865 3.75053 1.38475 0
M  V30 4696 H 453.305 3.50017 2.393 0
M  V30 4697 C 451.764 2.04184 2.67975 0
M  V30 4698 O 452.294 1.59792 3.6855 0
M  V30 4699 N 450.5 1.70526 2.35307 0
M  V30 4700 H 450.047 2.06821 1.53567 0
M  V30 4701 H 450.005 1.07839 2.95327 0
M  V30 4702 N 453.777 0.010035 1.57597 0
M  V30 4703 C 454.74 -0.963029 2.07986 0
M  V30 4704 C 455.74 -1.26619 0.991173 0
M  V30 4705 O 456.93 -1.2097 1.25347 0
M  V30 4706 C 454.062 -2.2851 2.52974 0
M  V30 4707 H 455.255 -0.526971 2.95234 0
M  V30 4708 H 452.808 -0.237639 1.54483 0
M  V30 4709 H 453.543 -2.76784 1.69 0
M  V30 4710 H 453.328 -2.07824 3.32493 0
M  V30 4711 H 454.818 -2.98294 2.9225 0
M  V30 4712 N 455.255 -1.55392 -0.262866 0
M  V30 4713 C 456.48 -1.80847 -1.01533 0
M  V30 4714 C 456.905 -0.584946 -1.78774 0
M  V30 4715 O 456.263 0.465701 -1.75217 0
M  V30 4716 C 456.311 -3.03866 -1.94159 0
M  V30 4717 O 455.415 -2.79662 -3.03089 0
M  V30 4718 H 454.756 -0.597441 -0.289759 0
M  V30 4719 H 457.286 -2.02553 -0.288698 0
M  V30 4720 H 457.296 -3.32872 -2.35924 0
M  V30 4721 H 455.971 -3.92564 -1.37354 0
M  V30 4722 H 454.548 -2.61781 -2.65566 0
M  V30 4723 N 456.733 0.527833 -1.48498 0
M  V30 4724 C 457.663 1.64136 -1.66077 0
M  V30 4725 C 458.644 1.62286 -0.509625 0
M  V30 4726 O 459.829 1.79449 -0.742413 0
M  V30 4727 C 456.959 3.02717 -1.70234 0
M  V30 4728 C 455.913 3.19426 -2.8487 0
M  V30 4729 C 455.239 4.5909 -2.74118 0
M  V30 4730 C 456.539 3.01993 -4.26142 0
M  V30 4731 H 458.233 1.4968 -2.593 0
M  V30 4732 H 455.779 0.718654 -1.24785 0
M  V30 4733 H 457.732 3.80491 -1.8112 0
M  V30 4734 H 456.456 3.18201 -0.735911 0
M  V30 4735 H 455.115 2.4407 -2.73542 0
M  V30 4736 H 454.763 4.71413 -1.7544 0
M  V30 4737 H 454.463 4.71214 -3.51042 0
M  V30 4738 H 455.987 5.3896 -2.86974 0
M  V30 4739 H 457.401 3.69558 -4.38292 0
M  V30 4740 H 455.798 3.2561 -5.04082 0
M  V30 4741 H 456.868 1.98396 -4.42456 0
M  V30 4742 N 458.211 1.37122 0.776871 0
M  V30 4743 C 459.141 1.35164 1.90402 0
M  V30 4744 C 460.122 0.221069 1.68657 0
M  V30 4745 O 461.307 0.420642 1.8959 0
M  V30 4746 C 458.437 1.15274 3.27611 0
M  V30 4747 C 457.391 2.25289 3.63908 0
M  V30 4748 C 456.717 1.90527 4.99603 0
M  V30 4749 C 458.017 3.67446 3.71188 0
M  V30 4750 H 459.711 2.29482 1.92297 0
M  V30 4751 H 457.257 1.10465 0.923773 0
M  V30 4752 H 459.21 1.12536 4.06096 0
M  V30 4753 H 457.934 0.174102 3.26136 0
M  V30 4754 H 456.593 2.27174 2.87728 0
M  V30 4755 H 456.241 0.91206 4.94662 0
M  V30 4756 H 455.941 2.64193 5.24858 0
M  V30 4757 H 457.465 1.89367 5.80493 0
M  V30 4758 H 458.879 3.67719 4.39836 0
M  V30 4759 H 457.276 4.40123 4.07936 0
M  V30 4760 H 458.346 4.01443 2.71977 0
M  V30 4761 N 459.689 -1.00246 1.21608 0
M  V30 4762 C 460.935 -1.74319 1.03638 0
M  V30 4763 C 461.268 -1.89408 -0.428749 0
M  V30 4764 O 460.543 -1.43026 -1.3181 0
M  V30 4765 C 460.826 -3.15431 1.73711 0
M  V30 4766 C 460.679 -3.08049 3.27759 0
M  V30 4767 C 461.998 -4.14407 1.48173 0
M  V30 4768 H 459.117 -0.632741 0.377899 0
M  V30 4769 H 461.759 -1.16853 1.49818 0
M  V30 4770 H 459.909 -3.64493 1.34452 0
M  V30 4771 H 461.581 -2.66681 3.76403 0
M  V30 4772 H 459.824 -2.45088 3.57931 0
M  V30 4773 H 460.495 -4.07862 3.71958 0
M  V30 4774 H 462.971 -3.74061 1.82258 0
M  V30 4775 H 461.847 -5.11279 1.99713 0
M  V30 4776 H 462.108 -4.40174 0.412273 0
M  V30 4777 N 461.167 -1.02423 -1.1978 0
M  V30 4778 C 462.583 -0.740459 -1.41384 0
M  V30 4779 C 462.783 0.676827 -1.89793 0
M  V30 4780 O 461.839 1.4435 -2.0717 0
M  V30 4781 C 463.152 -1.77264 -2.42895 0
M  V30 4782 C 464.7 -1.79165 -2.56649 0
M  V30 4783 C 465.175 -2.8133 -3.6141 0
M  V30 4784 N 466.666 -2.80118 -3.68901 0
M  V30 4785 C 467.401 -3.55824 -4.49641 0
M  V30 4786 N 466.897 -4.41231 -5.34123 0
M  V30 4787 N 468.69 -3.44387 -4.44246 0
M  V30 4788 H 460.841 -1.9391 -0.866764 0
M  V30 4789 H 463.104 -0.838074 -0.443098 0
M  V30 4790 H 462.81 -2.7884 -2.14339 0
M  V30 4791 H 462.684 -1.59108 -3.42001 0
M  V30 4792 H 465.071 -0.782702 -2.84531 0
M  V30 4793 H 465.152 -2.01396 -1.57713 0
M  V30 4794 H 464.796 -3.82394 -3.34271 0
M  V30 4795 H 464.726 -2.56359 -4.59986 0
M  V30 4796 H 467.217 -2.1817 -3.08562 0
M  V30 4797 H 467.53 -4.95747 -5.92836 0
M  V30 4798 H 465.875 -4.45306 -5.33599 0
M  V30 4799 H 469.066 -2.7708 -3.77285 0
M  V30 4800 H 469.239 -4.0364 -5.06931 0
M  V30 4801 N 462.645 1.35699 -0.801477 0
M  V30 4802 C 463.922 1.9324 -0.302937 0
M  V30 4803 C 464.302 1.73209 1.20672 0
M  V30 4804 O 463.65 1.09809 2.00385 0
M  V30 4805 C 463.86 3.41728 -0.708747 0
M  V30 4806 C 465.208 4.18868 -0.695328 0
M  V30 4807 O 466.232 3.5022 -0.649971 0
M  V30 4808 O 465.091 5.41342 -0.749081 0
M  V30 4809 H 462.185 0.82331 -0.0780367 0
M  V30 4810 H 464.731 1.44806 -0.884832 0
M  V30 4811 H 463.503 3.50015 -1.74944 0
M  V30 4812 H 463.126 3.97471 -0.101384 0
M  V30 4813 N 464.123 0.554532 1.47522 0
M  V30 4814 C 465.4 -0.0360704 1.95567 0
M  V30 4815 C 465.78 -1.48828 1.49711 0
M  V30 4816 O 465.128 -2.16366 0.734717 0
M  V30 4817 C 465.338 0.106631 3.48837 0
M  V30 4818 C 466.686 -0.0400899 4.24581 0
M  V30 4819 O 467.71 0.0340453 3.56184 0
M  V30 4820 O 466.569 -0.199111 5.46137 0
M  V30 4821 H 463.663 -0.0656294 0.824392 0
M  V30 4822 H 466.209 0.620867 1.57935 0
M  V30 4823 H 464.981 1.11727 3.7501 0
M  V30 4824 H 464.604 -0.58804 3.93227 0
M  V30 4825 N 465.601 -1.54893 0.290851 0
M  V30 4826 C 466.848 -1.99933 -0.321391 0
M  V30 4827 C 467.176 -1.17927 -1.54672 0
M  V30 4828 O 466.431 -0.240902 -1.94212 0
M  V30 4829 C 466.73 -3.49815 -0.732397 0
M  V30 4830 C 466.396 -4.4921 0.390056 0
M  V30 4831 C 465.058 -4.76107 0.698223 0
M  V30 4832 C 467.41 -5.08453 1.14562 0
M  V30 4833 C 464.738 -5.59514 1.76526 0
M  V30 4834 C 467.09 -5.9302 2.2025 0
M  V30 4835 C 465.754 -6.18232 2.51684 0
M  V30 4836 H 465.024 -0.731608 -0.117605 0
M  V30 4837 H 467.671 -1.87107 0.407839 0
M  V30 4838 H 465.976 -3.60199 -1.54155 0
M  V30 4839 H 467.673 -3.82083 -1.21712 0
M  V30 4840 H 464.263 -4.28372 0.13976 0
M  V30 4841 H 468.447 -4.87683 0.920801 0
M  V30 4842 H 463.703 -5.77289 2.01364 0
M  V30 4843 H 467.877 -6.37955 2.7926 0
M  V30 4844 H 465.504 -6.82653 3.34499 0
M  V30 4845 N 467.08 -0.0183926 -1.57589 0
M  V30 4846 C 468.043 0.951986 -2.08494 0
M  V30 4847 C 469.043 1.26092 -0.997874 0
M  V30 4848 O 470.233 1.20304 -1.25987 0
M  V30 4849 C 467.365 2.27165 -2.54182 0
M  V30 4850 H 468.558 0.511307 -2.95509 0
M  V30 4851 H 466.111 0.229444 -1.54607 0
M  V30 4852 H 466.846 2.75884 -1.70465 0
M  V30 4853 H 466.631 2.06057 -3.33591 0
M  V30 4854 H 468.121 2.9674 -2.93828 0
M  V30 4855 N 468.558 1.5553 0.254621 0
M  V30 4856 C 469.805 1.77 0.983736 0
M  V30 4857 C 470.133 0.58133 1.85609 0
M  V30 4858 O 469.388 -0.435621 1.9079 0
M  V30 4859 C 469.687 3.03891 1.88109 0
M  V30 4860 C 469.353 4.35597 1.16472 0
M  V30 4861 C 468.015 4.7139 0.966714 0
M  V30 4862 C 470.367 5.1705 0.656387 0
M  V30 4863 C 467.695 5.86176 0.247942 0
M  V30 4864 C 470.047 6.32581 -0.0488807 0
M  V30 4865 C 468.711 6.67 -0.258438 0
M  V30 4866 H 467.981 0.647688 0.359974 0
M  V30 4867 H 470.628 1.89802 0.254463 0
M  V30 4868 H 468.933 2.86068 2.67717 0
M  V30 4869 H 470.63 3.17701 2.44677 0
M  V30 4870 H 467.22 4.07475 1.32899 0
M  V30 4871 H 471.404 4.8986 0.796933 0
M  V30 4872 H 466.66 6.11354 0.075035 0
M  V30 4873 H 470.834 6.94942 -0.450444 0
M  V30 4874 H 468.461 7.55793 -0.817358 0
M  V30 4875 N 470.036 -0.519951 1.48776 0
M  V30 4876 C 470.946 -1.65025 1.66745 0
M  V30 4877 C 471.962 -1.6508 0.549954 0
M  V30 4878 O 473.138 -1.83848 0.822295 0
M  V30 4879 C 470.203 -3.0146 1.71238 0
M  V30 4880 C 469.264 -3.12182 2.94688 0
M  V30 4881 C 468.497 -4.42109 2.98958 0
M  V30 4882 O 468.72 -5.29799 2.1135 0
M  V30 4883 O 467.654 -4.57406 3.91233 0
M  V30 4884 H 471.48 -1.52801 2.62461 0
M  V30 4885 H 469.065 -0.694157 1.32294 0
M  V30 4886 H 470.947 -3.82584 1.76657 0
M  V30 4887 H 469.622 -3.13988 0.786975 0
M  V30 4888 H 468.529 -2.30316 2.94797 0
M  V30 4889 H 469.862 -3.04574 3.86646 0
M  V30 4890 N 471.514 -1.37532 -0.769588 0
M  V30 4891 C 472.791 -1.23392 -1.51768 0
M  V30 4892 C 473.171 0.17157 -2.10402 0
M  V30 4893 O 472.519 1.17943 -1.95708 0
M  V30 4894 C 472.729 -2.33163 -2.59685 0
M  V30 4895 C 474.077 -2.70809 -3.27028 0
M  V30 4896 O 475.101 -2.32355 -2.69981 0
M  V30 4897 O 473.96 -3.37066 -4.30173 0
M  V30 4898 H 471.054 -0.481617 -0.67229 0
M  V30 4899 H 473.6 -1.49318 -0.806368 0
M  V30 4900 H 472.372 -3.27273 -2.14494 0
M  V30 4901 H 471.995 -2.08713 -3.38415 0
M  V30 4902 N 472.992 0.995999 -1.22138 0
M  V30 4903 C 474.24 1.73167 -1.042 0
M  V30 4904 C 474.561 1.90329 0.42423 0
M  V30 4905 O 473.831 1.4607 1.30539 0
M  V30 4906 H 472.411 0.641593 -0.38258 0
M  V30 4907 H 475.073 1.19974 -1.53598 0
M  V30 4908 H 474.169 2.72734 -1.51731 0
M  V30 4909 N 474.47 1.03057 1.19235 0
M  V30 4910 C 475.4 0.633497 2.24742 0
M  V30 4911 C 476.381 -0.358335 1.66283 0
M  V30 4912 O 477.566 -0.240676 1.92703 0
M  V30 4913 C 474.696 -0.0147648 3.47297 0
M  V30 4914 C 473.65 0.899527 4.18441 0
M  V30 4915 C 472.976 0.116281 5.34574 0
M  V30 4916 C 474.276 2.21404 4.73051 0
M  V30 4917 H 475.97 1.5155 2.58211 0
M  V30 4918 H 473.516 0.73014 1.24117 0
M  V30 4919 H 475.469 -0.304202 4.20301 0
M  V30 4920 H 474.193 -0.931577 3.13032 0
M  V30 4921 H 472.852 1.17319 3.47321 0
M  V30 4922 H 472.5 -0.802619 4.96555 0
M  V30 4923 H 472.2 0.725293 5.83107 0
M  V30 4924 H 473.724 -0.166376 6.10373 0
M  V30 4925 H 475.138 1.98601 5.37802 0
M  V30 4926 H 473.535 2.77512 5.32078 0
M  V30 4927 H 474.605 2.86752 3.91026 0
M  V30 4928 N 475.948 -1.35272 0.808662 0
M  V30 4929 C 477.195 -1.98709 0.390003 0
M  V30 4930 C 477.523 -1.64148 -1.04335 0
M  V30 4931 O 476.778 -0.897797 -1.73891 0
M  V30 4932 C 477.077 -3.53556 0.522798 0
M  V30 4933 C 476.743 -4.0799 1.91977 0
M  V30 4934 C 475.405 -4.22568 2.30195 0
M  V30 4935 C 477.757 -4.37442 2.83361 0
M  V30 4936 C 475.085 -4.63918 3.59162 0
M  V30 4937 C 477.437 -4.80232 4.11776 0
M  V30 4938 C 476.101 -4.93016 4.49991 0
M  V30 4939 H 475.371 -0.727127 0.142712 0
M  V30 4940 H 478.018 -1.6145 1.02985 0
M  V30 4941 H 476.323 -3.91287 -0.200494 0
M  V30 4942 H 478.02 -4.00598 0.179608 0
M  V30 4943 H 474.61 -3.97096 1.61284 0
M  V30 4944 H 478.794 -4.25731 2.55083 0
M  V30 4945 H 474.05 -4.72005 3.88615 0
M  V30 4946 H 478.224 -5.01982 4.82687 0
M  V30 4947 H 475.851 -5.24814 5.49976 0
M  V30 4948 N 477.426 -0.562348 -1.47226 0
M  V30 4949 C 478.651 -0.0432632 -2.07355 0
M  V30 4950 C 479.076 1.24332 -1.41149 0
M  V30 4951 O 478.434 1.74603 -0.488226 0
M  V30 4952 C 478.482 0.130288 -3.60365 0
M  V30 4953 O 477.586 1.19166 -3.94808 0
M  V30 4954 H 476.927 -0.0536334 -0.66183 0
M  V30 4955 H 479.457 -0.779495 -1.89169 0
M  V30 4956 H 479.467 0.342881 -4.06557 0
M  V30 4957 H 478.142 -0.809389 -4.07948 0
M  V30 4958 H 476.719 0.959153 -3.60354 0
M  V30 4959 N 478.904 1.54736 -0.299062 0
M  V30 4960 C 480.152 1.99706 0.31017 0
M  V30 4961 C 480.473 1.18896 1.54559 0
M  V30 4962 O 479.743 0.284445 1.93824 0
M  V30 4963 H 478.323 0.737686 0.117596 0
M  V30 4964 H 480.985 1.9054 -0.409943 0
M  V30 4965 H 480.081 3.06596 0.58355 0
M  V30 4966 N 480.382 0.0267497 1.57577 0
M  V30 4967 C 481.612 -0.6617 1.95717 0
M  V30 4968 C 482.02 -1.66331 0.901706 0
M  V30 4969 O 481.363 -1.83273 -0.125241 0
M  V30 4970 C 481.425 -1.42649 3.29987 0
M  V30 4971 C 481.089 -0.583482 4.5326 0
M  V30 4972 C 482.086 0.140221 5.19711 0
M  V30 4973 C 479.771 -0.521581 4.99585 0
M  V30 4974 C 481.765 0.914523 6.30805 0
M  V30 4975 C 479.452 0.256428 6.10562 0
M  V30 4976 C 480.45 0.973189 6.76031 0
M  V30 4977 O 480.138 1.73845 7.84878 0
M  V30 4978 H 479.87 -0.187483 0.649481 0
M  V30 4979 H 482.424 0.0820847 2.05236 0
M  V30 4980 H 480.654 -2.21536 3.16952 0
M  V30 4981 H 482.343 -2.00282 3.53047 0
M  V30 4982 H 483.109 0.101716 4.84893 0
M  V30 4983 H 478.988 -1.06904 4.48433 0
M  V30 4984 H 482.532 1.4745 6.81839 0
M  V30 4985 H 478.429 0.296657 6.44818 0
M  V30 4986 H 479.197 1.65797 8.01532 0
M  V30 4987 N 481.861 -1.55662 -0.24637 0
M  V30 4988 C 483.138 -1.68272 -0.997198 0
M  V30 4989 C 483.518 -0.566785 -2.03349 0
M  V30 4990 O 482.866 0.429688 -2.24424 0
M  V30 4991 C 483.076 -3.08594 -1.63006 0
M  V30 4992 C 484.424 -3.6721 -2.13171 0
M  V30 4993 O 485.448 -3.11397 -1.72946 0
M  V30 4994 O 484.307 -4.65054 -2.87031 0
M  V30 4995 H 481.401 -0.684429 -0.464205 0
M  V30 4996 H 483.947 -1.67993 -0.240114 0
M  V30 4997 H 482.719 -3.81264 -0.880527 0
M  V30 4998 H 482.342 -3.12886 -2.45333 0
M  V30 4999 N 483.339 0.512053 -1.4905 0
M  V30 5000 C 484.302 1.59704 -1.64399 0
M  V30 5001 C 485.302 1.52285 -0.516317 0
M  V30 5002 O 486.492 1.55635 -0.782527 0
M  V30 5003 C 483.624 2.9935 -1.63102 0
M  V30 5004 H 484.817 1.47428 -2.61161 0
M  V30 5005 H 482.37 0.735469 -1.37915 0
M  V30 5006 H 483.105 3.17116 -0.678836 0
M  V30 5007 H 482.89 3.06144 -2.44986 0
M  V30 5008 H 484.38 3.782 -1.77072 0
M  V30 5009 N 484.817 1.37938 0.762283 0
M  V30 5010 C 485.727 1.36681 1.90671 0
M  V30 5011 C 486.743 0.265078 1.71969 0
M  V30 5012 O 487.919 0.502055 1.95042 0
M  V30 5013 C 484.984 1.18211 3.25925 0
M  V30 5014 C 484.045 2.3811 3.57214 0
M  V30 5015 C 483.278 2.20512 4.86014 0
M  V30 5016 O 483.501 1.19429 5.57757 0
M  V30 5017 O 482.435 3.08911 5.16583 0
M  V30 5018 H 486.261 2.33091 1.94685 0
M  V30 5019 H 483.846 1.18767 0.906356 0
M  V30 5020 H 485.728 1.09937 4.06807 0
M  V30 5021 H 484.403 0.248807 3.22742 0
M  V30 5022 H 483.31 2.51958 2.76529 0
M  V30 5023 H 484.643 3.30041 3.65149 0
M  V30 5024 N 486.295 -0.989507 1.22664 0
M  V30 5025 C 487.242 -2.08024 0.999733 0
M  V30 5026 C 488.212 -1.65909 -0.0797047 0
M  V30 5027 O 489.397 -1.90669 0.0705715 0
M  V30 5028 C 486.537 -3.40067 0.587234 0
M  V30 5029 C 485.65 -3.95505 1.73781 0
M  V30 5030 C 484.785 -5.15722 1.27297 0
M  V30 5031 C 483.824 -5.63305 2.39488 0
M  V30 5032 N 482.961 -6.74758 1.94026 0
M  V30 5033 H 487.801 -2.26768 1.9334 0
M  V30 5034 H 485.338 -1.11171 0.963297 0
M  V30 5035 H 487.296 -4.15899 0.329227 0
M  V30 5036 H 485.926 -3.21314 -0.309426 0
M  V30 5037 H 484.978 -3.16513 2.11006 0
M  V30 5038 H 486.29 -4.26797 2.58158 0
M  V30 5039 H 485.444 -5.98854 0.972546 0
M  V30 5040 H 484.183 -4.86061 0.399445 0
M  V30 5041 H 483.188 -4.78759 2.70315 0
M  V30 5042 H 484.413 -5.94988 3.27362 0
M  V30 5043 H 482.359 -6.46874 1.09041 0
M  V30 5044 H 482.276 -7.05386 2.71968 0
M  V30 5045 H 483.544 -7.61387 1.67062 0
M  V30 5046 N 487.773 -1.03688 -1.18687 0
M  V30 5047 C 489.189 -0.755413 -1.4059 0
M  V30 5048 C 489.389 0.656659 -1.905 0
M  V30 5049 O 488.445 1.42144 -2.08689 0
M  V30 5050 C 489.758 -1.7983 -2.41001 0
M  V30 5051 C 491.306 -1.81877 -2.54735 0
M  V30 5052 C 491.781 -2.85148 -3.58406 0
M  V30 5053 N 493.272 -2.84015 -3.6591 0
M  V30 5054 C 494.007 -3.60573 -4.45841 0
M  V30 5055 N 493.503 -4.46871 -5.29413 0
M  V30 5056 N 495.296 -3.49079 -4.40568 0
M  V30 5057 H 487.447 -1.94818 -0.846148 0
M  V30 5058 H 489.71 -0.842727 -0.434184 0
M  V30 5059 H 489.416 -2.81097 -2.1137 0
M  V30 5060 H 489.29 -1.62727 -3.40294 0
M  V30 5061 H 491.677 -0.812836 -2.83685 0
M  V30 5062 H 491.758 -2.03057 -1.55568 0
M  V30 5063 H 491.402 -3.85918 -3.30197 0
M  V30 5064 H 491.332 -2.61224 -4.57241 0
M  V30 5065 H 493.823 -2.21431 -3.0623 0
M  V30 5066 H 494.136 -5.02007 -5.87545 0
M  V30 5067 H 492.481 -4.5094 -5.28846 0
M  V30 5068 H 495.672 -2.81066 -3.74325 0
M  V30 5069 H 495.845 -4.08994 -5.02621 0
M  V30 5070 N 489.251 1.34841 -0.815825 0
M  V30 5071 C 490.183 2.28409 -0.190265 0
M  V30 5072 C 491.196 1.50705 0.615771 0
M  V30 5073 O 492.385 1.72822 0.446616 0
M  V30 5074 C 489.485 3.30441 0.752446 0
M  V30 5075 C 488.658 4.37399 -0.00922152 0
M  V30 5076 C 487.717 5.19234 0.853351 0
M  V30 5077 O 486.743 5.68404 0.300919 0
M  V30 5078 N 487.945 5.38248 2.17416 0
M  V30 5079 H 490.71 2.82732 -0.994114 0
M  V30 5080 H 488.271 1.47289 -0.672129 0
M  V30 5081 H 490.263 3.82084 1.33394 0
M  V30 5082 H 488.833 2.76565 1.45707 0
M  V30 5083 H 488.053 3.86567 -0.771979 0
M  V30 5084 H 489.341 5.05992 -0.533807 0
M  V30 5085 H 488.739 4.99961 2.6468 0
M  V30 5086 H 487.296 5.93035 2.70467 0
M  V30 5087 N 490.729 0.570148 1.46925 0
M  V30 5088 C 491.959 0.0561151 2.06524 0
M  V30 5089 C 492.367 -1.24874 1.42137 0
M  V30 5090 O 491.71 -1.76292 0.516417 0
M  V30 5091 C 491.772 -0.197035 3.5896 0
M  V30 5092 C 491.436 1.02033 4.45464 0
M  V30 5093 C 492.433 1.92921 4.82781 0
M  V30 5094 C 490.118 1.23864 4.86788 0
M  V30 5095 C 492.112 3.03999 5.60235 0
M  V30 5096 C 489.799 2.35249 5.64004 0
M  V30 5097 C 490.797 3.25146 6.0064 0
M  V30 5098 O 490.485 4.34598 6.76299 0
M  V30 5099 H 490.217 0.0487409 0.674241 0
M  V30 5100 H 492.771 0.786915 1.89728 0
M  V30 5101 H 491.001 -0.982299 3.74016 0
M  V30 5102 H 492.69 -0.658032 4.00531 0
M  V30 5103 H 493.456 1.77265 4.51444 0
M  V30 5104 H 489.335 0.54805 4.57731 0
M  V30 5105 H 492.879 3.74192 5.8875 0
M  V30 5106 H 488.776 2.50873 5.94755 0
M  V30 5107 H 489.544 4.32808 6.94708 0
M  V30 5108 N 492.207 -1.54576 0.307264 0
M  V30 5109 C 493.484 -1.92377 -0.353605 0
M  V30 5110 C 493.864 -1.23517 -1.71192 0
M  V30 5111 O 493.212 -0.373101 -2.25433 0
M  V30 5112 C 493.422 -3.45928 -0.462039 0
M  V30 5113 C 494.77 -4.18278 -0.729975 0
M  V30 5114 O 495.794 -3.51997 -0.545605 0
M  V30 5115 O 494.653 -5.3563 -1.08454 0
M  V30 5116 H 491.747 -0.802747 -0.198812 0
M  V30 5117 H 494.293 -1.65929 0.355783 0
M  V30 5118 H 493.065 -3.88187 0.492592 0
M  V30 5119 H 492.688 -3.78431 -1.21965 0
M  V30 5120 N 493.685 -0.035106 -1.57561 0
M  V30 5121 C 494.632 0.94474 -2.10578 0
M  V30 5122 C 495.602 1.3192 -1.00927 0
M  V30 5123 O 496.787 1.41147 -1.28382 0
M  V30 5124 C 493.927 2.21982 -2.64231 0
M  V30 5125 C 493.04 1.90128 -3.87911 0
M  V30 5126 C 492.175 3.11975 -4.29936 0
M  V30 5127 C 491.214 2.75968 -5.46359 0
M  V30 5128 N 490.351 3.90459 -5.83512 0
M  V30 5129 H 495.191 0.485717 -2.94015 0
M  V30 5130 H 492.728 0.228143 -1.4532 0
M  V30 5131 H 494.686 2.96572 -2.9343 0
M  V30 5132 H 493.316 2.6549 -1.83616 0
M  V30 5133 H 492.368 1.05755 -3.65404 0
M  V30 5134 H 493.68 1.59613 -4.72573 0
M  V30 5135 H 492.834 3.9488 -4.60603 0
M  V30 5136 H 491.573 3.45657 -3.44053 0
M  V30 5137 H 490.578 1.91478 -5.1538 0
M  V30 5138 H 491.803 2.43497 -6.33945 0
M  V30 5139 H 489.749 4.23971 -5.00584 0
M  V30 5140 H 489.666 3.63588 -6.62827 0
M  V30 5141 H 490.934 4.7405 -6.18787 0
M  V30 5142 N 495.163 1.55791 0.238111 0
M  V30 5143 C 496.388 1.8244 0.986432 0
M  V30 5144 C 496.813 0.613314 1.7782 0
M  V30 5145 O 496.171 -0.437767 1.75935 0
M  V30 5146 C 496.219 3.06917 1.893 0
M  V30 5147 O 495.323 2.84449 2.98601 0
M  V30 5148 H 494.664 0.601975 0.280218 0
M  V30 5149 H 497.194 2.02987 0.256437 0
M  V30 5150 H 497.204 3.36583 2.30598 0
M  V30 5151 H 495.879 3.947 1.31091 0
M  V30 5152 H 494.456 2.65972 2.61368 0
M  V30 5153 N 496.642 -0.504142 1.49319 0
M  V30 5154 C 497.867 -1.28729 1.62615 0
M  V30 5155 C 498.292 -1.85752 0.296309 0
M  V30 5156 O 497.65 -1.65704 -0.735649 0
M  V30 5157 C 497.698 -2.39561 2.69524 0
M  V30 5158 O 496.802 -3.43324 2.28478 0
M  V30 5159 H 496.143 -0.380172 0.544395 0
M  V30 5160 H 498.673 -0.603872 1.95485 0
M  V30 5161 H 498.683 -2.8537 2.91595 0
M  V30 5162 H 497.358 -1.97423 3.66056 0
M  V30 5163 H 495.935 -3.03455 2.16725 0
M  V30 5164 N 498.12 -1.38341 -0.754957 0
M  V30 5165 C 499.366 -1.35678 -1.51536 0
M  V30 5166 C 499.721 0.0533985 -1.92326 0
M  V30 5167 O 499.014 1.01573 -1.6246 0
M  V30 5168 C 499.208 -2.2452 -2.78075 0
M  V30 5169 C 499.037 -3.74035 -2.49655 0
M  V30 5170 C 497.807 -4.43066 -2.42942 0
M  V30 5171 C 500.005 -4.665 -2.16523 0
M  V30 5172 N 497.987 -5.78026 -2.06783 0
M  V30 5173 C 499.358 -5.89962 -1.90644 0
M  V30 5174 C 501.413 -4.54718 -2.02821 0
M  V30 5175 C 500.116 -7.0296 -1.52444 0
M  V30 5176 C 502.142 -5.67618 -1.66023 0
M  V30 5177 C 501.504 -6.90141 -1.41015 0
M  V30 5178 H 497.603 -0.551764 -0.554148 0
M  V30 5179 H 500.187 -1.73716 -0.879258 0
M  V30 5180 H 498.358 -1.88673 -3.39496 0
M  V30 5181 H 500.09 -2.12993 -3.44116 0
M  V30 5182 H 496.845 -3.96264 -2.59367 0
M  V30 5183 H 497.269 -6.49394 -1.91353 0
M  V30 5184 H 501.911 -3.60546 -2.20831 0
M  V30 5185 H 499.629 -7.97051 -1.33174 0
M  V30 5186 H 503.215 -5.6048 -1.56055 0
M  V30 5187 H 502.095 -7.76021 -1.12965 0
M  V30 5188 N 499.598 0.982988 -1.23187 0
M  V30 5189 C 500.546 2.09616 -1.00817 0
M  V30 5190 C 501.54 1.6932 0.0519995 0
M  V30 5191 O 502.746 1.79715 -0.101284 0
M  V30 5192 H 499.121 0.685628 -0.308899 0
M  V30 5193 H 501.092 2.25652 -1.95253 0
M  V30 5194 C 499.841 3.42249 -0.613243 0
M  V30 5195 H 499.164 3.73705 -1.42073 0
M  V30 5196 H 500.604 4.21086 -0.496208 0
M  V30 5197 C 499.063 3.30002 0.678233 0
M  V30 5198 O 499.593 3.6263 1.72807 0
M  V30 5199 N 497.799 2.83164 0.653165 0
M  V30 5200 H 497.346 2.56811 -0.201492 0
M  V30 5201 H 497.304 2.75352 1.51752 0
M  V30 5202 N 501.076 1.04316 1.18135 0
M  V30 5203 C 502.306 0.767003 1.91835 0
M  V30 5204 C 502.714 -0.68002 1.76557 0
M  V30 5205 O 502.057 -1.47548 1.09432 0
M  V30 5206 C 502.119 1.05674 3.43618 0
M  V30 5207 C 501.783 2.49818 3.82675 0
M  V30 5208 C 502.78 3.48003 3.86251 0
M  V30 5209 C 500.465 2.84596 4.13897 0
M  V30 5210 C 502.459 4.79016 4.20503 0
M  V30 5211 C 500.146 4.15813 4.4782 0
M  V30 5212 C 501.144 5.12834 4.51099 0
M  V30 5213 O 500.832 6.41699 4.84229 0
M  V30 5214 H 500.564 0.278948 0.615763 0
M  V30 5215 H 503.118 1.3946 1.50798 0
M  V30 5216 H 501.348 0.372029 3.84906 0
M  V30 5217 H 503.037 0.767994 3.98568 0
M  V30 5218 H 503.803 3.22475 3.62264 0
M  V30 5219 H 499.682 2.09748 4.1052 0
M  V30 5220 H 503.226 5.54739 4.22978 0
M  V30 5221 H 499.123 4.41109 4.71268 0
M  V30 5222 H 499.891 6.46387 5.02121 0
M  V30 5223 N 502.554 -1.34406 0.822964 0
M  V30 5224 C 503.486 -2.28305 0.202375 0
M  V30 5225 C 504.499 -1.5103 -0.60777 0
M  V30 5226 O 505.688 -1.73057 -0.437444 0
M  V30 5227 C 502.788 -3.30836 -0.734911 0
M  V30 5228 C 501.961 -4.37388 0.0324177 0
M  V30 5229 C 501.02 -5.1968 -0.825803 0
M  V30 5230 O 500.046 -5.68556 -0.270771 0
M  V30 5231 N 501.248 -5.39393 -2.14558 0
M  V30 5232 H 504.013 -2.82201 1.00909 0
M  V30 5233 H 501.574 -1.4693 0.67993 0
M  V30 5234 H 503.566 -3.82786 -1.31365 0
M  V30 5235 H 502.136 -2.77334 -1.44238 0
M  V30 5236 H 501.356 -3.86152 0.792469 0
M  V30 5237 H 502.644 -5.05702 0.560633 0
M  V30 5238 H 502.042 -5.01357 -2.62025 0
M  V30 5239 H 500.599 -5.94461 -2.67318 0
M  V30 5240 N 504.032 -0.577932 -1.46621 0
M  V30 5241 C 504.962 0.145917 -2.33044 0
M  V30 5242 C 505.943 0.888412 -1.45056 0
M  V30 5243 O 507.128 0.864812 -1.73881 0
M  V30 5244 C 504.258 1.16322 -3.27241 0
M  V30 5245 C 503.212 0.535868 -4.24632 0
M  V30 5246 C 502.538 1.65929 -5.08303 0
M  V30 5247 C 503.838 -0.523861 -5.19666 0
M  V30 5248 H 505.532 -0.575636 -2.93814 0
M  V30 5249 H 503.078 -0.278272 -1.41286 0
M  V30 5250 H 505.031 1.67793 -3.86553 0
M  V30 5251 H 503.755 1.91498 -2.64567 0
M  V30 5252 H 502.414 0.0422759 -3.66576 0
M  V30 5253 H 502.062 2.40061 -4.42018 0
M  V30 5254 H 501.762 1.2452 -5.74255 0
M  V30 5255 H 503.286 2.17686 -5.70478 0
M  V30 5256 H 504.7 -0.0944059 -5.73222 0
M  V30 5257 H 503.097 -0.858 -5.93935 0
M  V30 5258 H 504.167 -1.41197 -4.63887 0
M  V30 5259 N 505.51 1.54411 -0.315457 0
M  V30 5260 C 506.787 1.92562 0.343398 0
M  V30 5261 C 507.167 1.24423 1.70535 0
M  V30 5262 O 506.515 0.385051 2.25232 0
M  V30 5263 C 506.725 3.46168 0.443687 0
M  V30 5264 C 508.073 4.18659 0.707783 0
M  V30 5265 O 509.097 3.52281 0.52693 0
M  V30 5266 O 507.956 5.36198 1.05612 0
M  V30 5267 H 505.05 0.80379 0.194552 0
M  V30 5268 H 507.596 1.65738 -0.364577 0
M  V30 5269 H 506.368 3.8792 -0.513172 0
M  V30 5270 H 505.991 3.79073 1.19956 0
M  V30 5271 N 506.988 0.0434614 1.5754 0
M  V30 5272 C 507.898 -0.94893 2.14552 0
M  V30 5273 C 508.914 -1.34707 1.10136 0
M  V30 5274 O 510.09 -1.42557 1.42266 0
M  V30 5275 C 507.155 -2.208 2.67298 0
M  V30 5276 C 506.216 -1.86893 3.86484 0
M  V30 5277 C 505.449 -3.06797 4.36705 0
M  V30 5278 O 505.672 -4.19921 3.86034 0
M  V30 5279 O 504.606 -2.8826 5.28384 0
M  V30 5280 H 508.432 -0.494099 2.99654 0
M  V30 5281 H 506.017 -0.177989 1.48336 0
M  V30 5282 H 507.899 -2.94686 3.01228 0
M  V30 5283 H 506.574 -2.65436 1.85272 0
M  V30 5284 H 505.481 -1.10347 3.57455 0
M  V30 5285 H 506.814 -1.47062 4.69716 0
M  V30 5286 N 508.466 -1.55915 -0.229846 0
M  V30 5287 C 509.414 -1.9258 -1.30444 0
M  V30 5288 C 510.408 -0.806839 -1.48951 0
M  V30 5289 O 511.614 -0.991606 -1.50224 0
M  V30 5290 H 507.989 -0.611878 -0.437161 0
M  V30 5291 H 509.96 -2.82264 -0.96797 0
M  V30 5292 C 508.709 -2.25171 -2.6494 0
M  V30 5293 H 508.032 -3.10782 -2.51504 0
M  V30 5294 H 509.472 -2.54716 -3.38963 0
M  V30 5295 C 507.931 -1.07394 -3.19324 0
M  V30 5296 O 508.461 -0.330759 -4.00336 0
M  V30 5297 N 506.667 -0.859984 -2.77584 0
M  V30 5298 H 506.214 -1.46605 -2.11813 0
M  V30 5299 H 506.172 -0.0736671 -3.14314 0
M  V30 5300 N 509.944 0.496216 -1.49584 0
M  V30 5301 C 511.192 1.24756 -1.58998 0
M  V30 5302 C 511.513 1.92968 -0.280775 0
M  V30 5303 O 510.783 1.82959 0.700198 0
M  V30 5304 H 509.363 0.463471 -0.585836 0
M  V30 5305 H 512.025 0.574678 -1.86235 0
M  V30 5306 H 511.121 2.00895 -2.38847 0
M  V30 5307 N 511.423 1.38739 0.74761 0
M  V30 5308 C 512.653 1.3832 1.53464 0
M  V30 5309 C 513.061 -0.0273464 1.8918 0
M  V30 5310 O 512.404 -1.00588 1.53713 0
M  V30 5311 C 512.466 2.18007 2.85855 0
M  V30 5312 C 512.13 3.66762 2.72644 0
M  V30 5313 C 513.127 4.60124 2.42037 0
M  V30 5314 C 510.812 4.10193 2.89909 0
M  V30 5315 C 512.806 5.94897 2.28859 0
M  V30 5316 C 510.493 5.45045 2.7635 0
M  V30 5317 C 511.491 6.37211 2.45869 0
M  V30 5318 O 511.179 7.69581 2.3238 0
M  V30 5319 H 510.911 0.474718 0.481268 0
M  V30 5320 H 513.465 1.83012 0.932518 0
M  V30 5321 H 511.695 1.68043 3.48279 0
M  V30 5322 H 513.384 2.09921 3.47402 0
M  V30 5323 H 514.15 4.27874 2.28361 0
M  V30 5324 H 510.029 3.38797 3.1263 0
M  V30 5325 H 513.573 6.66802 2.04989 0
M  V30 5326 H 509.47 5.76889 2.89601 0
M  V30 5327 H 510.238 7.80169 2.47546 0
M  V30 5328 N 512.901 -0.976442 1.23707 0
M  V30 5329 C 513.864 -2.0511 1.02287 0
M  V30 5330 C 514.864 -1.60791 -0.0167195 0
M  V30 5331 O 516.054 -1.72761 0.223408 0
M  V30 5332 C 513.186 -3.36458 0.548507 0
M  V30 5333 H 514.379 -2.25545 1.9766 0
M  V30 5334 H 511.932 -1.15042 1.05806 0
M  V30 5335 H 512.667 -3.21713 -0.408818 0
M  V30 5336 H 512.452 -3.69967 1.29874 0
M  V30 5337 H 513.942 -4.15489 0.419406 0
M  V30 5338 N 514.379 -1.04941 -1.1758 0
M  V30 5339 C 515.326 -0.648155 -2.21512 0
M  V30 5340 C 516.296 0.348431 -1.62404 0
M  V30 5341 O 517.481 0.240419 -1.89279 0
M  V30 5342 C 514.621 -0.0264291 -3.4509 0
M  V30 5343 C 513.734 -1.07154 -4.185 0
M  V30 5344 C 512.869 -0.417403 -5.29558 0
M  V30 5345 C 511.908 -1.447 -5.94751 0
M  V30 5346 N 511.045 -0.817203 -6.97328 0
M  V30 5347 H 515.885 -1.53891 -2.55189 0
M  V30 5348 H 513.422 -0.769699 -1.25356 0
M  V30 5349 H 515.38 0.351456 -4.15717 0
M  V30 5350 H 514.01 0.827802 -3.12005 0
M  V30 5351 H 513.062 -1.56728 -3.46613 0
M  V30 5352 H 514.374 -1.8532 -4.63096 0
M  V30 5353 H 513.528 0.0142061 -6.06698 0
M  V30 5354 H 512.267 0.396265 -4.86087 0
M  V30 5355 H 511.272 -1.88865 -5.16343 0
M  V30 5356 H 512.497 -2.26252 -6.40302 0
M  V30 5357 H 510.443 -0.0239995 -6.55996 0
M  V30 5358 H 510.36 -1.53644 -7.40223 0
M  V30 5359 H 511.628 -0.410283 -7.7842 0
M  V30 5360 N 515.857 1.33968 -0.830081 0
M  V30 5361 C 517.273 1.51003 -0.516742 0
M  V30 5362 C 517.473 1.77286 0.957694 0
M  V30 5363 O 516.529 1.82797 1.74188 0
M  V30 5364 C 517.842 2.67036 -1.38247 0
M  V30 5365 C 519.39 2.80919 -1.38034 0
M  V30 5366 C 519.865 4.00004 -2.23071 0
M  V30 5367 N 521.356 4.07224 -2.20733 0
M  V30 5368 C 522.091 4.98541 -2.83275 0
M  V30 5369 N 521.587 5.95033 -3.54835 0
M  V30 5370 N 523.38 4.91469 -2.72791 0
M  V30 5371 H 515.531 1.15168 -1.78466 0
M  V30 5372 H 517.794 0.565443 -0.760906 0
M  V30 5373 H 517.5 2.54266 -2.42985 0
M  V30 5374 H 517.374 3.62226 -1.05225 0
M  V30 5375 H 519.761 2.93127 -0.340713 0
M  V30 5376 H 519.842 1.86517 -1.75057 0
M  V30 5377 H 519.486 3.88557 -3.27087 0
M  V30 5378 H 519.416 4.93634 -1.83394 0
M  V30 5379 H 521.907 3.38162 -1.68687 0
M  V30 5380 H 522.22 6.61357 -3.99784 0
M  V30 5381 H 520.565 5.95135 -3.58942 0
M  V30 5382 H 523.756 4.15048 -2.16456 0
M  V30 5383 H 523.929 5.62439 -3.21818 0
M  V30 5384 N 517.335 0.585699 1.46312 0
M  V30 5385 C 518.612 0.00542031 1.95599 0
M  V30 5386 C 518.992 -1.45619 1.52834 0
M  V30 5387 O 518.34 -2.14759 0.780446 0
M  V30 5388 C 518.55 0.180601 3.48532 0
M  V30 5389 C 519.898 0.049979 4.24571 0
M  V30 5390 O 520.922 0.109589 3.56031 0
M  V30 5391 O 519.781 -0.0832226 5.46437 0
M  V30 5392 H 516.875 -0.0481281 0.825598 0
M  V30 5393 H 519.421 0.654227 1.56582 0
M  V30 5394 H 518.193 1.19657 3.72556 0
M  V30 5395 H 517.816 -0.504498 3.94386 0
M  V30 5396 N 518.813 -1.54241 0.323641 0
M  V30 5397 C 519.723 -2.28033 -0.551205 0
M  V30 5398 C 520.739 -1.32388 -1.12913 0
M  V30 5399 O 521.915 -1.65403 -1.14908 0
M  V30 5400 C 518.98 -3.02382 -1.69606 0
M  V30 5401 C 518.041 -4.13612 -1.14993 0
M  V30 5402 C 517.274 -4.84407 -2.24022 0
M  V30 5403 O 517.497 -4.54716 -3.44368 0
M  V30 5404 O 516.431 -5.71312 -1.89436 0
M  V30 5405 H 520.257 -3.03662 0.048066 0
M  V30 5406 H 517.842 -1.49133 0.0893289 0
M  V30 5407 H 519.724 -3.48941 -2.36259 0
M  V30 5408 H 518.399 -2.29628 -2.28151 0
M  V30 5409 H 517.306 -3.71402 -0.448484 0
M  V30 5410 H 518.639 -4.8841 -0.609608 0
M  V30 5411 N 520.291 -0.0518155 -1.57515 0
M  V30 5412 C 521.519 0.631395 -1.9703 0
M  V30 5413 C 521.934 1.64341 -0.92938 0
M  V30 5414 O 521.291 1.82296 0.0863266 0
M  V30 5415 C 521.342 1.31774 -3.36627 0
M  V30 5416 O 521.063 0.346247 -4.3673 0
M  V30 5417 C 522.564 2.09065 -3.90905 0
M  V30 5418 H 519.784 0.172576 -0.648428 0
M  V30 5419 H 522.328 -0.118306 -2.04158 0
M  V30 5420 H 520.483 2.01867 -3.30649 0
M  V30 5421 H 520.897 0.836226 -5.17791 0
M  V30 5422 H 522.371 2.52508 -4.9086 0
M  V30 5423 H 522.848 2.93908 -3.26366 0
M  V30 5424 H 523.454 1.43882 -4.00223 0
M  V30 5425 N 521.769 1.56035 0.221574 0
M  V30 5426 C 522.699 1.95434 1.2778 0
M  V30 5427 C 523.68 0.822564 1.48889 0
M  V30 5428 O 524.865 1.08486 1.61072 0
M  V30 5429 C 521.995 2.27102 2.62759 0
M  V30 5430 C 520.949 3.4277 2.56306 0
M  V30 5431 C 520.275 3.60043 3.95314 0
M  V30 5432 C 521.575 4.77742 2.11093 0
M  V30 5433 H 523.269 2.83912 0.950504 0
M  V30 5434 H 520.815 1.36596 0.455791 0
M  V30 5435 H 522.768 2.53256 3.36807 0
M  V30 5436 H 521.492 1.35478 2.97176 0
M  V30 5437 H 520.151 3.16664 1.84715 0
M  V30 5438 H 519.799 2.65794 4.27039 0
M  V30 5439 H 519.499 4.37841 3.91879 0
M  V30 5440 H 521.023 3.88545 4.71025 0
M  V30 5441 H 522.437 5.03102 2.74885 0
M  V30 5442 H 520.834 5.58823 2.18716 0
M  V30 5443 H 521.904 4.731 1.06321 0
M  V30 5444 N 523.247 -0.488276 1.49845 0
M  V30 5445 C 524.475 -1.26527 1.63702 0
M  V30 5446 C 524.89 -1.8618 0.313447 0
M  V30 5447 O 524.247 -1.68432 -0.702624 0
M  V30 5448 C 524.298 -2.3864 2.71538 0
M  V30 5449 O 524.019 -1.81437 3.98763 0
M  V30 5450 C 525.52 -3.29805 2.96215 0
M  V30 5451 H 522.74 -0.383295 0.55075 0
M  V30 5452 H 525.284 -0.584779 1.95961 0
M  V30 5453 H 523.439 -3.02496 2.42023 0
M  V30 5454 H 523.853 -2.55135 4.58265 0
M  V30 5455 H 525.327 -4.04722 3.75372 0
M  V30 5456 H 525.804 -3.87563 2.06619 0
M  V30 5457 H 526.41 -2.71703 3.27196 0
M  V30 5458 N 524.725 -1.39134 -0.740242 0
M  V30 5459 C 525.675 -1.33928 -1.84519 0
M  V30 5460 C 526.659 -0.221097 -1.59374 0
M  V30 5461 O 527.851 -0.458195 -1.70967 0
M  V30 5462 C 524.98 -1.17991 -3.22387 0
M  V30 5463 C 524.066 -2.34488 -3.53378 0
M  V30 5464 N 524.457 -3.59954 -3.5534 0
M  V30 5465 C 522.755 -2.27331 -3.83714 0
M  V30 5466 C 523.456 -4.36962 -3.83978 0
M  V30 5467 N 522.432 -3.66482 -4.01487 0
M  V30 5468 H 526.234 -2.28907 -1.84333 0
M  V30 5469 H 523.748 -1.32555 -0.938237 0
M  V30 5470 H 525.745 -1.12345 -4.01478 0
M  V30 5471 H 524.405 -0.23957 -3.23815 0
M  V30 5472 H 525.416 -3.93448 -3.36778 0
M  V30 5473 H 522.093 -1.41531 -3.92779 0
M  V30 5474 H 523.483 -5.45692 -3.92008 0
M  V30 5475 N 526.204 0.969867 -1.24223 0
M  V30 5476 C 527.615 1.52717 -1.07399 0
M  V30 5477 C 527.966 1.92956 0.355298 0
M  V30 5478 O 527.091 1.77112 1.2434 0
M  V30 5479 C 527.686 2.77521 -1.94339 0
M  V30 5480 C 526.245 3.29615 -1.81744 0
M  V30 5481 C 525.392 2.02537 -1.89405 0
M  V30 5482 H 528.343 0.788399 -1.37732 0
M  V30 5483 H 528.364 3.50773 -1.47439 0
M  V30 5484 H 527.876 2.48203 -2.98357 0
M  V30 5485 H 525.977 3.63789 -0.805505 0
M  V30 5486 H 526.09 3.98661 -2.65718 0
M  V30 5487 H 524.454 2.17151 -1.33108 0
M  V30 5488 H 525.237 1.75587 -2.94999 0
M  V30 5489 N 527.682 1.05563 1.17022 0
M  V30 5490 C 529.098 0.777684 1.39371 0
M  V30 5491 C 529.298 -0.626269 1.91521 0
M  V30 5492 O 528.354 -1.38806 2.10924 0
M  V30 5493 C 529.667 1.83642 2.3811 0
M  V30 5494 C 531.215 1.85907 2.51809 0
M  V30 5495 C 531.69 2.90813 3.53824 0
M  V30 5496 N 533.181 2.898 3.61345 0
M  V30 5497 C 533.916 3.6762 4.40049 0
M  V30 5498 N 533.412 4.55237 5.22237 0
M  V30 5499 N 535.205 3.56044 4.34959 0
M  V30 5500 H 527.356 1.9614 0.815047 0
M  V30 5501 H 529.619 0.849527 0.420722 0
M  V30 5502 H 529.325 2.84425 2.06871 0
M  V30 5503 H 529.199 1.6812 3.37662 0
M  V30 5504 H 531.586 0.857865 2.82356 0
M  V30 5505 H 531.667 2.05506 1.52318 0
M  V30 5506 H 531.311 3.91122 3.24015 0
M  V30 5507 H 531.241 2.68465 4.53028 0
M  V30 5508 H 533.732 2.26274 3.02669 0
M  V30 5509 H 534.045 5.11291 5.79484 0
M  V30 5510 H 532.39 4.59296 5.21605 0
M  V30 5511 H 535.581 2.86986 3.69806 0
M  V30 5512 H 535.754 4.16938 4.96051 0
M  V30 5513 N 529.16 -1.33526 0.837174 0
M  V30 5514 C 530.4 -1.99649 0.438115 0
M  V30 5515 C 530.764 -1.64879 -0.983816 0
M  V30 5516 O 531.965 -2.23956 -1.48651 0
M  V30 5517 C 530.236 -3.51431 0.650461 0
M  V30 5518 S 531.795 -4.37431 0.346371 0
M  V30 5519 H 528.613 -0.69162 0.164872 0
M  V30 5520 H 531.215 -1.62556 1.08609 0
M  V30 5521 H 529.919 -3.74225 1.68475 0
M  V30 5522 H 529.45 -3.93398 -0.0117309 0
M  V30 5523 H 531.465 -4.89132 -0.834504 0
M  V30 5524 N 530.638 -0.59345 -1.46 0
M  V30 5525 C 531.884 -0.0832754 -2.02629 0
M  V30 5526 C 532.217 1.27749 -1.46266 0
M  V30 5527 O 531.492 1.8395 -0.631866 0
M  V30 5528 C 531.775 -0.0290756 -3.60088 0
M  V30 5529 C 531.628 -1.41951 -4.26814 0
M  V30 5530 C 532.947 0.666055 -4.35031 0
M  V30 5531 H 530.066 -0.031736 -0.736316 0
M  V30 5532 H 532.708 -0.762711 -1.74019 0
M  V30 5533 H 530.858 0.549532 -3.84594 0
M  V30 5534 H 532.53 -2.04411 -4.13538 0
M  V30 5535 H 530.773 -1.98422 -3.8576 0
M  V30 5536 H 531.444 -1.33395 -5.3564 0
M  V30 5537 H 533.92 0.174401 -4.15734 0
M  V30 5538 H 532.796 0.673041 -5.44758 0
M  V30 5539 H 533.057 1.72946 -4.06869 0
M  V30 5540 N 532.116 1.54067 -0.331816 0
M  V30 5541 C 533.362 2.01713 0.261395 0
M  V30 5542 C 533.717 1.21566 1.49129 0
M  V30 5543 O 533.01 0.291867 1.89364 0
M  V30 5544 C 533.204 3.51634 0.639392 0
M  V30 5545 C 533.033 4.46295 -0.552321 0
M  V30 5546 C 531.803 4.94185 -1.05399 0
M  V30 5547 C 534.001 4.94677 -1.40711 0
M  V30 5548 N 531.983 5.7277 -2.20925 0
M  V30 5549 C 533.354 5.71267 -2.40943 0
M  V30 5550 C 535.409 4.76805 -1.43392 0
M  V30 5551 C 534.112 6.31889 -3.4367 0
M  V30 5552 C 536.138 5.38268 -2.44994 0
M  V30 5553 C 535.5 6.14716 -3.43952 0
M  V30 5554 H 531.599 0.77975 0.0592729 0
M  V30 5555 H 534.183 1.88974 -0.468726 0
M  V30 5556 H 532.354 3.64603 1.33863 0
M  V30 5557 H 534.086 3.86038 1.21478 0
M  V30 5558 H 530.841 4.69472 -0.623952 0
M  V30 5559 H 531.265 6.16737 -2.79222 0
M  V30 5560 H 535.907 4.17255 -0.682489 0
M  V30 5561 H 533.625 6.90554 -4.19715 0
M  V30 5562 H 537.211 5.26352 -2.4788 0
M  V30 5563 H 536.091 6.6143 -4.21283 0
M  V30 5564 N 533.594 0.0601682 1.57485 0
M  V30 5565 C 534.542 -0.928899 2.13247 0
M  V30 5566 C 535.536 -1.31616 1.06647 0
M  V30 5567 O 536.742 -1.29476 1.25043 0
M  V30 5568 H 533.117 -0.317455 0.681708 0
M  V30 5569 H 535.088 -0.433566 2.95233 0
M  V30 5570 C 533.837 -2.19121 2.69965 0
M  V30 5571 H 533.16 -1.90204 3.51657 0
M  V30 5572 H 534.6 -2.86465 3.12592 0
M  V30 5573 C 533.059 -2.94195 1.64168 0
M  V30 5574 O 533.589 -3.87468 1.05978 0
M  V30 5575 N 531.795 -2.57089 1.35476 0
M  V30 5576 H 531.342 -1.81314 1.82984 0
M  V30 5577 H 531.3 -3.07624 0.649196 0
M  V30 5578 N 535.072 -1.5615 -0.213296 0
M  V30 5579 C 536.002 -1.96109 -1.26742 0
M  V30 5580 C 536.983 -0.830448 -1.48451 0
M  V30 5581 O 538.168 -1.09339 -1.60495 0
M  V30 5582 C 535.298 -2.28492 -2.61551 0
M  V30 5583 C 534.252 -3.44124 -2.54485 0
M  V30 5584 C 533.578 -3.62134 -3.93399 0
M  V30 5585 C 534.878 -4.78855 -2.08556 0
M  V30 5586 H 536.572 -2.84412 -0.935434 0
M  V30 5587 H 534.118 -1.36836 -0.44854 0
M  V30 5588 H 536.071 -2.55039 -3.3546 0
M  V30 5589 H 534.795 -1.37052 -2.96453 0
M  V30 5590 H 533.454 -3.17639 -1.83033 0
M  V30 5591 H 533.102 -2.68055 -4.25623 0
M  V30 5592 H 532.802 -4.39913 -3.89551 0
M  V30 5593 H 534.326 -3.91038 -4.68958 0
M  V30 5594 H 535.74 -5.04552 -2.72213 0
M  V30 5595 H 534.137 -5.59975 -2.1575 0
M  V30 5596 H 535.207 -4.73657 -1.03811 0
M  V30 5597 N 536.55 0.480323 -1.50102 0
M  V30 5598 C 537.48 1.58769 -1.71215 0
M  V30 5599 C 538.461 1.60583 -0.560997 0
M  V30 5600 O 539.646 1.76996 -0.799127 0
M  V30 5601 C 536.776 2.97148 -1.79778 0
M  V30 5602 C 535.73 3.10201 -2.94888 0
M  V30 5603 C 535.056 4.50137 -2.88584 0
M  V30 5604 C 536.356 2.88283 -4.35534 0
M  V30 5605 H 538.05 1.41354 -2.6393 0
M  V30 5606 H 535.596 0.678591 -1.27008 0
M  V30 5607 H 537.549 3.74536 -1.93133 0
M  V30 5608 H 536.273 3.15699 -0.836772 0
M  V30 5609 H 534.932 2.35244 -2.81169 0
M  V30 5610 H 534.58 4.65593 -1.90349 0
M  V30 5611 H 534.28 4.59808 -3.65856 0
M  V30 5612 H 535.804 5.29558 -3.03976 0
M  V30 5613 H 537.218 3.55427 -4.49827 0
M  V30 5614 H 535.615 3.09408 -5.14186 0
M  V30 5615 H 536.685 1.84219 -4.48544 0
M  V30 5616 N 538.028 1.39524 0.732853 0
M  V30 5617 C 538.975 1.38416 1.84688 0
M  V30 5618 C 539.945 0.243539 1.64305 0
M  V30 5619 O 541.13 0.438979 1.85681 0
M  V30 5620 C 538.27 1.23555 3.22224 0
M  V30 5621 C 537.383 2.47179 3.54298 0
M  V30 5622 C 536.518 2.2489 4.81246 0
M  V30 5623 C 535.557 3.44178 5.0617 0
M  V30 5624 N 534.694 3.21192 6.24323 0
M  V30 5625 H 539.534 2.33645 1.84971 0
M  V30 5626 H 537.071 1.16059 0.903804 0
M  V30 5627 H 539.029 1.12949 4.0162 0
M  V30 5628 H 537.659 0.31954 3.21215 0
M  V30 5629 H 536.711 2.68379 2.69587 0
M  V30 5630 H 538.023 3.36022 3.68633 0
M  V30 5631 H 537.177 2.11538 5.68627 0
M  V30 5632 H 535.916 1.33443 4.69089 0
M  V30 5633 H 534.921 3.58025 4.17251 0
M  V30 5634 H 536.146 4.36528 5.20212 0
M  V30 5635 H 534.092 2.32413 6.1345 0
M  V30 5636 H 534.009 4.03594 6.39256 0
M  V30 5637 H 535.277 3.1154 7.14537 0
M  V30 5638 N 539.506 -0.963266 1.24736 0
M  V30 5639 C 540.416 -2.09246 1.06082 0
M  V30 5640 C 541.432 -1.74 0.000363101 0
M  V30 5641 O 542.608 -2.0041 0.199479 0
M  V30 5642 C 539.673 -3.40115 0.672498 0
M  V30 5643 C 538.734 -3.89282 1.80993 0
M  V30 5644 C 537.967 -5.13905 1.44004 0
M  V30 5645 O 538.19 -5.69434 0.331835 0
M  V30 5646 O 537.124 -5.57566 2.26723 0
M  V30 5647 H 540.95 -2.27881 2.00759 0
M  V30 5648 H 538.535 -1.07649 1.03595 0
M  V30 5649 H 540.417 -4.18797 0.467668 0
M  V30 5650 H 539.092 -3.22771 -0.245102 0
M  V30 5651 H 537.999 -3.11642 2.06955 0
M  V30 5652 H 539.332 -4.1111 2.70646 0
M  V30 5653 N 540.985 -1.06182 -1.16461 0
M  V30 5654 C 541.935 -0.641619 -2.18786 0
M  V30 5655 C 542.919 0.327122 -1.5754 0
M  V30 5656 O 544.111 0.142746 -1.76423 0
M  V30 5657 C 541.24 -0.0283734 -3.43288 0
M  V30 5658 C 540.326 -1.02154 -4.11613 0
M  V30 5659 N 540.717 -2.19671 -4.55608 0
M  V30 5660 C 539.015 -0.852229 -4.37782 0
M  V30 5661 C 539.716 -2.82583 -5.0845 0
M  V30 5662 N 538.692 -2.10318 -5.01266 0
M  V30 5663 H 542.494 -1.53684 -2.50516 0
M  V30 5664 H 540.008 -0.933349 -1.329 0
M  V30 5665 H 542.005 0.29049 -4.15887 0
M  V30 5666 H 540.665 0.862118 -3.13046 0
M  V30 5667 H 541.676 -2.57453 -4.49375 0
M  V30 5668 H 538.353 -0.0136314 -4.17498 0
M  V30 5669 H 539.743 -3.82298 -5.52538 0
M  V30 5670 N 542.463 1.3308 -0.844243 0
M  V30 5671 C 543.709 1.97898 -0.443206 0
M  V30 5672 C 544.042 1.66699 0.99625 0
M  V30 5673 O 543.317 0.949704 1.69738 0
M  V30 5674 C 543.6 3.53801 -0.670606 0
M  V30 5675 C 543.453 3.94667 -2.15772 0
M  V30 5676 C 544.772 4.39936 -0.120226 0
M  V30 5677 H 541.891 0.718861 -0.162504 0
M  V30 5678 H 544.533 1.57633 -1.06075 0
M  V30 5679 H 542.683 3.88229 -0.14496 0
M  V30 5680 H 544.355 3.70469 -2.74865 0
M  V30 5681 H 542.598 3.44203 -2.6402 0
M  V30 5682 H 543.269 5.03275 -2.26757 0
M  V30 5683 H 545.745 4.12183 -0.5696 0
M  V30 5684 H 544.621 5.4803 -0.308984 0
M  V30 5685 H 544.882 4.31184 0.976347 0
M  V30 5686 N 543.941 0.601185 1.45683 0
M  V30 5687 C 545.166 0.0982245 2.07167 0
M  V30 5688 C 545.591 -1.20546 1.44396 0
M  V30 5689 O 544.949 -1.73247 0.534347 0
M  V30 5690 C 544.997 -0.0346976 3.60583 0
M  V30 5691 O 544.101 -1.08657 3.97828 0
M  V30 5692 H 543.442 0.0711618 0.660176 0
M  V30 5693 H 545.972 0.829376 1.87036 0
M  V30 5694 H 545.982 -0.234969 4.07323 0
M  V30 5695 H 544.657 0.917265 4.05659 0
M  V30 5696 H 543.234 -0.863275 3.6277 0
M  V30 5697 N 545.419 -1.53889 0.339982 0
M  V30 5698 C 546.835 -1.59595 -0.0120752 0
M  V30 5699 C 547.035 -1.35605 -1.49042 0
M  V30 5700 O 546.091 -1.14856 -2.24865 0
M  V30 5701 C 547.404 -2.9774 0.420898 0
M  V30 5702 C 548.952 -3.1077 0.37294 0
M  V30 5703 C 549.427 -4.51286 0.781327 0
M  V30 5704 N 550.918 -4.57325 0.735374 0
M  V30 5705 C 551.653 -5.64194 1.02336 0
M  V30 5706 N 551.149 -6.7893 1.37933 0
M  V30 5707 N 552.942 -5.54051 0.947838 0
M  V30 5708 H 545.093 -1.67738 1.30299 0
M  V30 5709 H 547.356 -0.785385 0.530918 0
M  V30 5710 H 547.062 -3.20349 1.45152 0
M  V30 5711 H 546.936 -3.76639 -0.205721 0
M  V30 5712 H 549.323 -2.87886 -0.648505 0
M  V30 5713 H 549.404 -2.33939 1.03472 0
M  V30 5714 H 549.048 -4.74905 1.80077 0
M  V30 5715 H 548.978 -5.26511 0.0970679 0
M  V30 5716 H 551.469 -3.74931 0.472773 0
M  V30 5717 H 551.782 -7.56392 1.58402 0
M  V30 5718 H 550.127 -6.80386 1.41774 0
M  V30 5719 H 553.318 -4.63293 0.669115 0
M  V30 5720 H 553.491 -6.37246 1.17563 0
M  V30 5721 N 546.897 -0.0685191 -1.57451 0
M  V30 5722 C 548.127 0.609577 -1.97402 0
M  V30 5723 C 548.535 1.63882 -0.945489 0
M  V30 5724 O 547.878 1.8354 0.0766052 0
M  V30 5725 C 547.94 1.3385 -3.33653 0
M  V30 5726 C 547.604 0.463103 -4.54648 0
M  V30 5727 C 548.601 -0.277964 -5.19156 0
M  V30 5728 C 546.286 0.388941 -5.00792 0
M  V30 5729 C 548.28 -1.08145 -6.28159 0
M  V30 5730 C 545.967 -0.418217 -6.09667 0
M  V30 5731 C 546.965 -1.15208 -6.73213 0
M  V30 5732 O 546.653 -1.94594 -7.79993 0
M  V30 5733 H 546.385 0.170197 -0.654224 0
M  V30 5734 H 548.939 -0.13647 -2.04946 0
M  V30 5735 H 547.169 2.13055 -3.22714 0
M  V30 5736 H 548.858 1.90851 -3.58233 0
M  V30 5737 H 549.624 -0.230241 -4.84453 0
M  V30 5738 H 545.503 0.949769 -4.5111 0
M  V30 5739 H 549.047 -1.65476 -6.7769 0
M  V30 5740 H 544.944 -0.467515 -6.43805 0
M  V30 5741 H 545.712 -1.8699 -7.96854 0
M  V30 5742 N 548.375 1.56261 0.205012 0
M  V30 5743 C 549.603 1.84141 0.943386 0
M  V30 5744 C 550.018 0.649772 1.77266 0
M  V30 5745 O 549.375 -0.381612 1.78466 0
M  V30 5746 C 549.426 3.10719 1.84759 0
M  V30 5747 O 549.147 4.25286 1.05181 0
M  V30 5748 C 550.648 3.51706 2.69848 0
M  V30 5749 H 547.868 0.611734 0.275721 0
M  V30 5750 H 550.412 2.03364 0.215253 0
M  V30 5751 H 548.567 2.93422 2.52947 0
M  V30 5752 H 548.981 4.97301 1.66709 0
M  V30 5753 H 550.455 4.43266 3.28967 0
M  V30 5754 H 550.932 2.7423 3.43067 0
M  V30 5755 H 551.538 3.71499 2.07047 0
M  V30 5756 N 549.853 -0.472356 1.50355 0
M  V30 5757 C 551.264 -1.05326 1.54154 0
M  V30 5758 C 551.615 -1.93155 0.344303 0
M  V30 5759 O 550.74 -2.09479 -0.542928 0
M  V30 5760 C 551.335 -1.91691 2.79356 0
M  V30 5761 C 549.894 -2.44892 2.8584 0
M  V30 5762 C 549.041 -1.23205 2.48426 0
M  V30 5763 H 551.992 -0.255027 1.56637 0
M  V30 5764 H 552.013 -2.76742 2.6114 0
M  V30 5765 H 551.525 -1.27741 3.66475 0
M  V30 5766 H 549.626 -3.12399 2.0307 0
M  V30 5767 H 549.739 -2.80086 3.88701 0
M  V30 5768 H 548.103 -1.56643 2.00836 0
M  V30 5769 H 548.886 -0.609194 3.37852 0
M  V30 5770 N 551.331 -1.39911 -0.725443 0
M  V30 5771 C 552.608 -1.28158 -1.47766 0
M  V30 5772 C 552.988 0.104545 -2.10841 0
M  V30 5773 O 552.336 1.11657 -1.99361 0
M  V30 5774 C 552.546 -2.41306 -2.52135 0
M  V30 5775 C 553.894 -2.81076 -3.18247 0
M  V30 5776 O 554.918 -2.40827 -2.62452 0
M  V30 5777 O 553.777 -3.50581 -4.19231 0
M  V30 5778 H 550.871 -0.502761 -0.656628 0
M  V30 5779 H 553.417 -1.51808 -0.758456 0
M  V30 5780 H 552.189 -3.33932 -2.03974 0
M  V30 5781 H 551.812 -2.19374 -3.31603 0
M  V30 5782 N 552.809 0.956637 -1.25245 0
M  V30 5783 C 554.055 1.70352 -1.10036 0
M  V30 5784 C 554.388 1.90869 0.358156 0
M  V30 5785 O 553.663 1.47819 1.26411 0
M  V30 5786 C 553.946 3.08766 -1.85298 0
M  V30 5787 C 553.799 2.95672 -3.38966 0
M  V30 5788 C 555.118 4.08622 -1.63451 0
M  V30 5789 H 552.237 0.618279 -0.401123 0
M  V30 5790 H 554.879 1.11212 -1.54051 0
M  V30 5791 H 553.029 3.59252 -1.47887 0
M  V30 5792 H 554.701 2.52527 -3.86041 0
M  V30 5793 H 552.944 2.31634 -3.6678 0
M  V30 5794 H 553.615 3.93776 -3.86839 0
M  V30 5795 H 556.091 3.67038 -1.96015 0
M  V30 5796 H 554.967 5.03514 -2.18551 0
M  V30 5797 H 555.228 4.3834 -0.575357 0
M  V30 5798 N 554.287 1.06798 1.15896 0
M  V30 5799 C 555.533 0.788934 1.86825 0
M  V30 5800 C 555.866 -0.683084 1.8179 0
M  V30 5801 O 555.141 -1.50086 1.23711 0
M  V30 5802 C 555.424 1.29065 3.36176 0
M  V30 5803 C 555.277 2.8268 3.49874 0
M  V30 5804 C 556.596 0.902655 4.30744 0
M  V30 5805 H 553.715 0.288066 0.678371 0
M  V30 5806 H 556.357 1.32479 1.36195 0
M  V30 5807 H 554.507 0.834806 3.79425 0
M  V30 5808 H 556.179 3.36511 3.15528 0
M  V30 5809 H 554.422 3.21157 2.91617 0
M  V30 5810 H 555.093 3.12852 4.54783 0
M  V30 5811 H 557.569 1.29535 3.95424 0
M  V30 5812 H 556.445 1.28111 5.3374 0
M  V30 5813 H 556.706 -0.191951 4.41683 0
M  V30 5814 N 555.766 -1.3263 0.851289 0
M  V30 5815 C 556.676 -2.32722 0.296268 0
M  V30 5816 C 557.692 -1.63901 -0.584162 0
M  V30 5817 O 558.868 -1.95465 -0.485334 0
M  V30 5818 C 555.933 -3.42942 -0.509103 0
M  V30 5819 C 554.994 -4.2746 0.397069 0
M  V30 5820 C 554.227 -5.32416 -0.36996 0
M  V30 5821 O 554.45 -5.47491 -1.6003 0
M  V30 5822 O 553.384 -6.01327 0.262493 0
M  V30 5823 H 557.21 -2.82078 1.12543 0
M  V30 5824 H 554.795 -1.36194 0.614135 0
M  V30 5825 H 556.677 -4.1017 -0.96634 0
M  V30 5826 H 555.352 -2.95781 -1.31512 0
M  V30 5827 H 554.259 -3.63053 0.902411 0
M  V30 5828 H 555.592 -4.78136 1.16818 0
M  V30 5829 N 557.244 -0.608902 -1.45362 0
M  V30 5830 C 558.192 0.121639 -2.32282 0
M  V30 5831 C 559.186 0.858301 -1.46046 0
M  V30 5832 O 560.392 0.773718 -1.62523 0
M  V30 5833 H 556.767 0.058086 -0.749753 0
M  V30 5834 H 558.738 -0.629866 -2.91677 0
M  V30 5835 C 557.487 1.1047 -3.29684 0
M  V30 5836 H 556.81 0.547278 -3.96036 0
M  V30 5837 H 558.25 1.58576 -3.9323 0
M  V30 5838 C 556.709 2.17891 -2.56954 0
M  V30 5839 O 557.239 3.25652 -2.35189 0
M  V30 5840 N 555.445 1.93211 -2.17066 0
M  V30 5841 H 554.992 1.05584 -2.34967 0
M  V30 5842 H 554.95 2.6529 -1.68727 0
M  V30 5843 N 558.722 1.53707 -0.348139 0
M  V30 5844 C 559.971 2.0017 0.247992 0
M  V30 5845 C 560.284 1.23983 1.51286 0
M  V30 5846 O 561.49 1.60946 2.18652 0
M  V30 5847 C 559.946 3.56515 0.492459 0
M  V30 5848 C 559.554 4.41562 -0.756777 0
M  V30 5849 C 561.298 4.11381 1.0472 0
M  V30 5850 C 559.205 5.89426 -0.482856 0
M  V30 5851 H 558.135 0.747806 0.0964452 0
M  V30 5852 H 560.786 1.77532 -0.464179 0
M  V30 5853 H 559.168 3.75236 1.26545 0
M  V30 5854 H 560.342 4.34615 -1.53122 0
M  V30 5855 H 558.657 3.97711 -1.23348 0
M  V30 5856 H 561.254 5.19468 1.26717 0
M  V30 5857 H 561.597 3.64885 2.00411 0
M  V30 5858 H 562.13 3.96389 0.334801 0
M  V30 5859 H 558.869 6.40164 -1.40962 0
M  V30 5860 H 558.389 5.99264 0.253416 0
M  V30 5861 H 560.068 6.4692 -0.101816 0
M  V30 5862 N 560.2 0.0768682 1.57412 0
M  V30 5863 C 561.44 -0.594676 1.95558 0
M  V30 5864 C 561.804 -1.66469 0.956658 0
M  V30 5865 O 563.005 -2.39215 1.22595 0
M  V30 5866 C 561.276 -1.15206 3.38323 0
M  V30 5867 S 562.835 -1.83803 3.9845 0
M  V30 5868 H 559.653 -0.194579 0.683857 0
M  V30 5869 H 562.255 0.151933 1.94909 0
M  V30 5870 H 560.959 -0.36153 4.08805 0
M  V30 5871 H 560.49 -1.93491 3.42527 0
M  V30 5872 H 562.505 -3.12087 3.85767 0
M  V30 5873 N 561.678 -1.56367 -0.196722 0
M  V30 5874 C 562.926 -1.80172 -0.915554 0
M  V30 5875 C 563.247 -0.649649 -1.8386 0
M  V30 5876 O 562.517 0.332111 -1.93064 0
M  V30 5877 H 561.097 -0.664592 -0.341067 0
M  V30 5878 H 563.759 -1.93844 -0.202622 0
M  V30 5879 H 562.855 -2.7327 -1.50764 0
M  V30 5880 N 563.156 0.464375 -1.50603 0
M  V30 5881 C 564.384 1.23907 -1.65695 0
M  V30 5882 C 564.799 1.85658 -0.343027 0
M  V30 5883 O 564.156 1.69529 0.675739 0
M  V30 5884 C 564.207 2.3429 -2.75301 0
M  V30 5885 O 563.928 1.7507 -4.01599 0
M  V30 5886 C 565.429 3.25051 -3.01424 0
M  V30 5887 H 562.649 0.374485 -0.556778 0
M  V30 5888 H 565.193 0.55353 -1.96866 0
M  V30 5889 H 563.348 2.98607 -2.46804 0
M  V30 5890 H 563.762 2.47812 -4.62266 0
M  V30 5891 H 565.236 3.98699 -3.81763 0
M  V30 5892 H 565.713 3.84227 -2.12758 0
M  V30 5893 H 566.319 2.66463 -3.31477 0
M  V30 5894 N 564.634 1.40294 0.718013 0
M  V30 5895 C 566.045 1.34289 1.29705 0
M  V30 5896 C 566.396 0.0152228 1.96194 0
M  V30 5897 O 565.521 -0.88682 1.97394 0
M  V30 5898 C 566.116 2.43219 2.3586 0
M  V30 5899 C 564.675 2.40682 2.89394 0
M  V30 5900 C 563.822 2.24223 1.63154 0
M  V30 5901 H 566.773 1.50135 0.514312 0
M  V30 5902 H 566.794 2.10986 3.16647 0
M  V30 5903 H 566.306 3.39836 1.87439 0
M  V30 5904 H 564.407 1.47756 3.42051 0
M  V30 5905 H 564.52 3.36177 3.41353 0
M  V30 5906 H 562.884 1.71696 1.88129 0
M  V30 5907 H 563.667 3.22834 1.16761 0
M  V30 5908 N 566.112 -0.949982 1.2575 0
M  V30 5909 C 567.059 -2.04738 1.06541 0
M  V30 5910 C 568.029 -1.66078 -0.0268818 0
M  V30 5911 O 569.214 -1.90348 0.131196 0
M  V30 5912 C 566.354 -3.38027 0.695127 0
M  V30 5913 C 565.467 -3.89776 1.86276 0
M  V30 5914 C 564.602 -5.11411 1.4364 0
M  V30 5915 C 563.641 -5.554 2.57287 0
M  V30 5916 N 562.778 -6.68244 2.15395 0
M  V30 5917 H 567.618 -2.20502 2.00457 0
M  V30 5918 H 565.155 -1.0805 0.998178 0
M  V30 5919 H 567.113 -4.14641 0.461375 0
M  V30 5920 H 565.743 -3.22135 -0.207046 0
M  V30 5921 H 564.795 -3.0964 2.20969 0
M  V30 5922 H 566.107 -4.18368 2.71606 0
M  V30 5923 H 565.261 -5.95457 1.16257 0
M  V30 5924 H 564 -4.84545 0.553879 0
M  V30 5925 H 563.005 -4.69916 2.85409 0
M  V30 5926 H 564.23 -5.84272 3.46125 0
M  V30 5927 H 562.176 -6.43078 1.29565 0
M  V30 5928 H 562.093 -6.96377 2.94272 0
M  V30 5929 H 563.361 -7.55687 1.91201 0
M  V30 5930 N 567.59 -1.07411 -1.15328 0
M  V30 5931 C 568.553 -0.698914 -2.18284 0
M  V30 5932 C 569.553 0.261149 -1.58665 0
M  V30 5933 O 570.743 0.0420277 -1.74149 0
M  V30 5934 C 567.875 -0.0302427 -3.40887 0
M  V30 5935 H 569.068 -1.61045 -2.52991 0
M  V30 5936 H 566.621 -0.870724 -1.298 0
M  V30 5937 H 567.356 0.893505 -3.11748 0
M  V30 5938 H 567.141 -0.720759 -3.85419 0
M  V30 5939 H 568.631 0.21759 -4.17033 0
M  V30 5940 N 569.068 1.32177 -0.85831 0
M  V30 5941 C 570.345 1.91781 -0.384624 0
M  V30 5942 C 570.725 1.78171 1.13217 0
M  V30 5943 O 570.073 1.18209 1.95548 0
M  V30 5944 C 570.283 3.38414 -0.853047 0
M  V30 5945 C 571.631 4.15542 -0.872359 0
M  V30 5946 O 572.655 3.47148 -0.797926 0
M  V30 5947 O 571.514 5.37678 -0.978009 0
M  V30 5948 H 568.608 0.819259 -0.112886 0
M  V30 5949 H 571.154 1.40923 -0.945453 0
M  V30 5950 H 569.926 3.4228 -1.89632 0
M  V30 5951 H 569.549 3.96683 -0.269874 0
M  V30 5952 N 570.547 0.616602 1.45037 0
M  V30 5953 C 571.794 0.115331 2.02171 0
M  V30 5954 C 572.122 -1.25748 1.48383 0
M  V30 5955 O 571.377 -1.84511 0.652229 0
M  V30 5956 C 571.676 0.0356829 3.57382 0
M  V30 5957 C 571.342 1.34535 4.30362 0
M  V30 5958 C 570.004 1.70408 4.50016 0
M  V30 5959 C 572.356 2.21049 4.72003 0
M  V30 5960 C 569.684 2.92529 5.0857 0
M  V30 5961 C 572.036 3.42427 5.31908 0
M  V30 5962 C 570.7 3.78541 5.49784 0
M  V30 5963 H 569.97 0.0422024 0.739797 0
M  V30 5964 H 572.617 0.80002 1.73988 0
M  V30 5965 H 570.922 -0.732314 3.84895 0
M  V30 5966 H 572.619 -0.368463 3.99304 0
M  V30 5967 H 569.209 1.05615 4.15383 0
M  V30 5968 H 573.393 1.94632 4.56544 0
M  V30 5969 H 568.649 3.20605 5.20598 0
M  V30 5970 H 572.823 4.09709 5.63127 0
M  V30 5971 H 570.45 4.73255 5.94923 0
M  V30 5972 N 572.025 -1.5352 0.356285 0
M  V30 5973 C 572.955 -2.28372 -0.486661 0
M  V30 5974 C 573.936 -1.30432 -1.09185 0
M  V30 5975 O 575.121 -1.59291 -1.11085 0
M  V30 5976 C 572.251 -3.06604 -1.63129 0
M  V30 5977 C 571.205 -4.12154 -1.15381 0
M  V30 5978 C 570.531 -4.78415 -2.38796 0
M  V30 5979 C 571.831 -5.21724 -0.245179 0
M  V30 5980 H 573.525 -2.99083 0.137797 0
M  V30 5981 H 571.071 -1.43841 0.0677134 0
M  V30 5982 H 573.024 -3.57712 -2.22755 0
M  V30 5983 H 571.748 -2.33568 -2.28284 0
M  V30 5984 H 570.407 -3.61978 -0.580294 0
M  V30 5985 H 570.055 -4.01959 -3.02387 0
M  V30 5986 H 569.755 -5.49734 -2.07524 0
M  V30 5987 H 571.279 -5.32313 -2.99125 0
M  V30 5988 H 572.693 -5.68391 -0.748646 0
M  V30 5989 H 571.09 -6.00095 -0.0237608 0
M  V30 5990 H 572.16 -4.79596 0.715229 0
M  V30 5991 N 573.503 -0.0852151 -1.57369 0
M  V30 5992 C 574.45 0.877268 -2.13478 0
M  V30 5993 C 575.42 1.28642 -1.05073 0
M  V30 5994 O 576.605 1.36992 -1.32808 0
M  V30 5995 C 573.745 2.13464 -2.71159 0
M  V30 5996 C 572.858 1.77691 -3.93764 0
M  V30 5997 C 571.993 2.98139 -4.39643 0
M  V30 5998 C 571.032 2.58447 -5.54862 0
M  V30 5999 N 570.169 3.71698 -5.95639 0
M  V30 6000 H 575.009 0.391933 -2.95411 0
M  V30 6001 H 572.546 0.181796 -1.45972 0
M  V30 6002 H 574.504 2.87086 -3.02717 0
M  V30 6003 H 573.134 2.59514 -1.91969 0
M  V30 6004 H 572.186 0.940768 -3.68583 0
M  V30 6005 H 573.498 1.44497 -4.77412 0
M  V30 6006 H 572.652 3.80026 -4.72933 0
M  V30 6007 H 571.391 3.34536 -3.54876 0
M  V30 6008 H 570.396 1.74984 -5.21211 0
M  V30 6009 H 571.621 2.23205 -6.41371 0
M  V30 6010 H 569.567 4.07831 -5.13819 0
M  V30 6011 H 569.484 3.42317 -6.74059 0
M  V30 6012 H 570.752 4.54123 -6.33555 0
M  V30 6013 N 574.981 1.5647 0.188427 0
M  V30 6014 C 576.227 1.81281 0.909124 0
M  V30 6015 C 576.56 0.66034 1.82628 0
M  V30 6016 O 575.835 -0.338737 1.91528 0
M  V30 6017 C 576.118 3.16388 1.7196 0
M  V30 6018 C 575.971 4.42137 0.826714 0
M  V30 6019 C 577.29 3.48256 2.69083 0
M  V30 6020 H 574.409 0.659457 0.329068 0
M  V30 6021 H 577.051 1.89182 0.176156 0
M  V30 6022 H 575.201 3.09784 2.34448 0
M  V30 6023 H 576.873 4.60794 0.216025 0
M  V30 6024 H 575.116 4.33594 0.133792 0
M  V30 6025 H 575.787 5.33184 1.42893 0
M  V30 6026 H 578.263 3.55203 2.16726 0
M  V30 6027 H 577.139 4.43899 3.2287 0
M  V30 6028 H 577.4 2.72088 3.48455 0
M  V30 6029 N 576.459 -0.456382 1.50847 0
M  V30 6030 C 577.699 -1.21704 1.64218 0
M  V30 6031 C 578.063 -1.88932 0.341859 0
M  V30 6032 O 579.264 -2.66497 0.351137 0
M  V30 6033 C 577.535 -2.22162 2.79962 0
M  V30 6034 S 579.094 -3.0697 3.13552 0
M  V30 6035 H 575.912 -0.412995 0.578754 0
M  V30 6036 H 578.514 -0.511637 1.88686 0
M  V30 6037 H 577.218 -1.71379 3.72904 0
M  V30 6038 H 576.749 -2.9731 2.57624 0
M  V30 6039 H 578.764 -4.23539 2.58513 0
M  V30 6040 N 577.937 -1.40673 -0.710563 0
M  V30 6041 C 578.847 -1.43663 -1.85467 0
M  V30 6042 C 579.863 -0.328721 -1.70867 0
M  V30 6043 O 581.039 -0.574098 -1.93044 0
M  V30 6044 C 578.104 -1.30226 -3.21313 0
M  V30 6045 C 577.165 -2.51204 -3.48131 0
M  V30 6046 C 576.398 -2.38398 -4.77495 0
M  V30 6047 O 576.621 -1.40048 -5.5294 0
M  V30 6048 O 575.555 -3.2787 -5.04762 0
M  V30 6049 H 579.381 -2.40156 -1.859 0
M  V30 6050 H 576.966 -1.22049 -0.861652 0
M  V30 6051 H 578.848 -1.2496 -4.02446 0
M  V30 6052 H 577.523 -0.368419 -3.21597 0
M  V30 6053 H 576.43 -2.62048 -2.66987 0
M  V30 6054 H 577.763 -3.43366 -3.52648 0
M  V30 6055 N 579.415 0.9433 -1.26252 0
M  V30 6056 C 580.661 1.69175 -1.11837 0
M  V30 6057 C 580.994 1.91238 0.337891 0
M  V30 6058 O 580.269 1.49152 1.24836 0
M  V30 6059 C 580.552 3.06783 -1.88563 0
M  V30 6060 C 580.405 2.9206 -3.42083 0
M  V30 6061 C 581.724 4.06865 -1.67776 0
M  V30 6062 H 578.843 0.61399 -0.407658 0
M  V30 6063 H 581.485 1.09572 -1.55222 0
M  V30 6064 H 579.635 3.57663 -1.51689 0
M  V30 6065 H 581.307 2.48419 -3.88698 0
M  V30 6066 H 579.55 2.27731 -3.69217 0
M  V30 6067 H 580.221 3.89651 -3.90994 0
M  V30 6068 H 582.697 3.64939 -1.99897 0
M  V30 6069 H 581.573 5.01168 -2.23879 0
M  V30 6070 H 581.834 4.37705 -0.621816 0
M  V30 6071 N 580.893 1.08022 1.14757 0
M  V30 6072 C 581.823 0.728248 2.21853 0
M  V30 6073 C 582.804 -0.287486 1.67653 0
M  V30 6074 O 583.989 -0.158727 1.9355 0
M  V30 6075 C 581.119 0.132549 3.47047 0
M  V30 6076 C 580.073 1.07619 4.14249 0
M  V30 6077 C 579.399 0.342907 5.33599 0
M  V30 6078 C 580.699 2.41268 4.63235 0
M  V30 6079 H 582.393 1.62365 2.51551 0
M  V30 6080 H 579.939 0.782125 1.20908 0
M  V30 6081 H 581.892 -0.125665 4.21213 0
M  V30 6082 H 580.616 -0.797971 3.16702 0
M  V30 6083 H 579.275 1.31944 3.42033 0
M  V30 6084 H 578.923 -0.59129 4.99513 0
M  V30 6085 H 578.623 0.971955 5.79506 0
M  V30 6086 H 580.147 0.0926538 6.1053 0
M  V30 6087 H 581.561 2.21232 5.28894 0
M  V30 6088 H 579.958 2.9983 5.19829 0
M  V30 6089 H 581.028 3.03079 3.78512 0
M  V30 6090 N 582.371 -1.3172 0.865308 0
M  V30 6091 C 583.334 -2.26918 0.322627 0
M  V30 6092 C 584.334 -1.52031 -0.523751 0
M  V30 6093 O 585.524 -1.70973 -0.333727 0
M  V30 6094 C 582.656 -3.36558 -0.542338 0
M  V30 6095 H 583.849 -2.76432 1.16298 0
M  V30 6096 H 581.402 -1.42573 0.640512 0
M  V30 6097 H 582.137 -2.92329 -1.40407 0
M  V30 6098 H 581.922 -3.92048 0.0636395 0
M  V30 6099 H 583.412 -4.07465 -0.91446 0
M  V30 6100 N 583.85 -0.624285 -1.44708 0
M  V30 6101 C 585.075 -0.131171 -2.06985 0
M  V30 6102 C 585.5 1.18234 -1.46295 0
M  V30 6103 O 584.858 1.72375 -0.561842 0
M  V30 6104 C 584.906 -0.0226724 -3.60593 0
M  V30 6105 O 584.01 1.02314 -3.99507 0
M  V30 6106 H 583.351 -0.0816556 -0.65896 0
M  V30 6107 H 585.88 -0.859027 -1.85693 0
M  V30 6108 H 585.891 0.170138 -4.07645 0
M  V30 6109 H 584.566 -0.981685 -4.04148 0
M  V30 6110 H 583.143 0.805452 -3.64097 0
M  V30 6111 N 585.328 1.53329 -0.364422 0
M  V30 6112 C 586.556 2.05657 0.226424 0
M  V30 6113 C 586.971 1.23801 1.42544 0
M  V30 6114 O 586.328 0.27839 1.80364 0
M  V30 6115 C 586.379 3.56125 0.621056 0
M  V30 6116 O 586.1 4.34879 -0.530304 0
M  V30 6117 C 587.601 4.24706 1.27041 0
M  V30 6118 H 584.821 0.669806 0.0400056 0
M  V30 6119 H 587.365 1.97714 -0.522456 0
M  V30 6120 H 585.52 3.64223 1.31985 0
M  V30 6121 H 585.934 5.24073 -0.211546 0
M  V30 6122 H 587.408 5.3131 1.49711 0
M  V30 6123 H 587.885 3.78354 2.23036 0
M  V30 6124 H 588.491 4.20858 0.613079 0
M  V30 6125 N 586.806 0.0935595 1.57322 0
M  V30 6126 C 588.031 -0.582324 1.99057 0
M  V30 6127 C 588.456 -1.61025 0.972242 0
M  V30 6128 O 587.814 -1.81202 -0.0594622 0
M  V30 6129 C 587.862 -1.20799 3.39765 0
M  V30 6130 O 586.966 -2.32382 3.40694 0
M  V30 6131 H 586.307 -0.147884 0.647323 0
M  V30 6132 H 588.837 0.174516 2.03854 0
M  V30 6133 H 588.847 -1.54966 3.77425 0
M  V30 6134 H 587.522 -0.454914 4.13405 0
M  V30 6135 H 586.099 -1.99845 3.14827 0
M  V30 6136 N 588.284 -1.56567 -0.180126 0
M  V30 6137 C 589.247 -1.94852 -1.20686 0
M  V30 6138 C 590.247 -0.831212 -1.3765 0
M  V30 6139 O 591.437 -1.09841 -1.35206 0
M  V30 6140 C 588.569 -2.23565 -2.57355 0
M  V30 6141 H 589.762 -2.86722 -0.879225 0
M  V30 6142 H 587.315 -1.50489 -0.422237 0
M  V30 6143 H 588.05 -1.34381 -2.95148 0
M  V30 6144 H 587.835 -3.04999 -2.46411 0
M  V30 6145 H 589.325 -2.54137 -3.31367 0
M  V30 6146 N 589.762 0.448376 -1.51087 0
M  V30 6147 C 591.173 1.0286 -1.5581 0
M  V30 6148 C 591.524 1.92583 -0.374989 0
M  V30 6149 O 590.649 2.10316 0.509533 0
M  V30 6150 C 591.244 1.87223 -2.8237 0
M  V30 6151 C 589.803 2.40314 -2.897 0
M  V30 6152 C 588.95 1.19238 -2.50355 0
M  V30 6153 H 591.901 0.230075 -1.57023 0
M  V30 6154 H 591.922 2.72553 -2.6551 0
M  V30 6155 H 591.434 1.21894 -3.68461 0
M  V30 6156 H 589.535 3.09129 -2.08014 0
M  V30 6157 H 589.648 2.73866 -3.93108 0
M  V30 6158 H 588.012 1.53428 -2.03303 0
M  V30 6159 H 588.795 0.555367 -3.38778 0
M  V30 6160 N 591.24 1.41047 0.703093 0
M  V30 6161 C 592.517 1.30493 1.45708 0
M  V30 6162 C 592.897 -0.0709892 2.10981 0
M  V30 6163 O 592.245 -1.08471 2.01113 0
M  V30 6164 C 592.455 2.45287 2.48265 0
M  V30 6165 C 593.803 2.86104 3.13735 0
M  V30 6166 O 594.827 2.44971 2.58587 0
M  V30 6167 O 593.686 3.57206 4.13601 0
M  V30 6168 H 590.78 0.513144 0.648546 0
M  V30 6169 H 593.326 1.52995 0.734208 0
M  V30 6170 H 592.098 3.37135 1.98635 0
M  V30 6171 H 591.721 2.24622 3.28071 0
M  V30 6172 N 592.718 -0.936591 1.26751 0
M  V30 6173 C 594.134 -1.21095 1.03963 0
M  V30 6174 C 594.334 -2.00156 -0.232372 0
M  V30 6175 O 593.39 -2.3434 -0.940274 0
M  V30 6176 C 594.703 -1.96775 2.27377 0
M  V30 6177 C 596.251 -2.09749 2.32324 0
M  V30 6178 C 596.726 -2.88832 3.55443 0
M  V30 6179 N 598.217 -2.96404 3.55948 0
M  V30 6180 C 598.952 -3.58036 4.47881 0
M  V30 6181 N 598.448 -4.21132 5.50109 0
M  V30 6182 N 600.241 -3.55353 4.35523 0
M  V30 6183 H 592.392 -0.408173 2.08441 0
M  V30 6184 H 594.655 -0.243139 0.91629 0
M  V30 6185 H 594.361 -1.46094 3.19921 0
M  V30 6186 H 594.235 -2.97424 2.31989 0
M  V30 6187 H 596.622 -2.5962 1.40291 0
M  V30 6188 H 596.703 -1.08347 2.31721 0
M  V30 6189 H 596.347 -2.39647 4.47808 0
M  V30 6190 H 596.277 -3.90499 3.53296 0
M  V30 6191 H 598.768 -2.51552 2.82011 0
M  V30 6192 H 599.081 -4.66071 6.16439 0
M  V30 6193 H 597.426 -4.19705 5.53961 0
M  V30 6194 H 600.617 -3.05256 3.54875 0
M  V30 6195 H 600.79 -4.03097 5.07363 0
M  V30 6196 N 594.196 -1.08629 -1.14182 0
M  V30 6197 C 595.424 -0.838889 -1.8913 0
M  V30 6198 C 595.839 0.609153 -1.78703 0
M  V30 6199 O 595.196 1.41876 -1.14794 0
M  V30 6200 C 595.247 -1.25477 -3.39025 0
M  V30 6201 O 594.968 -2.64601 -3.49167 0
M  V30 6202 C 596.469 -1.03856 -4.30963 0
M  V30 6203 H 593.689 -0.302377 -0.599007 0
M  V30 6204 H 596.233 -1.44615 -1.44592 0
M  V30 6205 H 594.388 -0.691571 -3.81177 0
M  V30 6206 H 594.802 -2.81922 -4.42289 0
M  V30 6207 H 596.276 -1.37892 -5.345 0
M  V30 6208 H 596.753 0.0242522 -4.39193 0
M  V30 6209 H 597.359 -1.58731 -3.94569 0
M  V30 6210 N 595.674 1.31259 -0.872281 0
M  V30 6211 C 596.902 2.00795 -0.498907 0
M  V30 6212 C 597.317 1.65464 0.909238 0
M  V30 6213 O 596.674 0.885073 1.59602 0
M  V30 6214 C 596.725 3.55625 -0.649092 0
M  V30 6215 O 596.446 3.89692 -2.00179 0
M  V30 6216 C 597.947 4.42434 -0.277034 0
M  V30 6217 H 595.167 0.642299 -0.194145 0
M  V30 6218 H 597.711 1.67438 -1.17408 0
M  V30 6219 H 595.866 3.87394 -0.0214402 0
M  V30 6220 H 596.28 4.84407 -2.01122 0
M  V30 6221 H 597.754 5.50299 -0.433064 0
M  V30 6222 H 598.231 4.32146 0.783989 0
M  V30 6223 H 598.837 4.16086 -0.880483 0
M  V30 6224 N 597.152 0.631951 1.44375 0
M  V30 6225 C 598.38 0.143867 2.06399 0
M  V30 6226 C 598.795 -1.18188 1.47231 0
M  V30 6227 O 598.152 -1.72511 0.595498 0
M  V30 6228 C 598.203 0.0238253 3.61492 0
M  V30 6229 O 597.924 1.29715 4.18456 0
M  V30 6230 C 599.425 -0.492856 4.40552 0
M  V30 6231 H 596.645 0.0800542 0.666207 0
M  V30 6232 H 599.189 0.866586 1.85231 0
M  V30 6233 H 597.344 -0.649338 3.81919 0
M  V30 6234 H 597.758 1.14252 5.11905 0
M  V30 6235 H 599.232 -0.525861 5.49489 0
M  V30 6236 H 599.709 -1.52006 4.12057 0
M  V30 6237 H 600.315 0.147085 4.25046 0
M  V30 6238 N 598.631 -1.53133 0.372548 0
M  V30 6239 C 599.878 -2.01356 -0.214959 0
M  V30 6240 C 600.206 -1.2596 -1.48204 0
M  V30 6241 O 599.461 -0.343511 -1.92662 0
M  V30 6242 C 599.76 -3.53206 -0.545938 0
M  V30 6243 C 599.426 -4.46511 0.627624 0
M  V30 6244 C 598.088 -4.71737 0.949615 0
M  V30 6245 C 600.44 -5.01666 1.41353 0
M  V30 6246 C 597.768 -5.4937 2.05936 0
M  V30 6247 C 600.12 -5.80511 2.51375 0
M  V30 6248 C 598.784 -6.04022 2.84101 0
M  V30 6249 H 598.054 -0.736813 -0.078659 0
M  V30 6250 H 600.701 -1.84682 0.506447 0
M  V30 6251 H 599.006 -3.67864 -1.34845 0
M  V30 6252 H 600.703 -3.87997 -1.01287 0
M  V30 6253 H 597.293 -4.27029 0.366635 0
M  V30 6254 H 601.477 -4.82117 1.17802 0
M  V30 6255 H 596.733 -5.65803 2.31682 0
M  V30 6256 H 600.907 -6.22255 3.12684 0
M  V30 6257 H 598.534 -6.63962 3.70214 0
M  V30 6258 N 600.109 -0.101901 -1.5727 0
M  V30 6259 C 601.039 0.851544 -2.17419 0
M  V30 6260 C 602.02 1.28942 -1.10941 0
M  V30 6261 O 603.205 1.35509 -1.39107 0
M  V30 6262 C 600.335 2.10816 -2.75996 0
M  V30 6263 C 599.289 1.80867 -3.87906 0
M  V30 6264 C 598.615 3.13413 -4.33216 0
M  V30 6265 C 599.915 1.0903 -5.10793 0
M  V30 6266 H 601.609 0.350381 -2.97343 0
M  V30 6267 H 599.155 0.16709 -1.43027 0
M  V30 6268 H 601.108 2.77959 -3.16729 0
M  V30 6269 H 599.832 2.63227 -1.93337 0
M  V30 6270 H 598.491 1.16119 -3.47724 0
M  V30 6271 H 598.139 3.63725 -3.47438 0
M  V30 6272 H 597.839 2.94155 -5.08671 0
M  V30 6273 H 599.363 3.81704 -4.76586 0
M  V30 6274 H 600.777 1.66295 -5.48652 0
M  V30 6275 H 599.174 0.99927 -5.91722 0
M  V30 6276 H 600.244 0.0741704 -4.84843 0
M  V30 6277 N 601.587 1.56661 0.17182 0
M  V30 6278 C 602.817 1.85831 0.902804 0
M  V30 6279 C 603.225 0.685157 1.76358 0
M  V30 6280 O 602.568 -0.354947 1.80238 0
M  V30 6281 C 602.63 3.09406 1.83053 0
M  V30 6282 C 602.294 4.4231 1.1494 0
M  V30 6283 C 603.291 5.17342 0.515104 0
M  V30 6284 C 600.976 4.89045 1.14631 0
M  V30 6285 C 602.97 6.37299 -0.113194 0
M  V30 6286 C 600.657 6.08933 0.514184 0
M  V30 6287 C 601.655 6.82904 -0.114463 0
M  V30 6288 O 601.343 8.00518 -0.736622 0
M  V30 6289 H 601.075 0.620715 0.267748 0
M  V30 6290 H 603.629 2.04637 0.176918 0
M  V30 6291 H 601.859 2.86544 2.59672 0
M  V30 6292 H 603.548 3.25027 2.4313 0
M  V30 6293 H 604.314 4.82317 0.509474 0
M  V30 6294 H 600.193 4.31409 1.62502 0
M  V30 6295 H 603.737 6.94976 -0.604477 0
M  V30 6296 H 599.634 6.43423 0.517395 0
M  V30 6297 H 600.402 8.16027 -0.635822 0
M  V30 6298 N 603.065 -0.440357 1.51323 0
M  V30 6299 C 604.028 -1.51679 1.71832 0
M  V30 6300 C 605.028 -1.49648 0.588386 0
M  V30 6301 O 606.218 -1.51724 0.855891 0
M  V30 6302 C 603.35 -2.91228 1.77199 0
M  V30 6303 H 604.543 -1.34799 2.67898 0
M  V30 6304 H 602.096 -0.66883 1.41267 0
M  V30 6305 H 602.831 -3.13516 0.829363 0
M  V30 6306 H 602.616 -2.94107 2.59314 0
M  V30 6307 H 604.106 -3.69321 1.94915 0
M  V30 6308 N 604.543 -1.41418 -0.695603 0
M  V30 6309 C 605.473 -1.46035 -1.82197 0
M  V30 6310 C 606.454 -0.319025 -1.67082 0
M  V30 6311 O 607.639 -0.530462 -1.86815 0
M  V30 6312 C 604.769 -1.34179 -3.20333 0
M  V30 6313 C 603.723 -2.46123 -3.50154 0
M  V30 6314 C 603.049 -2.19332 -4.87645 0
M  V30 6315 C 604.349 -3.88463 -3.49133 0
M  V30 6316 H 606.043 -2.40303 -1.78591 0
M  V30 6317 H 603.589 -1.15663 -0.857797 0
M  V30 6318 H 605.542 -1.36021 -3.98844 0
M  V30 6319 H 604.266 -0.363952 -3.24566 0
M  V30 6320 H 602.925 -2.43563 -2.73994 0
M  V30 6321 H 602.573 -1.19891 -4.88503 0
M  V30 6322 H 602.273 -2.94344 -5.08562 0
M  V30 6323 H 603.797 -2.22889 -5.68465 0
M  V30 6324 H 605.211 -3.92738 -4.17648 0
M  V30 6325 H 603.608 -4.63158 -3.81582 0
M  V30 6326 H 604.678 -4.16617 -2.48109 0
M  V30 6327 N 606.021 0.929856 -1.27246 0
M  V30 6328 C 607.269 1.674 -1.13233 0
M  V30 6329 C 607.59 1.92311 0.322744 0
M  V30 6330 O 606.86 1.52784 1.22612 0
M  V30 6331 H 605.44 0.620411 -0.416052 0
M  V30 6332 H 608.102 1.11663 -1.59741 0
M  V30 6333 H 607.198 2.64308 -1.65975 0
M  V30 6334 N 607.499 1.09233 1.13605 0
M  V30 6335 C 608.745 0.838255 1.85324 0
M  V30 6336 C 609.1 -0.629314 1.81817 0
M  V30 6337 O 608.393 -1.45729 1.24393 0
M  V30 6338 C 608.587 1.305 3.32723 0
M  V30 6339 C 608.416 2.81641 3.50583 0
M  V30 6340 C 607.186 3.49494 3.64941 0
M  V30 6341 C 609.384 3.79789 3.46792 0
M  V30 6342 N 607.366 4.89082 3.71042 0
M  V30 6343 C 608.737 5.05319 3.59239 0
M  V30 6344 C 610.792 3.72673 3.30181 0
M  V30 6345 C 609.495 6.24574 3.56791 0
M  V30 6346 C 611.521 4.91413 3.29039 0
M  V30 6347 C 610.883 6.15785 3.42035 0
M  V30 6348 H 606.982 0.359572 0.69443 0
M  V30 6349 H 609.566 1.39232 1.36098 0
M  V30 6350 H 607.737 0.778411 3.8052 0
M  V30 6351 H 609.469 0.996465 3.92241 0
M  V30 6352 H 606.224 2.9992 3.66531 0
M  V30 6353 H 606.648 5.61787 3.77789 0
M  V30 6354 H 611.29 2.77444 3.19037 0
M  V30 6355 H 609.008 7.20105 3.66708 0
M  V30 6356 H 612.594 4.87604 3.17386 0
M  V30 6357 H 611.474 7.06126 3.41111 0
M  V30 6358 N 608.977 -1.30795 0.87923 0
M  V30 6359 C 610.205 -2.00527 0.509548 0
M  V30 6360 C 610.62 -1.65944 -0.90045 0
M  V30 6361 O 609.977 -0.893525 -1.5913 0
M  V30 6362 C 610.028 -3.55276 0.667943 0
M  V30 6363 O 609.749 -3.88625 2.02242 0
M  V30 6364 C 611.25 -4.4228 0.300494 0
M  V30 6365 H 608.47 -0.641261 0.197549 0
M  V30 6366 H 611.014 -1.66813 1.18295 0
M  V30 6367 H 609.169 -3.87377 0.0419843 0
M  V30 6368 H 609.583 -4.83334 2.03688 0
M  V30 6369 H 611.057 -5.50061 0.462242 0
M  V30 6370 H 611.534 -4.32556 -0.76106 0
M  V30 6371 H 612.14 -4.15613 0.902536 0
M  V30 6372 N 610.455 -0.639598 -1.44038 0
M  V30 6373 C 611.387 0.0987684 -2.28987 0
M  V30 6374 C 612.4 0.80058 -1.41755 0
M  V30 6375 O 613.589 0.660611 -1.65826 0
M  V30 6376 C 610.689 1.16242 -3.18341 0
M  V30 6377 C 609.862 0.541447 -4.34036 0
M  V30 6378 C 608.921 1.50017 -5.04362 0
M  V30 6379 O 607.947 1.01403 -5.60095 0
M  V30 6380 N 609.149 2.83441 -5.06598 0
M  V30 6381 H 611.914 -0.630305 -2.92997 0
M  V30 6382 H 609.475 -0.481376 -1.54578 0
M  V30 6383 H 611.467 1.80429 -3.62253 0
M  V30 6384 H 610.037 1.79362 -2.56024 0
M  V30 6385 H 609.257 -0.27923 -3.9321 0
M  V30 6386 H 610.545 0.107379 -5.08687 0
M  V30 6387 H 609.943 3.2551 -4.62666 0
M  V30 6388 H 608.5 3.42966 -5.54272 0
M  V30 6389 N 611.933 1.52934 -0.380664 0
M  V30 6390 C 612.883 2.22989 0.475399 0
M  V30 6391 C 613.867 1.23058 1.03661 0
M  V30 6392 O 615.059 1.48436 0.964146 0
M  V30 6393 C 612.188 3.0338 1.60671 0
M  V30 6394 C 611.274 4.107 1.05766 0
M  V30 6395 N 611.665 5.05264 0.232837 0
M  V30 6396 C 609.963 4.25676 1.33101 0
M  V30 6397 C 610.664 5.81658 -0.0695134 0
M  V30 6398 N 609.64 5.40989 0.532144 0
M  V30 6399 H 613.442 2.93456 -0.161418 0
M  V30 6400 H 610.956 1.61291 -0.189495 0
M  V30 6401 H 612.953 3.52098 2.23232 0
M  V30 6402 H 611.613 2.34446 2.24644 0
M  V30 6403 H 612.624 5.17739 -0.129204 0
M  V30 6404 H 609.301 3.6797 1.97241 0
M  V30 6405 H 610.691 6.67843 -0.737269 0
M  V30 6406 N 613.412 0.11024 1.57214 0
M  V30 6407 C 614.64 -0.557834 1.99238 0
M  V30 6408 C 615.055 -1.60778 0.989734 0
M  V30 6409 O 614.412 -1.82491 -0.0186092 0
M  V30 6410 C 614.463 -1.19189 3.41286 0
M  V30 6411 O 614.184 -0.183919 4.37714 0
M  V30 6412 C 615.685 -1.94413 3.98395 0
M  V30 6413 H 612.905 -0.148392 0.654386 0
M  V30 6414 H 615.449 0.193996 2.03578 0
M  V30 6415 H 613.604 -1.89456 3.37913 0
M  V30 6416 H 614.018 -0.643475 5.20538 0
M  V30 6417 H 615.492 -2.34116 4.99894 0
M  V30 6418 H 615.969 -2.81592 3.3705 0
M  V30 6419 H 616.575 -1.28928 4.05287 0
M  V30 6420 N 614.89 -1.56749 -0.16351 0
M  V30 6421 C 616.136 -1.82704 -0.880168 0
M  V30 6422 C 616.469 -0.689311 -1.81555 0
M  V30 6423 O 615.744 0.308224 -1.92042 0
M  V30 6424 C 616.027 -3.19084 -1.66905 0
M  V30 6425 C 615.88 -4.43397 -0.756269 0
M  V30 6426 C 617.199 -3.52493 -2.63509 0
M  V30 6427 H 614.318 -0.664608 -0.318535 0
M  V30 6428 H 616.96 -1.89438 -0.146036 0
M  V30 6429 H 615.11 -3.13475 -2.2949 0
M  V30 6430 H 616.782 -4.61079 -0.14269 0
M  V30 6431 H 615.025 -4.33752 -0.0647944 0
M  V30 6432 H 615.696 -5.3539 -1.34393 0
M  V30 6433 H 618.172 -3.58606 -2.11047 0
M  V30 6434 H 617.048 -4.48979 -3.15767 0
M  V30 6435 H 617.309 -2.77597 -3.44082 0
M  V30 6436 N 616.368 0.432326 -1.51554 0
M  V30 6437 C 617.616 1.17901 -1.64146 0
M  V30 6438 C 617.937 1.91604 -0.362367 0
M  V30 6439 O 617.207 1.85764 0.621968 0
M  V30 6440 H 615.787 0.438206 -0.604966 0
M  V30 6441 H 618.449 0.495172 -1.88505 0
M  V30 6442 H 617.545 1.90584 -2.47152 0
M  V30 6443 N 617.846 1.41785 0.688094 0
M  V30 6444 C 618.809 1.43936 1.78368 0
M  V30 6445 C 619.809 0.328866 1.57401 0
M  V30 6446 O 620.999 0.589093 1.63937 0
M  V30 6447 C 618.131 1.25804 3.16838 0
M  V30 6448 H 619.324 2.41472 1.77852 0
M  V30 6449 H 616.877 1.28037 0.896448 0
M  V30 6450 H 617.612 0.291386 3.22988 0
M  V30 6451 H 617.397 2.06272 3.33458 0
M  V30 6452 H 618.887 1.30162 3.96797 0
M  V30 6453 N 619.324 -0.923095 1.27737 0
M  V30 6454 C 620.256 -2.02871 1.06658 0
M  V30 6455 C 621.269 -1.62786 0.0212095 0
M  V30 6456 O 622.458 -1.76548 0.263267 0
M  V30 6457 C 619.558 -3.33603 0.59682 0
M  V30 6458 C 618.731 -4.02354 1.71551 0
M  V30 6459 C 617.79 -5.11364 1.24071 0
M  V30 6460 O 616.816 -5.35075 1.94123 0
M  V30 6461 N 618.018 -5.80416 0.0988444 0
M  V30 6462 H 620.783 -2.21515 2.01869 0
M  V30 6463 H 618.344 -1.09378 1.19365 0
M  V30 6464 H 620.336 -4.03845 0.262984 0
M  V30 6465 H 618.906 -3.11499 -0.262187 0
M  V30 6466 H 618.126 -3.25786 2.2194 0
M  V30 6467 H 619.414 -4.45035 2.46619 0
M  V30 6468 H 618.812 -5.63611 -0.485743 0
M  V30 6469 H 617.369 -6.51563 -0.17578 0
M  V30 6470 N 620.802 -1.09834 -1.13024 0
M  V30 6471 C 621.75 -0.736283 -2.20639 0
M  V30 6472 C 622.744 0.264725 -1.67319 0
M  V30 6473 O 623.95 0.125745 -1.7956 0
M  V30 6474 H 620.325 -0.220136 -0.719058 0
M  V30 6475 H 622.296 -1.65295 -2.48436 0
M  V30 6476 C 621.045 -0.177544 -3.47246 0
M  V30 6477 H 620.368 -0.939009 -3.88616 0
M  V30 6478 H 621.808 0.0378007 -4.23983 0
M  V30 6479 C 620.267 1.08824 -3.1884 0
M  V30 6480 O 620.797 2.1708 -3.37993 0
M  V30 6481 N 619.003 1.00442 -2.7269 0
M  V30 6482 H 618.55 0.123383 -2.57304 0
M  V30 6483 H 618.508 1.85206 -2.5406 0
M  V30 6484 N 622.28 1.30327 -0.886154 0
M  V30 6485 C 623.529 1.95373 -0.501243 0
M  V30 6486 C 623.842 1.70722 0.954634 0
M  V30 6487 O 625.048 2.29761 1.44644 0
M  V30 6488 C 623.504 3.49828 -0.845493 0
M  V30 6489 C 623.112 3.83296 -2.31922 0
M  V30 6490 C 624.856 4.2118 -0.529838 0
M  V30 6491 C 622.763 5.30935 -2.60504 0
M  V30 6492 H 621.693 0.731274 -0.183722 0
M  V30 6493 H 624.344 1.48258 -1.08129 0
M  V30 6494 H 622.726 3.95522 -0.19452 0
M  V30 6495 H 623.9 3.48508 -3.01461 0
M  V30 6496 H 622.215 3.2505 -2.60253 0
M  V30 6497 H 624.812 5.29825 -0.720401 0
M  V30 6498 H 625.155 4.12902 0.530828 0
M  V30 6499 H 625.688 3.81173 -1.13806 0
M  V30 6500 H 622.427 5.44265 -3.65316 0
M  V30 6501 H 621.947 5.67019 -1.95575 0
M  V30 6502 H 623.626 5.98381 -2.46066 0
M  V30 6503 N 623.758 0.647228 1.43697 0
M  V30 6504 C 625.174 0.314256 1.56476 0
M  V30 6505 C 625.374 -1.18191 1.63196 0
M  V30 6506 O 624.43 -1.96655 1.58376 0
M  V30 6507 C 625.743 1.02034 2.82859 0
M  V30 6508 C 627.291 1.00002 2.96595 0
M  V30 6509 C 627.766 1.68689 4.25803 0
M  V30 6510 N 629.257 1.65424 4.32654 0
M  V30 6511 C 629.992 2.1545 5.31384 0
M  V30 6512 N 629.488 2.73738 6.36427 0
M  V30 6513 N 631.281 2.05985 5.22998 0
M  V30 6514 H 623.432 1.61821 1.37578 0
M  V30 6515 H 625.695 0.680184 0.660344 0
M  V30 6516 H 625.401 2.07542 2.83935 0
M  V30 6517 H 625.275 0.568146 3.72897 0
M  V30 6518 H 627.662 -0.0466319 2.95063 0
M  V30 6519 H 627.743 1.49086 2.07863 0
M  V30 6520 H 627.387 2.73308 4.28095 0
M  V30 6521 H 627.317 1.17076 5.13421 0
M  V30 6522 H 629.808 1.22884 3.57363 0
M  V30 6523 H 630.121 3.09602 7.08072 0
M  V30 6524 H 628.466 2.77796 6.37067 0
M  V30 6525 H 631.657 1.60157 4.39849 0
M  V30 6526 H 631.83 2.45281 5.99784 0
M  V30 6527 N 625.236 -1.5273 0.388769 0
M  V30 6528 C 626.464 -2.05992 -0.193677 0
M  V30 6529 C 626.879 -1.26053 -1.40557 0
M  V30 6530 O 626.236 -0.307049 -1.79898 0
M  V30 6531 C 626.287 -3.57068 -0.564321 0
M  V30 6532 O 626.008 -4.3398 0.599422 0
M  V30 6533 C 627.509 -4.26674 -1.20269 0
M  V30 6534 H 624.729 -0.670358 -0.0293445 0
M  V30 6535 H 627.273 -1.96857 0.553844 0
M  V30 6536 H 625.428 -3.66277 -1.26174 0
M  V30 6537 H 625.842 -5.2367 0.294895 0
M  V30 6538 H 627.316 -5.33625 -1.4124 0
M  V30 6539 H 627.793 -3.81854 -2.16989 0
M  V30 6540 H 628.399 -4.2178 -0.546047 0
M  V30 6541 N 626.714 -0.118576 -1.57153 0
M  V30 6542 C 627.647 0.869046 -2.11004 0
M  V30 6543 C 628.625 1.26115 -1.02634 0
M  V30 6544 O 629.809 1.36228 -1.30285 0
M  V30 6545 C 626.936 2.16297 -2.6064 0
M  V30 6546 C 625.982 1.91896 -3.80891 0
M  V30 6547 S 626.815 1.13562 -5.2332 0
M  V30 6548 C 627.971 2.44135 -5.76324 0
M  V30 6549 H 628.204 0.411005 -2.94445 0
M  V30 6550 H 625.737 0.0951891 -1.54106 0
M  V30 6551 H 627.695 2.90642 -2.89892 0
M  V30 6552 H 626.356 2.59219 -1.77382 0
M  V30 6553 H 625.549 2.8777 -4.13768 0
M  V30 6554 H 625.151 1.25672 -3.52253 0
M  V30 6555 H 627.443 3.39976 -5.86022 0
M  V30 6556 H 628.386 2.15803 -6.74414 0
M  V30 6557 H 628.794 2.53483 -5.04387 0
M  V30 6558 N 628.193 1.56834 0.155195 0
M  V30 6559 C 629.156 1.96748 1.17571 0
M  V30 6560 C 630.156 0.853006 1.3631 0
M  V30 6561 O 631.346 1.11978 1.33441 0
M  V30 6562 C 628.478 2.27631 2.53765 0
M  V30 6563 H 629.671 2.88085 0.833498 0
M  V30 6564 H 627.224 1.51141 0.398242 0
M  V30 6565 H 627.959 1.39059 2.92973 0
M  V30 6566 H 627.744 3.0888 2.41527 0
M  V30 6567 H 629.234 2.59377 3.27282 0
M  V30 6568 N 629.671 -0.424282 1.51781 0
M  V30 6569 C 630.604 -1.53633 1.68737 0
M  V30 6570 C 631.582 -1.53549 0.534915 0
M  V30 6571 O 632.766 -1.72483 0.760391 0
M  V30 6572 C 629.893 -2.92195 1.71288 0
M  V30 6573 C 628.939 -3.10251 2.92654 0
M  V30 6574 S 629.772 -2.85166 4.53256 0
M  V30 6575 C 630.928 -4.25986 4.58571 0
M  V30 6576 H 631.161 -1.39018 2.62795 0
M  V30 6577 H 628.694 -0.614854 1.41629 0
M  V30 6578 H 630.652 -3.72059 1.73443 0
M  V30 6579 H 629.313 -3.04162 0.783847 0
M  V30 6580 H 628.506 -4.1159 2.90877 0
M  V30 6581 H 628.108 -2.38231 2.88308 0
M  V30 6582 H 630.4 -5.19392 4.35015 0
M  V30 6583 H 631.343 -4.32792 5.60444 0
M  V30 6584 H 631.751 -4.1025 3.87757 0
M  V30 6585 N 631.149 -1.42148 -0.680565 0
M  V30 6586 C 632.398 -1.41604 -1.43636 0
M  V30 6587 C 632.711 -0.0337887 -1.95571 0
M  V30 6588 O 633.917 0.0942588 -2.71336 0
M  V30 6589 C 632.373 -2.49056 -2.59806 0
M  V30 6590 C 631.981 -3.9326 -2.14594 0
M  V30 6591 C 633.725 -2.5767 -3.37352 0
M  V30 6592 C 631.632 -4.92232 -3.27813 0
M  V30 6593 H 630.562 -0.526656 -0.539583 0
M  V30 6594 H 633.213 -1.68033 -0.737369 0
M  V30 6595 H 631.595 -2.15782 -3.32045 0
M  V30 6596 H 632.769 -4.35858 -1.49546 0
M  V30 6597 H 631.084 -3.88443 -1.50002 0
M  V30 6598 H 633.681 -3.28794 -4.21662 0
M  V30 6599 H 634.024 -1.61837 -3.83555 0
M  V30 6600 H 634.557 -2.90109 -2.72179 0
M  V30 6601 H 631.296 -5.89522 -2.86607 0
M  V30 6602 H 630.816 -4.5427 -3.91661 0
M  V30 6603 H 632.495 -5.13684 -3.93367 0
M  V30 6604 N 632.627 0.916307 -1.28225 0
M  V30 6605 C 633.559 2.02303 -1.07732 0
M  V30 6606 C 634.572 1.62773 -0.0298421 0
M  V30 6607 O 635.761 1.76406 -0.272626 0
M  V30 6608 C 632.861 3.33282 -0.614504 0
M  V30 6609 C 632.034 4.01439 -1.73682 0
M  V30 6610 C 631.093 5.10698 -1.26781 0
M  V30 6611 O 630.119 5.34038 -1.96958 0
M  V30 6612 N 631.321 5.80355 -0.129624 0
M  V30 6613 H 634.086 2.20442 -2.03041 0
M  V30 6614 H 631.647 1.08744 -1.19943 0
M  V30 6615 H 633.639 4.03699 -0.284397 0
M  V30 6616 H 632.209 3.11633 0.245664 0
M  V30 6617 H 631.429 3.24604 -2.23665 0
M  V30 6618 H 632.717 4.43721 -2.48976 0
M  V30 6619 H 632.115 5.6386 0.455847 0
M  V30 6620 H 630.672 6.51647 0.141224 0
M  V30 6621 N 634.105 1.10431 1.1244 0
M  V30 6622 C 635.035 0.775143 2.20258 0
M  V30 6623 C 636.016 -0.25186 1.68225 0
M  V30 6624 O 637.201 -0.117637 1.93843 0
M  V30 6625 C 634.331 0.206133 3.46688 0
M  V30 6626 C 633.285 1.16382 4.11873 0
M  V30 6627 C 632.611 0.456014 5.32752 0
M  V30 6628 C 633.911 2.5104 4.58013 0
M  V30 6629 H 635.605 1.67665 2.4805 0
M  V30 6630 H 633.151 0.807595 1.19222 0
M  V30 6631 H 635.104 -0.036291 4.21384 0
M  V30 6632 H 633.828 -0.730614 3.18323 0
M  V30 6633 H 632.487 1.39169 3.39157 0
M  V30 6634 H 632.135 -0.485203 5.00654 0
M  V30 6635 H 631.835 1.09466 5.77314 0
M  V30 6636 H 633.359 0.222135 6.10196 0
M  V30 6637 H 634.773 2.32401 5.24083 0
M  V30 6638 H 633.17 3.10789 5.13352 0
M  V30 6639 H 634.24 3.11039 3.71998 0
M  V30 6640 N 635.583 -1.29855 0.893053 0
M  V30 6641 C 636.513 -2.3035 0.382249 0
M  V30 6642 C 637.494 -1.61328 -0.539203 0
M  V30 6643 O 638.679 -1.88882 -0.451342 0
M  V30 6644 C 635.809 -3.45024 -0.396983 0
M  V30 6645 C 634.763 -4.258 0.433437 0
M  V30 6646 C 634.089 -5.32605 -0.472889 0
M  V30 6647 C 635.389 -4.94549 1.67984 0
M  V30 6648 H 637.083 -2.73325 1.22205 0
M  V30 6649 H 634.629 -1.314 0.589073 0
M  V30 6650 H 636.582 -4.14398 -0.765024 0
M  V30 6651 H 635.306 -3.00875 -1.2705 0
M  V30 6652 H 633.965 -3.58125 0.783723 0
M  V30 6653 H 633.613 -4.84702 -1.34435 0
M  V30 6654 H 633.313 -5.87547 0.0789958 0
M  V30 6655 H 634.837 -6.04832 -0.837269 0
M  V30 6656 H 636.251 -5.56395 1.38192 0
M  V30 6657 H 634.648 -5.59393 2.17254 0
M  V30 6658 H 635.718 -4.20215 2.41965 0
M  V30 6659 N 637.061 -0.65484 -1.43351 0
M  V30 6660 C 637.991 0.0221809 -2.33489 0
M  V30 6661 C 638.972 0.810272 -1.49561 0
M  V30 6662 O 640.157 0.771426 -1.78221 0
M  V30 6663 C 637.287 0.988117 -3.32947 0
M  V30 6664 C 636.241 0.310026 -4.26876 0
M  V30 6665 C 635.567 1.38752 -5.16384 0
M  V30 6666 C 636.867 -0.798589 -5.16159 0
M  V30 6667 H 638.561 -0.730571 -2.9035 0
M  V30 6668 H 636.107 -0.352773 -1.39612 0
M  V30 6669 H 638.06 1.47067 -3.94904 0
M  V30 6670 H 636.784 1.77205 -2.74346 0
M  V30 6671 H 635.443 -0.152097 -3.66284 0
M  V30 6672 H 635.091 2.16293 -4.54121 0
M  V30 6673 H 634.791 0.939051 -5.80048 0
M  V30 6674 H 636.315 1.87141 -5.81215 0
M  V30 6675 H 637.729 -0.398126 -5.71916 0
M  V30 6676 H 636.126 -1.17163 -5.88552 0
M  V30 6677 H 637.196 -1.65588 -4.55751 0
M  V30 6678 N 638.539 1.52521 -0.396863 0
M  V30 6679 C 639.787 2.01274 0.182536 0
M  V30 6680 C 640.108 1.28485 1.46685 0
M  V30 6681 O 639.378 0.407134 1.91623 0
M  V30 6682 H 637.958 0.743671 0.0704442 0
M  V30 6683 H 640.62 1.87547 -0.530289 0
M  V30 6684 H 639.716 3.09687 0.387385 0
M  V30 6685 N 640.017 0.126909 1.57088 0
M  V30 6686 C 640.965 -0.837618 2.16995 0
M  V30 6687 C 641.959 -1.26974 1.12133 0
M  V30 6688 O 643.165 -1.24056 1.30423 0
M  V30 6689 H 639.54 -0.288256 0.694559 0
M  V30 6690 H 641.511 -0.307957 2.96807 0
M  V30 6691 C 640.26 -2.07474 2.79016 0
M  V30 6692 H 639.583 -1.75117 3.59408 0
M  V30 6693 H 641.023 -2.72949 3.24461 0
M  V30 6694 C 639.482 -2.86967 1.76498 0
M  V30 6695 O 640.012 -3.82625 1.22316 0
M  V30 6696 N 638.218 -2.51111 1.46258 0
M  V30 6697 H 637.765 -1.73389 1.90509 0
M  V30 6698 H 637.723 -3.04594 0.779085 0
M  V30 6699 N 641.495 -1.56914 -0.146875 0
M  V30 6700 C 642.428 -1.93425 -1.21087 0
M  V30 6701 C 643.406 -0.800106 -1.41552 0
M  V30 6702 O 644.59 -1.05572 -1.56162 0
M  V30 6703 C 641.717 -2.20639 -2.56975 0
M  V30 6704 C 640.763 -3.43279 -2.53104 0
M  V30 6705 S 641.596 -4.96836 -1.99786 0
M  V30 6706 C 642.752 -5.27172 -3.37403 0
M  V30 6707 H 642.985 -2.8337 -0.899378 0
M  V30 6708 H 640.518 -1.50322 -0.352494 0
M  V30 6709 H 642.476 -2.36998 -3.35175 0
M  V30 6710 H 641.137 -1.31357 -2.85314 0
M  V30 6711 H 640.33 -3.59599 -3.53136 0
M  V30 6712 H 639.932 -3.26163 -1.83012 0
M  V30 6713 H 642.224 -5.20647 -4.33513 0
M  V30 6714 H 643.167 -6.28626 -3.25937 0
M  V30 6715 H 643.575 -4.54687 -3.34544 0
M  V30 6716 N 642.974 0.416227 -1.52004 0
M  V30 6717 C 644.222 1.16153 -1.65387 0
M  V30 6718 C 644.543 1.91208 -0.382669 0
M  V30 6719 O 643.813 1.86413 0.602231 0
M  V30 6720 H 642.393 0.431765 -0.60958 0
M  V30 6721 H 645.055 0.475151 -1.89019 0
M  V30 6722 H 644.151 1.87952 -2.4916 0
M  V30 6723 N 644.452 1.42507 0.673017 0
M  V30 6724 C 645.385 1.40557 1.79774 0
M  V30 6725 C 646.363 0.269606 1.60349 0
M  V30 6726 O 647.547 0.460105 1.82798 0
M  V30 6727 C 644.674 1.19815 3.168 0
M  V30 6728 C 643.72 2.36429 3.5497 0
M  V30 6729 S 644.553 3.98963 3.57196 0
M  V30 6730 C 645.709 3.80567 4.9691 0
M  V30 6731 H 645.942 2.35734 1.81154 0
M  V30 6732 H 643.475 1.293 0.843846 0
M  V30 6733 H 645.433 1.08535 3.95892 0
M  V30 6734 H 644.094 0.262215 3.13004 0
M  V30 6735 H 643.287 2.17669 4.54573 0
M  V30 6736 H 642.889 2.44233 2.83242 0
M  V30 6737 H 645.181 3.41668 5.85038 0
M  V30 6738 H 646.124 4.79852 5.20718 0
M  V30 6739 H 646.532 3.13399 4.69512 0
M  V30 6740 N 645.93 -0.909495 1.28709 0
M  V30 6741 C 646.893 -1.99399 1.13016 0
M  V30 6742 C 647.893 -1.60654 0.068536 0
M  V30 6743 O 649.083 -1.71334 0.314671 0
M  V30 6744 C 646.215 -3.33078 0.726085 0
M  V30 6745 H 647.408 -2.14751 2.09338 0
M  V30 6746 H 644.961 -1.09272 1.11756 0
M  V30 6747 H 645.696 -3.23428 -0.23771 0
M  V30 6748 H 645.481 -3.62562 1.49302 0
M  V30 6749 H 646.971 -4.12681 0.639058 0
M  V30 6750 N 647.408 -1.11026 -1.11852 0
M  V30 6751 C 648.656 -0.854769 -1.83134 0
M  V30 6752 C 648.977 0.621375 -1.84835 0
M  V30 6753 O 648.247 1.45129 -1.31584 0
M  V30 6754 H 646.827 -0.313229 -0.678157 0
M  V30 6755 H 649.489 -1.40178 -1.35411 0
M  V30 6756 H 648.585 -1.22311 -2.87135 0
M  V30 6757 N 648.886 1.2938 -0.899927 0
M  V30 6758 C 650.134 1.95164 -0.524924 0
M  V30 6759 C 650.455 1.71292 0.931888 0
M  V30 6760 O 649.725 1.04481 1.65712 0
M  V30 6761 H 648.305 0.722133 -0.191135 0
M  V30 6762 H 650.967 1.57628 -1.14627 0
M  V30 6763 H 650.063 3.0397 -0.707711 0
M  V30 6764 N 650.364 0.662433 1.43002 0
M  V30 6765 C 651.612 0.179237 2.01304 0
M  V30 6766 C 651.933 -1.21428 1.52579 0
M  V30 6767 O 651.203 -1.81294 0.742252 0
M  V30 6768 H 649.783 0.0632725 0.744316 0
M  V30 6769 H 652.445 0.856169 1.75088 0
M  V30 6770 H 651.541 0.170957 3.11631 0
M  V30 6771 N 651.842 -1.52309 0.404946 0
M  V30 6772 C 653.088 -2.02065 -0.172455 0
M  V30 6773 C 653.421 -1.29022 -1.45145 0
M  V30 6774 O 652.696 -0.395284 -1.90441 0
M  V30 6775 C 652.979 -3.5759 -0.424433 0
M  V30 6776 C 652.832 -4.41287 0.870945 0
M  V30 6777 C 654.151 -4.23186 -1.20837 0
M  V30 6778 H 651.27 -0.734454 -0.0612035 0
M  V30 6779 H 653.912 -1.82236 0.53759 0
M  V30 6780 H 652.062 -3.74617 -1.02929 0
M  V30 6781 H 653.734 -4.3598 1.50729 0
M  V30 6782 H 651.977 -4.07669 1.48284 0
M  V30 6783 H 652.648 -5.48171 0.649083 0
M  V30 6784 H 655.124 -4.10232 -0.696338 0
M  V30 6785 H 654 -5.31953 -1.35343 0
M  V30 6786 H 654.261 -3.81862 -2.22786 0
M  V30 6787 N 653.32 -0.135238 -1.57019 0
M  V30 6788 C 654.268 0.826099 -2.17436 0
M  V30 6789 C 655.262 1.26378 -1.12805 0
M  V30 6790 O 656.468 1.23363 -1.31079 0
M  V30 6791 H 652.843 0.284568 -0.696078 0
M  V30 6792 H 654.814 0.292212 -2.96966 0
M  V30 6793 C 653.563 2.05991 -2.80112 0
M  V30 6794 H 652.886 1.73209 -3.60331 0
M  V30 6795 H 654.326 2.71225 -3.25903 0
M  V30 6796 C 652.785 2.86027 -1.78017 0
M  V30 6797 O 653.315 3.81971 -1.24344 0
M  V30 6798 N 651.521 2.50332 -1.47588 0
M  V30 6799 H 651.068 1.72377 -1.91426 0
M  V30 6800 H 651.026 3.04177 -0.795228 0
M  V30 6801 N 654.798 1.5699 0.138552 0
M  V30 6802 C 655.761 1.97984 1.15478 0
M  V30 6803 C 656.761 0.867416 1.35398 0
M  V30 6804 O 657.951 1.13387 1.32246 0
M  V30 6805 C 655.083 2.3031 2.51337 0
M  V30 6806 H 656.276 2.88953 0.802896 0
M  V30 6807 H 653.829 1.51555 0.382189 0
M  V30 6808 H 654.564 1.42159 2.91481 0
M  V30 6809 H 654.349 3.11425 2.38237 0
M  V30 6810 H 655.839 2.62834 3.24512 0
M  V30 6811 N 656.276 -0.40816 1.52223 0
M  V30 6812 C 657.206 -1.5042 1.78595 0
M  V30 6813 C 658.187 -1.57723 0.636974 0
M  V30 6814 O 659.372 -1.72982 0.882664 0
M  V30 6815 C 656.502 -2.88232 1.93751 0
M  V30 6816 C 655.456 -2.95779 3.09352 0
M  V30 6817 C 654.782 -4.35855 3.09732 0
M  V30 6818 C 656.082 -2.67175 4.48793 0
M  V30 6819 H 657.776 -1.28601 2.70374 0
M  V30 6820 H 655.322 -0.617221 1.30101 0
M  V30 6821 H 657.275 -3.64895 2.10783 0
M  V30 6822 H 655.999 -3.11347 0.986443 0
M  V30 6823 H 654.658 -2.21561 2.92072 0
M  V30 6824 H 654.306 -4.55981 2.12346 0
M  V30 6825 H 654.006 -4.41829 3.87377 0
M  V30 6826 H 655.53 -5.14451 3.28895 0
M  V30 6827 H 656.944 -3.3356 4.66273 0
M  V30 6828 H 655.341 -2.84523 5.28362 0
M  V30 6829 H 656.411 -1.62609 4.56822 0
M  V30 6830 N 657.755 -1.42862 -0.66545 0
M  V30 6831 C 659.171 -1.25993 -0.979687 0
M  V30 6832 C 659.371 -0.170831 -2.00775 0
M  V30 6833 O 658.427 0.454827 -2.4837 0
M  V30 6834 C 659.74 -2.62005 -1.47559 0
M  V30 6835 C 661.288 -2.69437 -1.59288 0
M  V30 6836 C 661.763 -4.05838 -2.12272 0
M  V30 6837 N 663.254 -4.0784 -2.19592 0
M  V30 6838 C 663.989 -5.10205 -2.61684 0
M  V30 6839 N 663.485 -6.22949 -3.03161 0
M  V30 6840 N 665.278 -4.9756 -2.61516 0
M  V30 6841 H 657.429 -2.12395 0.0150493 0
M  V30 6842 H 659.692 -0.946355 -0.0558187 0
M  V30 6843 H 659.398 -3.42605 -0.794654 0
M  V30 6844 H 659.272 -2.86566 -2.45275 0
M  V30 6845 H 661.659 -1.89178 -2.26486 0
M  V30 6846 H 661.74 -2.48655 -0.600374 0
M  V30 6847 H 661.384 -4.86559 -1.4568 0
M  V30 6848 H 661.314 -4.23977 -3.12331 0
M  V30 6849 H 663.805 -3.26452 -1.90361 0
M  V30 6850 H 664.118 -6.96899 -3.33993 0
M  V30 6851 H 662.463 -6.2644 -3.00995 0
M  V30 6852 H 665.654 -4.08551 -2.28481 0
M  V30 6853 H 665.827 -5.77468 -2.93999 0
M  V30 6854 N 659.233 0.902656 -1.29189 0
M  V30 6855 C 660.481 1.6496 -1.16758 0
M  V30 6856 C 660.802 1.92952 0.28188 0
M  V30 6857 O 660.072 1.55351 1.19344 0
M  V30 6858 H 658.652 0.611447 -0.429118 0
M  V30 6859 H 661.314 1.0825 -1.62074 0
M  V30 6860 H 660.41 2.60728 -1.71544 0
M  V30 6861 N 660.711 1.11618 1.11262 0
M  V30 6862 C 661.661 0.745274 2.15475 0
M  V30 6863 C 662.645 -0.251585 1.58921 0
M  V30 6864 O 663.837 -0.0584093 1.76904 0
M  V30 6865 C 660.966 0.192128 3.42762 0
M  V30 6866 C 660.052 1.21676 4.0627 0
M  V30 6867 N 660.443 2.41158 4.44608 0
M  V30 6868 C 658.741 1.06013 4.33217 0
M  V30 6869 C 659.442 3.0652 4.94389 0
M  V30 6870 N 658.418 2.33994 4.9066 0
M  V30 6871 H 662.22 1.65462 2.42898 0
M  V30 6872 H 659.734 0.995695 1.28295 0
M  V30 6873 H 661.731 -0.0917339 4.16799 0
M  V30 6874 H 660.391 -0.711778 3.16802 0
M  V30 6875 H 661.402 2.786 4.3658 0
M  V30 6876 H 658.079 0.212809 4.16957 0
M  V30 6877 H 659.469 4.08225 5.33669 0
M  V30 6878 N 662.189 -1.289 0.906776 0
M  V30 6879 C 663.414 -1.99939 0.551303 0
M  V30 6880 C 663.839 -1.67366 -0.858496 0
M  V30 6881 O 663.197 -0.902176 -1.57259 0
M  V30 6882 C 663.245 -3.52523 0.758937 0
M  V30 6883 O 662.349 -4.11983 -0.185308 0
M  V30 6884 H 661.69 -0.628376 0.214568 0
M  V30 6885 H 664.22 -1.64225 1.2203 0
M  V30 6886 H 664.23 -4.02522 0.666329 0
M  V30 6887 H 662.905 -3.75566 1.78671 0
M  V30 6888 H 661.482 -3.72873 -0.0445577 0
M  V30 6889 N 663.667 -0.670007 -1.42649 0
M  V30 6890 C 664.615 0.0230106 -2.32589 0
M  V30 6891 C 665.609 0.795585 -1.49555 0
M  V30 6892 O 666.815 0.70409 -1.65658 0
M  V30 6893 H 663.19 0.0262342 -0.751542 0
M  V30 6894 H 665.161 -0.753009 -2.88743 0
M  V30 6895 C 663.91 0.963872 -3.34073 0
M  V30 6896 H 663.233 0.378813 -3.98001 0
M  V30 6897 H 664.673 1.41755 -3.99602 0
M  V30 6898 C 663.132 2.06797 -2.65964 0
M  V30 6899 O 663.662 3.15383 -2.48789 0
M  V30 6900 N 661.868 1.83831 -2.25066 0
M  V30 6901 H 661.415 0.955235 -2.39234 0
M  V30 6902 H 661.373 2.57895 -1.79827 0
M  V30 6903 N 665.145 1.52092 -0.413018 0
M  V30 6904 C 666.394 2.01041 0.16287 0
M  V30 6905 C 666.707 1.30288 1.45892 0
M  V30 6906 O 667.913 1.70075 2.11629 0
M  V30 6907 C 666.369 3.58283 0.340806 0
M  V30 6908 C 665.977 4.37955 -0.943377 0
M  V30 6909 C 667.721 4.15452 0.871774 0
M  V30 6910 C 665.628 5.86847 -0.732417 0
M  V30 6911 H 664.558 0.751224 0.0646414 0
M  V30 6912 H 667.209 1.75404 -0.539059 0
M  V30 6913 H 665.591 3.80266 1.10516 0
M  V30 6914 H 666.765 4.2773 -1.71418 0
M  V30 6915 H 665.08 3.92122 -1.40105 0
M  V30 6916 H 667.677 5.24375 1.0457 0
M  V30 6917 H 668.02 3.73057 1.84755 0
M  V30 6918 H 668.553 3.97452 0.166377 0
M  V30 6919 H 665.292 6.33609 -1.67986 0
M  V30 6920 H 664.812 5.998 -0.000980058 0
M  V30 6921 H 666.491 6.45906 -0.376105 0
M  V30 6922 N 666.623 0.143563 1.56945 0
M  V30 6923 C 667.555 -0.828353 2.13708 0
M  V30 6924 C 668.568 -1.21313 1.08568 0
M  V30 6925 O 669.757 -1.1578 1.35857 0
M  V30 6926 C 666.857 -2.12248 2.64204 0
M  V30 6927 C 666.03 -1.90561 3.93707 0
M  V30 6928 C 665.089 -3.03931 4.29549 0
M  V30 6929 O 664.115 -2.75772 4.97934 0
M  V30 6930 N 665.317 -4.31016 3.88852 0
M  V30 6931 H 668.082 -0.343242 2.97728 0
M  V30 6932 H 665.643 -0.0401152 1.6185 0
M  V30 6933 H 667.635 -2.87132 2.85197 0
M  V30 6934 H 666.205 -2.52033 1.84928 0
M  V30 6935 H 665.425 -0.997327 3.81375 0
M  V30 6936 H 666.713 -1.73405 4.78339 0
M  V30 6937 H 666.111 -4.56762 3.33743 0
M  V30 6938 H 664.668 -5.02691 4.14903 0
M  V30 6939 N 668.101 -1.57061 -0.130224 0
M  V30 6940 C 669.349 -1.83893 -0.838313 0
M  V30 6941 C 669.67 -0.727046 -1.80939 0
M  V30 6942 O 668.94 0.249927 -1.94299 0
M  V30 6943 H 667.52 -0.67846 -0.312573 0
M  V30 6944 H 670.182 -1.94529 -0.120224 0
M  V30 6945 H 669.278 -2.79419 -1.39038 0
M  V30 6946 N 669.579 0.400081 -1.52437 0
M  V30 6947 C 670.509 1.4947 -1.7939 0
M  V30 6948 C 671.49 1.57383 -0.645329 0
M  V30 6949 O 672.675 1.72511 -0.891826 0
M  V30 6950 C 669.805 2.87201 -1.95276 0
M  V30 6951 C 668.759 2.94134 -3.10917 0
M  V30 6952 C 668.085 4.34207 -3.1204 0
M  V30 6953 C 669.385 2.64791 -4.50203 0
M  V30 6954 H 671.079 1.27165 -2.71052 0
M  V30 6955 H 668.625 0.610312 -1.30427 0
M  V30 6956 H 670.578 3.63772 -2.12715 0
M  V30 6957 H 669.302 3.10819 -1.00294 0
M  V30 6958 H 667.961 2.20009 -2.93243 0
M  V30 6959 H 667.609 4.54848 -2.14761 0
M  V30 6960 H 667.309 4.39768 -3.89715 0
M  V30 6961 H 668.833 5.127 -3.31619 0
M  V30 6962 H 670.247 3.31083 -4.68035 0
M  V30 6963 H 668.644 2.81717 -5.29864 0
M  V30 6964 H 669.714 1.60184 -4.57678 0
M  V30 6965 N 671.057 1.43213 0.657864 0
M  V30 6966 C 672.285 1.48015 1.44566 0
M  V30 6967 C 672.7 0.0965951 1.88553 0
M  V30 6968 O 672.057 -0.892221 1.59203 0
M  V30 6969 C 672.108 2.42199 2.68369 0
M  V30 6970 O 671.829 3.75173 2.26223 0
M  V30 6971 C 673.33 2.56195 3.61772 0
M  V30 6972 H 670.55 0.502861 0.444266 0
M  V30 6973 H 673.094 1.87907 0.806917 0
M  V30 6974 H 671.249 2.05514 3.28394 0
M  V30 6975 H 671.663 4.25776 3.06293 0
M  V30 6976 H 673.137 3.26182 4.4532 0
M  V30 6977 H 673.614 1.60534 4.0881 0
M  V30 6978 H 674.22 2.93671 3.07632 0
M  V30 6979 N 672.536 -0.895792 1.29666 0
M  V30 6980 C 673.813 -1.62723 1.08538 0
M  V30 6981 C 674.193 -2.07848 -0.369119 0
M  V30 6982 O 673.541 -1.8372 -1.35864 0
M  V30 6983 C 673.751 -2.80505 2.07648 0
M  V30 6984 C 675.099 -3.51098 2.3878 0
M  V30 6985 O 676.123 -2.90679 2.05874 0
M  V30 6986 O 674.982 -4.60028 2.9502 0
M  V30 6987 H 672.076 -0.714692 0.416106 0
M  V30 6988 H 674.622 -0.943517 1.41053 0
M  V30 6989 H 673.394 -2.44386 3.05599 0
M  V30 6990 H 673.017 -3.5658 1.75887 0
M  V30 6991 N 674.014 -1.12206 -1.10668 0
M  V30 6992 C 674.944 -0.810086 -2.18997 0
M  V30 6993 C 675.925 0.225065 -1.68604 0
M  V30 6994 O 677.11 0.086783 -1.94006 0
M  V30 6995 C 674.24 -0.261262 -3.46316 0
M  V30 6996 C 673.194 -1.2292 -4.09969 0
M  V30 6997 C 672.52 -0.540713 -5.31959 0
M  V30 6998 C 673.82 -2.58295 -4.53962 0
M  V30 6999 H 675.514 -1.7159 -2.45352 0
M  V30 7000 H 673.06 -0.82646 -1.17922 0
M  V30 7001 H 675.013 -0.0307522 -4.21389 0
M  V30 7002 H 673.737 0.679879 -3.19445 0
M  V30 7003 H 672.396 -1.44548 -3.369 0
M  V30 7004 H 672.044 0.405492 -5.01363 0
M  V30 7005 H 671.744 -1.18637 -5.75499 0
M  V30 7006 H 673.268 -0.319184 -6.09765 0
M  V30 7007 H 674.682 -2.40709 -5.20319 0
M  V30 7008 H 673.079 -3.18916 -5.08343 0
M  V30 7009 H 674.149 -3.16918 -3.67002 0
M  V30 7010 N 675.492 1.28418 -0.913599 0
M  V30 7011 C 676.74 1.94596 -0.545594 0
M  V30 7012 C 677.061 1.7227 0.913668 0
M  V30 7013 O 676.331 1.06233 1.64595 0
M  V30 7014 H 674.911 0.720065 -0.198783 0
M  V30 7015 H 677.573 1.56404 -1.16292 0
M  V30 7016 H 676.669 3.03202 -0.739911 0
M  V30 7017 N 676.97 0.677563 1.42291 0
M  V30 7018 C 677.9 0.014968 2.33495 0
M  V30 7019 C 678.881 -0.786376 1.50831 0
M  V30 7020 O 680.066 -0.742975 1.79426 0
M  V30 7021 C 677.196 -0.935023 3.34477 0
M  V30 7022 C 676.15 -0.242074 4.27315 0
M  V30 7023 C 675.476 -1.30519 5.18526 0
M  V30 7024 C 676.776 0.880604 5.14823 0
M  V30 7025 H 678.47 0.776671 2.89151 0
M  V30 7026 H 676.016 0.37494 1.39033 0
M  V30 7027 H 677.969 -1.40766 3.97194 0
M  V30 7028 H 676.693 -1.72818 2.77131 0
M  V30 7029 H 675.352 0.210351 3.65996 0
M  V30 7030 H 675 -2.09041 4.57505 0
M  V30 7031 H 674.7 -0.846652 5.81468 0
M  V30 7032 H 676.224 -1.7787 5.84119 0
M  V30 7033 H 677.638 0.489062 5.7121 0
M  V30 7034 H 676.035 1.26511 5.86613 0
M  V30 7035 H 677.105 1.72818 4.53059 0
M  V30 7036 N 678.448 -1.51871 0.421078 0
M  V30 7037 C 679.378 -2.30231 -0.389363 0
M  V30 7038 C 680.359 -1.34946 -1.03555 0
M  V30 7039 O 681.544 -1.63859 -1.04229 0
M  V30 7040 C 678.674 -3.13247 -1.49979 0
M  V30 7041 C 677.628 -4.16677 -0.977966 0
M  V30 7042 C 676.954 -4.88112 -2.1829 0
M  V30 7043 C 678.254 -5.22295 -0.0236775 0
M  V30 7044 H 679.948 -2.98229 0.264524 0
M  V30 7045 H 677.494 -1.43424 0.12866 0
M  V30 7046 H 679.447 -3.66838 -2.07383 0
M  V30 7047 H 678.171 -2.4304 -2.18173 0
M  V30 7048 H 676.83 -3.64114 -0.426245 0
M  V30 7049 H 676.478 -4.14423 -2.85066 0
M  V30 7050 H 676.178 -5.58041 -1.84021 0
M  V30 7051 H 677.702 -5.44521 -2.76278 0
M  V30 7052 H 679.116 -5.71055 -0.506899 0
M  V30 7053 H 677.513 -5.99656 0.230782 0
M  V30 7054 H 678.583 -4.76131 0.917999 0
M  V30 7055 N 679.926 -0.151884 -1.56866 0
M  V30 7056 C 681.151 0.508044 -2.01081 0
M  V30 7057 C 681.576 1.57306 -1.03134 0
M  V30 7058 O 680.934 1.81298 -0.0078309 0
M  V30 7059 C 680.982 1.08106 -3.44014 0
M  V30 7060 O 680.086 2.19577 -3.49084 0
M  V30 7061 H 679.427 0.123757 -0.652365 0
M  V30 7062 H 681.957 -0.250055 -2.03066 0
M  V30 7063 H 681.967 1.40851 -3.82916 0
M  V30 7064 H 680.642 0.301168 -4.14808 0
M  V30 7065 H 679.219 1.88023 -3.22027 0
M  V30 7066 N 681.404 1.57128 0.121893 0
M  V30 7067 C 682.632 1.88883 0.844451 0
M  V30 7068 C 683.047 0.742824 1.73573 0
M  V30 7069 O 682.404 -0.286475 1.80238 0
M  V30 7070 C 682.455 3.20076 1.68029 0
M  V30 7071 O 682.176 4.30264 0.824898 0
M  V30 7072 C 683.677 3.65515 2.50826 0
M  V30 7073 H 680.897 0.62549 0.242907 0
M  V30 7074 H 683.441 2.04219 0.107151 0
M  V30 7075 H 681.596 3.06418 2.37038 0
M  V30 7076 H 682.01 5.05439 1.40113 0
M  V30 7077 H 683.484 4.60081 3.05008 0
M  V30 7078 H 683.961 2.92029 3.28048 0
M  V30 7079 H 684.567 3.81952 1.87064 0
M  V30 7080 N 682.882 -0.391992 1.52647 0
M  V30 7081 C 684.107 -1.16312 1.71716 0
M  V30 7082 C 684.532 -1.83042 0.433279 0
M  V30 7083 O 683.89 -1.70705 -0.610707 0
M  V30 7084 C 683.938 -2.18908 2.86551 0
M  V30 7085 O 683.042 -3.2543 2.53316 0
M  V30 7086 H 682.383 -0.338743 0.571095 0
M  V30 7087 H 684.913 -0.457202 1.99426 0
M  V30 7088 H 684.923 -2.62954 3.1196 0
M  V30 7089 H 683.598 -1.69726 3.79692 0
M  V30 7090 H 682.175 -2.86543 2.38637 0
M  V30 7091 N 684.36 -1.4356 -0.65026 0
M  V30 7092 C 685.29 -1.51758 -1.77459 0
M  V30 7093 C 686.271 -0.372019 -1.65982 0
M  V30 7094 O 687.456 -0.589627 -1.85033 0
M  V30 7095 C 684.586 -1.44302 -3.15902 0
M  V30 7096 C 683.54 -2.57138 -3.42146 0
M  V30 7097 C 682.866 -2.34735 -4.8042 0
M  V30 7098 C 684.166 -3.99373 -3.36598 0
M  V30 7099 H 685.86 -2.45863 -1.70855 0
M  V30 7100 H 683.406 -1.18333 -0.820566 0
M  V30 7101 H 685.359 -1.48641 -3.94314 0
M  V30 7102 H 684.083 -0.467026 -3.23244 0
M  V30 7103 H 682.742 -2.52157 -2.66106 0
M  V30 7104 H 682.39 -1.35372 -4.84441 0
M  V30 7105 H 682.09 -3.10375 -4.9894 0
M  V30 7106 H 683.614 -2.40862 -5.61086 0
M  V30 7107 H 685.028 -4.05826 -4.04942 0
M  V30 7108 H 683.425 -4.75063 -3.66654 0
M  V30 7109 H 684.495 -4.243 -2.34729 0
M  V30 7110 N 685.838 0.888903 -1.30139 0
M  V30 7111 C 687.249 1.45578 -1.16893 0
M  V30 7112 C 687.6 1.94825 0.231866 0
M  V30 7113 O 686.725 1.84661 1.12824 0
M  V30 7114 C 687.32 2.646 -2.11595 0
M  V30 7115 C 685.879 3.17389 -2.02339 0
M  V30 7116 C 685.026 1.90081 -2.01902 0
M  V30 7117 H 687.977 0.69921 -1.42467 0
M  V30 7118 H 687.998 3.40687 -1.69449 0
M  V30 7119 H 687.51 2.28726 -3.13538 0
M  V30 7120 H 685.611 3.5793 -1.03523 0
M  V30 7121 H 685.724 3.80955 -2.90534 0
M  V30 7122 H 684.088 2.08246 -1.46648 0
M  V30 7123 H 684.871 1.5647 -3.05568 0
M  V30 7124 N 687.317 1.12792 1.10072 0
M  V30 7125 C 688.565 0.883796 1.81751 0
M  V30 7126 C 688.886 -0.591891 1.858 0
M  V30 7127 O 688.156 -1.43017 1.33876 0
M  V30 7128 H 686.736 0.323978 0.673088 0
M  V30 7129 H 689.398 1.42314 1.33164 0
M  V30 7130 H 688.494 1.26863 2.85153 0
M  V30 7131 N 688.795 -1.27931 0.920396 0
M  V30 7132 C 690.025 -1.98516 0.572256 0
M  V30 7133 C 690.433 -1.68912 -0.852375 0
M  V30 7134 O 689.776 -0.94203 -1.57707 0
M  V30 7135 C 689.838 -3.5243 0.709485 0
M  V30 7136 C 689.502 -4.0564 2.10489 0
M  V30 7137 C 690.499 -4.1897 3.07831 0
M  V30 7138 C 688.184 -4.40168 2.41986 0
M  V30 7139 C 690.178 -4.66093 4.34783 0
M  V30 7140 C 687.865 -4.86983 3.69176 0
M  V30 7141 C 688.863 -4.99903 4.65388 0
M  V30 7142 O 688.551 -5.45694 5.90316 0
M  V30 7143 H 688.283 -0.64047 0.216274 0
M  V30 7144 H 690.837 -1.6393 1.23758 0
M  V30 7145 H 689.067 -3.86698 -0.0129263 0
M  V30 7146 H 690.756 -4.04233 0.367474 0
M  V30 7147 H 691.522 -3.92562 2.84816 0
M  V30 7148 H 687.401 -4.29358 1.67846 0
M  V30 7149 H 690.945 -4.76092 5.09884 0
M  V30 7150 H 686.842 -5.12832 3.92012 0
M  V30 7151 H 687.61 -5.63965 5.932 0
M  V30 7152 N 690.273 -0.685099 -1.4193 0
M  V30 7153 C 691.203 -0.0273506 -2.33484 0
M  V30 7154 C 692.184 0.778366 -1.51246 0
M  V30 7155 O 693.369 0.733449 -1.79817 0
M  V30 7156 C 690.499 0.917272 -3.34968 0
M  V30 7157 C 689.453 0.21941 -4.27437 0
M  V30 7158 C 688.779 1.27768 -5.1921 0
M  V30 7159 C 690.079 -0.907894 -5.14349 0
M  V30 7160 H 691.773 -0.791994 -2.88735 0
M  V30 7161 H 689.319 -0.382308 -1.38832 0
M  V30 7162 H 691.272 1.38657 -3.97935 0
M  V30 7163 H 689.996 1.71346 -2.78043 0
M  V30 7164 H 688.655 -0.229757 -3.65879 0
M  V30 7165 H 688.303 2.06612 -4.58607 0
M  V30 7166 H 688.003 0.815803 -5.81909 0
M  V30 7167 H 689.527 1.7477 -5.85054 0
M  V30 7168 H 690.941 -0.519348 -5.70943 0
M  V30 7169 H 689.338 -1.2962 -5.85934 0
M  V30 7170 H 690.408 -1.75218 -4.52136 0
M  V30 7171 N 691.751 1.51645 -0.429126 0
M  V30 7172 C 692.979 2.06433 0.138994 0
M  V30 7173 C 693.394 1.29735 1.37165 0
M  V30 7174 O 692.751 0.354638 1.79021 0
M  V30 7175 C 692.802 3.58439 0.469452 0
M  V30 7176 O 692.523 4.32238 -0.714273 0
M  V30 7177 C 694.024 4.29712 1.08914 0
M  V30 7178 H 691.244 0.6709 0.0115608 0
M  V30 7179 H 693.788 1.9532 -0.605843 0
M  V30 7180 H 691.943 3.69494 1.16419 0
M  V30 7181 H 692.357 5.22704 -0.433633 0
M  V30 7182 H 693.831 5.37182 1.27042 0
M  V30 7183 H 694.308 3.87473 2.06788 0
M  V30 7184 H 694.914 4.2308 0.434028 0
M  V30 7185 N 693.229 0.160201 1.56784 0
M  V30 7186 C 694.159 -0.770264 2.2043 0
M  V30 7187 C 695.14 -1.24736 1.15651 0
M  V30 7188 O 696.325 -1.30253 1.44041 0
M  V30 7189 C 693.455 -2.00427 2.83631 0
M  V30 7190 C 692.409 -1.66345 3.94352 0
M  V30 7191 C 691.735 -2.97119 4.4455 0
M  V30 7192 C 693.035 -0.899972 5.14488 0
M  V30 7193 H 694.729 -0.239783 2.98438 0
M  V30 7194 H 692.275 -0.113891 1.43549 0
M  V30 7195 H 694.228 -2.66012 3.26827 0
M  V30 7196 H 692.952 -2.5587 2.02973 0
M  V30 7197 H 691.611 -1.03133 3.51794 0
M  V30 7198 H 691.259 -3.5058 3.60698 0
M  V30 7199 H 690.959 -2.75073 5.19238 0
M  V30 7200 H 692.483 -3.63753 4.90425 0
M  V30 7201 H 693.897 -1.45818 5.54446 0
M  V30 7202 H 692.294 -0.778968 5.95023 0
M  V30 7203 H 693.364 0.105827 4.84785 0
M  V30 7204 N 694.707 -1.5719 -0.113559 0
M  V30 7205 C 696.118 -1.74259 -0.670116 0
M  V30 7206 C 696.469 -0.779694 -1.80042 0
M  V30 7207 O 695.594 0.0461353 -2.16351 0
M  V30 7208 C 696.189 -3.15981 -1.22236 0
M  V30 7209 C 694.748 -3.34537 -1.72516 0
M  V30 7210 C 693.895 -2.70116 -0.627098 0
M  V30 7211 H 696.846 -1.58301 0.112396 0
M  V30 7212 H 696.867 -3.17832 -2.09197 0
M  V30 7213 H 696.379 -3.86038 -0.39949 0
M  V30 7214 H 694.48 -2.6953 -2.57263 0
M  V30 7215 H 694.593 -4.42737 -1.83086 0
M  V30 7216 H 692.957 -2.31501 -1.06204 0
M  V30 7217 H 693.74 -3.42802 0.184889 0
M  V30 7218 N 696.185 0.383891 -1.52853 0
M  V30 7219 C 697.41 1.154 -1.7233 0
M  V30 7220 C 697.835 1.82809 -0.44298 0
M  V30 7221 O 697.193 1.71026 0.601645 0
M  V30 7222 C 697.241 2.17386 -2.87708 0
M  V30 7223 O 696.345 3.24082 -2.55038 0
M  V30 7224 H 695.686 0.335709 -0.572883 0
M  V30 7225 H 698.216 0.44662 -1.99666 0
M  V30 7226 H 698.226 2.61296 -3.1335 0
M  V30 7227 H 696.901 1.6771 -3.80587 0
M  V30 7228 H 695.478 2.85273 -2.40153 0
M  V30 7229 N 697.663 1.43903 0.642637 0
M  V30 7230 C 698.573 1.52349 1.78401 0
M  V30 7231 C 699.589 0.409869 1.69104 0
M  V30 7232 O 700.765 0.665548 1.90085 0
M  V30 7233 C 697.83 1.45408 3.14734 0
M  V30 7234 C 696.891 2.67528 3.35749 0
M  V30 7235 C 696.124 2.60909 4.65577 0
M  V30 7236 O 696.347 1.6627 5.45628 0
M  V30 7237 O 695.281 3.5158 4.88544 0
M  V30 7238 H 699.107 2.48752 1.7423 0
M  V30 7239 H 696.692 1.26021 0.802439 0
M  V30 7240 H 698.574 1.44019 3.96026 0
M  V30 7241 H 697.249 0.521437 3.19473 0
M  V30 7242 H 696.156 2.74487 2.5418 0
M  V30 7243 H 697.489 3.598 3.35864 0
M  V30 7244 N 699.141 -0.881989 1.30609 0
M  V30 7245 C 700.088 -1.98803 1.17244 0
M  V30 7246 C 701.058 -1.65987 0.0611905 0
M  V30 7247 O 702.243 -1.89385 0.231911 0
M  V30 7248 C 699.383 -3.33867 0.87333 0
M  V30 7249 C 698.496 -3.79354 2.06675 0
M  V30 7250 C 697.631 -5.03078 1.70547 0
M  V30 7251 C 696.67 -5.40981 2.86366 0
M  V30 7252 N 695.807 -6.55886 2.50514 0
M  V30 7253 H 700.647 -2.09566 2.11863 0
M  V30 7254 H 698.184 -1.02607 1.05405 0
M  V30 7255 H 700.142 -4.11612 0.680519 0
M  V30 7256 H 698.772 -3.2278 -0.0359983 0
M  V30 7257 H 697.824 -2.97492 2.37071 0
M  V30 7258 H 699.136 -4.03382 2.93401 0
M  V30 7259 H 698.29 -5.88457 1.47658 0
M  V30 7260 H 697.029 -4.80927 0.809947 0
M  V30 7261 H 696.034 -4.54127 3.09917 0
M  V30 7262 H 697.259 -5.65104 3.76609 0
M  V30 7263 H 695.205 -6.35306 1.63471 0
M  V30 7264 H 695.122 -6.79799 3.30771 0
M  V30 7265 H 696.39 -7.44489 2.30989 0
M  V30 7266 N 700.619 -1.13374 -1.09472 0
M  V30 7267 C 701.551 -0.768466 -2.15933 0
M  V30 7268 C 702.564 0.209585 -1.61445 0
M  V30 7269 O 703.753 -0.010539 -1.78497 0
M  V30 7270 C 700.853 -0.118266 -3.38694 0
M  V30 7271 C 700.026 -1.12829 -4.22597 0
M  V30 7272 C 699.085 -0.503875 -5.23782 0
M  V30 7273 O 698.111 -1.16374 -5.57177 0
M  V30 7274 N 699.313 0.724288 -5.75964 0
M  V30 7275 H 702.078 -1.68457 -2.47876 0
M  V30 7276 H 699.639 -1.02668 -1.25183 0
M  V30 7277 H 701.631 0.311698 -4.03498 0
M  V30 7278 H 700.201 0.700769 -3.04644 0
M  V30 7279 H 699.421 -1.73556 -3.53938 0
M  V30 7280 H 700.709 -1.81095 -4.75481 0
M  V30 7281 H 700.107 1.27918 -5.51048 0
M  V30 7282 H 698.664 1.09692 -6.42504 0
M  V30 7283 N 702.098 1.27442 -0.927168 0
M  V30 7284 C 703.344 1.94679 -0.568164 0
M  V30 7285 C 703.677 1.72697 0.888219 0
M  V30 7286 O 702.952 1.05573 1.63354 0
M  V30 7287 C 703.235 3.4882 -0.894253 0
M  V30 7288 C 703.088 3.80146 -2.40435 0
M  V30 7289 C 704.407 4.38281 -0.399766 0
M  V30 7290 H 701.526 0.707071 -0.207892 0
M  V30 7291 H 704.168 1.50568 -1.15885 0
M  V30 7292 H 702.318 3.86522 -0.391566 0
M  V30 7293 H 703.99 3.52238 -2.97869 0
M  V30 7294 H 702.233 3.26716 -2.85375 0
M  V30 7295 H 702.904 4.87835 -2.58304 0
M  V30 7296 H 705.38 4.07726 -0.83058 0
M  V30 7297 H 704.256 5.44955 -0.656885 0
M  V30 7298 H 704.517 4.36521 0.700153 0
M  V30 7299 N 703.576 0.692616 1.41565 0
M  V30 7300 C 704.853 0.150496 1.9502 0
M  V30 7301 C 705.233 -1.33881 1.63215 0
M  V30 7302 O 704.581 -2.08378 0.937598 0
M  V30 7303 C 704.791 0.438636 3.46233 0
M  V30 7304 C 706.139 0.364777 4.2303 0
M  V30 7305 O 707.163 0.373383 3.54238 0
M  V30 7306 O 706.022 0.32234 5.45549 0
M  V30 7307 H 703.116 0.0132454 0.826894 0
M  V30 7308 H 705.662 0.768574 1.51298 0
M  V30 7309 H 704.434 1.46962 3.62654 0
M  V30 7310 H 704.057 -0.210562 3.97042 0
M  V30 7311 N 705.054 -1.51416 0.437162 0
M  V30 7312 C 705.984 -2.30631 -0.364922 0
M  V30 7313 C 706.965 -1.36037 -1.02118 0
M  V30 7314 O 708.15 -1.64956 -1.02485 0
M  V30 7315 C 705.28 -3.1482 -1.46648 0
M  V30 7316 C 704.234 -4.17691 -0.933717 0
M  V30 7317 C 703.56 -4.904 -2.13101 0
M  V30 7318 C 704.86 -5.2229 0.0317201 0
M  V30 7319 H 706.554 -2.97932 0.29614 0
M  V30 7320 H 704.1 -1.4328 0.143865 0
M  V30 7321 H 706.053 -3.69017 -2.03481 0
M  V30 7322 H 704.777 -2.4534 -2.15583 0
M  V30 7323 H 703.436 -3.64545 -0.387602 0
M  V30 7324 H 703.084 -4.17423 -2.80654 0
M  V30 7325 H 702.784 -5.59962 -1.78092 0
M  V30 7326 H 704.308 -5.4742 -2.70487 0
M  V30 7327 H 705.722 -5.7156 -0.446302 0
M  V30 7328 H 704.119 -5.99378 0.29437 0
M  V30 7329 H 705.189 -4.75131 0.968447 0
M  V30 7330 N 706.532 -0.168513 -1.56696 0
M  V30 7331 C 707.464 0.794249 -2.14998 0
M  V30 7332 C 708.477 1.1957 -1.10485 0
M  V30 7333 O 709.666 1.13604 -1.37682 0
M  V30 7334 C 706.766 2.08018 -2.67547 0
M  V30 7335 C 705.939 1.84274 -3.96689 0
M  V30 7336 C 704.998 2.97059 -4.3433 0
M  V30 7337 O 704.024 2.67815 -5.02259 0
M  V30 7338 N 705.226 4.24775 -3.9566 0
M  V30 7339 H 707.991 0.295832 -2.98236 0
M  V30 7340 H 705.552 0.0143611 -1.61894 0
M  V30 7341 H 707.544 2.82559 -2.89729 0
M  V30 7342 H 706.114 2.49059 -1.88914 0
M  V30 7343 H 705.334 0.936528 -3.82914 0
M  V30 7344 H 706.622 1.65773 -4.81037 0
M  V30 7345 H 706.02 4.51395 -3.40968 0
M  V30 7346 H 704.577 4.96027 -4.22848 0
M  V30 7347 N 708.01 1.57248 0.105221 0
M  V30 7348 C 709.235 1.90143 0.828264 0
M  V30 7349 C 709.66 0.761811 1.71983 0
M  V30 7350 O 709.018 -0.287086 1.79013 0
M  V30 7351 C 709.066 3.21856 1.62608 0
M  V30 7352 O 708.17 3.08732 2.7342 0
M  V30 7353 H 707.511 0.623558 0.228192 0
M  V30 7354 H 710.041 2.0443 0.0834826 0
M  V30 7355 H 710.051 3.54916 2.01243 0
M  V30 7356 H 708.726 4.0439 0.971687 0
M  V30 7357 H 707.303 2.87167 2.37886 0
M  V30 7358 N 709.488 -0.375779 1.53054 0
M  V30 7359 C 710.718 -1.1387 1.72386 0
M  V30 7360 C 711.126 -1.8382 0.447966 0
M  V30 7361 O 710.469 -1.74027 -0.588244 0
M  V30 7362 C 710.531 -2.22047 2.82728 0
M  V30 7363 C 710.195 -1.71951 4.23417 0
M  V30 7364 C 711.192 -1.18909 5.06119 0
M  V30 7365 C 708.877 -1.77773 4.69789 0
M  V30 7366 C 710.871 -0.723529 6.3328 0
M  V30 7367 C 708.558 -1.30829 5.96931 0
M  V30 7368 C 709.556 -0.782077 6.78508 0
M  V30 7369 O 709.244 -0.319529 8.03265 0
M  V30 7370 H 708.976 -0.346835 0.580242 0
M  V30 7371 H 711.53 -0.443748 2.00549 0
M  V30 7372 H 709.76 -2.95006 2.50017 0
M  V30 7373 H 711.449 -2.83654 2.90336 0
M  V30 7374 H 712.215 -1.13758 4.7147 0
M  V30 7375 H 708.094 -2.17673 4.06373 0
M  V30 7376 H 711.638 -0.312126 6.96901 0
M  V30 7377 H 707.535 -1.3567 6.31081 0
M  V30 7378 H 708.303 -0.439796 8.17318 0
M  V30 7379 N 710.966 -1.44241 -0.634997 0
M  V30 7380 C 711.896 -1.53632 -1.7584 0
M  V30 7381 C 712.877 -0.389603 -1.65578 0
M  V30 7382 O 714.062 -0.609219 -1.84397 0
M  V30 7383 C 711.192 -1.47644 -3.14354 0
M  V30 7384 C 710.146 -2.60752 -3.394 0
M  V30 7385 C 709.472 -2.39817 -4.77904 0
M  V30 7386 C 710.772 -4.02921 -3.32343 0
M  V30 7387 H 712.466 -2.47662 -1.68238 0
M  V30 7388 H 710.012 -1.19197 -0.807969 0
M  V30 7389 H 711.965 -1.52815 -3.92716 0
M  V30 7390 H 710.689 -0.501284 -3.2273 0
M  V30 7391 H 709.348 -2.54965 -2.63417 0
M  V30 7392 H 708.996 -1.40502 -4.82978 0
M  V30 7393 H 708.696 -3.15649 -4.9562 0
M  V30 7394 H 710.22 -2.46799 -5.585 0
M  V30 7395 H 711.634 -4.10098 -4.00615 0
M  V30 7396 H 710.031 -4.78925 -3.61595 0
M  V30 7397 H 711.101 -4.26766 -2.30215 0
M  V30 7398 N 712.444 0.87505 -1.31075 0
M  V30 7399 C 713.354 2.01441 -1.20244 0
M  V30 7400 C 714.37 1.73584 -0.120227 0
M  V30 7401 O 715.546 1.98559 -0.337063 0
M  V30 7402 C 712.611 3.34675 -0.905199 0
M  V30 7403 C 711.672 3.75889 -2.0738 0
M  V30 7404 C 710.905 5.02764 -1.79064 0
M  V30 7405 O 711.128 5.65795 -0.723318 0
M  V30 7406 O 710.062 5.40623 -2.64594 0
M  V30 7407 H 713.888 2.13509 -2.1598 0
M  V30 7408 H 711.473 1.00257 -1.10765 0
M  V30 7409 H 713.355 4.1458 -0.755057 0
M  V30 7410 H 712.03 3.23692 0.0221695 0
M  V30 7411 H 710.937 2.96645 -2.27931 0
M  V30 7412 H 712.27 3.91489 -2.98324 0
M  V30 7413 N 713.922 1.13953 1.08869 0
M  V30 7414 C 714.885 0.824991 2.13838 0
M  V30 7415 C 715.885 -0.168198 1.59918 0
M  V30 7416 O 717.075 0.0595778 1.74098 0
M  V30 7417 C 714.207 0.228938 3.4013 0
M  V30 7418 H 715.4 1.75521 2.43171 0
M  V30 7419 H 712.953 0.94492 1.24503 0
M  V30 7420 H 713.688 -0.710227 3.16427 0
M  V30 7421 H 713.473 0.944243 3.80561 0
M  V30 7422 H 714.963 0.0259223 4.17592 0
M  V30 7423 N 715.4 -1.26948 0.933913 0
M  V30 7424 C 716.348 -2.2862 0.428463 0
M  V30 7425 C 717.342 -1.62144 -0.490464 0
M  V30 7426 O 718.548 -1.76167 -0.36948 0
M  V30 7427 H 714.923 -0.742363 0.120003 0
M  V30 7428 H 716.894 -2.68659 1.29865 0
M  V30 7429 C 715.643 -3.46423 -0.29774 0
M  V30 7430 H 714.966 -3.97792 0.400183 0
M  V30 7431 H 716.406 -4.19505 -0.615736 0
M  V30 7432 C 714.865 -3.01017 -1.51295 0
M  V30 7433 O 715.395 -3.05226 -2.61151 0
M  V30 7434 N 713.601 -2.56442 -1.36696 0
M  V30 7435 H 713.148 -2.53217 -0.473178 0
M  V30 7436 H 713.106 -2.26424 -2.18127 0
M  V30 7437 N 716.879 -0.700114 -1.41195 0
M  V30 7438 C 718.107 -0.242179 -2.05478 0
M  V30 7439 C 718.522 1.11029 -1.52702 0
M  V30 7440 O 717.879 1.69473 -0.677127 0
M  V30 7441 C 717.93 -0.196271 -3.60967 0
M  V30 7442 O 717.651 -1.49532 -4.11791 0
M  V30 7443 C 719.152 0.282102 -4.42401 0
M  V30 7444 H 716.372 -0.111749 -0.661629 0
M  V30 7445 H 718.916 -0.953975 -1.80885 0
M  V30 7446 H 717.071 0.46638 -3.84582 0
M  V30 7447 H 717.485 -1.38545 -5.05871 0
M  V30 7448 H 718.959 0.263093 -5.51373 0
M  V30 7449 H 719.436 1.32174 -4.1884 0
M  V30 7450 H 720.042 -0.349712 -4.2386 0
M  V30 7451 N 718.357 1.51182 -0.445186 0
M  V30 7452 C 719.768 1.86693 0.0160999 0
M  V30 7453 C 720.119 1.36183 1.4124 0
M  V30 7454 O 719.244 0.715895 2.04215 0
M  V30 7455 C 719.839 3.38781 0.0359918 0
M  V30 7456 C 718.398 3.73799 0.441715 0
M  V30 7457 C 717.545 2.74947 -0.360511 0
M  V30 7458 H 720.496 1.44294 -0.660674 0
M  V30 7459 H 720.517 3.71026 0.843813 0
M  V30 7460 H 720.029 3.75513 -0.980378 0
M  V30 7461 H 718.13 3.42659 1.4634 0
M  V30 7462 H 718.243 4.78829 0.16106 0
M  V30 7463 H 716.607 2.54047 0.182269 0
M  V30 7464 H 717.39 3.14521 -1.3759 0
M  V30 7465 N 719.835 0.176821 1.56605 0
M  V30 7466 C 720.782 -0.751312 2.18229 0
M  V30 7467 C 721.752 -1.22297 1.12395 0
M  V30 7468 O 722.937 -1.29015 1.40569 0
M  V30 7469 C 720.077 -1.97291 2.83143 0
M  V30 7470 C 719.19 -1.54431 4.03454 0
M  V30 7471 C 718.325 -2.72 4.56278 0
M  V30 7472 C 717.364 -2.25657 5.68986 0
M  V30 7473 N 716.501 -3.36338 6.16296 0
M  V30 7474 H 721.341 -0.219033 2.97194 0
M  V30 7475 H 718.878 -0.0963803 1.46784 0
M  V30 7476 H 720.836 -2.68949 3.1894 0
M  V30 7477 H 719.466 -2.4788 2.06773 0
M  V30 7478 H 718.518 -0.724273 3.73441 0
M  V30 7479 H 719.83 -1.16417 4.85024 0
M  V30 7480 H 718.984 -3.51806 4.94285 0
M  V30 7481 H 717.723 -3.13277 3.73777 0
M  V30 7482 H 716.728 -1.44299 5.30526 0
M  V30 7483 H 717.953 -1.85432 6.53293 0
M  V30 7484 H 715.899 -3.7718 5.36723 0
M  V30 7485 H 715.816 -3.02435 6.9287 0
M  V30 7486 H 717.084 -4.16413 6.58954 0
M  V30 7487 N 721.313 -1.57302 -0.09688 0
M  V30 7488 C 722.276 -2.00976 -1.10188 0
M  V30 7489 C 723.276 -0.903009 -1.3305 0
M  V30 7490 O 724.466 -1.16853 -1.29194 0
M  V30 7491 C 721.598 -2.36893 -2.45142 0
M  V30 7492 H 722.791 -2.9098 -0.726003 0
M  V30 7493 H 720.344 -1.52515 -0.341872 0
M  V30 7494 H 721.079 -1.49837 -2.8761 0
M  V30 7495 H 720.864 -3.17632 -2.29897 0
M  V30 7496 H 722.354 -2.71345 -3.1743 0
M  V30 7497 N 722.791 0.367657 -1.53252 0
M  V30 7498 C 724.019 1.13119 -1.73239 0
M  V30 7499 C 724.434 1.831 -0.460404 0
M  V30 7500 O 723.791 1.73483 0.566557 0
M  V30 7501 C 723.842 2.16308 -2.89643 0
M  V30 7502 O 723.563 1.49175 -4.1192 0
M  V30 7503 C 725.064 3.05224 -3.21486 0
M  V30 7504 H 722.284 0.338318 -0.579467 0
M  V30 7505 H 724.828 0.42721 -1.99988 0
M  V30 7506 H 722.983 2.82307 -2.65295 0
M  V30 7507 H 723.397 2.17912 -4.7709 0
M  V30 7508 H 724.871 3.73613 -4.06346 0
M  V30 7509 H 725.348 3.69919 -2.36763 0
M  V30 7510 H 725.954 2.44843 -3.47753 0
M  V30 7511 N 724.269 1.44576 0.627338 0
M  V30 7512 C 725.199 1.54562 1.75022 0
M  V30 7513 C 726.18 0.398378 1.65369 0
M  V30 7514 O 727.365 0.61899 1.84071 0
M  V30 7515 C 724.495 1.49309 3.13567 0
M  V30 7516 C 723.449 2.62549 3.38012 0
M  V30 7517 C 722.775 2.42348 4.76625 0
M  V30 7518 C 724.075 4.04678 3.30202 0
M  V30 7519 H 725.769 2.4855 1.66922 0
M  V30 7520 H 723.315 1.19624 0.801636 0
M  V30 7521 H 725.268 1.54895 3.919 0
M  V30 7522 H 723.992 0.518392 3.2246 0
M  V30 7523 H 722.651 2.56358 2.62061 0
M  V30 7524 H 722.299 1.43062 4.82226 0
M  V30 7525 H 721.999 3.18273 4.93939 0
M  V30 7526 H 723.523 2.49758 5.57183 0
M  V30 7527 H 724.937 4.12217 3.98435 0
M  V30 7528 H 723.334 4.80836 3.5905 0
M  V30 7529 H 724.404 4.2798 2.27949 0
M  V30 7530 N 725.747 -0.868086 1.31537 0
M  V30 7531 C 726.71 -1.95703 1.19302 0
M  V30 7532 C 727.71 -1.60355 0.119612 0
M  V30 7533 O 728.9 -1.70247 0.36902 0
M  V30 7534 C 726.032 -3.30599 0.831684 0
M  V30 7535 H 727.225 -2.07982 2.16064 0
M  V30 7536 H 724.778 -1.05661 1.15176 0
M  V30 7537 H 725.513 -3.2402 -0.134694 0
M  V30 7538 H 725.298 -3.57629 1.60761 0
M  V30 7539 H 726.788 -4.10439 0.770026 0
M  V30 7540 N 727.225 -1.14528 -1.08264 0
M  V30 7541 C 728.502 -0.825185 -1.77342 0
M  V30 7542 C 728.882 0.681037 -1.99813 0
M  V30 7543 O 728.23 1.62234 -1.60912 0
M  V30 7544 C 728.44 -1.62556 -3.08831 0
M  V30 7545 C 729.788 -1.82585 -3.83338 0
M  V30 7546 O 730.812 -1.59254 -3.18617 0
M  V30 7547 O 729.671 -2.21598 -4.99556 0
M  V30 7548 H 726.765 -0.302531 -0.769678 0
M  V30 7549 H 729.311 -1.25056 -1.14713 0
M  V30 7550 H 728.083 -2.64862 -2.88035 0
M  V30 7551 H 727.706 -1.1959 -3.79189 0
M  V30 7552 N 728.703 1.26451 -0.940633 0
M  V30 7553 C 729.635 2.25556 -0.407104 0
M  V30 7554 C 730.648 1.55888 0.469324 0
M  V30 7555 O 731.837 1.76292 0.279858 0
M  V30 7556 C 728.937 3.36109 0.434064 0
M  V30 7557 C 728.11 4.3532 -0.426082 0
M  V30 7558 C 727.169 5.25004 0.354563 0
M  V30 7559 O 726.195 5.68684 -0.242219 0
M  V30 7560 N 727.397 5.5652 1.65123 0
M  V30 7561 H 730.162 2.7197 -1.25907 0
M  V30 7562 H 727.723 1.40212 -0.809456 0
M  V30 7563 H 729.715 3.93059 0.963684 0
M  V30 7564 H 728.285 2.89194 1.18683 0
M  V30 7565 H 727.505 3.77449 -1.13692 0
M  V30 7566 H 728.793 4.986 -1.01366 0
M  V30 7567 H 728.191 5.22912 2.15822 0
M  V30 7568 H 726.748 6.16115 2.12711 0
M  V30 7569 N 730.181 0.707592 1.40822 0
M  V30 7570 C 731.427 0.244031 2.01326 0
M  V30 7571 C 731.76 -1.15722 1.55955 0
M  V30 7572 O 731.035 -1.78347 0.776044 0
M  V30 7573 C 731.318 0.315128 3.58718 0
M  V30 7574 C 731.171 1.75419 4.14184 0
M  V30 7575 C 732.49 -0.318251 4.38948 0
M  V30 7576 H 729.609 0.0901471 0.731466 0
M  V30 7577 H 732.251 0.898584 1.67408 0
M  V30 7578 H 730.401 -0.242176 3.87744 0
M  V30 7579 H 732.073 2.36626 3.95987 0
M  V30 7580 H 730.316 2.28449 3.68773 0
M  V30 7581 H 730.987 1.75538 5.23345 0
M  V30 7582 H 733.463 0.156514 4.15806 0
M  V30 7583 H 732.339 -0.238019 5.48384 0
M  V30 7584 H 732.6 -1.40067 4.19325 0
M  V30 7585 N 731.66 -1.50943 0.453197 0
M  V30 7586 C 732.608 -2.29728 -0.364419 0
M  V30 7587 C 733.602 -1.36246 -1.00664 0
M  V30 7588 O 734.808 -1.53518 -0.939794 0
M  V30 7589 H 731.183 -0.739536 -0.136347 0
M  V30 7590 H 733.154 -2.96672 0.320696 0
M  V30 7591 C 731.903 -3.1629 -1.44415 0
M  V30 7592 H 731.226 -3.88119 -0.959343 0
M  V30 7593 H 732.666 -3.74444 -1.98917 0
M  V30 7594 C 731.125 -2.32702 -2.43622 0
M  V30 7595 O 731.655 -1.99763 -3.48508 0
M  V30 7596 N 729.861 -1.95621 -2.14897 0
M  V30 7597 H 729.408 -2.22607 -1.29629 0
M  V30 7598 H 729.366 -1.39993 -2.81513 0
M  V30 7599 N 733.138 -0.185124 -1.56509 0
M  V30 7600 C 734.368 0.461469 -2.0138 0
M  V30 7601 C 734.776 1.56417 -1.06445 0
M  V30 7602 O 734.119 1.83603 -0.0597515 0
M  V30 7603 C 734.181 1.08731 -3.42663 0
M  V30 7604 C 733.845 0.124581 -4.5683 0
M  V30 7605 C 734.842 -0.662295 -5.15664 0
M  V30 7606 C 732.527 0.0163947 -5.02297 0
M  V30 7607 C 734.521 -1.54442 -6.18406 0
M  V30 7608 C 732.208 -0.869301 -6.04885 0
M  V30 7609 C 733.206 -1.64828 -6.62813 0
M  V30 7610 O 732.894 -2.51915 -7.63409 0
M  V30 7611 H 732.626 0.1212 -0.665046 0
M  V30 7612 H 735.18 -0.288119 -2.03369 0
M  V30 7613 H 733.41 1.8853 -3.37629 0
M  V30 7614 H 735.099 1.63753 -3.71403 0
M  V30 7615 H 735.865 -0.588963 -4.81411 0
M  V30 7616 H 731.744 0.61253 -4.56913 0
M  V30 7617 H 735.288 -2.15289 -6.63548 0
M  V30 7618 H 731.185 -0.943786 -6.38563 0
M  V30 7619 H 731.953 -2.45584 -7.80789 0
M  V30 7620 N 734.616 1.57351 0.0885366 0
M  V30 7621 C 735.862 1.87564 0.786842 0
M  V30 7622 C 736.217 0.776774 1.76023 0
M  V30 7623 O 735.51 -0.220637 1.90325 0
M  V30 7624 C 735.704 3.22098 1.5488 0
M  V30 7625 C 735.533 4.44967 0.650706 0
M  V30 7626 C 734.303 5.04444 0.293957 0
M  V30 7627 C 736.501 5.1428 -0.0452187 0
M  V30 7628 N 734.483 6.10846 -0.611609 0
M  V30 7629 C 735.854 6.14704 -0.808603 0
M  V30 7630 C 737.909 4.97759 -0.118451 0
M  V30 7631 C 736.612 7.00392 -1.63839 0
M  V30 7632 C 738.638 5.8396 -0.935157 0
M  V30 7633 C 738 6.83909 -1.68664 0
M  V30 7634 H 734.099 0.73613 0.263887 0
M  V30 7635 H 736.683 1.94638 0.049074 0
M  V30 7636 H 734.854 3.16064 2.2574 0
M  V30 7637 H 736.586 3.40015 2.19481 0
M  V30 7638 H 733.341 4.69214 0.643086 0
M  V30 7639 H 733.765 6.68695 -1.05714 0
M  V30 7640 H 738.407 4.20418 0.448202 0
M  V30 7641 H 736.125 7.7712 -2.21608 0
M  V30 7642 H 739.711 5.73236 -0.994579 0
M  V30 7643 H 738.591 7.49454 -2.30842 0
M  V30 7644 N 736.094 -0.359525 1.53444 0
M  V30 7645 C 737.319 -1.12644 1.74144 0
M  V30 7646 C 737.744 -1.82082 0.472007 0
M  V30 7647 O 737.102 -1.71962 -0.57436 0
M  V30 7648 C 737.15 -2.12781 2.9113 0
M  V30 7649 O 736.254 -3.19984 2.60162 0
M  V30 7650 H 735.595 -0.326553 0.578152 0
M  V30 7651 H 738.125 -0.414798 2.00351 0
M  V30 7652 H 738.135 -2.56278 3.17467 0
M  V30 7653 H 736.81 -1.61634 3.83207 0
M  V30 7654 H 735.387 -2.81417 2.44661 0
M  V30 7655 N 737.572 -1.44907 -0.619662 0
M  V30 7656 C 738.52 -1.52971 -1.75222 0
M  V30 7657 C 739.514 -0.400531 -1.64597 0
M  V30 7658 O 740.72 -0.575952 -1.70537 0
M  V30 7659 H 737.095 -0.480241 -0.578682 0
M  V30 7660 H 739.066 -2.48269 -1.65545 0
M  V30 7661 C 737.815 -1.50204 -3.13583 0
M  V30 7662 H 737.138 -2.36412 -3.22412 0
M  V30 7663 H 738.578 -1.59905 -3.92691 0
M  V30 7664 C 737.037 -0.22455 -3.36151 0
M  V30 7665 O 737.567 0.700574 -3.95544 0
M  V30 7666 N 735.773 -0.124052 -2.90335 0
M  V30 7667 H 735.32 -0.87774 -2.42185 0
M  V30 7668 H 735.278 0.729914 -3.0581 0
M  V30 7669 N 739.05 0.861098 -1.31996 0
M  V30 7670 C 740.28 1.64501 -1.24992 0
M  V30 7671 C 740.688 1.88288 0.185576 0
M  V30 7672 O 740.031 1.44756 1.131 0
M  V30 7673 C 740.093 3.03098 -1.93319 0
M  V30 7674 C 739.757 3.02381 -3.42658 0
M  V30 7675 C 740.754 2.79696 -4.38254 0
M  V30 7676 C 738.439 3.23221 -3.84491 0
M  V30 7677 C 740.433 2.77843 -5.73657 0
M  V30 7678 C 738.12 3.20996 -5.20005 0
M  V30 7679 C 739.118 2.98335 -6.14398 0
M  V30 7680 O 738.806 2.95971 -7.47433 0
M  V30 7681 H 738.538 0.519309 -0.432775 0
M  V30 7682 H 741.092 1.08241 -1.74565 0
M  V30 7683 H 739.322 3.61121 -1.38306 0
M  V30 7684 H 741.011 3.63751 -1.8011 0
M  V30 7685 H 741.777 2.63368 -4.07262 0
M  V30 7686 H 737.656 3.39887 -3.11445 0
M  V30 7687 H 741.2 2.60074 -6.47308 0
M  V30 7688 H 737.097 3.36865 -5.50629 0
M  V30 7689 H 737.865 3.1197 -7.56714 0
M  V30 7690 N 740.528 1.15101 1.07655 0
M  V30 7691 C 741.939 0.933848 1.61667 0
M  V30 7692 C 742.29 -0.525569 1.8903 0
M  V30 7693 O 741.415 -1.39605 1.65346 0
M  V30 7694 C 742.01 1.68876 2.93711 0
M  V30 7695 C 740.569 1.51697 3.44478 0
M  V30 7696 C 739.716 1.70633 2.18586 0
M  V30 7697 H 742.667 1.30171 0.907816 0
M  V30 7698 H 742.688 1.15645 3.625 0
M  V30 7699 H 742.2 2.7509 2.73764 0
M  V30 7700 H 740.301 0.478635 3.69513 0
M  V30 7701 H 740.414 2.29194 4.20722 0
M  V30 7702 H 738.778 1.13259 2.28132 0
M  V30 7703 H 739.561 2.78206 2.01137 0
M  V30 7704 N 742.006 -1.2595 0.947325 0
M  V30 7705 C 742.953 -2.26159 0.460497 0
M  V30 7706 C 743.923 -1.58919 -0.483125 0
M  V30 7707 O 745.108 -1.86603 -0.397983 0
M  V30 7708 C 742.248 -3.441 -0.26247 0
M  V30 7709 C 741.361 -4.25999 0.717539 0
M  V30 7710 C 740.496 -5.31193 -0.0272486 0
M  V30 7711 C 739.535 -6.04774 0.944177 0
M  V30 7712 N 738.672 -7.01721 0.230741 0
M  V30 7713 H 743.512 -2.67173 1.31995 0
M  V30 7714 H 741.049 -1.31358 0.662088 0
M  V30 7715 H 743.007 -4.11317 -0.698137 0
M  V30 7716 H 741.637 -3.03983 -1.08602 0
M  V30 7717 H 740.689 -3.58513 1.27171 0
M  V30 7718 H 742.001 -4.76981 1.45913 0
M  V30 7719 H 741.155 -6.04451 -0.521903 0
M  V30 7720 H 739.894 -4.81066 -0.801682 0
M  V30 7721 H 738.899 -5.30338 1.4499 0
M  V30 7722 H 740.124 -6.56991 1.71872 0
M  V30 7723 H 738.07 -6.53895 -0.525088 0
M  V30 7724 H 737.987 -7.50484 0.911556 0
M  V30 7725 H 739.255 -7.79122 -0.242616 0
M  V30 7726 N 743.484 -0.715051 -1.40445 0
M  V30 7727 C 744.731 -0.254328 -2.00897 0
M  V30 7728 C 745.059 1.15228 -1.56693 0
M  V30 7729 O 744.314 1.7958 -0.777786 0
M  V30 7730 C 744.613 -0.281791 -3.56287 0
M  V30 7731 C 744.279 -1.63862 -4.20071 0
M  V30 7732 C 742.941 -2.01003 -4.37208 0
M  V30 7733 C 745.293 -2.53039 -4.55654 0
M  V30 7734 C 742.621 -3.26869 -4.8721 0
M  V30 7735 C 744.973 -3.78256 -5.07055 0
M  V30 7736 C 743.637 -4.15515 -5.22401 0
M  V30 7737 H 742.907 -0.0930652 -0.735133 0
M  V30 7738 H 745.554 -0.917977 -1.68064 0
M  V30 7739 H 743.859 0.465428 -3.89026 0
M  V30 7740 H 745.556 0.0925158 -4.00893 0
M  V30 7741 H 742.146 -1.33979 -4.07121 0
M  V30 7742 H 746.33 -2.2562 -4.42051 0
M  V30 7743 H 741.586 -3.55706 -4.97276 0
M  V30 7744 H 745.76 -4.47528 -5.33565 0
M  V30 7745 H 743.387 -5.13114 -5.60909 0
M  V30 7746 N 744.962 1.50701 -0.461195 0
M  V30 7747 C 746.209 2.02267 0.0971971 0
M  V30 7748 C 746.537 1.34387 1.40608 0
M  V30 7749 O 745.792 0.455254 1.90331 0
M  V30 7750 C 746.091 3.55788 0.33908 0
M  V30 7751 C 745.757 4.42092 -0.886885 0
M  V30 7752 C 744.419 4.65398 -1.22304 0
M  V30 7753 C 746.771 4.92571 -1.70361 0
M  V30 7754 C 744.099 5.36429 -2.37616 0
M  V30 7755 C 746.451 5.64868 -2.84793 0
M  V30 7756 C 745.115 5.86431 -3.18834 0
M  V30 7757 H 744.385 0.740146 0.0355669 0
M  V30 7758 H 747.032 1.81415 -0.61326 0
M  V30 7759 H 745.337 3.751 1.13168 0
M  V30 7760 H 747.034 3.93243 0.784937 0
M  V30 7761 H 743.624 4.24165 -0.614981 0
M  V30 7762 H 747.808 4.74428 -1.4571 0
M  V30 7763 H 743.064 5.51333 -2.64276 0
M  V30 7764 H 747.238 6.02966 -3.48432 0
M  V30 7765 H 744.865 6.41248 -4.08296 0
M  V30 7766 N 746.441 0.193421 1.56409 0
M  V30 7767 C 747.687 -0.446449 1.97825 0
M  V30 7768 C 748.02 -1.61386 1.08019 0
M  V30 7769 O 747.295 -1.94053 0.131839 0
M  V30 7770 C 747.578 -0.908199 3.48459 0
M  V30 7771 C 747.431 0.260914 4.49043 0
M  V30 7772 C 748.75 -1.77428 4.0275 0
M  V30 7773 H 745.869 -0.160807 0.719243 0
M  V30 7774 H 748.511 0.284006 1.87865 0
M  V30 7775 H 746.661 -1.53062 3.57077 0
M  V30 7776 H 748.333 0.898548 4.52464 0
M  V30 7777 H 746.576 0.912949 4.24085 0
M  V30 7778 H 747.247 -0.104657 5.51901 0
M  V30 7779 H 749.723 -1.24936 3.96901 0
M  V30 7780 H 748.599 -2.06633 5.08521 0
M  V30 7781 H 748.86 -2.72788 3.47907 0
M  V30 7782 N 747.919 -1.57396 -0.0801906 0
M  V30 7783 C 749.144 -1.91437 -0.797909 0
M  V30 7784 C 749.569 -0.789075 -1.70749 0
M  V30 7785 O 748.927 0.25857 -1.79447 0
M  V30 7786 C 748.975 -3.24402 -1.57467 0
M  V30 7787 O 748.079 -3.13043 -2.68473 0
M  V30 7788 H 747.42 -0.627109 -0.218243 0
M  V30 7789 H 749.95 -2.04537 -0.050949 0
M  V30 7790 H 749.96 -3.58072 -1.95571 0
M  V30 7791 H 748.635 -4.05884 -0.907229 0
M  V30 7792 H 747.212 -2.90915 -2.33287 0
M  V30 7793 N 749.397 0.351382 -1.53633 0
M  V30 7794 C 750.327 1.43688 -1.84055 0
M  V30 7795 C 751.308 1.55251 -0.695073 0
M  V30 7796 O 752.493 1.69587 -0.946257 0
M  V30 7797 C 749.623 2.80843 -2.04315 0
M  V30 7798 C 748.577 2.84094 -3.20117 0
M  V30 7799 C 747.903 4.2406 -3.25696 0
M  V30 7800 C 749.203 2.50334 -4.58399 0
M  V30 7801 H 750.897 1.18478 -2.74961 0
M  V30 7802 H 748.443 0.568509 -1.32303 0
M  V30 7803 H 750.396 3.56821 -2.2418 0
M  V30 7804 H 749.12 3.07471 -1.10132 0
M  V30 7805 H 747.779 2.10568 -3.00094 0
M  V30 7806 H 747.427 4.47785 -2.29123 0
M  V30 7807 H 747.127 4.27147 -4.03509 0
M  V30 7808 H 748.651 5.0189 -3.47762 0
M  V30 7809 H 750.065 3.16025 -4.78332 0
M  V30 7810 H 748.462 2.64717 -5.38558 0
M  V30 7811 H 749.532 1.45542 -4.62543 0
M  V30 7812 N 750.875 1.45233 0.611969 0
M  V30 7813 C 751.808 1.48056 1.73651 0
M  V30 7814 C 752.786 0.337373 1.59061 0
M  V30 7815 O 753.97 0.537222 1.80683 0
M  V30 7816 C 751.097 1.33144 3.11433 0
M  V30 7817 C 750.143 2.51272 3.44623 0
M  V30 7818 S 750.976 4.13754 3.39953 0
M  V30 7819 C 752.132 4.013 4.80322 0
M  V30 7820 H 752.365 2.43205 1.70993 0
M  V30 7821 H 749.898 1.32763 0.788246 0
M  V30 7822 H 751.856 1.25228 3.90932 0
M  V30 7823 H 750.517 0.394734 3.1161 0
M  V30 7824 H 749.71 2.36753 4.44932 0
M  V30 7825 H 749.312 2.56027 2.72629 0
M  V30 7826 H 751.604 3.66174 5.7002 0
M  V30 7827 H 752.547 5.01506 4.99897 0
M  V30 7828 H 752.955 3.3303 4.55797 0
M  V30 7829 N 752.353 -0.854086 1.3245 0
M  V30 7830 C 753.3 -1.96271 1.21434 0
M  V30 7831 C 754.27 -1.6582 0.0963851 0
M  V30 7832 O 755.455 -1.88851 0.27203 0
M  V30 7833 C 752.595 -3.31939 0.943952 0
M  V30 7834 C 751.708 -3.74885 2.14675 0
M  V30 7835 C 750.843 -4.99347 1.81179 0
M  V30 7836 C 749.882 -5.34785 2.97777 0
M  V30 7837 N 749.019 -6.50425 2.6437 0
M  V30 7838 H 753.859 -2.05025 2.16261 0
M  V30 7839 H 751.396 -1.00348 1.07558 0
M  V30 7840 H 753.354 -4.10076 0.767675 0
M  V30 7841 H 751.984 -3.22784 0.0324763 0
M  V30 7842 H 751.036 -2.92396 2.43328 0
M  V30 7843 H 752.348 -3.97068 3.01891 0
M  V30 7844 H 751.502 -5.85193 1.60107 0
M  V30 7845 H 750.241 -4.79101 0.911777 0
M  V30 7846 H 749.246 -4.47451 3.1948 0
M  V30 7847 H 750.471 -5.56988 3.88511 0
M  V30 7848 H 748.417 -6.31695 1.7691 0
M  V30 7849 H 748.334 -6.7263 3.45116 0
M  V30 7850 H 749.602 -7.39422 2.46729 0
M  V30 7851 N 753.831 -1.1567 -1.07043 0
M  V30 7852 C 755.056 -0.957946 -1.83952 0
M  V30 7853 C 755.481 0.488807 -1.81638 0
M  V30 7854 O 754.839 1.34869 -1.21162 0
M  V30 7855 C 754.887 -1.48064 -3.288 0
M  V30 7856 O 753.991 -0.681921 -4.06723 0
M  V30 7857 H 753.332 -0.341453 -0.569479 0
M  V30 7858 H 755.862 -1.53728 -1.35015 0
M  V30 7859 H 755.872 -1.49484 -3.7963 0
M  V30 7860 H 754.547 -2.53388 -3.29799 0
M  V30 7861 H 753.124 -0.737612 -3.65532 0
M  V30 7862 N 755.309 1.25446 -0.953992 0
M  V30 7863 C 756.556 1.93143 -0.608429 0
M  V30 7864 C 756.884 1.74727 0.854451 0
M  V30 7865 O 756.139 1.0855 1.62836 0
M  V30 7866 C 756.438 3.45555 -0.912496 0
M  V30 7867 C 756.104 3.84126 -2.36131 0
M  V30 7868 C 754.766 3.94367 -2.75732 0
M  V30 7869 C 757.118 4.0324 -3.30223 0
M  V30 7870 C 754.446 4.21127 -4.08496 0
M  V30 7871 C 756.798 4.31493 -4.62598 0
M  V30 7872 C 755.462 4.3995 -5.01996 0
M  V30 7873 H 754.732 0.706762 -0.22264 0
M  V30 7874 H 757.379 1.49005 -1.20291 0
M  V30 7875 H 755.684 3.91091 -0.235618 0
M  V30 7876 H 757.381 3.9612 -0.623714 0
M  V30 7877 H 753.971 3.76711 -2.04418 0
M  V30 7878 H 758.155 3.94744 -3.00817 0
M  V30 7879 H 753.411 4.2589 -4.38665 0
M  V30 7880 H 757.585 4.45227 -5.35486 0
M  V30 7881 H 755.212 4.60439 -6.04896 0
M  V30 7882 N 756.787 0.722489 1.40064 0
M  V30 7883 C 758.017 0.274439 2.04769 0
M  V30 7884 C 758.425 -1.09125 1.54559 0
M  V30 7885 O 757.768 -1.69834 0.700149 0
M  V30 7886 C 757.83 0.184091 3.59028 0
M  V30 7887 C 757.494 1.48619 4.32159 0
M  V30 7888 C 758.491 2.42947 4.59644 0
M  V30 7889 C 756.176 1.74703 4.7094 0
M  V30 7890 C 758.17 3.616 5.24904 0
M  V30 7891 C 755.857 2.93636 5.3593 0
M  V30 7892 C 756.855 3.86907 5.62843 0
M  V30 7893 O 756.543 5.03753 6.26489 0
M  V30 7894 H 756.275 0.119847 0.665292 0
M  V30 7895 H 758.829 0.983352 1.80331 0
M  V30 7896 H 757.059 -0.580821 3.82313 0
M  V30 7897 H 758.748 -0.230306 4.05246 0
M  V30 7898 H 759.514 2.24062 4.30141 0
M  V30 7899 H 755.393 1.02955 4.49356 0
M  V30 7900 H 758.937 4.34418 5.45827 0
M  V30 7901 H 754.834 3.12428 5.64853 0
M  V30 7902 H 755.602 5.03922 6.44984 0
M  V30 7903 N 758.265 -1.50454 0.469181 0
M  V30 7904 C 759.513 -2.01916 -0.0862982 0
M  V30 7905 C 759.834 -1.35337 -1.40388 0
M  V30 7906 O 759.104 -0.498096 -1.89462 0
M  V30 7907 H 757.684 -0.746185 -0.0348825 0
M  V30 7908 H 760.346 -1.84804 0.619167 0
M  V30 7909 H 759.442 -3.11182 -0.239189 0
M  V30 7910 N 759.743 -0.201713 -1.56304 0
M  V30 7911 C 761.02 0.483273 -1.89536 0
M  V30 7912 C 761.4 1.79176 -1.11621 0
M  V30 7913 O 760.748 2.27445 -0.219339 0
M  V30 7914 C 760.958 0.695604 -3.41998 0
M  V30 7915 C 762.306 1.012 -4.12364 0
M  V30 7916 O 763.33 0.783094 -3.47485 0
M  V30 7917 O 762.189 1.44534 -5.27041 0
M  V30 7918 H 759.283 0.252801 -0.787414 0
M  V30 7919 H 761.829 -0.24242 -1.6796 0
M  V30 7920 H 760.601 -0.228165 -3.90634 0
M  V30 7921 H 760.224 1.47351 -3.69288 0
M  V30 7922 N 761.222 1.57436 0.0718424 0
M  V30 7923 C 762.185 2.02703 1.06977 0
M  V30 7924 C 763.185 0.924062 1.31597 0
M  V30 7925 O 764.375 1.18894 1.27318 0
M  V30 7926 C 761.507 2.40763 2.41342 0
M  V30 7927 H 762.7 2.92098 0.679619 0
M  V30 7928 H 760.253 1.5304 0.317565 0
M  V30 7929 H 760.988 1.54394 2.8519 0
M  V30 7930 H 760.773 3.21249 2.24814 0
M  V30 7931 H 762.263 2.76361 3.13073 0
M  V30 7932 N 762.7 -0.34323 1.53817 0
M  V30 7933 C 763.663 -1.40444 1.8113 0
M  V30 7934 C 764.663 -1.45604 0.682366 0
M  V30 7935 O 765.853 -1.45974 0.950649 0
M  V30 7936 C 762.985 -2.79369 1.95361 0
M  V30 7937 H 764.178 -1.17489 2.75928 0
M  V30 7938 H 761.731 -0.577636 1.45234 0
M  V30 7939 H 762.466 -3.07607 1.02707 0
M  V30 7940 H 762.251 -2.7702 2.77493 0
M  V30 7941 H 763.741 -3.56178 2.18008 0
M  V30 7942 N 764.178 -1.45556 -0.604258 0
M  V30 7943 C 765.11 -1.50494 -1.72871 0
M  V30 7944 C 766.123 -0.395368 -1.57926 0
M  V30 7945 O 767.312 -0.662603 -1.65746 0
M  V30 7946 C 764.412 -1.34874 -3.10906 0
M  V30 7947 C 763.585 -2.59564 -3.52058 0
M  V30 7948 C 762.644 -2.38453 -4.6907 0
M  V30 7949 O 761.67 -3.12082 -4.76018 0
M  V30 7950 N 762.872 -1.43229 -5.62553 0
M  V30 7951 H 765.637 -2.4744 -1.69097 0
M  V30 7952 H 763.198 -1.41338 -0.789636 0
M  V30 7953 H 765.19 -1.18556 -3.86945 0
M  V30 7954 H 763.76 -0.461913 -3.09168 0
M  V30 7955 H 762.98 -2.90974 -2.65946 0
M  V30 7956 H 764.268 -3.42441 -3.76313 0
M  V30 7957 H 763.666 -0.824714 -5.59656 0
M  V30 7958 H 762.223 -1.32882 -6.38111 0
M  V30 7959 N 765.656 0.84705 -1.32902 0
M  V30 7960 C 766.603 1.95624 -1.22473 0
M  V30 7961 C 767.573 1.65767 -0.105178 0
M  V30 7962 O 768.758 1.88704 -0.282042 0
M  V30 7963 C 765.898 3.31434 -0.961542 0
M  V30 7964 C 765.011 3.73741 -2.1666 0
M  V30 7965 C 764.146 4.98379 -1.83825 0
M  V30 7966 C 763.185 5.33199 -3.00609 0
M  V30 7967 N 762.322 6.49014 -2.67816 0
M  V30 7968 H 767.162 2.03875 -2.17345 0
M  V30 7969 H 764.699 0.997764 -1.08088 0
M  V30 7970 H 766.657 4.09663 -0.789411 0
M  V30 7971 H 765.287 3.22762 -0.0495938 0
M  V30 7972 H 764.339 2.91102 -2.44875 0
M  V30 7973 H 765.651 3.95462 -3.03993 0
M  V30 7974 H 764.805 5.84336 -1.63208 0
M  V30 7975 H 763.544 4.78611 -0.937172 0
M  V30 7976 H 762.549 4.4575 -3.21849 0
M  V30 7977 H 763.774 5.5492 -3.9146 0
M  V30 7978 H 761.72 6.30748 -1.80258 0
M  V30 7979 H 761.637 6.7079 -3.48679 0
M  V30 7980 H 762.905 7.38103 -2.50647 0
M  V30 7981 N 767.134 1.16236 1.06428 0
M  V30 7982 C 768.044 0.881976 2.1739 0
M  V30 7983 C 769.06 -0.145259 1.73393 0
M  V30 7984 O 770.236 0.0310558 2.01376 0
M  V30 7985 C 767.301 0.385496 3.4455 0
M  V30 7986 C 766.362 1.47779 4.03063 0
M  V30 7987 C 765.595 1.0049 5.24154 0
M  V30 7988 O 765.818 -0.145889 5.70213 0
M  V30 7989 O 764.752 1.79265 5.74585 0
M  V30 7990 H 768.578 1.80983 2.43883 0
M  V30 7991 H 766.163 0.942226 1.15942 0
M  V30 7992 H 768.045 0.115536 4.21242 0
M  V30 7993 H 766.72 -0.514369 3.19587 0
M  V30 7994 H 765.627 1.80147 3.27869 0
M  V30 7995 H 766.96 2.35291 4.32318 0
M  V30 7996 N 768.612 -1.24939 0.960631 0
M  V30 7997 C 769.56 -2.27659 0.47686 0
M  V30 7998 C 770.554 -1.63148 -0.455961 0
M  V30 7999 O 771.76 -1.76911 -0.332029 0
M  V30 8000 H 768.135 -0.739651 0.135723 0
M  V30 8001 H 770.106 -2.65844 1.35534 0
M  V30 8002 C 768.855 -3.46976 -0.224191 0
M  V30 8003 H 768.178 -3.96854 0.484471 0
M  V30 8004 H 769.618 -4.20717 -0.526615 0
M  V30 8005 C 768.077 -3.04159 -1.44876 0
M  V30 8006 O 768.607 -3.10697 -2.54618 0
M  V30 8007 N 766.813 -2.59284 -1.31226 0
M  V30 8008 H 766.36 -2.54164 -0.419361 0
M  V30 8009 H 766.318 -2.31 -2.13275 0
M  V30 8010 N 770.09 -0.729906 -1.39679 0
M  V30 8011 C 771.038 -0.0756589 -2.32477 0
M  V30 8012 C 772.032 0.731438 -1.52795 0
M  V30 8013 O 773.238 0.633195 -1.68495 0
M  V30 8014 H 769.613 -0.00566492 -0.751979 0
M  V30 8015 H 771.584 -0.874797 -2.85289 0
M  V30 8016 C 770.333 0.821313 -3.37861 0
M  V30 8017 H 769.656 0.209666 -3.9925 0
M  V30 8018 H 771.096 1.24679 -4.05254 0
M  V30 8019 C 769.555 1.9533 -2.74495 0
M  V30 8020 O 770.085 3.04548 -2.61942 0
M  V30 8021 N 768.291 1.74119 -2.3266 0
M  V30 8022 H 767.838 0.852908 -2.4307 0
M  V30 8023 H 767.796 2.50036 -1.90603 0
M  V30 8024 N 771.568 1.50203 -0.477153 0
M  V30 8025 C 772.814 2.03286 0.0679442 0
M  V30 8026 C 773.169 1.35227 1.36863 0
M  V30 8027 O 772.462 0.471029 1.8572 0
M  V30 8028 C 772.656 3.56127 0.301325 0
M  V30 8029 C 772.485 4.38999 -0.975188 0
M  V30 8030 C 771.255 4.81889 -1.52022 0
M  V30 8031 C 773.453 4.79013 -1.8722 0
M  V30 8032 N 771.435 5.49105 -2.74513 0
M  V30 8033 C 772.806 5.45701 -2.94296 0
M  V30 8034 C 774.861 4.60967 -1.88185 0
M  V30 8035 C 773.564 5.96255 -4.02333 0
M  V30 8036 C 775.59 5.12466 -2.95183 0
M  V30 8037 C 774.952 5.79134 -4.00977 0
M  V30 8038 H 771.051 0.78185 -0.015318 0
M  V30 8039 H 773.635 1.83646 -0.64671 0
M  V30 8040 H 771.806 3.75702 0.985021 0
M  V30 8041 H 773.538 3.95859 0.841304 0
M  V30 8042 H 770.293 4.61387 -1.06858 0
M  V30 8043 H 770.717 5.87315 -3.36734 0
M  V30 8044 H 775.359 4.0885 -1.07708 0
M  V30 8045 H 773.077 6.47406 -4.83623 0
M  V30 8046 H 776.663 5.00329 -2.96921 0
M  V30 8047 H 775.543 6.18265 -4.82409 0
M  V30 8048 N 773.046 0.209999 1.56195 0
M  V30 8049 C 774.294 -0.423974 1.97603 0
M  V30 8050 C 774.615 -1.61112 1.09854 0
M  V30 8051 O 773.885 -1.95134 0.173032 0
M  V30 8052 H 772.465 -0.159629 0.729745 0
M  V30 8053 H 775.127 0.300205 1.92574 0
M  V30 8054 H 774.223 -0.75809 3.02753 0
M  V30 8055 N 774.524 -1.57472 -0.0634922 0
M  V30 8056 C 775.754 -1.91608 -0.772645 0
M  V30 8057 C 776.162 -0.805019 -1.71219 0
M  V30 8058 O 775.505 0.229941 -1.82255 0
M  V30 8059 C 775.567 -3.21281 -1.61304 0
M  V30 8060 C 775.231 -4.49177 -0.841973 0
M  V30 8061 C 776.228 -5.19661 -0.157494 0
M  V30 8062 C 773.913 -4.9578 -0.80669 0
M  V30 8063 C 775.907 -6.35006 0.551948 0
M  V30 8064 C 773.594 -6.11028 -0.0934812 0
M  V30 8065 C 774.592 -6.80493 0.58463 0
M  V30 8066 O 774.28 -7.93542 1.28633 0
M  V30 8067 H 774.012 -0.637685 -0.224352 0
M  V30 8068 H 776.566 -2.05369 -0.0355279 0
M  V30 8069 H 774.796 -3.03752 -2.39315 0
M  V30 8070 H 776.485 -3.41003 -2.20162 0
M  V30 8071 H 777.251 -4.84681 -0.176006 0
M  V30 8072 H 773.13 -4.41579 -1.32397 0
M  V30 8073 H 776.674 -6.89161 1.0818 0
M  V30 8074 H 772.571 -6.45459 -0.0729258 0
M  V30 8075 H 773.339 -8.09708 1.19646 0
M  V30 8076 N 776.003 0.335068 -1.53997 0
M  V30 8077 C 777.28 1.09188 -1.62288 0
M  V30 8078 C 777.66 2.0626 -0.449458 0
M  V30 8079 O 777.008 2.21596 0.557444 0
M  V30 8080 C 777.218 1.80403 -2.98757 0
M  V30 8081 C 778.566 2.33841 -3.54406 0
M  V30 8082 O 779.59 1.90487 -3.00987 0
M  V30 8083 O 778.449 3.1318 -4.47862 0
M  V30 8084 H 775.543 0.502621 -0.656736 0
M  V30 8085 H 778.089 0.33588 -1.66343 0
M  V30 8086 H 776.861 1.09732 -3.75599 0
M  V30 8087 H 776.484 2.62841 -2.9833 0
M  V30 8088 N 777.481 1.45874 0.596531 0
M  V30 8089 C 778.727 1.51679 1.35518 0
M  V30 8090 C 779.082 0.160681 1.91728 0
M  V30 8091 O 778.375 -0.828886 1.72743 0
M  V30 8092 C 778.569 2.54034 2.51399 0
M  V30 8093 C 778.398 3.99465 2.06538 0
M  V30 8094 C 777.168 4.67321 1.92196 0
M  V30 8095 C 779.366 4.87674 1.63336 0
M  V30 8096 N 777.348 5.97427 1.41261 0
M  V30 8097 C 778.719 6.07495 1.23895 0
M  V30 8098 C 780.774 4.74442 1.51028 0
M  V30 8099 C 779.477 7.15548 0.733739 0
M  V30 8100 C 781.503 5.82553 1.0191 0
M  V30 8101 C 780.865 7.01537 0.634403 0
M  V30 8102 H 776.964 0.609933 0.489393 0
M  V30 8103 H 779.548 1.82411 0.680746 0
M  V30 8104 H 777.719 2.25235 3.16424 0
M  V30 8105 H 779.451 2.49918 3.18313 0
M  V30 8106 H 776.206 4.22635 2.1372 0
M  V30 8107 H 776.63 6.66638 1.17995 0
M  V30 8108 H 781.272 3.82855 1.79393 0
M  V30 8109 H 778.99 8.06914 0.437656 0
M  V30 8110 H 782.576 5.74352 0.927977 0
M  V30 8111 H 781.456 7.83768 0.26019 0
M  V30 8112 N 778.959 -0.83999 1.33349 0
M  V30 8113 C 779.889 -1.965 1.26135 0
M  V30 8114 C 780.87 -1.69505 0.142152 0
M  V30 8115 O 782.055 -1.91346 0.331743 0
M  V30 8116 C 779.185 -3.32632 0.99866 0
M  V30 8117 C 778.139 -3.74021 2.08068 0
M  V30 8118 C 777.465 -5.07947 1.67014 0
M  V30 8119 C 778.765 -3.87925 3.49731 0
M  V30 8120 H 780.459 -2.02793 2.20262 0
M  V30 8121 H 778.005 -0.974297 1.06035 0
M  V30 8122 H 779.958 -4.10903 0.934696 0
M  V30 8123 H 778.682 -3.26593 0.0217759 0
M  V30 8124 H 777.341 -2.98012 2.13505 0
M  V30 8125 H 776.989 -4.98378 0.680316 0
M  V30 8126 H 776.689 -5.36611 2.39422 0
M  V30 8127 H 778.213 -5.88695 1.62082 0
M  V30 8128 H 779.627 -4.5651 3.46802 0
M  V30 8129 H 778.024 -4.28023 4.20614 0
M  V30 8130 H 779.094 -2.90407 3.88319 0
M  V30 8131 N 780.437 -1.16799 -1.0581 0
M  V30 8132 C 781.848 -0.95945 -1.60161 0
M  V30 8133 C 782.199 0.49543 -1.89842 0
M  V30 8134 O 781.324 1.36957 -1.67546 0
M  V30 8135 C 781.919 -1.73527 -2.90987 0
M  V30 8136 C 780.478 -1.57158 -3.42021 0
M  V30 8137 C 779.625 -1.74089 -2.15843 0
M  V30 8138 H 782.576 -1.31598 -0.886992 0
M  V30 8139 H 782.597 -1.21397 -3.60615 0
M  V30 8140 H 782.109 -2.79411 -2.69353 0
M  V30 8141 H 780.21 -0.537361 -3.68705 0
M  V30 8142 H 780.323 -2.35858 -4.17022 0
M  V30 8143 H 778.687 -1.16874 -2.26302 0
M  V30 8144 H 779.47 -2.81371 -1.96686 0
M  V30 8145 N 781.915 1.24427 -0.967243 0
M  V30 8146 C 782.862 2.25398 -0.496419 0
M  V30 8147 C 783.832 1.59667 0.457781 0
M  V30 8148 O 785.017 1.87213 0.368246 0
M  V30 8149 C 782.157 3.44474 0.207693 0
M  V30 8150 C 781.27 4.24804 -0.785221 0
M  V30 8151 C 780.405 5.31169 -0.0572631 0
M  V30 8152 C 779.444 6.03195 -1.04027 0
M  V30 8153 N 778.581 7.01265 -0.34235 0
M  V30 8154 H 783.421 2.65039 -1.36229 0
M  V30 8155 H 780.958 1.30288 -0.682902 0
M  V30 8156 H 782.916 4.12376 0.632612 0
M  V30 8157 H 781.546 3.05672 1.03752 0
M  V30 8158 H 780.598 3.56445 -1.32858 0
M  V30 8159 H 781.91 4.74599 -1.53483 0
M  V30 8160 H 781.064 6.05205 0.425674 0
M  V30 8161 H 779.803 4.8228 0.725047 0
M  V30 8162 H 778.808 5.27964 -1.53409 0
M  V30 8163 H 780.033 6.54173 -1.82302 0
M  V30 8164 H 777.979 6.54648 0.420993 0
M  V30 8165 H 777.896 7.48939 -1.03084 0
M  V30 8166 H 779.164 7.7941 0.118634 0
M  V30 8167 N 783.393 0.737304 1.3929 0
M  V30 8168 C 784.639 0.295581 2.01241 0
M  V30 8169 C 784.994 -1.10561 1.57461 0
M  V30 8170 O 784.287 -1.74346 0.7946 0
M  V30 8171 C 784.481 0.338438 3.55794 0
M  V30 8172 C 784.31 1.74225 4.14579 0
M  V30 8173 C 783.08 2.35502 4.47065 0
M  V30 8174 C 785.278 2.69623 4.37959 0
M  V30 8175 N 783.26 3.68014 4.91365 0
M  V30 8176 C 784.631 3.86873 4.84489 0
M  V30 8177 C 786.686 2.67355 4.2003 0
M  V30 8178 C 785.389 5.02193 5.14971 0
M  V30 8179 C 787.415 3.8182 4.51627 0
M  V30 8180 C 786.777 4.97806 4.98366 0
M  V30 8181 H 782.876 0.154468 0.766592 0
M  V30 8182 H 785.46 0.963768 1.69173 0
M  V30 8183 H 783.631 -0.299406 3.87244 0
M  V30 8184 H 785.363 -0.122053 4.04516 0
M  V30 8185 H 782.118 1.87406 4.34943 0
M  V30 8186 H 782.542 4.36051 5.17869 0
M  V30 8187 H 787.184 1.78876 3.83097 0
M  V30 8188 H 784.902 5.913 5.50809 0
M  V30 8189 H 788.488 3.81366 4.39376 0
M  V30 8190 H 787.368 5.84909 5.22351 0
M  V30 8191 N 784.871 -1.49948 0.485112 0
M  V30 8192 C 786.148 -1.95186 -0.12726 0
M  V30 8193 C 786.528 -1.42605 -1.5565 0
M  V30 8194 O 785.876 -0.632986 -2.19558 0
M  V30 8195 C 786.086 -3.48955 -0.0562117 0
M  V30 8196 C 787.434 -4.23932 -0.238106 0
M  V30 8197 O 788.458 -3.55955 -0.132145 0
M  V30 8198 O 787.317 -5.44614 -0.453658 0
M  V30 8199 H 784.411 -0.820433 -0.104014 0
M  V30 8200 H 786.957 -1.60659 0.546517 0
M  V30 8201 H 785.729 -3.79814 0.941122 0
M  V30 8202 H 785.352 -3.90056 -0.770834 0
M  V30 8203 N 786.349 -0.21828 -1.56081 0
M  V30 8204 C 787.281 0.725447 -2.17416 0
M  V30 8205 C 788.294 1.15995 -1.14233 0
M  V30 8206 O 789.483 1.09166 -1.41227 0
M  V30 8207 C 786.583 1.99401 -2.7403 0
M  V30 8208 C 785.756 1.7156 -4.02351 0
M  V30 8209 C 784.815 2.8309 -4.43561 0
M  V30 8210 O 783.841 2.51701 -5.10525 0
M  V30 8211 N 785.043 4.11972 -4.08973 0
M  V30 8212 H 787.808 0.200801 -2.99027 0
M  V30 8213 H 785.369 -0.0371514 -1.61857 0
M  V30 8214 H 787.361 2.73198 -2.98571 0
M  V30 8215 H 785.931 2.42923 -1.96742 0
M  V30 8216 H 785.151 0.814233 -3.85699 0
M  V30 8217 H 786.439 1.50385 -4.86068 0
M  V30 8218 H 785.837 4.40319 -3.55156 0
M  V30 8219 H 784.394 4.82323 -4.38415 0
M  V30 8220 N 787.827 1.57504 0.0551401 0
M  V30 8221 C 789.055 1.92294 0.76358 0
M  V30 8222 C 789.47 0.815774 1.70266 0
M  V30 8223 O 788.827 -0.209772 1.8129 0
M  V30 8224 C 788.878 3.26914 1.54302 0
M  V30 8225 O 788.599 4.33375 0.641666 0
M  V30 8226 C 790.1 3.75825 2.35097 0
M  V30 8227 H 787.32 0.635229 0.216159 0
M  V30 8228 H 789.864 2.0449 0.0204385 0
M  V30 8229 H 788.019 3.16196 2.23828 0
M  V30 8230 H 788.433 5.10927 1.1855 0
M  V30 8231 H 789.907 4.72603 2.8522 0
M  V30 8232 H 790.384 3.0568 3.15367 0
M  V30 8233 H 790.99 3.89542 1.70696 0
M  V30 8234 N 789.305 -0.326896 1.54172 0
M  V30 8235 C 790.535 -1.08328 1.75922 0
M  V30 8236 C 790.943 -1.82302 0.50622 0
M  V30 8237 O 790.286 -1.7581 -0.532581 0
M  V30 8238 C 790.348 -2.1294 2.8965 0
M  V30 8239 C 790.012 -1.58394 4.28673 0
M  V30 8240 C 791.009 -1.02747 5.09646 0
M  V30 8241 C 788.694 -1.62737 4.75207 0
M  V30 8242 C 790.688 -0.52169 6.35261 0
M  V30 8243 C 788.375 -1.11772 6.00791 0
M  V30 8244 C 789.373 -0.565819 6.80652 0
M  V30 8245 O 789.061 -0.0638146 8.03875 0
M  V30 8246 H 788.793 -0.3282 0.590983 0
M  V30 8247 H 791.347 -0.37972 2.0186 0
M  V30 8248 H 789.577 -2.86903 2.59275 0
M  V30 8249 H 791.266 -2.74274 2.99213 0
M  V30 8250 H 792.032 -0.987007 4.74851 0
M  V30 8251 H 787.911 -2.04635 4.13093 0
M  V30 8252 H 791.455 -0.0902544 6.97542 0
M  V30 8253 H 787.352 -1.15524 6.35078 0
M  V30 8254 H 788.12 -0.17955 8.18303 0
M  V30 8255 N 790.784 -1.46188 -0.588786 0
M  V30 8256 C 792.061 -1.41659 -1.34878 0
M  V30 8257 C 792.441 -0.0968913 -2.10878 0
M  V30 8258 O 791.789 0.921468 -2.09096 0
M  V30 8259 C 791.999 -2.6424 -2.27988 0
M  V30 8260 C 793.347 -3.1013 -2.90008 0
M  V30 8261 O 794.371 -2.64745 -2.38303 0
M  V30 8262 O 793.23 -3.88944 -3.83908 0
M  V30 8263 H 790.324 -0.563058 -0.605718 0
M  V30 8264 H 792.87 -1.58346 -0.610309 0
M  V30 8265 H 791.642 -3.51853 -1.71217 0
M  V30 8266 H 791.265 -2.49982 -3.09184 0
M  V30 8267 N 792.262 0.832906 -1.33792 0
M  V30 8268 C 793.508 1.59089 -1.25772 0
M  V30 8269 C 793.841 1.93414 0.174601 0
M  V30 8270 O 793.116 1.59195 1.11746 0
M  V30 8271 C 793.399 2.89699 -2.13885 0
M  V30 8272 C 793.252 2.62017 -3.65605 0
M  V30 8273 C 794.571 3.91182 -2.01654 0
M  V30 8274 H 791.69 0.577232 -0.458227 0
M  V30 8275 H 794.332 0.960227 -1.6395 0
M  V30 8276 H 792.482 3.4352 -1.81456 0
M  V30 8277 H 794.154 2.14582 -4.08353 0
M  V30 8278 H 792.397 1.95621 -3.87189 0
M  V30 8279 H 793.068 3.55112 -4.2261 0
M  V30 8280 H 795.544 3.46684 -2.30107 0
M  V30 8281 H 794.42 4.80391 -2.65548 0
M  V30 8282 H 794.681 4.30861 -0.990536 0
M  V30 8283 N 793.74 1.17359 1.05189 0
M  V30 8284 C 794.989 0.956412 1.77583 0
M  V30 8285 C 795.302 -0.516018 1.88671 0
M  V30 8286 O 796.508 -0.851401 2.57805 0
M  V30 8287 C 794.964 1.66203 3.19225 0
M  V30 8288 C 794.572 3.17299 3.16267 0
M  V30 8289 C 796.316 1.52725 3.96075 0
M  V30 8290 C 794.223 3.8055 4.52698 0
M  V30 8291 H 793.153 0.354204 0.665624 0
M  V30 8292 H 795.804 1.40612 1.17901 0
M  V30 8293 H 794.186 1.14006 3.79234 0
M  V30 8294 H 795.36 3.76431 2.65776 0
M  V30 8295 H 793.675 3.3079 2.52917 0
M  V30 8296 H 796.272 1.97351 4.96947 0
M  V30 8297 H 796.615 0.477803 4.13549 0
M  V30 8298 H 797.148 2.02139 3.42614 0
M  V30 8299 H 793.887 4.85492 4.4043 0
M  V30 8300 H 793.407 3.26206 5.03339 0
M  V30 8301 H 795.086 3.82757 5.21638 0
M  V30 8302 N 795.218 -1.23913 0.973828 0
M  V30 8303 C 796.165 -2.25132 0.508366 0
M  V30 8304 C 797.135 -1.59908 -0.449307 0
M  V30 8305 O 798.32 -1.87405 -0.358313 0
M  V30 8306 C 795.46 -3.4458 -0.189422 0
M  V30 8307 C 794.573 -4.24381 0.807738 0
M  V30 8308 C 793.708 -5.31131 0.0854315 0
M  V30 8309 C 792.747 -6.02635 1.07225 0
M  V30 8310 N 791.884 -7.01073 0.379535 0
M  V30 8311 H 796.724 -2.64313 1.37632 0
M  V30 8312 H 794.261 -1.29924 0.689802 0
M  V30 8313 H 796.219 -4.12706 -0.610733 0
M  V30 8314 H 794.849 -3.06218 -1.02129 0
M  V30 8315 H 793.901 -3.55735 1.34747 0
M  V30 8316 H 795.213 -4.73778 1.55998 0
M  V30 8317 H 794.367 -6.05422 -0.393572 0
M  V30 8318 H 793.106 -4.82658 -0.699461 0
M  V30 8319 H 792.111 -5.27143 1.56207 0
M  V30 8320 H 793.336 -6.53197 1.85769 0
M  V30 8321 H 791.282 -6.54862 -0.386269 0
M  V30 8322 H 791.199 -7.48382 1.07054 0
M  V30 8323 H 792.467 -7.79462 -0.0772984 0
M  V30 8324 N 796.696 -0.74468 -1.38897 0
M  V30 8325 C 797.926 -0.306982 -2.04307 0
M  V30 8326 C 798.334 1.06652 -1.56275 0
M  V30 8327 O 797.677 1.68699 -0.72708 0
M  V30 8328 C 797.739 -0.241186 -3.5869 0
M  V30 8329 C 797.403 -1.55476 -4.2974 0
M  V30 8330 C 798.4 -2.50229 -4.55721 0
M  V30 8331 C 796.085 -1.82173 -4.68101 0
M  V30 8332 C 798.079 -3.69905 -5.19085 0
M  V30 8333 C 795.766 -3.02125 -5.31191 0
M  V30 8334 C 796.764 -3.95812 -5.56616 0
M  V30 8335 O 796.452 -5.13656 -6.18395 0
M  V30 8336 H 796.184 -0.130416 -0.663301 0
M  V30 8337 H 798.738 -1.01192 -1.78744 0
M  V30 8338 H 796.968 0.519925 -3.83189 0
M  V30 8339 H 798.657 0.165806 -4.05561 0
M  V30 8340 H 799.423 -2.30877 -4.26522 0
M  V30 8341 H 795.302 -1.10091 -4.47662 0
M  V30 8342 H 798.846 -4.43047 -5.38846 0
M  V30 8343 H 794.743 -3.21374 -5.59811 0
M  V30 8344 H 795.511 -5.14119 -6.36886 0
M  V30 8345 N 798.174 1.49689 -0.493057 0
M  V30 8346 C 799.421 2.02427 0.0542714 0
M  V30 8347 C 799.749 1.37339 1.37725 0
M  V30 8348 O 799.004 0.495523 1.89323 0
M  V30 8349 C 799.303 3.56427 0.263536 0
M  V30 8350 C 798.969 4.40111 -0.98046 0
M  V30 8351 C 797.631 4.62699 -1.32148 0
M  V30 8352 C 799.983 4.88847 -1.80771 0
M  V30 8353 C 797.311 5.31268 -2.48941 0
M  V30 8354 C 799.663 5.587 -2.96711 0
M  V30 8355 C 798.327 5.79536 -3.31202 0
M  V30 8356 H 797.597 0.740734 0.0198593 0
M  V30 8357 H 800.244 1.80073 -0.651603 0
M  V30 8358 H 798.549 3.77416 1.05186 0
M  V30 8359 H 800.246 3.94819 0.701348 0
M  V30 8360 H 796.836 4.22765 -0.704814 0
M  V30 8361 H 801.02 4.71231 -1.55741 0
M  V30 8362 H 796.276 5.45603 -2.75911 0
M  V30 8363 H 800.45 5.9544 -3.61143 0
M  V30 8364 H 798.077 6.32443 -4.21805 0
M  V30 8365 N 799.652 0.226554 1.55963 0
M  V30 8366 C 800.6 -0.697922 2.21882 0
M  V30 8367 C 801.594 -1.19586 1.19981 0
M  V30 8368 O 802.8 -1.15511 1.38048 0
M  V30 8369 H 799.175 -0.243501 0.711485 0
M  V30 8370 H 801.146 -0.118576 2.98164 0
M  V30 8371 C 799.895 -1.89309 2.91646 0
M  V30 8372 H 799.218 -1.51906 3.69817 0
M  V30 8373 H 800.658 -2.51762 3.41162 0
M  V30 8374 C 799.117 -2.75162 1.94391 0
M  V30 8375 O 799.647 -3.74071 1.46402 0
M  V30 8376 N 797.853 -2.41302 1.61932 0
M  V30 8377 H 797.4 -1.60923 2.01151 0
M  V30 8378 H 797.358 -2.99023 0.971219 0
M  V30 8379 N 801.13 -1.57531 -0.0467866 0
M  V30 8380 C 802.063 -2.00734 -1.08541 0
M  V30 8381 C 803.041 -0.888508 -1.36177 0
M  V30 8382 O 804.225 -1.1529 -1.49132 0
M  V30 8383 C 801.352 -2.36535 -2.42423 0
M  V30 8384 C 800.398 -3.58681 -2.3076 0
M  V30 8385 S 801.231 -5.08536 -1.67785 0
M  V30 8386 C 802.387 -5.47562 -3.03194 0
M  V30 8387 H 802.62 -2.88516 -0.717345 0
M  V30 8388 H 800.153 -1.5226 -0.256181 0
M  V30 8389 H 802.111 -2.57834 -3.19424 0
M  V30 8390 H 800.772 -1.49236 -2.76382 0
M  V30 8391 H 799.965 -3.81329 -3.29552 0
M  V30 8392 H 799.567 -3.37142 -1.61899 0
M  V30 8393 H 801.859 -5.47163 -3.99524 0
M  V30 8394 H 802.802 -6.48082 -2.85299 0
M  V30 8395 H 803.21 -4.75042 -3.04951 0
M  V30 8396 N 802.608 0.318715 -1.54344 0
M  V30 8397 C 803.541 1.41644 -1.7892 0
M  V30 8398 C 804.519 1.495 -0.639421 0
M  V30 8399 O 805.703 1.66835 -0.877404 0
M  V30 8400 C 802.83 2.79701 -1.9101 0
M  V30 8401 C 801.876 2.89354 -3.13331 0
M  V30 8402 S 802.709 2.53264 -4.71824 0
M  V30 8403 C 803.865 3.93384 -4.86826 0
M  V30 8404 H 804.098 1.20585 -2.71747 0
M  V30 8405 H 801.631 0.515828 -1.45529 0
M  V30 8406 H 803.589 3.59227 -1.98661 0
M  V30 8407 H 802.25 2.9804 -0.991516 0
M  V30 8408 H 801.443 3.90574 -3.1854 0
M  V30 8409 H 801.045 2.17805 -3.04035 0
M  V30 8410 H 803.337 4.88191 -4.69761 0
M  V30 8411 H 804.28 3.93156 -5.88926 0
M  V30 8412 H 804.688 3.82564 -4.15097 0
M  V30 8413 N 804.086 1.46499 0.581025 0
M  V30 8414 C 805.363 1.42372 1.34125 0
M  V30 8415 C 805.743 0.108073 2.10823 0
M  V30 8416 O 805.091 -0.910366 2.09582 0
M  V30 8417 C 805.301 2.65445 2.26583 0
M  V30 8418 C 806.649 3.11664 2.88359 0
M  V30 8419 O 807.673 2.66006 2.36896 0
M  V30 8420 O 806.532 3.90974 3.81839 0
M  V30 8421 H 803.626 0.566262 0.602724 0
M  V30 8422 H 806.172 1.58667 0.601903 0
M  V30 8423 H 804.944 3.52756 1.69348 0
M  V30 8424 H 804.567 2.51618 3.07854 0
M  V30 8425 N 805.565 -0.825799 1.34232 0
M  V30 8426 C 806.475 -1.9684 1.27638 0
M  V30 8427 C 807.491 -1.73018 0.184569 0
M  V30 8428 O 808.667 -1.97172 0.410525 0
M  V30 8429 C 805.732 -3.31084 1.02879 0
M  V30 8430 C 804.793 -3.67933 2.21188 0
M  V30 8431 C 804.026 -4.95772 1.976 0
M  V30 8432 O 804.249 -5.62721 0.93281 0
M  V30 8433 O 803.183 -5.30431 2.84477 0
M  V30 8434 H 807.009 -2.05346 2.23756 0
M  V30 8435 H 804.594 -0.960772 1.1441 0
M  V30 8436 H 806.476 -4.11492 0.908406 0
M  V30 8437 H 805.151 -3.23552 0.0979821 0
M  V30 8438 H 804.058 -2.87981 2.38784 0
M  V30 8439 H 805.391 -3.80147 3.12648 0
M  V30 8440 N 807.043 -1.17915 -1.04565 0
M  V30 8441 C 808.291 -0.969505 -1.77327 0
M  V30 8442 C 808.612 0.502569 -1.88412 0
M  V30 8443 O 807.882 1.36467 -1.40547 0
M  V30 8444 H 806.462 -0.355723 -0.656864 0
M  V30 8445 H 809.124 -1.48506 -1.26223 0
M  V30 8446 H 808.22 -1.40324 -2.78775 0
M  V30 8447 N 808.521 1.23394 -0.980386 0
M  V30 8448 C 809.468 2.24859 -0.520298 0
M  V30 8449 C 810.438 1.60144 0.440821 0
M  V30 8450 O 811.623 1.87593 0.348369 0
M  V30 8451 C 808.763 3.44675 0.171145 0
M  V30 8452 C 807.876 4.23947 -0.830233 0
M  V30 8453 C 807.011 5.31079 -0.113597 0
M  V30 8454 C 806.05 6.02058 -1.10419 0
M  V30 8455 N 805.187 7.00862 -0.416709 0
M  V30 8456 H 810.027 2.63579 -1.39032 0
M  V30 8457 H 807.564 1.29556 -0.696682 0
M  V30 8458 H 809.522 4.13024 0.588838 0
M  V30 8459 H 808.152 3.06755 1.00504 0
M  V30 8460 H 807.204 3.55016 -1.36631 0
M  V30 8461 H 808.516 4.72945 -1.58508 0
M  V30 8462 H 807.67 6.05622 0.36146 0
M  V30 8463 H 806.409 4.83022 0.673854 0
M  V30 8464 H 805.414 5.26307 -1.59 0
M  V30 8465 H 806.639 6.52203 -1.8923 0
M  V30 8466 H 804.585 6.55057 0.351535 0
M  V30 8467 H 804.502 7.47804 -1.11021 0
M  V30 8468 H 805.77 7.79492 0.0359606 0
M  V30 8469 N 809.999 0.752036 1.385 0
M  V30 8470 C 811.245 0.307958 2.00448 0
M  V30 8471 C 811.578 -1.10702 1.59558 0
M  V30 8472 O 810.853 -1.75788 0.832391 0
M  V30 8473 C 811.136 0.429092 3.57534 0
M  V30 8474 C 810.989 1.88507 4.08393 0
M  V30 8475 C 812.308 -0.178442 4.39738 0
M  V30 8476 H 809.427 0.113373 0.728228 0
M  V30 8477 H 812.069 0.951389 1.64465 0
M  V30 8478 H 810.219 -0.118695 3.88319 0
M  V30 8479 H 811.891 2.49104 3.88259 0
M  V30 8480 H 810.134 2.40066 3.61318 0
M  V30 8481 H 810.805 1.92099 5.17496 0
M  V30 8482 H 813.281 0.28872 4.15097 0
M  V30 8483 H 812.157 -0.0634349 5.48863 0
M  V30 8484 H 812.418 -1.26655 4.23569 0
M  V30 8485 N 811.477 -1.49425 0.500989 0
M  V30 8486 C 812.705 -2.06861 -0.0403443 0
M  V30 8487 C 813.12 -1.36132 -1.30819 0
M  V30 8488 O 812.477 -0.439647 -1.77125 0
M  V30 8489 C 812.528 -3.6027 -0.297902 0
M  V30 8490 O 812.249 -4.28338 0.919686 0
M  V30 8491 C 813.75 -4.34419 -0.882876 0
M  V30 8492 H 810.97 -0.670688 0.0204619 0
M  V30 8493 H 813.514 -1.92207 0.698342 0
M  V30 8494 H 811.669 -3.74627 -0.98657 0
M  V30 8495 H 812.083 -5.2004 0.682528 0
M  V30 8496 H 813.557 -5.42631 -1.01268 0
M  V30 8497 H 814.034 -3.96898 -1.88066 0
M  V30 8498 H 814.64 -4.24669 -0.231677 0
M  V30 8499 N 812.955 -0.234822 -1.55841 0
M  V30 8500 C 814.203 0.392483 -1.98252 0
M  V30 8501 C 814.524 1.59344 -1.12404 0
M  V30 8502 O 813.794 1.94834 -0.204055 0
M  V30 8503 H 812.374 0.147999 -0.732192 0
M  V30 8504 H 815.036 -0.330804 -1.92072 0
M  V30 8505 H 814.132 0.709829 -3.03921 0
M  V30 8506 N 814.433 1.57553 0.0384317 0
M  V30 8507 C 815.663 1.92813 0.742064 0
M  V30 8508 C 816.071 0.832157 1.69917 0
M  V30 8509 O 815.414 -0.200917 1.82598 0
M  V30 8510 C 815.476 3.23806 1.56172 0
M  V30 8511 C 815.14 4.50459 0.770407 0
M  V30 8512 C 816.137 5.19846 0.0748006 0
M  V30 8513 C 813.822 4.97001 0.727714 0
M  V30 8514 C 815.816 6.34047 -0.652902 0
M  V30 8515 C 813.503 6.111 -0.00373992 0
M  V30 8516 C 814.501 6.79477 -0.692816 0
M  V30 8517 O 814.189 7.91395 -1.41241 0
M  V30 8518 H 813.921 0.641174 0.214179 0
M  V30 8519 H 816.475 2.054 0.00285095 0
M  V30 8520 H 814.705 3.0752 2.34453 0
M  V30 8521 H 816.394 3.44463 2.14709 0
M  V30 8522 H 817.16 4.84899 0.098875 0
M  V30 8523 H 813.039 4.43629 1.25355 0
M  V30 8524 H 816.583 6.87353 -1.1913 0
M  V30 8525 H 812.48 6.45493 -0.0297703 0
M  V30 8526 H 813.248 8.07702 -1.32512 0
M  V30 8527 N 815.911 -0.310526 1.54511 0
M  V30 8528 C 817.158 -1.04691 1.73338 0
M  V30 8529 C 817.486 -1.87584 0.514038 0
M  V30 8530 O 816.741 -1.89096 -0.504119 0
M  V30 8531 C 817.04 -1.98942 2.96912 0
M  V30 8532 C 816.706 -1.321 4.31115 0
M  V30 8533 C 815.368 -1.13603 4.67598 0
M  V30 8534 C 817.72 -0.842362 5.14348 0
M  V30 8535 C 815.048 -0.459102 5.84901 0
M  V30 8536 C 817.4 -0.179202 6.32346 0
M  V30 8537 C 816.064 0.0178111 6.67498 0
M  V30 8538 H 815.334 -0.38309 0.634289 0
M  V30 8539 H 817.981 -0.322723 1.88761 0
M  V30 8540 H 816.286 -2.77856 2.76231 0
M  V30 8541 H 817.983 -2.55972 3.08674 0
M  V30 8542 H 814.573 -1.47502 4.02419 0
M  V30 8543 H 818.757 -0.973013 4.86668 0
M  V30 8544 H 814.013 -0.295385 6.10686 0
M  V30 8545 H 818.187 0.199619 6.96114 0
M  V30 8546 H 815.814 0.544356 7.58249 0
M  V30 8547 N 817.389 -1.46805 -0.573248 0
M  V30 8548 C 818.629 -1.5417 -1.34205 0
M  V30 8549 C 818.993 -0.192675 -1.91031 0
M  V30 8550 O 820.194 -0.141111 -2.68429 0
M  V30 8551 C 818.465 -2.61682 -2.43428 0
M  V30 8552 S 820.024 -2.88519 -3.30609 0
M  V30 8553 H 816.842 -0.544592 -0.4571 0
M  V30 8554 H 819.444 -1.84094 -0.658001 0
M  V30 8555 H 818.148 -3.58319 -2.00088 0
M  V30 8556 H 817.679 -2.33521 -3.16594 0
M  V30 8557 H 819.694 -2.2451 -4.42504 0
M  V30 8558 N 818.867 0.818669 -1.34668 0
M  V30 8559 C 819.799 1.93754 -1.22442 0
M  V30 8560 C 820.812 1.62103 -0.150501 0
M  V30 8561 O 822.001 1.73898 -0.402728 0
M  V30 8562 C 819.101 3.27806 -0.860031 0
M  V30 8563 C 818.274 3.8745 -2.02981 0
M  V30 8564 C 817.333 4.99887 -1.64314 0
M  V30 8565 O 816.359 5.17957 -2.36029 0
M  V30 8566 N 817.561 5.77795 -0.55976 0
M  V30 8567 H 820.326 2.04773 -2.18833 0
M  V30 8568 H 817.887 0.995472 -1.27679 0
M  V30 8569 H 819.879 4.00478 -0.583068 0
M  V30 8570 H 818.449 3.12597 0.0138253 0
M  V30 8571 H 817.669 3.07119 -2.47127 0
M  V30 8572 H 818.957 4.2403 -2.81204 0
M  V30 8573 H 818.355 5.65688 0.0363329 0
M  V30 8574 H 816.912 6.50899 -0.342541 0
M  V30 8575 N 820.346 1.18468 1.03938 0
M  V30 8576 C 821.594 0.978895 1.76811 0
M  V30 8577 C 821.915 -0.49257 1.88676 0
M  V30 8578 O 821.185 -1.3572 1.41269 0
M  V30 8579 H 819.765 0.359201 0.654968 0
M  V30 8580 H 822.427 1.49173 1.25433 0
M  V30 8581 H 821.523 1.418 2.78027 0
M  V30 8582 N 821.824 -1.22873 0.986916 0
M  V30 8583 C 823.071 -1.91462 0.659424 0
M  V30 8584 C 823.399 -1.76931 -0.807825 0
M  V30 8585 O 822.654 -1.12829 -1.59901 0
M  V30 8586 C 822.953 -3.43014 1.00379 0
M  V30 8587 C 822.619 -3.77731 2.46232 0
M  V30 8588 C 821.281 -3.86918 2.86091 0
M  V30 8589 C 823.633 -3.94343 3.40798 0
M  V30 8590 C 820.961 -4.10149 4.19518 0
M  V30 8591 C 823.313 -4.19076 4.73875 0
M  V30 8592 C 821.977 -4.26486 5.13484 0
M  V30 8593 H 821.247 -0.700611 0.2413 0
M  V30 8594 H 823.894 -1.45763 1.24199 0
M  V30 8595 H 822.199 -3.90329 0.339226 0
M  V30 8596 H 823.896 -3.94327 0.728518 0
M  V30 8597 H 820.486 -3.71159 2.14334 0
M  V30 8598 H 824.67 -3.86629 3.11178 0
M  V30 8599 H 819.926 -4.1411 4.49803 0
M  V30 8600 H 824.1 -4.30873 5.47102 0
M  V30 8601 H 821.727 -4.4424 6.16891 0
M  V30 8602 N 823.302 -0.75937 -1.38099 0
M  V30 8603 C 824.25 -0.124954 -2.32264 0
M  V30 8604 C 825.244 0.698863 -1.54312 0
M  V30 8605 O 826.45 0.597312 -1.698 0
M  V30 8606 H 822.825 -0.0216142 -0.751689 0
M  V30 8607 H 824.796 -0.935115 -2.83369 0
M  V30 8608 C 823.545 0.749463 -3.39527 0
M  V30 8609 H 822.868 0.124932 -3.99605 0
M  V30 8610 H 824.308 1.16055 -4.07808 0
M  V30 8611 C 822.767 1.89464 -2.78577 0
M  V30 8612 O 823.297 2.98923 -2.68343 0
M  V30 8613 N 821.503 1.69145 -2.36301 0
M  V30 8614 H 821.05 0.801157 -2.44825 0
M  V30 8615 H 821.008 2.45936 -1.95864 0
M  V30 8616 N 824.78 1.49157 -0.508906 0
M  V30 8617 C 826.191 1.86593 -0.0630975 0
M  V30 8618 C 826.542 1.42051 1.35337 0
M  V30 8619 O 825.667 0.801866 2.00995 0
M  V30 8620 C 826.262 3.38629 -0.107729 0
M  V30 8621 C 824.821 3.75336 0.282776 0
M  V30 8622 C 823.968 2.7317 -0.4768 0
M  V30 8623 H 826.919 1.41362 -0.72128 0
M  V30 8624 H 826.94 3.74271 0.685689 0
M  V30 8625 H 826.452 3.71017 -1.13876 0
M  V30 8626 H 824.553 3.48558 1.31675 0
M  V30 8627 H 824.666 4.79081 -0.0421728 0
M  V30 8628 H 823.03 2.54591 0.0743552 0
M  V30 8629 H 823.813 3.08403 -1.50807 0
M  V30 8630 N 826.258 0.243083 1.55714 0
M  V30 8631 C 827.504 -0.383287 1.99145 0
M  V30 8632 C 827.837 -1.57868 1.13098 0
M  V30 8633 O 827.112 -1.93535 0.193509 0
M  V30 8634 C 827.395 -0.796879 3.51172 0
M  V30 8635 C 827.248 0.403642 4.47985 0
M  V30 8636 C 828.567 -1.64525 4.08191 0
M  V30 8637 H 825.686 -0.137843 0.723995 0
M  V30 8638 H 828.328 0.343631 1.86867 0
M  V30 8639 H 826.478 -1.41625 3.61766 0
M  V30 8640 H 828.15 1.04204 4.49376 0
M  V30 8641 H 826.393 1.04741 4.20965 0
M  V30 8642 H 827.064 0.0709794 5.51954 0
M  V30 8643 H 829.54 -1.12246 4.00674 0
M  V30 8644 H 828.416 -1.9035 5.14838 0
M  V30 8645 H 828.677 -2.61582 3.56409 0
M  V30 8646 N 827.736 -1.57571 -0.0300757 0
M  V30 8647 C 828.699 -2.05468 -1.01565 0
M  V30 8648 C 829.699 -0.958628 -1.29101 0
M  V30 8649 O 830.889 -1.22228 -1.24121 0
M  V30 8650 C 828.021 -2.47077 -2.34874 0
M  V30 8651 H 829.214 -2.93797 -0.601936 0
M  V30 8652 H 826.767 -1.53828 -0.276878 0
M  V30 8653 H 827.502 -1.61901 -2.80996 0
M  V30 8654 H 827.287 -3.27097 -2.16218 0
M  V30 8655 H 828.777 -2.84564 -3.05635 0
M  V30 8656 N 829.214 0.302327 -1.54673 0
M  V30 8657 C 830.439 1.06103 -1.78205 0
M  V30 8658 C 830.864 1.80204 -0.53926 0
M  V30 8659 O 830.222 1.73975 0.510142 0
M  V30 8660 C 830.27 2.01829 -2.98827 0
M  V30 8661 O 829.374 3.10108 -2.71858 0
M  V30 8662 H 828.715 0.30487 -0.589873 0
M  V30 8663 H 831.245 0.340153 -2.01753 0
M  V30 8664 H 831.255 2.44319 -3.2676 0
M  V30 8665 H 829.93 1.473 -3.88942 0
M  V30 8666 H 828.507 2.72142 -2.54937 0
M  V30 8667 N 830.692 1.47107 0.565454 0
M  V30 8668 C 831.939 1.53308 1.32299 0
M  V30 8669 C 832.267 0.1919 1.93551 0
M  V30 8670 O 831.522 -0.81435 1.77952 0
M  V30 8671 C 831.821 2.59309 2.45954 0
M  V30 8672 C 831.487 4.02827 2.02586 0
M  V30 8673 C 830.149 4.41897 1.90474 0
M  V30 8674 C 832.501 4.92913 1.6937 0
M  V30 8675 C 829.829 5.68898 1.4343 0
M  V30 8676 C 832.181 6.20368 1.238 0
M  V30 8677 C 830.845 6.58327 1.10278 0
M  V30 8678 H 830.115 0.560993 0.484116 0
M  V30 8679 H 832.762 1.80667 0.634965 0
M  V30 8680 H 831.067 2.25676 3.20277 0
M  V30 8681 H 832.764 2.61332 3.04149 0
M  V30 8682 H 829.354 3.71953 2.12952 0
M  V30 8683 H 833.538 4.63433 1.77605 0
M  V30 8684 H 828.794 5.97065 1.31618 0
M  V30 8685 H 832.968 6.89589 0.971586 0
M  V30 8686 H 830.595 7.56628 0.736027 0
M  V30 8687 N 832.17 -0.811516 1.35101 0
M  V30 8688 C 833.581 -1.38515 1.25182 0
M  V30 8689 C 833.932 -1.95846 -0.117883 0
M  V30 8690 O 833.057 -1.90925 -1.01866 0
M  V30 8691 C 833.652 -2.51813 2.26662 0
M  V30 8692 C 832.211 -3.05052 2.20499 0
M  V30 8693 C 831.358 -1.77987 2.12641 0
M  V30 8694 H 834.309 -0.614959 1.46301 0
M  V30 8695 H 834.33 -3.30228 1.89023 0
M  V30 8696 H 833.842 -2.10057 3.2634 0
M  V30 8697 H 831.943 -3.51285 1.24215 0
M  V30 8698 H 832.056 -3.63368 3.1225 0
M  V30 8699 H 830.42 -1.99342 1.5854 0
M  V30 8700 H 831.203 -1.38389 3.14171 0
M  V30 8701 N 833.648 -1.19017 -1.03309 0
M  V30 8702 C 834.925 -0.899659 -1.73682 0
M  V30 8703 C 835.305 0.595677 -2.02521 0
M  V30 8704 O 834.653 1.55263 -1.67648 0
M  V30 8705 C 834.863 -1.75508 -3.01659 0
M  V30 8706 C 836.211 -1.98679 -3.75249 0
M  V30 8707 O 837.235 -1.72624 -3.11576 0
M  V30 8708 O 836.094 -2.42587 -4.89708 0
M  V30 8709 H 833.188 -0.334903 -0.756154 0
M  V30 8710 H 835.734 -1.29809 -1.09305 0
M  V30 8711 H 834.506 -2.7684 -2.76542 0
M  V30 8712 H 834.129 -1.35565 -3.73775 0
M  V30 8713 N 835.127 1.22348 -0.993418 0
M  V30 8714 C 836.074 2.24294 -0.544118 0
M  V30 8715 C 837.044 1.60602 0.42381 0
M  V30 8716 O 838.229 1.87952 0.328453 0
M  V30 8717 C 835.369 3.44837 0.134578 0
M  V30 8718 C 834.482 4.23043 -0.875151 0
M  V30 8719 C 833.617 5.30928 -0.169919 0
M  V30 8720 C 832.656 6.00853 -1.16798 0
M  V30 8721 N 831.793 7.00381 -0.491021 0
M  V30 8722 H 836.633 2.6209 -1.4182 0
M  V30 8723 H 834.17 1.2881 -0.710384 0
M  V30 8724 H 836.128 4.13625 0.544998 0
M  V30 8725 H 834.758 3.07804 0.972446 0
M  V30 8726 H 833.81 3.53546 -1.40389 0
M  V30 8727 H 835.122 4.71237 -1.63516 0
M  V30 8728 H 834.276 6.05972 0.297205 0
M  V30 8729 H 833.015 4.8371 0.622586 0
M  V30 8730 H 832.02 5.24591 -1.64573 0
M  V30 8731 H 833.245 6.50159 -1.96137 0
M  V30 8732 H 831.191 6.55393 0.282037 0
M  V30 8733 H 831.108 7.46584 -1.18947 0
M  V30 8734 H 832.376 7.79486 -0.0467169 0
M  V30 8735 N 836.605 0.766683 1.37694 0
M  V30 8736 C 837.553 0.137269 2.32195 0
M  V30 8737 C 838.547 -0.69067 1.54681 0
M  V30 8738 O 839.753 -0.588299 1.70115 0
M  V30 8739 H 836.128 0.0256003 0.751564 0
M  V30 8740 H 838.099 0.950129 2.82869 0
M  V30 8741 C 836.848 -0.731446 3.39919 0
M  V30 8742 H 836.171 -0.103738 3.99665 0
M  V30 8743 H 837.611 -1.13891 4.08417 0
M  V30 8744 C 836.07 -1.87984 2.79578 0
M  V30 8745 O 836.6 -2.97496 2.69924 0
M  V30 8746 N 834.806 -1.6789 2.37195 0
M  V30 8747 H 834.353 -0.788162 2.45246 0
M  V30 8748 H 834.311 -2.44894 1.97165 0
M  V30 8749 N 838.083 -1.48885 0.516809 0
M  V30 8750 C 839.03 -2.29408 -0.253125 0
M  V30 8751 C 840 -1.36533 -0.945935 0
M  V30 8752 O 841.185 -1.65495 -0.949527 0
M  V30 8753 C 838.325 -3.19592 -1.30211 0
M  V30 8754 C 837.438 -4.27535 -0.61948 0
M  V30 8755 C 836.573 -5.04916 -1.65026 0
M  V30 8756 C 835.612 -6.04677 -0.950368 0
M  V30 8757 N 834.749 -6.75164 -1.92608 0
M  V30 8758 H 839.589 -2.94738 0.439744 0
M  V30 8759 H 837.126 -1.45311 0.2287 0
M  V30 8760 H 839.084 -3.70267 -1.92245 0
M  V30 8761 H 837.714 -2.56213 -1.96353 0
M  V30 8762 H 836.766 -3.80228 0.114505 0
M  V30 8763 H 838.078 -4.98752 -0.0693016 0
M  V30 8764 H 837.232 -5.59539 -2.34523 0
M  V30 8765 H 835.971 -4.33508 -2.23432 0
M  V30 8766 H 834.976 -5.4927 -0.241252 0
M  V30 8767 H 836.201 -6.78077 -0.372599 0
M  V30 8768 H 834.147 -6.06517 -2.49946 0
M  V30 8769 H 834.064 -7.4241 -1.42699 0
M  V30 8770 H 835.332 -7.34384 -2.61345 0
M  V30 8771 N 839.561 -0.251338 -1.55583 0
M  V30 8772 C 840.807 0.37272 -1.99346 0
M  V30 8773 C 841.14 1.57266 -1.13934 0
M  V30 8774 O 840.415 1.9343 -0.20377 0
M  V30 8775 C 840.698 0.778245 -3.5159 0
M  V30 8776 C 840.551 -0.427394 -4.47765 0
M  V30 8777 C 841.87 1.62358 -4.09057 0
M  V30 8778 H 838.989 0.134002 -0.724715 0
M  V30 8779 H 841.631 -0.353536 -1.86682 0
M  V30 8780 H 839.781 1.39704 -3.62512 0
M  V30 8781 H 841.453 -1.06586 -4.48818 0
M  V30 8782 H 839.696 -1.06972 -4.20404 0
M  V30 8783 H 840.367 -0.10025 -5.51909 0
M  V30 8784 H 842.843 1.1012 -4.01264 0
M  V30 8785 H 841.719 1.87617 -5.1584 0
M  V30 8786 H 841.98 2.59688 -3.57791 0
M  V30 8787 N 841.039 1.57585 0.0217189 0
M  V30 8788 C 842.285 1.89887 0.712099 0
M  V30 8789 C 842.618 0.849971 1.74611 0
M  V30 8790 O 841.893 -0.13407 1.94037 0
M  V30 8791 C 842.176 3.32815 1.37499 0
M  V30 8792 C 842.029 4.48405 0.353993 0
M  V30 8793 C 843.348 3.74786 2.30703 0
M  V30 8794 H 840.467 0.690588 0.257405 0
M  V30 8795 H 843.109 1.89983 -0.0251145 0
M  V30 8796 H 841.259 3.32863 2.00335 0
M  V30 8797 H 842.931 4.60491 -0.273015 0
M  V30 8798 H 841.174 4.32573 -0.32599 0
M  V30 8799 H 841.845 5.45316 0.85644 0
M  V30 8800 H 844.321 3.76151 1.77904 0
M  V30 8801 H 843.197 4.75585 2.74061 0
M  V30 8802 H 843.458 3.07449 3.17691 0
M  V30 8803 N 842.517 -0.29412 1.54831 0
M  V30 8804 C 843.742 -1.05156 1.78765 0
M  V30 8805 C 844.167 -1.79916 0.548809 0
M  V30 8806 O 843.525 -1.74243 -0.500909 0
M  V30 8807 C 843.573 -2.00242 2.99893 0
M  V30 8808 O 842.677 -3.08662 2.73499 0
M  V30 8809 H 842.018 -0.301737 0.591482 0
M  V30 8810 H 844.548 -0.329449 2.0193 0
M  V30 8811 H 844.558 -2.42583 3.28051 0
M  V30 8812 H 843.233 -1.45235 3.89717 0
M  V30 8813 H 841.81 -2.70786 2.56377 0
M  V30 8814 N 843.995 -1.47404 -0.557645 0
M  V30 8815 C 845.235 -1.55585 -1.32562 0
M  V30 8816 C 845.599 -0.212926 -1.90816 0
M  V30 8817 O 846.8 -0.169574 -2.68265 0
M  V30 8818 C 845.071 -2.64249 -2.40639 0
M  V30 8819 S 846.63 -2.9201 -3.2753 0
M  V30 8820 H 843.448 -0.549409 -0.451298 0
M  V30 8821 H 846.05 -1.84782 -0.638438 0
M  V30 8822 H 844.754 -3.60421 -1.96277 0
M  V30 8823 H 844.285 -2.36866 -3.14099 0
M  V30 8824 H 846.3 -2.29191 -4.40098 0
M  V30 8825 N 845.473 0.80434 -1.35529 0
M  V30 8826 C 846.403 1.93086 -1.31301 0
M  V30 8827 C 847.384 1.69068 -0.187044 0
M  V30 8828 O 848.569 1.90399 -0.382359 0
M  V30 8829 C 845.699 3.29867 -1.0865 0
M  V30 8830 C 844.653 3.68373 -2.17911 0
M  V30 8831 C 843.979 5.0334 -1.80423 0
M  V30 8832 C 845.279 3.78516 -3.59893 0
M  V30 8833 H 846.973 1.96882 -2.25561 0
M  V30 8834 H 844.519 0.945841 -1.08581 0
M  V30 8835 H 846.472 4.08281 -1.04331 0
M  V30 8836 H 845.196 3.2642 -0.108359 0
M  V30 8837 H 843.855 2.92247 -2.21331 0
M  V30 8838 H 843.503 4.96399 -0.812213 0
M  V30 8839 H 843.203 5.30074 -2.53565 0
M  V30 8840 H 844.727 5.84191 -1.77633 0
M  V30 8841 H 846.141 4.47155 -3.58783 0
M  V30 8842 H 844.538 4.16721 -4.31814 0
M  V30 8843 H 845.608 2.8001 -3.95882 0
M  V30 8844 N 846.951 1.19563 1.02676 0
M  V30 8845 C 848.176 1.02556 1.80269 0
M  V30 8846 C 848.601 -0.421056 1.83327 0
M  V30 8847 O 847.959 -1.30279 1.26084 0
M  V30 8848 C 848.007 1.60165 3.23078 0
M  V30 8849 O 847.111 0.832404 4.03912 0
M  V30 8850 H 846.452 0.362354 0.556413 0
M  V30 8851 H 848.982 1.58633 1.29216 0
M  V30 8852 H 848.992 1.6347 3.7382 0
M  V30 8853 H 847.667 2.65454 3.20167 0
M  V30 8854 H 846.244 0.872768 3.62543 0
M  V30 8855 N 848.429 -1.21819 0.999893 0
M  V30 8856 C 849.376 -2.24003 0.556005 0
M  V30 8857 C 850.346 -1.60825 -0.415287 0
M  V30 8858 O 851.531 -1.88123 -0.318481 0
M  V30 8859 C 848.671 -3.44904 -0.116289 0
M  V30 8860 C 847.784 -4.22573 0.897574 0
M  V30 8861 C 846.919 -5.30831 0.198073 0
M  V30 8862 C 845.958 -6.00225 1.19983 0
M  V30 8863 N 845.095 -7.00111 0.528157 0
M  V30 8864 H 849.935 -2.61334 1.43208 0
M  V30 8865 H 847.472 -1.28431 0.717205 0
M  V30 8866 H 849.43 -4.13908 -0.523055 0
M  V30 8867 H 848.06 -3.08315 -0.956108 0
M  V30 8868 H 847.112 -3.52797 1.42262 0
M  V30 8869 H 848.424 -4.70363 1.66013 0
M  V30 8870 H 847.578 -6.06121 -0.265065 0
M  V30 8871 H 846.317 -4.84033 -0.596924 0
M  V30 8872 H 845.322 -5.23711 1.67353 0
M  V30 8873 H 846.547 -6.4911 1.99582 0
M  V30 8874 H 844.493 -6.55534 -0.247276 0
M  V30 8875 H 844.41 -7.45943 1.22904 0
M  V30 8876 H 845.678 -7.7945 0.0880543 0
M  V30 8877 N 849.908 -0.773975 -1.37286 0
M  V30 8878 C 850.838 -0.175782 -2.32837 0
M  V30 8879 C 851.819 0.680603 -1.5589 0
M  V30 8880 O 853.004 0.617607 -1.84117 0
M  V30 8881 C 850.134 0.702388 -3.40123 0
M  V30 8882 C 849.088 -0.0528687 -4.27967 0
M  V30 8883 C 848.414 0.944891 -5.26285 0
M  V30 8884 C 849.714 -1.23316 -5.07534 0
M  V30 8885 H 851.408 -0.974016 -2.83114 0
M  V30 8886 H 848.954 -0.469826 -1.3612 0
M  V30 8887 H 850.907 1.13069 -4.05947 0
M  V30 8888 H 849.631 1.53316 -2.88378 0
M  V30 8889 H 848.29 -0.461978 -3.63678 0
M  V30 8890 H 847.938 1.77028 -4.70819 0
M  V30 8891 H 847.638 0.444079 -5.8592 0
M  V30 8892 H 849.162 1.37209 -5.94984 0
M  V30 8893 H 850.576 -0.881395 -5.66484 0
M  V30 8894 H 848.973 -1.66621 -5.76504 0
M  V30 8895 H 850.043 -2.03617 -4.40077 0
M  V30 8896 N 851.386 1.48609 -0.524698 0
M  V30 8897 C 852.333 2.29539 0.240956 0
M  V30 8898 C 853.303 1.37033 0.938681 0
M  V30 8899 O 854.488 1.65996 0.940737 0
M  V30 8900 C 851.628 3.20278 1.28514 0
M  V30 8901 C 850.741 4.27858 0.596798 0
M  V30 8902 C 849.876 5.05784 1.62346 0
M  V30 8903 C 848.915 6.05173 0.918287 0
M  V30 8904 N 848.052 6.76176 1.89025 0
M  V30 8905 H 852.892 2.945 -0.455368 0
M  V30 8906 H 850.429 1.45188 -0.236403 0
M  V30 8907 H 852.387 3.71281 1.90279 0
M  V30 8908 H 851.017 2.57251 1.94992 0
M  V30 8909 H 850.069 3.80162 -0.134668 0
M  V30 8910 H 851.381 4.98782 0.0428506 0
M  V30 8911 H 850.535 5.60775 2.31553 0
M  V30 8912 H 849.274 4.34687 2.2113 0
M  V30 8913 H 848.279 5.49391 0.21212 0
M  V30 8914 H 849.504 6.78265 0.336633 0
M  V30 8915 H 847.45 6.07834 2.46726 0
M  V30 8916 H 847.367 7.43157 1.3876 0
M  V30 8917 H 848.635 7.35759 2.57446 0
M  V30 8918 N 852.864 0.259585 1.55447 0
M  V30 8919 C 854.094 -0.364863 2.03353 0
M  V30 8920 C 854.502 -1.5116 1.13786 0
M  V30 8921 O 853.845 -1.83109 0.147283 0
M  V30 8922 C 853.907 -0.922587 3.4746 0
M  V30 8923 C 853.571 0.0935207 4.56904 0
M  V30 8924 C 854.568 0.907571 5.11917 0
M  V30 8925 C 852.253 0.223276 5.01804 0
M  V30 8926 C 854.247 1.83771 6.10333 0
M  V30 8927 C 851.934 1.15691 6.00049 0
M  V30 8928 C 852.932 1.96264 6.54194 0
M  V30 8929 O 852.62 2.88052 7.50521 0
M  V30 8930 H 852.352 -0.0893313 0.670072 0
M  V30 8931 H 854.906 0.384821 2.01763 0
M  V30 8932 H 853.136 -1.72206 3.4624 0
M  V30 8933 H 854.825 -1.45846 3.78792 0
M  V30 8934 H 855.591 0.817979 4.78052 0
M  V30 8935 H 851.47 -0.393834 4.59315 0
M  V30 8936 H 855.014 2.46703 6.52521 0
M  V30 8937 H 850.911 1.24738 6.33333 0
M  V30 8938 H 851.679 2.82557 7.68182 0
M  V30 8939 N 854.342 -1.57594 -0.0133615 0
M  V30 8940 C 855.275 -2.02991 -1.04259 0
M  V30 8941 C 856.253 -0.917193 -1.34262 0
M  V30 8942 O 857.437 -1.18428 -1.46653 0
M  V30 8943 C 854.564 -2.41624 -2.37351 0
M  V30 8944 C 853.61 -3.63495 -2.231 0
M  V30 8945 S 854.443 -5.1198 -1.5696 0
M  V30 8946 C 855.599 -5.5387 -2.91511 0
M  V30 8947 H 855.832 -2.89973 -0.655985 0
M  V30 8948 H 853.365 -1.52769 -0.223827 0
M  V30 8949 H 855.323 -2.64551 -3.13884 0
M  V30 8950 H 853.984 -1.55065 -2.73155 0
M  V30 8951 H 853.177 -3.88233 -3.21389 0
M  V30 8952 H 852.779 -3.405 -1.54711 0
M  V30 8953 H 855.071 -5.55514 -3.87828 0
M  V30 8954 H 856.014 -6.53988 -2.71488 0
M  V30 8955 H 856.422 -4.81404 -2.94806 0
M  V30 8956 N 855.82 0.285905 -1.54985 0
M  V30 8957 C 857.066 1.02071 -1.75241 0
M  V30 8958 C 857.399 1.864 -0.544842 0
M  V30 8959 O 856.674 1.89034 0.457844 0
M  V30 8960 C 856.957 1.91409 -3.05016 0
M  V30 8961 C 856.81 1.10158 -4.36102 0
M  V30 8962 C 858.129 2.90335 -3.30747 0
M  V30 8963 H 855.248 0.369663 -0.637588 0
M  V30 8964 H 857.89 0.294114 -1.8771 0
M  V30 8965 H 856.04 2.53362 -2.94517 0
M  V30 8966 H 857.712 0.503756 -4.58541 0
M  V30 8967 H 855.955 0.404675 -4.31908 0
M  V30 8968 H 856.626 1.75956 -5.23205 0
M  V30 8969 H 859.102 2.38514 -3.40955 0
M  V30 8970 H 857.978 3.49997 -4.2284 0
M  V30 8971 H 858.239 3.64787 -2.49765 0
M  V30 8972 N 857.298 1.47698 0.54982 0
M  V30 8973 C 858.544 1.54931 1.30859 0
M  V30 8974 C 858.877 0.214021 1.93017 0
M  V30 8975 O 858.152 -0.778093 1.78258 0
M  V30 8976 C 858.435 2.67286 2.41309 0
M  V30 8977 C 858.288 4.10457 1.83971 0
M  V30 8978 C 859.607 2.75509 3.43195 0
M  V30 8979 H 856.726 0.56399 0.474431 0
M  V30 8980 H 859.368 1.79787 0.614541 0
M  V30 8981 H 857.518 2.46224 3.0051 0
M  V30 8982 H 859.19 4.42903 1.28974 0
M  V30 8983 H 857.433 4.18387 1.14606 0
M  V30 8984 H 858.104 4.84857 2.63851 0
M  V30 8985 H 860.58 2.94531 2.93923 0
M  V30 8986 H 859.456 3.55886 4.17895 0
M  V30 8987 H 859.717 1.82863 4.02509 0
M  V30 8988 N 858.776 -0.797141 1.35954 0
M  V30 8989 C 860.025 -1.54983 1.29086 0
M  V30 8990 C 860.338 -1.95167 -0.130003 0
M  V30 8991 O 861.544 -2.69596 -0.32101 0
M  V30 8992 C 860 -2.79738 2.26439 0
M  V30 8993 C 859.608 -2.46753 3.73921 0
M  V30 8994 C 861.352 -3.57733 2.28533 0
M  V30 8995 C 859.259 -3.67858 4.63071 0
M  V30 8996 H 858.189 -0.581766 0.479651 0
M  V30 8997 H 860.84 -0.87541 1.61273 0
M  V30 8998 H 859.222 -3.48939 1.87236 0
M  V30 8999 H 860.396 -1.85499 4.21814 0
M  V30 9000 H 858.711 -1.81985 3.74527 0
M  V30 9001 H 861.308 -4.47699 2.92351 0
M  V30 9002 H 861.651 -3.95754 1.29169 0
M  V30 9003 H 862.184 -2.95504 2.66313 0
M  V30 9004 H 858.923 -3.34939 5.63468 0
M  V30 9005 H 858.443 -4.28305 4.19898 0
M  V30 9006 H 860.122 -4.34977 4.78961 0
M  V30 9007 N 860.254 -1.20106 -1.0204 0
M  V30 9008 C 861.531 -0.918029 -1.72718 0
M  V30 9009 C 861.911 0.574163 -2.03142 0
M  V30 9010 O 861.259 1.53476 -1.69285 0
M  V30 9011 C 861.469 -1.78698 -2.9978 0
M  V30 9012 C 862.817 -2.02648 -3.7312 0
M  V30 9013 O 863.841 -1.75919 -3.09727 0
M  V30 9014 O 862.7 -2.47767 -4.87107 0
M  V30 9015 H 859.794 -0.342904 -0.752559 0
M  V30 9016 H 862.34 -1.30961 -1.07923 0
M  V30 9017 H 861.112 -2.79757 -2.7359 0
M  V30 9018 H 860.735 -1.39522 -3.72316 0
M  V30 9019 N 861.732 1.21287 -1.00634 0
M  V30 9020 C 863.143 1.72136 -0.722914 0
M  V30 9021 C 863.494 1.8091 0.759338 0
M  V30 9022 O 862.619 1.46458 1.59308 0
M  V30 9023 C 863.214 3.12633 -1.30561 0
M  V30 9024 C 861.773 3.60833 -1.07127 0
M  V30 9025 C 860.92 2.38326 -1.4176 0
M  V30 9026 H 863.871 1.06445 -1.17708 0
M  V30 9027 H 863.892 3.74174 -0.690937 0
M  V30 9028 H 863.404 3.06215 -2.38441 0
M  V30 9029 H 861.505 3.72599 -0.00968671 0
M  V30 9030 H 861.618 4.46226 -1.74411 0
M  V30 9031 H 859.982 2.40575 -0.836412 0
M  V30 9032 H 860.765 2.34558 -2.50674 0
M  V30 9033 N 863.21 0.781244 1.36873 0
M  V30 9034 C 864.14 0.188128 2.32741 0
M  V30 9035 C 865.121 -0.672326 1.56249 0
M  V30 9036 O 866.306 -0.607835 1.84442 0
M  V30 9037 C 863.436 -0.684341 3.40491 0
M  V30 9038 C 862.39 0.0755641 4.27933 0
M  V30 9039 C 861.716 -0.916968 5.26779 0
M  V30 9040 C 863.016 1.26006 5.06873 0
M  V30 9041 H 864.71 0.989016 2.82593 0
M  V30 9042 H 862.256 0.477038 1.35869 0
M  V30 9043 H 864.209 -1.10915 4.06541 0
M  V30 9044 H 862.933 -1.51785 2.89187 0
M  V30 9045 H 861.592 0.481258 3.63427 0
M  V30 9046 H 861.24 -1.74528 4.71751 0
M  V30 9047 H 860.94 -0.413 5.86147 0
M  V30 9048 H 862.464 -1.34052 5.95703 0
M  V30 9049 H 863.878 0.911425 5.66009 0
M  V30 9050 H 862.275 1.69676 5.75613 0
M  V30 9051 H 863.345 2.05948 4.38991 0
M  V30 9052 N 864.689 -1.48329 0.532571 0
M  V30 9053 C 865.935 -2.028 -0.000583219 0
M  V30 9054 C 866.268 -1.40858 -1.33688 0
M  V30 9055 O 865.543 -0.555261 -1.86406 0
M  V30 9056 C 865.826 -3.59901 -0.119846 0
M  V30 9057 C 865.679 -4.32318 1.2418 0
M  V30 9058 C 866.998 -4.31904 -0.845372 0
M  V30 9059 H 864.117 -0.736999 0.00126205 0
M  V30 9060 H 866.759 -1.77024 0.690102 0
M  V30 9061 H 864.909 -3.81993 -0.708092 0
M  V30 9062 H 866.581 -4.21637 1.87136 0
M  V30 9063 H 864.824 -3.93635 1.82301 0
M  V30 9064 H 865.495 -5.40697 1.11132 0
M  V30 9065 H 867.971 -4.14658 -0.346159 0
M  V30 9066 H 866.847 -5.41509 -0.897723 0
M  V30 9067 H 867.108 -3.99369 -1.89622 0
M  V30 9068 N 866.167 -0.267825 -1.55308 0
M  V30 9069 C 867.395 0.354587 -2.03839 0
M  V30 9070 C 867.81 1.50007 -1.14644 0
M  V30 9071 O 867.167 1.81752 -0.165055 0
M  V30 9072 C 867.218 0.84254 -3.51544 0
M  V30 9073 O 866.939 -0.257318 -4.37344 0
M  V30 9074 C 868.44 1.53351 -4.15931 0
M  V30 9075 H 865.66 0.0818131 -0.665994 0
M  V30 9076 H 868.204 -0.397795 -2.00594 0
M  V30 9077 H 866.359 1.54503 -3.55257 0
M  V30 9078 H 866.773 0.116593 -5.2437 0
M  V30 9079 H 868.247 1.82643 -5.20908 0
M  V30 9080 H 868.724 2.4626 -3.63666 0
M  V30 9081 H 869.33 0.87506 -4.162 0
M  V30 9082 N 867.645 1.57599 0.00500368 0
M  V30 9083 C 868.555 2.11532 1.01446 0
M  V30 9084 C 869.571 1.05941 1.3803 0
M  V30 9085 O 870.747 1.37815 1.46864 0
M  V30 9086 C 867.812 2.60382 2.28915 0
M  V30 9087 C 866.873 3.80554 1.98689 0
M  V30 9088 C 866.106 4.27064 3.20081 0
M  V30 9089 O 866.329 3.72939 4.31593 0
M  V30 9090 O 865.263 5.1927 3.04371 0
M  V30 9091 H 869.089 2.97993 0.586011 0
M  V30 9092 H 866.674 1.47718 0.223519 0
M  V30 9093 H 868.556 2.92024 3.03809 0
M  V30 9094 H 867.231 1.77022 2.71007 0
M  V30 9095 H 866.138 3.53893 1.21286 0
M  V30 9096 H 867.471 4.64972 1.61437 0
M  V30 9097 N 869.123 -0.277682 1.55134 0
M  V30 9098 C 870.351 -1.02826 1.7954 0
M  V30 9099 C 870.766 -1.80105 0.566373 0
M  V30 9100 O 870.123 -1.76491 -0.464448 0
M  V30 9101 C 870.174 -1.99053 3.01762 0
M  V30 9102 O 869.895 -1.24906 4.19917 0
M  V30 9103 C 871.396 -2.85961 3.38735 0
M  V30 9104 H 868.616 -0.303958 0.598206 0
M  V30 9105 H 871.16 -0.309884 2.02138 0
M  V30 9106 H 869.315 -2.66359 2.81303 0
M  V30 9107 H 869.729 -1.89725 4.88983 0
M  V30 9108 H 871.203 -3.49286 4.27438 0
M  V30 9109 H 871.68 -3.55486 2.57928 0
M  V30 9110 H 872.286 -2.24152 3.61436 0
M  V30 9111 N 870.601 -1.47988 -0.541979 0
M  V30 9112 C 871.826 -1.59286 -1.32826 0
M  V30 9113 C 872.251 -0.24894 -1.86445 0
M  V30 9114 O 871.609 0.777581 -1.63778 0
M  V30 9115 C 871.657 -2.6334 -2.46343 0
M  V30 9116 O 870.761 -2.19667 -3.49028 0
M  V30 9117 H 870.102 -0.534543 -0.393903 0
M  V30 9118 H 872.632 -1.93885 -0.653427 0
M  V30 9119 H 872.642 -2.84238 -2.92699 0
M  V30 9120 H 871.317 -3.60913 -2.06675 0
M  V30 9121 H 869.894 -2.08932 -3.08872 0
M  V30 9122 N 872.079 0.78992 -1.36375 0
M  V30 9123 C 873.307 1.57873 -1.3373 0
M  V30 9124 C 873.722 1.88624 0.0815544 0
M  V30 9125 O 873.079 1.50085 1.03831 0
M  V30 9126 C 873.13 2.90003 -2.15825 0
M  V30 9127 O 872.851 2.60578 -3.5218 0
M  V30 9128 C 874.352 3.84309 -2.20955 0
M  V30 9129 H 871.572 0.489685 -0.458748 0
M  V30 9130 H 874.116 0.980436 -1.79465 0
M  V30 9131 H 872.271 3.46303 -1.73646 0
M  V30 9132 H 872.685 3.4506 -3.95011 0
M  V30 9133 H 874.159 4.74081 -2.82756 0
M  V30 9134 H 874.636 4.22121 -1.21287 0
M  V30 9135 H 875.242 3.33942 -2.63368 0
M  V30 9136 N 873.557 1.20646 1.01402 0
M  V30 9137 C 874.804 1.01819 1.7504 0
M  V30 9138 C 875.132 -0.449386 1.89237 0
M  V30 9139 O 874.387 -1.34985 1.41695 0
M  V30 9140 C 874.686 1.64991 3.17037 0
M  V30 9141 C 874.352 3.14808 3.22811 0
M  V30 9142 C 873.014 3.55692 3.24094 0
M  V30 9143 C 875.366 4.108 3.2077 0
M  V30 9144 C 872.694 4.9109 3.2101 0
M  V30 9145 C 875.046 5.46147 3.19227 0
M  V30 9146 C 873.71 5.86441 3.18815 0
M  V30 9147 H 872.98 0.372582 0.640518 0
M  V30 9148 H 875.627 1.50108 1.18911 0
M  V30 9149 H 873.932 1.08971 3.76341 0
M  V30 9150 H 875.629 1.47937 3.72714 0
M  V30 9151 H 872.219 2.8224 3.2255 0
M  V30 9152 H 876.403 3.80246 3.18946 0
M  V30 9153 H 871.659 5.21569 3.19023 0
M  V30 9154 H 875.833 6.20272 3.166 0
M  V30 9155 H 873.46 6.91328 3.16179 0
M  V30 9156 N 875.035 -1.20752 1.01276 0
M  V30 9157 C 876.281 -1.90582 0.710627 0
M  V30 9158 C 876.636 -1.7713 -0.751184 0
M  V30 9159 O 875.929 -1.14223 -1.5383 0
M  V30 9160 C 876.123 -3.40808 1.07633 0
M  V30 9161 C 875.952 -3.68878 2.57214 0
M  V30 9162 C 874.722 -3.87805 3.23937 0
M  V30 9163 C 876.92 -3.71753 3.55393 0
M  V30 9164 N 874.902 -4.0336 4.62789 0
M  V30 9165 C 876.273 -3.92686 4.79789 0
M  V30 9166 C 878.328 -3.54697 3.4942 0
M  V30 9167 C 877.031 -3.98332 5.98936 0
M  V30 9168 C 879.057 -3.61612 4.67964 0
M  V30 9169 C 878.419 -3.83014 5.91168 0
M  V30 9170 H 874.518 -0.717219 0.311643 0
M  V30 9171 H 877.102 -1.45228 1.2968 0
M  V30 9172 H 875.273 -3.84923 0.518527 0
M  V30 9173 H 877.005 -3.98096 0.728128 0
M  V30 9174 H 873.76 -3.86029 2.74369 0
M  V30 9175 H 874.184 -4.15023 5.34869 0
M  V30 9176 H 878.826 -3.3712 2.55166 0
M  V30 9177 H 876.544 -4.14706 6.93574 0
M  V30 9178 H 880.13 -3.49728 4.64954 0
M  V30 9179 H 879.01 -3.88219 6.81363 0
M  V30 9180 N 876.513 -0.788492 -1.36457 0
M  V30 9181 C 877.445 -0.144208 -2.28746 0
M  V30 9182 C 878.458 0.646009 -1.49434 0
M  V30 9183 O 879.647 0.481344 -1.71888 0
M  V30 9184 C 876.747 0.818869 -3.28858 0
M  V30 9185 C 875.92 0.0789055 -4.37329 0
M  V30 9186 C 874.979 0.957791 -5.1741 0
M  V30 9187 O 874.005 0.415378 -5.67682 0
M  V30 9188 N 875.207 2.28216 -5.33758 0
M  V30 9189 H 877.972 -0.936949 -2.84678 0
M  V30 9190 H 875.533 -0.642317 -1.48613 0
M  V30 9191 H 877.525 1.41065 -3.79319 0
M  V30 9192 H 876.095 1.51249 -2.73573 0
M  V30 9193 H 875.315 -0.693939 -3.88044 0
M  V30 9194 H 876.603 -0.431753 -5.06965 0
M  V30 9195 H 876.001 2.747 -4.94527 0
M  V30 9196 H 874.558 2.8236 -5.87466 0
M  V30 9197 N 877.991 1.48044 -0.54043 0
M  V30 9198 C 878.939 2.31461 0.229862 0
M  V30 9199 C 879.933 1.41884 0.925495 0
M  V30 9200 O 881.139 1.58736 0.848689 0
M  V30 9201 H 877.514 0.746227 0.0929975 0
M  V30 9202 H 879.485 2.94297 -0.493118 0
M  V30 9203 C 878.234 3.24172 1.25729 0
M  V30 9204 H 877.557 3.93052 0.731426 0
M  V30 9205 H 878.997 3.85404 1.76747 0
M  V30 9206 C 877.456 2.4651 2.2964 0
M  V30 9207 O 877.986 2.19742 3.36268 0
M  V30 9208 N 876.192 2.07817 2.03127 0
M  V30 9209 H 875.739 2.29786 1.1643 0
M  V30 9210 H 875.697 1.56168 2.72872 0
M  V30 9211 N 879.47 0.276058 1.55163 0
M  V30 9212 C 880.42 -0.625549 2.19251 0
M  V30 9213 C 881.404 -1.11769 1.15744 0
M  V30 9214 O 882.596 -1.0626 1.41555 0
M  V30 9215 C 879.725 -1.80879 2.91784 0
M  V30 9216 C 878.811 -1.33379 4.0258 0
M  V30 9217 N 879.202 -0.575002 5.02521 0
M  V30 9218 C 877.5 -1.61666 4.15668 0
M  V30 9219 C 878.201 -0.325164 5.8079 0
M  V30 9220 N 877.177 -0.897851 5.36134 0
M  V30 9221 H 880.979 -0.0379943 2.93875 0
M  V30 9222 H 878.493 0.079661 1.62205 0
M  V30 9223 H 880.49 -2.466 3.36146 0
M  V30 9224 H 879.15 -2.40028 2.1867 0
M  V30 9225 H 880.161 -0.222256 5.17423 0
M  V30 9226 H 876.838 -2.21745 3.53745 0
M  V30 9227 H 878.228 0.282598 6.71305 0
M  V30 9228 N 880.948 -1.576 0.00335426 0
M  V30 9229 C 882.196 -1.90336 -0.679446 0
M  V30 9230 C 882.517 -0.877777 -1.74127 0
M  V30 9231 O 881.787 0.0843585 -1.95718 0
M  V30 9232 H 880.367 -0.702509 -0.253948 0
M  V30 9233 H 883.029 -1.94848 0.0450731 0
M  V30 9234 H 882.125 -2.90197 -1.14857 0
M  V30 9235 N 882.426 0.269451 -1.5528 0
M  V30 9236 C 883.336 1.35511 -1.91505 0
M  V30 9237 C 884.352 1.53854 -0.812712 0
M  V30 9238 O 885.528 1.67912 -1.1121 0
M  V30 9239 C 882.593 2.6937 -2.18267 0
M  V30 9240 C 881.654 2.59743 -3.41807 0
M  V30 9241 C 880.887 3.87219 -3.67283 0
M  V30 9242 O 881.11 4.88066 -2.95208 0
M  V30 9243 O 880.044 3.87209 -4.60818 0
M  V30 9244 H 883.87 1.07785 -2.8393 0
M  V30 9245 H 881.455 0.468282 -1.41871 0
M  V30 9246 H 883.337 3.48513 -2.36889 0
M  V30 9247 H 882.012 2.96874 -1.29024 0
M  V30 9248 H 880.919 1.78964 -3.28516 0
M  V30 9249 H 882.252 2.37188 -4.3128 0
M  V30 9250 N 883.904 1.48273 0.534124 0
M  V30 9251 C 885.129 1.59988 1.31979 0
M  V30 9252 C 885.554 0.258824 1.86311 0
M  V30 9253 O 884.912 -0.768885 1.64188 0
M  V30 9254 C 884.96 2.64642 2.44943 0
M  V30 9255 O 884.064 2.21515 3.47858 0
M  V30 9256 H 883.405 0.536625 0.391063 0
M  V30 9257 H 885.935 1.94229 0.643135 0
M  V30 9258 H 885.945 2.85786 2.91187 0
M  V30 9259 H 884.62 3.62004 2.04758 0
M  V30 9260 H 883.197 2.10567 3.0776 0
M  V30 9261 N 885.382 -0.782676 1.36792 0
M  V30 9262 C 886.33 -1.91698 1.31737 0
M  V30 9263 C 887.324 -1.68118 0.207994 0
M  V30 9264 O 888.53 -1.76042 0.375393 0
M  V30 9265 H 884.905 -0.630215 0.410284 0
M  V30 9266 H 886.876 -1.93078 2.27516 0
M  V30 9267 C 885.625 -3.28816 1.13029 0
M  V30 9268 H 884.948 -3.4753 1.97643 0
M  V30 9269 H 886.388 -4.08515 1.13541 0
M  V30 9270 C 884.847 -3.36497 -0.1647 0
M  V30 9271 O 885.377 -3.84822 -1.15216 0
M  V30 9272 N 883.583 -2.89828 -0.211678 0
M  V30 9273 H 883.13 -2.50693 0.59252 0
M  V30 9274 H 883.088 -2.95349 -1.07779 0
M  V30 9275 N 886.86 -1.21182 -1.00761 0
M  V30 9276 C 888.137 -0.936297 -1.71735 0
M  V30 9277 C 888.517 0.552585 -2.03739 0
M  V30 9278 O 887.865 1.51672 -1.70903 0
M  V30 9279 C 888.075 -1.81867 -2.97868 0
M  V30 9280 C 889.423 -2.06594 -3.7095 0
M  V30 9281 O 890.447 -1.79194 -3.07844 0
M  V30 9282 O 889.306 -2.5292 -4.84452 0
M  V30 9283 H 886.4 -0.350867 -0.74888 0
M  V30 9284 H 888.946 -1.32098 -1.06527 0
M  V30 9285 H 887.718 -2.82643 -2.70607 0
M  V30 9286 H 887.341 -1.43463 -3.70815 0
M  V30 9287 N 888.338 1.20213 -1.01915 0
M  V30 9288 C 889.584 1.89928 -0.711007 0
M  V30 9289 C 889.917 1.7881 0.75767 0
M  V30 9290 O 889.192 1.17399 1.55073 0
M  V30 9291 C 889.475 3.41225 -1.15053 0
M  V30 9292 C 889.328 3.61264 -2.67971 0
M  V30 9293 C 890.647 4.34108 -0.72377 0
M  V30 9294 H 887.766 0.689702 -0.259768 0
M  V30 9295 H 890.408 1.41557 -1.26734 0
M  V30 9296 H 888.558 3.82552 -0.677199 0
M  V30 9297 H 890.23 3.29173 -3.23176 0
M  V30 9298 H 888.473 3.04647 -3.08824 0
M  V30 9299 H 889.144 4.67331 -2.93779 0
M  V30 9300 H 891.62 4.00442 -1.13073 0
M  V30 9301 H 890.496 5.38581 -1.05931 0
M  V30 9302 H 890.757 4.40512 0.374424 0
M  V30 9303 N 889.816 0.795718 1.36037 0
M  V30 9304 C 891.093 0.294743 1.93367 0
M  V30 9305 C 891.473 -1.21406 1.72696 0
M  V30 9306 O 890.821 -2.00849 1.08959 0
M  V30 9307 C 891.031 0.694254 3.42025 0
M  V30 9308 C 892.379 0.677566 4.19159 0
M  V30 9309 O 893.403 0.635119 3.50492 0
M  V30 9310 O 892.262 0.726127 5.41655 0
M  V30 9311 H 889.356 0.0745459 0.823633 0
M  V30 9312 H 891.902 0.878685 1.4518 0
M  V30 9313 H 890.674 1.73458 3.50753 0
M  V30 9314 H 890.297 0.0845338 3.9751 0
M  V30 9315 N 891.294 -1.47756 0.548274 0
M  V30 9316 C 892.705 -1.8636 0.112547 0
M  V30 9317 C 893.056 -1.45589 -1.31523 0
M  V30 9318 O 892.181 -0.854874 -1.98799 0
M  V30 9319 C 892.776 -3.38224 0.197473 0
M  V30 9320 C 891.335 -3.75954 -0.183163 0
M  V30 9321 C 890.482 -2.7181 0.549059 0
M  V30 9322 H 893.433 -1.394 0.758506 0
M  V30 9323 H 893.454 -3.75957 -0.586217 0
M  V30 9324 H 892.966 -3.67868 1.23673 0
M  V30 9325 H 891.067 -3.51926 -1.22387 0
M  V30 9326 H 891.18 -4.78801 0.169178 0
M  V30 9327 H 889.544 -2.54699 -0.00682862 0
M  V30 9328 H 890.327 -3.04296 1.5893 0
M  V30 9329 N 892.772 -0.284283 -1.55015 0
M  V30 9330 C 893.735 0.586182 -2.21577 0
M  V30 9331 C 894.735 1.07427 -1.1965 0
M  V30 9332 O 895.925 0.972977 -1.44495 0
M  V30 9333 C 893.057 1.80973 -2.88897 0
M  V30 9334 H 894.25 0.00487253 -2.999 0
M  V30 9335 H 891.803 -0.0349696 -1.56261 0
M  V30 9336 H 892.538 2.43131 -2.14611 0
M  V30 9337 H 892.323 1.46757 -3.636 0
M  V30 9338 H 893.813 2.42853 -3.39724 0
M  V30 9339 N 894.251 1.57596 -0.0117121 0
M  V30 9340 C 895.476 1.95764 0.684938 0
M  V30 9341 C 895.901 0.887285 1.65858 0
M  V30 9342 O 895.259 -0.153508 1.80649 0
M  V30 9343 C 895.307 3.33031 1.38285 0
M  V30 9344 O 894.411 3.28163 2.49765 0
M  V30 9345 H 893.752 0.638767 0.181309 0
M  V30 9346 H 896.282 2.04486 -0.0683883 0
M  V30 9347 H 896.292 3.68866 1.74362 0
M  V30 9348 H 894.967 4.10483 0.669043 0
M  V30 9349 H 893.544 3.04021 2.15929 0
M  V30 9350 N 895.729 -0.261212 1.5542 0
M  V30 9351 C 896.978 -0.989072 1.75785 0
M  V30 9352 C 897.291 -1.8702 0.572961 0
M  V30 9353 O 898.497 -2.63374 0.659289 0
M  V30 9354 C 896.953 -1.80857 3.11157 0
M  V30 9355 C 896.561 -0.975535 4.3725 0
M  V30 9356 C 898.305 -2.53003 3.40866 0
M  V30 9357 C 896.212 -1.7901 5.63657 0
M  V30 9358 H 895.142 -0.373019 0.655266 0
M  V30 9359 H 897.793 -0.244267 1.81867 0
M  V30 9360 H 896.175 -2.59479 2.99144 0
M  V30 9361 H 897.349 -0.232661 4.60212 0
M  V30 9362 H 895.664 -0.368083 4.1477 0
M  V30 9363 H 898.261 -3.14372 4.32521 0
M  V30 9364 H 898.604 -3.23891 2.61535 0
M  V30 9365 H 899.137 -1.81403 3.54031 0
M  V30 9366 H 895.876 -1.12522 6.4577 0
M  V30 9367 H 895.396 -2.50863 5.44819 0
M  V30 9368 H 897.075 -2.36082 6.0239 0
M  V30 9369 N 897.207 -1.48554 -0.526253 0
M  V30 9370 C 898.139 -1.59446 -1.6465 0
M  V30 9371 C 899.152 -0.478525 -1.55608 0
M  V30 9372 O 900.341 -0.74953 -1.62001 0
M  V30 9373 C 897.441 -1.51164 -3.03319 0
M  V30 9374 C 896.614 -2.77861 -3.37805 0
M  V30 9375 C 895.673 -2.62982 -4.5577 0
M  V30 9376 O 894.699 -3.36876 -4.58806 0
M  V30 9377 N 895.901 -1.72847 -5.5417 0
M  V30 9378 H 898.666 -2.56055 -1.55743 0
M  V30 9379 H 896.227 -1.45325 -0.713606 0
M  V30 9380 H 898.219 -1.389 -3.80117 0
M  V30 9381 H 896.789 -0.625147 -3.06285 0
M  V30 9382 H 896.009 -3.04663 -2.50149 0
M  V30 9383 H 897.297 -3.61908 -3.57632 0
M  V30 9384 H 896.695 -1.12022 -5.54498 0
M  V30 9385 H 895.252 -1.6652 -6.3017 0
M  V30 9386 N 898.685 0.775411 -1.37205 0
M  V30 9387 C 899.913 1.56446 -1.35397 0
M  V30 9388 C 900.328 1.887 0.0615437 0
M  V30 9389 O 899.685 1.51178 1.02233 0
M  V30 9390 C 899.736 2.87697 -2.18889 0
M  V30 9391 O 899.457 2.56828 -3.54924 0
M  V30 9392 C 900.958 3.81944 -2.25019 0
M  V30 9393 H 898.178 0.484792 -0.463916 0
M  V30 9394 H 900.722 0.961346 -1.80495 0
M  V30 9395 H 898.877 3.44442 -1.7731 0
M  V30 9396 H 899.291 3.40851 -3.98649 0
M  V30 9397 H 900.765 4.71055 -2.87769 0
M  V30 9398 H 901.242 4.20811 -1.25757 0
M  V30 9399 H 901.848 3.3113 -2.66895 0
M  V30 9400 N 900.163 1.21714 1.00117 0
M  V30 9401 C 901.073 0.99597 2.12409 0
M  V30 9402 C 902.089 -0.0531431 1.73919 0
M  V30 9403 O 903.265 0.137757 2.00928 0
M  V30 9404 C 900.33 0.567593 3.42022 0
M  V30 9405 C 899.391 1.68936 3.94663 0
M  V30 9406 C 898.624 1.28133 5.1809 0
M  V30 9407 O 898.847 0.156574 5.70185 0
M  V30 9408 O 897.781 2.0947 5.64275 0
M  V30 9409 H 901.607 1.93657 2.33946 0
M  V30 9410 H 899.192 1.00236 1.10784 0
M  V30 9411 H 901.074 0.338664 4.20037 0
M  V30 9412 H 899.749 -0.34424 3.21864 0
M  V30 9413 H 898.656 1.97274 3.17858 0
M  V30 9414 H 899.989 2.57876 4.19238 0
M  V30 9415 N 901.641 -1.19671 1.02551 0
M  V30 9416 C 902.887 -1.89548 0.721069 0
M  V30 9417 C 903.22 -1.79209 -0.748176 0
M  V30 9418 O 902.495 -1.1822 -1.54448 0
M  V30 9419 C 902.778 -3.4061 1.16861 0
M  V30 9420 C 902.631 -3.59838 2.69883 0
M  V30 9421 C 903.95 -4.33718 0.746782 0
M  V30 9422 H 901.069 -0.688315 0.263422 0
M  V30 9423 H 903.711 -1.40883 1.27483 0
M  V30 9424 H 901.861 -3.82188 0.697477 0
M  V30 9425 H 903.533 -3.27454 3.24917 0
M  V30 9426 H 901.776 -3.03005 3.10435 0
M  V30 9427 H 902.447 -4.65766 2.96253 0
M  V30 9428 H 904.923 -3.99837 1.15195 0
M  V30 9429 H 903.799 -5.38012 1.08786 0
M  V30 9430 H 904.06 -4.40704 -0.351057 0
M  V30 9431 N 903.119 -0.802921 -1.35613 0
M  V30 9432 C 904.366 -0.381576 -1.98872 0
M  V30 9433 C 904.694 1.0503 -1.63704 0
M  V30 9434 O 903.949 1.7427 -0.890418 0
M  V30 9435 C 904.248 -0.507806 -3.53774 0
M  V30 9436 C 903.914 -1.90245 -4.088 0
M  V30 9437 C 902.576 -2.28401 -4.2354 0
M  V30 9438 C 904.928 -2.81504 -4.3864 0
M  V30 9439 C 902.256 -3.57192 -4.65436 0
M  V30 9440 C 904.608 -4.09737 -4.81973 0
M  V30 9441 C 903.272 -4.47897 -4.94919 0
M  V30 9442 H 902.542 -0.139629 -0.727726 0
M  V30 9443 H 905.189 -1.023 -1.61886 0
M  V30 9444 H 903.494 0.21708 -3.91198 0
M  V30 9445 H 905.191 -0.162625 -4.0067 0
M  V30 9446 H 901.781 -1.596 -3.97776 0
M  V30 9447 H 905.965 -2.53276 -4.26808 0
M  V30 9448 H 901.221 -3.86611 -4.73648 0
M  V30 9449 H 905.395 -4.80555 -5.04024 0
M  V30 9450 H 903.022 -5.47747 -5.27141 0
M  V30 9451 N 904.597 1.47463 -0.556102 0
M  V30 9452 C 906.013 1.58134 -0.21579 0
M  V30 9453 C 906.213 1.55486 1.28166 0
M  V30 9454 O 905.269 1.45768 2.06174 0
M  V30 9455 C 906.582 2.88686 -0.841464 0
M  V30 9456 C 908.13 3.02268 -0.812591 0
M  V30 9457 C 908.605 4.35518 -1.41731 0
M  V30 9458 N 910.096 4.42151 -1.38045 0
M  V30 9459 C 910.831 5.43817 -1.81799 0
M  V30 9460 N 910.327 6.52299 -2.33404 0
M  V30 9461 N 912.12 5.34855 -1.72877 0
M  V30 9462 H 904.271 1.47428 -1.52901 0
M  V30 9463 H 906.534 0.701586 -0.637559 0
M  V30 9464 H 906.24 2.96358 -1.8938 0
M  V30 9465 H 906.114 3.7572 -0.333846 0
M  V30 9466 H 908.501 2.94194 0.231056 0
M  V30 9467 H 908.582 2.16779 -1.35796 0
M  V30 9468 H 908.226 4.44348 -2.46002 0
M  V30 9469 H 908.156 5.19737 -0.847402 0
M  V30 9470 H 910.647 3.64348 -1.00296 0
M  V30 9471 H 910.96 7.26047 -2.64717 0
M  V30 9472 H 909.305 6.53192 -2.37414 0
M  V30 9473 H 912.496 4.49004 -1.32338 0
M  V30 9474 H 912.669 6.13949 -2.07294 0
M  V30 9475 N 906.075 0.2925 1.54862 0
M  V30 9476 C 907.005 -0.580677 2.26165 0
M  V30 9477 C 907.986 -1.14485 1.25806 0
M  V30 9478 O 909.171 -1.17577 1.54562 0
M  V30 9479 C 906.301 -1.75668 2.99596 0
M  V30 9480 C 905.255 -1.32325 4.07031 0
M  V30 9481 C 904.581 -2.58374 4.68131 0
M  V30 9482 C 905.881 -0.460703 5.20264 0
M  V30 9483 H 907.575 0.0140075 2.99397 0
M  V30 9484 H 905.121 0.00817706 1.43998 0
M  V30 9485 H 907.074 -2.37356 3.48195 0
M  V30 9486 H 905.798 -2.37747 2.23928 0
M  V30 9487 H 904.457 -0.729477 3.59269 0
M  V30 9488 H 904.105 -3.18749 3.89112 0
M  V30 9489 H 903.805 -2.30078 5.40683 0
M  V30 9490 H 905.329 -3.2088 5.19489 0
M  V30 9491 H 906.743 -0.983037 5.64809 0
M  V30 9492 H 905.14 -0.271881 5.99484 0
M  V30 9493 H 906.21 0.516304 4.82143 0
M  V30 9494 N 907.553 -1.57587 0.0200696 0
M  V30 9495 C 908.964 -1.79312 -0.520019 0
M  V30 9496 C 909.315 -0.929475 -1.72787 0
M  V30 9497 O 908.44 -0.137389 -2.15963 0
M  V30 9498 C 909.035 -3.25203 -0.950172 0
M  V30 9499 C 907.594 -3.47954 -1.43543 0
M  V30 9500 C 906.741 -2.74459 -0.395917 0
M  V30 9501 H 909.692 -1.56779 0.246153 0
M  V30 9502 H 909.713 -3.34418 -1.81508 0
M  V30 9503 H 909.225 -3.88035 -0.070883 0
M  V30 9504 H 907.326 -2.90363 -2.33495 0
M  V30 9505 H 907.439 -4.56661 -1.44905 0
M  V30 9506 H 905.803 -2.39669 -0.862022 0
M  V30 9507 H 906.586 -3.40001 0.47475 0
M  V30 9508 N 909.032 0.252966 -1.55557 0
M  V30 9509 C 910.257 1.0038 -1.8149 0
M  V30 9510 C 910.682 1.78397 -0.596318 0
M  V30 9511 O 910.04 1.7551 0.454535 0
M  V30 9512 C 910.088 1.9222 -3.05096 0
M  V30 9513 O 909.192 3.01302 -2.81587 0
M  V30 9514 H 908.533 0.285949 -0.599274 0
M  V30 9515 H 911.063 0.275795 -2.02733 0
M  V30 9516 H 911.073 2.338 -3.34368 0
M  V30 9517 H 909.748 1.34852 -3.93431 0
M  V30 9518 H 908.325 2.63894 -2.63466 0
M  V30 9519 N 910.51 1.48831 0.518367 0
M  V30 9520 C 911.738 1.6112 1.298 0
M  V30 9521 C 912.153 0.275872 1.86774 0
M  V30 9522 O 911.51 -0.736416 1.66983 0
M  V30 9523 C 911.561 2.66675 2.44063 0
M  V30 9524 O 911.282 3.95027 1.89434 0
M  V30 9525 C 912.783 2.8951 3.35706 0
M  V30 9526 H 910.003 0.542916 0.394314 0
M  V30 9527 H 912.547 1.94743 0.624142 0
M  V30 9528 H 910.702 2.35879 3.07311 0
M  V30 9529 H 911.116 4.53031 2.64316 0
M  V30 9530 H 912.59 3.67142 4.12202 0
M  V30 9531 H 913.067 1.98768 3.91648 0
M  V30 9532 H 913.673 3.21656 2.7824 0
M  V30 9533 N 911.988 -0.768124 1.37614 0
M  V30 9534 C 913.228 -1.53979 1.34424 0
M  V30 9535 C 913.592 -1.91874 -0.0696803 0
M  V30 9536 O 914.793 -2.67845 -0.22633 0
M  V30 9537 C 913.064 -2.76845 2.26034 0
M  V30 9538 S 914.623 -3.66871 2.4073 0
M  V30 9539 H 911.441 -0.527108 0.477157 0
M  V30 9540 H 914.043 -0.902945 1.73399 0
M  V30 9541 H 912.747 -2.47091 3.2768 0
M  V30 9542 H 912.278 -3.45486 1.88157 0
M  V30 9543 H 914.293 -4.6899 1.62057 0
M  V30 9544 N 913.466 -1.22244 -0.994698 0
M  V30 9545 C 914.713 -1.04591 -1.73398 0
M  V30 9546 C 915.041 0.419223 -1.89928 0
M  V30 9547 O 914.296 1.32714 -1.43824 0
M  V30 9548 C 914.595 -1.70014 -3.14372 0
M  V30 9549 C 914.261 -3.19903 -3.17762 0
M  V30 9550 C 912.923 -3.60803 -3.18394 0
M  V30 9551 C 915.275 -4.15851 -3.14194 0
M  V30 9552 C 912.603 -4.96135 -3.13157 0
M  V30 9553 C 914.955 -5.51157 -3.10498 0
M  V30 9554 C 913.619 -5.91439 -3.09445 0
M  V30 9555 H 912.889 -0.382725 -0.63451 0
M  V30 9556 H 915.536 -1.51981 -1.16508 0
M  V30 9557 H 913.841 -1.14945 -3.7456 0
M  V30 9558 H 915.538 -1.53848 -3.70313 0
M  V30 9559 H 912.128 -2.87336 -3.18019 0
M  V30 9560 H 916.312 -3.85272 -3.12857 0
M  V30 9561 H 911.568 -5.26578 -3.10685 0
M  V30 9562 H 915.742 -6.2523 -3.06692 0
M  V30 9563 H 913.369 -6.96271 -3.05141 0
M  V30 9564 N 914.944 1.19125 -1.03184 0
M  V30 9565 C 915.907 2.20662 -0.619766 0
M  V30 9566 C 916.907 1.57621 0.318179 0
M  V30 9567 O 918.097 1.73885 0.104783 0
M  V30 9568 C 915.229 3.40774 0.0926696 0
M  V30 9569 H 916.422 2.58633 -1.5182 0
M  V30 9570 H 913.975 1.32855 -0.823364 0
M  V30 9571 H 914.71 3.08324 1.00531 0
M  V30 9572 H 914.495 3.87766 -0.581344 0
M  V30 9573 H 915.985 4.15977 0.367792 0
M  V30 9574 N 916.422 0.810101 1.35185 0
M  V30 9575 C 917.332 0.224565 2.33523 0
M  V30 9576 C 918.348 -0.634287 1.62027 0
M  V30 9577 O 919.524 -0.545211 1.9388 0
M  V30 9578 C 916.589 -0.614319 3.41214 0
M  V30 9579 C 915.65 0.265435 4.28479 0
M  V30 9580 C 914.883 -0.533506 5.31027 0
M  V30 9581 O 915.106 -1.7679 5.42311 0
M  V30 9582 O 914.04 0.0774573 6.0185 0
M  V30 9583 H 917.866 1.03815 2.85405 0
M  V30 9584 H 915.451 0.571964 1.38018 0
M  V30 9585 H 917.333 -1.09201 4.07005 0
M  V30 9586 H 916.008 -1.40545 2.91597 0
M  V30 9587 H 914.915 0.790343 3.65656 0
M  V30 9588 H 916.248 1.0206 4.81503 0
M  V30 9589 N 917.9 -1.47166 0.563914 0
M  V30 9590 C 918.81 -2.33885 -0.182977 0
M  V30 9591 C 919.826 -1.48605 -0.905132 0
M  V30 9592 O 921.002 -1.81518 -0.872527 0
M  V30 9593 C 918.067 -3.25433 -1.19558 0
M  V30 9594 C 917.128 -4.26607 -0.480129 0
M  V30 9595 C 916.361 -5.1378 -1.44449 0
M  V30 9596 O 916.584 -5.03531 -2.67979 0
M  V30 9597 O 915.518 -5.94109 -0.965321 0
M  V30 9598 H 919.344 -2.99065 0.528544 0
M  V30 9599 H 916.929 -1.45834 0.324468 0
M  V30 9600 H 918.811 -3.81964 -1.77993 0
M  V30 9601 H 917.486 -2.62873 -1.8889 0
M  V30 9602 H 916.393 -3.73817 0.145583 0
M  V30 9603 H 917.726 -4.919 0.171868 0
M  V30 9604 N 919.378 -0.300708 -1.54705 0
M  V30 9605 C 920.655 0.361757 -1.92226 0
M  V30 9606 C 921.035 1.71714 -1.2279 0
M  V30 9607 O 920.383 2.2559 -0.363542 0
M  V30 9608 C 920.593 0.476699 -3.45729 0
M  V30 9609 C 921.941 0.7477 -4.17965 0
M  V30 9610 O 922.965 0.560521 -3.51762 0
M  V30 9611 O 921.824 1.10724 -5.35166 0
M  V30 9612 H 918.918 0.202213 -0.801897 0
M  V30 9613 H 921.464 -0.348746 -1.66078 0
M  V30 9614 H 920.236 -0.476132 -3.88392 0
M  V30 9615 H 919.859 1.23568 -3.77911 0
M  V30 9616 N 920.856 1.57574 -0.0284266 0
M  V30 9617 C 922.104 1.91393 0.649079 0
M  V30 9618 C 922.425 0.905368 1.72708 0
M  V30 9619 O 921.695 -0.0532107 1.95828 0
M  V30 9620 H 920.275 0.70646 0.24274 0
M  V30 9621 H 922.937 1.94752 -0.076066 0
M  V30 9622 H 922.033 2.91988 1.10226 0
M  V30 9623 N 922.334 -0.244713 1.55689 0
M  V30 9624 C 923.559 -0.994157 1.8202 0
M  V30 9625 C 923.984 -1.78079 0.60577 0
M  V30 9626 O 923.342 -1.75748 -0.445221 0
M  V30 9627 C 923.39 -1.90599 3.06111 0
M  V30 9628 O 922.494 -2.99804 2.8318 0
M  V30 9629 H 921.835 -0.282767 0.600782 0
M  V30 9630 H 924.365 -0.26504 2.02876 0
M  V30 9631 H 924.375 -2.32023 3.35603 0
M  V30 9632 H 923.05 -1.32763 3.9414 0
M  V30 9633 H 921.627 -2.62493 2.64862 0
M  V30 9634 N 923.813 -1.49104 -0.510467 0
M  V30 9635 C 925.062 -1.57362 -1.26175 0
M  V30 9636 C 925.375 -0.261218 -1.93848 0
M  V30 9637 O 926.581 -0.222238 -2.70589 0
M  V30 9638 C 925.037 -2.77606 -2.29048 0
M  V30 9639 C 924.645 -4.15567 -1.67357 0
M  V30 9640 C 926.389 -2.95188 -3.05064 0
M  V30 9641 C 924.296 -5.27046 -2.68285 0
M  V30 9642 H 923.226 -0.585887 -0.474608 0
M  V30 9643 H 925.877 -1.75474 -0.536753 0
M  V30 9644 H 924.259 -2.52968 -3.04669 0
M  V30 9645 H 925.433 -4.50304 -0.977924 0
M  V30 9646 H 923.748 -4.03264 -1.03765 0
M  V30 9647 H 926.345 -3.75643 -3.80521 0
M  V30 9648 H 926.688 -2.05385 -3.62108 0
M  V30 9649 H 927.221 -3.19821 -2.36558 0
M  V30 9650 H 923.96 -6.18878 -2.16034 0
M  V30 9651 H 923.48 -4.96774 -3.36118 0
M  V30 9652 H 925.159 -5.55983 -3.30896 0
M  V30 9653 N 925.291 0.760815 -1.38019 0
M  V30 9654 C 926.254 1.85604 -1.34476 0
M  V30 9655 C 927.254 1.58897 -0.24666 0
M  V30 9656 O 928.444 1.66776 -0.50314 0
M  V30 9657 C 925.576 3.22945 -1.09176 0
M  V30 9658 H 926.769 1.90155 -2.31908 0
M  V30 9659 H 924.322 0.961746 -1.23208 0
M  V30 9660 H 925.057 3.24066 -0.123216 0
M  V30 9661 H 924.842 3.43723 -1.88672 0
M  V30 9662 H 926.332 4.03022 -1.09375 0
M  V30 9663 N 926.769 1.22769 0.988202 0
M  V30 9664 C 927.717 0.999271 2.10041 0
M  V30 9665 C 928.711 -0.0591767 1.69297 0
M  V30 9666 O 929.917 0.0936653 1.79756 0
M  V30 9667 H 926.292 0.30599 0.686931 0
M  V30 9668 H 928.263 1.94294 2.26478 0
M  V30 9669 C 927.012 0.59873 3.42506 0
M  V30 9670 H 926.335 1.40487 3.74304 0
M  V30 9671 H 927.775 0.478353 4.21293 0
M  V30 9672 C 926.234 -0.692216 3.29712 0
M  V30 9673 O 926.764 -1.74342 3.61895 0
M  V30 9674 N 924.97 -0.665163 2.82885 0
M  V30 9675 H 924.517 0.190604 2.56894 0
M  V30 9676 H 924.475 -1.52917 2.74706 0
M  V30 9677 N 928.247 -1.18576 1.03814 0
M  V30 9678 C 929.472 -1.92978 0.759873 0
M  V30 9679 C 929.897 -1.75514 -0.676486 0
M  V30 9680 O 929.255 -1.06359 -1.46824 0
M  V30 9681 C 929.303 -3.42507 1.12788 0
M  V30 9682 O 928.407 -4.1163 0.251886 0
M  V30 9683 H 927.748 -0.602129 0.279886 0
M  V30 9684 H 930.278 -1.50383 1.3873 0
M  V30 9685 H 930.288 -3.93206 1.08872 0
M  V30 9686 H 928.963 -3.5454 2.17427 0
M  V30 9687 H 927.54 -3.7125 0.350441 0
M  V30 9688 N 929.725 -0.817259 -1.34754 0
M  V30 9689 C 930.973 -0.401852 -1.98065 0
M  V30 9690 C 931.294 1.03718 -1.65129 0
M  V30 9691 O 930.564 1.71921 -0.939141 0
M  V30 9692 H 929.144 -0.145603 -0.732672 0
M  V30 9693 H 931.806 -1.04545 -1.64488 0
M  V30 9694 H 930.902 -0.516241 -3.07801 0
M  V30 9695 N 931.203 1.46865 -0.571711 0
M  V30 9696 C 932.619 1.57897 -0.23255 0
M  V30 9697 C 932.819 1.56836 1.26509 0
M  V30 9698 O 931.875 1.47947 2.04617 0
M  V30 9699 C 933.188 2.87778 -0.872036 0
M  V30 9700 C 934.736 3.01389 -0.844605 0
M  V30 9701 C 935.211 4.33991 -1.46343 0
M  V30 9702 N 936.702 4.40662 -1.42727 0
M  V30 9703 C 937.437 5.41858 -1.87557 0
M  V30 9704 N 936.933 6.49787 -2.4031 0
M  V30 9705 N 938.726 5.32992 -1.7854 0
M  V30 9706 H 930.877 1.45798 -1.54457 0
M  V30 9707 H 933.14 0.694785 -0.644964 0
M  V30 9708 H 932.846 2.94332 -1.92513 0
M  V30 9709 H 932.72 3.75345 -0.373677 0
M  V30 9710 H 935.107 2.94423 0.19984 0
M  V30 9711 H 935.188 2.15327 -1.38087 0
M  V30 9712 H 934.832 4.41714 -2.50701 0
M  V30 9713 H 934.762 5.18809 -0.902479 0
M  V30 9714 H 937.253 3.63263 -1.04155 0
M  V30 9715 H 937.566 7.23199 -2.72403 0
M  V30 9716 H 935.911 6.50637 -2.44329 0
M  V30 9717 H 939.102 4.47575 -1.37093 0
M  V30 9718 H 939.275 6.11716 -2.13794 0
M  V30 9719 N 932.681 0.308908 1.54543 0
M  V30 9720 C 933.927 -0.291311 2.01303 0
M  V30 9721 C 934.282 -1.50917 1.19339 0
M  V30 9722 O 933.575 -1.89776 0.263724 0
M  V30 9723 C 933.769 -0.691522 3.50646 0
M  V30 9724 C 933.598 0.486007 4.47066 0
M  V30 9725 C 932.368 0.980515 4.95695 0
M  V30 9726 C 934.566 1.33352 4.96711 0
M  V30 9727 N 932.548 2.12398 5.75986 0
M  V30 9728 C 933.919 2.32436 5.74781 0
M  V30 9729 C 935.974 1.36298 4.78881 0
M  V30 9730 C 934.677 3.34252 6.36921 0
M  V30 9731 C 936.703 2.36976 5.41845 0
M  V30 9732 C 936.065 3.34789 6.19755 0
M  V30 9733 H 932.164 -0.0708418 0.778785 0
M  V30 9734 H 934.748 0.440621 1.89649 0
M  V30 9735 H 932.919 -1.39261 3.62575 0
M  V30 9736 H 934.651 -1.27196 3.84192 0
M  V30 9737 H 931.406 0.55419 4.70346 0
M  V30 9738 H 931.83 2.70036 6.20814 0
M  V30 9739 H 936.472 0.620472 4.18222 0
M  V30 9740 H 934.19 4.09417 6.96709 0
M  V30 9741 H 937.776 2.40039 5.29974 0
M  V30 9742 H 936.656 4.11418 6.67611 0
M  V30 9743 N 934.159 -1.57557 0.0367827 0
M  V30 9744 C 935.089 -2.13712 -0.940719 0
M  V30 9745 C 936.07 -1.05515 -1.33419 0
M  V30 9746 O 937.255 -1.33385 -1.41146 0
M  V30 9747 C 934.385 -2.67043 -2.22048 0
M  V30 9748 C 933.339 -3.80096 -1.96752 0
M  V30 9749 C 932.665 -4.19886 -3.31059 0
M  V30 9750 C 933.965 -5.05848 -1.30058 0
M  V30 9751 H 935.659 -2.9564 -0.473033 0
M  V30 9752 H 933.205 -1.42214 -0.226089 0
M  V30 9753 H 935.158 -3.04964 -2.90818 0
M  V30 9754 H 933.882 -1.82287 -2.70996 0
M  V30 9755 H 932.541 -3.42625 -1.30398 0
M  V30 9756 H 932.189 -3.32101 -3.77781 0
M  V30 9757 H 931.889 -4.96073 -3.14937 0
M  V30 9758 H 933.413 -4.60395 -4.01084 0
M  V30 9759 H 934.827 -5.41306 -1.8884 0
M  V30 9760 H 933.224 -5.87084 -1.24309 0
M  V30 9761 H 934.294 -4.84122 -0.274591 0
M  V30 9762 N 935.637 0.236453 -1.55816 0
M  V30 9763 C 936.569 1.31602 -1.87653 0
M  V30 9764 C 937.582 1.43782 -0.763584 0
M  V30 9765 O 938.771 1.44945 -1.04178 0
M  V30 9766 C 935.871 2.69342 -2.05689 0
M  V30 9767 C 935.044 2.79298 -3.36617 0
M  V30 9768 C 934.103 3.97952 -3.44268 0
M  V30 9769 O 933.129 3.86989 -4.17406 0
M  V30 9770 N 934.331 5.11594 -2.74321 0
M  V30 9771 H 937.096 1.04623 -2.80845 0
M  V30 9772 H 934.657 0.426534 -1.5618 0
M  V30 9773 H 936.649 3.47074 -2.08138 0
M  V30 9774 H 935.219 2.88984 -1.19192 0
M  V30 9775 H 934.439 1.8816 -3.46395 0
M  V30 9776 H 935.727 2.82908 -4.22895 0
M  V30 9777 H 935.125 5.23394 -2.14651 0
M  V30 9778 H 933.682 5.87422 -2.8245 0
M  V30 9779 N 937.115 1.49373 0.502552 0
M  V30 9780 C 938.361 1.5999 1.25597 0
M  V30 9781 C 938.716 0.282287 1.90318 0
M  V30 9782 O 938.009 -0.71735 1.77664 0
M  V30 9783 C 938.203 2.69508 2.34735 0
M  V30 9784 C 938.032 4.11791 1.80716 0
M  V30 9785 C 936.802 4.78598 1.62087 0
M  V30 9786 C 939 4.97074 1.31991 0
M  V30 9787 N 936.982 6.05201 1.02981 0
M  V30 9788 C 938.353 6.14144 0.850098 0
M  V30 9789 C 940.408 4.83086 1.20549 0
M  V30 9790 C 939.111 7.18766 0.277192 0
M  V30 9791 C 941.137 5.87855 0.64656 0
M  V30 9792 C 940.499 7.04152 0.186968 0
M  V30 9793 H 936.598 0.639822 0.449613 0
M  V30 9794 H 939.182 1.86371 0.563361 0
M  V30 9795 H 937.353 2.44902 3.01459 0
M  V30 9796 H 939.085 2.69656 3.01774 0
M  V30 9797 H 935.84 4.35372 1.8641 0
M  V30 9798 H 936.264 6.72793 0.753601 0
M  V30 9799 H 940.906 3.93489 1.54681 0
M  V30 9800 H 938.624 8.08064 -0.0763971 0
M  V30 9801 H 942.21 5.79091 0.560832 0
M  V30 9802 H 941.09 7.83836 -0.238784 0
M  V30 9803 N 938.594 -0.753485 1.38421 0
M  V30 9804 C 939.544 -1.85788 1.32162 0
M  V30 9805 C 940.528 -1.59577 0.20588 0
M  V30 9806 O 941.72 -1.71396 0.44186 0
M  V30 9807 C 938.849 -3.23498 1.14909 0
M  V30 9808 C 937.935 -3.556 2.31105 0
M  V30 9809 N 938.326 -3.58759 3.56547 0
M  V30 9810 C 936.624 -3.85866 2.23659 0
M  V30 9811 C 937.325 -3.8813 4.33278 0
M  V30 9812 N 936.301 -4.04966 3.62635 0
M  V30 9813 H 940.103 -1.86509 2.27138 0
M  V30 9814 H 937.617 -0.950843 1.31654 0
M  V30 9815 H 939.614 -4.02531 1.08509 0
M  V30 9816 H 938.274 -3.24029 0.20866 0
M  V30 9817 H 939.285 -3.40517 3.90216 0
M  V30 9818 H 935.962 -3.94112 1.37776 0
M  V30 9819 H 937.352 -3.97197 5.41926 0
M  V30 9820 N 940.072 -1.23292 -0.981677 0
M  V30 9821 C 941.318 -1.07588 -1.72616 0
M  V30 9822 C 941.673 0.383441 -1.8854 0
M  V30 9823 O 940.966 1.28006 -1.42566 0
M  V30 9824 C 941.16 -1.73339 -3.12551 0
M  V30 9825 C 940.989 -3.25514 -3.10275 0
M  V30 9826 C 939.759 -3.9467 -3.15537 0
M  V30 9827 C 941.957 -4.223 -2.93543 0
M  V30 9828 N 939.939 -5.33839 -3.03133 0
M  V30 9829 C 941.31 -5.48373 -2.89287 0
M  V30 9830 C 943.365 -4.1305 -2.78018 0
M  V30 9831 C 942.068 -6.66258 -2.71095 0
M  V30 9832 C 944.094 -5.30598 -2.6119 0
M  V30 9833 C 943.456 -6.55596 -2.57631 0
M  V30 9834 H 939.555 -0.448215 -0.640802 0
M  V30 9835 H 942.139 -1.56001 -1.16498 0
M  V30 9836 H 940.31 -1.2746 -3.6689 0
M  V30 9837 H 942.042 -1.50624 -3.75626 0
M  V30 9838 H 938.797 -3.45741 -3.23666 0
M  V30 9839 H 939.221 -6.06798 -3.00209 0
M  V30 9840 H 943.863 -3.17184 -2.7956 0
M  V30 9841 H 941.581 -7.62261 -2.68297 0
M  V30 9842 H 945.167 -5.25281 -2.50143 0
M  V30 9843 H 944.047 -7.45021 -2.44772 0
M  V30 9844 N 941.55 1.18024 -1.04442 0
M  V30 9845 C 942.497 2.21785 -0.638759 0
M  V30 9846 C 943.467 1.62255 0.355312 0
M  V30 9847 O 944.652 1.89176 0.24844 0
M  V30 9848 C 941.792 3.45098 -0.0118002 0
M  V30 9849 C 940.905 4.1895 -1.05379 0
M  V30 9850 C 940.04 5.2973 -0.394951 0
M  V30 9851 C 939.079 5.95359 -1.42178 0
M  V30 9852 N 938.216 6.97668 -0.787635 0
M  V30 9853 H 943.056 2.55839 -1.52808 0
M  V30 9854 H 940.593 1.25681 -0.764378 0
M  V30 9855 H 942.551 4.15564 0.369075 0
M  V30 9856 H 941.181 3.11652 0.84102 0
M  V30 9857 H 940.233 3.47274 -1.55258 0
M  V30 9858 H 941.545 4.63877 -1.83355 0
M  V30 9859 H 940.699 6.06687 0.0399244 0
M  V30 9860 H 939.438 4.85915 0.416867 0
M  V30 9861 H 938.443 5.17139 -1.86675 0
M  V30 9862 H 939.668 6.41255 -2.23536 0
M  V30 9863 H 937.614 6.56 0.00380893 0
M  V30 9864 H 937.531 7.40867 -1.50505 0
M  V30 9865 H 938.799 7.78586 -0.377282 0
M  V30 9866 N 943.028 0.824394 1.34319 0
M  V30 9867 C 944.276 0.41235 1.97849 0
M  V30 9868 C 944.597 -1.02841 1.65677 0
M  V30 9869 O 943.867 -1.71421 0.948245 0
M  V30 9870 H 942.447 0.149486 0.73189 0
M  V30 9871 H 945.109 1.05416 1.63931 0
M  V30 9872 H 944.205 0.532557 3.07523 0
M  V30 9873 N 944.506 -1.46559 0.579492 0
M  V30 9874 C 945.438 -2.28383 -0.19337 0
M  V30 9875 C 946.451 -1.38324 -0.858511 0
M  V30 9876 O 947.64 -1.62952 -0.728615 0
M  V30 9877 C 944.74 -3.13262 -1.29306 0
M  V30 9878 C 943.913 -4.31426 -0.720459 0
M  V30 9879 C 942.972 -4.97728 -1.70744 0
M  V30 9880 O 941.998 -5.55423 -1.24476 0
M  V30 9881 N 943.2 -4.94445 -3.04146 0
M  V30 9882 H 945.965 -2.95353 0.508611 0
M  V30 9883 H 943.526 -1.56436 0.417046 0
M  V30 9884 H 945.518 -3.54483 -1.95254 0
M  V30 9885 H 944.088 -2.48388 -1.89795 0
M  V30 9886 H 943.308 -3.94028 0.116398 0
M  V30 9887 H 944.596 -5.07808 -0.31763 0
M  V30 9888 H 943.994 -4.4881 -3.44363 0
M  V30 9889 H 942.551 -5.39616 -3.65592 0
M  V30 9890 N 945.984 -0.3171 -1.54377 0
M  V30 9891 C 947.261 0.341348 -1.92598 0
M  V30 9892 C 947.641 1.70402 -1.24605 0
M  V30 9893 O 946.989 2.25191 -0.387448 0
M  V30 9894 C 947.199 0.440003 -3.46215 0
M  V30 9895 C 948.547 0.703327 -4.18734 0
M  V30 9896 O 949.571 0.523181 -3.52337 0
M  V30 9897 O 948.43 1.05042 -5.3631 0
M  V30 9898 H 945.524 0.193696 -0.803997 0
M  V30 9899 H 948.07 -0.366341 -1.65699 0
M  V30 9900 H 946.842 -0.517299 -3.87866 0
M  V30 9901 H 946.465 1.19553 -3.792 0
M  V30 9902 N 947.462 1.57535 -0.0451378 0
M  V30 9903 C 948.425 2.1008 0.916461 0
M  V30 9904 C 949.425 1.01913 1.2438 0
M  V30 9905 O 950.615 1.2801 1.18148 0
M  V30 9906 C 947.747 2.58001 2.22818 0
M  V30 9907 H 948.94 2.96334 0.461076 0
M  V30 9908 H 946.493 1.54974 0.203169 0
M  V30 9909 H 947.228 1.75123 2.72951 0
M  V30 9910 H 947.013 3.3704 2.00366 0
M  V30 9911 H 948.503 2.98822 2.9171 0
M  V30 9912 N 948.94 -0.228186 1.55939 0
M  V30 9913 C 950.351 -0.795734 1.68893 0
M  V30 9914 C 950.702 -1.85261 0.645967 0
M  V30 9915 O 949.827 -2.15434 -0.2042 0
M  V30 9916 C 950.422 -1.45013 3.06197 0
M  V30 9917 C 948.981 -1.96514 3.21028 0
M  V30 9918 C 948.128 -0.822918 2.64808 0
M  V30 9919 H 951.079 -0.0036485 1.587 0
M  V30 9920 H 951.1 -2.31875 3.01685 0
M  V30 9921 H 950.612 -0.680678 3.82084 0
M  V30 9922 H 948.713 -2.76282 2.49998 0
M  V30 9923 H 948.826 -2.14967 4.28166 0
M  V30 9924 H 947.19 -1.22846 2.23116 0
M  V30 9925 H 947.973 -0.0662493 3.43236 0
M  V30 9926 N 950.418 -1.49637 -0.494624 0
M  V30 9927 C 951.666 -1.5913 -1.24587 0
M  V30 9928 C 951.987 -0.282828 -1.92938 0
M  V30 9929 O 951.257 0.69825 -1.83034 0
M  V30 9930 H 949.837 -0.586329 -0.462847 0
M  V30 9931 H 952.499 -1.86296 -0.572696 0
M  V30 9932 H 951.595 -2.3906 -2.00641 0
M  V30 9933 N 951.896 0.746133 -1.38819 0
M  V30 9934 C 952.806 1.89063 -1.38897 0
M  V30 9935 C 953.822 1.71648 -0.28513 0
M  V30 9936 O 954.998 1.94443 -0.524783 0
M  V30 9937 C 952.063 3.24523 -1.22007 0
M  V30 9938 C 951.124 3.54411 -2.42263 0
M  V30 9939 C 950.357 4.83408 -2.26169 0
M  V30 9940 O 950.58 5.56325 -1.25931 0
M  V30 9941 O 949.514 5.12943 -3.14918 0
M  V30 9942 H 953.34 1.91951 -2.35347 0
M  V30 9943 H 950.925 0.892433 -1.19816 0
M  V30 9944 H 952.807 4.05496 -1.14677 0
M  V30 9945 H 951.482 3.2243 -0.286455 0
M  V30 9946 H 950.389 2.73569 -2.55168 0
M  V30 9947 H 951.722 3.61273 -3.3428 0
M  V30 9948 N 953.375 1.23811 0.975125 0
M  V30 9949 C 954.338 1.02505 2.05001 0
M  V30 9950 C 955.338 -0.0150084 1.60793 0
M  V30 9951 O 956.528 0.225246 1.72738 0
M  V30 9952 C 953.66 0.552087 3.364 0
M  V30 9953 H 954.853 1.979 2.25335 0
M  V30 9954 H 952.406 1.05929 1.1493 0
M  V30 9955 H 953.141 -0.405394 3.21756 0
M  V30 9956 H 952.926 1.30267 3.69828 0
M  V30 9957 H 954.416 0.423828 4.15444 0
M  V30 9958 N 954.853 -1.17469 1.05066 0
M  V30 9959 C 956.269 -1.39699 0.771769 0
M  V30 9960 C 956.469 -1.91253 -0.634382 0
M  V30 9961 O 955.525 -2.10334 -1.39699 0
M  V30 9962 C 956.838 -2.38886 1.82631 0
M  V30 9963 C 958.386 -2.52595 1.84838 0
M  V30 9964 C 958.861 -3.55054 2.89311 0
M  V30 9965 N 960.352 -3.6257 2.88266 0
M  V30 9966 C 961.087 -4.41603 3.65752 0
M  V30 9967 N 960.583 -5.24162 4.53019 0
M  V30 9968 N 962.376 -4.36464 3.54197 0
M  V30 9969 H 954.527 -0.823355 1.95792 0
M  V30 9970 H 956.79 -0.42432 0.847736 0
M  V30 9971 H 956.496 -2.08075 2.83545 0
M  V30 9972 H 956.37 -3.38371 1.66687 0
M  V30 9973 H 958.757 -2.82717 0.845888 0
M  V30 9974 H 958.838 -1.53188 2.04859 0
M  V30 9975 H 958.482 -3.2567 3.89745 0
M  V30 9976 H 958.412 -4.54162 2.66542 0
M  V30 9977 H 960.903 -3.03625 2.24989 0
M  V30 9978 H 961.216 -5.81646 5.0883 0
M  V30 9979 H 959.561 -5.23547 4.57081 0
M  V30 9980 H 962.752 -3.7102 2.85416 0
M  V30 9981 H 962.925 -4.97814 4.14832 0
M  V30 9982 N 956.331 -0.831506 -1.3388 0
M  V30 9983 C 957.279 -0.247896 -2.31275 0
M  V30 9984 C 958.273 0.616083 -1.578 0
M  V30 9985 O 959.479 0.506465 -1.72728 0
M  V30 9986 H 955.854 -0.0614293 -0.749487 0
M  V30 9987 H 957.825 -1.08401 -2.78014 0
M  V30 9988 C 956.574 0.568434 -3.43022 0
M  V30 9989 H 955.897 -0.0870654 -3.99705 0
M  V30 9990 H 957.337 0.942751 -4.13386 0
M  V30 9991 C 955.796 1.74431 -2.88228 0
M  V30 9992 O 956.326 2.84278 -2.83811 0
M  V30 9993 N 954.532 1.56382 -2.44935 0
M  V30 9994 H 954.079 0.670255 -2.48727 0
M  V30 9995 H 954.037 2.35208 -2.08625 0
M  V30 9996 N 957.809 1.4625 -0.587256 0
M  V30 9997 C 959.086 1.95599 -0.00750181 0
M  V30 9998 C 959.466 1.52989 1.45457 0
M  V30 9999 O 958.814 0.782731 2.14676 0
M  V30 10000 C 959.024 3.48513 -0.184309 0
M  V30 10001 C 960.372 4.24565 -0.0544972 0
M  V30 10002 O 961.396 3.5602 -0.113378 0
M  V30 10003 O 960.255 5.46445 0.0774075 0
M  V30 10004 H 957.349 0.825649 0.0472495 0
M  V30 10005 H 959.895 1.56512 -0.655893 0
M  V30 10006 H 958.667 3.72428 -1.20053 0
M  V30 10007 H 958.29 3.9444 0.500301 0
M  V30 10008 N 959.287 0.325282 1.54207 0
M  V30 10009 C 960.535 -0.276229 2.00203 0
M  V30 10010 C 960.856 -1.52519 1.21503 0
M  V30 10011 O 960.126 -1.93313 0.317302 0
M  V30 10012 H 958.706 -0.105059 0.739575 0
M  V30 10013 H 961.368 0.442225 1.89817 0
M  V30 10014 H 960.464 -0.531427 3.07542 0
M  V30 10015 N 960.765 -1.57509 0.0534917 0
M  V30 10016 C 961.675 -2.15152 -0.935249 0
M  V30 10017 C 962.691 -1.10991 -1.34003 0
M  V30 10018 O 963.867 -1.43171 -1.41648 0
M  V30 10019 C 960.932 -2.68699 -2.19093 0
M  V30 10020 C 959.993 -3.87666 -1.84428 0
M  V30 10021 C 959.226 -4.3865 -3.0401 0
M  V30 10022 O 959.449 -3.887 -4.17455 0
M  V30 10023 O 958.383 -5.30209 -2.84889 0
M  V30 10024 H 962.209 -2.99962 -0.475009 0
M  V30 10025 H 959.794 -1.48446 -0.16854 0
M  V30 10026 H 961.676 -3.03098 -2.92762 0
M  V30 10027 H 960.351 -1.86958 -2.6425 0
M  V30 10028 H 959.258 -3.58151 -1.08068 0
M  V30 10029 H 960.591 -4.70643 -1.44068 0
M  V30 10030 N 962.243 0.219913 -1.56058 0
M  V30 10031 C 963.492 0.942119 -1.78345 0
M  V30 10032 C 963.805 1.85435 -0.622344 0
M  V30 10033 O 965.011 2.61533 -0.728886 0
M  V30 10034 C 963.467 1.72544 -3.15843 0
M  V30 10035 C 963.075 0.859263 -4.39682 0
M  V30 10036 C 964.819 2.43876 -3.47455 0
M  V30 10037 C 962.726 1.64003 -5.68205 0
M  V30 10038 H 961.656 0.355514 -0.664925 0
M  V30 10039 H 964.307 0.195963 -1.82451 0
M  V30 10040 H 962.689 2.51456 -3.05918 0
M  V30 10041 H 963.863 0.110562 -4.60667 0
M  V30 10042 H 962.178 0.257985 -4.156 0
M  V30 10043 H 964.775 3.02794 -4.40704 0
M  V30 10044 H 965.118 3.16843 -2.7003 0
M  V30 10045 H 965.651 1.71952 -3.58716 0
M  V30 10046 H 962.39 0.953606 -6.48526 0
M  V30 10047 H 961.91 2.3633 -5.51279 0
M  V30 10048 H 963.589 2.20028 -6.08438 0
M  V30 10049 N 963.721 1.49897 0.486681 0
M  V30 10050 C 964.651 1.7054 1.59494 0
M  V30 10051 C 965.632 0.554184 1.60819 0
M  V30 10052 O 966.817 0.791617 1.77333 0
M  V30 10053 C 963.947 1.78517 2.97908 0
M  V30 10054 C 962.901 2.93571 3.11449 0
M  V30 10055 C 962.227 2.86674 4.51356 0
M  V30 10056 C 963.527 4.34308 2.90127 0
M  V30 10057 H 965.221 2.63329 1.42472 0
M  V30 10058 H 962.767 1.2672 0.683969 0
M  V30 10059 H 964.72 1.91544 3.75352 0
M  V30 10060 H 963.444 0.823381 3.16051 0
M  V30 10061 H 962.103 2.80169 2.36433 0
M  V30 10062 H 961.751 1.88373 4.66395 0
M  V30 10063 H 961.451 3.63903 4.61355 0
M  V30 10064 H 962.975 3.01728 5.30841 0
M  V30 10065 H 964.389 4.48317 3.57331 0
M  V30 10066 H 962.786 5.12869 3.11585 0
M  V30 10067 H 963.856 4.47759 1.86119 0
M  V30 10068 N 965.199 -0.738761 1.39212 0
M  V30 10069 C 966.162 -1.83441 1.37412 0
M  V30 10070 C 967.162 -1.58484 0.271908 0
M  V30 10071 O 968.352 -1.65954 0.529609 0
M  V30 10072 C 965.484 -3.21167 1.143 0
M  V30 10073 H 966.677 -1.86441 2.34904 0
M  V30 10074 H 964.23 -0.942023 1.24722 0
M  V30 10075 H 964.965 -3.23829 0.174756 0
M  V30 10076 H 964.75 -3.40678 1.94116 0
M  V30 10077 H 966.24 -4.01231 1.15773 0
M  V30 10078 N 966.677 -1.24326 -0.968545 0
M  V30 10079 C 967.925 -1.08032 -1.70803 0
M  V30 10080 C 968.246 0.381728 -1.91227 0
M  V30 10081 O 967.516 1.27253 -1.48942 0
M  V30 10082 H 966.096 -0.396777 -0.632912 0
M  V30 10083 H 968.758 -1.56232 -1.16523 0
M  V30 10084 H 967.854 -1.57769 -2.69287 0
M  V30 10085 N 968.156 1.1691 -1.05688 0
M  V30 10086 C 969.405 1.86629 -0.765022 0
M  V30 10087 C 969.718 1.82223 0.710918 0
M  V30 10088 O 970.924 2.47462 1.11691 0
M  V30 10089 C 969.38 3.34886 -1.3183 0
M  V30 10090 C 968.988 3.47781 -2.82404 0
M  V30 10091 C 970.732 4.099 -1.10372 0
M  V30 10092 C 968.639 4.9009 -3.31008 0
M  V30 10093 H 967.569 0.699082 -0.282491 0
M  V30 10094 H 970.22 1.31989 -1.27481 0
M  V30 10095 H 968.602 3.89094 -0.736312 0
M  V30 10096 H 969.776 3.03765 -3.46502 0
M  V30 10097 H 968.091 2.86193 -3.02461 0
M  V30 10098 H 970.688 5.14894 -1.4418 0
M  V30 10099 H 971.031 4.16279 -0.0417372 0
M  V30 10100 H 971.564 3.61913 -1.65117 0
M  V30 10101 H 968.303 4.88887 -4.36657 0
M  V30 10102 H 967.823 5.34756 -2.71655 0
M  V30 10103 H 969.502 5.58881 -3.25977 0
M  V30 10104 N 969.634 0.838594 1.33437 0
M  V30 10105 C 970.864 0.446995 2.01707 0
M  V30 10106 C 971.272 -0.956335 1.63251 0
M  V30 10107 O 970.615 -1.63289 0.841566 0
M  V30 10108 C 970.677 0.487707 3.56176 0
M  V30 10109 C 970.341 1.8471 4.18009 0
M  V30 10110 C 971.338 2.81028 4.374 0
M  V30 10111 C 969.023 2.13987 4.54439 0
M  V30 10112 C 971.017 4.04785 4.92369 0
M  V30 10113 C 968.704 3.38 5.09116 0
M  V30 10114 C 969.702 4.33216 5.28027 0
M  V30 10115 O 969.39 5.55036 5.81541 0
M  V30 10116 H 969.122 0.175799 0.652741 0
M  V30 10117 H 971.676 1.13265 1.71348 0
M  V30 10118 H 969.906 -0.254719 3.8586 0
M  V30 10119 H 971.595 0.113971 4.0574 0
M  V30 10120 H 972.361 2.5971 4.09604 0
M  V30 10121 H 968.24 1.40668 4.39014 0
M  V30 10122 H 971.784 4.79114 5.07046 0
M  V30 10123 H 967.681 3.59175 5.36343 0
M  V30 10124 H 968.449 5.56772 5.99956 0
M  V30 10125 N 971.112 -1.45937 0.595003 0
M  V30 10126 C 972.062 -2.27491 -0.152331 0
M  V30 10127 C 973.046 -1.36591 -0.850396 0
M  V30 10128 O 974.238 -1.60675 -0.742462 0
M  V30 10129 C 971.367 -3.23203 -1.15735 0
M  V30 10130 C 970.453 -4.2159 -0.46077 0
M  V30 10131 N 970.844 -5.03416 0.490555 0
M  V30 10132 C 969.142 -4.40313 -0.709949 0
M  V30 10133 C 969.843 -5.74714 0.898825 0
M  V30 10134 N 968.819 -5.43046 0.24529 0
M  V30 10135 H 972.621 -2.8815 0.578526 0
M  V30 10136 H 970.135 -1.56936 0.417716 0
M  V30 10137 H 972.132 -3.8035 -1.70704 0
M  V30 10138 H 970.792 -2.64104 -1.8889 0
M  V30 10139 H 971.803 -5.10597 0.866692 0
M  V30 10140 H 968.48 -3.92351 -1.42713 0
M  V30 10141 H 969.87 -6.50487 1.68273 0
M  V30 10142 N 972.59 -0.333456 -1.54032 0
M  V30 10143 C 973.54 0.543745 -2.21421 0
M  V30 10144 C 974.524 1.07396 -1.19812 0
M  V30 10145 O 975.716 1.00934 -1.45401 0
M  V30 10146 C 972.845 1.69925 -2.98296 0
M  V30 10147 C 971.931 1.18345 -4.07253 0
M  V30 10148 N 972.322 0.388098 -5.04309 0
M  V30 10149 C 970.62 1.46128 -4.21382 0
M  V30 10150 C 971.321 0.109383 -5.81597 0
M  V30 10151 N 970.297 0.69825 -5.39097 0
M  V30 10152 H 974.099 -0.0711018 -2.93814 0
M  V30 10153 H 971.613 -0.139807 -1.61797 0
M  V30 10154 H 973.61 2.33954 -3.45067 0
M  V30 10155 H 972.27 2.31747 -2.27428 0
M  V30 10156 H 973.281 0.0300645 -5.17891 0
M  V30 10157 H 969.958 2.08463 -3.61731 0
M  V30 10158 H 971.348 -0.531554 -6.69794 0
M  V30 10159 N 974.068 1.57479 -0.061844 0
M  V30 10160 C 974.998 2.15181 0.9066 0
M  V30 10161 C 975.979 1.07624 1.31724 0
M  V30 10162 O 977.164 1.35614 1.39006 0
M  V30 10163 C 974.294 2.70542 2.17771 0
M  V30 10164 C 973.248 3.83178 1.9068 0
M  V30 10165 C 972.574 4.25099 3.24337 0
M  V30 10166 C 973.874 5.07853 1.21994 0
M  V30 10167 H 975.568 2.96355 0.42594 0
M  V30 10168 H 973.114 1.42556 0.203435 0
M  V30 10169 H 975.067 3.09552 2.85929 0
M  V30 10170 H 973.791 1.86575 2.68062 0
M  V30 10171 H 972.45 3.44656 1.24931 0
M  V30 10172 H 972.098 3.38069 3.72449 0
M  V30 10173 H 971.798 5.01021 3.07005 0
M  V30 10174 H 973.322 4.66718 3.93709 0
M  V30 10175 H 974.736 5.44242 1.80204 0
M  V30 10176 H 973.133 5.88987 1.14954 0
M  V30 10177 H 974.203 4.84497 0.197536 0
M  V30 10178 N 975.546 -0.211634 1.56173 0
M  V30 10179 C 976.962 -0.56177 1.49386 0
M  V30 10180 C 977.162 -1.86666 0.758813 0
M  V30 10181 O 976.218 -2.50681 0.302534 0
M  V30 10182 C 977.531 -0.631815 2.93987 0
M  V30 10183 C 979.079 -0.721773 3.04564 0
M  V30 10184 C 979.554 -0.823075 4.50544 0
M  V30 10185 N 981.045 -0.887038 4.54627 0
M  V30 10186 C 981.78 -0.985304 5.64871 0
M  V30 10187 N 981.276 -1.0469 6.84844 0
M  V30 10188 N 983.069 -1.02121 5.52746 0
M  V30 10189 H 975.22 0.64452 2.02385 0
M  V30 10190 H 977.483 0.227466 0.920306 0
M  V30 10191 H 977.189 0.257592 3.50755 0
M  V30 10192 H 977.063 -1.4921 3.46433 0
M  V30 10193 H 979.45 -1.60162 2.47855 0
M  V30 10194 H 979.531 0.164385 2.55271 0
M  V30 10195 H 979.175 0.0523511 5.07873 0
M  V30 10196 H 979.105 -1.72479 4.97552 0
M  V30 10197 H 981.596 -0.849352 3.68231 0
M  V30 10198 H 981.909 -1.12193 7.64613 0
M  V30 10199 H 980.254 -1.01586 6.87536 0
M  V30 10200 H 983.445 -0.969814 4.57943 0
M  V30 10201 H 983.618 -1.09434 6.38693 0
M  V30 10202 N 977.024 -1.50153 -0.478725 0
M  V30 10203 C 977.934 -1.71232 -1.60364 0
M  V30 10204 C 978.95 -0.595269 -1.63501 0
M  V30 10205 O 980.126 -0.872683 -1.81511 0
M  V30 10206 C 977.191 -1.79487 -2.96623 0
M  V30 10207 C 976.252 -3.03185 -3.03937 0
M  V30 10208 C 975.485 -3.11036 -4.33696 0
M  V30 10209 O 975.708 -2.2588 -5.23769 0
M  V30 10210 O 974.642 -4.03698 -4.46443 0
M  V30 10211 H 978.468 -2.66575 -1.45505 0
M  V30 10212 H 976.053 -1.34158 -0.65741 0
M  V30 10213 H 977.935 -1.8714 -3.77567 0
M  V30 10214 H 976.61 -0.873264 -3.11698 0
M  V30 10215 H 975.517 -3.01036 -2.22099 0
M  V30 10216 H 976.85 -3.94898 -2.93796 0
M  V30 10217 N 978.502 0.731368 -1.39602 0
M  V30 10218 C 979.432 1.85855 -1.41351 0
M  V30 10219 C 980.413 1.67839 -0.2764 0
M  V30 10220 O 981.598 1.88104 -0.482747 0
M  V30 10221 C 978.728 3.23644 -1.25983 0
M  V30 10222 C 977.682 3.56304 -2.37132 0
M  V30 10223 C 977.008 4.93069 -2.0685 0
M  V30 10224 C 978.308 3.58906 -3.79452 0
M  V30 10225 H 980.002 1.84648 -2.3568 0
M  V30 10226 H 977.548 0.886955 -1.13442 0
M  V30 10227 H 979.501 4.02176 -1.25826 0
M  V30 10228 H 978.225 3.25387 -0.281234 0
M  V30 10229 H 976.884 2.80104 -2.36511 0
M  V30 10230 H 976.532 4.91396 -1.0742 0
M  V30 10231 H 976.232 5.15888 -2.81306 0
M  V30 10232 H 977.756 5.73953 -2.0835 0
M  V30 10233 H 979.17 4.27508 -3.81982 0
M  V30 10234 H 977.567 3.93246 -4.53297 0
M  V30 10235 H 978.637 2.58631 -4.10168 0
M  V30 10236 N 979.98 1.24838 0.961938 0
M  V30 10237 C 981.21 1.11709 1.73795 0
M  V30 10238 C 981.618 -0.33263 1.86253 0
M  V30 10239 O 980.961 -1.24101 1.35443 0
M  V30 10240 C 981.023 1.68959 3.17322 0
M  V30 10241 C 980.687 3.17895 3.28316 0
M  V30 10242 C 981.684 4.14975 3.13196 0
M  V30 10243 C 979.369 3.57966 3.52372 0
M  V30 10244 C 981.363 5.50107 3.21965 0
M  V30 10245 C 979.05 4.93237 3.60778 0
M  V30 10246 C 980.048 5.89116 3.45588 0
M  V30 10247 O 979.736 7.21927 3.53662 0
M  V30 10248 H 979.468 0.390726 0.551642 0
M  V30 10249 H 982.022 1.65541 1.21594 0
M  V30 10250 H 980.252 1.09567 3.70853 0
M  V30 10251 H 981.941 1.51036 3.76753 0
M  V30 10252 H 982.707 3.85359 2.94489 0
M  V30 10253 H 978.586 2.83837 3.63259 0
M  V30 10254 H 982.13 6.24924 3.10025 0
M  V30 10255 H 978.027 5.22522 3.79 0
M  V30 10256 H 978.795 7.29925 3.7034 0
M  V30 10257 N 981.458 -1.16348 1.06306 0
M  V30 10258 C 982.39 -2.20316 0.631929 0
M  V30 10259 C 983.403 -1.59819 -0.310133 0
M  V30 10260 O 984.592 -1.78213 -0.101103 0
M  V30 10261 C 981.692 -3.3877 -0.0937645 0
M  V30 10262 C 980.865 -4.28826 0.861816 0
M  V30 10263 C 979.924 -5.25908 0.175346 0
M  V30 10264 O 978.95 -5.63363 0.813039 0
M  V30 10265 N 980.152 -5.70307 -1.08305 0
M  V30 10266 H 982.917 -2.57925 1.52626 0
M  V30 10267 H 980.478 -1.31358 0.946392 0
M  V30 10268 H 982.47 -4.00759 -0.563412 0
M  V30 10269 H 981.04 -2.99666 -0.889904 0
M  V30 10270 H 980.26 -3.64098 1.51083 0
M  V30 10271 H 981.548 -4.85875 1.51007 0
M  V30 10272 H 980.946 -5.4197 -1.62127 0
M  V30 10273 H 979.503 -6.34387 -1.49656 0
M  V30 10274 N 982.937 -0.845659 -1.3299 0
M  V30 10275 C 984.162 -0.457435 -2.02293 0
M  V30 10276 C 984.587 0.935634 -1.63179 0
M  V30 10277 O 983.945 1.61297 -0.827835 0
M  V30 10278 C 983.993 -0.593665 -3.5568 0
M  V30 10279 O 983.097 0.37729 -4.10671 0
M  V30 10280 H 982.438 -0.185022 -0.637701 0
M  V30 10281 H 984.968 -1.14237 -1.69738 0
M  V30 10282 H 984.978 -0.477834 -4.05192 0
M  V30 10283 H 983.653 -1.60957 -3.83491 0
M  V30 10284 H 982.23 0.218448 -3.7226 0
M  V30 10285 N 984.415 1.45619 -0.602734 0
M  V30 10286 C 985.325 2.34288 0.120902 0
M  V30 10287 C 986.341 1.50952 0.865414 0
M  V30 10288 O 987.517 1.83768 0.824094 0
M  V30 10289 C 984.582 3.28489 1.10888 0
M  V30 10290 C 983.643 4.2773 0.366853 0
M  V30 10291 C 982.876 5.17429 1.30776 0
M  V30 10292 O 983.099 5.10459 2.54535 0
M  V30 10293 O 982.033 5.96459 0.807464 0
M  V30 10294 H 985.859 2.97559 -0.60765 0
M  V30 10295 H 983.444 1.44922 -0.363019 0
M  V30 10296 H 985.326 3.86549 1.67803 0
M  V30 10297 H 984.001 2.67789 1.81854 0
M  V30 10298 H 982.908 3.73299 -0.244643 0
M  V30 10299 H 984.241 4.91271 -0.302226 0
M  V30 10300 N 985.893 0.34162 1.53853 0
M  V30 10301 C 987.141 -0.254979 2.00485 0
M  V30 10302 C 987.462 -1.51222 1.23114 0
M  V30 10303 O 986.732 -1.92966 0.337787 0
M  V30 10304 H 985.312 -0.0972084 0.740648 0
M  V30 10305 H 987.974 0.462332 1.89337 0
M  V30 10306 H 987.07 -0.498778 3.08089 0
M  V30 10307 N 987.371 -1.57444 0.0701946 0
M  V30 10308 C 988.619 -1.93047 -0.598106 0
M  V30 10309 C 988.94 -0.950841 -1.70247 0
M  V30 10310 O 988.21 0.00127177 -1.959 0
M  V30 10311 H 986.79 -0.712648 -0.223924 0
M  V30 10312 H 989.452 -1.94481 0.127674 0
M  V30 10313 H 988.548 -2.94807 -1.02445 0
M  V30 10314 N 988.849 0.203349 -1.56283 0
M  V30 10315 C 989.796 1.25205 -1.93888 0
M  V30 10316 C 990.766 1.45654 -0.798376 0
M  V30 10317 O 991.951 1.58924 -1.05583 0
M  V30 10318 C 989.091 2.59355 -2.27659 0
M  V30 10319 C 988.204 2.46553 -3.54733 0
M  V30 10320 C 987.339 3.73351 -3.77865 0
M  V30 10321 C 986.378 3.55347 -4.98392 0
M  V30 10322 N 985.515 4.74137 -5.17821 0
M  V30 10323 H 990.355 0.924356 -2.83301 0
M  V30 10324 H 987.892 0.445082 -1.40205 0
M  V30 10325 H 989.85 3.375 -2.45254 0
M  V30 10326 H 988.48 2.90184 -1.41396 0
M  V30 10327 H 987.532 1.59749 -3.45231 0
M  V30 10328 H 988.844 2.2918 -4.43033 0
M  V30 10329 H 987.998 4.59937 -3.95655 0
M  V30 10330 H 986.737 3.9367 -2.8788 0
M  V30 10331 H 985.742 2.67146 -4.80534 0
M  V30 10332 H 986.967 3.36482 -5.89879 0
M  V30 10333 H 984.913 4.94735 -4.30782 0
M  V30 10334 H 984.83 4.59558 -6.00285 0
M  V30 10335 H 986.098 5.62098 -5.40061 0
M  V30 10336 N 990.327 1.50405 0.470755 0
M  V30 10337 C 991.575 1.61092 1.2204 0
M  V30 10338 C 991.896 0.313487 1.92464 0
M  V30 10339 O 991.166 -0.669043 1.84121 0
M  V30 10340 H 989.746 0.593618 0.45346 0
M  V30 10341 H 992.408 1.87184 0.542985 0
M  V30 10342 H 991.504 2.42222 1.96812 0
M  V30 10343 N 991.805 -0.723954 1.39988 0
M  V30 10344 C 993.051 -1.48591 1.38017 0
M  V30 10345 C 993.384 -1.94189 -0.0203522 0
M  V30 10346 O 992.659 -1.67572 -0.987422 0
M  V30 10347 C 992.942 -2.71786 2.36229 0
M  V30 10348 C 992.795 -2.32136 3.8527 0
M  V30 10349 C 994.114 -3.73921 2.32102 0
M  V30 10350 H 991.233 -0.538993 0.502648 0
M  V30 10351 H 993.875 -0.826908 1.71062 0
M  V30 10352 H 992.025 -3.28015 2.0818 0
M  V30 10353 H 993.697 -1.81454 4.24113 0
M  V30 10354 H 991.94 -1.64234 4.01509 0
M  V30 10355 H 992.611 -3.20406 4.49493 0
M  V30 10356 H 995.087 -3.27303 2.56928 0
M  V30 10357 H 993.963 -4.5777 3.02882 0
M  V30 10358 H 994.224 -4.21627 1.32979 0
M  V30 10359 N 993.283 -1.25346 -0.955304 0
M  V30 10360 C 994.193 -1.07412 -2.08566 0
M  V30 10361 C 995.209 -0.0114424 -1.73996 0
M  V30 10362 O 996.385 -0.212236 -2.00279 0
M  V30 10363 C 993.45 -0.694141 -3.3968 0
M  V30 10364 C 992.511 -1.83468 -3.88121 0
M  V30 10365 C 991.744 -1.47274 -5.12978 0
M  V30 10366 O 991.967 -0.368086 -5.69211 0
M  V30 10367 O 990.901 -2.30269 -5.56111 0
M  V30 10368 H 994.727 -2.02206 -2.26598 0
M  V30 10369 H 992.312 -1.04279 -1.06988 0
M  V30 10370 H 994.194 -0.494325 -4.18491 0
M  V30 10371 H 992.869 0.224545 -3.2292 0
M  V30 10372 H 991.776 -2.08935 -3.10318 0
M  V30 10373 H 993.109 -2.73258 -4.09379 0
M  V30 10374 N 994.761 1.15782 -1.06922 0
M  V30 10375 C 996.172 1.68062 -0.813144 0
M  V30 10376 C 996.523 1.84681 0.662374 0
M  V30 10377 O 995.648 1.54696 1.51321 0
M  V30 10378 C 996.243 3.05273 -1.46949 0
M  V30 10379 C 994.802 3.54647 -1.26104 0
M  V30 10380 C 993.949 2.30477 -1.54194 0
M  V30 10381 H 996.9 1.00056 -1.23185 0
M  V30 10382 H 996.921 3.69986 -0.888308 0
M  V30 10383 H 996.433 2.93145 -2.54337 0
M  V30 10384 H 994.534 3.72024 -0.20718 0
M  V30 10385 H 994.647 4.36354 -1.97819 0
M  V30 10386 H 993.011 2.35803 -0.96276 0
M  V30 10387 H 993.794 2.2094 -2.62755 0
M  V30 10388 N 996.239 0.8527 1.3254 0
M  V30 10389 C 997.169 0.311234 2.31416 0
M  V30 10390 C 998.15 -0.588557 1.59593 0
M  V30 10391 O 999.335 -0.509211 1.87405 0
M  V30 10392 C 996.465 -0.502892 3.4364 0
M  V30 10393 C 995.419 0.302296 4.26931 0
M  V30 10394 C 994.745 -0.636445 5.30899 0
M  V30 10395 C 996.045 1.52697 4.99481 0
M  V30 10396 H 997.739 1.13742 2.76953 0
M  V30 10397 H 995.285 0.548389 1.33149 0
M  V30 10398 H 997.238 -0.892092 4.11849 0
M  V30 10399 H 995.962 -1.36242 2.96826 0
M  V30 10400 H 994.621 0.673226 3.60365 0
M  V30 10401 H 994.269 -1.49277 4.80339 0
M  V30 10402 H 993.969 -0.101716 5.87512 0
M  V30 10403 H 995.493 -1.02286 6.01972 0
M  V30 10404 H 996.907 1.21017 5.60382 0
M  V30 10405 H 995.304 1.9995 5.65809 0
M  V30 10406 H 996.374 2.28929 4.27457 0
M  V30 10407 N 997.718 -1.45297 0.610449 0
M  V30 10408 C 998.651 -2.27669 -0.155637 0
M  V30 10409 C 999.629 -1.37308 -0.870936 0
M  V30 10410 O 1000.81 -1.66739 -0.879228 0
M  V30 10411 C 997.94 -3.15748 -1.2256 0
M  V30 10412 C 996.986 -4.2207 -0.613116 0
M  V30 10413 S 997.819 -5.32337 0.581183 0
M  V30 10414 C 998.975 -6.23985 -0.489298 0
M  V30 10415 H 999.208 -2.92295 0.543205 0
M  V30 10416 H 996.741 -1.49181 0.398044 0
M  V30 10417 H 998.699 -3.67051 -1.83804 0
M  V30 10418 H 997.36 -2.50381 -1.89652 0
M  V30 10419 H 996.553 -4.83633 -1.41827 0
M  V30 10420 H 996.155 -3.73923 -0.0757482 0
M  V30 10421 H 998.447 -6.63553 -1.36759 0
M  V30 10422 H 999.39 -7.08042 0.0902456 0
M  V30 10423 H 999.798 -5.58718 -0.805911 0
M  V30 10424 N 999.196 -0.349774 -1.5367 0
M  V30 10425 C 1000.14 0.504121 -2.25227 0
M  V30 10426 C 1001.11 1.09048 -1.2529 0
M  V30 10427 O 1002.3 1.12594 -1.54037 0
M  V30 10428 C 999.438 1.64601 -3.03316 0
M  V30 10429 C 998.551 1.08635 -4.18118 0
M  V30 10430 C 997.686 2.19605 -4.83681 0
M  V30 10431 C 996.725 1.61023 -5.90541 0
M  V30 10432 N 995.862 2.6576 -6.49858 0
M  V30 10433 H 1000.7 -0.112621 -2.97787 0
M  V30 10434 H 998.239 -0.0673503 -1.46946 0
M  V30 10435 H 1000.2 2.31836 -3.46854 0
M  V30 10436 H 998.827 2.23364 -2.33041 0
M  V30 10437 H 997.879 0.304748 -3.79177 0
M  V30 10438 H 999.191 0.617911 -4.94958 0
M  V30 10439 H 998.345 2.94693 -5.30322 0
M  V30 10440 H 997.084 2.69795 -4.06278 0
M  V30 10441 H 996.089 0.844428 -5.43277 0
M  V30 10442 H 997.314 1.11677 -6.69855 0
M  V30 10443 H 995.26 3.15193 -5.75317 0
M  V30 10444 H 995.177 2.23557 -7.2219 0
M  V30 10445 H 996.445 3.40598 -7.01151 0
M  V30 10446 N 1000.67 1.57404 -0.0785433 0
M  V30 10447 C 1001.61 2.08724 0.922464 0
M  V30 10448 C 1002.58 0.993912 1.28686 0
M  V30 10449 O 1003.77 1.26776 1.39499 0
M  V30 10450 C 1000.9 2.55051 2.2286 0
M  V30 10451 C 999.942 3.75884 2.01528 0
M  V30 10452 S 1000.77 5.2026 1.26844 0
M  V30 10453 C 1001.93 5.69924 2.58723 0
M  V30 10454 H 1002.16 2.93304 0.485807 0
M  V30 10455 H 999.697 1.53814 0.134377 0
M  V30 10456 H 1001.65 2.82402 2.97926 0
M  V30 10457 H 1000.32 1.70727 2.63649 0
M  V30 10458 H 999.509 4.06311 2.98207 0
M  V30 10459 H 999.111 3.48941 1.34596 0
M  V30 10460 H 1001.4 5.7718 3.5478 0
M  V30 10461 H 1002.35 6.68704 2.32897 0
M  V30 10462 H 1002.75 4.97773 2.66237 0
M  V30 10463 N 1002.15 -0.195058 1.56388 0
M  V30 10464 C 1003.38 -0.935745 1.85091 0
M  V30 10465 C 1003.8 -1.76061 0.662118 0
M  V30 10466 O 1003.16 -1.77076 -0.389083 0
M  V30 10467 C 1003.21 -1.80764 3.1202 0
M  V30 10468 O 1002.31 -2.90643 2.92575 0
M  V30 10469 H 1001.65 -0.26351 0.609474 0
M  V30 10470 H 1004.18 -0.200362 2.03617 0
M  V30 10471 H 1004.19 -2.21229 3.42815 0
M  V30 10472 H 1002.87 -1.20157 3.98165 0
M  V30 10473 H 1001.44 -2.53934 2.73079 0
M  V30 10474 N 1003.63 -1.50653 -0.462772 0
M  V30 10475 C 1004.88 -1.63264 -1.21311 0
M  V30 10476 C 1005.23 -0.332647 -1.89503 0
M  V30 10477 O 1004.52 0.669994 -1.79504 0
M  V30 10478 C 1004.72 -2.75637 -2.27507 0
M  V30 10479 C 1004.55 -4.16438 -1.69734 0
M  V30 10480 C 1003.32 -4.82727 -1.49341 0
M  V30 10481 C 1005.51 -5.00399 -1.18765 0
M  V30 10482 N 1003.5 -6.07718 -0.868991 0
M  V30 10483 C 1004.87 -6.16182 -0.68697 0
M  V30 10484 C 1006.92 -4.86112 -1.07699 0
M  V30 10485 C 1005.63 -7.19248 -0.0865268 0
M  V30 10486 C 1007.65 -5.89363 -0.490473 0
M  V30 10487 C 1007.01 -7.044 -0.000208479 0
M  V30 10488 H 1003.11 -0.651518 -0.432491 0
M  V30 10489 H 1005.7 -1.878 -0.51375 0
M  V30 10490 H 1003.87 -2.52809 -2.9486 0
M  V30 10491 H 1005.6 -2.77562 -2.94519 0
M  V30 10492 H 1002.35 -4.40161 -1.74801 0
M  V30 10493 H 1002.78 -6.74554 -0.574957 0
M  V30 10494 H 1007.42 -3.97452 -1.44194 0
M  V30 10495 H 1005.14 -8.07577 0.290614 0
M  V30 10496 H 1008.72 -5.80374 -0.407099 0
M  V30 10497 H 1007.6 -7.82928 0.44652 0
M  V30 10498 N 1005.11 0.71652 -1.4037 0
M  V30 10499 C 1006.06 1.85194 -1.40734 0
M  V30 10500 C 1007.05 1.66934 -0.287969 0
M  V30 10501 O 1008.26 1.74051 -0.458957 0
M  V30 10502 H 1004.63 0.609922 -0.439885 0
M  V30 10503 H 1006.6 1.82003 -2.36468 0
M  V30 10504 C 1005.35 3.23048 -1.28589 0
M  V30 10505 H 1004.67 3.37704 -2.13999 0
M  V30 10506 H 1006.11 4.02633 -1.32902 0
M  V30 10507 C 1004.57 3.369 0.00396512 0
M  V30 10508 O 1005.1 3.89881 0.967243 0
M  V30 10509 N 1003.31 2.90508 0.0731565 0
M  V30 10510 H 1002.86 2.4758 -0.711454 0
M  V30 10511 H 1002.81 3.00155 0.935652 0
M  V30 10512 N 1006.59 1.25851 0.948643 0
M  V30 10513 C 1007.82 1.13546 1.726 0
M  V30 10514 C 1008.22 -0.312857 1.86595 0
M  V30 10515 O 1007.57 -1.22657 1.36751 0
M  V30 10516 C 1007.63 1.72315 3.15512 0
M  V30 10517 C 1007.29 3.2136 3.24926 0
M  V30 10518 C 1008.29 4.18274 3.08777 0
M  V30 10519 C 1005.98 3.61683 3.48555 0
M  V30 10520 C 1007.97 5.53491 3.16112 0
M  V30 10521 C 1005.66 4.97035 3.55526 0
M  V30 10522 C 1006.65 5.92749 3.3932 0
M  V30 10523 O 1006.34 7.25637 3.45985 0
M  V30 10524 H 1006.07 0.396555 0.547467 0
M  V30 10525 H 1008.63 1.66822 1.19832 0
M  V30 10526 H 1006.86 1.13494 3.6967 0
M  V30 10527 H 1008.55 1.55024 3.7513 0
M  V30 10528 H 1009.31 3.88461 2.90385 0
M  V30 10529 H 1005.19 2.87674 3.60229 0
M  V30 10530 H 1008.74 6.28177 3.0338 0
M  V30 10531 H 1004.63 5.26512 3.73437 0
M  V30 10532 H 1005.4 7.33812 3.62577 0
M  V30 10533 N 1008.06 -1.15214 1.07534 0
M  V30 10534 C 1009.01 -2.20013 0.697337 0
M  V30 10535 C 1009.98 -1.6314 -0.312168 0
M  V30 10536 O 1011.17 -1.89768 -0.198196 0
M  V30 10537 C 1008.31 -3.44945 0.103293 0
M  V30 10538 C 1007.42 -4.16009 1.1645 0
M  V30 10539 C 1006.55 -5.28496 0.535261 0
M  V30 10540 C 1005.59 -5.9138 1.57912 0
M  V30 10541 N 1004.73 -6.95335 0.972332 0
M  V30 10542 H 1009.57 -2.51698 1.59538 0
M  V30 10543 H 1007.11 -1.2361 0.797431 0
M  V30 10544 H 1009.07 -4.16397 -0.258766 0
M  V30 10545 H 1007.7 -3.13772 -0.758096 0
M  V30 10546 H 1006.75 -3.43035 1.64411 0
M  V30 10547 H 1008.06 -4.58853 1.9559 0
M  V30 10548 H 1007.21 -6.06579 0.120942 0
M  V30 10549 H 1005.95 -4.8685 -0.287889 0
M  V30 10550 H 1004.96 -5.12008 2.0032 0
M  V30 10551 H 1006.18 -6.35103 2.40459 0
M  V30 10552 H 1004.13 -6.55779 0.170119 0
M  V30 10553 H 1004.05 -7.36616 1.70095 0
M  V30 10554 H 1005.31 -7.77312 0.583577 0
M  V30 10555 N 1009.54 -0.859717 -1.32086 0
M  V30 10556 C 1010.47 -0.265258 -2.2766 0
M  V30 10557 C 1011.49 0.565889 -1.52648 0
M  V30 10558 O 1012.68 0.389554 -1.74197 0
M  V30 10559 C 1009.78 0.643397 -3.32737 0
M  V30 10560 C 1008.95 -0.153024 -4.37132 0
M  V30 10561 C 1008.01 0.682176 -5.21759 0
M  V30 10562 O 1007.03 0.113878 -5.69086 0
M  V30 10563 N 1008.24 1.99602 -5.45105 0
M  V30 10564 H 1011 -1.08653 -2.79311 0
M  V30 10565 H 1008.56 -0.720191 -1.45 0
M  V30 10566 H 1010.55 1.20759 -3.86263 0
M  V30 10567 H 1009.12 1.36535 -2.81206 0
M  V30 10568 H 1008.34 -0.898657 -3.8382 0
M  V30 10569 H 1009.63 -0.699877 -5.03963 0
M  V30 10570 H 1009.03 2.481 -5.08393 0
M  V30 10571 H 1007.59 2.50823 -6.01607 0
M  V30 10572 N 1011.02 1.44971 -0.618145 0
M  V30 10573 C 1012.43 1.85611 -0.201334 0
M  V30 10574 C 1012.78 1.51698 1.24427 0
M  V30 10575 O 1011.91 0.94875 1.94493 0
M  V30 10576 C 1012.5 3.36897 -0.358619 0
M  V30 10577 C 1011.06 3.764 0.00358196 0
M  V30 10578 C 1010.21 2.68881 -0.678118 0
M  V30 10579 H 1013.16 1.35622 -0.824152 0
M  V30 10580 H 1013.18 3.78326 0.406176 0
M  V30 10581 H 1012.69 3.61548 -1.41084 0
M  V30 10582 H 1010.79 3.57365 1.05457 0
M  V30 10583 H 1010.91 4.77449 -0.397427 0
M  V30 10584 H 1009.27 2.54442 -0.114699 0
M  V30 10585 H 1010.05 2.96367 -1.73268 0
M  V30 10586 N 1012.5 0.357919 1.53482 0
M  V30 10587 C 1013.45 -0.50845 2.22258 0
M  V30 10588 C 1014.43 -1.05476 1.21506 0
M  V30 10589 O 1015.62 -0.986075 1.46988 0
M  V30 10590 C 1012.75 -1.65157 3.00962 0
M  V30 10591 C 1011.84 -1.11851 4.09084 0
M  V30 10592 N 1012.23 -0.307818 5.04862 0
M  V30 10593 C 1010.53 -1.39405 4.23653 0
M  V30 10594 C 1011.23 -0.016842 5.81698 0
M  V30 10595 N 1010.21 -0.612396 5.40139 0
M  V30 10596 H 1014.01 0.117836 2.93664 0
M  V30 10597 H 1011.52 0.16553 1.61554 0
M  V30 10598 H 1013.52 -2.28435 3.48745 0
M  V30 10599 H 1012.18 -2.281 2.31086 0
M  V30 10600 H 1013.19 0.0523313 5.17874 0
M  V30 10601 H 1009.87 -2.02682 3.65002 0
M  V30 10602 H 1011.26 0.638046 6.68864 0
M  V30 10603 N 1013.98 -1.5736 0.0868897 0
M  V30 10604 C 1014.89 -2.17087 -0.889402 0
M  V30 10605 C 1015.9 -1.13809 -1.31619 0
M  V30 10606 O 1017.08 -1.46143 -1.38579 0
M  V30 10607 C 1014.14 -2.73286 -2.13344 0
M  V30 10608 C 1013.2 -3.91491 -1.76164 0
M  V30 10609 C 1012.44 -4.45 -2.94637 0
M  V30 10610 O 1012.66 -3.97467 -4.09116 0
M  V30 10611 O 1011.59 -5.36133 -2.73579 0
M  V30 10612 H 1015.42 -3.00902 -0.411275 0
M  V30 10613 H 1013.01 -1.4877 -0.137015 0
M  V30 10614 H 1014.89 -3.0924 -2.86266 0
M  V30 10615 H 1013.56 -1.92521 -2.60225 0
M  V30 10616 H 1012.47 -3.60363 -1.00447 0
M  V30 10617 H 1013.8 -4.73593 -1.34053 0
M  V30 10618 N 1015.45 0.186762 -1.56489 0
M  V30 10619 C 1016.87 0.750675 -1.70944 0
M  V30 10620 C 1017.22 1.83483 -0.694858 0
M  V30 10621 O 1016.34 2.159 0.147009 0
M  V30 10622 C 1016.94 1.36843 -3.09934 0
M  V30 10623 C 1015.5 1.87934 -3.26125 0
M  V30 10624 C 1014.64 0.75242 -2.66897 0
M  V30 10625 H 1017.59 -0.0384292 -1.58653 0
M  V30 10626 H 1017.61 2.23795 -3.07727 0
M  V30 10627 H 1017.13 0.579135 -3.83755 0
M  V30 10628 H 1015.23 2.69556 -2.57235 0
M  V30 10629 H 1015.34 2.0354 -4.33715 0
M  V30 10630 H 1013.7 1.16888 -2.26295 0
M  V30 10631 H 1014.49 -0.0247769 -3.43291 0
M  V30 10632 N 1016.93 1.50896 0.454776 0
M  V30 10633 C 1017.86 1.6712 1.56855 0
M  V30 10634 C 1018.88 0.552223 1.53148 0
M  V30 10635 O 1020.07 0.825969 1.5824 0
M  V30 10636 C 1017.17 1.65464 2.95762 0
M  V30 10637 C 1016.34 2.93662 3.24163 0
M  V30 10638 C 1015.4 2.84428 4.42704 0
M  V30 10639 O 1014.42 3.58382 4.42211 0
M  V30 10640 N 1015.63 1.9909 5.45292 0
M  V30 10641 H 1018.39 2.63194 1.43349 0
M  V30 10642 H 1015.95 1.48564 0.643457 0
M  V30 10643 H 1017.94 1.56878 3.73057 0
M  V30 10644 H 1016.51 0.770568 3.02954 0
M  V30 10645 H 1015.73 3.16251 2.35328 0
M  V30 10646 H 1017.02 3.78558 3.39957 0
M  V30 10647 H 1016.42 1.3835 5.48521 0
M  V30 10648 H 1014.98 1.96396 6.21508 0
M  V30 10649 N 1018.41 -0.709066 1.40748 0
M  V30 10650 C 1019.64 -1.50313 1.42901 0
M  V30 10651 C 1020.06 -1.88072 0.032213 0
M  V30 10652 O 1019.42 -1.53716 -0.96131 0
M  V30 10653 C 1019.47 -2.75074 2.33166 0
M  V30 10654 O 1018.57 -3.72036 1.7794 0
M  V30 10655 H 1017.91 -0.452934 0.485538 0
M  V30 10656 H 1020.44 -0.872712 1.85054 0
M  V30 10657 H 1020.45 -3.23532 2.48578 0
M  V30 10658 H 1019.13 -2.46927 3.34664 0
M  V30 10659 H 1017.7 -3.30911 1.71908 0
M  V30 10660 N 1019.89 -1.26353 -0.941956 0
M  V30 10661 C 1021.17 -1.02601 -1.6653 0
M  V30 10662 C 1021.55 0.44381 -2.06382 0
M  V30 10663 O 1020.89 1.42399 -1.78703 0
M  V30 10664 C 1021.1 -1.97401 -2.87809 0
M  V30 10665 C 1022.45 -2.25967 -3.59478 0
M  V30 10666 O 1023.48 -1.95261 -2.97912 0
M  V30 10667 O 1022.34 -2.78244 -4.70364 0
M  V30 10668 H 1019.43 -0.39007 -0.729228 0
M  V30 10669 H 1021.98 -1.37559 -0.993754 0
M  V30 10670 H 1020.75 -2.9659 -2.55245 0
M  V30 10671 H 1020.37 -1.62918 -3.62689 0
M  V30 10672 N 1021.37 1.14642 -1.08144 0
M  V30 10673 C 1022.28 2.23257 -0.720668 0
M  V30 10674 C 1023.29 1.71866 0.271648 0
M  V30 10675 O 1024.47 2.01064 0.116266 0
M  V30 10676 C 1021.53 3.46447 -0.132542 0
M  V30 10677 C 1020.6 4.12789 -1.17913 0
M  V30 10678 C 1019.83 5.30099 -0.618971 0
M  V30 10679 O 1020.05 5.6762 0.562418 0
M  V30 10680 O 1018.99 5.86154 -1.36774 0
M  V30 10681 H 1022.81 2.56463 -1.62667 0
M  V30 10682 H 1020.4 1.22521 -0.854932 0
M  V30 10683 H 1022.28 4.20959 0.19277 0
M  V30 10684 H 1020.95 3.14971 0.746662 0
M  V30 10685 H 1019.86 3.40163 -1.55693 0
M  V30 10686 H 1021.19 4.48365 -2.03051 0
M  V30 10687 N 1022.85 0.866709 1.31628 0
M  V30 10688 C 1024.09 0.476731 1.97117 0
M  V30 10689 C 1024.42 -0.967813 1.68366 0
M  V30 10690 O 1023.7 -1.68101 0.978377 0
M  V30 10691 C 1023.98 0.730561 3.52611 0
M  V30 10692 C 1023.84 2.2244 3.90948 0
M  V30 10693 C 1025.15 0.19488 4.39668 0
M  V30 10694 H 1022.27 0.174682 0.715999 0
M  V30 10695 H 1024.92 1.08735 1.5581 0
M  V30 10696 H 1023.07 0.210834 3.87927 0
M  V30 10697 H 1024.74 2.81113 3.6575 0
M  V30 10698 H 1022.98 2.69824 3.39673 0
M  V30 10699 H 1023.65 2.35266 4.99353 0
M  V30 10700 H 1026.13 0.639478 4.11157 0
M  V30 10701 H 1025 0.401958 5.47426 0
M  V30 10702 H 1025.26 -0.90302 4.32779 0
M  V30 10703 N 1024.32 -1.44642 0.625825 0
M  V30 10704 C 1025.29 -2.29085 -0.072526 0
M  V30 10705 C 1026.29 -1.40755 -0.777467 0
M  V30 10706 O 1027.48 -1.62684 -0.622861 0
M  V30 10707 C 1024.61 -3.22212 -1.1132 0
M  V30 10708 H 1025.8 -2.92317 0.670124 0
M  V30 10709 H 1023.35 -1.51466 0.38571 0
M  V30 10710 H 1024.09 -2.63819 -1.88601 0
M  V30 10711 H 1023.87 -3.87299 -0.611709 0
M  V30 10712 H 1025.36 -3.8566 -1.60175 0
M  V30 10713 N 1025.8 -0.366053 -1.5329 0
M  V30 10714 C 1026.75 0.480205 -2.25749 0
M  V30 10715 C 1027.72 1.07713 -1.2644 0
M  V30 10716 O 1028.9 1.10953 -1.55222 0
M  V30 10717 C 1026.04 1.61374 -3.05045 0
M  V30 10718 C 1025.16 1.04194 -4.19246 0
M  V30 10719 C 1024.29 2.14462 -4.85983 0
M  V30 10720 C 1023.33 1.5475 -5.92215 0
M  V30 10721 N 1022.47 2.58852 -6.52641 0
M  V30 10722 H 1027.31 -0.144199 -2.97651 0
M  V30 10723 H 1024.84 -0.0829321 -1.46866 0
M  V30 10724 H 1026.8 2.28144 -3.49294 0
M  V30 10725 H 1025.43 2.2088 -2.35397 0
M  V30 10726 H 1024.48 0.264514 -3.79479 0
M  V30 10727 H 1025.8 0.565379 -4.95585 0
M  V30 10728 H 1024.95 2.89051 -5.33418 0
M  V30 10729 H 1023.69 2.6547 -4.09117 0
M  V30 10730 H 1022.69 0.786759 -5.44142 0
M  V30 10731 H 1023.92 1.04566 -6.71001 0
M  V30 10732 H 1021.87 3.09073 -5.78627 0
M  V30 10733 H 1021.78 2.15884 -7.24521 0
M  V30 10734 H 1023.05 3.33142 -7.04724 0
M  V30 10735 N 1027.28 1.57312 -0.0952337 0
M  V30 10736 C 1028.19 2.17556 0.877877 0
M  V30 10737 C 1029.21 1.14505 1.31014 0
M  V30 10738 O 1030.38 1.46876 1.37802 0
M  V30 10739 C 1027.45 2.74413 2.11892 0
M  V30 10740 C 1026.51 3.92419 1.74085 0
M  V30 10741 C 1025.74 4.46556 2.92273 0
M  V30 10742 O 1025.96 3.99631 4.07002 0
M  V30 10743 O 1024.9 5.37576 2.70732 0
M  V30 10744 H 1028.72 3.01116 0.395312 0
M  V30 10745 H 1026.31 1.48841 0.129123 0
M  V30 10746 H 1028.19 3.10754 2.84622 0
M  V30 10747 H 1026.87 1.93899 2.59201 0
M  V30 10748 H 1025.77 3.6089 0.985346 0
M  V30 10749 H 1027.11 4.74298 1.31539 0
M  V30 10750 N 1028.76 -0.17846 1.56586 0
M  V30 10751 C 1029.71 -1.24042 1.96765 0
M  V30 10752 C 1030.7 -1.46218 0.855375 0
M  V30 10753 O 1031.91 -1.46882 1.04046 0
M  V30 10754 H 1028.28 -0.416807 0.62592 0
M  V30 10755 H 1030.25 -0.874644 2.85294 0
M  V30 10756 C 1029 -2.57394 2.3376 0
M  V30 10757 H 1028.32 -2.41151 3.18883 0
M  V30 10758 H 1029.76 -3.30405 2.65723 0
M  V30 10759 C 1028.22 -3.15621 1.17835 0
M  V30 10760 O 1028.75 -3.99032 0.462202 0
M  V30 10761 N 1026.96 -2.74606 0.950783 0
M  V30 10762 H 1026.51 -2.06878 1.5349 0
M  V30 10763 H 1026.46 -3.13902 0.176967 0
M  V30 10764 N 1030.24 -1.51135 -0.446768 0
M  V30 10765 C 1031.18 -1.72328 -1.56224 0
M  V30 10766 C 1032.18 -0.589411 -1.58815 0
M  V30 10767 O 1033.38 -0.770554 -1.62673 0
M  V30 10768 H 1029.76 -0.544339 -0.518844 0
M  V30 10769 H 1031.73 -2.65851 -1.3552 0
M  V30 10770 C 1030.48 -1.85686 -2.93966 0
M  V30 10771 H 1029.8 -2.72336 -2.927 0
M  V30 10772 H 1031.24 -2.0453 -3.71407 0
M  V30 10773 C 1029.7 -0.614328 -3.31252 0
M  V30 10774 O 1030.23 0.235369 -4.0101 0
M  V30 10775 N 1028.44 -0.461181 -2.86917 0
M  V30 10776 H 1027.98 -1.15369 -2.30321 0
M  V30 10777 H 1027.94 0.368966 -3.12227 0
M  V30 10778 N 1031.71 0.701592 -1.41122 0
M  V30 10779 C 1032.96 1.45871 -1.39879 0
M  V30 10780 C 1033.28 1.94999 -0.00668769 0
M  V30 10781 O 1032.55 1.71298 0.95047 0
M  V30 10782 H 1031.13 0.541231 -0.514857 0
M  V30 10783 H 1033.79 0.830803 -1.76306 0
M  V30 10784 H 1032.89 2.32479 -2.0823 0
M  V30 10785 N 1033.19 1.2685 0.935242 0
M  V30 10786 C 1034.42 1.15371 1.71386 0
M  V30 10787 C 1034.83 -0.293048 1.86917 0
M  V30 10788 O 1034.17 -1.212 1.38044 0
M  V30 10789 C 1034.23 1.75652 3.13666 0
M  V30 10790 C 1033.9 3.24788 3.215 0
M  V30 10791 C 1034.9 4.21525 3.04323 0
M  V30 10792 C 1032.58 3.65359 3.447 0
M  V30 10793 C 1034.57 5.56812 3.10224 0
M  V30 10794 C 1032.26 5.00778 3.50235 0
M  V30 10795 C 1033.26 5.96314 3.33014 0
M  V30 10796 O 1032.95 7.29266 3.38269 0
M  V30 10797 H 1032.68 0.40234 0.54323 0
M  V30 10798 H 1035.23 1.68083 1.18056 0
M  V30 10799 H 1033.46 1.17408 3.68446 0
M  V30 10800 H 1035.15 1.58994 3.73465 0
M  V30 10801 H 1035.92 3.91519 2.86249 0
M  V30 10802 H 1031.8 2.91479 3.57157 0
M  V30 10803 H 1035.34 6.3136 2.967 0
M  V30 10804 H 1031.24 5.30444 3.67831 0
M  V30 10805 H 1032.01 7.37616 3.54774 0
M  V30 10806 N 1034.67 -1.14067 1.0875 0
M  V30 10807 C 1035.63 -2.17453 0.724341 0
M  V30 10808 C 1036.63 -1.58959 -0.242614 0
M  V30 10809 O 1037.82 -1.74186 -0.0217008 0
M  V30 10810 C 1034.96 -3.40828 0.0700236 0
M  V30 10811 H 1036.15 -2.51094 1.63987 0
M  V30 10812 H 1033.7 -1.28775 0.885813 0
M  V30 10813 H 1034.44 -3.1277 -0.857061 0
M  V30 10814 H 1034.22 -3.84551 0.76569 0
M  V30 10815 H 1035.71 -4.17258 -0.168905 0
M  V30 10816 N 1036.15 -0.873678 -1.31166 0
M  V30 10817 C 1037.08 -0.348011 -2.30892 0
M  V30 10818 C 1038.06 0.563092 -1.60509 0
M  V30 10819 O 1039.24 0.479332 -1.88192 0
M  V30 10820 C 1036.37 0.448158 -3.44396 0
M  V30 10821 C 1035.33 -0.370179 -4.26396 0
M  V30 10822 C 1034.65 0.551903 -5.31844 0
M  V30 10823 C 1035.95 -1.60624 -4.96988 0
M  V30 10824 H 1037.65 -1.18134 -2.75109 0
M  V30 10825 H 1035.19 -0.569502 -1.3226 0
M  V30 10826 H 1037.15 0.826458 -4.13216 0
M  V30 10827 H 1035.87 1.31503 -2.98956 0
M  V30 10828 H 1034.53 -0.730472 -3.59249 0
M  V30 10829 H 1034.18 1.41616 -4.82653 0
M  V30 10830 H 1033.88 0.00823478 -5.87599 0
M  V30 10831 H 1035.4 0.926965 -6.03523 0
M  V30 10832 H 1036.82 -1.29917 -5.58386 0
M  V30 10833 H 1035.21 -2.08926 -5.62557 0
M  V30 10834 H 1036.28 -2.357 -4.23761 0
M  V30 10835 N 1037.63 1.44308 -0.633487 0
M  V30 10836 C 1038.54 2.34492 0.0711787 0
M  V30 10837 C 1039.55 1.52754 0.8332 0
M  V30 10838 O 1040.73 1.85475 0.784929 0
M  V30 10839 C 1037.79 3.30767 1.03895 0
M  V30 10840 C 1036.85 4.28412 0.276043 0
M  V30 10841 C 1036.09 5.20087 1.19772 0
M  V30 10842 O 1036.31 5.15743 2.4365 0
M  V30 10843 O 1035.24 5.98038 0.680764 0
M  V30 10844 H 1039.07 2.96203 -0.67063 0
M  V30 10845 H 1036.66 1.4412 -0.393678 0
M  V30 10846 H 1038.54 3.90021 1.59566 0
M  V30 10847 H 1037.21 2.71586 1.76133 0
M  V30 10848 H 1036.12 3.72696 -0.32377 0
M  V30 10849 H 1037.45 4.9052 -0.406364 0
M  V30 10850 N 1039.1 0.374177 1.53094 0
M  V30 10851 C 1040.38 -0.269632 1.93733 0
M  V30 10852 C 1040.76 -1.6566 1.30843 0
M  V30 10853 O 1040.11 -2.23598 0.470759 0
M  V30 10854 C 1040.32 -0.311204 3.4761 0
M  V30 10855 C 1041.67 -0.547432 4.21056 0
M  V30 10856 O 1042.69 -0.392053 3.54036 0
M  V30 10857 O 1041.55 -0.850645 5.39839 0
M  V30 10858 H 1038.64 -0.163723 0.810632 0
M  V30 10859 H 1041.19 0.427586 1.64225 0
M  V30 10860 H 1039.96 0.660897 3.85678 0
M  V30 10861 H 1039.59 -1.05397 3.83376 0
M  V30 10862 N 1040.58 -1.57259 0.103575 0
M  V30 10863 C 1041.51 -2.17509 -0.84923 0
M  V30 10864 C 1042.49 -1.11079 -1.28824 0
M  V30 10865 O 1043.68 -1.39252 -1.35361 0
M  V30 10866 C 1040.81 -2.76221 -2.10522 0
M  V30 10867 C 1039.76 -3.88098 -1.80454 0
M  V30 10868 C 1039.09 -4.33549 -3.12952 0
M  V30 10869 C 1040.39 -5.10909 -1.08486 0
M  V30 10870 H 1042.08 -2.9738 -0.347217 0
M  V30 10871 H 1039.63 -1.43045 -0.165568 0
M  V30 10872 H 1041.58 -3.17024 -2.77621 0
M  V30 10873 H 1040.31 -1.93617 -2.63021 0
M  V30 10874 H 1038.96 -3.47847 -1.15749 0
M  V30 10875 H 1038.61 -3.47825 -3.63355 0
M  V30 10876 H 1038.31 -5.08984 -2.93614 0
M  V30 10877 H 1039.84 -4.76992 -3.81196 0
M  V30 10878 H 1041.25 -5.48828 -1.65711 0
M  V30 10879 H 1039.65 -5.91828 -0.992973 0
M  V30 10880 H 1040.72 -4.84851 -0.0690108 0
M  V30 10881 N 1042.06 0.170153 -1.56679 0
M  V30 10882 C 1043.29 0.900826 -1.85927 0
M  V30 10883 C 1043.7 1.76285 -0.687033 0
M  V30 10884 O 1043.04 1.80276 0.353029 0
M  V30 10885 C 1043.1 1.82723 -3.096 0
M  V30 10886 C 1042.77 1.14469 -4.42432 0
M  V30 10887 C 1043.76 0.509598 -5.17396 0
M  V30 10888 C 1041.45 1.1411 -4.89167 0
M  V30 10889 C 1043.44 -0.119976 -6.37287 0
M  V30 10890 C 1041.13 0.507703 -6.08987 0
M  V30 10891 C 1042.13 -0.121731 -6.82892 0
M  V30 10892 O 1041.82 -0.74514 -8.00439 0
M  V30 10893 H 1041.55 0.267087 -0.621 0
M  V30 10894 H 1044.1 0.17474 -2.04655 0
M  V30 10895 H 1042.33 2.59367 -2.8682 0
M  V30 10896 H 1044.02 2.42784 -3.25285 0
M  V30 10897 H 1044.79 0.504341 -4.82371 0
M  V30 10898 H 1040.67 1.62043 -4.31582 0
M  V30 10899 H 1044.21 -0.611872 -6.94911 0
M  V30 10900 H 1040.11 0.510548 -6.43478 0
M  V30 10901 H 1040.88 -0.644506 -8.15959 0
M  V30 10902 N 1043.54 1.5137 0.438746 0
M  V30 10903 C 1044.82 1.54508 1.19944 0
M  V30 10904 C 1045.2 0.308525 2.08833 0
M  V30 10905 O 1044.54 -0.706461 2.17305 0
M  V30 10906 C 1044.75 2.85833 2.00251 0
M  V30 10907 C 1046.1 3.37729 2.5734 0
M  V30 10908 O 1047.13 2.87374 2.10463 0
M  V30 10909 O 1045.98 4.25589 3.42836 0
M  V30 10910 H 1043.08 0.621132 0.546007 0
M  V30 10911 H 1045.62 1.63682 0.447931 0
M  V30 10912 H 1044.4 3.67291 1.34955 0
M  V30 10913 H 1044.02 2.79815 2.8247 0
M  V30 10914 N 1045.02 -0.694098 1.41492 0
M  V30 10915 C 1045.98 -1.78976 1.43179 0
M  V30 10916 C 1046.98 -1.57539 0.322191 0
M  V30 10917 O 1048.17 -1.64185 0.582138 0
M  V30 10918 C 1045.3 -3.17368 1.2446 0
M  V30 10919 H 1046.49 -1.78874 2.40716 0
M  V30 10920 H 1044.05 -0.901867 1.27656 0
M  V30 10921 H 1044.78 -3.23109 0.277691 0
M  V30 10922 H 1044.57 -3.3433 2.04856 0
M  V30 10923 H 1046.06 -3.97345 1.28479 0
M  V30 10924 N 1046.49 -1.27344 -0.928501 0
M  V30 10925 C 1047.44 -1.09835 -2.05034 0
M  V30 10926 C 1048.44 -0.0216643 -1.69386 0
M  V30 10927 O 1049.64 -0.179323 -1.79105 0
M  V30 10928 H 1046.02 -0.338416 -0.671549 0
M  V30 10929 H 1047.99 -2.04879 -2.1695 0
M  V30 10930 C 1046.74 -0.761462 -3.3926 0
M  V30 10931 H 1046.06 -1.58186 -3.67175 0
M  V30 10932 H 1047.5 -0.678812 -4.18531 0
M  V30 10933 C 1045.96 0.534118 -3.32639 0
M  V30 10934 O 1046.49 1.56877 -3.69801 0
M  V30 10935 N 1044.7 0.529437 -2.85736 0
M  V30 10936 H 1044.24 -0.312954 -2.55692 0
M  V30 10937 H 1044.2 1.39637 -2.81689 0
M  V30 10938 N 1047.97 1.13488 -1.09353 0
M  V30 10939 C 1049.22 1.84383 -0.827488 0
M  V30 10940 C 1049.54 1.83892 0.648745 0
M  V30 10941 O 1048.81 1.29415 1.47066 0
M  V30 10942 H 1047.39 0.682732 -0.303127 0
M  V30 10943 H 1050.05 1.37477 -1.38152 0
M  V30 10944 H 1049.15 2.88919 -1.18035 0
M  V30 10945 N 1049.45 0.880621 1.30701 0
M  V30 10946 C 1050.7 0.497611 1.966 0
M  V30 10947 C 1051.03 -0.949901 1.69383 0
M  V30 10948 O 1050.31 -1.67054 0.996152 0
M  V30 10949 C 1050.59 0.767919 3.51817 0
M  V30 10950 C 1050.44 2.26574 3.88567 0
M  V30 10951 C 1051.76 0.241502 4.39437 0
M  V30 10952 H 1048.88 0.182267 0.714106 0
M  V30 10953 H 1051.52 1.10382 1.54648 0
M  V30 10954 H 1049.67 0.251967 3.87682 0
M  V30 10955 H 1051.34 2.84977 3.62748 0
M  V30 10956 H 1049.59 2.73411 3.36792 0
M  V30 10957 H 1050.26 2.40549 4.9683 0
M  V30 10958 H 1052.73 0.683051 4.10455 0
M  V30 10959 H 1051.61 0.459997 5.46969 0
M  V30 10960 H 1051.87 -0.857068 4.33713 0
M  V30 10961 N 1050.93 -1.4397 0.641131 0
M  V30 10962 C 1051.86 -2.33458 -0.04446 0
M  V30 10963 C 1052.84 -1.48781 -0.824507 0
M  V30 10964 O 1054.03 -1.77477 -0.788397 0
M  V30 10965 C 1051.16 -3.31989 -1.01984 0
M  V30 10966 C 1050.11 -4.2656 -0.350745 0
M  V30 10967 C 1049.44 -5.15036 -1.43673 0
M  V30 10968 C 1050.74 -5.16897 0.749299 0
M  V30 10969 H 1052.43 -2.91034 0.702832 0
M  V30 10970 H 1049.98 -1.39942 0.339435 0
M  V30 10971 H 1051.93 -3.93483 -1.50828 0
M  V30 10972 H 1050.65 -2.72643 -1.79815 0
M  V30 10973 H 1049.31 -3.66413 0.117139 0
M  V30 10974 H 1048.96 -4.52037 -2.20617 0
M  V30 10975 H 1048.66 -5.79125 -0.994358 0
M  V30 10976 H 1050.18 -5.79403 -1.92678 0
M  V30 10977 H 1051.6 -5.7227 0.343534 0
M  V30 10978 H 1049.99 -5.89643 1.11541 0
M  V30 10979 H 1051.06 -4.5731 1.61232 0
M  V30 10980 N 1052.41 -0.382291 -1.52893 0
M  V30 10981 C 1053.66 0.203342 -2.00672 0
M  V30 10982 C 1053.97 1.48487 -1.27322 0
M  V30 10983 O 1055.18 2.15013 -1.65776 0
M  V30 10984 C 1053.63 0.412922 -3.57523 0
M  V30 10985 C 1053.24 -0.854949 -4.39767 0
M  V30 10986 C 1054.98 0.955301 -4.13611 0
M  V30 10987 C 1052.89 -0.614033 -5.88204 0
M  V30 10988 H 1051.82 0.0797635 -0.749769 0
M  V30 10989 H 1054.47 -0.50361 -1.76454 0
M  V30 10990 H 1052.85 1.18155 -3.77962 0
M  V30 10991 H 1054.03 -1.62765 -4.31096 0
M  V30 10992 H 1052.34 -1.32176 -3.94865 0
M  V30 10993 H 1054.94 1.15114 -5.22162 0
M  V30 10994 H 1055.28 1.92233 -3.69259 0
M  V30 10995 H 1055.82 0.24642 -3.97036 0
M  V30 10996 H 1052.55 -1.55187 -6.36865 0
M  V30 10997 H 1052.07 0.119865 -5.9968 0
M  V30 10998 H 1053.75 -0.245895 -6.46533 0
M  V30 10999 N 1053.89 1.57202 -0.111913 0
M  V30 11000 C 1054.85 2.13778 0.826534 0
M  V30 11001 C 1055.85 1.07097 1.19945 0
M  V30 11002 O 1057.04 1.32906 1.12613 0
M  V30 11003 C 1054.17 2.6722 2.11675 0
M  V30 11004 H 1055.36 2.98023 0.334975 0
M  V30 11005 H 1052.92 1.55696 0.137256 0
M  V30 11006 H 1053.65 1.86542 2.65278 0
M  V30 11007 H 1053.44 3.45235 1.8589 0
M  V30 11008 H 1054.93 3.10926 2.78774 0
M  V30 11009 N 1055.36 -0.161842 1.56767 0
M  V30 11010 C 1056.31 -1.2002 1.97139 0
M  V30 11011 C 1057.28 -1.43486 0.836713 0
M  V30 11012 O 1058.47 -1.56069 1.0976 0
M  V30 11013 C 1055.61 -2.53228 2.34456 0
M  V30 11014 C 1054.72 -2.37062 3.61145 0
M  V30 11015 C 1053.85 -3.63202 3.87631 0
M  V30 11016 C 1052.89 -3.42008 5.07638 0
M  V30 11017 N 1052.03 -4.60242 5.30209 0
M  V30 11018 H 1056.87 -0.848918 2.85653 0
M  V30 11019 H 1054.41 -0.407753 1.41336 0
M  V30 11020 H 1056.36 -3.30879 2.54116 0
M  V30 11021 H 1054.99 -2.86333 1.4904 0
M  V30 11022 H 1054.05 -1.50539 3.49345 0
M  V30 11023 H 1055.36 -2.17353 4.48953 0
M  V30 11024 H 1054.51 -4.49285 4.0771 0
M  V30 11025 H 1053.25 -3.85899 2.98216 0
M  V30 11026 H 1052.26 -2.54312 4.87448 0
M  V30 11027 H 1053.48 -3.20724 5.98593 0
M  V30 11028 H 1051.43 -4.8314 4.43747 0
M  V30 11029 H 1051.34 -4.43481 6.12259 0
M  V30 11030 H 1052.61 -5.47581 5.54775 0
M  V30 11031 N 1056.84 -1.516 -0.430713 0
M  V30 11032 C 1057.79 -1.73392 -1.52328 0
M  V30 11033 C 1058.76 -0.575758 -1.55802 0
M  V30 11034 O 1059.94 -0.810931 -1.72709 0
M  V30 11035 C 1057.08 -1.87092 -2.89984 0
M  V30 11036 C 1056.2 -3.14668 -2.95987 0
M  V30 11037 C 1055.33 -3.18923 -4.24807 0
M  V30 11038 C 1054.37 -4.40787 -4.24703 0
M  V30 11039 N 1053.51 -4.42556 -5.45059 0
M  V30 11040 H 1058.35 -2.6665 -1.33048 0
M  V30 11041 H 1055.88 -1.32146 -0.646207 0
M  V30 11042 H 1057.84 -1.93017 -3.69865 0
M  V30 11043 H 1056.47 -0.972363 -3.07807 0
M  V30 11044 H 1055.52 -3.1802 -2.08728 0
M  V30 11045 H 1056.84 -4.04562 -2.91772 0
M  V30 11046 H 1055.99 -3.23801 -5.13067 0
M  V30 11047 H 1054.73 -2.2693 -4.31688 0
M  V30 11048 H 1053.73 -4.36079 -3.34836 0
M  V30 11049 H 1054.96 -5.34053 -4.19481 0
M  V30 11050 H 1052.91 -3.53435 -5.52648 0
M  V30 11051 H 1052.82 -5.26267 -5.42751 0
M  V30 11052 H 1054.09 -4.51634 -6.35332 0
M  V30 11053 N 1058.32 0.686584 -1.41858 0
M  V30 11054 C 1059.57 1.44379 -1.41418 0
M  V30 11055 C 1059.89 1.94981 -0.0273696 0
M  V30 11056 O 1059.16 1.72296 0.932248 0
M  V30 11057 H 1057.74 0.53574 -0.520568 0
M  V30 11058 H 1060.4 0.812056 -1.77177 0
M  V30 11059 H 1059.5 2.30258 -2.10684 0
M  V30 11060 N 1059.8 1.27835 0.921735 0
M  V30 11061 C 1060.73 1.06874 2.02758 0
M  V30 11062 C 1061.74 0.0229418 1.62784 0
M  V30 11063 O 1062.93 0.265145 1.7652 0
M  V30 11064 C 1060.03 0.60037 3.3354 0
M  V30 11065 C 1059.2 1.71979 4.02172 0
M  V30 11066 C 1058.26 1.24615 5.11231 0
M  V30 11067 O 1057.29 1.94692 5.34868 0
M  V30 11068 N 1058.49 0.105021 5.80405 0
M  V30 11069 H 1061.26 2.02105 2.213 0
M  V30 11070 H 1058.82 1.19481 1.09251 0
M  V30 11071 H 1060.81 0.267281 4.03816 0
M  V30 11072 H 1059.38 -0.258872 3.11526 0
M  V30 11073 H 1058.6 2.22287 3.25549 0
M  V30 11074 H 1059.89 2.47092 4.44773 0
M  V30 11075 H 1059.29 -0.479745 5.63662 0
M  V30 11076 H 1057.84 -0.168846 6.51581 0
M  V30 11077 N 1061.28 -1.12907 1.09954 0
M  V30 11078 C 1062.21 -2.20585 0.765799 0
M  V30 11079 C 1063.19 -1.68117 -0.258989 0
M  V30 11080 O 1064.37 -1.93792 -0.125853 0
M  V30 11081 C 1061.5 -3.46772 0.191435 0
M  V30 11082 C 1060.46 -4.12363 1.14635 0
M  V30 11083 C 1059.78 -5.3294 0.433426 0
M  V30 11084 C 1061.08 -4.59073 2.49096 0
M  V30 11085 H 1062.78 -2.48759 1.66612 0
M  V30 11086 H 1060.32 -1.19563 0.802534 0
M  V30 11087 H 1062.27 -4.21365 -0.0541535 0
M  V30 11088 H 1061 -3.18011 -0.744101 0
M  V30 11089 H 1059.66 -3.39744 1.37731 0
M  V30 11090 H 1059.31 -5.00444 -0.506422 0
M  V30 11091 H 1059.01 -5.77772 1.07018 0
M  V30 11092 H 1060.53 -6.10284 0.196267 0
M  V30 11093 H 1061.94 -5.25063 2.30177 0
M  V30 11094 H 1060.34 -5.14665 3.0861 0
M  V30 11095 H 1061.41 -3.73313 3.0946 0
M  V30 11096 N 1062.75 -0.88754 -1.30232 0
M  V30 11097 C 1063.68 -0.372481 -2.3051 0
M  V30 11098 C 1064.66 0.546037 -1.61098 0
M  V30 11099 O 1065.85 0.459345 -1.88689 0
M  V30 11100 C 1062.98 0.411605 -3.44852 0
M  V30 11101 C 1061.93 -0.415383 -4.2598 0
M  V30 11102 C 1061.26 0.495463 -5.324 0
M  V30 11103 C 1062.56 -1.65886 -4.95257 0
M  V30 11104 H 1064.25 -1.21045 -2.7384 0
M  V30 11105 H 1061.8 -0.583498 -1.31648 0
M  V30 11106 H 1063.75 0.782584 -4.1407 0
M  V30 11107 H 1062.48 1.28325 -3.00334 0
M  V30 11108 H 1061.14 -0.768534 -3.58454 0
M  V30 11109 H 1060.78 1.36489 -4.84128 0
M  V30 11110 H 1060.48 -0.0540885 -5.87575 0
M  V30 11111 H 1062.01 0.862901 -6.04472 0
M  V30 11112 H 1063.42 -1.35832 -5.56976 0
M  V30 11113 H 1061.82 -2.14881 -5.60309 0
M  V30 11114 H 1062.89 -2.40181 -4.21237 0
M  V30 11115 N 1064.23 1.43628 -0.648757 0
M  V30 11116 C 1065.46 2.06732 -0.166284 0
M  V30 11117 C 1065.88 1.48281 1.15734 0
M  V30 11118 O 1065.24 0.591018 1.71396 0
M  V30 11119 C 1065.29 3.60502 -0.0838732 0
M  V30 11120 O 1064.39 4.01186 0.955185 0
M  V30 11121 H 1063.73 0.657479 -0.0928285 0
M  V30 11122 H 1066.26 1.84208 -0.890421 0
M  V30 11123 H 1066.27 4.07875 0.100923 0
M  V30 11124 H 1064.95 4.02424 -1.05014 0
M  V30 11125 H 1063.53 3.65412 0.743537 0
M  V30 11126 N 1065.71 0.390394 1.52688 0
M  V30 11127 C 1066.94 -0.194013 2.06491 0
M  V30 11128 C 1067.36 -1.3965 1.26014 0
M  V30 11129 O 1066.72 -1.79038 0.285468 0
M  V30 11130 C 1066.77 -0.541306 3.56514 0
M  V30 11131 O 1065.87 -1.63509 3.78601 0
M  V30 11132 H 1065.21 -0.0223608 0.663623 0
M  V30 11133 H 1067.74 0.558179 1.96839 0
M  V30 11134 H 1067.75 -0.805301 3.99974 0
M  V30 11135 H 1066.43 0.337828 4.14526 0
M  V30 11136 H 1065 -1.36473 3.4703 0
M  V30 11137 N 1067.19 -1.57141 0.120249 0
M  V30 11138 C 1068.44 -1.95238 -0.537449 0
M  V30 11139 C 1068.76 -1.00361 -1.66607 0
M  V30 11140 O 1068.02 -0.0277306 -1.9568 0
M  V30 11141 C 1068.32 -3.39745 -1.10941 0
M  V30 11142 C 1067.98 -4.50785 -0.102012 0
M  V30 11143 C 1066.65 -4.80882 0.174994 0
M  V30 11144 C 1069 -5.17913 0.584462 0
M  V30 11145 C 1066.33 -5.75424 1.14474 0
M  V30 11146 C 1068.68 -6.13497 1.54284 0
M  V30 11147 C 1067.34 -6.41987 1.82782 0
M  V30 11148 H 1066.61 -0.714425 -0.196666 0
M  V30 11149 H 1069.26 -1.90438 0.201418 0
M  V30 11150 H 1067.56 -3.41246 -1.92506 0
M  V30 11151 H 1069.26 -3.66536 -1.62642 0
M  V30 11152 H 1065.85 -4.27342 -0.328097 0
M  V30 11153 H 1070.03 -4.94815 0.383625 0
M  V30 11154 H 1065.29 -5.95801 1.37226 0
M  V30 11155 H 1069.46 -6.64598 2.08044 0
M  V30 11156 H 1067.09 -7.15052 2.5808 0
M  V30 11157 N 1068.67 0.153526 -1.5685 0
M  V30 11158 C 1069.63 1.17362 -1.96873 0
M  V30 11159 C 1070.63 1.36219 -0.854456 0
M  V30 11160 O 1071.82 1.33322 -1.1212 0
M  V30 11161 C 1068.95 2.53523 -2.27901 0
M  V30 11162 H 1070.14 0.830432 -2.88173 0
M  V30 11163 H 1067.7 0.396633 -1.51184 0
M  V30 11164 H 1068.43 2.92824 -1.39371 0
M  V30 11165 H 1068.22 2.41198 -3.09137 0
M  V30 11166 H 1069.71 3.27006 -2.59725 0
M  V30 11167 N 1070.14 1.51827 0.422667 0
M  V30 11168 C 1071.09 1.7058 1.51282 0
M  V30 11169 C 1072.08 0.5597 1.50851 0
M  V30 11170 O 1073.27 0.816223 1.57057 0
M  V30 11171 C 1070.4 1.84759 2.89342 0
M  V30 11172 C 1069.49 3.05199 2.94473 0
M  V30 11173 N 1069.88 4.28135 2.69322 0
M  V30 11174 C 1068.17 3.04755 3.25638 0
M  V30 11175 C 1068.88 5.09507 2.80674 0
M  V30 11176 N 1067.85 4.44464 3.12974 0
M  V30 11177 H 1071.65 2.63283 1.30611 0
M  V30 11178 H 1069.17 1.49674 0.630191 0
M  V30 11179 H 1071.16 1.96308 3.67789 0
M  V30 11180 H 1069.82 0.932478 3.11022 0
M  V30 11181 H 1070.84 4.56835 2.43972 0
M  V30 11182 H 1067.51 2.2293 3.52999 0
M  V30 11183 H 1068.9 6.17409 2.65058 0
M  V30 11184 N 1071.62 -0.679052 1.4222 0
M  V30 11185 C 1072.55 -1.80481 1.48152 0
M  V30 11186 C 1073.53 -1.66698 0.338502 0
M  V30 11187 O 1074.72 -1.86183 0.552228 0
M  V30 11188 C 1071.85 -3.18746 1.37908 0
M  V30 11189 C 1070.8 -3.47258 2.50192 0
M  V30 11190 C 1070.13 -4.85052 2.25008 0
M  V30 11191 C 1071.43 -3.44576 3.92511 0
M  V30 11192 H 1073.12 -1.75774 2.42371 0
M  V30 11193 H 1070.67 -0.844241 1.16656 0
M  V30 11194 H 1072.62 -3.97229 1.40666 0
M  V30 11195 H 1071.35 -3.24119 0.401806 0
M  V30 11196 H 1070 -2.71133 2.46744 0
M  V30 11197 H 1069.65 -4.8707 1.25584 0
M  V30 11198 H 1069.35 -5.05092 3.00259 0
M  V30 11199 H 1070.88 -5.65825 2.29508 0
M  V30 11200 H 1072.29 -4.13036 3.97585 0
M  V30 11201 H 1070.69 -3.76151 4.67579 0
M  V30 11202 H 1071.76 -2.4323 4.19484 0
M  V30 11203 N 1073.1 -1.28322 -0.914942 0
M  V30 11204 C 1074.52 -1.06003 -1.19313 0
M  V30 11205 C 1074.72 0.198366 -2.00521 0
M  V30 11206 O 1073.77 0.900364 -2.35902 0
M  V30 11207 C 1075.09 -2.30684 -1.92887 0
M  V30 11208 C 1076.63 -2.35851 -2.05775 0
M  V30 11209 C 1077.11 -3.60295 -2.82757 0
M  V30 11210 N 1078.6 -3.60928 -2.9032 0
M  V30 11211 C 1079.33 -4.53894 -3.50383 0
M  V30 11212 N 1078.83 -5.57178 -4.11734 0
M  V30 11213 N 1080.62 -4.41492 -3.4791 0
M  V30 11214 H 1072.77 -2.09104 -0.372735 0
M  V30 11215 H 1075.04 -0.920285 -0.227552 0
M  V30 11216 H 1074.74 -3.22355 -1.40643 0
M  V30 11217 H 1074.62 -2.37003 -2.93444 0
M  V30 11218 H 1077 -1.44678 -2.57201 0
M  V30 11219 H 1077.09 -2.33526 -1.04399 0
M  V30 11220 H 1076.73 -4.51811 -2.32011 0
M  V30 11221 H 1076.66 -3.59873 -3.84446 0
M  V30 11222 H 1079.15 -2.8624 -2.46729 0
M  V30 11223 H 1079.46 -6.24261 -4.55541 0
M  V30 11224 H 1077.81 -5.61005 -4.10242 0
M  V30 11225 H 1081 -3.60005 -2.99189 0
M  V30 11226 H 1081.17 -5.14132 -3.94427 0
M  V30 11227 N 1074.58 1.12322 -1.10551 0
M  V30 11228 C 1075.86 1.80201 -0.760715 0
M  V30 11229 C 1076.24 1.97228 0.752628 0
M  V30 11230 O 1075.58 1.54958 1.67929 0
M  V30 11231 C 1075.79 3.14491 -1.51316 0
M  V30 11232 C 1077.14 3.89671 -1.68647 0
M  V30 11233 O 1078.17 3.24151 -1.47664 0
M  V30 11234 O 1077.02 5.0722 -2.03445 0
M  V30 11235 H 1074.12 0.780084 -0.274587 0
M  V30 11236 H 1076.66 1.19147 -1.20839 0
M  V30 11237 H 1075.44 2.97396 -2.54306 0
M  V30 11238 H 1075.06 3.83253 -1.05842 0
M  V30 11239 N 1076.06 0.894434 1.2976 0
M  V30 11240 C 1077.33 0.437365 1.90648 0
M  V30 11241 C 1077.71 -1.08261 1.81226 0
M  V30 11242 O 1077.06 -1.92213 1.23557 0
M  V30 11243 C 1077.27 0.946047 3.35933 0
M  V30 11244 C 1078.62 0.986621 4.12978 0
M  V30 11245 O 1079.64 0.893356 3.44815 0
M  V30 11246 O 1078.5 1.12591 5.34776 0
M  V30 11247 H 1075.6 0.135436 0.815835 0
M  V30 11248 H 1078.14 0.983955 1.38262 0
M  V30 11249 H 1076.91 1.98998 3.3692 0
M  V30 11250 H 1076.54 0.379164 3.95788 0
M  V30 11251 N 1077.53 -1.43282 0.656365 0
M  V30 11252 C 1078.78 -2.01378 0.170702 0
M  V30 11253 C 1079.1 -1.52063 -1.22073 0
M  V30 11254 O 1078.37 -0.73456 -1.81607 0
M  V30 11255 H 1076.95 -0.744577 0.0601168 0
M  V30 11256 H 1079.62 -1.75449 0.848739 0
M  V30 11257 H 1078.71 -3.11701 0.157745 0
M  V30 11258 N 1079.01 -0.398486 -1.52479 0
M  V30 11259 C 1080.24 0.180557 -2.06111 0
M  V30 11260 C 1080.66 1.39751 -1.26945 0
M  V30 11261 O 1080.01 1.79699 -0.318497 0
M  V30 11262 C 1080.06 0.541573 -3.5742 0
M  V30 11263 O 1079.79 -0.627043 -4.33589 0
M  V30 11264 C 1081.29 1.17549 -4.27431 0
M  V30 11265 H 1078.51 0.0250754 -0.670531 0
M  V30 11266 H 1081.05 -0.566368 -1.96501 0
M  V30 11267 H 1079.21 1.23839 -3.67073 0
M  V30 11268 H 1079.62 -0.328233 -5.23472 0
M  V30 11269 H 1081.09 1.37839 -5.34513 0
M  V30 11270 H 1081.57 2.14553 -3.83228 0
M  V30 11271 H 1082.18 0.51918 -4.22119 0
M  V30 11272 N 1080.49 1.57075 -0.12858 0
M  V30 11273 C 1081.72 1.99876 0.534544 0
M  V30 11274 C 1082.13 1.00843 1.59612 0
M  V30 11275 O 1081.49 0.00268947 1.825 0
M  V30 11276 C 1081.54 3.42654 1.15198 0
M  V30 11277 O 1081.26 4.37899 0.132823 0
M  V30 11278 C 1082.76 4.00637 1.8975 0
M  V30 11279 H 1079.98 0.656073 0.140744 0
M  V30 11280 H 1082.53 2.03337 -0.217742 0
M  V30 11281 H 1080.68 3.40101 1.85499 0
M  V30 11282 H 1081.1 5.21253 0.582682 0
M  V30 11283 H 1082.57 5.02592 2.28266 0
M  V30 11284 H 1083.05 3.40313 2.7764 0
M  V30 11285 H 1083.65 4.06764 1.2419 0
M  V30 11286 N 1081.97 -0.145205 1.5693 0
M  V30 11287 C 1082.93 -1.16316 1.97492 0
M  V30 11288 C 1083.93 -1.35764 0.861668 0
M  V30 11289 O 1085.12 -1.32726 1.12825 0
M  V30 11290 C 1082.25 -2.52311 2.29242 0
M  V30 11291 H 1083.45 -0.815138 2.8861 0
M  V30 11292 H 1081 -0.38861 1.51392 0
M  V30 11293 H 1081.74 -2.92081 1.40922 0
M  V30 11294 H 1081.52 -2.39555 3.10412 0
M  V30 11295 H 1083.01 -3.25624 2.61456 0
M  V30 11296 N 1083.45 -1.52049 -0.414609 0
M  V30 11297 C 1084.67 -1.6997 -1.18848 0
M  V30 11298 C 1085.1 -0.406058 -1.83665 0
M  V30 11299 O 1084.46 0.635981 -1.69779 0
M  V30 11300 C 1084.5 -2.8327 -2.23138 0
M  V30 11301 O 1083.61 -2.48457 -3.29155 0
M  V30 11302 H 1082.95 -0.566003 -0.347183 0
M  V30 11303 H 1085.48 -1.98726 -0.486757 0
M  V30 11304 H 1085.49 -3.08022 -2.67557 0
M  V30 11305 H 1084.16 -3.7713 -1.75344 0
M  V30 11306 H 1082.74 -2.34357 -2.90054 0
M  V30 11307 N 1084.93 0.6715 -1.42579 0
M  V30 11308 C 1086.15 1.46471 -1.46836 0
M  V30 11309 C 1086.58 1.87921 -0.0820658 0
M  V30 11310 O 1085.93 1.5621 0.920217 0
M  V30 11311 C 1085.98 2.68796 -2.40377 0
M  V30 11312 O 1085.09 3.67188 -1.87741 0
M  V30 11313 H 1084.43 0.439901 -0.497376 0
M  V30 11314 H 1086.96 0.823342 -1.87303 0
M  V30 11315 H 1086.97 3.16828 -2.57068 0
M  V30 11316 H 1085.64 2.37967 -3.41093 0
M  V30 11317 H 1084.22 3.26237 -1.80621 0
M  V30 11318 N 1086.4 1.28806 0.908124 0
M  V30 11319 C 1087.64 1.17546 1.67219 0
M  V30 11320 C 1088.01 -0.270396 1.90086 0
M  V30 11321 O 1089.21 -0.505808 2.63998 0
M  V30 11322 C 1087.48 1.95774 2.99011 0
M  V30 11323 S 1089.04 2.00953 3.90081 0
M  V30 11324 H 1085.86 0.419283 0.574215 0
M  V30 11325 H 1088.46 1.6298 1.07971 0
M  V30 11326 H 1087.16 2.99978 2.80074 0
M  V30 11327 H 1086.69 1.50911 3.63303 0
M  V30 11328 H 1088.71 1.1201 4.83392 0
M  V30 11329 N 1087.88 -1.11734 1.11145 0
M  V30 11330 C 1089.13 -1.83874 0.86959 0
M  V30 11331 C 1089.48 -1.82859 -0.598363 0
M  V30 11332 O 1088.78 -1.26849 -1.43596 0
M  V30 11333 C 1088.97 -3.3046 1.36129 0
M  V30 11334 C 1088.8 -3.45752 2.87551 0
M  V30 11335 C 1087.57 -3.58956 3.55638 0
M  V30 11336 C 1089.77 -3.40296 3.85621 0
M  V30 11337 N 1087.75 -3.62688 4.95309 0
M  V30 11338 C 1089.12 -3.50611 5.11343 0
M  V30 11339 C 1091.17 -3.23808 3.78223 0
M  V30 11340 C 1089.88 -3.46138 6.3054 0
M  V30 11341 C 1091.9 -3.20651 4.96927 0
M  V30 11342 C 1091.27 -3.31534 6.21502 0
M  V30 11343 H 1087.36 -0.688226 0.371306 0
M  V30 11344 H 1089.95 -1.33715 1.41522 0
M  V30 11345 H 1088.12 -3.79144 0.842885 0
M  V30 11346 H 1089.85 -3.90493 1.0629 0
M  V30 11347 H 1086.61 -3.61387 3.06098 0
M  V30 11348 H 1087.03 -3.68199 5.68118 0
M  V30 11349 H 1091.67 -3.14282 2.8282 0
M  V30 11350 H 1089.39 -3.54433 7.26225 0
M  V30 11351 H 1092.98 -3.09064 4.9292 0
M  V30 11352 H 1091.86 -3.29076 7.11814 0
M  V30 11353 N 1089.36 -0.901303 -1.29284 0
M  V30 11354 C 1090.61 -0.52401 -1.94774 0
M  V30 11355 C 1090.92 0.934645 -1.71825 0
M  V30 11356 O 1092.13 1.41953 -2.31434 0
M  V30 11357 C 1090.58 -0.886262 -3.48817 0
M  V30 11358 C 1090.19 -2.3638 -3.80564 0
M  V30 11359 C 1091.94 -0.578955 -4.20533 0
M  V30 11360 C 1089.84 -2.66682 -5.27858 0
M  V30 11361 H 1088.77 -0.192244 -0.72908 0
M  V30 11362 H 1091.42 -1.09852 -1.46986 0
M  V30 11363 H 1089.81 -0.240666 -3.95268 0
M  V30 11364 H 1090.98 -3.05508 -3.44966 0
M  V30 11365 H 1089.29 -2.64029 -3.2199 0
M  V30 11366 H 1091.89 -0.782185 -5.28948 0
M  V30 11367 H 1092.23 0.482605 -4.13493 0
M  V30 11368 H 1092.77 -1.18246 -3.79819 0
M  V30 11369 H 1089.51 -3.71643 -5.39965 0
M  V30 11370 H 1089.03 -2.02179 -5.64698 0
M  V30 11371 H 1090.71 -2.53033 -5.95469 0
M  V30 11372 N 1090.84 1.42931 -0.663954 0
M  V30 11373 C 1092.07 2.05729 -0.189532 0
M  V30 11374 C 1092.48 1.49914 1.15423 0
M  V30 11375 O 1091.82 0.629324 1.72584 0
M  V30 11376 C 1091.88 3.59482 -0.0354748 0
M  V30 11377 C 1091.54 4.37935 -1.30622 0
M  V30 11378 C 1092.54 4.69297 -2.23733 0
M  V30 11379 C 1090.23 4.77761 -1.5508 0
M  V30 11380 C 1092.22 5.39407 -3.39586 0
M  V30 11381 C 1089.91 5.47613 -2.71224 0
M  V30 11382 C 1090.91 5.7836 -3.63302 0
M  V30 11383 O 1090.59 6.46783 -4.77417 0
M  V30 11384 H 1090.33 0.669678 -0.0922342 0
M  V30 11385 H 1092.88 1.84243 -0.907943 0
M  V30 11386 H 1091.11 3.79584 0.738412 0
M  V30 11387 H 1092.8 4.03947 0.397679 0
M  V30 11388 H 1093.56 4.39038 -2.06084 0
M  V30 11389 H 1089.44 4.53229 -0.842863 0
M  V30 11390 H 1092.99 5.63323 -4.11476 0
M  V30 11391 H 1088.88 5.77289 -2.88804 0
M  V30 11392 H 1089.65 6.6527 -4.76821 0
M  V30 11393 N 1092.32 0.406567 1.52266 0
M  V30 11394 C 1093.54 -0.169624 2.06204 0
M  V30 11395 C 1093.96 -1.39076 1.27684 0
M  V30 11396 O 1093.32 -1.79528 0.328023 0
M  V30 11397 C 1093.37 -0.522611 3.57702 0
M  V30 11398 O 1093.09 0.650028 4.33251 0
M  V30 11399 C 1094.59 -1.15281 4.28048 0
M  V30 11400 H 1091.81 -0.0215191 0.670655 0
M  V30 11401 H 1094.35 0.576781 1.96198 0
M  V30 11402 H 1092.51 -1.21891 3.67725 0
M  V30 11403 H 1092.92 0.355989 5.23291 0
M  V30 11404 H 1094.4 -1.35002 5.35237 0
M  V30 11405 H 1094.87 -2.12517 3.84361 0
M  V30 11406 H 1095.48 -0.496786 4.22389 0
M  V30 11407 N 1093.79 -1.57004 0.136909 0
M  V30 11408 C 1095.04 -1.9541 -0.51569 0
M  V30 11409 C 1095.36 -1.02219 -1.66061 0
M  V30 11410 O 1094.63 -0.0818172 -1.95729 0
M  V30 11411 H 1093.21 -0.721504 -0.193497 0
M  V30 11412 H 1095.88 -1.93765 0.210046 0
M  V30 11413 H 1094.97 -2.98887 -0.898494 0
M  V30 11414 N 1095.27 0.136881 -1.57004 0
M  V30 11415 C 1096.5 0.866405 -1.88436 0
M  V30 11416 C 1096.92 1.73483 -0.727006 0
M  V30 11417 O 1096.28 1.78398 0.323094 0
M  V30 11418 C 1096.33 1.69059 -3.18514 0
M  V30 11419 O 1095.43 2.79584 -3.03161 0
M  V30 11420 H 1094.77 0.240709 -0.618834 0
M  V30 11421 H 1097.3 0.124653 -2.0422 0
M  V30 11422 H 1097.31 2.08353 -3.50789 0
M  V30 11423 H 1095.99 1.05296 -4.0235 0
M  V30 11424 H 1094.57 2.43623 -2.82315 0
M  V30 11425 N 1096.75 1.52266 0.40654 0
M  V30 11426 C 1098 1.67654 1.15168 0
M  V30 11427 C 1098.35 0.402751 1.88137 0
M  V30 11428 O 1097.64 -0.60291 1.81867 0
M  V30 11429 C 1097.84 2.8389 2.1712 0
M  V30 11430 C 1097.67 4.2245 1.54162 0
M  V30 11431 C 1096.44 4.87937 1.31322 0
M  V30 11432 C 1098.64 5.04462 1.00112 0
M  V30 11433 N 1096.62 6.10525 0.642842 0
M  V30 11434 C 1097.99 6.18307 0.457805 0
M  V30 11435 C 1100.04 4.89775 0.89583 0
M  V30 11436 C 1098.75 7.19074 -0.180477 0
M  V30 11437 C 1100.77 5.90777 0.271397 0
M  V30 11438 C 1100.13 7.03915 -0.261225 0
M  V30 11439 H 1096.23 0.667121 0.408012 0
M  V30 11440 H 1098.82 1.89577 0.443695 0
M  V30 11441 H 1096.99 2.63578 2.85274 0
M  V30 11442 H 1098.72 2.88302 2.84014 0
M  V30 11443 H 1095.48 4.46345 1.58344 0
M  V30 11444 H 1095.9 6.76223 0.324204 0
M  V30 11445 H 1100.54 4.0253 1.29344 0
M  V30 11446 H 1098.26 8.05942 -0.590141 0
M  V30 11447 H 1101.85 5.81485 0.191417 0
M  V30 11448 H 1100.73 7.80731 -0.736791 0
M  V30 11449 N 1098.23 -0.663929 1.42933 0
M  V30 11450 C 1099.46 -1.45192 1.474 0
M  V30 11451 C 1099.87 -1.88592 0.0886014 0
M  V30 11452 O 1099.23 -1.58824 -0.898962 0
M  V30 11453 C 1099.28 -2.69394 2.41059 0
M  V30 11454 O 1099 -2.27812 3.7421 0
M  V30 11455 C 1100.5 -3.62855 2.54659 0
M  V30 11456 H 1097.72 -0.446394 0.500973 0
M  V30 11457 H 1100.27 -0.814875 1.87563 0
M  V30 11458 H 1098.42 -3.29262 2.0412 0
M  V30 11459 H 1098.83 -3.08095 4.24474 0
M  V30 11460 H 1100.31 -4.46698 3.24291 0
M  V30 11461 H 1100.79 -4.09487 1.58799 0
M  V30 11462 H 1101.39 -3.08874 2.92364 0
M  V30 11463 N 1099.71 -1.29285 -0.901281 0
M  V30 11464 C 1100.62 -1.16161 -2.03823 0
M  V30 11465 C 1101.63 -0.0852298 -1.73791 0
M  V30 11466 O 1102.81 -0.29699 -1.99198 0
M  V30 11467 C 1099.87 -0.837586 -3.3643 0
M  V30 11468 C 1098.93 -1.99764 -3.7999 0
M  V30 11469 C 1098.17 -1.68898 -5.0627 0
M  V30 11470 O 1098.39 -0.609177 -5.67138 0
M  V30 11471 O 1097.32 -2.53648 -5.45845 0
M  V30 11472 H 1101.15 -2.11635 -2.17817 0
M  V30 11473 H 1098.74 -1.08722 -1.02468 0
M  V30 11474 H 1100.62 -0.671376 -4.16017 0
M  V30 11475 H 1099.29 0.0873811 -3.23582 0
M  V30 11476 H 1098.2 -2.21908 -3.01177 0
M  V30 11477 H 1099.53 -2.90376 -3.9742 0
M  V30 11478 N 1101.18 1.11143 -1.11736 0
M  V30 11479 C 1102.12 2.1705 -0.736325 0
M  V30 11480 C 1103.13 1.61116 0.233528 0
M  V30 11481 O 1104.32 1.78493 0.0159602 0
M  V30 11482 C 1101.42 3.38832 -0.067974 0
M  V30 11483 C 1100.59 4.24226 -1.06543 0
M  V30 11484 C 1099.65 5.24472 -0.426063 0
M  V30 11485 O 1098.68 5.58843 -1.0809 0
M  V30 11486 N 1099.88 5.74825 0.809711 0
M  V30 11487 H 1102.64 2.50349 -1.64758 0
M  V30 11488 H 1100.2 1.26693 -1.00799 0
M  V30 11489 H 1102.2 4.02991 0.371563 0
M  V30 11490 H 1100.77 3.0357 0.745917 0
M  V30 11491 H 1099.99 3.56475 -1.68283 0
M  V30 11492 H 1101.27 4.78117 -1.74016 0
M  V30 11493 H 1100.67 5.49088 1.36084 0
M  V30 11494 H 1099.23 6.40804 1.19218 0
M  V30 11495 N 1102.66 0.908147 1.28804 0
M  V30 11496 C 1103.91 0.53734 1.94826 0
M  V30 11497 C 1104.23 -0.920962 1.71882 0
M  V30 11498 O 1103.5 -1.65043 1.05534 0
M  V30 11499 H 1102.08 0.195729 0.720902 0
M  V30 11500 H 1104.74 1.15628 1.56895 0
M  V30 11501 H 1103.84 0.727052 3.03513 0
M  V30 11502 N 1104.14 -1.42577 0.671525 0
M  V30 11503 C 1105.09 -2.32591 -0.0205354 0
M  V30 11504 C 1106.08 -1.4964 -0.793993 0
M  V30 11505 O 1107.29 -1.65733 -0.702327 0
M  V30 11506 H 1103.66 -0.75157 -0.0254344 0
M  V30 11507 H 1105.63 -2.88662 0.756082 0
M  V30 11508 C 1104.38 -3.34175 -0.960316 0
M  V30 11509 H 1103.71 -3.98041 -0.374577 0
M  V30 11510 H 1105.15 -3.99752 -1.4133 0
M  V30 11511 C 1103.61 -2.66184 -2.06513 0
M  V30 11512 O 1104.14 -2.49125 -3.15119 0
M  V30 11513 N 1102.34 -2.25261 -1.83591 0
M  V30 11514 H 1101.89 -2.39336 -0.952689 0
M  V30 11515 H 1101.85 -1.80101 -2.57703 0
M  V30 11516 N 1105.62 -0.414636 -1.52048 0
M  V30 11517 C 1106.55 0.443601 -2.24866 0
M  V30 11518 C 1107.56 1.00556 -1.28032 0
M  V30 11519 O 1108.75 0.903566 -1.53941 0
M  V30 11520 C 1105.85 1.63004 -2.97124 0
M  V30 11521 C 1105.03 1.191 -4.20873 0
M  V30 11522 C 1104.08 2.24497 -4.75907 0
M  V30 11523 O 1103.11 1.84861 -5.38345 0
M  V30 11524 N 1104.31 3.56727 -4.57959 0
M  V30 11525 H 1107.08 -0.180393 -2.99157 0
M  V30 11526 H 1104.64 -0.242305 -1.60077 0
M  V30 11527 H 1106.63 2.33089 -3.30835 0
M  V30 11528 H 1105.2 2.15984 -2.25986 0
M  V30 11529 H 1104.42 0.318059 -3.92915 0
M  V30 11530 H 1105.71 0.874699 -5.01225 0
M  V30 11531 H 1105.11 3.91675 -4.08175 0
M  V30 11532 H 1103.66 4.22772 -4.96092 0
M  V30 11533 N 1107.1 1.56929 -0.145233 0
M  V30 11534 C 1108.03 2.12449 0.833107 0
M  V30 11535 C 1109.01 1.0476 1.24355 0
M  V30 11536 O 1110.19 1.32579 1.33997 0
M  V30 11537 C 1107.32 2.64274 2.11842 0
M  V30 11538 C 1106.36 3.84093 1.85404 0
M  V30 11539 S 1107.2 5.25172 1.04663 0
M  V30 11540 C 1108.35 5.80384 2.34318 0
M  V30 11541 H 1108.59 2.951 0.360969 0
M  V30 11542 H 1106.12 1.54246 0.0690187 0
M  V30 11543 H 1108.08 2.94783 2.8568 0
M  V30 11544 H 1106.74 1.81756 2.56171 0
M  V30 11545 H 1105.93 4.18593 2.80706 0
M  V30 11546 H 1105.53 3.54336 1.19675 0
M  V30 11547 H 1107.83 5.91709 3.29981 0
M  V30 11548 H 1108.77 6.7798 2.04325 0
M  V30 11549 H 1109.18 5.08617 2.44885 0
M  V30 11550 N 1108.58 -0.128553 1.57075 0
M  V30 11551 C 1109.54 -1.14215 1.98715 0
M  V30 11552 C 1110.54 -1.34843 0.876019 0
M  V30 11553 O 1111.73 -1.31522 1.14227 0
M  V30 11554 C 1108.86 -2.49865 2.31905 0
M  V30 11555 H 1110.05 -0.784481 2.89458 0
M  V30 11556 H 1107.61 -0.372531 1.51796 0
M  V30 11557 H 1108.34 -2.9057 1.44012 0
M  V30 11558 H 1108.13 -2.3625 3.12935 0
M  V30 11559 H 1109.62 -3.22832 2.64895 0
M  V30 11560 N 1110.05 -1.5248 -0.398459 0
M  V30 11561 C 1111 -1.77211 -1.50662 0
M  V30 11562 C 1112 -0.639638 -1.5686 0
M  V30 11563 O 1113.2 -0.821917 -1.60139 0
M  V30 11564 H 1109.58 -0.56057 -0.501264 0
M  V30 11565 H 1111.55 -2.70028 -1.26993 0
M  V30 11566 C 1110.3 -1.94944 -2.8791 0
M  V30 11567 H 1109.62 -2.8151 -2.83888 0
M  V30 11568 H 1111.06 -2.16243 -3.64712 0
M  V30 11569 C 1109.52 -0.719402 -3.29129 0
M  V30 11570 O 1110.05 0.107671 -4.01556 0
M  V30 11571 N 1108.25 -0.552228 -2.85305 0
M  V30 11572 H 1107.8 -1.22638 -2.26534 0
M  V30 11573 H 1107.76 0.269447 -3.13243 0
M  V30 11574 N 1111.53 0.65634 -1.43283 0
M  V30 11575 C 1112.95 0.971645 -1.26614 0
M  V30 11576 C 1113.15 2.00662 -0.183612 0
M  V30 11577 O 1112.2 2.48654 0.439003 0
M  V30 11578 C 1113.52 1.45888 -2.6294 0
M  V30 11579 C 1115.06 1.57569 -2.70446 0
M  V30 11580 C 1115.54 2.09684 -4.07181 0
M  V30 11581 N 1117.03 2.16991 -4.0923 0
M  V30 11582 C 1117.77 2.5843 -5.11861 0
M  V30 11583 N 1117.26 2.99188 -6.24867 0
M  V30 11584 N 1119.05 2.58342 -4.99215 0
M  V30 11585 H 1111.21 -0.028573 -2.12381 0
M  V30 11586 H 1113.47 0.0497918 -0.946691 0
M  V30 11587 H 1113.17 0.772823 -3.43104 0
M  V30 11588 H 1113.05 2.43445 -2.88122 0
M  V30 11589 H 1115.44 2.25277 -1.90616 0
M  V30 11590 H 1115.52 0.584529 -2.49032 0
M  V30 11591 H 1115.16 1.42579 -4.87477 0
M  V30 11592 H 1115.09 3.09625 -4.25958 0
M  V30 11593 H 1117.58 1.88278 -3.27658 0
M  V30 11594 H 1117.89 3.29549 -6.99012 0
M  V30 11595 H 1116.24 2.97 -6.28344 0
M  V30 11596 H 1119.43 2.25875 -4.09998 0
M  V30 11597 H 1119.6 2.90316 -5.79328 0
M  V30 11598 N 1113.01 1.29761 0.894412 0
M  V30 11599 C 1114.29 1.08711 1.62608 0
M  V30 11600 C 1114.67 -0.366907 2.07887 0
M  V30 11601 O 1114.01 -1.35669 1.83865 0
M  V30 11602 C 1114.22 2.07947 2.80284 0
M  V30 11603 C 1115.57 2.39153 3.50843 0
M  V30 11604 O 1116.6 2.06183 2.9046 0
M  V30 11605 O 1115.46 2.95509 4.59713 0
M  V30 11606 H 1112.55 0.416866 0.714249 0
M  V30 11607 H 1115.1 1.41153 0.942015 0
M  V30 11608 H 1113.87 3.05859 2.44061 0
M  V30 11609 H 1113.49 1.76266 3.56393 0
M  V30 11610 N 1114.49 -1.10549 1.12324 0
M  V30 11611 C 1115.44 -2.18944 0.785248 0
M  V30 11612 C 1116.43 -1.67867 -0.227389 0
M  V30 11613 O 1117.64 -1.79796 -0.0857162 0
M  V30 11614 H 1114.01 -0.713976 0.236098 0
M  V30 11615 H 1115.98 -2.44692 1.70788 0
M  V30 11616 C 1114.73 -3.46765 0.25485 0
M  V30 11617 H 1114.05 -3.86428 1.02534 0
M  V30 11618 H 1115.49 -4.23962 0.0566526 0
M  V30 11619 C 1113.95 -3.21185 -1.01695 0
M  V30 11620 O 1114.48 -3.42745 -2.09497 0
M  V30 11621 N 1112.69 -2.7486 -0.943423 0
M  V30 11622 H 1112.24 -2.57515 -0.0660366 0
M  V30 11623 H 1112.19 -2.58122 -1.795 0
M  V30 11624 N 1115.97 -0.914965 -1.28321 0
M  V30 11625 C 1117.19 -0.564023 -1.99583 0
M  V30 11626 C 1117.62 0.847821 -1.6791 0
M  V30 11627 O 1116.97 1.56682 -0.912171 0
M  V30 11628 C 1117.02 -0.781368 -3.52033 0
M  V30 11629 O 1116.13 0.159072 -4.12093 0
M  V30 11630 H 1115.47 -0.218565 -0.626997 0
M  V30 11631 H 1118 -1.23074 -1.63444 0
M  V30 11632 H 1118.01 -0.691946 -4.0209 0
M  V30 11633 H 1116.68 -1.81059 -3.7442 0
M  V30 11634 H 1115.26 0.0208145 -3.72894 0
M  V30 11635 N 1117.44 1.42219 -0.679077 0
M  V30 11636 C 1118.72 1.95155 -0.13188 0
M  V30 11637 C 1119.1 1.6193 1.35433 0
M  V30 11638 O 1118.45 0.917672 2.09263 0
M  V30 11639 C 1118.66 3.46635 -0.405578 0
M  V30 11640 C 1120.01 4.23359 -0.324394 0
M  V30 11641 O 1121.03 3.54578 -0.339564 0
M  V30 11642 O 1119.89 5.45831 -0.270268 0
M  V30 11643 H 1116.98 0.826983 -0.00535438 0
M  V30 11644 H 1119.53 1.52024 -0.754101 0
M  V30 11645 H 1118.3 3.6404 -1.43495 0
M  V30 11646 H 1117.92 3.96823 0.248439 0
M  V30 11647 N 1118.92 0.422693 1.51826 0
M  V30 11648 C 1120.33 -0.0438129 1.86649 0
M  V30 11649 C 1120.68 -1.43246 1.34071 0
M  V30 11650 O 1119.81 -2.05256 0.685501 0
M  V30 11651 C 1120.4 -0.0862802 3.3869 0
M  V30 11652 C 1118.96 -0.497157 3.73102 0
M  V30 11653 C 1118.11 0.319655 2.75451 0
M  V30 11654 H 1121.06 0.639181 1.45259 0
M  V30 11655 H 1121.08 -0.8988 3.69732 0
M  V30 11656 H 1120.59 0.924525 3.76927 0
M  V30 11657 H 1118.69 -1.51411 3.40449 0
M  V30 11658 H 1118.81 -0.232125 4.78537 0
M  V30 11659 H 1117.17 -0.219963 2.53748 0
M  V30 11660 H 1117.95 1.32906 3.16529 0
M  V30 11661 N 1120.4 -1.5685 0.153553 0
M  V30 11662 C 1121.62 -2.01135 -0.505904 0
M  V30 11663 C 1122.05 -1.03301 -1.57196 0
M  V30 11664 O 1121.41 -0.00976022 -1.81297 0
M  V30 11665 C 1121.46 -3.44129 -1.0774 0
M  V30 11666 O 1120.56 -3.49318 -2.19205 0
M  V30 11667 H 1119.9 -0.652496 -0.123062 0
M  V30 11668 H 1122.43 -2.03039 0.252216 0
M  V30 11669 H 1122.44 -3.83066 -1.40444 0
M  V30 11670 H 1121.12 -4.1484 -0.296754 0
M  V30 11671 H 1119.69 -3.22227 -1.8768 0
M  V30 11672 N 1121.88 0.120221 -1.57141 0
M  V30 11673 C 1123.13 0.826586 -1.84423 0
M  V30 11674 C 1123.45 1.80473 -0.738553 0
M  V30 11675 O 1122.72 1.94454 0.23755 0
M  V30 11676 H 1121.3 0.308246 -0.680436 0
M  V30 11677 H 1123.96 0.107835 -1.94601 0
M  V30 11678 H 1123.05 1.37256 -2.80298 0
M  V30 11679 N 1123.36 1.52689 0.390367 0
M  V30 11680 C 1124.29 1.80338 1.48325 0
M  V30 11681 C 1125.27 0.655338 1.56969 0
M  V30 11682 O 1126.45 0.902792 1.7194 0
M  V30 11683 C 1123.58 1.97101 2.85952 0
M  V30 11684 C 1122.54 3.12783 2.92148 0
M  V30 11685 C 1121.86 3.14798 4.32211 0
M  V30 11686 C 1123.16 4.5188 2.61919 0
M  V30 11687 H 1124.86 2.71857 1.25437 0
M  V30 11688 H 1122.4 1.30813 0.601995 0
M  V30 11689 H 1124.36 2.15027 3.62411 0
M  V30 11690 H 1123.08 1.02271 3.10174 0
M  V30 11691 H 1121.74 2.94638 2.18137 0
M  V30 11692 H 1121.39 2.17653 4.53471 0
M  V30 11693 H 1121.09 3.92507 4.37278 0
M  V30 11694 H 1122.61 3.34877 5.10578 0
M  V30 11695 H 1124.02 4.70134 3.28096 0
M  V30 11696 H 1122.42 5.31647 2.78337 0
M  V30 11697 H 1123.49 4.58689 1.57266 0
M  V30 11698 N 1124.83 -0.648732 1.43629 0
M  V30 11699 C 1126.08 -1.40579 1.45196 0
M  V30 11700 C 1126.4 -1.9484 0.0790556 0
M  V30 11701 O 1125.67 -1.74707 -0.886239 0
M  V30 11702 H 1124.25 -0.52175 0.53459 0
M  V30 11703 H 1126.92 -0.764796 1.79268 0
M  V30 11704 H 1126.01 -2.24591 2.16715 0
M  V30 11705 N 1126.31 -1.30234 -0.887518 0
M  V30 11706 C 1127.26 -1.16302 -2.01436 0
M  V30 11707 C 1128.25 -0.0755422 -1.69231 0
M  V30 11708 O 1129.46 -0.236213 -1.78443 0
M  V30 11709 H 1125.84 -0.35961 -0.660443 0
M  V30 11710 H 1127.81 -2.11677 -2.10322 0
M  V30 11711 C 1126.56 -0.869009 -3.36665 0
M  V30 11712 H 1125.88 -1.69787 -3.61956 0
M  V30 11713 H 1127.32 -0.811621 -4.16159 0
M  V30 11714 C 1125.78 0.428021 -3.3417 0
M  V30 11715 O 1126.31 1.45033 -3.74604 0
M  V30 11716 N 1124.51 0.438264 -2.87276 0
M  V30 11717 H 1124.06 -0.394142 -2.54567 0
M  V30 11718 H 1124.02 1.30604 -2.85989 0
M  V30 11719 N 1127.79 1.09952 -1.12909 0
M  V30 11720 C 1129.02 1.8579 -0.910483 0
M  V30 11721 C 1129.43 1.80898 0.540484 0
M  V30 11722 O 1128.79 1.20126 1.3739 0
M  V30 11723 C 1128.84 3.33987 -1.38329 0
M  V30 11724 O 1128.56 3.38811 -2.77739 0
M  V30 11725 C 1130.06 4.26683 -1.20234 0
M  V30 11726 H 1127.28 0.587026 -0.325025 0
M  V30 11727 H 1129.83 1.38965 -1.5003 0
M  V30 11728 H 1127.98 3.78259 -0.836592 0
M  V30 11729 H 1128.4 4.31204 -2.98603 0
M  V30 11730 H 1129.87 5.28846 -1.58197 0
M  V30 11731 H 1130.35 4.38966 -0.14344 0
M  V30 11732 H 1130.95 3.88221 -1.73679 0
M  V30 11733 N 1129.27 0.921757 1.27833 0
M  V30 11734 C 1130.2 0.433466 2.29441 0
M  V30 11735 C 1131.18 -0.503133 1.62489 0
M  V30 11736 O 1132.36 -0.409156 1.89841 0
M  V30 11737 C 1129.49 -0.320029 3.45822 0
M  V30 11738 C 1128.45 0.528178 4.24728 0
M  V30 11739 C 1127.77 -0.354132 5.33526 0
M  V30 11740 C 1129.07 1.78959 4.90684 0
M  V30 11741 H 1130.77 1.28263 2.70535 0
M  V30 11742 H 1128.31 0.618197 1.30055 0
M  V30 11743 H 1130.27 -0.672526 4.15999 0
M  V30 11744 H 1128.99 -1.20317 3.0363 0
M  V30 11745 H 1127.65 0.863302 3.5629 0
M  V30 11746 H 1127.3 -1.23605 4.87576 0
M  V30 11747 H 1127 0.209855 5.87225 0
M  V30 11748 H 1128.52 -0.702333 6.06547 0
M  V30 11749 H 1129.94 1.50552 5.53179 0
M  V30 11750 H 1128.33 2.29661 5.54415 0
M  V30 11751 H 1129.4 2.51265 4.14721 0
M  V30 11752 N 1130.75 -1.41857 0.686609 0
M  V30 11753 C 1131.99 -2.0097 0.213378 0
M  V30 11754 C 1132.32 -1.54618 -1.1882 0
M  V30 11755 O 1131.59 -0.772916 -1.80008 0
M  V30 11756 H 1130.17 -0.743134 0.0758968 0
M  V30 11757 H 1132.83 -1.73609 0.885763 0
M  V30 11758 H 1131.92 -3.11296 0.223826 0
M  V30 11759 N 1132.22 -0.430739 -1.51599 0
M  V30 11760 C 1133.47 0.130424 -2.02981 0
M  V30 11761 C 1133.83 1.40956 -1.30954 0
M  V30 11762 O 1133.12 1.87081 -0.413696 0
M  V30 11763 C 1133.31 0.410694 -3.55032 0
M  V30 11764 C 1133.14 -0.839732 -4.4179 0
M  V30 11765 C 1131.91 -1.37132 -4.86336 0
M  V30 11766 C 1134.11 -1.72401 -4.84543 0
M  V30 11767 N 1132.09 -2.57497 -5.57287 0
M  V30 11768 C 1133.46 -2.77376 -5.54493 0
M  V30 11769 C 1135.52 -1.73921 -4.66536 0
M  V30 11770 C 1134.22 -3.83808 -6.08345 0
M  V30 11771 C 1136.25 -2.79285 -5.213 0
M  V30 11772 C 1135.61 -3.82979 -5.91191 0
M  V30 11773 H 1131.71 0.00873155 -0.781951 0
M  V30 11774 H 1134.29 -0.589932 -1.85548 0
M  V30 11775 H 1132.46 1.10009 -3.72495 0
M  V30 11776 H 1134.19 0.962635 -3.93085 0
M  V30 11777 H 1130.95 -0.926198 -4.64455 0
M  V30 11778 H 1131.37 -3.18515 -5.97392 0
M  V30 11779 H 1136.02 -0.950851 -4.11969 0
M  V30 11780 H 1133.73 -4.63487 -6.61971 0
M  V30 11781 H 1137.32 -2.81395 -5.09223 0
M  V30 11782 H 1136.2 -4.63169 -6.32807 0
M  V30 11783 N 1133.7 1.56767 -0.161869 0
M  V30 11784 C 1134.67 2.16299 0.758104 0
M  V30 11785 C 1135.67 1.10859 1.16478 0
M  V30 11786 O 1136.86 1.36422 1.08327 0
M  V30 11787 C 1133.99 2.73819 2.03067 0
M  V30 11788 H 1135.18 2.98938 0.239992 0
M  V30 11789 H 1132.73 1.56054 0.0876532 0
M  V30 11790 H 1133.47 1.94887 2.59209 0
M  V30 11791 H 1133.25 3.50974 1.74813 0
M  V30 11792 H 1134.74 3.19638 2.68741 0
M  V30 11793 N 1135.18 -0.111886 1.57202 0
M  V30 11794 C 1136.43 -0.8146 1.86376 0
M  V30 11795 C 1136.78 -1.77156 0.750558 0
M  V30 11796 O 1136.07 -1.89977 -0.248867 0
M  V30 11797 C 1136.27 -1.59644 3.19763 0
M  V30 11798 C 1136.1 -0.71669 4.43952 0
M  V30 11799 C 1134.87 -0.36881 5.03952 0
M  V30 11800 C 1137.07 -0.0311316 5.14291 0
M  V30 11801 N 1135.05 0.520861 6.11686 0
M  V30 11802 C 1136.42 0.71726 6.15837 0
M  V30 11803 C 1138.47 0.0445453 4.9788 0
M  V30 11804 C 1137.18 1.53423 7.02747 0
M  V30 11805 C 1139.2 0.848364 5.85283 0
M  V30 11806 C 1138.56 1.58493 6.86338 0
M  V30 11807 H 1134.66 -0.274785 0.732132 0
M  V30 11808 H 1137.25 -0.0779628 1.94544 0
M  V30 11809 H 1135.42 -2.30407 3.12678 0
M  V30 11810 H 1137.15 -2.24504 3.36719 0
M  V30 11811 H 1133.91 -0.712671 4.68207 0
M  V30 11812 H 1134.33 0.957756 6.70191 0
M  V30 11813 H 1138.97 -0.510564 4.19706 0
M  V30 11814 H 1136.69 2.10047 7.80324 0
M  V30 11815 H 1140.28 0.909372 5.74649 0
M  V30 11816 H 1139.16 2.19691 7.52798 0
M  V30 11817 N 1136.66 -1.52894 -0.382264 0
M  V30 11818 C 1137.62 -1.77497 -1.45008 0
M  V30 11819 C 1138.62 -0.64509 -1.47293 0
M  V30 11820 O 1139.81 -0.913192 -1.48346 0
M  V30 11821 C 1136.94 -1.88188 -2.8425 0
M  V30 11822 H 1138.14 -2.72849 -1.24473 0
M  V30 11823 H 1135.69 -1.43717 -0.61441 0
M  V30 11824 H 1136.42 -0.948451 -3.10121 0
M  V30 11825 H 1136.21 -2.70353 -2.83992 0
M  V30 11826 H 1137.7 -2.08873 -3.6161 0
M  V30 11827 N 1138.14 0.641106 -1.43971 0
M  V30 11828 C 1139.38 1.40118 -1.4744 0
M  V30 11829 C 1139.74 1.92131 -0.101647 0
M  V30 11830 O 1139.03 1.70112 0.881614 0
M  V30 11831 C 1139.23 2.59092 -2.46183 0
M  V30 11832 C 1139.05 2.18725 -3.92924 0
M  V30 11833 C 1137.82 2.06475 -4.6119 0
M  V30 11834 C 1140.02 1.78255 -4.82421 0
M  V30 11835 N 1138 1.59566 -5.928 0
M  V30 11836 C 1139.38 1.42517 -6.03398 0
M  V30 11837 C 1141.43 1.65546 -4.69573 0
M  V30 11838 C 1140.13 0.953428 -7.12953 0
M  V30 11839 C 1142.16 1.19776 -5.79144 0
M  V30 11840 C 1141.52 0.84983 -6.99255 0
M  V30 11841 H 1137.62 0.507917 -0.594596 0
M  V30 11842 H 1140.2 0.736517 -1.80232 0
M  V30 11843 H 1138.38 3.232 -2.15398 0
M  V30 11844 H 1140.11 3.25847 -2.40012 0
M  V30 11845 H 1136.86 2.26615 -4.15863 0
M  V30 11846 H 1137.29 1.38438 -6.62694 0
M  V30 11847 H 1141.93 1.91081 -3.77158 0
M  V30 11848 H 1139.65 0.68558 -8.05187 0
M  V30 11849 H 1143.23 1.10415 -5.71226 0
M  V30 11850 H 1142.11 0.501081 -7.82597 0
M  V30 11851 N 1139.62 1.30703 0.880598 0
M  V30 11852 C 1141.03 1.17818 1.4483 0
M  V30 11853 C 1141.38 -0.219456 1.94969 0
M  V30 11854 O 1140.5 -1.11646 1.85375 0
M  V30 11855 C 1141.1 2.13275 2.63247 0
M  V30 11856 C 1139.66 2.04356 3.16094 0
M  V30 11857 C 1138.8 2.03108 1.88792 0
M  V30 11858 H 1141.75 1.42909 0.690125 0
M  V30 11859 H 1141.78 1.71615 3.39601 0
M  V30 11860 H 1141.29 3.14988 2.26725 0
M  V30 11861 H 1139.39 1.058 3.57263 0
M  V30 11862 H 1139.5 2.92953 3.79098 0
M  V30 11863 H 1137.87 1.47971 2.07308 0
M  V30 11864 H 1138.65 3.06558 1.54521 0
M  V30 11865 N 1141.09 -1.09351 1.1349 0
M  V30 11866 C 1142.02 -2.18037 0.835588 0
M  V30 11867 C 1143 -1.68856 -0.205373 0
M  V30 11868 O 1144.19 -1.94094 -0.0641357 0
M  V30 11869 C 1141.32 -3.45987 0.301661 0
M  V30 11870 C 1140.27 -4.08507 1.27696 0
M  V30 11871 C 1139.6 -5.31292 0.602758 0
M  V30 11872 C 1140.9 -4.50916 2.63575 0
M  V30 11873 H 1142.59 -2.43332 1.74441 0
M  V30 11874 H 1140.14 -1.1695 0.840166 0
M  V30 11875 H 1142.09 -4.21324 0.079928 0
M  V30 11876 H 1140.82 -3.20217 -0.642552 0
M  V30 11877 H 1139.48 -3.3519 1.4847 0
M  V30 11878 H 1139.12 -5.01802 -0.346953 0
M  V30 11879 H 1138.82 -5.74075 1.25345 0
M  V30 11880 H 1140.35 -6.09351 0.390325 0
M  V30 11881 H 1141.76 -5.17474 2.46765 0
M  V30 11882 H 1140.16 -5.04586 3.24827 0
M  V30 11883 H 1141.23 -3.63279 3.2118 0
M  V30 11884 N 1142.57 -0.928524 -1.27343 0
M  V30 11885 C 1143.52 -0.418768 -2.28799 0
M  V30 11886 C 1144.51 0.497334 -1.61935 0
M  V30 11887 O 1145.72 0.376945 -1.76009 0
M  V30 11888 H 1142.09 -0.116855 -0.742865 0
M  V30 11889 H 1144.07 -1.28725 -2.69207 0
M  V30 11890 C 1142.81 0.312422 -3.46294 0
M  V30 11891 H 1142.14 -0.383317 -3.97958 0
M  V30 11892 H 1143.58 0.633514 -4.19241 0
M  V30 11893 C 1142.04 1.5257 -3.00373 0
M  V30 11894 O 1142.57 2.62443 -3.04116 0
M  V30 11895 N 1140.77 1.37782 -2.5586 0
M  V30 11896 H 1140.32 0.483908 -2.53014 0
M  V30 11897 H 1140.28 2.19085 -2.25498 0
M  V30 11898 N 1144.05 1.41491 -0.694123 0
M  V30 11899 C 1145.47 1.55358 -0.365532 0
M  V30 11900 C 1145.67 1.66994 1.12762 0
M  V30 11901 O 1144.72 1.64756 1.91342 0
M  V30 11902 C 1146.03 2.79352 -1.11279 0
M  V30 11903 C 1147.58 2.93147 -1.097 0
M  V30 11904 C 1148.06 4.20027 -1.82597 0
M  V30 11905 N 1149.55 4.26981 -1.7956 0
M  V30 11906 C 1150.28 5.24013 -2.32805 0
M  V30 11907 N 1149.78 6.27083 -2.94515 0
M  V30 11908 N 1151.57 5.15943 -2.23069 0
M  V30 11909 H 1143.72 1.32183 -1.66257 0
M  V30 11910 H 1145.99 0.637624 -0.701527 0
M  V30 11911 H 1145.69 2.76958 -2.16765 0
M  V30 11912 H 1145.57 3.70827 -0.690439 0
M  V30 11913 H 1147.95 2.95057 -0.0504037 0
M  V30 11914 H 1148.03 2.02849 -1.55839 0
M  V30 11915 H 1147.68 4.18878 -2.87235 0
M  V30 11916 H 1147.61 5.09294 -1.33893 0
M  V30 11917 H 1150.1 3.53129 -1.34567 0
M  V30 11918 H 1150.41 6.97511 -3.32714 0
M  V30 11919 H 1148.76 6.27589 -2.98592 0
M  V30 11920 H 1151.95 4.34346 -1.74532 0
M  V30 11921 H 1152.12 5.91396 -2.64868 0
M  V30 11922 N 1145.53 0.438773 1.51369 0
M  V30 11923 C 1146.94 0.0911416 1.5934 0
M  V30 11924 C 1147.14 -1.39962 1.44958 0
M  V30 11925 O 1146.2 -2.16968 1.29155 0
M  V30 11926 C 1147.51 0.612531 2.94395 0
M  V30 11927 C 1149.06 0.573098 3.07709 0
M  V30 11928 C 1149.54 1.07149 4.4529 0
M  V30 11929 N 1151.03 1.02953 4.51614 0
M  V30 11930 C 1151.76 1.38602 5.56397 0
M  V30 11931 N 1151.26 1.81543 6.68591 0
M  V30 11932 N 1153.05 1.30409 5.46763 0
M  V30 11933 H 1145.2 1.40872 1.58962 0
M  V30 11934 H 1147.46 0.580589 0.749414 0
M  V30 11935 H 1147.17 1.65562 3.10294 0
M  V30 11936 H 1147.04 0.0382375 3.77181 0
M  V30 11937 H 1149.43 -0.461006 2.91477 0
M  V30 11938 H 1149.51 1.18381 2.26759 0
M  V30 11939 H 1149.16 2.10406 4.62268 0
M  V30 11940 H 1149.09 0.437297 5.24781 0
M  V30 11941 H 1151.58 0.714208 3.7109 0
M  V30 11942 H 1151.89 2.06977 7.44567 0
M  V30 11943 H 1150.24 1.8547 6.69795 0
M  V30 11944 H 1153.43 0.967272 4.57997 0
M  V30 11945 H 1153.6 1.5852 6.28312 0
M  V30 11946 N 1147.01 -1.56678 0.170181 0
M  V30 11947 C 1148.25 -1.9714 -0.475767 0
M  V30 11948 C 1148.58 -1.05611 -1.62972 0
M  V30 11949 O 1147.86 -0.103017 -1.94227 0
M  V30 11950 C 1148.14 -3.47072 -0.959828 0
M  V30 11951 C 1148 -4.4938 0.194225 0
M  V30 11952 C 1149.31 -4.00071 -1.83387 0
M  V30 11953 H 1146.43 -0.716776 -0.171466 0
M  V30 11954 H 1149.08 -1.88266 0.256086 0
M  V30 11955 H 1147.23 -3.54766 -1.58346 0
M  V30 11956 H 1148.9 -4.53748 0.83128 0
M  V30 11957 H 1147.14 -4.25393 0.849893 0
M  V30 11958 H 1147.81 -5.51685 -0.186575 0
M  V30 11959 H 1150.29 -3.95002 -1.30815 0
M  V30 11960 H 1149.16 -5.05398 -2.14159 0
M  V30 11961 H 1149.42 -3.43819 -2.77923 0
M  V30 11962 N 1148.48 0.103547 -1.57259 0
M  V30 11963 C 1149.41 1.12714 -2.04494 0
M  V30 11964 C 1150.39 1.42278 -0.932255 0
M  V30 11965 O 1151.58 1.52453 -1.20298 0
M  V30 11966 C 1148.71 2.44927 -2.46228 0
M  V30 11967 C 1147.66 2.2979 -3.61082 0
M  V30 11968 C 1146.99 3.67105 -3.88765 0
M  V30 11969 C 1148.29 1.7455 -4.9227 0
M  V30 11970 H 1149.98 0.734198 -2.90258 0
M  V30 11971 H 1147.53 0.351725 -1.39638 0
M  V30 11972 H 1149.48 3.16798 -2.77879 0
M  V30 11973 H 1148.21 2.8614 -1.57453 0
M  V30 11974 H 1146.87 1.60366 -3.29664 0
M  V30 11975 H 1146.51 4.05831 -2.97171 0
M  V30 11976 H 1146.21 3.57825 -4.66084 0
M  V30 11977 H 1147.74 4.40456 -4.22884 0
M  V30 11978 H 1149.15 2.36253 -5.22358 0
M  V30 11979 H 1147.55 1.76051 -5.73695 0
M  V30 11980 H 1148.62 0.704242 -4.79759 0
M  V30 11981 N 1149.96 1.53094 0.37415 0
M  V30 11982 C 1151.19 1.72508 1.13687 0
M  V30 11983 C 1151.6 0.449922 1.83773 0
M  V30 11984 O 1150.94 -0.586391 1.74089 0
M  V30 11985 C 1151 2.82965 2.21746 0
M  V30 11986 C 1150.67 4.23599 1.71501 0
M  V30 11987 C 1151.67 5.06245 1.1837 0
M  V30 11988 C 1149.35 4.69978 1.77273 0
M  V30 11989 C 1151.34 6.33357 0.71679 0
M  V30 11990 C 1149.03 5.9707 1.30194 0
M  V30 11991 C 1150.03 6.7859 0.774856 0
M  V30 11992 O 1149.72 8.03298 0.310981 0
M  V30 11993 H 1149.45 0.580611 0.346218 0
M  V30 11994 H 1152 2.00596 0.441614 0
M  V30 11995 H 1150.23 2.5033 2.9474 0
M  V30 11996 H 1151.92 2.90638 2.83345 0
M  V30 11997 H 1152.69 4.71591 1.13256 0
M  V30 11998 H 1148.57 4.06605 2.17241 0
M  V30 11999 H 1152.11 6.96934 0.30471 0
M  V30 12000 H 1148.01 6.31225 1.34999 0
M  V30 12001 H 1148.78 8.17364 0.431098 0
M  V30 12002 N 1151.44 -0.633461 1.44309 0
M  V30 12003 C 1152.39 -1.76674 1.51292 0
M  V30 12004 C 1153.38 -1.64972 0.384807 0
M  V30 12005 O 1154.59 -1.71079 0.559653 0
M  V30 12006 H 1150.96 -0.583238 0.474697 0
M  V30 12007 H 1152.93 -1.67907 2.46678 0
M  V30 12008 C 1151.68 -3.15002 1.47205 0
M  V30 12009 H 1151.01 -3.24653 2.33325 0
M  V30 12010 H 1152.45 -3.94199 1.56151 0
M  V30 12011 C 1150.9 -3.3635 0.192464 0
M  V30 12012 O 1151.43 -3.94857 -0.738285 0
M  V30 12013 N 1149.64 -2.9044 0.0963424 0
M  V30 12014 H 1149.19 -2.43011 0.85459 0
M  V30 12015 H 1149.15 -3.05099 -0.759061 0
M  V30 12016 N 1152.92 -1.31168 -0.873655 0
M  V30 12017 C 1154.33 -1.09745 -1.1588 0
M  V30 12018 C 1154.53 0.134471 -2.01051 0
M  V30 12019 O 1153.59 0.824857 -2.38647 0
M  V30 12020 C 1154.9 -2.36704 -1.85451 0
M  V30 12021 C 1156.45 -2.42278 -1.98167 0
M  V30 12022 C 1156.93 -3.69108 -2.71152 0
M  V30 12023 N 1158.42 -3.69981 -2.7869 0
M  V30 12024 C 1159.15 -4.64811 -3.35765 0
M  V30 12025 N 1158.65 -5.69995 -3.938 0
M  V30 12026 N 1160.44 -4.52337 -3.33688 0
M  V30 12027 H 1152.59 -2.10184 -0.306021 0
M  V30 12028 H 1154.86 -0.927058 -0.198159 0
M  V30 12029 H 1154.56 -3.26666 -1.30316 0
M  V30 12030 H 1154.44 -2.46219 -2.85755 0
M  V30 12031 H 1156.82 -1.52787 -2.52468 0
M  V30 12032 H 1156.9 -2.3673 -0.969164 0
M  V30 12033 H 1156.55 -4.58963 -2.1752 0
M  V30 12034 H 1156.48 -3.71922 -3.72803 0
M  V30 12035 H 1158.97 -2.93944 -2.37498 0
M  V30 12036 H 1159.28 -6.38438 -4.3545 0
M  V30 12037 H 1157.63 -5.73773 -3.92186 0
M  V30 12038 H 1160.82 -3.69341 -2.87584 0
M  V30 12039 H 1160.99 -5.2642 -3.77871 0
M  V30 12040 N 1154.4 1.08748 -1.14068 0
M  V30 12041 C 1155.36 2.1375 -0.827266 0
M  V30 12042 C 1156.36 1.59936 0.166496 0
M  V30 12043 O 1157.55 1.74092 -0.0614305 0
M  V30 12044 C 1154.68 3.40106 -0.232557 0
M  V30 12045 H 1155.87 2.42985 -1.7578 0
M  V30 12046 H 1153.43 1.24402 -0.946244 0
M  V30 12047 H 1154.16 3.16503 0.706859 0
M  V30 12048 H 1153.95 3.8046 -0.948293 0
M  V30 12049 H 1155.44 4.17589 -0.0303662 0
M  V30 12050 N 1155.87 0.935264 1.26849 0
M  V30 12051 C 1157.1 0.595704 1.98661 0
M  V30 12052 C 1157.52 -0.821001 1.69237 0
M  V30 12053 O 1156.88 -1.55211 0.936982 0
M  V30 12054 C 1156.93 0.837275 3.50745 0
M  V30 12055 O 1156.03 -0.0934914 4.12294 0
M  V30 12056 H 1155.38 0.228512 0.623441 0
M  V30 12057 H 1157.91 1.25658 1.61466 0
M  V30 12058 H 1157.92 0.755827 4.00938 0
M  V30 12059 H 1156.59 1.86993 3.71492 0
M  V30 12060 H 1155.17 0.0385124 3.7288 0
M  V30 12061 N 1157.35 -1.41121 0.701616 0
M  V30 12062 C 1158.32 -2.29148 0.0490091 0
M  V30 12063 C 1159.32 -1.44679 -0.701763 0
M  V30 12064 O 1160.51 -1.65757 -0.53575 0
M  V30 12065 C 1157.64 -3.2766 -0.940837 0
M  V30 12066 H 1158.83 -2.88354 0.824133 0
M  V30 12067 H 1156.38 -1.49209 0.465457 0
M  V30 12068 H 1157.12 -2.73445 -1.74351 0
M  V30 12069 H 1156.9 -3.89997 -0.405551 0
M  V30 12070 H 1158.39 -3.93609 -1.39507 0
M  V30 12071 N 1158.83 -0.446794 -1.51134 0
M  V30 12072 C 1160.11 0.176892 -1.94798 0
M  V30 12073 C 1160.49 1.59229 -1.38598 0
M  V30 12074 O 1159.84 2.21097 -0.576905 0
M  V30 12075 C 1160.05 0.145 -3.48699 0
M  V30 12076 C 1161.39 0.345917 -4.23189 0
M  V30 12077 O 1162.42 0.222691 -3.55503 0
M  V30 12078 O 1161.28 0.592112 -5.43283 0
M  V30 12079 H 1158.37 0.12486 -0.81752 0
M  V30 12080 H 1160.92 -0.505453 -1.61998 0
M  V30 12081 H 1159.69 -0.844156 -3.82086 0
M  V30 12082 H 1159.31 0.869851 -3.87968 0
M  V30 12083 N 1160.31 1.56586 -0.178487 0
M  V30 12084 C 1161.56 1.96273 0.464745 0
M  V30 12085 C 1161.87 1.0675 1.63902 0
M  V30 12086 O 1163.08 1.36148 2.34896 0
M  V30 12087 C 1161.53 3.49021 0.878207 0
M  V30 12088 C 1161.14 4.4718 -0.270861 0
M  V30 12089 C 1162.88 3.97512 1.48946 0
M  V30 12090 C 1160.79 5.91176 0.162632 0
M  V30 12091 H 1159.72 0.732834 0.177398 0
M  V30 12092 H 1162.37 1.81534 -0.267861 0
M  V30 12093 H 1160.75 3.59203 1.667 0
M  V30 12094 H 1161.93 4.48718 -1.04826 0
M  V30 12095 H 1160.24 4.08788 -0.792529 0
M  V30 12096 H 1162.84 5.02556 1.82595 0
M  V30 12097 H 1163.18 3.40861 2.38997 0
M  V30 12098 H 1163.72 3.90376 0.76496 0
M  V30 12099 H 1160.46 6.51716 -0.703286 0
M  V30 12100 H 1159.98 5.9293 0.905243 0
M  V30 12101 H 1161.65 6.44174 0.604084 0
M  V30 12102 N 1161.79 -0.095206 1.57312 0
M  V30 12103 C 1162.73 -1.13438 2.03063 0
M  V30 12104 C 1163.73 -1.41478 0.931679 0
M  V30 12105 O 1164.93 -1.41161 1.11686 0
M  V30 12106 H 1161.31 -0.383042 0.647134 0
M  V30 12107 H 1163.28 -0.722186 2.89529 0
M  V30 12108 C 1162.03 -2.44641 2.47075 0
M  V30 12109 H 1161.35 -2.23908 3.31218 0
M  V30 12110 H 1162.79 -3.15855 2.82863 0
M  V30 12111 C 1161.25 -3.08931 1.34399 0
M  V30 12112 O 1161.78 -3.96021 0.673071 0
M  V30 12113 N 1159.99 -2.6918 1.09501 0
M  V30 12114 H 1159.53 -1.98451 1.6424 0
M  V30 12115 H 1159.49 -3.12522 0.34311 0
M  V30 12116 N 1163.26 -1.53291 -0.366026 0
M  V30 12117 C 1164.51 -1.69117 -1.10653 0
M  V30 12118 C 1164.83 -0.445327 -1.89847 0
M  V30 12119 O 1164.1 0.540616 -1.88293 0
M  V30 12120 H 1162.68 -0.623446 -0.41149 0
M  V30 12121 H 1165.35 -1.90479 -0.412749 0
M  V30 12122 H 1164.44 -2.55205 -1.79658 0
M  V30 12123 N 1164.74 0.6258 -1.44643 0
M  V30 12124 C 1165.69 1.73751 -1.51919 0
M  V30 12125 C 1166.66 1.62007 -0.36647 0
M  V30 12126 O 1167.84 1.81852 -0.577439 0
M  V30 12127 C 1164.98 3.12015 -1.47448 0
M  V30 12128 C 1164.1 3.34696 -2.73135 0
M  V30 12129 C 1163.23 4.62962 -2.6046 0
M  V30 12130 C 1162.27 4.7884 -3.81286 0
M  V30 12131 N 1161.41 5.98388 -3.67255 0
M  V30 12132 H 1166.25 1.66867 -2.46899 0
M  V30 12133 H 1163.79 0.813921 -1.22531 0
M  V30 12134 H 1165.74 3.91983 -1.42846 0
M  V30 12135 H 1164.37 3.179 -0.560312 0
M  V30 12136 H 1163.43 2.4863 -2.87901 0
M  V30 12137 H 1164.74 3.42306 -3.62806 0
M  V30 12138 H 1163.89 5.51099 -2.53722 0
M  V30 12139 H 1162.63 4.57719 -1.68359 0
M  V30 12140 H 1161.64 3.89131 -3.88403 0
M  V30 12141 H 1162.86 4.85893 -4.74431 0
M  V30 12142 H 1160.81 5.94224 -2.77909 0
M  V30 12143 H 1160.72 6.07078 -4.50547 0
M  V30 12144 H 1161.99 6.89072 -3.64417 0
M  V30 12145 N 1166.22 1.31629 0.866686 0
M  V30 12146 C 1167.63 1.19347 1.43573 0
M  V30 12147 C 1167.98 -0.198765 1.95191 0
M  V30 12148 O 1167.11 -1.09674 1.86549 0
M  V30 12149 C 1167.7 2.16055 2.6097 0
M  V30 12150 C 1166.26 2.07697 3.13909 0
M  V30 12151 C 1165.41 2.05099 1.86627 0
M  V30 12152 H 1168.36 1.43633 0.674929 0
M  V30 12153 H 1168.38 1.75207 3.37761 0
M  V30 12154 H 1167.89 3.17375 2.23371 0
M  V30 12155 H 1165.99 1.09583 3.56121 0
M  V30 12156 H 1166.11 2.96958 3.75969 0
M  V30 12157 H 1164.47 1.50162 2.05727 0
M  V30 12158 H 1165.25 3.0818 1.51261 0
M  V30 12159 N 1167.7 -1.08142 1.14644 0
M  V30 12160 C 1168.95 -1.81015 0.927648 0
M  V30 12161 C 1169.3 -1.8467 -0.539885 0
M  V30 12162 O 1168.59 -1.31353 -1.39488 0
M  V30 12163 C 1168.79 -3.25962 1.46573 0
M  V30 12164 C 1168.62 -3.36429 2.98405 0
M  V30 12165 C 1167.39 -3.4746 3.66878 0
M  V30 12166 C 1169.58 -3.27855 3.96252 0
M  V30 12167 N 1167.57 -3.46746 5.06597 0
M  V30 12168 C 1168.94 -3.34165 5.22239 0
M  V30 12169 C 1170.99 -3.11611 3.88334 0
M  V30 12170 C 1169.7 -3.25903 6.41233 0
M  V30 12171 C 1171.72 -3.04679 5.06877 0
M  V30 12172 C 1171.08 -3.11594 6.31735 0
M  V30 12173 H 1167.18 -0.676065 0.393014 0
M  V30 12174 H 1169.77 -1.29145 1.45704 0
M  V30 12175 H 1167.94 -3.7627 0.96308 0
M  V30 12176 H 1169.67 -3.86914 1.18659 0
M  V30 12177 H 1166.42 -3.51466 3.17441 0
M  V30 12178 H 1166.85 -3.49939 5.79544 0
M  V30 12179 H 1171.49 -3.05125 2.92675 0
M  V30 12180 H 1169.21 -3.3115 7.37133 0
M  V30 12181 H 1172.79 -2.93226 5.02503 0
M  V30 12182 H 1171.67 -3.06264 7.21922 0
M  V30 12183 N 1169.18 -0.941978 -1.26351 0
M  V30 12184 C 1170.45 -0.507822 -1.88893 0
M  V30 12185 C 1170.83 1.0146 -1.85119 0
M  V30 12186 O 1170.18 1.87495 -1.30606 0
M  V30 12187 C 1170.39 -1.07007 -3.3219 0
M  V30 12188 C 1171.74 -1.13922 -4.09032 0
M  V30 12189 O 1172.76 -1.02072 -3.41262 0
M  V30 12190 O 1171.62 -1.32362 -5.30229 0
M  V30 12191 H 1168.72 -0.165621 -0.810246 0
M  V30 12192 H 1171.26 -1.03459 -1.34515 0
M  V30 12193 H 1170.04 -2.11366 -3.29302 0
M  V30 12194 H 1169.66 -0.525797 -3.94108 0
M  V30 12195 N 1170.66 1.40747 -0.709091 0
M  V30 12196 C 1172.07 1.83955 -0.318968 0
M  V30 12197 C 1172.42 1.59304 1.14527 0
M  V30 12198 O 1171.54 1.07052 1.88066 0
M  V30 12199 C 1172.14 3.33934 -0.572147 0
M  V30 12200 C 1170.7 3.75661 -0.235802 0
M  V30 12201 C 1169.84 2.64024 -0.847743 0
M  V30 12202 H 1172.79 1.30107 -0.908734 0
M  V30 12203 H 1172.82 3.80143 0.164752 0
M  V30 12204 H 1172.33 3.51844 -1.63791 0
M  V30 12205 H 1170.43 3.63348 0.825164 0
M  V30 12206 H 1170.54 4.73955 -0.700263 0
M  V30 12207 H 1168.91 2.53197 -0.276283 0
M  V30 12208 H 1169.69 2.84748 -1.91765 0
M  V30 12209 N 1172.13 0.454803 1.50895 0
M  V30 12210 C 1173.08 -0.347769 2.28165 0
M  V30 12211 C 1174.05 -1.00158 1.32505 0
M  V30 12212 O 1175.24 -1.01715 1.61427 0
M  V30 12213 C 1172.38 -1.43315 3.13934 0
M  V30 12214 C 1171.49 -0.795736 4.24608 0
M  V30 12215 C 1170.62 -1.85763 4.9766 0
M  V30 12216 C 1169.66 -1.19959 6.0023 0
M  V30 12217 N 1168.8 -2.20361 6.66622 0
M  V30 12218 H 1173.64 0.317493 2.96304 0
M  V30 12219 H 1171.18 0.168418 1.46133 0
M  V30 12220 H 1173.13 -2.07391 3.62001 0
M  V30 12221 H 1171.76 -2.0678 2.47875 0
M  V30 12222 H 1170.82 -0.0428173 3.80376 0
M  V30 12223 H 1172.13 -0.275477 4.98039 0
M  V30 12224 H 1171.28 -2.5746 5.49363 0
M  V30 12225 H 1170.02 -2.41166 4.23899 0
M  V30 12226 H 1169.03 -0.46817 5.47803 0
M  V30 12227 H 1170.25 -0.652666 6.75956 0
M  V30 12228 H 1168.2 -2.74812 5.95663 0
M  V30 12229 H 1168.11 -1.73275 7.35875 0
M  V30 12230 H 1169.38 -2.91488 7.22949 0
M  V30 12231 N 1173.61 -1.56489 0.186789 0
M  V30 12232 C 1175.03 -1.58701 -0.169176 0
M  V30 12233 C 1175.23 -1.2027 -1.61671 0
M  V30 12234 O 1174.28 -0.92154 -2.35083 0
M  V30 12235 C 1175.6 -3.00437 0.125657 0
M  V30 12236 C 1177.14 -3.12932 0.0651 0
M  V30 12237 C 1177.62 -4.56787 0.333131 0
M  V30 12238 N 1179.11 -4.62344 0.281453 0
M  V30 12239 C 1179.85 -5.71529 0.462805 0
M  V30 12240 N 1179.34 -6.89213 0.704054 0
M  V30 12241 N 1181.13 -5.60692 0.397636 0
M  V30 12242 H 1173.29 -1.79754 1.13148 0
M  V30 12243 H 1175.55 -0.83385 0.450997 0
M  V30 12244 H 1175.25 -3.33086 1.12901 0
M  V30 12245 H 1175.13 -3.72782 -0.575612 0
M  V30 12246 H 1177.52 -2.80101 -0.928845 0
M  V30 12247 H 1177.6 -2.42991 0.799318 0
M  V30 12248 H 1177.24 -4.9033 1.32436 0
M  V30 12249 H 1177.17 -5.24907 -0.421879 0
M  V30 12250 H 1179.66 -3.77764 0.101266 0
M  V30 12251 H 1179.97 -7.68314 0.831468 0
M  V30 12252 H 1178.32 -6.9104 0.740851 0
M  V30 12253 H 1181.51 -4.6763 0.20964 0
M  V30 12254 H 1181.68 -6.45726 0.54239 0
M  V30 12255 N 1175.09 0.086862 -1.5736 0
M  V30 12256 C 1176.02 1.13614 -1.97907 0
M  V30 12257 C 1177 1.38395 -0.853564 0
M  V30 12258 O 1178.18 1.52018 -1.11457 0
M  V30 12259 C 1175.31 2.48364 -2.30289 0
M  V30 12260 C 1174.36 2.39814 -3.52692 0
M  V30 12261 S 1175.19 1.80673 -5.04101 0
M  V30 12262 C 1176.35 3.17031 -5.39669 0
M  V30 12263 H 1176.58 0.790538 -2.86597 0
M  V30 12264 H 1174.11 0.294847 -1.51559 0
M  V30 12265 H 1176.07 3.25883 -2.49621 0
M  V30 12266 H 1174.73 2.80091 -1.42154 0
M  V30 12267 H 1173.92 3.3915 -3.72818 0
M  V30 12268 H 1173.53 1.70427 -3.32912 0
M  V30 12269 H 1175.82 4.13319 -5.36818 0
M  V30 12270 H 1176.76 3.017 -6.40611 0
M  V30 12271 H 1177.17 3.16942 -4.67128 0
M  V30 12272 N 1176.57 1.53483 0.357892 0
M  V30 12273 C 1177.5 1.83444 1.44466 0
M  V30 12274 C 1178.48 0.688486 1.55544 0
M  V30 12275 O 1179.66 0.93906 1.69986 0
M  V30 12276 C 1176.79 2.03122 2.81707 0
M  V30 12277 C 1175.75 3.1891 2.85448 0
M  V30 12278 C 1175.07 3.23895 4.25436 0
M  V30 12279 C 1176.37 4.57334 2.52275 0
M  V30 12280 H 1178.07 2.74456 1.19642 0
M  V30 12281 H 1175.61 1.3206 0.574112 0
M  V30 12282 H 1177.57 2.22666 3.57768 0
M  V30 12283 H 1176.29 1.08827 3.07935 0
M  V30 12284 H 1174.95 2.99199 2.11838 0
M  V30 12285 H 1174.6 2.27223 4.48753 0
M  V30 12286 H 1174.3 4.01694 4.28854 0
M  V30 12287 H 1175.82 3.45632 5.0336 0
M  V30 12288 H 1177.24 4.76988 3.1805 0
M  V30 12289 H 1175.63 5.37431 2.66998 0
M  V30 12290 H 1176.7 4.61921 1.47501 0
M  V30 12291 N 1178.05 -0.61812 1.44973 0
M  V30 12292 C 1179.29 -1.37343 1.47715 0
M  V30 12293 C 1179.61 -1.95239 0.118784 0
M  V30 12294 O 1180.81 -2.7149 0.0237981 0
M  V30 12295 C 1179.27 -2.48732 2.60116 0
M  V30 12296 C 1178.88 -1.97294 4.02218 0
M  V30 12297 C 1180.62 -3.25831 2.72093 0
M  V30 12298 C 1178.53 -3.06102 5.06019 0
M  V30 12299 H 1177.46 -0.516175 0.549617 0
M  V30 12300 H 1180.11 -0.663617 1.7108 0
M  V30 12301 H 1178.49 -3.2235 2.30014 0
M  V30 12302 H 1179.67 -1.30455 4.41948 0
M  V30 12303 H 1177.98 -1.32972 3.94598 0
M  V30 12304 H 1180.58 -4.06968 3.46815 0
M  V30 12305 H 1180.92 -3.76156 1.7836 0
M  V30 12306 H 1181.45 -2.59309 3.01668 0
M  V30 12307 H 1178.19 -2.60706 6.01426 0
M  V30 12308 H 1177.71 -3.71541 4.70869 0
M  V30 12309 H 1179.39 -3.70662 5.30301 0
M  V30 12310 N 1179.52 -1.32087 -0.859693 0
M  V30 12311 C 1180.46 -1.16426 -1.97428 0
M  V30 12312 C 1181.47 -0.100582 -1.62489 0
M  V30 12313 O 1182.66 -0.349063 -1.75054 0
M  V30 12314 C 1179.76 -0.758822 -3.30295 0
M  V30 12315 C 1178.93 -1.90971 -3.93508 0
M  V30 12316 C 1177.99 -1.48865 -5.04704 0
M  V30 12317 O 1177.02 -2.1999 -5.2497 0
M  V30 12318 N 1178.22 -0.38182 -5.79243 0
M  V30 12319 H 1180.98 -2.12433 -2.11406 0
M  V30 12320 H 1178.54 -1.24558 -1.03426 0
M  V30 12321 H 1180.54 -0.459643 -4.02081 0
M  V30 12322 H 1179.11 0.109944 -3.12407 0
M  V30 12323 H 1178.33 -2.37566 -3.14573 0
M  V30 12324 H 1179.61 -2.68032 -4.32477 0
M  V30 12325 H 1179.01 0.210268 -5.65309 0
M  V30 12326 H 1177.57 -0.142224 -6.51645 0
M  V30 12327 N 1181 1.07532 -1.15215 0
M  V30 12328 C 1182.25 1.8052 -0.937234 0
M  V30 12329 C 1182.6 1.84954 0.530084 0
M  V30 12330 O 1181.9 1.32091 1.3879 0
M  V30 12331 C 1182.09 3.2518 -1.483 0
M  V30 12332 C 1181.92 3.34841 -3.00185 0
M  V30 12333 C 1180.69 3.45509 -3.68716 0
M  V30 12334 C 1182.89 3.25749 -3.97985 0
M  V30 12335 N 1180.87 3.44055 -5.08429 0
M  V30 12336 C 1182.24 3.31391 -5.24004 0
M  V30 12337 C 1184.29 3.09547 -3.89981 0
M  V30 12338 C 1183 3.22498 -6.42952 0
M  V30 12339 C 1185.02 3.01987 -5.08486 0
M  V30 12340 C 1184.39 3.08239 -6.33378 0
M  V30 12341 H 1180.48 0.673971 -0.396594 0
M  V30 12342 H 1183.07 1.2837 -1.46387 0
M  V30 12343 H 1181.24 3.75754 -0.983021 0
M  V30 12344 H 1182.97 3.86279 -1.20709 0
M  V30 12345 H 1179.73 3.49778 -3.193 0
M  V30 12346 H 1180.15 3.4686 -5.81392 0
M  V30 12347 H 1184.79 3.03568 -2.94289 0
M  V30 12348 H 1182.51 3.27236 -7.38879 0
M  V30 12349 H 1186.1 2.90557 -5.04051 0
M  V30 12350 H 1184.98 3.02431 -7.23537 0
M  V30 12351 N 1182.48 0.948665 1.2585 0
M  V30 12352 C 1183.43 0.455115 2.28104 0
M  V30 12353 C 1184.42 -0.471508 1.62706 0
M  V30 12354 O 1185.63 -0.348895 1.76586 0
M  V30 12355 H 1182 0.128659 0.740912 0
M  V30 12356 H 1183.97 1.32991 2.67125 0
M  V30 12357 C 1182.72 -0.25729 3.46747 0
M  V30 12358 H 1182.05 0.44658 3.97298 0
M  V30 12359 H 1183.49 -0.566736 4.20195 0
M  V30 12360 C 1181.95 -1.47772 3.02762 0
M  V30 12361 O 1182.48 -2.57571 3.08253 0
M  V30 12362 N 1180.68 -1.33694 2.5802 0
M  V30 12363 H 1180.23 -0.443595 2.53752 0
M  V30 12364 H 1180.19 -2.1547 2.28954 0
M  V30 12365 N 1183.96 -1.40369 0.716545 0
M  V30 12366 C 1185.21 -2.00473 0.255959 0
M  V30 12367 C 1185.53 -1.57104 -1.15514 0
M  V30 12368 O 1184.8 -0.810925 -1.78328 0
M  V30 12369 H 1183.38 -0.741357 0.0916427 0
M  V30 12370 H 1186.04 -1.71692 0.922389 0
M  V30 12371 H 1185.14 -3.10752 0.289806 0
M  V30 12372 N 1185.44 -0.462799 -1.50652 0
M  V30 12373 C 1186.66 0.0952726 -2.07181 0
M  V30 12374 C 1187.09 1.33479 -1.32533 0
M  V30 12375 O 1186.44 1.77473 -0.370564 0
M  V30 12376 C 1186.49 0.370592 -3.58691 0
M  V30 12377 O 1185.6 1.4526 -3.85971 0
M  V30 12378 H 1184.94 -0.00932702 -0.663934 0
M  V30 12379 H 1187.47 -0.651458 -1.93951 0
M  V30 12380 H 1187.48 0.613551 -4.0336 0
M  V30 12381 H 1186.15 -0.535219 -4.12442 0
M  V30 12382 H 1184.73 1.1976 -3.53146 0
M  V30 12383 N 1186.91 1.56388 -0.195085 0
M  V30 12384 C 1187.86 2.19091 0.725793 0
M  V30 12385 C 1188.83 1.13814 1.20977 0
M  V30 12386 O 1190.02 1.42065 1.27366 0
M  V30 12387 C 1187.16 2.85427 1.93973 0
M  V30 12388 C 1186.27 4.05229 1.49712 0
M  V30 12389 C 1185.4 4.59421 2.66656 0
M  V30 12390 C 1184.44 5.71581 2.19001 0
M  V30 12391 N 1183.58 6.2018 3.29123 0
M  V30 12392 H 1188.42 2.97429 0.184334 0
M  V30 12393 H 1185.96 1.46886 0.0792434 0
M  V30 12394 H 1187.92 3.22057 2.65208 0
M  V30 12395 H 1186.55 2.09652 2.4545 0
M  V30 12396 H 1185.6 3.74261 0.680641 0
M  V30 12397 H 1186.91 4.8635 1.10749 0
M  V30 12398 H 1186.06 4.98357 3.46014 0
M  V30 12399 H 1184.8 3.77407 3.08893 0
M  V30 12400 H 1183.81 5.32174 1.38097 0
M  V30 12401 H 1185.03 6.55413 1.77795 0
M  V30 12402 H 1182.98 5.41088 3.70891 0
M  V30 12403 H 1182.9 6.96353 2.94328 0
M  V30 12404 H 1184.16 6.63769 4.08694 0
M  V30 12405 N 1188.39 -0.0785156 1.57404 0
M  V30 12406 C 1189.64 -0.774884 1.88061 0
M  V30 12407 C 1189.99 -1.75525 0.787966 0
M  V30 12408 O 1189.29 -1.90462 -0.208514 0
M  V30 12409 C 1189.48 -1.52826 3.23078 0
M  V30 12410 C 1189.31 -0.62236 4.45373 0
M  V30 12411 C 1188.08 -0.261831 5.04621 0
M  V30 12412 C 1190.28 0.077964 5.14241 0
M  V30 12413 N 1188.26 0.650492 6.10444 0
M  V30 12414 C 1189.63 0.847727 6.14177 0
M  V30 12415 C 1191.69 0.150143 4.97674 0
M  V30 12416 C 1190.39 1.68295 6.99335 0
M  V30 12417 C 1192.41 0.972321 5.83352 0
M  V30 12418 C 1191.78 1.73015 6.82821 0
M  V30 12419 H 1187.88 -0.259194 0.737796 0
M  V30 12420 H 1190.46 -0.0366796 1.94665 0
M  V30 12421 H 1188.63 -2.23723 3.17494 0
M  V30 12422 H 1190.36 -2.17311 3.41406 0
M  V30 12423 H 1187.12 -0.613197 4.69614 0
M  V30 12424 H 1187.54 1.0997 6.68009 0
M  V30 12425 H 1192.18 -0.421423 4.20695 0
M  V30 12426 H 1189.9 2.26552 7.75693 0
M  V30 12427 H 1193.49 1.03106 5.72591 0
M  V30 12428 H 1192.37 2.35609 7.47969 0
M  V30 12429 N 1189.87 -1.5367 -0.349747 0
M  V30 12430 C 1191.1 -1.74547 -1.11089 0
M  V30 12431 C 1191.51 -0.481741 -1.82551 0
M  V30 12432 O 1190.87 0.546272 -1.74132 0
M  V30 12433 C 1190.92 -2.92148 -2.12913 0
M  V30 12434 O 1190.64 -4.13633 -1.44358 0
M  V30 12435 C 1192.14 -3.25027 -3.01451 0
M  V30 12436 H 1189.36 -0.583376 -0.331532 0
M  V30 12437 H 1191.91 -2.00473 -0.403841 0
M  V30 12438 H 1190.06 -2.68572 -2.79192 0
M  V30 12439 H 1190.48 -4.79601 -2.12329 0
M  V30 12440 H 1191.95 -4.10679 -3.68845 0
M  V30 12441 H 1192.43 -2.41064 -3.67131 0
M  V30 12442 H 1193.03 -3.50586 -2.40768 0
M  V30 12443 N 1191.35 0.610423 -1.45298 0
M  V30 12444 C 1192.6 1.3668 -1.48872 0
M  V30 12445 C 1192.92 1.94562 -0.130686 0
M  V30 12446 O 1192.19 1.76996 0.839607 0
M  V30 12447 H 1190.77 0.507393 -0.548235 0
M  V30 12448 H 1193.43 0.716997 -1.81232 0
M  V30 12449 H 1192.53 2.18766 -2.22593 0
M  V30 12450 N 1192.83 1.32541 0.852676 0
M  V30 12451 C 1193.77 1.21602 1.98282 0
M  V30 12452 C 1194.77 0.120384 1.68972 0
M  V30 12453 O 1195.97 0.283441 1.77754 0
M  V30 12454 H 1192.35 0.376994 0.650676 0
M  V30 12455 H 1194.32 2.17179 2.04636 0
M  V30 12456 C 1193.07 0.957965 3.34243 0
M  V30 12457 H 1192.39 1.79324 3.57327 0
M  V30 12458 H 1193.83 0.921673 4.13861 0
M  V30 12459 C 1192.29 -0.339271 3.35187 0
M  V30 12460 O 1192.82 -1.3505 3.78318 0
M  V30 12461 N 1191.03 -0.361944 2.88337 0
M  V30 12462 H 1190.57 0.461497 2.53432 0
M  V30 12463 H 1190.53 -1.22976 2.89352 0
M  V30 12464 N 1194.3 -1.0692 1.15784 0
M  V30 12465 C 1195.58 -1.76367 0.845825 0
M  V30 12466 C 1195.96 -2.00594 -0.657672 0
M  V30 12467 O 1195.31 -1.62794 -1.60345 0
M  V30 12468 C 1195.52 -3.06913 1.66149 0
M  V30 12469 C 1196.87 -3.81181 1.87046 0
M  V30 12470 O 1197.89 -3.16737 1.62961 0
M  V30 12471 O 1196.75 -4.96936 2.27413 0
M  V30 12472 H 1193.84 -0.766095 0.311493 0
M  V30 12473 H 1196.39 -1.13246 1.26386 0
M  V30 12474 H 1195.16 -2.84924 2.68205 0
M  V30 12475 H 1194.79 -3.77767 1.24007 0
M  V30 12476 N 1195.78 -0.955326 -1.25345 0
M  V30 12477 C 1197.03 -0.606149 -1.92377 0
M  V30 12478 C 1197.34 0.860927 -1.75634 0
M  V30 12479 O 1198.55 1.3201 -2.37246 0
M  V30 12480 C 1197.01 -1.03341 -3.44744 0
M  V30 12481 C 1196.61 -2.52308 -3.70196 0
M  V30 12482 C 1198.36 -0.756797 -4.17699 0
M  V30 12483 C 1196.27 -2.88831 -5.16072 0
M  V30 12484 H 1195.2 -0.222994 -0.720271 0
M  V30 12485 H 1197.85 -1.15987 -1.42194 0
M  V30 12486 H 1196.23 -0.408096 -3.93892 0
M  V30 12487 H 1197.4 -3.19864 -3.31698 0
M  V30 12488 H 1195.72 -2.77448 -3.10502 0
M  V30 12489 H 1198.31 -1.00583 -5.25154 0
M  V30 12490 H 1198.66 0.306794 -4.15168 0
M  V30 12491 H 1199.19 -1.34249 -3.74462 0
M  V30 12492 H 1195.93 -3.9421 -5.23716 0
M  V30 12493 H 1195.45 -2.25948 -5.55614 0
M  V30 12494 H 1197.13 -2.78061 -5.84201 0
M  V30 12495 N 1197.26 1.39987 -0.723979 0
M  V30 12496 C 1198.67 1.83606 -0.338461 0
M  V30 12497 C 1199.02 1.6051 1.12831 0
M  V30 12498 O 1198.15 1.09041 1.8692 0
M  V30 12499 C 1198.74 3.33308 -0.607533 0
M  V30 12500 C 1197.3 3.75389 -0.275632 0
M  V30 12501 C 1196.45 2.6311 -0.875699 0
M  V30 12502 H 1199.4 1.29135 -0.922483 0
M  V30 12503 H 1199.42 3.80297 0.124424 0
M  V30 12504 H 1198.93 3.50087 -1.67514 0
M  V30 12505 H 1197.03 3.64203 0.786579 0
M  V30 12506 H 1197.15 4.73185 -0.750492 0
M  V30 12507 H 1195.51 2.5289 -0.303122 0
M  V30 12508 H 1196.29 2.82698 -1.94774 0
M  V30 12509 N 1198.74 0.470782 1.50404 0
M  V30 12510 C 1200.02 -0.145879 1.95055 0
M  V30 12511 C 1200.4 -1.57004 1.41114 0
M  V30 12512 O 1199.74 -2.20152 0.612006 0
M  V30 12513 C 1199.95 -0.0895071 3.48885 0
M  V30 12514 C 1201.3 -0.278548 4.23685 0
M  V30 12515 O 1202.33 -0.166105 3.55812 0
M  V30 12516 O 1201.19 -0.505606 5.44156 0
M  V30 12517 H 1198.28 -0.111838 0.819403 0
M  V30 12518 H 1200.83 0.531162 1.61173 0
M  V30 12519 H 1199.6 0.904836 3.80695 0
M  V30 12520 H 1199.22 -0.808019 3.89303 0
M  V30 12521 N 1200.22 -1.56282 0.203376 0
M  V30 12522 C 1201.46 -1.97812 -0.433202 0
M  V30 12523 C 1201.79 -1.09052 -1.61053 0
M  V30 12524 O 1201.05 -0.131417 -1.95258 0
M  V30 12525 C 1201.35 -3.45148 -0.927759 0
M  V30 12526 C 1201.01 -4.50692 0.137083 0
M  V30 12527 C 1199.67 -4.79278 0.429652 0
M  V30 12528 C 1202.03 -5.14086 0.858174 0
M  V30 12529 C 1199.35 -5.68547 1.44815 0
M  V30 12530 C 1201.71 -6.04457 1.86588 0
M  V30 12531 C 1200.37 -6.31395 2.16556 0
M  V30 12532 H 1199.64 -0.723846 -0.15852 0
M  V30 12533 H 1202.29 -1.89102 0.302082 0
M  V30 12534 H 1200.59 -3.5097 -1.74147 0
M  V30 12535 H 1202.29 -3.74642 -1.42984 0
M  V30 12536 H 1198.88 -4.28481 -0.101111 0
M  V30 12537 H 1203.06 -4.92086 0.645376 0
M  V30 12538 H 1198.32 -5.87689 1.68615 0
M  V30 12539 H 1202.49 -6.52636 2.4298 0
M  V30 12540 H 1200.12 -7.00366 2.9562 0
M  V30 12541 N 1201.7 0.070167 -1.57444 0
M  V30 12542 C 1202.94 0.767495 -1.8696 0
M  V30 12543 C 1203.26 1.78032 -0.795595 0
M  V30 12544 O 1202.53 1.95112 0.175566 0
M  V30 12545 H 1201.11 0.286443 -0.689898 0
M  V30 12546 H 1203.78 0.0458692 -1.94846 0
M  V30 12547 H 1202.87 1.28269 -2.84523 0
M  V30 12548 N 1203.17 1.53854 0.341593 0
M  V30 12549 C 1204.12 1.8268 1.43982 0
M  V30 12550 C 1205.12 0.697415 1.54378 0
M  V30 12551 O 1206.32 0.880785 1.56978 0
M  V30 12552 H 1202.7 0.578788 0.480113 0
M  V30 12553 H 1204.67 2.74556 1.16884 0
M  V30 12554 C 1203.42 2.05496 2.80476 0
M  V30 12555 H 1202.74 2.91852 2.73244 0
M  V30 12556 H 1204.18 2.2963 3.56435 0
M  V30 12557 C 1202.64 0.841061 3.26233 0
M  V30 12558 O 1203.17 0.0414376 4.01679 0
M  V30 12559 N 1201.37 0.657736 2.83059 0
M  V30 12560 H 1200.92 1.30962 2.21826 0
M  V30 12561 H 1200.88 -0.153003 3.14027 0
M  V30 12562 N 1204.65 -0.602709 1.4562 0
M  V30 12563 C 1205.61 -1.69508 1.54271 0
M  V30 12564 C 1206.61 -1.55171 0.421727 0
M  V30 12565 O 1207.8 -1.60151 0.685375 0
M  V30 12566 C 1204.94 -3.0881 1.44392 0
M  V30 12567 H 1206.13 -1.63203 2.51605 0
M  V30 12568 H 1203.68 -0.818857 1.33133 0
M  V30 12569 H 1204.42 -3.20689 0.482614 0
M  V30 12570 H 1204.2 -3.20625 2.25704 0
M  V30 12571 H 1205.69 -3.8837 1.53488 0
M  V30 12572 N 1206.13 -1.32992 -0.845635 0
M  V30 12573 C 1207.09 -1.22607 -1.9365 0
M  V30 12574 C 1208.09 -0.146812 -1.60128 0
M  V30 12575 O 1209.28 -0.397863 -1.69596 0
M  V30 12576 C 1206.41 -0.887677 -3.2914 0
M  V30 12577 H 1207.61 -2.19563 -2.04285 0
M  V30 12578 H 1205.16 -1.16952 -1.03691 0
M  V30 12579 H 1205.9 0.0796777 -3.24202 0
M  V30 12580 H 1205.68 -1.66808 -3.54849 0
M  V30 12581 H 1207.17 -0.83958 -4.09073 0
M  V30 12582 N 1207.61 1.06304 -1.1635 0
M  V30 12583 C 1209.02 1.60566 -0.952652 0
M  V30 12584 C 1209.37 1.8963 0.503473 0
M  V30 12585 O 1208.49 1.66964 1.37666 0
M  V30 12586 C 1209.09 2.9172 -1.72292 0
M  V30 12587 C 1207.65 3.42684 -1.55707 0
M  V30 12588 C 1206.8 2.16579 -1.73172 0
M  V30 12589 H 1209.75 0.892563 -1.31221 0
M  V30 12590 H 1209.77 3.61126 -1.19868 0
M  V30 12591 H 1209.28 2.70535 -2.78267 0
M  V30 12592 H 1207.38 3.68929 -0.521726 0
M  V30 12593 H 1207.49 4.18018 -2.34088 0
M  V30 12594 H 1205.86 2.26795 -1.15914 0
M  V30 12595 H 1206.64 1.97877 -2.80535 0
M  V30 12596 N 1209.09 0.96196 1.24836 0
M  V30 12597 C 1210.33 0.619489 1.92371 0
M  V30 12598 C 1210.65 -0.847233 1.75633 0
M  V30 12599 O 1209.92 -1.60419 1.12439 0
M  V30 12600 H 1208.5 0.226129 0.711951 0
M  V30 12601 H 1211.17 1.22179 1.5185 0
M  V30 12602 H 1210.26 0.855128 3.00157 0
M  V30 12603 N 1210.56 -1.39601 0.731392 0
M  V30 12604 C 1211.79 -2.04887 0.28789 0
M  V30 12605 C 1212.21 -1.55138 -1.076 0
M  V30 12606 O 1211.56 -0.71471 -1.67923 0
M  V30 12607 C 1211.61 -3.6044 0.276629 0
M  V30 12608 O 1211.34 -4.08358 1.58668 0
M  V30 12609 C 1212.84 -4.4292 -0.183485 0
M  V30 12610 H 1210.06 -0.658976 0.126459 0
M  V30 12611 H 1212.6 -1.78716 0.994031 0
M  V30 12612 H 1210.76 -3.85526 -0.380597 0
M  V30 12613 H 1211.17 -5.02659 1.4978 0
M  V30 12614 H 1212.64 -5.51822 -0.140207 0
M  V30 12615 H 1213.12 -4.2168 -1.22811 0
M  V30 12616 H 1213.73 -4.22976 0.444042 0
M  V30 12617 N 1212.04 -0.478751 -1.50152 0
M  V30 12618 C 1213.45 -0.0254907 -1.86683 0
M  V30 12619 C 1213.8 1.38171 -1.39295 0
M  V30 12620 O 1212.93 2.0257 -0.761207 0
M  V30 12621 C 1213.52 -0.0394819 -3.38777 0
M  V30 12622 C 1212.08 0.35834 -3.7469 0
M  V30 12623 C 1211.23 -0.421667 -2.74075 0
M  V30 12624 H 1214.18 -0.692653 -1.42787 0
M  V30 12625 H 1214.2 0.760957 -3.72813 0
M  V30 12626 H 1213.71 -1.06378 -3.73236 0
M  V30 12627 H 1211.82 1.38671 -3.45834 0
M  V30 12628 H 1211.93 0.0543589 -4.79069 0
M  V30 12629 H 1210.29 0.125634 -2.5439 0
M  V30 12630 H 1211.08 -1.44562 -3.11379 0
M  V30 12631 N 1213.52 1.56172 -0.211661 0
M  V30 12632 C 1214.75 2.02428 0.427843 0
M  V30 12633 C 1215.16 1.09162 1.54043 0
M  V30 12634 O 1214.52 0.0994249 1.82229 0
M  V30 12635 C 1214.57 3.48279 0.968728 0
M  V30 12636 O 1214.29 4.37987 -0.0994841 0
M  V30 12637 C 1215.79 4.10132 1.68246 0
M  V30 12638 H 1213.01 0.662611 0.10577 0
M  V30 12639 H 1215.56 2.01897 -0.32522 0
M  V30 12640 H 1213.71 3.49456 1.6721 0
M  V30 12641 H 1214.13 5.23609 0.305558 0
M  V30 12642 H 1215.6 5.13985 2.01304 0
M  V30 12643 H 1216.08 3.54552 2.5921 0
M  V30 12644 H 1216.68 4.12775 1.02453 0
M  V30 12645 N 1215 -0.0618163 1.57479 0
M  V30 12646 C 1216.25 -0.757569 1.87364 0
M  V30 12647 C 1216.57 -1.77607 0.805025 0
M  V30 12648 O 1215.84 -1.95202 -0.165216 0
M  V30 12649 H 1214.42 -0.28278 0.691408 0
M  V30 12650 H 1217.08 -0.0355354 1.94868 0
M  V30 12651 H 1216.18 -1.26758 2.85199 0
M  V30 12652 N 1216.48 -1.54033 -0.333429 0
M  V30 12653 C 1217.89 -1.63107 -0.908455 0
M  V30 12654 C 1218.24 -0.518823 -1.89216 0
M  V30 12655 O 1217.36 0.34985 -2.13553 0
M  V30 12656 C 1217.96 -2.95657 -1.65447 0
M  V30 12657 C 1216.52 -3.0696 -2.17836 0
M  V30 12658 C 1215.66 -2.58617 -1.00063 0
M  V30 12659 H 1218.62 -1.58309 -0.11128 0
M  V30 12660 H 1218.64 -2.85263 -2.51804 0
M  V30 12661 H 1218.15 -3.76588 -0.938263 0
M  V30 12662 H 1216.25 -2.30683 -2.92602 0
M  V30 12663 H 1216.36 -4.12599 -2.43513 0
M  V30 12664 H 1214.73 -2.1427 -1.37697 0
M  V30 12665 H 1215.51 -3.41996 -0.298901 0
M  V30 12666 N 1217.95 0.594978 -1.45938 0
M  V30 12667 C 1219.2 1.35361 -1.50611 0
M  V30 12668 C 1219.53 1.93898 -0.152866 0
M  V30 12669 O 1218.78 1.76275 0.850037 0
M  V30 12670 C 1219.08 2.51129 -2.54301 0
M  V30 12671 C 1218.75 2.1066 -3.98664 0
M  V30 12672 C 1217.41 1.99338 -4.3797 0
M  V30 12673 C 1219.76 1.79267 -4.894 0
M  V30 12674 C 1217.09 1.54863 -5.65893 0
M  V30 12675 C 1219.44 1.36274 -6.17748 0
M  V30 12676 C 1218.11 1.2352 -6.55972 0
M  V30 12677 H 1217.38 0.49532 -0.551125 0
M  V30 12678 H 1220.02 0.671236 -1.79351 0
M  V30 12679 H 1218.33 3.24759 -2.19177 0
M  V30 12680 H 1220.03 3.09353 -2.55151 0
M  V30 12681 H 1216.62 2.20403 -3.67587 0
M  V30 12682 H 1220.8 1.86906 -4.59761 0
M  V30 12683 H 1216.06 1.43621 -5.94292 0
M  V30 12684 H 1220.23 1.11032 -6.87492 0
M  V30 12685 H 1217.86 0.88832 -7.54992 0
M  V30 12686 N 1219.43 1.33438 0.838571 0
M  V30 12687 C 1220.68 1.24259 1.58879 0
M  V30 12688 C 1220.99 -0.189957 1.94675 0
M  V30 12689 O 1222.2 -0.40376 2.68481 0
M  V30 12690 C 1220.66 2.1773 2.86569 0
M  V30 12691 C 1220.26 3.66156 2.58135 0
M  V30 12692 C 1222.01 2.17424 3.64591 0
M  V30 12693 C 1219.92 4.5154 3.81923 0
M  V30 12694 H 1218.85 0.461534 0.59624 0
M  V30 12695 H 1221.5 1.58504 0.924588 0
M  V30 12696 H 1219.88 1.76418 3.54532 0
M  V30 12697 H 1221.05 4.1591 1.98382 0
M  V30 12698 H 1219.37 3.68754 1.93416 0
M  V30 12699 H 1221.96 2.78446 4.56478 0
M  V30 12700 H 1222.31 1.16939 3.99539 0
M  V30 12701 H 1222.84 2.571 3.03553 0
M  V30 12702 H 1219.58 5.52902 3.52107 0
M  V30 12703 H 1219.1 4.06529 4.41015 0
M  V30 12704 H 1220.78 4.65359 4.495 0
M  V30 12705 N 1220.91 -1.05686 1.16912 0
M  V30 12706 C 1221.84 -2.12775 0.824755 0
M  V30 12707 C 1222.82 -1.61286 -0.206289 0
M  V30 12708 O 1224.01 -1.8829 -0.0889616 0
M  V30 12709 C 1221.13 -3.37922 0.229422 0
M  V30 12710 C 1220.18 -4.08226 1.23506 0
M  V30 12711 S 1221.01 -4.57424 2.78431 0
M  V30 12712 C 1222.17 -5.85825 2.20364 0
M  V30 12713 H 1222.4 -2.41657 1.73174 0
M  V30 12714 H 1219.93 -1.18212 0.99324 0
M  V30 12715 H 1221.89 -4.10359 -0.107588 0
M  V30 12716 H 1220.55 -3.07186 -0.655424 0
M  V30 12717 H 1219.75 -4.98129 0.767059 0
M  V30 12718 H 1219.35 -3.41832 1.51747 0
M  V30 12719 H 1221.64 -6.58912 1.57611 0
M  V30 12720 H 1222.58 -6.37364 3.08501 0
M  V30 12721 H 1222.99 -5.4015 1.64008 0
M  V30 12722 N 1222.39 -0.968567 -1.24324 0
M  V30 12723 C 1223.32 -0.457247 -2.24593 0
M  V30 12724 C 1224.33 0.434483 -1.56895 0
M  V30 12725 O 1225.52 0.240519 -1.76872 0
M  V30 12726 C 1222.62 0.359086 -3.36992 0
M  V30 12727 C 1221.8 -0.522945 -4.34263 0
M  V30 12728 C 1220.85 0.237528 -5.25664 0
M  V30 12729 O 1219.88 -0.368835 -5.68004 0
M  V30 12730 N 1221.08 1.52686 -5.6006 0
M  V30 12731 H 1223.85 -1.31934 -2.69098 0
M  V30 12732 H 1221.41 -0.840488 -1.38374 0
M  V30 12733 H 1223.4 0.87589 -3.95108 0
M  V30 12734 H 1221.97 1.12212 -2.91766 0
M  V30 12735 H 1221.19 -1.22071 -3.74823 0
M  V30 12736 H 1222.48 -1.12447 -4.96219 0
M  V30 12737 H 1221.88 2.0412 -5.2759 0
M  V30 12738 H 1220.43 1.98934 -6.207 0
M  V30 12739 N 1223.87 1.39211 -0.738786 0
M  V30 12740 C 1225.28 1.83237 -0.357916 0
M  V30 12741 C 1225.63 1.61698 1.11123 0
M  V30 12742 O 1224.75 1.11017 1.85753 0
M  V30 12743 C 1225.35 3.32645 -0.64285 0
M  V30 12744 C 1223.91 3.75076 -0.315432 0
M  V30 12745 C 1223.05 2.62166 -0.903556 0
M  V30 12746 H 1226.01 1.2815 -0.936127 0
M  V30 12747 H 1226.03 3.80407 0.0840812 0
M  V30 12748 H 1225.54 3.4829 -1.71218 0
M  V30 12749 H 1223.64 3.65017 0.747907 0
M  V30 12750 H 1223.75 4.72363 -0.800638 0
M  V30 12751 H 1222.12 2.52554 -0.329927 0
M  V30 12752 H 1222.9 2.80616 -1.97761 0
M  V30 12753 N 1225.34 0.486708 1.49896 0
M  V30 12754 C 1226.25 -0.304222 2.32619 0
M  V30 12755 C 1227.27 -0.981103 1.43702 0
M  V30 12756 O 1228.45 -0.965639 1.76741 0
M  V30 12757 C 1225.51 -1.36301 3.18783 0
M  V30 12758 C 1224.57 -0.701082 4.23537 0
M  V30 12759 C 1223.81 -1.70943 5.05583 0
M  V30 12760 O 1224.03 -2.93773 4.88931 0
M  V30 12761 O 1222.96 -1.27263 5.88292 0
M  V30 12762 H 1226.79 0.37248 3.01407 0
M  V30 12763 H 1224.37 0.248277 1.47323 0
M  V30 12764 H 1226.26 -1.97594 3.72202 0
M  V30 12765 H 1224.93 -2.0229 2.52706 0
M  V30 12766 H 1223.84 -0.0487926 3.74068 0
M  V30 12767 H 1225.17 -0.0838817 4.92129 0
M  V30 12768 N 1226.82 -1.56058 0.219941 0
M  V30 12769 C 1228.07 -1.97869 -0.411383 0
M  V30 12770 C 1228.39 -1.10878 -1.60409 0
M  V30 12771 O 1227.66 -0.185454 -1.9502 0
M  V30 12772 H 1226.24 -0.730747 -0.154979 0
M  V30 12773 H 1228.9 -1.92379 0.312461 0
M  V30 12774 H 1228 -3.0323 -0.738798 0
M  V30 12775 N 1228.3 0.053464 -1.57509 0
M  V30 12776 C 1229.23 1.09391 -2.00272 0
M  V30 12777 C 1230.21 1.36553 -0.882727 0
M  V30 12778 O 1231.4 1.4962 -1.14657 0
M  V30 12779 C 1228.52 2.43424 -2.35505 0
M  V30 12780 C 1227.57 2.32278 -3.577 0
M  V30 12781 S 1228.4 1.69939 -5.0782 0
M  V30 12782 C 1229.56 3.05512 -5.46272 0
M  V30 12783 H 1229.79 0.729569 -2.88209 0
M  V30 12784 H 1227.32 0.262633 -1.5215 0
M  V30 12785 H 1229.28 3.20515 -2.56477 0
M  V30 12786 H 1227.94 2.77013 -1.48064 0
M  V30 12787 H 1227.14 3.31165 -3.79928 0
M  V30 12788 H 1226.74 1.63327 -3.36453 0
M  V30 12789 H 1229.03 4.0184 -5.45464 0
M  V30 12790 H 1229.97 2.88043 -6.46867 0
M  V30 12791 H 1230.38 3.06962 -4.73745 0
M  V30 12792 N 1229.78 1.54207 0.325255 0
M  V30 12793 C 1231.03 1.71991 1.0613 0
M  V30 12794 C 1231.35 0.495505 1.88599 0
M  V30 12795 O 1230.62 -0.490504 1.8966 0
M  V30 12796 H 1229.2 0.634137 0.394816 0
M  V30 12797 H 1231.86 1.91507 0.362101 0
M  V30 12798 H 1230.96 2.59878 1.72829 0
M  V30 12799 N 1231.26 -0.58723 1.46251 0
M  V30 12800 C 1232.67 -0.910129 1.31106 0
M  V30 12801 C 1232.87 -1.99557 0.279141 0
M  V30 12802 O 1231.93 -2.50466 -0.319867 0
M  V30 12803 C 1233.24 -1.33177 2.69601 0
M  V30 12804 C 1234.79 -1.44486 2.77656 0
M  V30 12805 C 1235.27 -1.90018 4.16722 0
M  V30 12806 N 1236.76 -1.97219 4.19117 0
M  V30 12807 C 1237.49 -2.33714 5.23608 0
M  V30 12808 N 1236.99 -2.69034 6.3843 0
M  V30 12809 N 1238.78 -2.3423 5.10972 0
M  V30 12810 H 1230.93 0.12987 2.12003 0
M  V30 12811 H 1233.19 -0.00456718 0.947989 0
M  V30 12812 H 1232.9 -0.608243 3.464 0
M  V30 12813 H 1232.77 -2.29421 2.99409 0
M  V30 12814 H 1235.16 -2.15926 2.01147 0
M  V30 12815 H 1235.24 -0.465047 2.51537 0
M  V30 12816 H 1234.89 -1.19159 4.93724 0
M  V30 12817 H 1234.82 -2.88949 4.40245 0
M  V30 12818 H 1237.31 -1.72431 3.36268 0
M  V30 12819 H 1237.62 -2.95822 7.13939 0
M  V30 12820 H 1235.97 -2.66683 6.41798 0
M  V30 12821 H 1239.16 -2.06056 4.20308 0
M  V30 12822 H 1239.33 -2.62345 5.92519 0
M  V30 12823 N 1232.74 -1.33881 -0.831482 0
M  V30 12824 C 1233.67 -1.27384 -1.95693 0
M  V30 12825 C 1234.65 -0.152943 -1.69411 0
M  V30 12826 O 1235.83 -0.34392 -1.9113 0
M  V30 12827 C 1232.96 -1.01982 -3.31989 0
M  V30 12828 C 1231.92 -2.10445 -3.72689 0
M  V30 12829 C 1231.24 -1.70245 -5.06873 0
M  V30 12830 C 1232.54 -3.52194 -3.8569 0
M  V30 12831 H 1234.24 -2.21549 -2.01386 0
M  V30 12832 H 1231.78 -1.06653 -0.967526 0
M  V30 12833 H 1233.73 -0.960841 -4.103 0
M  V30 12834 H 1232.46 -0.0425709 -3.26572 0
M  V30 12835 H 1231.12 -2.15398 -2.96647 0
M  V30 12836 H 1230.77 -0.712036 -4.97935 0
M  V30 12837 H 1230.47 -2.42834 -5.35075 0
M  V30 12838 H 1231.99 -1.65827 -5.87651 0
M  V30 12839 H 1233.4 -3.49701 -4.54293 0
M  V30 12840 H 1231.8 -4.23331 -4.25336 0
M  V30 12841 H 1232.87 -3.9016 -2.87929 0
M  V30 12842 N 1234.21 1.05064 -1.1747 0
M  V30 12843 C 1235.46 1.78089 -0.963883 0
M  V30 12844 C 1235.79 1.87766 0.507365 0
M  V30 12845 O 1235.04 1.37477 1.39279 0
M  V30 12846 C 1235.34 3.21961 -1.55164 0
M  V30 12847 C 1235.01 3.32339 -3.04732 0
M  V30 12848 C 1233.67 3.34878 -3.45557 0
M  V30 12849 C 1236.02 3.3325 -4.00741 0
M  V30 12850 C 1233.35 3.35959 -4.80987 0
M  V30 12851 C 1235.7 3.3587 -5.36073 0
M  V30 12852 C 1234.37 3.36697 -5.7636 0
M  V30 12853 H 1233.64 0.651672 -0.35271 0
M  V30 12854 H 1236.28 1.23471 -1.4638 0
M  V30 12855 H 1234.59 3.79514 -0.973471 0
M  V30 12856 H 1236.29 3.77087 -1.36406 0
M  V30 12857 H 1232.88 3.31076 -2.72188 0
M  V30 12858 H 1237.06 3.30488 -3.70258 0
M  V30 12859 H 1232.32 3.34911 -5.11512 0
M  V30 12860 H 1236.49 3.35524 -6.10243 0
M  V30 12861 H 1234.12 3.37288 -6.81279 0
M  V30 12862 N 1235.69 0.975146 1.23809 0
M  V30 12863 C 1236.65 0.516157 2.23312 0
M  V30 12864 C 1237.65 -0.39136 1.55965 0
M  V30 12865 O 1238.84 -0.185783 1.73206 0
M  V30 12866 C 1235.98 -0.251534 3.39971 0
M  V30 12867 H 1237.17 1.3959 2.65433 0
M  V30 12868 H 1234.72 0.760493 1.36551 0
M  V30 12869 H 1235.46 -1.14805 3.03299 0
M  V30 12870 H 1235.24 0.399825 3.90056 0
M  V30 12871 H 1236.73 -0.561438 4.13809 0
M  V30 12872 N 1237.17 -1.38817 0.746158 0
M  V30 12873 C 1238.42 -1.99519 0.295839 0
M  V30 12874 C 1238.73 -1.59897 -1.12661 0
M  V30 12875 O 1239.94 -2.13514 -1.67702 0
M  V30 12876 C 1238.39 -3.56712 0.477984 0
M  V30 12877 C 1238 -4.0529 1.90904 0
M  V30 12878 C 1239.75 -4.24405 0.0900039 0
M  V30 12879 C 1237.65 -5.55097 2.04014 0
M  V30 12880 H 1236.58 -0.746389 0.106861 0
M  V30 12881 H 1239.23 -1.58676 0.921637 0
M  V30 12882 H 1237.62 -3.95406 -0.216884 0
M  V30 12883 H 1238.79 -3.77904 2.63677 0
M  V30 12884 H 1237.1 -3.50297 2.25125 0
M  V30 12885 H 1239.7 -5.3444 0.16682 0
M  V30 12886 H 1240.04 -4.05166 -0.956349 0
M  V30 12887 H 1240.58 -3.90924 0.736446 0
M  V30 12888 H 1237.32 -5.7923 3.06877 0
M  V30 12889 H 1236.84 -5.8425 1.35692 0
M  V30 12890 H 1238.52 -6.20682 1.82656 0
M  V30 12891 N 1238.65 -0.49465 -1.49636 0
M  V30 12892 C 1239.6 0.300929 -2.30645 0
M  V30 12893 C 1240.59 0.968687 -1.38971 0
M  V30 12894 O 1241.8 0.897101 -1.56052 0
M  V30 12895 H 1238.17 0.1159 -0.743015 0
M  V30 12896 H 1240.14 -0.402387 -2.95674 0
M  V30 12897 C 1238.89 1.35638 -3.20153 0
M  V30 12898 H 1238.21 0.851946 -3.90617 0
M  V30 12899 H 1239.65 1.88515 -3.79787 0
M  V30 12900 C 1238.11 2.37112 -2.39331 0
M  V30 12901 O 1238.64 3.42867 -2.09298 0
M  V30 12902 N 1236.85 2.09421 -2.01473 0
M  V30 12903 H 1236.4 1.23441 -2.26097 0
M  V30 12904 H 1236.35 2.77545 -1.47703 0
M  V30 12905 N 1240.13 1.55939 -0.228214 0
M  V30 12906 C 1241.07 2.20581 0.679157 0
M  V30 12907 C 1242.04 1.16355 1.18536 0
M  V30 12908 O 1243.23 1.44735 1.24324 0
M  V30 12909 C 1240.37 2.89477 1.87875 0
M  V30 12910 C 1239.48 4.08313 1.41083 0
M  V30 12911 C 1238.62 4.64974 2.56851 0
M  V30 12912 C 1237.65 5.76098 2.06828 0
M  V30 12913 N 1236.79 6.27021 3.15894 0
M  V30 12914 H 1241.63 2.97753 0.121203 0
M  V30 12915 H 1239.17 1.47021 0.0480688 0
M  V30 12916 H 1241.13 3.2761 2.58317 0
M  V30 12917 H 1239.76 2.14811 2.40948 0
M  V30 12918 H 1238.81 3.75621 0.601102 0
M  V30 12919 H 1240.12 4.8859 1.00408 0
M  V30 12920 H 1239.27 5.05584 3.35365 0
M  V30 12921 H 1238.01 3.83875 3.00818 0
M  V30 12922 H 1237.02 5.34984 1.26778 0
M  V30 12923 H 1238.24 6.59037 1.63852 0
M  V30 12924 H 1236.19 5.48833 3.5933 0
M  V30 12925 H 1236.11 7.02439 2.79491 0
M  V30 12926 H 1237.37 6.72289 3.94523 0
M  V30 12927 N 1241.6 -0.0451101 1.57535 0
M  V30 12928 C 1242.54 -1.08327 2.00849 0
M  V30 12929 C 1243.52 -1.36083 0.889957 0
M  V30 12930 O 1244.7 -1.49009 1.15449 0
M  V30 12931 C 1241.83 -2.42171 2.36793 0
M  V30 12932 C 1240.87 -2.30378 3.58926 0
M  V30 12933 S 1241.71 -1.67244 5.08714 0
M  V30 12934 C 1242.86 -3.02611 5.47885 0
M  V30 12935 H 1243.09 -0.714274 2.88592 0
M  V30 12936 H 1240.63 -0.254561 1.52287 0
M  V30 12937 H 1242.59 -3.1915 2.58174 0
M  V30 12938 H 1241.25 -2.76224 1.49531 0
M  V30 12939 H 1240.44 -3.29146 3.81679 0
M  V30 12940 H 1240.04 -1.6154 3.37314 0
M  V30 12941 H 1242.33 -3.98941 5.47587 0
M  V30 12942 H 1243.28 -2.84609 6.48385 0
M  V30 12943 H 1243.68 -3.04445 4.75367 0
M  V30 12944 N 1243.08 -1.54377 -0.317073 0
M  V30 12945 C 1244.05 -1.83488 -1.37349 0
M  V30 12946 C 1245.05 -0.706981 -1.44424 0
M  V30 12947 O 1246.24 -0.975289 -1.44339 0
M  V30 12948 C 1243.37 -2.00074 -2.76013 0
M  V30 12949 H 1244.56 -2.77883 -1.12789 0
M  V30 12950 H 1242.11 -1.46194 -0.552902 0
M  V30 12951 H 1242.85 -1.07913 -3.05819 0
M  V30 12952 H 1242.63 -2.82155 -2.7227 0
M  V30 12953 H 1244.12 -2.24022 -3.52426 0
M  V30 12954 N 1244.56 0.579466 -1.4656 0
M  V30 12955 C 1245.47 1.71609 -1.59961 0
M  V30 12956 C 1246.49 1.67162 -0.483002 0
M  V30 12957 O 1247.66 1.87012 -0.747561 0
M  V30 12958 C 1244.73 3.08114 -1.58954 0
M  V30 12959 C 1243.79 3.238 -2.81872 0
M  V30 12960 C 1243.02 4.53794 -2.80904 0
M  V30 12961 O 1243.24 5.37884 -1.89835 0
M  V30 12962 O 1242.18 4.72796 -3.72488 0
M  V30 12963 H 1246 1.6325 -2.56092 0
M  V30 12964 H 1243.59 0.746891 -1.2939 0
M  V30 12965 H 1245.47 3.8939 -1.611 0
M  V30 12966 H 1244.15 3.16903 -0.65984 0
M  V30 12967 H 1243.05 2.42006 -2.85279 0
M  V30 12968 H 1244.39 3.19904 -3.74062 0
M  V30 12969 N 1246.04 1.3432 0.824371 0
M  V30 12970 C 1247.29 1.26345 1.57738 0
M  V30 12971 C 1247.61 -0.166836 1.94285 0
M  V30 12972 O 1246.88 -1.09911 1.62162 0
M  V30 12973 H 1245.46 0.46466 0.584893 0
M  V30 12974 H 1248.12 1.68214 0.984373 0
M  V30 12975 H 1247.22 1.8672 2.50084 0
M  V30 12976 N 1247.52 -1.0444 1.18026 0
M  V30 12977 C 1248.93 -1.5903 0.978076 0
M  V30 12978 C 1249.28 -1.90407 -0.473241 0
M  V30 12979 O 1248.4 -1.69133 -1.34992 0
M  V30 12980 C 1249 -2.88942 1.76912 0
M  V30 12981 C 1247.56 -3.40164 1.61139 0
M  V30 12982 C 1246.7 -2.13797 1.76596 0
M  V30 12983 H 1249.66 -0.871574 1.32625 0
M  V30 12984 H 1249.68 -3.59173 1.25598 0
M  V30 12985 H 1249.19 -2.66074 2.82535 0
M  V30 12986 H 1247.29 -3.68053 0.580353 0
M  V30 12987 H 1247.4 -4.14241 2.40709 0
M  V30 12988 H 1245.77 -2.24922 1.19507 0
M  V30 12989 H 1246.55 -1.93389 2.83647 0
M  V30 12990 N 1248.99 -0.981699 -1.2329 0
M  V30 12991 C 1250.24 -0.651302 -1.9174 0
M  V30 12992 C 1250.57 0.815318 -1.76587 0
M  V30 12993 O 1249.82 1.60377 -1.1215 0
M  V30 12994 C 1250.12 -0.989244 -3.43437 0
M  V30 12995 C 1249.79 -2.44629 -3.78771 0
M  V30 12996 C 1248.45 -2.84449 -3.88127 0
M  V30 12997 C 1250.8 -3.39123 -3.95784 0
M  V30 12998 C 1248.13 -4.17775 -4.11923 0
M  V30 12999 C 1250.48 -4.72095 -4.21081 0
M  V30 13000 C 1249.15 -5.11672 -4.28659 0
M  V30 13001 H 1248.42 -0.238328 -0.701627 0
M  V30 13002 H 1251.06 -1.2358 -1.46288 0
M  V30 13003 H 1249.37 -0.322677 -3.90469 0
M  V30 13004 H 1251.07 -0.711796 -3.94632 0
M  V30 13005 H 1247.66 -2.12759 -3.72064 0
M  V30 13006 H 1251.84 -3.09536 -3.87945 0
M  V30 13007 H 1247.1 -4.48043 -4.16013 0
M  V30 13008 H 1251.27 -5.45271 -4.33189 0
M  V30 13009 H 1248.9 -6.15003 -4.46851 0
M  V30 13010 N 1250.47 1.3842 -0.753509 0
M  V30 13011 C 1251.88 1.82847 -0.377331 0
M  V30 13012 C 1252.23 1.62867 1.09401 0
M  V30 13013 O 1251.36 1.12981 1.84565 0
M  V30 13014 C 1251.95 3.31945 -0.678095 0
M  V30 13015 C 1250.51 3.7472 -0.355196 0
M  V30 13016 C 1249.66 2.61193 -0.931311 0
M  V30 13017 H 1252.61 1.2715 -0.949667 0
M  V30 13018 H 1252.63 3.80475 0.0437292 0
M  V30 13019 H 1252.14 3.46455 -1.74902 0
M  V30 13020 H 1250.25 3.65789 0.70915 0
M  V30 13021 H 1250.36 4.71487 -0.850693 0
M  V30 13022 H 1248.72 2.5219 -0.356695 0
M  V30 13023 H 1249.51 2.78503 -2.00727 0
M  V30 13024 N 1251.95 0.502579 1.49372 0
M  V30 13025 C 1252.86 -0.279532 2.32929 0
M  V30 13026 C 1253.88 -0.965806 1.44735 0
M  V30 13027 O 1255.05 -0.946839 1.77755 0
M  V30 13028 C 1252.12 -1.32913 3.20211 0
M  V30 13029 C 1251.18 -0.656121 4.24256 0
M  V30 13030 C 1250.41 -1.65571 5.07368 0
M  V30 13031 O 1250.63 -2.88571 4.92019 0
M  V30 13032 O 1249.57 -1.21016 5.89609 0
M  V30 13033 H 1253.39 0.404427 3.00995 0
M  V30 13034 H 1250.98 0.263888 1.47051 0
M  V30 13035 H 1252.86 -1.93635 3.74277 0
M  V30 13036 H 1251.54 -1.99598 2.54837 0
M  V30 13037 H 1250.44 -0.00911489 3.74099 0
M  V30 13038 H 1251.78 -0.0316802 4.9219 0
M  V30 13039 N 1253.43 -1.55816 0.23648 0
M  V30 13040 C 1254.38 -2.17588 -0.681145 0
M  V30 13041 C 1255.36 -1.12862 -1.14678 0
M  V30 13042 O 1256.55 -1.38805 -1.09829 0
M  V30 13043 C 1253.68 -2.87086 -1.88246 0
M  V30 13044 C 1252.77 -3.99056 -1.43581 0
M  V30 13045 N 1253.16 -5.00895 -0.702704 0
M  V30 13046 C 1251.46 -4.11419 -1.72192 0
M  V30 13047 C 1252.16 -5.79775 -0.472866 0
M  V30 13048 N 1251.14 -5.33675 -1.034 0
M  V30 13049 H 1254.94 -2.93684 -0.112772 0
M  V30 13050 H 1252.45 -1.62355 0.0383551 0
M  V30 13051 H 1254.45 -3.29761 -2.55075 0
M  V30 13052 H 1253.11 -2.1249 -2.45516 0
M  V30 13053 H 1254.12 -5.1669 -0.353865 0
M  V30 13054 H 1250.8 -3.47987 -2.30676 0
M  V30 13055 H 1252.19 -6.71807 0.111664 0
M  V30 13056 N 1254.91 0.036755 -1.57557 0
M  V30 13057 C 1256.14 0.740011 -1.92892 0
M  V30 13058 C 1256.54 1.69828 -0.833964 0
M  V30 13059 O 1255.89 1.82619 0.198974 0
M  V30 13060 C 1255.95 1.55827 -3.23972 0
M  V30 13061 C 1255.61 0.765613 -4.50541 0
M  V30 13062 C 1256.61 0.0692686 -5.19854 0
M  V30 13063 C 1254.3 0.722425 -4.97078 0
M  V30 13064 C 1256.29 -0.659649 -6.33977 0
M  V30 13065 C 1253.98 -0.0102431 -6.11099 0
M  V30 13066 C 1254.97 -0.700047 -6.79403 0
M  V30 13067 O 1254.66 -1.42084 -7.91244 0
M  V30 13068 H 1254.39 0.213496 -0.641401 0
M  V30 13069 H 1256.95 0.000665152 -2.054 0
M  V30 13070 H 1255.18 2.34125 -3.0777 0
M  V30 13071 H 1256.87 2.14343 -3.44691 0
M  V30 13072 H 1257.63 0.0937148 -4.84909 0
M  V30 13073 H 1253.51 1.24883 -4.43763 0
M  V30 13074 H 1257.06 -1.19861 -6.87226 0
M  V30 13075 H 1252.95 -0.0366395 -6.4549 0
M  V30 13076 H 1253.72 -1.33372 -8.07561 0
M  V30 13077 N 1256.39 1.54543 0.308881 0
M  V30 13078 C 1257.3 1.87994 1.4034 0
M  V30 13079 C 1258.31 0.773294 1.55872 0
M  V30 13080 O 1259.49 1.069 1.70688 0
M  V30 13081 C 1256.55 2.11341 2.74838 0
M  V30 13082 C 1255.61 3.35086 2.68358 0
M  V30 13083 C 1254.85 3.5731 3.96441 0
M  V30 13084 O 1255.07 2.82692 4.9542 0
M  V30 13085 O 1254 4.50814 3.98811 0
M  V30 13086 H 1257.83 2.81094 1.14976 0
M  V30 13087 H 1255.41 1.40634 0.504236 0
M  V30 13088 H 1257.3 2.27943 3.54429 0
M  V30 13089 H 1255.97 1.21427 3.00062 0
M  V30 13090 H 1254.88 3.23855 1.87267 0
M  V30 13091 H 1256.21 4.25104 2.48087 0
M  V30 13092 N 1257.86 -0.571685 1.46866 0
M  V30 13093 C 1259.27 -1.15383 1.46778 0
M  V30 13094 C 1259.63 -1.95023 0.214576 0
M  V30 13095 O 1258.75 -2.05386 -0.681574 0
M  V30 13096 C 1259.35 -2.09915 2.65935 0
M  V30 13097 C 1257.9 -2.6343 2.68852 0
M  V30 13098 C 1257.05 -1.39517 2.39646 0
M  V30 13099 H 1260 -0.359036 1.54585 0
M  V30 13100 H 1260.02 -2.9356 2.42081 0
M  V30 13101 H 1259.54 -1.51923 3.57129 0
M  V30 13102 H 1257.64 -3.2526 1.8176 0
M  V30 13103 H 1257.75 -3.05412 3.69134 0
M  V30 13104 H 1256.11 -1.69702 1.8993 0
M  V30 13105 H 1256.9 -0.833399 3.33031 0
M  V30 13106 N 1259.34 -1.34755 -0.817236 0
M  V30 13107 C 1260.59 -1.26771 -1.56882 0
M  V30 13108 C 1260.9 0.158962 -1.94953 0
M  V30 13109 O 1262.11 0.360996 -2.69089 0
M  V30 13110 C 1260.57 -2.22261 -2.83069 0
M  V30 13111 C 1260.17 -3.70216 -2.52277 0
M  V30 13112 C 1261.92 -2.23197 -3.61086 0
M  V30 13113 C 1259.82 -4.57559 -3.74691 0
M  V30 13114 H 1258.75 -0.470961 -0.588822 0
M  V30 13115 H 1261.41 -1.59955 -0.899254 0
M  V30 13116 H 1259.79 -1.82036 -3.5168 0
M  V30 13117 H 1260.96 -4.19014 -1.9174 0
M  V30 13118 H 1259.28 -3.71784 -1.87525 0
M  V30 13119 H 1261.87 -2.85673 -4.5199 0
M  V30 13120 H 1262.22 -1.2328 -3.97628 0
M  V30 13121 H 1262.75 -2.61897 -2.99424 0
M  V30 13122 H 1259.49 -5.58434 -3.43267 0
M  V30 13123 H 1259.01 -4.13494 -4.34491 0
M  V30 13124 H 1260.69 -4.72451 -4.42039 0
M  V30 13125 N 1260.82 1.03812 -1.18578 0
M  V30 13126 C 1261.73 2.15371 -0.930182 0
M  V30 13127 C 1262.75 1.73673 0.106599 0
M  V30 13128 O 1263.92 2.01257 -0.0759054 0
M  V30 13129 C 1260.99 3.43606 -0.462151 0
M  V30 13130 C 1260.05 3.99671 -1.5672 0
M  V30 13131 C 1259.28 5.21785 -1.12141 0
M  V30 13132 O 1259.5 5.70397 0.0188357 0
M  V30 13133 O 1258.44 5.70449 -1.9202 0
M  V30 13134 H 1262.26 2.39791 -1.86371 0
M  V30 13135 H 1259.85 1.13814 -0.967819 0
M  V30 13136 H 1261.73 4.2088 -0.20934 0
M  V30 13137 H 1260.41 3.20654 0.443052 0
M  V30 13138 H 1259.31 3.23774 -1.87406 0
M  V30 13139 H 1260.65 4.2697 -2.44862 0
M  V30 13140 N 1262.3 0.988223 1.22768 0
M  V30 13141 C 1263.53 0.679743 1.95415 0
M  V30 13142 C 1263.94 -0.754731 1.73059 0
M  V30 13143 O 1263.3 -1.50876 1.02678 0
M  V30 13144 C 1263.35 0.970344 3.48234 0
M  V30 13145 O 1263.07 2.34845 3.69837 0
M  V30 13146 C 1264.57 0.67891 4.3807 0
M  V30 13147 H 1261.79 0.251847 0.621944 0
M  V30 13148 H 1264.33 1.32173 1.56047 0
M  V30 13149 H 1262.49 0.374241 3.85588 0
M  V30 13150 H 1262.9 2.44412 4.64072 0
M  V30 13151 H 1264.38 0.932549 5.44066 0
M  V30 13152 H 1264.85 -0.387073 4.37491 0
M  V30 13153 H 1265.46 1.25585 4.06335 0
M  V30 13154 N 1263.78 -1.38018 0.760839 0
M  V30 13155 C 1265.19 -1.82645 0.387022 0
M  V30 13156 C 1265.54 -1.63445 -1.08536 0
M  V30 13157 O 1264.66 -1.13958 -1.83963 0
M  V30 13158 C 1265.26 -3.3158 0.69569 0
M  V30 13159 C 1263.82 -3.74527 0.375063 0
M  V30 13160 C 1262.96 -2.60696 0.94515 0
M  V30 13161 H 1265.91 -1.26644 0.956396 0
M  V30 13162 H 1265.94 -3.80493 -0.0235511 0
M  V30 13163 H 1265.45 -3.45522 1.76737 0
M  V30 13164 H 1263.55 -3.6616 -0.689741 0
M  V30 13165 H 1263.66 -4.71029 0.875685 0
M  V30 13166 H 1262.03 -2.51997 0.370065 0
M  V30 13167 H 1262.81 -2.77434 2.02201 0
M  V30 13168 N 1265.25 -0.510493 -1.49103 0
M  V30 13169 C 1266.18 0.251999 -2.32136 0
M  V30 13170 C 1267.16 0.953613 -1.40855 0
M  V30 13171 O 1268.35 0.943178 -1.69758 0
M  V30 13172 C 1265.48 1.31118 -3.21598 0
M  V30 13173 C 1264.43 0.72888 -4.21748 0
M  V30 13174 C 1263.76 1.88928 -5.0021 0
M  V30 13175 C 1265.06 -0.286425 -5.21514 0
M  V30 13176 H 1266.75 -0.441102 -2.96133 0
M  V30 13177 H 1264.3 -0.213577 -1.42407 0
M  V30 13178 H 1266.25 1.8524 -3.78503 0
M  V30 13179 H 1264.98 2.0336 -2.55563 0
M  V30 13180 H 1263.64 0.209336 -3.66002 0
M  V30 13181 H 1263.28 2.59961 -4.30615 0
M  V30 13182 H 1262.98 1.50568 -5.67981 0
M  V30 13183 H 1264.51 2.43465 -5.59962 0
M  V30 13184 H 1265.92 0.166997 -5.73057 0
M  V30 13185 H 1264.32 -0.586361 -5.97228 0
M  V30 13186 H 1265.39 -1.19904 -4.69842 0
M  V30 13187 N 1266.73 1.55688 -0.24474 0
M  V30 13188 C 1267.98 1.98498 0.379852 0
M  V30 13189 C 1268.3 1.13416 1.58625 0
M  V30 13190 O 1267.57 0.216456 1.947 0
M  V30 13191 H 1266.15 0.73312 0.143334 0
M  V30 13192 H 1268.81 1.91858 -0.343027 0
M  V30 13193 H 1267.91 3.04367 0.690463 0
M  V30 13194 N 1268.21 -0.0283989 1.57574 0
M  V30 13195 C 1269.44 -0.730831 1.93563 0
M  V30 13196 C 1269.85 -1.68857 0.844556 0
M  V30 13197 O 1269.21 -1.8162 -0.178971 0
M  V30 13198 C 1269.26 -1.48731 3.29486 0
M  V30 13199 O 1268.98 -0.568017 4.34402 0
M  V30 13200 C 1270.48 -2.28684 3.79761 0
M  V30 13201 H 1267.7 -0.205346 0.638807 0
M  V30 13202 H 1270.25 0.0142728 2.04495 0
M  V30 13203 H 1268.4 -2.18429 3.19949 0
M  V30 13204 H 1268.82 -1.09861 5.12865 0
M  V30 13205 H 1270.29 -2.77157 4.77376 0
M  V30 13206 H 1270.77 -3.10133 3.10989 0
M  V30 13207 H 1271.37 -1.64059 3.92383 0
M  V30 13208 N 1269.69 -1.54705 -0.300681 0
M  V30 13209 C 1270.64 -1.86433 -1.39087 0
M  V30 13210 C 1271.63 -0.738101 -1.52474 0
M  V30 13211 O 1272.84 -0.922096 -1.54588 0
M  V30 13212 H 1269.21 -0.591314 -0.464599 0
M  V30 13213 H 1271.18 -2.77558 -1.09563 0
M  V30 13214 C 1269.93 -2.1286 -2.74929 0
M  V30 13215 H 1269.25 -2.98994 -2.6541 0
M  V30 13216 H 1270.69 -2.39 -3.50222 0
M  V30 13217 C 1269.15 -0.92726 -3.23888 0
M  V30 13218 O 1269.68 -0.147921 -4.01428 0
M  V30 13219 N 1267.89 -0.732553 -2.81215 0
M  V30 13220 H 1267.44 -1.36797 -2.18276 0
M  V30 13221 H 1267.39 0.0696902 -3.14323 0
M  V30 13222 N 1271.17 0.563888 -1.47167 0
M  V30 13223 C 1272.58 1.14603 -1.47388 0
M  V30 13224 C 1272.93 1.94907 -0.224916 0
M  V30 13225 O 1272.05 2.05745 0.670672 0
M  V30 13226 C 1272.65 2.08501 -2.67044 0
M  V30 13227 C 1271.21 2.62 -2.70246 0
M  V30 13228 C 1270.35 1.38244 -2.40383 0
M  V30 13229 H 1273.31 0.350833 -1.54774 0
M  V30 13230 H 1273.33 2.92272 -2.43634 0
M  V30 13231 H 1272.84 1.50027 -3.57929 0
M  V30 13232 H 1270.94 3.24292 -1.83482 0
M  V30 13233 H 1271.05 3.0345 -3.70749 0
M  V30 13234 H 1269.42 1.68692 -1.90827 0
M  V30 13235 H 1270.2 0.815726 -3.33468 0
M  V30 13236 N 1272.64 1.35187 0.810078 0
M  V30 13237 C 1273.57 1.30481 1.93641 0
M  V30 13238 C 1274.56 0.179875 1.69146 0
M  V30 13239 O 1275.74 0.374284 1.90559 0
M  V30 13240 C 1272.87 1.07251 3.30325 0
M  V30 13241 C 1271.82 2.16348 3.69293 0
M  V30 13242 C 1271.15 1.78288 5.04101 0
M  V30 13243 C 1272.45 3.58285 3.80038 0
M  V30 13244 H 1274.14 2.24725 1.97836 0
M  V30 13245 H 1271.69 1.08179 0.950436 0
M  V30 13246 H 1273.64 1.02599 4.08719 0
M  V30 13247 H 1272.37 0.0945203 3.26463 0
M  V30 13248 H 1271.03 2.2009 2.93182 0
M  V30 13249 H 1270.67 0.791163 4.96739 0
M  V30 13250 H 1270.37 2.51315 5.31144 0
M  V30 13251 H 1271.9 1.75155 5.84938 0
M  V30 13252 H 1273.31 3.56884 4.48672 0
M  V30 13253 H 1271.71 4.30044 4.18548 0
M  V30 13254 H 1272.78 3.94691 2.81685 0
M  V30 13255 N 1274.12 -1.03182 1.19127 0
M  V30 13256 C 1275.07 -2.09735 0.894172 0
M  V30 13257 C 1276.06 -1.60291 -0.139805 0
M  V30 13258 O 1277.25 -1.76879 0.065477 0
M  V30 13259 C 1274.38 -3.40578 0.431418 0
M  V30 13260 C 1273.46 -3.96764 1.49797 0
M  V30 13261 N 1273.85 -4.2665 2.71668 0
M  V30 13262 C 1272.15 -4.24741 1.36057 0
M  V30 13263 C 1272.85 -4.71737 3.40352 0
M  V30 13264 N 1271.83 -4.73091 2.67742 0
M  V30 13265 H 1275.63 -2.3073 1.82047 0
M  V30 13266 H 1273.15 -1.21016 1.083 0
M  V30 13267 H 1275.14 -4.1642 0.20004 0
M  V30 13268 H 1273.8 -3.21005 -0.488432 0
M  V30 13269 H 1274.81 -4.16023 3.08457 0
M  V30 13270 H 1271.49 -4.14447 0.503948 0
M  V30 13271 H 1272.88 -5.03806 4.44555 0
M  V30 13272 N 1275.6 -0.99472 -1.22242 0
M  V30 13273 C 1277.01 -0.706456 -1.72818 0
M  V30 13274 C 1277.36 0.776566 -1.80177 0
M  V30 13275 O 1276.49 1.60698 -1.44931 0
M  V30 13276 C 1277.08 -1.27571 -3.13865 0
M  V30 13277 C 1275.64 -1.03679 -3.61839 0
M  V30 13278 C 1274.79 -1.3948 -2.39668 0
M  V30 13279 H 1277.74 -1.16687 -1.07564 0
M  V30 13280 H 1277.76 -0.655202 -3.74816 0
M  V30 13281 H 1277.27 -2.35508 -3.08476 0
M  V30 13282 H 1275.37 0.0258679 -3.72591 0
M  V30 13283 H 1275.49 -1.70145 -4.4787 0
M  V30 13284 H 1273.85 -0.813418 -2.41362 0
M  V30 13285 H 1274.63 -2.48425 -2.36939 0
M  V30 13286 N 1277.08 1.37613 -0.768148 0
M  V30 13287 C 1278.03 2.3218 -0.13974 0
M  V30 13288 C 1279.02 1.54754 0.689023 0
M  V30 13289 O 1280.23 1.70177 0.586489 0
M  V30 13290 H 1276.6 0.751536 -0.0264001 0
M  V30 13291 H 1278.57 2.82768 -0.953139 0
M  V30 13292 C 1277.32 3.39997 0.727829 0
M  V30 13293 H 1276.64 3.99676 0.0994851 0
M  V30 13294 H 1278.08 4.08538 1.13456 0
M  V30 13295 C 1276.54 2.79778 1.87686 0
M  V30 13296 O 1277.07 2.70241 2.97208 0
M  V30 13297 N 1275.28 2.37373 1.67637 0
M  V30 13298 H 1274.83 2.4533 0.785552 0
M  V30 13299 H 1274.78 1.97426 2.44684 0
M  V30 13300 N 1278.56 0.518393 1.4883 0
M  V30 13301 C 1279.8 -0.0199348 2.0279 0
M  V30 13302 C 1280.14 -1.35026 1.39576 0
M  V30 13303 O 1279.41 -1.86927 0.537449 0
M  V30 13304 C 1279.69 -0.154184 3.5977 0
M  V30 13305 C 1279.55 1.2005 4.33484 0
M  V30 13306 C 1280.87 -0.886547 4.31078 0
M  V30 13307 H 1277.98 -0.00577061 0.736977 0
M  V30 13308 H 1280.63 0.673178 1.77675 0
M  V30 13309 H 1278.78 -0.74451 3.81299 0
M  V30 13310 H 1280.45 1.83104 4.23404 0
M  V30 13311 H 1278.69 1.78537 3.95357 0
M  V30 13312 H 1279.36 1.05968 5.41733 0
M  V30 13313 H 1281.84 -0.385711 4.14308 0
M  V30 13314 H 1280.71 -0.949355 5.40628 0
M  V30 13315 H 1280.98 -1.93424 3.97542 0
M  V30 13316 N 1280.03 -1.55556 0.252993 0
M  V30 13317 C 1281.28 -1.99385 -0.370599 0
M  V30 13318 C 1281.61 -1.14101 -1.57145 0
M  V30 13319 O 1280.89 -0.205828 -1.93408 0
M  V30 13320 C 1281.17 -3.51672 -0.774503 0
M  V30 13321 C 1281.02 -4.47719 0.432159 0
M  V30 13322 C 1282.34 -4.0923 -1.61923 0
M  V30 13323 H 1279.46 -0.724858 -0.133231 0
M  V30 13324 H 1282.1 -1.86644 0.355522 0
M  V30 13325 H 1280.25 -3.62661 -1.39318 0
M  V30 13326 H 1281.93 -4.48704 1.07063 0
M  V30 13327 H 1280.17 -4.2029 1.07419 0
M  V30 13328 H 1280.84 -5.51898 0.106123 0
M  V30 13329 H 1283.32 -4.01381 -1.09693 0
M  V30 13330 H 1282.19 -5.16039 -1.87068 0
M  V30 13331 H 1282.45 -3.58067 -2.59307 0
M  V30 13332 N 1281.51 0.0200419 -1.57587 0
M  V30 13333 C 1282.74 0.724241 -1.94344 0
M  V30 13334 C 1283.16 1.67612 -0.853688 0
M  V30 13335 O 1282.52 1.80303 0.189873 0
M  V30 13336 C 1282.57 1.44967 -3.30177 0
M  V30 13337 O 1281.67 2.56326 -3.23064 0
M  V30 13338 H 1281.01 0.194142 -0.634984 0
M  V30 13339 H 1283.54 -0.0271756 -2.04582 0
M  V30 13340 H 1283.55 1.81758 -3.65278 0
M  V30 13341 H 1282.23 0.75161 -4.09052 0
M  V30 13342 H 1280.81 2.22011 -2.99609 0
M  V30 13343 N 1282.99 1.54862 0.292472 0
M  V30 13344 C 1283.94 1.87168 1.38097 0
M  V30 13345 C 1284.93 0.746176 1.52081 0
M  V30 13346 O 1286.14 0.930281 1.54097 0
M  V30 13347 H 1282.51 0.593769 0.461456 0
M  V30 13348 H 1284.48 2.78135 1.0809 0
M  V30 13349 C 1283.23 2.14315 2.73796 0
M  V30 13350 H 1282.56 3.00398 2.63821 0
M  V30 13351 H 1284 2.40853 3.48949 0
M  V30 13352 C 1282.46 0.944424 3.23392 0
M  V30 13353 O 1282.99 0.169208 4.01343 0
M  V30 13354 N 1281.19 0.747456 2.80823 0
M  V30 13355 H 1280.74 1.37953 2.17547 0
M  V30 13356 H 1280.7 -0.0530199 3.14355 0
M  V30 13357 N 1284.47 -0.556076 1.47464 0
M  V30 13358 C 1285.88 -1.1382 1.47993 0
M  V30 13359 C 1286.23 -1.94785 0.235249 0
M  V30 13360 O 1285.36 -2.06098 -0.659752 0
M  V30 13361 C 1285.95 -2.07082 2.68146 0
M  V30 13362 C 1284.51 -2.60564 2.71631 0
M  V30 13363 C 1283.66 -1.36967 2.41113 0
M  V30 13364 H 1286.61 -0.34262 1.54957 0
M  V30 13365 H 1286.63 -2.90975 2.45181 0
M  V30 13366 H 1286.14 -1.48127 3.5872 0
M  V30 13367 H 1284.24 -3.23314 1.852 0
M  V30 13368 H 1284.35 -3.0148 3.72353 0
M  V30 13369 H 1282.72 -1.67678 1.91719 0
M  V30 13370 H 1283.5 -0.79803 3.33896 0
M  V30 13371 N 1285.95 -1.35615 -0.802897 0
M  V30 13372 C 1287.19 -1.29285 -1.56247 0
M  V30 13373 C 1287.53 0.131474 -1.93754 0
M  V30 13374 O 1286.8 1.08172 -1.61645 0
M  V30 13375 C 1287.08 -2.20285 -2.84863 0
M  V30 13376 C 1286.94 -3.71351 -2.53808 0
M  V30 13377 C 1288.26 -2.10318 -3.86593 0
M  V30 13378 H 1285.38 -0.470972 -0.566882 0
M  V30 13379 H 1288.02 -1.66048 -0.923469 0
M  V30 13380 H 1286.17 -1.89063 -3.39393 0
M  V30 13381 H 1287.84 -4.13031 -2.05433 0
M  V30 13382 H 1286.08 -3.9145 -1.86947 0
M  V30 13383 H 1286.75 -4.30416 -3.4561 0
M  V30 13384 H 1289.23 -2.37772 -3.41473 0
M  V30 13385 H 1288.11 -2.76183 -4.74357 0
M  V30 13386 H 1288.37 -1.08627 -4.28547 0
M  V30 13387 N 1287.43 1.02549 -1.19673 0
M  V30 13388 C 1288.67 1.76265 -1.00293 0
M  V30 13389 C 1289 1.88555 0.464816 0
M  V30 13390 O 1288.28 1.40484 1.34515 0
M  V30 13391 C 1288.56 3.18688 -1.6766 0
M  V30 13392 C 1288.42 3.14247 -3.21821 0
M  V30 13393 C 1289.73 4.17159 -1.40238 0
M  V30 13394 H 1286.85 0.639837 -0.365756 0
M  V30 13395 H 1289.5 1.19691 -1.4756 0
M  V30 13396 H 1287.65 3.66992 -1.27472 0
M  V30 13397 H 1289.32 2.73815 -3.71245 0
M  V30 13398 H 1287.56 2.51874 -3.53188 0
M  V30 13399 H 1288.23 4.14886 -3.64107 0
M  V30 13400 H 1290.71 3.77471 -1.75086 0
M  V30 13401 H 1289.58 5.14997 -1.89919 0
M  V30 13402 H 1289.84 4.4088 -0.328197 0
M  V30 13403 N 1288.9 1.00119 1.21713 0
M  V30 13404 C 1290.32 0.713343 1.42771 0
M  V30 13405 C 1290.52 -0.712923 1.88467 0
M  V30 13406 O 1289.58 -1.48277 2.04378 0
M  V30 13407 C 1290.89 1.72596 2.46234 0
M  V30 13408 C 1292.44 1.74235 2.60022 0
M  V30 13409 C 1292.91 2.74382 3.66713 0
M  V30 13410 N 1294.4 2.73027 3.7418 0
M  V30 13411 C 1295.14 3.47178 4.56349 0
M  V30 13412 N 1294.63 4.30958 5.42446 0
M  V30 13413 N 1296.43 3.35846 4.50737 0
M  V30 13414 H 1288.58 1.9222 0.903611 0
M  V30 13415 H 1290.84 0.829466 0.459011 0
M  V30 13416 H 1290.55 2.74699 2.19621 0
M  V30 13417 H 1290.42 1.52553 3.44975 0
M  V30 13418 H 1292.81 0.728261 2.85973 0
M  V30 13419 H 1292.89 1.98349 1.61528 0
M  V30 13420 H 1292.53 3.75945 3.41508 0
M  V30 13421 H 1292.46 2.47534 4.64795 0
M  V30 13422 H 1294.95 2.12242 3.12669 0
M  V30 13423 H 1295.27 4.84344 6.02189 0
M  V30 13424 H 1293.61 4.35042 5.42 0
M  V30 13425 H 1296.8 2.6983 3.82504 0
M  V30 13426 H 1296.98 3.93892 5.14541 0
M  V30 13427 N 1290.38 -1.37203 0.775435 0
M  V30 13428 C 1291.31 -2.32819 0.17826 0
M  V30 13429 C 1292.29 -1.55963 -0.678944 0
M  V30 13430 O 1293.48 -1.84183 -0.615648 0
M  V30 13431 C 1290.61 -3.40198 -0.698768 0
M  V30 13432 C 1289.56 -4.27961 0.057423 0
M  V30 13433 C 1288.89 -5.26385 -0.93929 0
M  V30 13434 C 1290.19 -5.07402 1.23856 0
M  V30 13435 H 1291.88 -2.8301 0.977028 0
M  V30 13436 H 1289.43 -1.3607 0.471274 0
M  V30 13437 H 1291.38 -4.06067 -1.12637 0
M  V30 13438 H 1290.1 -2.88541 -1.53009 0
M  V30 13439 H 1288.76 -3.63628 0.465848 0
M  V30 13440 H 1288.41 -4.71007 -1.76527 0
M  V30 13441 H 1288.11 -5.85966 -0.437844 0
M  V30 13442 H 1289.64 -5.9513 -1.36576 0
M  V30 13443 H 1291.05 -5.6639 0.887423 0
M  V30 13444 H 1289.45 -5.76327 1.67234 0
M  V30 13445 H 1290.52 -4.3986 2.04085 0
M  V30 13446 N 1291.86 -0.526279 -1.48553 0
M  V30 13447 C 1293.09 0.00522012 -2.06599 0
M  V30 13448 C 1293.5 1.29039 -1.38368 0
M  V30 13449 O 1292.84 1.77747 -0.463854 0
M  V30 13450 C 1292.9 0.303512 -3.58216 0
M  V30 13451 C 1292.57 -0.887635 -4.48297 0
M  V30 13452 C 1293.56 -1.78504 -4.88295 0
M  V30 13453 C 1291.25 -1.09359 -4.90251 0
M  V30 13454 C 1293.24 -2.87233 -5.69013 0
M  V30 13455 C 1290.93 -2.18402 -5.7074 0
M  V30 13456 C 1291.93 -3.07172 -6.10028 0
M  V30 13457 O 1291.62 -4.14329 -6.88902 0
M  V30 13458 H 1291.35 -0.0287033 -0.67539 0
M  V30 13459 H 1293.9 -0.730244 -1.91981 0
M  V30 13460 H 1292.13 1.0929 -3.70935 0
M  V30 13461 H 1293.82 0.776647 -3.98401 0
M  V30 13462 H 1294.59 -1.63785 -4.56508 0
M  V30 13463 H 1290.47 -0.411922 -4.59156 0
M  V30 13464 H 1294.01 -3.56549 -5.99599 0
M  V30 13465 H 1289.91 -2.33106 -6.0194 0
M  V30 13466 H 1290.67 -4.11993 -7.07251 0
M  V30 13467 N 1293.34 1.5542 -0.261239 0
M  V30 13468 C 1294.25 2.25627 0.642625 0
M  V30 13469 C 1295.26 1.27732 1.18155 0
M  V30 13470 O 1296.44 1.60639 1.21479 0
M  V30 13471 C 1293.5 2.95303 1.8165 0
M  V30 13472 C 1292.57 4.08644 1.31563 0
M  V30 13473 C 1291.8 4.74988 2.43355 0
M  V30 13474 O 1292.02 4.40474 3.62407 0
M  V30 13475 O 1290.96 5.63217 2.12299 0
M  V30 13476 H 1294.78 3.03609 0.0743091 0
M  V30 13477 H 1292.37 1.49372 -0.0291754 0
M  V30 13478 H 1294.25 3.3914 2.50125 0
M  V30 13479 H 1292.92 2.2025 2.37217 0
M  V30 13480 H 1291.83 3.69294 0.597746 0
M  V30 13481 H 1293.16 4.85558 0.805878 0
M  V30 13482 N 1294.82 -0.0116844 1.57596 0
M  V30 13483 C 1295.75 -1.03477 2.04512 0
M  V30 13484 C 1296.76 -1.31414 0.960945 0
M  V30 13485 O 1297.95 -1.28596 1.23796 0
M  V30 13486 C 1295.05 -2.37234 2.42019 0
M  V30 13487 C 1294.22 -2.28405 3.73028 0
M  V30 13488 C 1293.28 -3.44753 3.97532 0
M  V30 13489 O 1292.31 -3.23465 4.68358 0
M  V30 13490 N 1293.51 -4.67212 3.44518 0
M  V30 13491 H 1296.27 -0.634758 2.92901 0
M  V30 13492 H 1293.84 -0.1993 1.60669 0
M  V30 13493 H 1295.83 -3.13821 2.55535 0
M  V30 13494 H 1294.4 -2.69018 1.5921 0
M  V30 13495 H 1293.62 -1.36804 3.697 0
M  V30 13496 H 1294.91 -2.19666 4.58938 0
M  V30 13497 H 1294.3 -4.87407 2.87142 0
M  V30 13498 H 1292.86 -5.41105 3.63384 0
M  V30 13499 N 1296.29 -1.55015 -0.284256 0
M  V30 13500 C 1297.57 -1.6579 -1.03794 0
M  V30 13501 C 1297.95 -0.517029 -2.04671 0
M  V30 13502 O 1297.3 0.484287 -2.23309 0
M  V30 13503 C 1297.51 -3.04527 -1.70483 0
M  V30 13504 C 1298.86 -3.61903 -2.22062 0
M  V30 13505 O 1299.88 -3.07087 -1.80488 0
M  V30 13506 O 1298.74 -4.57917 -2.98286 0
M  V30 13507 H 1295.83 -0.672906 -0.480757 0
M  V30 13508 H 1298.38 -1.67357 -0.281009 0
M  V30 13509 H 1297.15 -3.79004 -0.973238 0
M  V30 13510 H 1296.77 -3.0681 -2.5289 0
M  V30 13511 N 1297.77 0.548248 -1.47757 0
M  V30 13512 C 1298.73 1.63666 -1.60456 0
M  V30 13513 C 1299.73 1.53499 -0.479028 0
M  V30 13514 O 1300.92 1.57497 -0.744342 0
M  V30 13515 C 1298.06 3.03239 -1.55754 0
M  V30 13516 H 1299.25 1.53752 -2.57488 0
M  V30 13517 H 1296.8 0.768881 -1.36081 0
M  V30 13518 H 1297.54 3.18677 -0.601303 0
M  V30 13519 H 1297.32 3.12027 -2.37448 0
M  V30 13520 H 1298.81 3.82406 -1.67797 0
M  V30 13521 N 1299.25 1.36039 0.795694 0
M  V30 13522 C 1300.18 1.32528 1.92246 0
M  V30 13523 C 1301.16 0.197805 1.68946 0
M  V30 13524 O 1302.35 0.394474 1.90151 0
M  V30 13525 C 1299.48 1.10748 3.29169 0
M  V30 13526 C 1298.43 2.20253 3.66978 0
M  V30 13527 C 1297.76 1.83624 5.02181 0
M  V30 13528 C 1299.06 3.62296 3.76216 0
M  V30 13529 H 1300.75 2.2681 1.95442 0
M  V30 13530 H 1298.3 1.09181 0.938908 0
M  V30 13531 H 1300.25 1.06929 4.07608 0
M  V30 13532 H 1298.97 0.129141 3.26345 0
M  V30 13533 H 1297.63 2.23187 2.90832 0
M  V30 13534 H 1297.28 0.843804 4.95872 0
M  V30 13535 H 1296.98 2.56935 5.28449 0
M  V30 13536 H 1298.5 1.81349 5.83048 0
M  V30 13537 H 1299.92 3.61623 4.44861 0
M  V30 13538 H 1298.31 4.34459 4.13963 0
M  V30 13539 H 1299.38 3.97657 2.77483 0
M  V30 13540 N 1300.73 -1.01913 1.20215 0
M  V30 13541 C 1302.14 -1.27766 0.956459 0
M  V30 13542 C 1302.34 -1.98158 -0.365486 0
M  V30 13543 O 1301.4 -2.27539 -1.09463 0
M  V30 13544 C 1302.71 -2.11516 2.13732 0
M  V30 13545 C 1304.26 -2.24792 2.17802 0
M  V30 13546 C 1304.74 -3.11919 3.35367 0
M  V30 13547 N 1306.23 -3.19507 3.35364 0
M  V30 13548 C 1306.96 -3.8714 4.22978 0
M  V30 13549 N 1306.46 -4.5692 5.20765 0
M  V30 13550 N 1308.25 -3.83638 4.10827 0
M  V30 13551 H 1300.4 -0.546426 2.05251 0
M  V30 13552 H 1302.67 -0.303772 0.898012 0
M  V30 13553 H 1302.37 -1.67127 3.09453 0
M  V30 13554 H 1302.25 -3.12249 2.11614 0
M  V30 13555 H 1304.63 -2.68407 1.22645 0
M  V30 13556 H 1304.71 -1.23576 2.2397 0
M  V30 13557 H 1304.36 -2.6901 4.30809 0
M  V30 13558 H 1304.29 -4.13215 3.26436 0
M  V30 13559 H 1306.78 -2.69819 2.64587 0
M  V30 13560 H 1307.09 -5.06188 5.83947 0
M  V30 13561 H 1305.44 -4.55753 5.24704 0
M  V30 13562 H 1308.63 -3.28268 3.33703 0
M  V30 13563 H 1308.8 -4.36071 4.79318 0
M  V30 13564 N 1302.21 -1.00763 -1.2118 0
M  V30 13565 C 1303.14 -0.515053 -2.22312 0
M  V30 13566 C 1304.12 0.432665 -1.56738 0
M  V30 13567 O 1305.3 0.35477 -1.85131 0
M  V30 13568 C 1302.43 0.251544 -3.37765 0
M  V30 13569 C 1301.47 -0.64437 -4.21604 0
M  V30 13570 S 1302.31 -2.10832 -4.9225 0
M  V30 13571 C 1303.46 -1.35163 -6.11132 0
M  V30 13572 H 1303.7 -1.37198 -2.6375 0
M  V30 13573 H 1301.23 -0.815783 -1.31089 0
M  V30 13574 H 1303.19 0.687761 -4.04698 0
M  V30 13575 H 1301.85 1.08393 -2.94805 0
M  V30 13576 H 1301.04 -0.0537452 -5.03971 0
M  V30 13577 H 1300.64 -1.01798 -3.5988 0
M  V30 13578 H 1302.94 -0.6269 -6.74593 0
M  V30 13579 H 1303.88 -2.15111 -6.74635 0
M  V30 13580 H 1304.29 -0.858444 -5.57935 0
M  V30 13581 N 1303.68 1.3679 -0.7827 0
M  V30 13582 C 1304.93 1.99023 -0.351316 0
M  V30 13583 C 1305.25 1.62436 1.07887 0
M  V30 13584 O 1304.52 0.895084 1.74256 0
M  V30 13585 H 1303.1 0.736141 -0.126909 0
M  V30 13586 H 1305.77 1.67095 -1.00325 0
M  V30 13587 H 1304.86 3.09015 -0.43774 0
M  V30 13588 N 1305.16 0.53415 1.48272 0
M  V30 13589 C 1306.11 -0.226335 2.29688 0
M  V30 13590 C 1307.08 -0.929937 1.37628 0
M  V30 13591 O 1308.26 -0.930149 1.66592 0
M  V30 13592 C 1305.4 -1.26472 3.2109 0
M  V30 13593 C 1304.52 -0.569542 4.28229 0
M  V30 13594 C 1303.65 -1.59122 5.06807 0
M  V30 13595 C 1302.69 -0.879734 6.05745 0
M  V30 13596 N 1301.83 -1.84715 6.77366 0
M  V30 13597 H 1306.67 0.474111 2.94204 0
M  V30 13598 H 1304.21 0.245643 1.45034 0
M  V30 13599 H 1306.16 -1.87911 3.72485 0
M  V30 13600 H 1304.79 -1.9335 2.58487 0
M  V30 13601 H 1303.85 0.158872 3.80068 0
M  V30 13602 H 1305.16 -0.0110904 4.98799 0
M  V30 13603 H 1304.31 -2.27977 5.62238 0
M  V30 13604 H 1303.05 -2.18357 4.36086 0
M  V30 13605 H 1302.06 -0.177134 5.49515 0
M  V30 13606 H 1303.28 -0.293439 6.78466 0
M  V30 13607 H 1301.23 -2.42851 6.09393 0
M  V30 13608 H 1301.14 -1.34025 7.44025 0
M  V30 13609 H 1302.41 -2.52756 7.37384 0
M  V30 13610 N 1306.64 -1.55279 0.269478 0
M  V30 13611 C 1307.59 -2.22304 -0.620435 0
M  V30 13612 C 1308.56 -1.19457 -1.15409 0
M  V30 13613 O 1309.74 -1.4798 -1.20443 0
M  V30 13614 C 1306.88 -2.94356 -1.80134 0
M  V30 13615 C 1306 -4.1191 -1.30207 0
M  V30 13616 C 1305.13 -4.71621 -2.44433 0
M  V30 13617 C 1304.17 -5.81379 -1.91481 0
M  V30 13618 N 1303.31 -6.35176 -2.99158 0
M  V30 13619 H 1308.15 -2.9797 -0.0422165 0
M  V30 13620 H 1305.68 -1.47097 -0.00907173 0
M  V30 13621 H 1307.64 -3.34343 -2.4954 0
M  V30 13622 H 1306.27 -2.21124 -2.35168 0
M  V30 13623 H 1305.32 -3.77082 -0.501301 0
M  V30 13624 H 1306.64 -4.9108 -0.874183 0
M  V30 13625 H 1305.79 -5.14298 -3.21842 0
M  V30 13626 H 1304.53 -3.91715 -2.90535 0
M  V30 13627 H 1303.53 -5.38157 -1.12549 0
M  V30 13628 H 1304.76 -6.63149 -1.46322 0
M  V30 13629 H 1302.7 -5.58167 -3.44652 0
M  V30 13630 H 1302.62 -7.09602 -2.60769 0
M  V30 13631 H 1303.89 -6.82512 -3.7656 0
M  V30 13632 N 1308.12 0.00332656 -1.576 0
M  V30 13633 C 1309.03 1.01221 -2.1164 0
M  V30 13634 C 1310.04 1.37918 -1.06088 0
M  V30 13635 O 1311.22 1.46717 -1.37971 0
M  V30 13636 C 1308.29 2.28638 -2.60626 0
M  V30 13637 C 1307.35 1.98284 -3.80765 0
M  V30 13638 C 1306.58 3.19626 -4.27405 0
M  V30 13639 O 1306.8 4.31196 -3.73398 0
M  V30 13640 O 1305.74 3.03819 -5.19594 0
M  V30 13641 H 1309.56 0.582839 -2.98055 0
M  V30 13642 H 1307.15 0.221947 -1.47742 0
M  V30 13643 H 1309.03 3.03498 -2.92347 0
M  V30 13644 H 1307.7 2.70819 -1.7731 0
M  V30 13645 H 1306.61 1.2091 -3.54022 0
M  V30 13646 H 1307.94 1.60942 -4.65144 0
M  V30 13647 N 1309.6 1.55164 0.276031 0
M  V30 13648 C 1310.53 1.84243 1.36335 0
M  V30 13649 C 1311.54 0.726745 1.45679 0
M  V30 13650 O 1312.73 1.00456 1.4755 0
M  V30 13651 C 1309.83 1.98768 2.7449 0
M  V30 13652 C 1309 3.294 2.87775 0
M  V30 13653 C 1308.06 3.34029 4.06585 0
M  V30 13654 O 1307.09 4.07423 3.97486 0
M  V30 13655 N 1308.29 2.61213 5.18409 0
M  V30 13656 H 1311.06 2.78092 1.11736 0
M  V30 13657 H 1308.62 1.55044 0.466143 0
M  V30 13658 H 1310.61 1.99238 3.52259 0
M  V30 13659 H 1309.18 1.11799 2.91924 0
M  V30 13660 H 1308.4 3.41494 1.96914 0
M  V30 13661 H 1309.69 4.15558 2.93579 0
M  V30 13662 H 1309.08 2.01261 5.28687 0
M  V30 13663 H 1307.64 2.67409 5.9442 0
M  V30 13664 N 1311.07 -0.540404 1.48045 0
M  V30 13665 C 1312.32 -1.29678 1.55531 0
M  V30 13666 C 1312.65 -1.93197 0.224725 0
M  V30 13667 O 1311.9 -1.79308 -0.784028 0
M  V30 13668 C 1312.2 -2.41517 2.63447 0
M  V30 13669 C 1311.87 -1.95719 4.06208 0
M  V30 13670 C 1310.53 -1.82946 4.45067 0
M  V30 13671 C 1312.88 -1.6098 4.95717 0
M  V30 13672 C 1310.21 -1.33753 5.7125 0
M  V30 13673 C 1312.56 -1.13253 6.2238 0
M  V30 13674 C 1311.23 -0.990886 6.60104 0
M  V30 13675 H 1310.5 -0.474525 0.569129 0
M  V30 13676 H 1313.14 -0.604209 1.81718 0
M  V30 13677 H 1311.45 -3.16401 2.3108 0
M  V30 13678 H 1313.15 -2.9967 2.66457 0
M  V30 13679 H 1309.74 -2.06609 3.75514 0
M  V30 13680 H 1313.92 -1.69713 4.66381 0
M  V30 13681 H 1309.18 -1.21465 5.99213 0
M  V30 13682 H 1313.35 -0.854401 6.91139 0
M  V30 13683 H 1310.98 -0.607497 7.57769 0
M  V30 13684 N 1312.55 -1.36459 -0.788468 0
M  V30 13685 C 1313.96 -1.27515 -1.3637 0
M  V30 13686 C 1314.31 0.0846251 -1.96017 0
M  V30 13687 O 1313.44 0.98611 -1.92626 0
M  V30 13688 C 1314.03 -2.30903 -2.4793 0
M  V30 13689 C 1312.59 -2.25645 -3.01266 0
M  V30 13690 C 1311.74 -2.15631 -1.74352 0
M  V30 13691 H 1314.69 -1.47324 -0.590039 0
M  V30 13692 H 1314.71 -1.94601 -3.26972 0
M  V30 13693 H 1314.22 -3.29858 -2.04487 0
M  V30 13694 H 1312.33 -1.3016 -3.49126 0
M  V30 13695 H 1312.44 -3.18373 -3.58016 0
M  V30 13696 H 1310.8 -1.61901 -1.96622 0
M  V30 13697 H 1311.59 -3.16475 -1.33036 0
M  V30 13698 N 1314.03 1.01274 -1.20754 0
M  V30 13699 C 1315.26 1.78265 -1.04427 0
M  V30 13700 C 1315.67 1.84718 0.409361 0
M  V30 13701 O 1315.01 1.30195 1.29595 0
M  V30 13702 C 1315.07 3.24037 -1.55693 0
M  V30 13703 C 1314.74 3.41181 -3.04047 0
M  V30 13704 C 1315.73 3.30087 -4.0167 0
M  V30 13705 C 1313.42 3.66872 -3.43089 0
M  V30 13706 C 1315.41 3.44436 -5.36323 0
M  V30 13707 C 1313.1 3.80865 -4.77896 0
M  V30 13708 C 1314.1 3.69652 -5.74322 0
M  V30 13709 O 1313.79 3.83211 -7.06686 0
M  V30 13710 H 1313.52 0.567327 -0.367582 0
M  V30 13711 H 1316.07 1.28336 -1.60372 0
M  V30 13712 H 1314.3 3.75067 -0.941382 0
M  V30 13713 H 1315.99 3.82676 -1.35328 0
M  V30 13714 H 1316.76 3.10172 -3.72852 0
M  V30 13715 H 1312.64 3.74685 -2.68574 0
M  V30 13716 H 1316.18 3.35601 -6.1157 0
M  V30 13717 H 1312.08 4.00282 -5.06403 0
M  V30 13718 H 1312.85 4.00205 -7.13987 0
M  V30 13719 N 1315.51 1.01404 1.20644 0
M  V30 13720 C 1316.76 0.702949 1.90227 0
M  V30 13721 C 1317.09 -0.765243 1.78487 0
M  V30 13722 O 1316.36 -1.55569 1.16741 0
M  V30 13723 C 1316.65 1.13606 3.4171 0
M  V30 13724 C 1316.5 2.66437 3.62397 0
M  V30 13725 C 1317.82 0.705361 4.34411 0
M  V30 13726 H 1314.94 0.256842 0.690797 0
M  V30 13727 H 1317.58 1.26133 1.42093 0
M  V30 13728 H 1315.73 0.660977 3.82836 0
M  V30 13729 H 1317.4 3.21778 3.3054 0
M  V30 13730 H 1315.64 3.0753 3.05954 0
M  V30 13731 H 1316.32 2.91795 4.68572 0
M  V30 13732 H 1318.79 1.11375 4.00918 0
M  V30 13733 H 1317.67 1.03647 5.39026 0
M  V30 13734 H 1317.93 -0.393094 4.40349 0
M  V30 13735 N 1316.99 -1.36373 0.789944 0
M  V30 13736 C 1318.24 -1.98834 0.361866 0
M  V30 13737 C 1318.56 -1.63006 -1.07024 0
M  V30 13738 O 1317.83 -0.904312 -1.73779 0
M  V30 13739 H 1316.41 -0.735457 0.130812 0
M  V30 13740 H 1319.07 -1.66561 1.0121 0
M  V30 13741 H 1318.16 -3.08778 0.454122 0
M  V30 13742 N 1318.47 -0.542005 -1.47987 0
M  V30 13743 C 1319.69 -0.016717 -2.06893 0
M  V30 13744 C 1320.11 1.27015 -1.39687 0
M  V30 13745 O 1319.47 1.75845 -0.488326 0
M  V30 13746 C 1319.52 0.198437 -3.60955 0
M  V30 13747 O 1319.24 -1.03746 -4.25639 0
M  V30 13748 C 1320.74 0.762741 -4.36689 0
M  V30 13749 H 1317.96 -0.0389497 -0.669869 0
M  V30 13750 H 1320.5 -0.751082 -1.90208 0
M  V30 13751 H 1318.66 0.882884 -3.77205 0
M  V30 13752 H 1319.07 -0.82568 -5.1796 0
M  V30 13753 H 1320.55 0.862649 -5.45218 0
M  V30 13754 H 1321.02 1.77049 -4.01933 0
M  V30 13755 H 1321.63 0.114478 -4.25146 0
M  V30 13756 N 1319.94 1.55134 -0.277709 0
M  V30 13757 C 1321.17 2.04061 0.341601 0
M  V30 13758 C 1321.59 1.15597 1.49274 0
M  V30 13759 O 1320.94 0.176625 1.81643 0
M  V30 13760 C 1320.99 3.52074 0.820139 0
M  V30 13761 O 1320.72 4.37171 -0.28516 0
M  V30 13762 C 1322.22 4.16899 1.507 0
M  V30 13763 H 1319.44 0.666501 0.0775708 0
M  V30 13764 H 1321.98 2.00336 -0.410559 0
M  V30 13765 H 1320.14 3.56233 1.52238 0
M  V30 13766 H 1320.55 5.24434 0.0832022 0
M  V30 13767 H 1322.02 5.22061 1.79323 0
M  V30 13768 H 1322.5 3.65227 2.43939 0
M  V30 13769 H 1323.11 4.16749 0.848541 0
M  V30 13770 N 1321.42 0.00503138 1.57599 0
M  V30 13771 C 1322.65 -0.688609 1.94786 0
M  V30 13772 C 1323.06 -1.67558 0.878698 0
M  V30 13773 O 1322.4 -1.83083 -0.150486 0
M  V30 13774 C 1322.46 -1.47183 3.2799 0
M  V30 13775 C 1322.13 -0.64589 4.52413 0
M  V30 13776 C 1323.13 0.0685859 5.19855 0
M  V30 13777 C 1320.81 -0.590379 4.98818 0
M  V30 13778 C 1322.8 0.827505 6.32006 0
M  V30 13779 C 1320.49 0.172262 6.10857 0
M  V30 13780 C 1321.49 0.879932 6.77308 0
M  V30 13781 O 1321.18 1.63012 7.87199 0
M  V30 13782 H 1320.91 -0.196416 0.646836 0
M  V30 13783 H 1323.46 0.0537933 2.0533 0
M  V30 13784 H 1321.69 -2.25883 3.13869 0
M  V30 13785 H 1323.38 -2.05129 3.50253 0
M  V30 13786 H 1324.15 0.0348834 4.84987 0
M  V30 13787 H 1320.03 -1.13074 4.46918 0
M  V30 13788 H 1323.57 1.3804 6.83806 0
M  V30 13789 H 1319.47 0.207767 6.45166 0
M  V30 13790 H 1320.24 1.54736 8.03741 0
M  V30 13791 N 1322.9 -1.55308 -0.267798 0
M  V30 13792 C 1324.32 -1.47264 -0.61526 0
M  V30 13793 C 1324.52 -0.691025 -1.8928 0
M  V30 13794 O 1323.57 -0.211964 -2.51609 0
M  V30 13795 C 1324.88 -2.91519 -0.73739 0
M  V30 13796 C 1326.43 -3.01764 -0.831102 0
M  V30 13797 C 1326.91 -4.47283 -0.984965 0
M  V30 13798 N 1328.4 -4.51134 -1.05036 0
M  V30 13799 C 1329.13 -5.60952 -1.1883 0
M  V30 13800 N 1328.63 -6.80625 -1.29311 0
M  V30 13801 N 1330.42 -5.48705 -1.21982 0
M  V30 13802 H 1322.57 -2.04577 0.57114 0
M  V30 13803 H 1324.84 -0.927908 0.194141 0
M  V30 13804 H 1324.54 -3.51456 0.130974 0
M  V30 13805 H 1324.42 -3.40829 -1.61603 0
M  V30 13806 H 1326.8 -2.4192 -1.68993 0
M  V30 13807 H 1326.88 -2.55698 0.0722509 0
M  V30 13808 H 1326.53 -5.07732 -0.130776 0
M  V30 13809 H 1326.46 -4.91011 -1.90305 0
M  V30 13810 H 1328.95 -3.6493 -0.981551 0
M  V30 13811 H 1329.26 -7.60071 -1.39685 0
M  V30 13812 H 1327.61 -6.83426 -1.26306 0
M  V30 13813 H 1330.8 -4.5415 -1.13428 0
M  V30 13814 H 1330.97 -6.34332 -1.32388 0
M  V30 13815 N 1324.38 0.532545 -1.4833 0
M  V30 13816 C 1325.31 1.64662 -1.65555 0
M  V30 13817 C 1326.29 1.62447 -0.50447 0
M  V30 13818 O 1327.47 1.79684 -0.736712 0
M  V30 13819 C 1324.6 3.03256 -1.69272 0
M  V30 13820 C 1323.56 3.20329 -2.83854 0
M  V30 13821 C 1322.88 4.59958 -2.72659 0
M  V30 13822 C 1324.18 3.03345 -4.25181 0
M  V30 13823 H 1325.88 1.50502 -2.58823 0
M  V30 13824 H 1323.42 0.722612 -1.24556 0
M  V30 13825 H 1325.38 3.81064 -1.79911 0
M  V30 13826 H 1324.1 3.18433 -0.725805 0
M  V30 13827 H 1322.76 2.44937 -2.72766 0
M  V30 13828 H 1322.41 4.71967 -1.73942 0
M  V30 13829 H 1322.11 4.72327 -3.49544 0
M  V30 13830 H 1323.63 5.39869 -2.85262 0
M  V30 13831 H 1325.05 3.70948 -4.37116 0
M  V30 13832 H 1323.44 3.27208 -5.03045 0
M  V30 13833 H 1324.51 1.998 -4.41824 0
M  V30 13834 N 1325.86 1.36875 0.78122 0
M  V30 13835 C 1327.08 1.34732 1.57019 0
M  V30 13836 C 1327.5 -0.0695423 1.88672 0
M  V30 13837 O 1326.86 -1.02873 1.50743 0
M  V30 13838 C 1326.91 2.17668 2.88623 0
M  V30 13839 O 1326.63 3.53832 2.5833 0
M  V30 13840 C 1328.13 2.23398 3.82895 0
M  V30 13841 H 1325.35 0.461857 0.486754 0
M  V30 13842 H 1327.89 1.80086 0.968989 0
M  V30 13843 H 1326.05 1.75848 3.4519 0
M  V30 13844 H 1326.46 3.972 3.42538 0
M  V30 13845 H 1327.94 2.85769 4.72271 0
M  V30 13846 H 1328.41 1.23972 4.2134 0
M  V30 13847 H 1329.02 2.65489 3.32258 0
M  V30 13848 N 1327.33 -1.00632 1.21289 0
M  V30 13849 C 1328.24 -2.12829 0.986957 0
M  V30 13850 C 1329.26 -1.73895 -0.0605152 0
M  V30 13851 O 1330.44 -2.00985 0.129238 0
M  V30 13852 C 1327.5 -3.4226 0.553089 0
M  V30 13853 C 1326.56 -3.95376 1.67262 0
M  V30 13854 C 1325.79 -5.18629 1.25936 0
M  V30 13855 O 1326.02 -5.70246 0.132402 0
M  V30 13856 O 1324.95 -5.65157 2.07077 0
M  V30 13857 H 1328.78 -2.34765 1.92663 0
M  V30 13858 H 1326.36 -1.11208 0.997654 0
M  V30 13859 H 1328.24 -4.20177 0.320856 0
M  V30 13860 H 1326.92 -3.21716 -0.357881 0
M  V30 13861 H 1325.83 -3.18692 1.95924 0
M  V30 13862 H 1327.16 -4.20328 2.56097 0
M  V30 13863 N 1328.81 -1.02043 -1.20104 0
M  V30 13864 C 1329.76 -0.564679 -2.20897 0
M  V30 13865 C 1330.75 0.382041 -1.56299 0
M  V30 13866 O 1331.94 0.204384 -1.75816 0
M  V30 13867 C 1329.07 0.0917516 -3.43177 0
M  V30 13868 C 1328.15 -0.876903 -4.14935 0
M  V30 13869 N 1328.54 -2.03596 -4.63014 0
M  V30 13870 C 1326.84 -0.698538 -4.40496 0
M  V30 13871 C 1327.54 -2.64621 -5.18026 0
M  V30 13872 N 1326.52 -1.92651 -5.08317 0
M  V30 13873 H 1330.32 -1.44825 -2.5574 0
M  V30 13874 H 1327.83 -0.88628 -1.36084 0
M  V30 13875 H 1329.83 0.43582 -4.14616 0
M  V30 13876 H 1328.49 0.971116 -3.09838 0
M  V30 13877 H 1329.5 -2.41573 -4.58108 0
M  V30 13878 H 1326.18 0.132449 -4.1729 0
M  V30 13879 H 1327.57 -3.62732 -5.65575 0
M  V30 13880 N 1330.29 1.35952 -0.797165 0
M  V30 13881 C 1331.54 1.99032 -0.373142 0
M  V30 13882 C 1331.87 1.63257 1.05723 0
M  V30 13883 O 1331.12 0.883022 1.74646 0
M  V30 13884 C 1331.42 3.53986 -0.492805 0
M  V30 13885 C 1331.09 4.09603 -1.88511 0
M  V30 13886 C 1329.75 4.24505 -2.26604 0
M  V30 13887 C 1332.1 4.39829 -2.79643 0
M  V30 13888 C 1329.43 4.66946 -3.55215 0
M  V30 13889 C 1331.78 4.83706 -4.0769 0
M  V30 13890 C 1330.44 4.96813 -4.45795 0
M  V30 13891 H 1329.71 0.728311 -0.136542 0
M  V30 13892 H 1332.36 1.62318 -1.01613 0
M  V30 13893 H 1330.67 3.91103 0.233661 0
M  V30 13894 H 1332.36 4.00735 -0.145638 0
M  V30 13895 H 1328.95 3.98449 -1.57912 0
M  V30 13896 H 1333.14 4.27878 -2.51464 0
M  V30 13897 H 1328.39 4.75282 -3.84599 0
M  V30 13898 H 1332.57 5.06057 -4.78414 0
M  V30 13899 H 1330.19 5.29458 -5.45507 0
M  V30 13900 N 1331.77 0.549846 1.47697 0
M  V30 13901 C 1332.72 -0.222213 2.26915 0
M  V30 13902 C 1333.7 -0.891996 1.33911 0
M  V30 13903 O 1334.89 -0.791519 1.58316 0
M  V30 13904 C 1332.02 -1.25619 3.19491 0
M  V30 13905 C 1331.11 -0.590193 4.19973 0
M  V30 13906 N 1331.5 0.335519 5.04686 0
M  V30 13907 C 1329.8 -0.845012 4.37922 0
M  V30 13908 C 1330.5 0.721672 5.77206 0
M  V30 13909 N 1329.48 0.078184 5.43544 0
M  V30 13910 H 1333.28 0.489645 2.89792 0
M  V30 13911 H 1330.79 0.36926 1.58146 0
M  V30 13912 H 1332.79 -1.82319 3.74921 0
M  V30 13913 H 1331.45 -1.96922 2.5817 0
M  V30 13914 H 1332.46 0.709271 5.1302 0
M  V30 13915 H 1329.14 -1.54711 3.87777 0
M  V30 13916 H 1330.53 1.48191 6.55354 0
M  V30 13917 N 1333.25 -1.54984 0.285932 0
M  V30 13918 C 1334.47 -2.04239 -0.330774 0
M  V30 13919 C 1334.89 -1.16387 -1.48659 0
M  V30 13920 O 1334.25 -0.186255 -1.81547 0
M  V30 13921 C 1334.3 -3.52504 -0.801456 0
M  V30 13922 O 1334.02 -4.37014 0.30834 0
M  V30 13923 C 1335.52 -4.17692 -1.48487 0
M  V30 13924 H 1332.74 -0.666903 -0.0740351 0
M  V30 13925 H 1335.28 -2.00116 0.421178 0
M  V30 13926 H 1333.44 -3.57036 -1.50347 0
M  V30 13927 H 1333.85 -5.24471 -0.0553891 0
M  V30 13928 H 1335.33 -5.23004 -1.76552 0
M  V30 13929 H 1335.8 -3.66515 -2.41999 0
M  V30 13930 H 1336.41 -4.17193 -0.826428 0
M  V30 13931 N 1334.72 -0.0133892 -1.57594 0
M  V30 13932 C 1335.97 0.66392 -1.92259 0
M  V30 13933 C 1336.33 1.70632 -0.888962 0
M  V30 13934 O 1335.62 1.91354 0.0971147 0
M  V30 13935 C 1335.81 1.33729 -3.31438 0
M  V30 13936 C 1335.64 0.361637 -4.48244 0
M  V30 13937 C 1334.41 -0.0328229 -5.05289 0
M  V30 13938 C 1336.61 -0.377649 -5.12912 0
M  V30 13939 N 1334.59 -1.00529 -6.05613 0
M  V30 13940 C 1335.96 -1.20437 -6.0819 0
M  V30 13941 C 1338.02 -0.440046 -4.95952 0
M  V30 13942 C 1336.72 -2.08782 -6.88333 0
M  V30 13943 C 1338.75 -1.31078 -5.76691 0
M  V30 13944 C 1338.11 -2.12531 -6.71573 0
M  V30 13945 H 1334.21 0.215737 -0.751652 0
M  V30 13946 H 1336.79 -0.0768783 -1.94548 0
M  V30 13947 H 1334.96 2.04831 -3.29998 0
M  V30 13948 H 1336.69 1.97037 -3.53495 0
M  V30 13949 H 1333.45 0.338356 -4.7239 0
M  V30 13950 H 1333.87 -1.4873 -6.60461 0
M  V30 13951 H 1338.52 0.175429 -4.22436 0
M  V30 13952 H 1336.23 -2.71391 -7.61165 0
M  V30 13953 H 1339.82 -1.36314 -5.65606 0
M  V30 13954 H 1338.7 -2.78817 -7.3296 0
M  V30 13955 N 1336.2 1.55448 0.259558 0
M  V30 13956 C 1337.43 1.80727 1.00723 0
M  V30 13957 C 1337.85 0.587354 1.79431 0
M  V30 13958 O 1337.2 -0.443819 1.77021 0
M  V30 13959 C 1337.25 3.04064 1.95517 0
M  V30 13960 O 1336.97 4.21346 1.19996 0
M  V30 13961 C 1338.48 3.42049 2.81988 0
M  V30 13962 H 1335.7 0.601713 0.296956 0
M  V30 13963 H 1338.24 2.02486 0.286273 0
M  V30 13964 H 1336.39 2.84392 2.63058 0
M  V30 13965 H 1336.81 4.91164 1.84006 0
M  V30 13966 H 1338.28 4.31485 3.44274 0
M  V30 13967 H 1338.76 2.62059 3.52451 0
M  V30 13968 H 1339.37 3.64027 2.19918 0
M  V30 13969 N 1337.68 -0.524672 1.4861 0
M  V30 13970 C 1338.63 -1.62872 1.63527 0
M  V30 13971 C 1339.6 -1.59097 0.477202 0
M  V30 13972 O 1340.78 -1.77443 0.701341 0
M  V30 13973 C 1337.92 -3.01116 1.68592 0
M  V30 13974 C 1337.04 -3.15085 2.95542 0
M  V30 13975 C 1336.17 -4.4392 2.91734 0
M  V30 13976 C 1335.21 -4.51436 4.13366 0
M  V30 13977 N 1334.35 -5.71667 4.07605 0
M  V30 13978 H 1339.19 -1.49462 2.57808 0
M  V30 13979 H 1336.72 -0.727578 1.27846 0
M  V30 13980 H 1338.68 -3.81212 1.6951 0
M  V30 13981 H 1337.31 -3.13285 0.777975 0
M  V30 13982 H 1336.36 -2.28207 3.04345 0
M  V30 13983 H 1337.68 -3.165 3.85524 0
M  V30 13984 H 1336.83 -5.32312 2.91083 0
M  V30 13985 H 1335.57 -4.45034 1.9949 0
M  V30 13986 H 1334.57 -3.6145 4.14287 0
M  V30 13987 H 1335.8 -4.52057 5.06776 0
M  V30 13988 H 1333.74 -5.73668 3.18184 0
M  V30 13989 H 1333.66 -5.74599 4.91297 0
M  V30 13990 H 1334.93 -6.62331 4.1102 0
M  V30 13991 N 1339.16 -1.37287 -0.77395 0
M  V30 13992 C 1340.11 -1.29389 -1.8773 0
M  V30 13993 C 1341.09 -0.182167 -1.59865 0
M  V30 13994 O 1342.28 -0.416367 -1.72033 0
M  V30 13995 C 1339.41 -1.10094 -3.25168 0
M  V30 13996 C 1338.5 -2.25801 -3.58991 0
M  V30 13997 N 1338.89 -3.51182 -3.64012 0
M  V30 13998 C 1337.19 -2.17907 -3.89144 0
M  V30 13999 C 1337.89 -4.27468 -3.9452 0
M  V30 14000 N 1336.87 -3.56583 -4.10304 0
M  V30 14001 H 1340.67 -2.24344 -1.8986 0
M  V30 14002 H 1338.18 -1.30228 -0.970282 0
M  V30 14003 H 1340.18 -1.02521 -4.04098 0
M  V30 14004 H 1338.84 -0.160535 -3.24303 0
M  V30 14005 H 1339.85 -3.85118 -3.46272 0
M  V30 14006 H 1336.53 -1.3191 -3.96113 0
M  V30 14007 H 1337.92 -5.3597 -4.05198 0
M  V30 14008 N 1340.64 0.999871 -1.21821 0
M  V30 14009 C 1341.6 2.07024 -0.983541 0
M  V30 14010 C 1342.6 1.6073 0.0474011 0
M  V30 14011 O 1343.79 1.73156 -0.190398 0
M  V30 14012 C 1340.92 3.37444 -0.484199 0
M  V30 14013 H 1342.11 2.29276 -1.9332 0
M  V30 14014 H 1339.67 1.1704 -1.03592 0
M  V30 14015 H 1340.4 3.20874 0.470138 0
M  V30 14016 H 1340.19 3.72378 -1.2279 0
M  V30 14017 H 1341.68 4.16213 -0.34004 0
M  V30 14018 N 1342.11 1.02678 1.19562 0
M  V30 14019 C 1343.04 0.626359 2.24942 0
M  V30 14020 C 1344.03 -0.363612 1.66168 0
M  V30 14021 O 1345.21 -0.246793 1.92625 0
M  V30 14022 C 1342.34 -0.0257912 3.4729 0
M  V30 14023 C 1341.29 0.886237 4.18724 0
M  V30 14024 C 1340.62 0.0993081 5.34608 0
M  V30 14025 C 1341.92 2.19901 4.73752 0
M  V30 14026 H 1343.61 1.50729 2.58691 0
M  V30 14027 H 1341.16 0.726195 1.24348 0
M  V30 14028 H 1343.11 -0.317545 4.20202 0
M  V30 14029 H 1341.84 -0.941511 3.12735 0
M  V30 14030 H 1340.5 1.16215 3.47692 0
M  V30 14031 H 1340.14 -0.81838 4.96298 0
M  V30 14032 H 1339.84 0.706776 5.83334 0
M  V30 14033 H 1341.37 -0.185754 6.10317 0
M  V30 14034 H 1342.78 1.96892 5.3843 0
M  V30 14035 H 1341.18 2.75821 5.32956 0
M  V30 14036 H 1342.25 2.85509 3.91934 0
M  V30 14037 N 1343.59 -1.35528 0.804364 0
M  V30 14038 C 1344.52 -2.32388 0.227604 0
M  V30 14039 C 1345.5 -1.57368 -0.645709 0
M  V30 14040 O 1346.69 -1.85448 -0.576441 0
M  V30 14041 C 1343.82 -3.41603 -0.62645 0
M  V30 14042 C 1342.77 -4.27743 0.148187 0
M  V30 14043 C 1342.1 -5.28259 -0.827425 0
M  V30 14044 C 1343.4 -5.04661 1.34591 0
M  V30 14045 H 1345.09 -2.80874 1.03684 0
M  V30 14046 H 1342.64 -1.3504 0.500031 0
M  V30 14047 H 1344.59 -4.08365 -1.03999 0
M  V30 14048 H 1343.32 -2.91721 -1.46855 0
M  V30 14049 H 1341.97 -3.62558 0.542874 0
M  V30 14050 H 1341.62 -4.74645 -1.66496 0
M  V30 14051 H 1341.32 -5.86763 -0.313453 0
M  V30 14052 H 1342.85 -5.97893 -1.23921 0
M  V30 14053 H 1344.26 -5.6438 1.00736 0
M  V30 14054 H 1342.66 -5.7265 1.79422 0
M  V30 14055 H 1343.73 -4.35432 2.1337 0
M  V30 14056 N 1345.07 -0.557671 -1.47404 0
M  V30 14057 C 1346.02 0.202834 -2.31714 0
M  V30 14058 C 1347.01 0.908873 -1.42954 0
M  V30 14059 O 1348.22 0.830106 -1.59716 0
M  V30 14060 H 1344.59 0.0842824 -0.747262 0
M  V30 14061 H 1346.57 -0.527431 -2.93702 0
M  V30 14062 C 1345.31 1.21937 -3.25617 0
M  V30 14063 H 1344.64 0.685506 -3.93879 0
M  V30 14064 H 1346.08 1.72237 -3.87441 0
M  V30 14065 C 1344.54 2.26748 -2.49173 0
M  V30 14066 O 1345.07 3.33681 -2.23651 0
M  V30 14067 N 1343.27 2.00687 -2.10174 0
M  V30 14068 H 1342.82 1.13741 -2.3113 0
M  V30 14069 H 1342.78 2.71031 -1.59342 0
M  V30 14070 N 1346.55 1.54831 -0.294147 0
M  V30 14071 C 1347.51 2.21946 0.572061 0
M  V30 14072 C 1348.51 1.20331 1.06663 0
M  V30 14073 O 1349.7 1.45112 0.963757 0
M  V30 14074 C 1346.83 2.90044 1.7913 0
M  V30 14075 H 1348.03 2.99897 -0.0142234 0
M  V30 14076 H 1345.58 1.56235 -0.0449187 0
M  V30 14077 H 1346.32 2.16154 2.4176 0
M  V30 14078 H 1346.1 3.64527 1.44439 0
M  V30 14079 H 1347.59 3.41263 2.40684 0
M  V30 14080 N 1348.03 0.0217466 1.57585 0
M  V30 14081 C 1349.28 -0.657793 1.90672 0
M  V30 14082 C 1349.59 -1.73713 0.899066 0
M  V30 14083 O 1350.8 -2.4728 1.12092 0
M  V30 14084 C 1349.25 -1.22124 3.38547 0
M  V30 14085 C 1348.86 -0.175575 4.47656 0
M  V30 14086 C 1350.6 -1.87771 3.80713 0
M  V30 14087 C 1348.51 -0.750239 5.86622 0
M  V30 14088 H 1347.44 -0.249459 0.711538 0
M  V30 14089 H 1350.09 0.0858449 1.83299 0
M  V30 14090 H 1348.47 -2.01625 3.40828 0
M  V30 14091 H 1349.65 0.596436 4.56924 0
M  V30 14092 H 1347.96 0.381715 4.14647 0
M  V30 14093 H 1350.56 -2.3171 4.81887 0
M  V30 14094 H 1350.9 -2.71737 3.1538 0
M  V30 14095 H 1351.44 -1.14971 3.80823 0
M  V30 14096 H 1348.17 0.0511222 6.5548 0
M  V30 14097 H 1347.69 -1.49091 5.80975 0
M  V30 14098 H 1349.37 -1.24225 6.34962 0
M  V30 14099 N 1349.51 -1.55583 -0.251311 0
M  V30 14100 C 1350.47 -1.89148 -1.29443 0
M  V30 14101 C 1351.47 -0.7676 -1.41296 0
M  V30 14102 O 1352.66 -1.03563 -1.40073 0
M  V30 14103 C 1349.79 -2.11601 -2.67279 0
M  V30 14104 H 1350.98 -2.82416 -1.00901 0
M  V30 14105 H 1348.54 -1.48407 -0.490398 0
M  V30 14106 H 1349.27 -1.20787 -3.00967 0
M  V30 14107 H 1349.06 -2.93449 -2.60058 0
M  V30 14108 H 1350.55 -2.38768 -3.42607 0
M  V30 14109 N 1350.98 0.516783 -1.48886 0
M  V30 14110 C 1351.92 1.63632 -1.60491 0
M  V30 14111 C 1352.93 1.55301 -0.488424 0
M  V30 14112 O 1354.12 1.6152 -0.75983 0
M  V30 14113 C 1351.22 3.02351 -1.53093 0
M  V30 14114 C 1350.39 3.36028 -2.80006 0
M  V30 14115 C 1349.45 4.54087 -2.65879 0
M  V30 14116 O 1348.48 4.56652 -3.3979 0
M  V30 14117 N 1349.68 5.53058 -1.76372 0
M  V30 14118 H 1352.44 1.54109 -2.57042 0
M  V30 14119 H 1350 0.704338 -1.45776 0
M  V30 14120 H 1352 3.79225 -1.41318 0
M  V30 14121 H 1350.57 3.05881 -0.644637 0
M  V30 14122 H 1349.79 2.48204 -3.06249 0
M  V30 14123 H 1351.07 3.5532 -3.64177 0
M  V30 14124 H 1350.47 5.53773 -1.1555 0
M  V30 14125 H 1349.03 6.29097 -1.70529 0
M  V30 14126 N 1352.46 1.37696 0.766659 0
M  V30 14127 C 1353.87 1.29668 1.34324 0
M  V30 14128 C 1354.22 -0.0534297 1.96127 0
M  V30 14129 O 1353.35 -0.95534 1.94171 0
M  V30 14130 C 1353.94 2.34818 2.44225 0
M  V30 14131 C 1352.5 2.3041 2.97638 0
M  V30 14132 C 1351.65 2.18378 1.70899 0
M  V30 14133 H 1354.6 1.48244 0.566526 0
M  V30 14134 H 1354.62 1.99778 3.23835 0
M  V30 14135 H 1354.13 3.3307 1.99214 0
M  V30 14136 H 1352.23 1.35698 3.47011 0
M  V30 14137 H 1352.35 3.24028 3.52906 0
M  V30 14138 H 1350.71 1.65008 1.94021 0
M  V30 14139 H 1351.49 3.18551 1.27985 0
M  V30 14140 N 1353.94 -0.993397 1.22349 0
M  V30 14141 C 1354.85 -2.11771 1.00947 0
M  V30 14142 C 1355.87 -1.73949 -0.0420679 0
M  V30 14143 O 1357.04 -2.00837 0.150548 0
M  V30 14144 C 1354.11 -3.41654 0.589359 0
M  V30 14145 C 1353.17 -3.93579 1.71446 0
M  V30 14146 C 1352.4 -5.17264 1.3143 0
M  V30 14147 O 1352.62 -5.70074 0.192876 0
M  V30 14148 O 1351.56 -5.62929 2.13059 0
M  V30 14149 H 1355.38 -2.32708 1.95142 0
M  V30 14150 H 1352.97 -1.10144 1.00939 0
M  V30 14151 H 1354.85 -4.19813 0.365403 0
M  V30 14152 H 1353.53 -3.22077 -0.323738 0
M  V30 14153 H 1352.43 -3.16596 1.99294 0
M  V30 14154 H 1353.77 -4.17588 2.6054 0
M  V30 14155 N 1355.42 -1.03311 -1.19015 0
M  V30 14156 C 1356.35 -0.575655 -2.21853 0
M  V30 14157 C 1357.36 0.350705 -1.58978 0
M  V30 14158 O 1358.55 0.146425 -1.77898 0
M  V30 14159 C 1355.65 0.179949 -3.38422 0
M  V30 14160 C 1354.82 -0.752403 -4.3088 0
M  V30 14161 C 1353.88 -0.0414484 -5.26184 0
M  V30 14162 O 1352.91 -0.669403 -5.6525 0
M  V30 14163 N 1354.11 1.22783 -5.67366 0
M  V30 14164 H 1356.88 -1.46013 -2.61726 0
M  V30 14165 H 1354.44 -0.912655 -1.33724 0
M  V30 14166 H 1356.43 0.66522 -3.99195 0
M  V30 14167 H 1355 0.965879 -2.97304 0
M  V30 14168 H 1354.22 -1.41768 -3.67825 0
M  V30 14169 H 1355.51 -1.38592 -4.89561 0
M  V30 14170 H 1354.91 1.75867 -5.37668 0
M  V30 14171 H 1353.46 1.65752 -6.30372 0
M  V30 14172 N 1356.9 1.35099 -0.81154 0
M  V30 14173 C 1358.14 1.98625 -0.394231 0
M  V30 14174 C 1358.47 1.6437 1.03985 0
M  V30 14175 O 1357.73 0.901496 1.737 0
M  V30 14176 C 1358.02 3.53444 -0.530322 0
M  V30 14177 C 1357.69 4.0758 -1.92844 0
M  V30 14178 C 1356.35 4.22077 -2.31094 0
M  V30 14179 C 1358.7 4.36838 -2.84292 0
M  V30 14180 C 1356.03 4.63153 -3.60148 0
M  V30 14181 C 1358.38 4.79355 -4.12798 0
M  V30 14182 C 1357.05 4.92057 -4.51039 0
M  V30 14183 H 1356.32 0.726822 -0.144259 0
M  V30 14184 H 1358.97 1.61231 -1.03329 0
M  V30 14185 H 1357.27 3.91328 0.192166 0
M  V30 14186 H 1358.97 4.00558 -0.188134 0
M  V30 14187 H 1355.56 3.96752 -1.62129 0
M  V30 14188 H 1359.74 4.25187 -2.55988 0
M  V30 14189 H 1355 4.71176 -3.89619 0
M  V30 14190 H 1359.17 5.00954 -4.83754 0
M  V30 14191 H 1356.8 5.23643 -5.51092 0
M  V30 14192 N 1358.37 0.56548 1.47106 0
M  V30 14193 C 1359.62 0.0445914 2.02751 0
M  V30 14194 C 1359.95 -1.30517 1.43801 0
M  V30 14195 O 1359.23 -1.85123 0.596646 0
M  V30 14196 C 1359.51 -0.0396474 3.60078 0
M  V30 14197 C 1359.36 1.3378 4.29445 0
M  V30 14198 C 1360.68 -0.748954 4.3368 0
M  V30 14199 H 1357.8 0.0176787 0.736788 0
M  V30 14200 H 1360.44 0.729363 1.75443 0
M  V30 14201 H 1358.59 -0.622826 3.83475 0
M  V30 14202 H 1360.27 1.96482 4.17364 0
M  V30 14203 H 1358.51 1.91024 3.89477 0
M  V30 14204 H 1359.18 1.23149 5.38088 0
M  V30 14205 H 1361.66 -0.253707 4.15326 0
M  V30 14206 H 1360.53 -0.776877 5.43374 0
M  V30 14207 H 1360.79 -1.80679 4.03494 0
M  V30 14208 N 1359.85 -1.54672 0.302354 0
M  V30 14209 C 1360.76 -2.27251 -0.582578 0
M  V30 14210 C 1361.78 -1.30819 -1.14727 0
M  V30 14211 O 1362.95 -1.63803 -1.17177 0
M  V30 14212 C 1360.02 -3.00016 -1.73757 0
M  V30 14213 C 1359.08 -4.11988 -1.20682 0
M  V30 14214 C 1358.31 -4.81273 -2.30676 0
M  V30 14215 O 1358.54 -4.49927 -3.50602 0
M  V30 14216 O 1357.47 -5.68647 -1.97291 0
M  V30 14217 H 1361.3 -3.03699 0.00621365 0
M  V30 14218 H 1358.88 -1.49242 0.0687684 0
M  V30 14219 H 1360.76 -3.45652 -2.41045 0
M  V30 14220 H 1359.44 -2.26462 -2.31294 0
M  V30 14221 H 1358.35 -3.70749 -0.499625 0
M  V30 14222 H 1359.68 -4.87524 -0.676858 0
M  V30 14223 N 1361.33 -0.0301034 -1.57571 0
M  V30 14224 C 1362.58 0.647672 -1.91019 0
M  V30 14225 C 1362.89 1.73234 -0.908265 0
M  V30 14226 O 1364.1 2.46682 -1.13402 0
M  V30 14227 C 1362.55 1.20327 -3.3919 0
M  V30 14228 C 1362.16 0.151833 -4.47743 0
M  V30 14229 C 1363.91 1.8575 -3.81703 0
M  V30 14230 C 1361.81 0.719119 -5.87012 0
M  V30 14231 H 1360.74 0.245682 -0.712851 0
M  V30 14232 H 1363.39 -0.0955645 -1.83251 0
M  V30 14233 H 1361.78 1.99814 -3.41892 0
M  V30 14234 H 1362.95 -0.620659 -4.56601 0
M  V30 14235 H 1361.27 -0.403699 -4.14438 0
M  V30 14236 H 1363.86 2.29151 -4.83109 0
M  V30 14237 H 1364.21 2.70061 -3.16817 0
M  V30 14238 H 1364.74 1.1295 -3.81428 0
M  V30 14239 H 1361.48 -0.0858832 -6.55444 0
M  V30 14240 H 1361 1.46008 -5.81758 0
M  V30 14241 H 1362.68 1.20856 -6.35612 0
M  V30 14242 N 1362.81 1.55714 0.243056 0
M  V30 14243 C 1364.03 1.82126 0.992219 0
M  V30 14244 C 1364.46 0.607665 1.78014 0
M  V30 14245 O 1363.82 -0.443351 1.75796 0
M  V30 14246 C 1363.86 3.06314 1.90274 0
M  V30 14247 O 1362.97 2.83499 2.99503 0
M  V30 14248 H 1362.31 0.601082 0.282128 0
M  V30 14249 H 1364.84 2.02904 0.262881 0
M  V30 14250 H 1364.85 3.35849 2.31666 0
M  V30 14251 H 1363.52 3.94282 1.32344 0
M  V30 14252 H 1362.1 2.65141 2.62211 0
M  V30 14253 N 1364.29 -0.50888 1.49158 0
M  V30 14254 C 1365.2 -1.63782 1.67966 0
M  V30 14255 C 1366.21 -1.64667 0.562207 0
M  V30 14256 O 1367.39 -1.83232 0.835935 0
M  V30 14257 C 1364.45 -3.00179 1.73474 0
M  V30 14258 C 1363.51 -3.09983 2.97 0
M  V30 14259 C 1362.75 -4.39875 3.02235 0
M  V30 14260 O 1362.97 -5.28214 2.15282 0
M  V30 14261 O 1361.9 -4.54486 3.94621 0
M  V30 14262 H 1365.73 -1.50846 2.63589 0
M  V30 14263 H 1363.32 -0.684306 1.32807 0
M  V30 14264 H 1365.2 -3.8126 1.79495 0
M  V30 14265 H 1363.87 -3.13394 0.810287 0
M  V30 14266 H 1362.78 -2.28119 2.965 0
M  V30 14267 H 1364.11 -3.01693 3.88899 0
M  V30 14268 N 1365.76 -1.381 -0.759346 0
M  V30 14269 C 1366.99 -1.37213 -1.54855 0
M  V30 14270 C 1367.41 0.0395175 -1.88759 0
M  V30 14271 O 1366.76 1.00462 -1.5236 0
M  V30 14272 C 1366.82 -2.22232 -2.85123 0
M  V30 14273 O 1366.54 -3.57897 -2.52668 0
M  V30 14274 C 1368.04 -2.29461 -3.79292 0
M  V30 14275 H 1365.26 -0.469542 -0.479345 0
M  V30 14276 H 1367.8 -1.81604 -0.940216 0
M  V30 14277 H 1365.96 -1.81317 -3.42349 0
M  V30 14278 H 1366.37 -4.02599 -3.36176 0
M  V30 14279 H 1367.84 -2.93246 -4.67665 0
M  V30 14280 H 1368.32 -1.3066 -4.19315 0
M  V30 14281 H 1368.93 -2.70741 -3.27993 0
M  V30 14282 N 1367.24 0.986894 -1.22875 0
M  V30 14283 C 1368.17 2.09628 -1.0285 0
M  V30 14284 C 1369.15 1.70019 0.0525118 0
M  V30 14285 O 1370.34 1.93883 -0.110874 0
M  V30 14286 C 1367.47 3.41866 -0.61194 0
M  V30 14287 C 1366.42 3.95351 -1.63956 0
M  V30 14288 C 1365.75 5.23707 -1.07865 0
M  V30 14289 C 1367.05 4.25354 -3.03102 0
M  V30 14290 H 1368.74 2.26639 -1.95641 0
M  V30 14291 H 1366.29 1.0891 -0.942048 0
M  V30 14292 H 1368.24 4.18893 -0.458936 0
M  V30 14293 H 1366.97 3.24701 0.35164 0
M  V30 14294 H 1365.62 3.20462 -1.78045 0
M  V30 14295 H 1365.27 5.02888 -0.106246 0
M  V30 14296 H 1364.97 5.60459 -1.76522 0
M  V30 14297 H 1366.5 6.03362 -0.937359 0
M  V30 14298 H 1367.91 4.93156 -2.92353 0
M  V30 14299 H 1366.31 4.73292 -3.68938 0
M  V30 14300 H 1367.38 3.32887 -3.52583 0
M  V30 14301 N 1368.72 1.0394 1.18466 0
M  V30 14302 C 1369.68 0.633804 2.20262 0
M  V30 14303 C 1370.68 -0.308136 1.5782 0
M  V30 14304 O 1371.87 -0.0937087 1.73948 0
M  V30 14305 C 1369.01 -0.0709693 3.40826 0
M  V30 14306 H 1370.2 1.53463 2.57661 0
M  V30 14307 H 1367.75 0.831806 1.32328 0
M  V30 14308 H 1368.49 -0.985659 3.08958 0
M  V30 14309 H 1368.27 0.606023 3.87388 0
M  V30 14310 H 1369.76 -0.341298 4.16203 0
M  V30 14311 N 1370.2 -1.34667 0.818693 0
M  V30 14312 C 1371.16 -2.27908 0.243037 0
M  V30 14313 C 1372.16 -1.50106 -0.576622 0
M  V30 14314 O 1373.35 -1.69701 -0.393342 0
M  V30 14315 C 1370.48 -3.34455 -0.659759 0
M  V30 14316 H 1371.68 -2.80332 1.06555 0
M  V30 14317 H 1369.23 -1.44727 0.590237 0
M  V30 14318 H 1369.96 -2.87238 -1.50549 0
M  V30 14319 H 1369.75 -3.92031 -0.073567 0
M  V30 14320 H 1371.24 -4.04016 -1.05646 0
M  V30 14321 N 1371.68 -0.573274 -1.46804 0
M  V30 14322 C 1372.64 0.155066 -2.28675 0
M  V30 14323 C 1373.64 0.827706 -1.37861 0
M  V30 14324 O 1374.83 0.681105 -1.60333 0
M  V30 14325 C 1371.96 1.22864 -3.1799 0
M  V30 14326 H 1373.15 -0.564305 -2.94543 0
M  V30 14327 H 1370.71 -0.330855 -1.52758 0
M  V30 14328 H 1371.44 1.97989 -2.56848 0
M  V30 14329 H 1371.23 0.750936 -3.84842 0
M  V30 14330 H 1372.72 1.73974 -3.79635 0
M  V30 14331 N 1373.15 1.5451 -0.310553 0
M  V30 14332 C 1374.1 2.23871 0.561277 0
M  V30 14333 C 1375.07 1.22475 1.12202 0
M  V30 14334 O 1376.26 1.51121 1.16477 0
M  V30 14335 C 1373.4 2.99029 1.72267 0
M  V30 14336 C 1372.51 4.15218 1.19241 0
M  V30 14337 C 1371.64 4.77935 2.31843 0
M  V30 14338 C 1370.68 5.86251 1.75999 0
M  V30 14339 N 1369.82 6.42885 2.82212 0
M  V30 14340 H 1374.66 2.97977 -0.0367998 0
M  V30 14341 H 1372.2 1.4707 -0.0299317 0
M  V30 14342 H 1374.16 3.40842 2.40588 0
M  V30 14343 H 1372.79 2.27281 2.29223 0
M  V30 14344 H 1371.84 3.78279 0.401148 0
M  V30 14345 H 1373.15 4.93225 0.743675 0
M  V30 14346 H 1372.3 5.2265 3.08094 0
M  V30 14347 H 1371.04 3.99281 2.80047 0
M  V30 14348 H 1370.05 5.40952 0.982415 0
M  V30 14349 H 1371.27 6.66795 1.28688 0
M  V30 14350 H 1369.22 5.67109 3.29732 0
M  V30 14351 H 1369.14 7.16267 2.41864 0
M  V30 14352 H 1370.4 6.92256 3.58332 0
M  V30 14353 N 1374.63 0.0384594 1.57553 0
M  V30 14354 C 1375.88 -0.636879 1.91803 0
M  V30 14355 C 1376.2 -1.72128 0.916347 0
M  V30 14356 O 1375.47 -1.95858 -0.0407405 0
M  V30 14357 H 1374.05 -0.238237 0.707992 0
M  V30 14358 H 1376.71 0.0884651 1.94699 0
M  V30 14359 H 1375.81 -1.08364 2.92683 0
M  V30 14360 N 1376.11 -1.55841 -0.234795 0
M  V30 14361 C 1377.36 -1.77438 -0.959094 0
M  V30 14362 C 1377.67 -0.604621 -1.86021 0
M  V30 14363 O 1378.88 -0.703897 -2.62217 0
M  V30 14364 C 1377.34 -3.14182 -1.7555 0
M  V30 14365 C 1376.94 -4.38843 -0.90118 0
M  V30 14366 C 1378.69 -3.45112 -2.47181 0
M  V30 14367 C 1376.59 -5.66614 -1.69417 0
M  V30 14368 H 1375.52 -0.661503 -0.361843 0
M  V30 14369 H 1378.18 -1.82255 -0.213364 0
M  V30 14370 H 1376.56 -3.03505 -2.54364 0
M  V30 14371 H 1377.73 -4.60541 -0.154515 0
M  V30 14372 H 1376.05 -4.15335 -0.297631 0
M  V30 14373 H 1378.64 -4.37794 -3.06986 0
M  V30 14374 H 1378.99 -2.66995 -3.19405 0
M  V30 14375 H 1379.52 -3.57059 -1.75368 0
M  V30 14376 H 1376.26 -6.47587 -1.01545 0
M  V30 14377 H 1375.78 -5.48998 -2.4158 0
M  V30 14378 H 1377.46 -6.06311 -2.25824 0
M  V30 14379 N 1377.59 0.500963 -1.49426 0
M  V30 14380 C 1378.54 1.62335 -1.66584 0
M  V30 14381 C 1379.53 1.60837 -0.531773 0
M  V30 14382 O 1380.74 1.65345 -0.711408 0
M  V30 14383 H 1377.11 0.538131 -0.52528 0
M  V30 14384 H 1379.08 1.45016 -2.60793 0
M  V30 14385 C 1377.83 3.00469 -1.74968 0
M  V30 14386 H 1377.16 3.02328 -2.61607 0
M  V30 14387 H 1378.6 3.78539 -1.91008 0
M  V30 14388 C 1377.05 3.33251 -0.49451 0
M  V30 14389 O 1377.58 3.99901 0.379783 0
M  V30 14390 N 1375.79 2.88393 -0.357445 0
M  V30 14391 H 1375.34 2.3433 -1.06991 0
M  V30 14392 H 1375.3 3.10694 0.481287 0
M  V30 14393 N 1379.07 1.38501 0.752011 0
M  V30 14394 C 1380.02 1.35975 1.88716 0
M  V30 14395 C 1381.01 0.245392 1.67613 0
M  V30 14396 O 1382.22 0.414514 1.75162 0
M  V30 14397 H 1378.59 0.424221 0.620919 0
M  V30 14398 H 1380.56 2.3176 1.87962 0
M  V30 14399 C 1379.31 1.20326 3.26216 0
M  V30 14400 H 1378.63 2.05336 3.43041 0
M  V30 14401 H 1380.07 1.22613 4.05884 0
M  V30 14402 C 1378.53 -0.0897029 3.36781 0
M  V30 14403 O 1379.06 -1.06615 3.87293 0
M  V30 14404 N 1377.27 -0.147065 2.90228 0
M  V30 14405 H 1376.82 0.648216 2.49311 0
M  V30 14406 H 1376.77 -1.01174 2.97676 0
M  V30 14407 N 1380.55 -0.980364 1.23396 0
M  V30 14408 C 1381.79 -1.71826 1.06397 0
M  V30 14409 C 1382.11 -1.90854 -0.399958 0
M  V30 14410 O 1381.38 -1.47721 -1.28668 0
M  V30 14411 H 1379.96 -0.636669 0.390719 0
M  V30 14412 H 1382.63 -1.18008 1.55113 0
M  V30 14413 H 1381.72 -2.7078 1.55192 0
M  V30 14414 N 1382.02 -1.04567 -1.17913 0
M  V30 14415 C 1383.3 -0.666082 -1.8391 0
M  V30 14416 C 1383.68 0.854062 -1.93052 0
M  V30 14417 O 1383.03 1.75752 -1.46026 0
M  V30 14418 C 1383.24 -1.34776 -3.21926 0
M  V30 14419 C 1384.59 -1.48177 -3.97905 0
M  V30 14420 O 1385.61 -1.30627 -3.31384 0
M  V30 14421 O 1384.47 -1.76822 -5.17104 0
M  V30 14422 H 1381.56 -0.233694 -0.793294 0
M  V30 14423 H 1384.11 -1.14487 -1.25263 0
M  V30 14424 H 1382.88 -2.38514 -3.10204 0
M  V30 14425 H 1382.5 -0.857914 -3.88234 0
M  V30 14426 N 1383.5 1.34231 -0.825823 0
M  V30 14427 C 1384.92 1.51166 -0.511945 0
M  V30 14428 C 1385.12 1.76981 0.963318 0
M  V30 14429 O 1384.17 1.82243 1.74767 0
M  V30 14430 C 1385.49 2.67474 -1.37399 0
M  V30 14431 C 1387.03 2.81356 -1.37141 0
M  V30 14432 C 1387.51 4.0071 -2.218 0
M  V30 14433 N 1389 4.07922 -2.19439 0
M  V30 14434 C 1389.74 4.99438 -2.81691 0
M  V30 14435 N 1389.23 5.96157 -3.52944 0
M  V30 14436 N 1391.02 4.92332 -2.7123 0
M  V30 14437 H 1383.18 1.15734 -1.78099 0
M  V30 14438 H 1385.44 0.567856 -0.759107 0
M  V30 14439 H 1385.14 2.55036 -2.42176 0
M  V30 14440 H 1385.02 3.62558 -1.04075 0
M  V30 14441 H 1387.41 2.93233 -0.331405 0
M  V30 14442 H 1387.49 1.87072 -1.74464 0
M  V30 14443 H 1387.13 3.89593 -3.25852 0
M  V30 14444 H 1387.06 4.94213 -1.81826 0
M  V30 14445 H 1389.55 3.38695 -1.67612 0
M  V30 14446 H 1389.86 6.62623 -3.97682 0
M  V30 14447 H 1388.21 5.96272 -3.5705 0
M  V30 14448 H 1391.4 4.15733 -2.15137 0
M  V30 14449 H 1391.57 5.63458 -3.20031 0
M  V30 14450 N 1384.98 0.581051 1.46498 0
M  V30 14451 C 1386.23 0.0660934 2.02692 0
M  V30 14452 C 1386.56 -1.28985 1.45178 0
M  V30 14453 O 1385.83 -1.84479 0.616247 0
M  V30 14454 C 1386.12 -0.00145411 3.601 0
M  V30 14455 C 1385.97 1.38327 4.28002 0
M  V30 14456 C 1387.29 -0.702914 4.3445 0
M  V30 14457 H 1384.41 0.0254923 0.736559 0
M  V30 14458 H 1387.05 0.74793 1.7466 0
M  V30 14459 H 1385.2 -0.582118 3.84114 0
M  V30 14460 H 1386.87 2.00897 4.15257 0
M  V30 14461 H 1385.11 1.95144 3.87429 0
M  V30 14462 H 1385.79 1.28849 5.36751 0
M  V30 14463 H 1388.26 -0.209641 4.15572 0
M  V30 14464 H 1387.14 -0.719202 5.44168 0
M  V30 14465 H 1387.4 -1.76389 4.05388 0
M  V30 14466 N 1386.46 -1.54343 0.318742 0
M  V30 14467 C 1387.69 -2.04894 -0.287378 0
M  V30 14468 C 1388.1 -1.19514 -1.46157 0
M  V30 14469 O 1387.46 -0.224722 -1.81111 0
M  V30 14470 C 1387.51 -3.54124 -0.726505 0
M  V30 14471 O 1387.23 -4.36261 0.400968 0
M  V30 14472 C 1388.73 -4.20748 -1.39594 0
M  V30 14473 H 1385.95 -0.668323 -0.0598724 0
M  V30 14474 H 1388.49 -1.99177 0.463531 0
M  V30 14475 H 1386.65 -3.60145 -1.4274 0
M  V30 14476 H 1387.06 -5.2447 0.0558714 0
M  V30 14477 H 1388.54 -5.26632 -1.65418 0
M  V30 14478 H 1389.01 -3.71566 -2.3417 0
M  V30 14479 H 1389.62 -4.18852 -0.737749 0
M  V30 14480 N 1387.94 -0.0468143 -1.5753 0
M  V30 14481 C 1389.18 0.628869 -1.92803 0
M  V30 14482 C 1389.51 1.70751 -0.925083 0
M  V30 14483 O 1388.79 1.94437 0.0495821 0
M  V30 14484 C 1389.07 1.22899 -3.38479 0
M  V30 14485 C 1388.93 0.158707 -4.4952 0
M  V30 14486 C 1390.24 2.1419 -3.84461 0
M  V30 14487 H 1387.36 0.227137 -0.701126 0
M  V30 14488 H 1390.01 -0.107689 -1.89695 0
M  V30 14489 H 1388.16 1.85674 -3.41259 0
M  V30 14490 H 1389.83 -0.472963 -4.58869 0
M  V30 14491 H 1388.07 -0.51375 -4.30747 0
M  V30 14492 H 1388.74 0.618545 -5.48523 0
M  V30 14493 H 1391.22 1.61382 -3.8353 0
M  V30 14494 H 1390.09 2.53125 -4.87051 0
M  V30 14495 H 1390.35 3.04024 -3.2097 0
M  V30 14496 N 1389.41 1.55964 0.226527 0
M  V30 14497 C 1390.64 1.83168 0.972846 0
M  V30 14498 C 1391.06 0.626512 1.7736 0
M  V30 14499 O 1390.42 -0.42468 1.76256 0
M  V30 14500 C 1390.47 3.08315 1.87014 0
M  V30 14501 O 1389.57 2.8666 2.96479 0
M  V30 14502 H 1388.92 0.604041 0.275736 0
M  V30 14503 H 1391.45 2.03172 0.241345 0
M  V30 14504 H 1391.46 3.38288 2.28091 0
M  V30 14505 H 1390.13 3.95663 1.28154 0
M  V30 14506 H 1388.71 2.67907 2.59384 0
M  V30 14507 N 1390.89 -0.493031 1.4969 0
M  V30 14508 C 1392.12 -1.27517 1.63567 0
M  V30 14509 C 1392.54 -1.85526 0.310105 0
M  V30 14510 O 1391.9 -1.66246 -0.723314 0
M  V30 14511 C 1391.95 -2.37551 2.71296 0
M  V30 14512 O 1391.05 -3.41617 2.31023 0
M  V30 14513 H 1390.39 -0.376116 0.547205 0
M  V30 14514 H 1392.92 -0.589328 1.95929 0
M  V30 14515 H 1392.93 -2.83196 2.93708 0
M  V30 14516 H 1391.61 -1.94697 3.67513 0
M  V30 14517 H 1390.19 -3.01836 2.18974 0
M  V30 14518 N 1392.37 -1.38898 -0.744656 0
M  V30 14519 C 1393.32 -1.36845 -1.85855 0
M  V30 14520 C 1394.29 -0.2296 -1.64505 0
M  V30 14521 O 1395.47 -0.423221 -1.86047 0
M  V30 14522 C 1392.61 -1.20818 -3.2326 0
M  V30 14523 C 1391.73 -2.44166 -3.5638 0
M  V30 14524 C 1390.86 -2.20801 -4.83136 0
M  V30 14525 C 1389.9 -3.39874 -5.0907 0
M  V30 14526 N 1389.04 -3.15888 -6.27024 0
M  V30 14527 H 1393.88 -2.32068 -1.86945 0
M  V30 14528 H 1391.41 -1.15289 -0.913611 0
M  V30 14529 H 1393.37 -1.0954 -4.02563 0
M  V30 14530 H 1392 -0.292295 -3.21474 0
M  V30 14531 H 1391.05 -2.66083 -2.71852 0
M  V30 14532 H 1392.37 -3.32885 -3.71469 0
M  V30 14533 H 1391.52 -2.0671 -5.704 0
M  V30 14534 H 1390.26 -1.29462 -4.70203 0
M  V30 14535 H 1389.26 -3.54474 -4.20271 0
M  V30 14536 H 1390.49 -4.32102 -5.23894 0
M  V30 14537 H 1388.43 -2.27204 -6.15398 0
M  V30 14538 H 1388.35 -3.9816 -6.42655 0
M  V30 14539 H 1389.62 -3.0547 -7.17153 0
M  V30 14540 N 1393.85 0.973806 -1.23914 0
M  V30 14541 C 1395.26 1.24128 -1.00322 0
M  V30 14542 C 1395.46 1.99378 0.29169 0
M  V30 14543 O 1394.52 2.31445 1.00943 0
M  V30 14544 C 1395.83 2.03438 -2.21435 0
M  V30 14545 C 1397.38 2.16553 -2.25995 0
M  V30 14546 C 1397.86 2.99257 -3.46712 0
M  V30 14547 N 1399.35 3.0684 -3.46992 0
M  V30 14548 C 1400.08 3.71174 -4.37055 0
M  V30 14549 N 1399.58 4.37277 -5.37364 0
M  V30 14550 N 1401.37 3.68126 -4.24782 0
M  V30 14551 H 1393.52 0.469872 -2.07138 0
M  V30 14552 H 1395.79 0.270234 -0.908668 0
M  V30 14553 H 1395.49 1.55527 -3.15443 0
M  V30 14554 H 1395.37 3.0418 -2.23057 0
M  V30 14555 H 1397.75 2.6367 -1.32522 0
M  V30 14556 H 1397.83 1.15179 -2.28402 0
M  V30 14557 H 1397.48 2.52835 -4.40496 0
M  V30 14558 H 1397.41 4.00815 -3.41547 0
M  V30 14559 H 1399.9 2.59813 -2.74419 0
M  V30 14560 H 1400.21 4.84166 -6.02331 0
M  V30 14561 H 1398.56 4.35965 -5.41257 0
M  V30 14562 H 1401.75 3.15657 -3.45656 0
M  V30 14563 H 1401.92 4.17981 -4.95173 0
M  V30 14564 N 1395.33 1.05191 1.17357 0
M  V30 14565 C 1396.57 0.760479 1.87246 0
M  V30 14566 C 1396.9 -0.714618 1.81434 0
M  V30 14567 O 1396.17 -1.51636 1.24029 0
M  V30 14568 H 1394.75 0.278317 0.693216 0
M  V30 14569 H 1397.41 1.33106 1.42369 0
M  V30 14570 H 1396.5 1.07542 2.92987 0
M  V30 14571 N 1396.8 -1.33791 0.83293 0
M  V30 14572 C 1398.05 -1.97973 0.425781 0
M  V30 14573 C 1398.38 -1.66003 -1.01357 0
M  V30 14574 O 1397.63 -0.929016 -1.72243 0
M  V30 14575 C 1397.93 -3.52555 0.586485 0
M  V30 14576 C 1397.6 -4.04461 1.99304 0
M  V30 14577 C 1396.26 -4.18347 2.37779 0
M  V30 14578 C 1398.61 -4.3226 2.91206 0
M  V30 14579 C 1395.94 -4.57364 3.67471 0
M  V30 14580 C 1398.29 -4.72727 4.20371 0
M  V30 14581 C 1396.96 -4.84819 4.5881 0
M  V30 14582 H 1396.23 -0.724435 0.155804 0
M  V30 14583 H 1398.87 -1.59567 1.05881 0
M  V30 14584 H 1397.18 -3.91585 -0.129885 0
M  V30 14585 H 1398.88 -4.00208 0.251835 0
M  V30 14586 H 1395.47 -3.94122 1.68421 0
M  V30 14587 H 1399.65 -4.2106 2.6272 0
M  V30 14588 H 1394.91 -4.64918 3.97065 0
M  V30 14589 H 1399.08 -4.93194 4.91663 0
M  V30 14590 H 1396.71 -5.14809 5.59353 0
M  V30 14591 N 1398.28 -0.588812 -1.46187 0
M  V30 14592 C 1399.53 -0.0744093 -2.01563 0
M  V30 14593 C 1399.84 1.29578 -1.46523 0
M  V30 14594 O 1401.05 1.90186 -1.93756 0
M  V30 14595 C 1399.51 -0.082408 -3.59806 0
M  V30 14596 C 1399.11 -1.45129 -4.23842 0
M  V30 14597 C 1400.86 0.377732 -4.22816 0
M  V30 14598 C 1398.77 -1.41668 -5.74181 0
M  V30 14599 H 1397.7 -0.0240481 -0.753616 0
M  V30 14600 H 1400.35 -0.741364 -1.67857 0
M  V30 14601 H 1398.73 0.650832 -3.90615 0
M  V30 14602 H 1399.9 -2.20474 -4.04633 0
M  V30 14603 H 1398.22 -1.85196 -3.7295 0
M  V30 14604 H 1400.81 0.42251 -5.33028 0
M  V30 14605 H 1401.16 1.39655 -3.92176 0
M  V30 14606 H 1401.69 -0.301638 -3.96655 0
M  V30 14607 H 1398.43 -2.4125 -6.09491 0
M  V30 14608 H 1397.95 -0.705524 -5.95636 0
M  V30 14609 H 1399.63 -1.13221 -6.37016 0
M  V30 14610 N 1399.76 1.54172 -0.326923 0
M  V30 14611 C 1401.18 1.59579 0.0256055 0
M  V30 14612 C 1401.38 1.34337 1.50186 0
M  V30 14613 O 1400.43 1.12945 2.25831 0
M  V30 14614 C 1401.75 2.98086 -0.395641 0
M  V30 14615 C 1403.29 3.11075 -0.346579 0
M  V30 14616 C 1403.77 4.51932 -0.743039 0
M  V30 14617 N 1405.26 4.57932 -0.696575 0
M  V30 14618 C 1405.99 5.65041 -0.975493 0
M  V30 14619 N 1405.49 6.80075 -1.32172 0
M  V30 14620 N 1407.28 5.54835 -0.900831 0
M  V30 14621 H 1399.43 1.68836 -1.28872 0
M  V30 14622 H 1401.7 0.789858 -0.52424 0
M  V30 14623 H 1401.4 3.21568 -1.42431 0
M  V30 14624 H 1401.28 3.76451 0.237645 0
M  V30 14625 H 1403.66 2.87326 0.672889 0
M  V30 14626 H 1403.75 2.34807 -1.01484 0
M  V30 14627 H 1403.39 4.76415 -1.76044 0
M  V30 14628 H 1403.32 5.26574 -0.0524263 0
M  V30 14629 H 1405.81 3.75318 -0.440969 0
M  V30 14630 H 1406.12 7.57708 -1.51983 0
M  V30 14631 H 1404.47 6.81563 -1.36001 0
M  V30 14632 H 1407.66 4.63844 -0.629812 0
M  V30 14633 H 1407.83 6.3822 -1.12156 0
M  V30 14634 N 1401.24 0.0551678 1.57503 0
M  V30 14635 C 1402.2 -0.903065 2.10659 0
M  V30 14636 C 1403.2 -1.23728 1.02703 0
M  V30 14637 O 1404.39 -1.17331 1.2876 0
M  V30 14638 C 1401.52 -2.21171 2.59415 0
M  V30 14639 H 1402.72 -0.442197 2.96622 0
M  V30 14640 H 1400.27 -0.193297 1.551 0
M  V30 14641 H 1401 -2.71831 1.76858 0
M  V30 14642 H 1400.79 -1.98216 3.38309 0
M  V30 14643 H 1402.28 -2.89802 3.00674 0
M  V30 14644 N 1402.72 -1.56081 -0.218252 0
M  V30 14645 C 1403.96 -1.79513 -0.943553 0
M  V30 14646 C 1404.3 -0.625367 -1.83855 0
M  V30 14647 O 1403.57 0.375226 -1.90846 0
M  V30 14648 C 1403.85 -3.13049 -1.77967 0
M  V30 14649 C 1403.71 -4.40479 -0.910939 0
M  V30 14650 C 1405.03 -3.43057 -2.7568 0
M  V30 14651 H 1402.14 -0.653057 -0.341593 0
M  V30 14652 H 1404.79 -1.88811 -0.212226 0
M  V30 14653 H 1402.94 -3.05254 -2.40318 0
M  V30 14654 H 1404.61 -4.60298 -0.303922 0
M  V30 14655 H 1402.85 -4.33259 -0.216513 0
M  V30 14656 H 1403.52 -5.3036 -1.53042 0
M  V30 14657 H 1406 -3.51002 -2.23465 0
M  V30 14658 H 1404.87 -4.37657 -3.31282 0
M  V30 14659 H 1405.14 -2.65389 -3.53584 0
M  V30 14660 N 1404.2 0.485086 -1.49949 0
M  V30 14661 C 1405.16 1.56713 -1.67253 0
M  V30 14662 C 1406.16 1.51329 -0.543701 0
M  V30 14663 O 1407.35 1.54198 -0.810472 0
M  V30 14664 C 1404.48 2.9636 -1.68475 0
M  V30 14665 H 1405.67 1.42693 -2.63778 0
M  V30 14666 H 1403.23 0.710473 -1.39219 0
M  V30 14667 H 1403.96 3.1584 -0.735924 0
M  V30 14668 H 1403.75 3.01675 -2.50469 0
M  V30 14669 H 1405.24 3.74945 -1.83865 0
M  V30 14670 N 1405.67 1.39291 0.737279 0
M  V30 14671 C 1406.92 1.36592 1.49901 0
M  V30 14672 C 1407.25 -0.0388812 1.94161 0
M  V30 14673 O 1406.53 -1.00337 1.66622 0
M  V30 14674 C 1406.81 2.33625 2.74028 0
M  V30 14675 C 1406.66 3.83037 2.35802 0
M  V30 14676 C 1407.98 2.28524 3.76118 0
M  V30 14677 H 1405.1 0.497482 0.543765 0
M  V30 14678 H 1407.74 1.70265 0.843193 0
M  V30 14679 H 1405.89 2.0504 3.29986 0
M  V30 14680 H 1407.57 4.22363 1.85493 0
M  V30 14681 H 1405.81 3.99924 1.68058 0
M  V30 14682 H 1406.48 4.46415 3.24681 0
M  V30 14683 H 1408.96 2.53794 3.29739 0
M  V30 14684 H 1407.83 2.98501 4.60639 0
M  V30 14685 H 1408.09 1.28949 4.22876 0
M  V30 14686 N 1407.15 -0.967221 1.24429 0
M  V30 14687 C 1408.4 -1.71279 1.08588 0
M  V30 14688 C 1408.73 -1.90558 -0.374325 0
M  V30 14689 O 1408.01 -1.46742 -1.27659 0
M  V30 14690 C 1408.29 -3.10326 1.82674 0
M  V30 14691 C 1408.14 -2.98535 3.36447 0
M  V30 14692 C 1409.46 -4.09993 1.59981 0
M  V30 14693 H 1406.58 -0.621658 0.395867 0
M  V30 14694 H 1409.22 -1.12514 1.53103 0
M  V30 14695 H 1407.37 -3.60492 1.44836 0
M  V30 14696 H 1409.04 -2.55791 3.83886 0
M  V30 14697 H 1407.29 -2.34736 3.64803 0
M  V30 14698 H 1407.96 -3.97041 3.83487 0
M  V30 14699 H 1410.43 -3.68687 1.92897 0
M  V30 14700 H 1409.31 -5.05349 2.14274 0
M  V30 14701 H 1409.57 -4.38812 0.538173 0
M  V30 14702 N 1408.63 -1.05812 -1.16797 0
M  V30 14703 C 1409.86 -0.792519 -1.9112 0
M  V30 14704 C 1410.27 0.652549 -1.77164 0
M  V30 14705 O 1409.63 1.44633 -1.113 0
M  V30 14706 C 1409.68 -1.17172 -3.41984 0
M  V30 14707 O 1409.4 -2.56008 -3.55516 0
M  V30 14708 C 1410.9 -0.933162 -4.33367 0
M  V30 14709 H 1408.12 -0.28768 -0.606202 0
M  V30 14710 H 1410.67 -1.41046 -1.48075 0
M  V30 14711 H 1408.82 -0.598413 -3.8275 0
M  V30 14712 H 1409.24 -2.71053 -4.49033 0
M  V30 14713 H 1410.71 -1.24817 -5.37703 0
M  V30 14714 H 1411.19 0.131345 -4.39004 0
M  V30 14715 H 1411.79 -1.49062 -3.98322 0
M  V30 14716 N 1410.11 1.33347 -0.840014 0
M  V30 14717 C 1411.52 1.50615 -0.52795 0
M  V30 14718 C 1411.72 1.77993 0.944493 0
M  V30 14719 O 1410.78 1.84087 1.72824 0
M  V30 14720 C 1412.09 2.66001 -1.40228 0
M  V30 14721 C 1413.64 2.79886 -1.40117 0
M  V30 14722 C 1414.12 3.98335 -2.26038 0
M  V30 14723 N 1415.61 4.05572 -2.23753 0
M  V30 14724 C 1416.34 4.96422 -2.86972 0
M  V30 14725 N 1415.84 5.9238 -3.59247 0
M  V30 14726 N 1417.63 4.89428 -2.76436 0
M  V30 14727 H 1409.78 1.13839 -1.79317 0
M  V30 14728 H 1412.04 0.559772 -0.765088 0
M  V30 14729 H 1411.75 2.52453 -2.44868 0
M  V30 14730 H 1411.62 3.61434 -1.07914 0
M  V30 14731 H 1414.01 2.92865 -0.362487 0
M  V30 14732 H 1414.09 1.85211 -1.76439 0
M  V30 14733 H 1413.74 3.86115 -3.29966 0
M  V30 14734 H 1413.67 4.92257 -1.87057 0
M  V30 14735 H 1416.16 3.36899 -1.71195 0
M  V30 14736 H 1416.47 6.58367 -4.04688 0
M  V30 14737 H 1414.82 5.92451 -3.63354 0
M  V30 14738 H 1418.01 4.13428 -2.19534 0
M  V30 14739 H 1418.18 5.60032 -3.25989 0
M  V30 14740 N 1411.59 0.596556 1.45873 0
M  V30 14741 C 1413 0.259317 1.57479 0
M  V30 14742 C 1413.2 -1.23829 1.58961 0
M  V30 14743 O 1412.26 -2.02076 1.51399 0
M  V30 14744 C 1413.57 0.920755 2.86256 0
M  V30 14745 C 1415.12 0.895638 2.99912 0
M  V30 14746 C 1415.59 1.53688 4.31444 0
M  V30 14747 N 1417.08 1.50186 4.38176 0
M  V30 14748 C 1417.82 1.96727 5.38596 0
M  V30 14749 N 1417.32 2.51304 6.45615 0
M  V30 14750 N 1419.11 1.87561 5.29884 0
M  V30 14751 H 1411.26 1.56909 1.43155 0
M  V30 14752 H 1413.52 0.656664 0.683737 0
M  V30 14753 H 1413.23 1.97481 2.91023 0
M  V30 14754 H 1413.1 0.437331 3.74656 0
M  V30 14755 H 1415.49 -0.149838 2.94719 0
M  V30 14756 H 1415.57 1.41722 2.12952 0
M  V30 14757 H 1415.21 2.58163 4.37395 0
M  V30 14758 H 1415.14 0.990408 5.17203 0
M  V30 14759 H 1417.64 1.10305 3.61443 0
M  V30 14760 H 1417.95 2.84639 7.18471 0
M  V30 14761 H 1416.29 2.55337 6.46396 0
M  V30 14762 H 1419.48 1.4467 4.45183 0
M  V30 14763 H 1419.66 2.24146 6.07999 0
M  V30 14764 N 1413.06 -1.53996 0.335095 0
M  V30 14765 C 1413.99 -2.2768 -0.518087 0
M  V30 14766 C 1414.97 -1.28915 -1.10972 0
M  V30 14767 O 1416.16 -1.57745 -1.1327 0
M  V30 14768 C 1413.29 -3.04327 -1.67339 0
M  V30 14769 C 1412.24 -4.10525 -1.2105 0
M  V30 14770 C 1411.57 -4.75078 -2.45366 0
M  V30 14771 C 1412.87 -5.21337 -0.317055 0
M  V30 14772 H 1414.56 -2.99244 0.0965669 0
M  V30 14773 H 1412.11 -1.4392 0.0478842 0
M  V30 14774 H 1414.06 -3.54608 -2.27664 0
M  V30 14775 H 1412.79 -2.30399 -2.31481 0
M  V30 14776 H 1411.45 -3.61144 -0.630124 0
M  V30 14777 H 1411.09 -3.97754 -3.07897 0
M  V30 14778 H 1410.79 -5.46822 -2.1508 0
M  V30 14779 H 1412.32 -5.2814 -3.06432 0
M  V30 14780 H 1413.73 -5.67305 -0.826905 0
M  V30 14781 H 1412.13 -6.00006 -0.106458 0
M  V30 14782 H 1413.2 -4.80536 0.649068 0
M  V30 14783 N 1414.54 -0.0635198 -1.57472 0
M  V30 14784 C 1415.49 0.906604 -2.12248 0
M  V30 14785 C 1416.46 1.30078 -1.0329 0
M  V30 14786 O 1417.64 1.38809 -1.30907 0
M  V30 14787 C 1414.78 2.1718 -2.68192 0
M  V30 14788 C 1413.9 1.831 -3.91278 0
M  V30 14789 C 1413.03 3.0417 -4.35493 0
M  V30 14790 C 1412.07 2.66069 -5.51248 0
M  V30 14791 N 1411.21 3.79871 -5.9046 0
M  V30 14792 H 1416.05 0.432606 -2.94843 0
M  V30 14793 H 1413.58 0.201895 -1.45708 0
M  V30 14794 H 1415.54 2.91231 -2.98732 0
M  V30 14795 H 1414.17 2.62135 -1.88375 0
M  V30 14796 H 1413.22 0.991473 -3.67252 0
M  V30 14797 H 1414.54 1.51063 -4.75375 0
M  V30 14798 H 1413.69 3.86507 -4.6765 0
M  V30 14799 H 1412.43 3.39395 -3.50232 0
M  V30 14800 H 1411.43 1.82151 -5.1875 0
M  V30 14801 H 1412.66 2.32023 -6.38234 0
M  V30 14802 H 1410.61 4.14873 -5.0815 0
M  V30 14803 H 1410.52 3.51573 -6.69277 0
M  V30 14804 H 1411.79 4.62811 -6.27237 0
M  V30 14805 N 1416.02 1.56195 0.209972 0
M  V30 14806 C 1417.43 1.69811 0.775969 0
M  V30 14807 C 1417.78 0.667543 1.84495 0
M  V30 14808 O 1416.91 -0.179043 2.15658 0
M  V30 14809 C 1417.5 3.07869 1.41429 0
M  V30 14810 C 1416.06 3.233 1.92755 0
M  V30 14811 C 1415.21 2.6575 0.791958 0
M  V30 14812 H 1418.16 1.58693 -0.0148727 0
M  V30 14813 H 1418.18 3.04371 2.28339 0
M  V30 14814 H 1417.69 3.82853 0.63604 0
M  V30 14815 H 1415.79 2.53206 2.73345 0
M  V30 14816 H 1415.91 4.30645 2.09956 0
M  V30 14817 H 1414.27 2.24535 1.20234 0
M  V30 14818 H 1415.05 3.4329 0.0261877 0
M  V30 14819 N 1417.5 -0.477127 1.50204 0
M  V30 14820 C 1418.43 -1.58405 1.71552 0
M  V30 14821 C 1419.41 -1.60463 0.564413 0
M  V30 14822 O 1420.59 -1.76826 0.802893 0
M  V30 14823 C 1417.72 -2.96765 1.8041 0
M  V30 14824 C 1416.68 -3.09573 2.95548 0
M  V30 14825 C 1416 -4.49522 2.89542 0
M  V30 14826 C 1417.3 -2.87356 4.36147 0
M  V30 14827 H 1419 -1.40792 2.64231 0
M  V30 14828 H 1416.54 -0.675886 1.27153 0
M  V30 14829 H 1418.5 -3.74125 1.9393 0
M  V30 14830 H 1417.22 -3.1552 0.843489 0
M  V30 14831 H 1415.88 -2.34645 2.81669 0
M  V30 14832 H 1415.53 -4.65186 1.91339 0
M  V30 14833 H 1415.23 -4.59028 3.66834 0
M  V30 14834 H 1416.75 -5.28909 3.05102 0
M  V30 14835 H 1418.17 -3.54469 4.50583 0
M  V30 14836 H 1416.56 -3.08313 5.14843 0
M  V30 14837 H 1417.63 -1.83264 4.48935 0
M  V30 14838 N 1418.98 -1.3968 -0.729882 0
M  V30 14839 C 1419.92 -1.3896 -1.86528 0
M  V30 14840 C 1420.92 -0.272027 -1.67202 0
M  V30 14841 O 1422.12 -0.442328 -1.74481 0
M  V30 14842 H 1418.5 -0.434045 -0.614092 0
M  V30 14843 H 1420.47 -2.34721 -1.84252 0
M  V30 14844 C 1419.22 -1.255 -3.24261 0
M  V30 14845 H 1418.54 -2.10767 -3.39731 0
M  V30 14846 H 1419.98 -1.29054 -4.03882 0
M  V30 14847 C 1418.44 0.0361127 -3.36881 0
M  V30 14848 O 1418.97 1.0044 -3.8894 0
M  V30 14849 N 1417.18 0.100874 -2.90425 0
M  V30 14850 H 1416.72 -0.687797 -2.48248 0
M  V30 14851 H 1416.68 0.964251 -2.99248 0
M  V30 14852 N 1420.45 0.960609 -1.2494 0
M  V30 14853 C 1421.7 1.70701 -1.09495 0
M  V30 14854 C 1422.03 1.90754 0.364214 0
M  V30 14855 O 1421.31 1.47417 1.26879 0
M  V30 14856 C 1421.59 3.09353 -1.84317 0
M  V30 14857 C 1421.44 2.96747 -3.38026 0
M  V30 14858 C 1422.76 4.09139 -1.62153 0
M  V30 14859 H 1419.88 0.61955 -0.399158 0
M  V30 14860 H 1422.52 1.11701 -1.53698 0
M  V30 14861 H 1420.67 3.59719 -1.46746 0
M  V30 14862 H 1422.35 2.53752 -3.85237 0
M  V30 14863 H 1420.59 2.32798 -3.66043 0
M  V30 14864 H 1421.26 3.95002 -3.85587 0
M  V30 14865 H 1423.74 3.67659 -1.94849 0
M  V30 14866 H 1422.61 5.04206 -2.16951 0
M  V30 14867 H 1422.87 4.38521 -0.561437 0
M  V30 14868 N 1421.93 1.0643 1.16234 0
M  V30 14869 C 1422.88 0.670457 2.22728 0
M  V30 14870 C 1423.87 -0.31428 1.66459 0
M  V30 14871 O 1425.08 -0.178996 1.79108 0
M  V30 14872 H 1421.46 0.198692 0.725276 0
M  V30 14873 H 1423.43 1.57846 2.53233 0
M  V30 14874 C 1422.18 0.074379 3.4762 0
M  V30 14875 H 1421.5 0.823227 3.91233 0
M  V30 14876 H 1422.94 -0.163652 4.23684 0
M  V30 14877 C 1421.4 -1.18242 3.15469 0
M  V30 14878 O 1421.93 -2.27018 3.314 0
M  V30 14879 N 1420.13 -1.08493 2.69588 0
M  V30 14880 H 1419.68 -0.199714 2.56825 0
M  V30 14881 H 1419.64 -1.92666 2.48449 0
M  V30 14882 N 1423.41 -1.329 0.847073 0
M  V30 14883 C 1424.66 -1.9712 0.445872 0
M  V30 14884 C 1424.98 -1.67398 -1.00014 0
M  V30 14885 O 1424.25 -0.977204 -1.69787 0
M  V30 14886 H 1422.83 -0.729247 0.161887 0
M  V30 14887 H 1425.49 -1.62118 1.08184 0
M  V30 14888 H 1424.59 -3.06575 0.584676 0
M  V30 14889 N 1424.89 -0.604284 -1.45555 0
M  V30 14890 C 1425.82 0.154579 -2.28678 0
M  V30 14891 C 1426.83 0.83491 -1.39761 0
M  V30 14892 O 1428.02 0.700852 -1.64166 0
M  V30 14893 C 1425.12 1.2397 -3.15412 0
M  V30 14894 C 1424.3 0.647128 -4.32586 0
M  V30 14895 C 1423.35 1.62272 -5.00554 0
M  V30 14896 O 1422.38 1.15031 -5.57455 0
M  V30 14897 N 1423.58 2.9571 -4.99536 0
M  V30 14898 H 1426.35 -0.558668 -2.94447 0
M  V30 14899 H 1423.91 -0.443538 -1.55706 0
M  V30 14900 H 1425.9 1.89209 -3.57746 0
M  V30 14901 H 1424.47 1.85552 -2.51574 0
M  V30 14902 H 1423.69 -0.183261 -3.93774 0
M  V30 14903 H 1424.98 0.231394 -5.08274 0
M  V30 14904 H 1424.38 3.36695 -4.54591 0
M  V30 14905 H 1422.93 3.56381 -5.45744 0
M  V30 14906 N 1426.37 1.53816 -0.343257 0
M  V30 14907 C 1427.3 2.22552 0.548015 0
M  V30 14908 C 1428.31 1.23202 1.06419 0
M  V30 14909 O 1429.5 1.49559 0.974394 0
M  V30 14910 C 1426.6 2.89197 1.76687 0
M  V30 14911 C 1425.77 4.14859 1.38603 0
M  V30 14912 C 1424.83 4.64917 2.46453 0
M  V30 14913 O 1423.86 5.29135 2.09773 0
M  V30 14914 N 1425.06 4.4082 3.77701 0
M  V30 14915 H 1427.83 2.99672 -0.040645 0
M  V30 14916 H 1425.39 1.61033 -0.167368 0
M  V30 14917 H 1427.38 3.19601 2.48268 0
M  V30 14918 H 1425.95 2.15664 2.26291 0
M  V30 14919 H 1425.17 3.91003 0.501001 0
M  V30 14920 H 1426.46 4.96599 1.10756 0
M  V30 14921 H 1425.85 3.8946 4.1029 0
M  V30 14922 H 1424.41 4.7583 4.45453 0
M  V30 14923 N 1427.84 0.0718701 1.57436 0
M  V30 14924 C 1429.09 -0.598116 1.93779 0
M  V30 14925 C 1429.42 -1.69258 0.952131 0
M  V30 14926 O 1428.7 -1.94491 -0.0186426 0
M  V30 14927 C 1428.98 -1.17499 3.40391 0
M  V30 14928 C 1428.83 -0.0871719 4.49716 0
M  V30 14929 C 1430.15 -2.08047 3.8782 0
M  V30 14930 H 1427.27 -0.215954 0.704651 0
M  V30 14931 H 1429.91 0.137854 1.89499 0
M  V30 14932 H 1428.06 -1.80221 3.44169 0
M  V30 14933 H 1429.74 0.545906 4.58058 0
M  V30 14934 H 1427.98 0.582213 4.29875 0
M  V30 14935 H 1428.65 -0.531202 5.49438 0
M  V30 14936 H 1431.13 -1.5526 3.86049 0
M  V30 14937 H 1430 -2.45345 4.91016 0
M  V30 14938 H 1430.26 -2.98879 3.25766 0
M  V30 14939 N 1429.32 -1.56304 -0.201686 0
M  V30 14940 C 1430.23 -1.97215 -1.27057 0
M  V30 14941 C 1431.25 -0.878834 -1.50175 0
M  V30 14942 O 1432.42 -1.18405 -1.62918 0
M  V30 14943 C 1429.49 -2.29772 -2.59626 0
M  V30 14944 C 1428.55 -3.52776 -2.44637 0
M  V30 14945 C 1427.78 -3.83771 -3.70885 0
M  V30 14946 O 1428.01 -3.16149 -4.7477 0
M  V30 14947 O 1426.94 -4.77216 -3.66808 0
M  V30 14948 H 1430.77 -2.88347 -0.953393 0
M  V30 14949 H 1428.35 -1.43773 -0.406158 0
M  V30 14950 H 1430.23 -2.51817 -3.37885 0
M  V30 14951 H 1428.91 -1.41809 -2.90984 0
M  V30 14952 H 1427.82 -3.35986 -1.64512 0
M  V30 14953 H 1429.15 -4.41184 -2.18214 0
M  V30 14954 N 1430.8 0.469154 -1.50455 0
M  V30 14955 C 1432.03 1.24432 -1.653 0
M  V30 14956 C 1432.44 1.85766 -0.33713 0
M  V30 14957 O 1431.8 1.69313 0.681118 0
M  V30 14958 C 1431.85 2.35163 -2.74555 0
M  V30 14959 O 1431.57 1.76344 -4.01042 0
M  V30 14960 C 1433.07 3.26006 -3.00391 0
M  V30 14961 H 1430.29 0.376251 -0.555587 0
M  V30 14962 H 1432.84 0.559777 -1.96689 0
M  V30 14963 H 1430.99 2.99389 -2.45855 0
M  V30 14964 H 1431.41 2.49278 -4.61477 0
M  V30 14965 H 1432.88 3.99909 -3.80496 0
M  V30 14966 H 1433.36 3.84901 -2.11537 0
M  V30 14967 H 1433.96 2.67515 -3.3063 0
M  V30 14968 N 1432.28 1.40065 0.722464 0
M  V30 14969 C 1433.52 1.38175 1.48444 0
M  V30 14970 C 1433.86 -0.0182857 1.94191 0
M  V30 14971 O 1433.13 -0.985638 1.67677 0
M  V30 14972 C 1433.42 2.36518 2.71535 0
M  V30 14973 C 1433.27 3.85517 2.31726 0
M  V30 14974 C 1434.59 2.325 3.73673 0
M  V30 14975 H 1431.71 0.503221 0.538458 0
M  V30 14976 H 1434.35 1.7115 0.825087 0
M  V30 14977 H 1432.5 2.08529 3.27793 0
M  V30 14978 H 1434.17 4.24306 1.81003 0
M  V30 14979 H 1432.41 4.01684 1.63807 0
M  V30 14980 H 1433.08 4.49834 3.19928 0
M  V30 14981 H 1435.56 2.57277 3.27029 0
M  V30 14982 H 1434.44 3.03369 4.57447 0
M  V30 14983 H 1434.7 1.33427 4.21485 0
M  V30 14984 N 1433.76 -0.95397 1.25448 0
M  V30 14985 C 1435.01 -1.6953 1.10018 0
M  V30 14986 C 1435.33 -1.9166 -0.359385 0
M  V30 14987 O 1434.6 -1.50417 -1.25506 0
M  V30 14988 H 1433.18 -0.628238 0.404136 0
M  V30 14989 H 1435.84 -1.14691 1.57581 0
M  V30 14990 H 1434.93 -2.67427 1.60901 0
M  V30 14991 N 1435.24 -1.07045 -1.15668 0
M  V30 14992 C 1436.48 -0.786751 -1.85723 0
M  V30 14993 C 1436.8 0.689604 -1.83041 0
M  V30 14994 O 1438 1.08796 -2.48748 0
M  V30 14995 C 1436.46 -1.35729 -3.33325 0
M  V30 14996 C 1436.07 -2.86444 -3.44462 0
M  V30 14997 C 1437.81 -1.15148 -4.08584 0
M  V30 14998 C 1435.72 -3.36705 -4.86193 0
M  V30 14999 H 1434.65 -0.29063 -0.695737 0
M  V30 15000 H 1437.3 -1.29012 -1.30492 0
M  V30 15001 H 1435.68 -0.781671 -3.88209 0
M  V30 15002 H 1436.86 -3.50023 -2.997 0
M  V30 15003 H 1435.17 -3.0578 -2.82644 0
M  V30 15004 H 1437.77 -1.50179 -5.13177 0
M  V30 15005 H 1438.11 -0.0903159 -4.16202 0
M  V30 15006 H 1438.64 -1.6933 -3.59962 0
M  V30 15007 H 1435.38 -4.42333 -4.83758 0
M  V30 15008 H 1434.9 -2.77877 -5.31549 0
M  V30 15009 H 1436.58 -3.32478 -5.55038 0
M  V30 15010 N 1436.71 1.32449 -0.85411 0
M  V30 15011 C 1438.12 1.79545 -0.511923 0
M  V30 15012 C 1438.48 1.70534 0.970188 0
M  V30 15013 O 1437.6 1.2636 1.75676 0
M  V30 15014 C 1438.2 3.26 -0.922456 0
M  V30 15015 C 1436.75 3.71053 -0.632176 0
M  V30 15016 C 1435.9 2.53565 -1.12249 0
M  V30 15017 H 1438.85 1.19755 -1.04137 0
M  V30 15018 H 1438.87 3.79751 -0.238618 0
M  V30 15019 H 1438.39 3.32526 -2.00119 0
M  V30 15020 H 1436.49 3.70042 0.435862 0
M  V30 15021 H 1436.6 4.63878 -1.19809 0
M  V30 15022 H 1434.96 2.48849 -0.542781 0
M  V30 15023 H 1435.75 2.62846 -2.20832 0
M  V30 15024 N 1438.19 0.611994 1.45232 0
M  V30 15025 C 1439.44 0.106467 2.01419 0
M  V30 15026 C 1439.75 -1.2723 1.48566 0
M  V30 15027 O 1440.96 -1.8708 1.96757 0
M  V30 15028 C 1439.42 0.139639 3.59629 0
M  V30 15029 C 1439.02 1.51853 4.21479 0
M  V30 15030 C 1440.77 -0.310417 4.23364 0
M  V30 15031 C 1438.67 1.50785 5.71855 0
M  V30 15032 H 1437.6 0.0360345 0.753138 0
M  V30 15033 H 1440.26 0.767974 1.66657 0
M  V30 15034 H 1438.64 -0.588606 3.91601 0
M  V30 15035 H 1439.81 2.26884 4.01074 0
M  V30 15036 H 1438.13 1.91105 3.69956 0
M  V30 15037 H 1440.72 -0.337656 5.33633 0
M  V30 15038 H 1441.07 -1.33398 3.94348 0
M  V30 15039 H 1441.6 0.364704 3.96125 0
M  V30 15040 H 1438.34 2.50916 6.05575 0
M  V30 15041 H 1437.86 0.800195 5.94438 0
M  V30 15042 H 1439.54 1.23341 6.35135 0
M  V30 15043 N 1439.67 -1.53632 0.351409 0
M  V30 15044 C 1440.62 -2.22041 -0.517867 0
M  V30 15045 C 1441.6 -1.21057 -1.0599 0
M  V30 15046 O 1442.8 -1.46569 -0.992298 0
M  V30 15047 C 1439.92 -3.00259 -1.66432 0
M  V30 15048 C 1439.01 -4.08607 -1.13584 0
M  V30 15049 N 1439.4 -5.04727 -0.329217 0
M  V30 15050 C 1437.7 -4.23059 -1.412 0
M  V30 15051 C 1438.4 -5.81685 -0.0415005 0
M  V30 15052 N 1437.38 -5.39875 -0.635288 0
M  V30 15053 H 1441.18 -2.93711 0.105386 0
M  V30 15054 H 1438.69 -1.61623 0.15868 0
M  V30 15055 H 1440.69 -3.47774 -2.29911 0
M  V30 15056 H 1439.35 -2.30117 -2.29077 0
M  V30 15057 H 1440.36 -5.17891 0.0303777 0
M  V30 15058 H 1437.04 -3.64139 -2.04227 0
M  V30 15059 H 1438.43 -6.69128 0.609686 0
M  V30 15060 N 1441.15 -0.0802183 -1.57396 0
M  V30 15061 C 1442.39 0.581779 -1.94902 0
M  V30 15062 C 1442.75 1.66708 -0.960532 0
M  V30 15063 O 1442.04 1.91593 0.0158677 0
M  V30 15064 C 1442.24 1.19551 -3.36812 0
M  V30 15065 C 1442.06 0.171196 -4.49374 0
M  V30 15066 C 1440.83 -0.247104 -5.04695 0
M  V30 15067 C 1443.03 -0.594852 -5.10848 0
M  V30 15068 N 1441.01 -1.26125 -6.00804 0
M  V30 15069 C 1442.39 -1.46124 -6.02535 0
M  V30 15070 C 1444.44 -0.65 -4.93639 0
M  V30 15071 C 1443.14 -2.37789 -6.78859 0
M  V30 15072 C 1445.17 -1.55419 -5.70613 0
M  V30 15073 C 1444.53 -2.40824 -6.61954 0
M  V30 15074 H 1440.63 0.183663 -0.760126 0
M  V30 15075 H 1443.21 -0.159324 -1.94047 0
M  V30 15076 H 1441.39 1.90651 -3.38389 0
M  V30 15077 H 1443.12 1.81867 -3.61534 0
M  V30 15078 H 1439.87 0.137694 -4.734 0
M  V30 15079 H 1440.3 -1.76608 -6.53558 0
M  V30 15080 H 1444.94 -0.00389787 -4.228 0
M  V30 15081 H 1442.66 -3.03431 -7.4897 0
M  V30 15082 H 1446.24 -1.60181 -5.59315 0
M  V30 15083 H 1445.12 -3.09654 -7.20475 0
M  V30 15084 N 1442.63 1.56409 0.193394 0
M  V30 15085 C 1443.87 1.80367 0.911717 0
M  V30 15086 C 1444.19 0.653561 1.83721 0
M  V30 15087 O 1443.46 -0.328001 1.93135 0
M  V30 15088 H 1442.04 0.665316 0.339652 0
M  V30 15089 H 1444.71 1.93887 0.198496 0
M  V30 15090 H 1443.8 2.7359 1.50182 0
M  V30 15091 N 1444.1 -0.461169 1.50702 0
M  V30 15092 C 1445.35 -1.21251 1.62186 0
M  V30 15093 C 1445.68 -1.91735 0.326818 0
M  V30 15094 O 1444.93 -1.83212 -0.687879 0
M  V30 15095 C 1445.23 -2.27213 2.75879 0
M  V30 15096 C 1444.9 -1.73912 4.16011 0
M  V30 15097 C 1443.56 -1.59097 4.54138 0
M  V30 15098 C 1445.91 -1.34477 5.03553 0
M  V30 15099 C 1443.24 -1.03285 5.77537 0
M  V30 15100 C 1445.59 -0.801027 6.27508 0
M  V30 15101 C 1444.26 -0.639586 6.64429 0
M  V30 15102 H 1443.53 -0.443689 0.593482 0
M  V30 15103 H 1446.17 -0.507035 1.84666 0
M  V30 15104 H 1444.48 -3.03707 2.47526 0
M  V30 15105 H 1446.18 -2.85124 2.81967 0
M  V30 15106 H 1442.77 -1.86413 3.85938 0
M  V30 15107 H 1446.95 -1.44753 4.74721 0
M  V30 15108 H 1442.21 -0.895316 6.04809 0
M  V30 15109 H 1446.38 -0.486842 6.94696 0
M  V30 15110 H 1444.01 -0.204966 7.59924 0
M  V30 15111 N 1445.58 -1.40446 -0.715026 0
M  V30 15112 C 1446.49 -1.43074 -1.85922 0
M  V30 15113 C 1447.51 -0.323294 -1.7097 0
M  V30 15114 O 1448.68 -0.567966 -1.93226 0
M  V30 15115 C 1445.75 -1.29206 -3.21725 0
M  V30 15116 C 1444.81 -2.50097 -3.48927 0
M  V30 15117 C 1444.04 -2.36881 -4.7825 0
M  V30 15118 O 1444.27 -1.38292 -5.53382 0
M  V30 15119 O 1443.2 -3.26266 -5.058 0
M  V30 15120 H 1447.03 -2.39565 -1.86661 0
M  V30 15121 H 1444.61 -1.21775 -0.865522 0
M  V30 15122 H 1446.49 -1.23681 -4.02841 0
M  V30 15123 H 1445.17 -0.358207 -3.21712 0
M  V30 15124 H 1444.07 -2.61199 -2.67817 0
M  V30 15125 H 1445.41 -3.42244 -3.53737 0
M  V30 15126 N 1447.06 0.947303 -1.25952 0
M  V30 15127 C 1448.31 1.68945 -1.10915 0
M  V30 15128 C 1448.63 1.91848 0.349216 0
M  V30 15129 O 1447.9 1.5108 1.24706 0
M  V30 15130 H 1446.48 0.626086 -0.407462 0
M  V30 15131 H 1449.14 1.13854 -1.58187 0
M  V30 15132 H 1448.24 2.6657 -1.62317 0
M  V30 15133 N 1448.54 1.07657 1.15099 0
M  V30 15134 C 1449.78 0.802796 1.86234 0
M  V30 15135 C 1450.12 -0.669555 1.82293 0
M  V30 15136 O 1449.39 -1.49162 1.24823 0
M  V30 15137 C 1449.68 1.3156 3.35208 0
M  V30 15138 C 1449.53 2.85272 3.47764 0
M  V30 15139 C 1450.85 0.934641 4.30061 0
M  V30 15140 H 1447.97 0.293099 0.676212 0
M  V30 15141 H 1450.61 1.33488 1.35207 0
M  V30 15142 H 1448.76 0.86298 3.78794 0
M  V30 15143 H 1450.43 3.38847 3.13018 0
M  V30 15144 H 1448.67 3.23316 2.89222 0
M  V30 15145 H 1449.34 3.16223 4.52446 0
M  V30 15146 H 1451.82 1.3247 3.9445 0
M  V30 15147 H 1450.7 1.32074 5.32774 0
M  V30 15148 H 1450.96 -0.159122 4.41814 0
M  V30 15149 N 1450.02 -1.31994 0.861122 0
M  V30 15150 C 1450.98 -2.27019 0.315421 0
M  V30 15151 C 1451.98 -1.51864 -0.528575 0
M  V30 15152 O 1453.17 -1.70867 -0.339154 0
M  V30 15153 C 1450.3 -3.36384 -0.553021 0
M  V30 15154 H 1451.49 -2.768 1.1542 0
M  V30 15155 H 1449.05 -1.42776 0.635982 0
M  V30 15156 H 1449.78 -2.91882 -1.41335 0
M  V30 15157 H 1449.57 -3.92067 0.0511919 0
M  V30 15158 H 1451.06 -4.07172 -0.927392 0
M  V30 15159 N 1451.49 -0.619688 -1.44906 0
M  V30 15160 C 1452.91 -0.284338 -1.57047 0
M  V30 15161 C 1453.11 1.21284 -1.60911 0
M  V30 15162 O 1452.17 1.99642 -1.54594 0
M  V30 15163 C 1453.48 -0.966179 -2.84755 0
M  V30 15164 C 1455.03 -0.943239 -2.98449 0
M  V30 15165 C 1455.5 -1.60532 -4.28945 0
M  V30 15166 N 1456.99 -1.57138 -4.35732 0
M  V30 15167 C 1457.73 -2.05271 -5.35399 0
M  V30 15168 N 1457.22 -2.61543 -6.41535 0
M  V30 15169 N 1459.02 -1.95967 -5.26833 0
M  V30 15170 H 1451.17 -1.59167 -1.40641 0
M  V30 15171 H 1453.43 -0.667458 -0.673204 0
M  V30 15172 H 1453.14 -2.02086 -2.87844 0
M  V30 15173 H 1453.01 -0.49688 -3.73913 0
M  V30 15174 H 1455.4 0.102932 -2.9492 0
M  V30 15175 H 1455.48 -1.45092 -2.1067 0
M  V30 15176 H 1455.12 -2.65088 -4.33233 0
M  V30 15177 H 1455.05 -1.07256 -5.15561 0
M  V30 15178 H 1457.54 -1.16042 -3.59643 0
M  V30 15179 H 1457.86 -2.96033 -7.13852 0
M  V30 15180 H 1456.2 -2.65588 -6.42252 0
M  V30 15181 H 1459.39 -1.51734 -4.42825 0
M  V30 15182 H 1459.57 -2.33791 -6.04356 0
M  V30 15183 N 1452.97 1.53444 -0.359552 0
M  V30 15184 C 1453.92 2.25544 0.48977 0
M  V30 15185 C 1454.89 1.25982 1.08248 0
M  V30 15186 O 1456.07 1.54751 1.1161 0
M  V30 15187 C 1453.21 3.04358 1.62666 0
M  V30 15188 C 1452.33 4.18801 1.0597 0
M  V30 15189 C 1451.46 4.85069 2.1652 0
M  V30 15190 C 1450.5 5.91554 1.57259 0
M  V30 15191 N 1449.64 6.51537 2.61617 0
M  V30 15192 H 1454.48 2.97709 -0.13158 0
M  V30 15193 H 1452.02 1.469 -0.0767056 0
M  V30 15194 H 1453.97 3.48324 2.29623 0
M  V30 15195 H 1452.6 2.34459 2.21876 0
M  V30 15196 H 1451.66 3.79364 0.280599 0
M  V30 15197 H 1452.97 4.95341 0.586383 0
M  V30 15198 H 1452.12 5.32187 2.9131 0
M  V30 15199 H 1450.86 4.07988 2.67202 0
M  V30 15200 H 1449.87 5.43803 0.809818 0
M  V30 15201 H 1451.09 6.70552 1.07409 0
M  V30 15202 H 1449.04 5.77312 3.11523 0
M  V30 15203 H 1448.95 7.23599 2.18954 0
M  V30 15204 H 1450.22 7.03306 3.36127 0
M  V30 15205 N 1454.45 0.0885642 1.57351 0
M  V30 15206 C 1455.7 -0.575536 1.93732 0
M  V30 15207 C 1456.02 -1.69126 0.970644 0
M  V30 15208 O 1455.29 -1.95888 0.0215907 0
M  V30 15209 H 1453.87 -0.215592 0.715213 0
M  V30 15210 H 1456.53 0.150362 1.94319 0
M  V30 15211 H 1455.63 -0.989979 2.95983 0
M  V30 15212 N 1455.93 -1.56509 -0.185096 0
M  V30 15213 C 1457.16 -1.85058 -0.918527 0
M  V30 15214 C 1457.57 -0.670181 -1.76933 0
M  V30 15215 O 1456.91 0.370215 -1.79931 0
M  V30 15216 C 1456.97 -3.07843 -1.85669 0
M  V30 15217 C 1456.64 -4.41319 -1.18686 0
M  V30 15218 C 1457.63 -5.16887 -0.558946 0
M  V30 15219 C 1455.32 -4.88056 -1.18773 0
M  V30 15220 C 1457.31 -6.37373 0.0591595 0
M  V30 15221 C 1455 -6.08475 -0.565791 0
M  V30 15222 C 1456 -6.82977 0.0565621 0
M  V30 15223 O 1455.68 -8.01114 0.668726 0
M  V30 15224 H 1455.42 -0.618423 -0.273001 0
M  V30 15225 H 1457.97 -2.04479 -0.194261 0
M  V30 15226 H 1456.2 -2.84332 -2.62092 0
M  V30 15227 H 1457.89 -3.22954 -2.45877 0
M  V30 15228 H 1458.66 -4.81867 -0.550347 0
M  V30 15229 H 1454.53 -4.30016 -1.66154 0
M  V30 15230 H 1458.08 -6.95464 0.545534 0
M  V30 15231 H 1453.98 -6.42961 -0.571927 0
M  V30 15232 H 1454.74 -8.16536 0.566616 0
M  V30 15233 N 1457.41 0.45317 -1.50944 0
M  V30 15234 C 1458.66 1.20076 -1.62064 0
M  V30 15235 C 1458.97 1.92709 -0.335034 0
M  V30 15236 O 1460.17 2.69543 -0.32538 0
M  V30 15237 C 1458.63 2.18283 -2.86148 0
M  V30 15238 C 1458.24 1.5137 -4.21653 0
M  V30 15239 C 1459.98 2.93572 -3.0662 0
M  V30 15240 C 1457.89 2.47968 -5.36904 0
M  V30 15241 H 1456.82 0.451894 -0.603579 0
M  V30 15242 H 1459.47 0.46937 -1.77396 0
M  V30 15243 H 1457.85 2.94789 -2.64415 0
M  V30 15244 H 1459.03 0.805295 -4.53709 0
M  V30 15245 H 1457.34 0.882935 -4.06931 0
M  V30 15246 H 1459.94 3.65903 -3.89897 0
M  V30 15247 H 1460.28 3.54003 -2.1906 0
M  V30 15248 H 1460.81 2.24175 -3.28619 0
M  V30 15249 H 1457.55 1.92249 -6.26674 0
M  V30 15250 H 1457.07 3.16907 -5.09244 0
M  V30 15251 H 1458.75 3.09428 -5.6821 0
M  V30 15252 N 1458.88 1.40823 0.707568 0
M  V30 15253 C 1459.85 1.41464 1.80334 0
M  V30 15254 C 1460.85 0.307143 1.57839 0
M  V30 15255 O 1462.04 0.566444 1.64733 0
M  V30 15256 C 1459.17 1.21426 3.18541 0
M  V30 15257 H 1460.36 2.38998 1.81162 0
M  V30 15258 H 1457.92 1.2679 0.914007 0
M  V30 15259 H 1458.65 0.246847 3.23359 0
M  V30 15260 H 1458.44 2.01657 3.36269 0
M  V30 15261 H 1459.93 1.24681 3.98553 0
M  V30 15262 N 1460.36 -0.94061 1.26453 0
M  V30 15263 C 1461.31 -2.06073 1.07873 0
M  V30 15264 C 1462.3 -1.69399 0.0055001 0
M  V30 15265 O 1463.51 -1.79267 0.162224 0
M  V30 15266 H 1459.89 -0.674748 0.331993 0
M  V30 15267 H 1461.86 -2.18895 2.02799 0
M  V30 15268 C 1460.61 -3.39971 0.729054 0
M  V30 15269 H 1459.93 -3.68667 1.54675 0
M  V30 15270 H 1461.37 -4.1916 0.638844 0
M  V30 15271 C 1459.83 -3.32114 -0.565835 0
M  V30 15272 O 1460.36 -3.68287 -1.60399 0
M  V30 15273 N 1458.56 -2.85218 -0.556679 0
M  V30 15274 H 1458.11 -2.55979 0.288541 0
M  V30 15275 H 1458.07 -2.80344 -1.42318 0
M  V30 15276 N 1461.84 -1.08266 -1.14527 0
M  V30 15277 C 1463.07 -0.83288 -1.89396 0
M  V30 15278 C 1463.48 0.614823 -1.78509 0
M  V30 15279 O 1462.84 1.42239 -1.14343 0
M  V30 15280 C 1462.89 -1.244 -3.39421 0
M  V30 15281 O 1462.61 -2.63491 -3.50006 0
M  V30 15282 C 1464.11 -1.02488 -4.3129 0
M  V30 15283 H 1461.33 -0.300474 -0.599964 0
M  V30 15284 H 1463.88 -1.44155 -1.4505 0
M  V30 15285 H 1462.03 -0.679466 -3.81395 0
M  V30 15286 H 1462.45 -2.80517 -4.43182 0
M  V30 15287 H 1463.92 -1.36194 -5.34935 0
M  V30 15288 H 1464.4 0.0381961 -4.39183 0
M  V30 15289 H 1465 -1.57477 -3.95071 0
M  V30 15290 N 1463.32 1.31536 -0.86811 0
M  V30 15291 C 1464.25 2.31037 -0.33822 0
M  V30 15292 C 1465.23 1.60269 0.569892 0
M  V30 15293 O 1466.42 1.87987 0.487305 0
M  V30 15294 C 1463.55 3.44203 0.462753 0
M  V30 15295 C 1462.5 4.26549 -0.3521 0
M  V30 15296 C 1461.83 5.31605 0.574443 0
M  V30 15297 C 1463.13 4.97665 -1.58516 0
M  V30 15298 H 1464.82 2.75607 -1.16967 0
M  V30 15299 H 1462.37 1.325 -0.56389 0
M  V30 15300 H 1464.32 4.12862 0.843967 0
M  V30 15301 H 1463.04 2.98396 1.32769 0
M  V30 15302 H 1461.7 3.59555 -0.715237 0
M  V30 15303 H 1461.35 4.82048 1.43661 0
M  V30 15304 H 1461.05 5.87591 0.0331436 0
M  V30 15305 H 1462.57 6.03124 0.952541 0
M  V30 15306 H 1463.99 5.58931 -1.27549 0
M  V30 15307 H 1462.38 5.63437 -2.06539 0
M  V30 15308 H 1463.45 4.24756 -2.33902 0
M  V30 15309 N 1464.8 0.627364 1.44575 0
M  V30 15310 C 1466.03 0.137313 2.06444 0
M  V30 15311 C 1466.44 -1.18655 1.46855 0
M  V30 15312 O 1465.8 -1.72699 0.590018 0
M  V30 15313 C 1465.85 0.0123481 3.61498 0
M  V30 15314 O 1465.57 1.28385 4.18866 0
M  V30 15315 C 1467.07 -0.506841 4.40393 0
M  V30 15316 H 1464.29 0.0779387 0.666458 0
M  V30 15317 H 1466.83 0.860701 1.85505 0
M  V30 15318 H 1464.99 -0.66146 3.81711 0
M  V30 15319 H 1465.4 1.12626 5.12265 0
M  V30 15320 H 1466.88 -0.543304 5.4932 0
M  V30 15321 H 1467.35 -1.53314 4.11572 0
M  V30 15322 H 1467.96 0.133589 4.2509 0
M  V30 15323 N 1466.28 -1.53251 0.367684 0
M  V30 15324 C 1467.69 -1.86369 -0.111073 0
M  V30 15325 C 1468.04 -1.2882 -1.47986 0
M  V30 15326 O 1467.16 -0.611058 -2.07593 0
M  V30 15327 C 1467.76 -3.38159 -0.208325 0
M  V30 15328 C 1466.32 -3.71067 -0.63134 0
M  V30 15329 C 1465.46 -2.76425 0.220144 0
M  V30 15330 H 1468.41 -1.47469 0.586398 0
M  V30 15331 H 1468.44 -3.66252 -1.03151 0
M  V30 15332 H 1467.95 -3.80015 0.788038 0
M  V30 15333 H 1466.05 -3.34769 -1.63586 0
M  V30 15334 H 1466.16 -4.77389 -0.404491 0
M  V30 15335 H 1464.53 -2.5279 -0.311298 0
M  V30 15336 H 1465.31 -3.21115 1.21409 0
M  V30 15337 N 1467.75 -0.0969077 -1.57302 0
M  V30 15338 C 1468.7 0.878876 -2.15357 0
M  V30 15339 C 1469.7 1.29091 -1.0969 0
M  V30 15340 O 1470.9 1.26523 -1.28031 0
M  V30 15341 H 1467.28 0.301458 -0.688932 0
M  V30 15342 H 1469.25 0.364542 -2.96165 0
M  V30 15343 C 1468 2.12761 -2.75006 0
M  V30 15344 H 1467.32 1.81944 -3.56 0
M  V30 15345 H 1468.76 2.79092 -3.19193 0
M  V30 15346 C 1467.22 2.90283 -1.70989 0
M  V30 15347 O 1467.75 3.84889 -1.14992 0
M  V30 15348 N 1465.95 2.53857 -1.41439 0
M  V30 15349 H 1465.5 1.76993 -1.87166 0
M  V30 15350 H 1465.46 3.06025 -0.720816 0
M  V30 15351 N 1469.23 1.56605 0.176793 0
M  V30 15352 C 1470.48 1.81952 0.895627 0
M  V30 15353 C 1470.81 0.673893 1.82133 0
M  V30 15354 O 1470.09 -0.324494 1.91774 0
M  V30 15355 C 1470.37 3.17658 1.69604 0
M  V30 15356 C 1470.22 4.4274 0.793834 0
M  V30 15357 C 1471.54 3.50246 2.66488 0
M  V30 15358 H 1468.66 0.661884 0.324159 0
M  V30 15359 H 1471.3 1.89307 0.162092 0
M  V30 15360 H 1469.45 3.11518 2.3214 0
M  V30 15361 H 1471.12 4.60942 0.181775 0
M  V30 15362 H 1469.37 4.33681 0.101566 0
M  V30 15363 H 1470.04 5.34231 1.38927 0
M  V30 15364 H 1472.51 3.56804 2.1408 0
M  V30 15365 H 1471.39 4.46286 3.19562 0
M  V30 15366 H 1471.65 2.7467 3.46423 0
M  V30 15367 N 1470.71 -0.445159 1.51182 0
M  V30 15368 C 1471.96 -1.19288 1.6314 0
M  V30 15369 C 1472.28 -1.91904 0.346109 0
M  V30 15370 O 1471.55 -1.8523 -0.637695 0
M  V30 15371 H 1470.13 -0.443319 0.601229 0
M  V30 15372 H 1472.79 -0.511136 1.88078 0
M  V30 15373 H 1471.89 -1.92672 2.45528 0
M  V30 15374 N 1472.19 -1.41197 -0.700089 0
M  V30 15375 C 1473.46 -1.30803 -1.4543 0
M  V30 15376 C 1473.84 0.0664987 -2.10995 0
M  V30 15377 O 1473.19 1.08043 -2.01343 0
M  V30 15378 C 1473.4 -2.45815 -2.47742 0
M  V30 15379 C 1474.75 -2.86771 -3.13126 0
M  V30 15380 O 1475.77 -2.45521 -2.58065 0
M  V30 15381 O 1474.63 -3.58086 -4.1284 0
M  V30 15382 H 1471.73 -0.514523 -0.647453 0
M  V30 15383 H 1474.27 -1.53151 -0.73095 0
M  V30 15384 H 1473.05 -3.37557 -1.97917 0
M  V30 15385 H 1472.67 -2.25319 -3.27593 0
M  V30 15386 N 1473.67 0.933891 -1.2695 0
M  V30 15387 C 1474.63 2.0152 -1.0919 0
M  V30 15388 C 1475.63 1.60755 -0.037865 0
M  V30 15389 O 1476.82 1.71904 -0.281917 0
M  V30 15390 C 1473.95 3.34403 -0.66239 0
M  V30 15391 H 1475.14 2.18706 -2.05201 0
M  V30 15392 H 1472.7 1.11385 -1.0965 0
M  V30 15393 H 1473.43 3.22915 0.299388 0
M  V30 15394 H 1473.22 3.65345 -1.42356 0
M  V30 15395 H 1474.71 4.13826 -0.560187 0
M  V30 15396 N 1475.14 1.08871 1.13951 0
M  V30 15397 C 1476.09 0.71755 2.21255 0
M  V30 15398 C 1477.09 -0.278901 1.67088 0
M  V30 15399 O 1478.29 -0.140964 1.79447 0
M  V30 15400 H 1474.67 0.214032 0.720898 0
M  V30 15401 H 1476.64 1.63182 2.49828 0
M  V30 15402 C 1475.39 0.148098 3.47384 0
M  V30 15403 H 1474.71 0.906028 3.89398 0
M  V30 15404 H 1476.15 -0.0737451 4.23936 0
M  V30 15405 C 1474.61 -1.11524 3.17906 0
M  V30 15406 O 1475.14 -2.19937 3.3614 0
M  V30 15407 N 1473.34 -1.0275 2.71829 0
M  V30 15408 H 1472.89 -0.145193 2.5719 0
M  V30 15409 H 1472.85 -1.87353 2.5248 0
M  V30 15410 N 1476.62 -1.31073 0.875073 0
M  V30 15411 C 1477.85 -2.01223 0.502383 0
M  V30 15412 C 1478.27 -1.65223 -0.899053 0
M  V30 15413 O 1477.63 -0.863559 -1.59412 0
M  V30 15414 C 1477.68 -3.54269 0.672747 0
M  V30 15415 O 1476.78 -4.11409 -0.285718 0
M  V30 15416 H 1476.12 -0.633422 0.199181 0
M  V30 15417 H 1478.65 -1.67152 1.17989 0
M  V30 15418 H 1478.66 -4.04027 0.567973 0
M  V30 15419 H 1477.34 -3.79811 1.69459 0
M  V30 15420 H 1475.91 -3.72654 -0.135472 0
M  V30 15421 N 1478.1 -0.635022 -1.4424 0
M  V30 15422 C 1479.03 0.106038 -2.28955 0
M  V30 15423 C 1480.05 0.805076 -1.415 0
M  V30 15424 O 1481.23 0.665872 -1.65615 0
M  V30 15425 C 1478.33 1.17252 -3.1797 0
M  V30 15426 C 1477.51 0.555225 -4.33862 0
M  V30 15427 C 1476.57 1.51618 -5.03883 0
M  V30 15428 O 1475.59 1.03181 -5.5977 0
M  V30 15429 N 1476.79 2.85048 -5.05696 0
M  V30 15430 H 1479.56 -0.620999 -2.93196 0
M  V30 15431 H 1477.12 -0.476466 -1.5473 0
M  V30 15432 H 1479.11 1.81578 -3.61679 0
M  V30 15433 H 1477.68 1.80174 -2.55453 0
M  V30 15434 H 1476.9 -0.266745 -3.93296 0
M  V30 15435 H 1478.19 0.123529 -5.0865 0
M  V30 15436 H 1477.59 3.26977 -4.6163 0
M  V30 15437 H 1476.15 3.44724 -5.5318 0
M  V30 15438 N 1479.58 1.53054 -0.375806 0
M  V30 15439 C 1480.81 2.0582 0.211135 0
M  V30 15440 C 1481.22 1.24856 1.4162 0
M  V30 15441 O 1480.58 0.291786 1.80152 0
M  V30 15442 C 1480.63 3.56577 0.594573 0
M  V30 15443 O 1480.35 4.34472 -0.562607 0
M  V30 15444 C 1481.85 4.25639 1.23882 0
M  V30 15445 H 1479.07 0.670085 0.0350268 0
M  V30 15446 H 1481.62 1.9732 -0.537135 0
M  V30 15447 H 1479.77 3.65194 1.29275 0
M  V30 15448 H 1480.18 5.23902 -0.250487 0
M  V30 15449 H 1481.66 5.32408 1.45759 0
M  V30 15450 H 1482.14 3.80001 2.20218 0
M  V30 15451 H 1482.74 4.21302 0.581786 0
M  V30 15452 N 1481.06 0.105248 1.57248 0
M  V30 15453 C 1482.47 -0.422304 1.81861 0
M  V30 15454 C 1482.82 -1.67508 1.02154 0
M  V30 15455 O 1481.94 -2.14905 0.253961 0
M  V30 15456 C 1482.54 -0.772943 3.29865 0
M  V30 15457 C 1481.1 -1.24519 3.55207 0
M  V30 15458 C 1480.24 -0.246936 2.76198 0
M  V30 15459 H 1483.2 0.330565 1.55219 0
M  V30 15460 H 1483.22 -1.6316 3.43743 0
M  V30 15461 H 1482.73 0.139033 3.87851 0
M  V30 15462 H 1480.83 -2.17453 3.02564 0
M  V30 15463 H 1480.94 -1.20001 4.63828 0
M  V30 15464 H 1479.31 -0.731171 2.43979 0
M  V30 15465 H 1480.09 0.657896 3.36937 0
M  V30 15466 N 1482.53 -1.56697 -0.168486 0
M  V30 15467 C 1483.44 -1.99866 -1.22845 0
M  V30 15468 C 1484.46 -0.910491 -1.48277 0
M  V30 15469 O 1485.64 -1.21834 -1.6037 0
M  V30 15470 C 1482.7 -2.35227 -2.54694 0
M  V30 15471 C 1481.76 -3.57886 -2.37099 0
M  V30 15472 C 1481 -3.91551 -3.62661 0
M  V30 15473 O 1481.22 -3.26148 -4.67957 0
M  V30 15474 O 1480.15 -4.8489 -3.56603 0
M  V30 15475 H 1483.98 -2.90305 -0.892015 0
M  V30 15476 H 1481.56 -1.44602 -0.375571 0
M  V30 15477 H 1483.45 -2.58928 -3.32467 0
M  V30 15478 H 1482.12 -1.4795 -2.87911 0
M  V30 15479 H 1481.03 -3.394 -1.57348 0
M  V30 15480 H 1482.36 -4.45714 -2.08806 0
M  V30 15481 N 1484.01 0.437135 -1.51416 0
M  V30 15482 C 1485.24 1.20723 -1.67659 0
M  V30 15483 C 1485.65 1.85476 -0.373547 0
M  V30 15484 O 1484.99 1.71516 0.657876 0
M  V30 15485 C 1485.06 2.33257 -2.73553 0
M  V30 15486 C 1484.72 1.8887 -4.16146 0
M  V30 15487 C 1485.72 1.39203 -5.00918 0
M  V30 15488 C 1483.4 1.96555 -4.62246 0
M  V30 15489 C 1485.4 0.978071 -6.29851 0
M  V30 15490 C 1483.08 1.54771 -5.91176 0
M  V30 15491 C 1484.08 1.05479 -6.74806 0
M  V30 15492 O 1483.77 0.64288 -8.01325 0
M  V30 15493 H 1483.5 0.36993 -0.565798 0
M  V30 15494 H 1486.05 0.524183 -1.98599 0
M  V30 15495 H 1484.28 3.04839 -2.37929 0
M  V30 15496 H 1485.97 2.95121 -2.78673 0
M  V30 15497 H 1486.74 1.3266 -4.66505 0
M  V30 15498 H 1482.62 2.33868 -3.97274 0
M  V30 15499 H 1486.16 0.592633 -6.95078 0
M  V30 15500 H 1482.06 1.60985 -6.25103 0
M  V30 15501 H 1482.83 0.768711 -8.14882 0
M  V30 15502 N 1485.49 1.41566 0.692592 0
M  V30 15503 C 1486.44 1.43648 1.80648 0
M  V30 15504 C 1487.41 0.290497 1.6354 0
M  V30 15505 O 1488.59 0.491979 1.84348 0
M  V30 15506 C 1485.73 1.32733 3.18553 0
M  V30 15507 C 1484.85 2.57224 3.47073 0
M  V30 15508 C 1483.98 2.38581 4.74608 0
M  V30 15509 C 1483.02 3.58534 4.96105 0
M  V30 15510 N 1482.16 3.38942 6.14868 0
M  V30 15511 H 1487 2.38847 1.78203 0
M  V30 15512 H 1484.53 1.186 0.870193 0
M  V30 15513 H 1486.49 1.24405 3.9822 0
M  V30 15514 H 1485.12 0.411407 3.20168 0
M  V30 15515 H 1484.17 2.7599 2.6179 0
M  V30 15516 H 1485.49 3.46443 3.58858 0
M  V30 15517 H 1484.64 2.27738 5.62335 0
M  V30 15518 H 1483.38 1.46824 4.65074 0
M  V30 15519 H 1482.38 3.69828 4.06826 0
M  V30 15520 H 1483.61 4.51248 5.07496 0
M  V30 15521 H 1481.55 2.49887 6.06541 0
M  V30 15522 H 1481.47 4.21737 6.27434 0
M  V30 15523 H 1482.74 3.31877 7.05321 0
M  V30 15524 N 1486.97 -0.927146 1.27443 0
M  V30 15525 C 1487.93 -2.00938 1.10257 0
M  V30 15526 C 1488.93 -1.60733 0.0463898 0
M  V30 15527 O 1490.12 -1.71752 0.291029 0
M  V30 15528 C 1487.25 -3.34047 0.680115 0
M  V30 15529 H 1488.45 -2.17615 2.06358 0
M  V30 15530 H 1486 -1.10802 1.10239 0
M  V30 15531 H 1486.73 -3.23069 -0.282259 0
M  V30 15532 H 1486.52 -3.64585 1.44291 0
M  V30 15533 H 1488.01 -4.13523 0.582126 0
M  V30 15534 N 1488.45 -1.09474 -1.13372 0
M  V30 15535 C 1489.69 -0.831091 -1.84659 0
M  V30 15536 C 1490.02 0.643294 -1.83554 0
M  V30 15537 O 1489.28 1.48958 -1.26925 0
M  V30 15538 C 1489.58 -1.31208 -3.32444 0
M  V30 15539 C 1489.24 -2.79617 -3.5373 0
M  V30 15540 C 1487.9 -3.20147 -3.59248 0
M  V30 15541 C 1490.26 -3.75303 -3.61659 0
M  V30 15542 C 1487.58 -4.55135 -3.70228 0
M  V30 15543 C 1489.94 -5.1008 -3.74167 0
M  V30 15544 C 1488.6 -5.50199 -3.77938 0
M  V30 15545 H 1487.87 -0.304118 -0.675717 0
M  V30 15546 H 1490.52 -1.36961 -1.33843 0
M  V30 15547 H 1488.82 -0.693379 -3.85616 0
M  V30 15548 H 1490.52 -1.08469 -3.86051 0
M  V30 15549 H 1487.11 -2.47253 -3.50091 0
M  V30 15550 H 1491.29 -3.45103 -3.56676 0
M  V30 15551 H 1486.55 -4.85656 -3.71414 0
M  V30 15552 H 1490.72 -5.84077 -3.79245 0
M  V30 15553 H 1488.35 -6.54794 -3.86198 0
M  V30 15554 N 1489.92 1.30607 -0.882012 0
M  V30 15555 C 1490.85 2.30666 -0.362706 0
M  V30 15556 C 1491.84 1.60865 0.552861 0
M  V30 15557 O 1493.02 1.88493 0.467339 0
M  V30 15558 C 1490.15 3.44675 0.42622 0
M  V30 15559 C 1489.1 4.26152 -0.397322 0
M  V30 15560 C 1488.43 5.32185 0.518027 0
M  V30 15561 C 1489.73 4.95955 -1.63785 0
M  V30 15562 H 1491.42 2.74351 -1.19883 0
M  V30 15563 H 1488.97 1.31895 -0.577912 0
M  V30 15564 H 1490.92 4.13734 0.80013 0
M  V30 15565 H 1489.65 2.99787 1.29597 0
M  V30 15566 H 1488.31 3.58776 -0.753332 0
M  V30 15567 H 1487.95 4.83545 1.3854 0
M  V30 15568 H 1487.65 5.87593 -0.0291802 0
M  V30 15569 H 1489.18 6.04101 0.888518 0
M  V30 15570 H 1490.59 5.57547 -1.3347 0
M  V30 15571 H 1488.99 5.61215 -2.12504 0
M  V30 15572 H 1490.06 4.22252 -2.38394 0
M  V30 15573 N 1491.4 0.642663 1.43901 0
M  V30 15574 C 1492.65 0.152003 2.0223 0
M  V30 15575 C 1492.98 -1.22711 1.50518 0
M  V30 15576 O 1492.26 -1.817 0.693937 0
M  V30 15577 C 1492.54 0.151278 3.59782 0
M  V30 15578 C 1492.39 1.56356 4.2175 0
M  V30 15579 C 1493.71 -0.518016 4.37041 0
M  V30 15580 H 1490.83 0.0567094 0.734815 0
M  V30 15581 H 1493.47 0.821337 1.7133 0
M  V30 15582 H 1491.62 -0.418679 3.86237 0
M  V30 15583 H 1493.29 2.18329 4.06362 0
M  V30 15584 H 1491.54 2.11401 3.78803 0
M  V30 15585 H 1492.21 1.51499 5.30803 0
M  V30 15586 H 1494.68 -0.0331947 4.16087 0
M  V30 15587 H 1493.56 -0.487754 5.46729 0
M  V30 15588 H 1493.82 -1.59036 4.12504 0
M  V30 15589 N 1492.88 -1.52852 0.383918 0
M  V30 15590 C 1493.83 -2.27828 -0.468762 0
M  V30 15591 C 1494.82 -1.31516 -1.0677 0
M  V30 15592 O 1496.03 -1.49075 -1.0088 0
M  V30 15593 H 1492.4 -0.732552 -0.169917 0
M  V30 15594 H 1494.38 -2.97825 0.185124 0
M  V30 15595 C 1493.12 -3.09378 -1.58683 0
M  V30 15596 H 1492.45 -3.83343 -1.13527 0
M  V30 15597 H 1493.89 -3.64987 -2.15779 0
M  V30 15598 C 1492.35 -2.21354 -2.53976 0
M  V30 15599 O 1492.88 -1.83668 -3.57252 0
M  V30 15600 N 1491.08 -1.85621 -2.23591 0
M  V30 15601 H 1490.63 -2.16467 -1.39642 0
M  V30 15602 H 1490.59 -1.27015 -2.87602 0
M  V30 15603 N 1494.36 -0.113586 -1.5719 0
M  V30 15604 C 1495.61 0.545507 -1.94183 0
M  V30 15605 C 1495.92 1.68176 -0.998816 0
M  V30 15606 O 1497.13 2.40324 -1.26319 0
M  V30 15607 C 1495.58 1.02178 -3.45091 0
M  V30 15608 C 1495.19 -0.0857195 -4.47918 0
M  V30 15609 C 1496.94 1.65255 -3.91013 0
M  V30 15610 C 1494.84 0.406946 -5.89998 0
M  V30 15611 H 1493.77 0.20755 -0.724872 0
M  V30 15612 H 1496.42 -0.192567 -1.82487 0
M  V30 15613 H 1494.81 1.81411 -3.52003 0
M  V30 15614 H 1495.98 -0.861821 -4.52669 0
M  V30 15615 H 1494.29 -0.622816 -4.11716 0
M  V30 15616 H 1496.89 2.0322 -4.94576 0
M  V30 15617 H 1497.23 2.52888 -3.30687 0
M  V30 15618 H 1497.77 0.925727 -3.86879 0
M  V30 15619 H 1494.51 -0.433199 -6.54067 0
M  V30 15620 H 1494.03 1.14965 -5.88679 0
M  V30 15621 H 1495.71 0.869934 -6.41125 0
M  V30 15622 N 1495.84 1.56784 0.160173 0
M  V30 15623 C 1496.75 2.00514 1.21783 0
M  V30 15624 C 1497.76 0.918341 1.47792 0
M  V30 15625 O 1498.94 1.22683 1.59721 0
M  V30 15626 C 1496 2.36575 2.53443 0
M  V30 15627 C 1495.07 3.59138 2.35198 0
M  V30 15628 C 1494.3 3.93469 3.6058 0
M  V30 15629 O 1494.52 3.28625 4.6622 0
M  V30 15630 O 1493.46 4.86774 3.54027 0
M  V30 15631 H 1497.28 2.90774 0.876607 0
M  V30 15632 H 1494.87 1.44799 0.367897 0
M  V30 15633 H 1496.75 2.60687 3.31089 0
M  V30 15634 H 1495.42 1.49474 2.87122 0
M  V30 15635 H 1494.33 3.4023 1.55546 0
M  V30 15636 H 1495.66 4.46815 2.0644 0
M  V30 15637 N 1497.32 -0.429099 1.51646 0
M  V30 15638 C 1498.26 -1.52143 1.73554 0
M  V30 15639 C 1499.23 -1.55741 0.577416 0
M  V30 15640 O 1500.42 -1.72623 0.812768 0
M  V30 15641 C 1497.56 -2.89785 1.874 0
M  V30 15642 C 1496.67 -2.95652 3.14982 0
M  V30 15643 C 1495.81 -4.24468 3.19375 0
M  V30 15644 C 1494.84 -4.24234 4.41239 0
M  V30 15645 N 1493.98 -5.44587 4.43135 0
M  V30 15646 H 1498.82 -1.32764 2.66791 0
M  V30 15647 H 1496.36 -0.6448 1.32215 0
M  V30 15648 H 1498.32 -3.6966 1.9341 0
M  V30 15649 H 1496.95 -3.07703 0.975638 0
M  V30 15650 H 1496 -2.0839 3.18242 0
M  V30 15651 H 1497.31 -2.91342 4.04872 0
M  V30 15652 H 1496.46 -5.12722 3.24347 0
M  V30 15653 H 1495.2 -4.31446 2.27389 0
M  V30 15654 H 1494.21 -3.34371 4.36435 0
M  V30 15655 H 1495.43 -4.18913 5.34499 0
M  V30 15656 H 1493.38 -5.52271 3.54023 0
M  V30 15657 H 1493.3 -5.42191 5.26845 0
M  V30 15658 H 1494.56 -6.34851 4.5231 0
M  V30 15659 N 1498.79 -1.41931 -0.685074 0
M  V30 15660 C 1499.76 -1.44315 -1.78061 0
M  V30 15661 C 1500.76 -0.332215 -1.57331 0
M  V30 15662 O 1501.95 -0.59258 -1.63811 0
M  V30 15663 C 1499.08 -1.26479 -3.16569 0
M  V30 15664 H 1500.27 -2.4185 -1.77337 0
M  V30 15665 H 1497.82 -1.28228 -0.893721 0
M  V30 15666 H 1498.56 -0.298259 -3.22926 0
M  V30 15667 H 1498.34 -2.06981 -3.33018 0
M  V30 15668 H 1499.83 -1.31006 -3.96519 0
M  V30 15669 O 1500.31 0.827418 -1.38694 0
M  V30 15670 H 1501 1.47034 -1.26098 0
M  V30 END ATOM
M  V30 BEGIN BOND
M  V30 END BOND
M  V30 END CTAB
M  END
$$$$
