drugbank_target|P24298 Alanine aminotransferase 1 (DB00114; DB00142; DB00160; DB00780)
 OpenBabel12092119363D

  0  0  0     0  0            999 V3000
M  V30 BEGIN CTAB
M  V30 COUNTS 7705 7784 0 0 0
M  V30 BEGIN ATOM
M  V30 1 H -0.908 1.98254 -0.117106 0
M  V30 2 N 0 1.576 0 0
M  V30 3 C 0.933 2.03868 1.02534 0
M  V30 4 C 1.911 0.928543 1.3348 0
M  V30 5 O 3.095 1.19667 1.45644 0
M  V30 6 C 0.222 2.43627 2.35294 0
M  V30 7 C -0.732 3.65373 2.2001 0
M  V30 8 S 0.101 5.13292 1.52614 0
M  V30 9 C 1.257 5.56322 2.86805 0
M  V30 10 H 1.49 2.90518 0.631377 0
M  V30 11 H -0.977 1.52953 0.210867 0
M  V30 12 H 0.981 2.67203 3.11629 0
M  V30 13 H -0.358 1.57376 2.7183 0
M  V30 14 H -1.165 3.90944 3.18086 0
M  V30 15 H -1.563 3.418 1.51819 0
M  V30 16 H 0.729 5.58782 3.83104 0
M  V30 17 H 1.672 6.56266 2.65933 0
M  V30 18 H 2.08 4.83886 2.90714 0
M  V30 19 N 1.4781 -0.272755 1.55222 0
M  V30 20 C 2.4411 -1.32041 1.87344 0
M  V30 21 C 3.4411 -1.42342 0.74803 0
M  V30 22 O 4.6311 -1.41488 1.0162 0
M  V30 23 C 1.7631 -2.70173 2.07893 0
M  V30 24 H 2.9561 -1.04789 2.80997 0
M  V30 25 H 0.5091 -0.51083 1.47717 0
M  V30 26 H 1.2441 -3.02605 1.16622 0
M  V30 27 H 1.0291 -2.64082 2.89833 0
M  V30 28 H 2.5191 -3.45869 2.34017 0
M  V30 29 N 2.9562 -1.48159 -0.537278 0
M  V30 30 C 4.1812 -1.59707 -1.32319 0
M  V30 31 C 4.6062 -0.254859 -1.86365 0
M  V30 32 O 3.9642 0.772378 -1.64024 0
M  V30 33 C 4.0122 -2.6412 -2.45505 0
M  V30 34 O 3.1162 -2.20774 -3.48328 0
M  V30 35 H 2.4572 -0.535791 -0.392204 0
M  V30 36 H 4.9872 -1.94092 -0.647268 0
M  V30 37 H 4.9972 -2.85166 -2.91795 0
M  V30 38 H 3.6722 -3.61567 -2.05528 0
M  V30 39 H 2.2492 -2.09911 -3.08207 0
M  V30 40 N 4.4343 0.785586 -1.36625 0
M  V30 41 C 5.6593 1.57963 -1.34397 0
M  V30 42 C 6.0843 1.87964 0.071526 0
M  V30 43 O 5.4423 1.48182 1.0446 0
M  V30 44 C 5.4903 2.87511 -2.17646 0
M  V30 45 O 4.5943 3.81281 -1.57158 0
M  V30 46 H 3.9353 0.479014 -0.459828 0
M  V30 47 H 6.4653 0.973411 -1.79961 0
M  V30 48 H 6.4753 3.36745 -2.30362 0
M  V30 49 H 5.1503 2.65002 -3.20541 0
M  V30 50 H 3.7273 3.39885 -1.53403 0
M  V30 51 N 5.9124 1.20967 1.01018 0
M  V30 52 C 7.1404 1.04956 1.78303 0
M  V30 53 C 7.5554 -0.400915 1.84494 0
M  V30 54 O 6.9124 -1.27826 1.30257 0
M  V30 55 C 6.9634 1.63403 3.22462 0
M  V30 56 O 6.6844 3.02775 3.16637 0
M  V30 57 C 8.1854 1.52432 4.16268 0
M  V30 58 H 5.4054 0.368858 0.560522 0
M  V30 59 H 7.9494 1.60193 1.27116 0
M  V30 60 H 6.1044 1.1227 3.70775 0
M  V30 61 H 6.5184 3.30626 4.07169 0
M  V30 62 H 7.9924 1.98078 5.15237 0
M  V30 63 H 8.4694 0.477875 4.36592 0
M  V30 64 H 9.0754 2.02787 3.73841 0
M  V30 65 N 7.3905 -1.2043 1.01659 0
M  V30 66 C 8.6385 -1.89423 0.704522 0
M  V30 67 C 8.9595 -1.79231 -0.768197 0
M  V30 68 O 8.2295 -1.1947 -1.55254 0
M  V30 69 H 6.8095 -0.701178 0.257602 0
M  V30 70 H 9.4715 -1.4626 1.28818 0
M  V30 71 H 8.5675 -2.96052 0.987916 0
M  V30 72 N 8.8686 -0.792821 -1.36206 0
M  V30 73 C 10.1456 -0.290627 -1.93429 0
M  V30 74 C 10.5256 1.21773 -1.72437 0
M  V30 75 O 9.8736 2.0108 -1.08531 0
M  V30 76 C 10.0836 -0.686973 -3.42172 0
M  V30 77 C 11.4316 -0.668643 -4.19302 0
M  V30 78 O 12.4556 -0.627658 -3.50626 0
M  V30 79 O 11.3146 -0.714597 -5.41808 0
M  V30 80 H 8.4086 -0.0727927 -0.82379 0
M  V30 81 H 10.9546 -0.875593 -1.45367 0
M  V30 82 H 9.7266 -1.72711 -3.51122 0
M  V30 83 H 9.3496 -0.0760733 -3.97527 0
M  V30 84 N 10.3467 1.47872 -0.545128 0
M  V30 85 C 11.7627 1.5829 -0.204032 0
M  V30 86 C 11.9627 1.54529 1.29317 0
M  V30 87 O 11.0187 1.44232 2.07252 0
M  V30 88 C 12.3317 2.89304 -0.819987 0
M  V30 89 C 13.8797 3.02864 -0.790105 0
M  V30 90 C 14.3547 4.3656 -1.38491 0
M  V30 91 N 15.8457 4.43165 -1.34755 0
M  V30 92 C 16.5807 5.45153 -1.77753 0
M  V30 93 N 16.0767 6.54016 -2.2855 0
M  V30 94 N 17.8697 5.36125 -1.68897 0
M  V30 95 H 10.0207 1.4856 -1.51802 0
M  V30 96 H 12.2837 0.706305 -0.632327 0
M  V30 97 H 11.9897 2.97757 -1.87173 0
M  V30 98 H 11.8637 3.75957 -0.305915 0
M  V30 99 H 14.2507 2.94014 0.252913 0
M  V30 100 H 14.3317 2.17782 -1.34181 0
M  V30 101 H 13.9757 4.46164 -2.42693 0
M  V30 102 H 13.9057 5.20353 -0.808754 0
M  V30 103 H 16.3967 3.65083 -0.975855 0
M  V30 104 H 16.7097 7.27994 -2.59314 0
M  V30 105 H 15.0547 6.54938 -2.32553 0
M  V30 106 H 18.2457 4.49975 -1.28998 0
M  V30 107 H 18.4187 6.15472 -2.02726 0
M  V30 108 N 11.8248 0.280983 1.55075 0
M  V30 109 C 13.0498 -0.340154 2.04592 0
M  V30 110 C 13.4748 -1.48246 1.15779 0
M  V30 111 O 12.8328 -1.80614 0.15761 0
M  V30 112 C 12.8808 -0.793104 3.5177 0
M  V30 113 O 11.9848 -1.89981 3.66034 0
M  V30 114 H 11.3258 -0.0694289 0.66036 0
M  V30 115 H 13.8558 0.416993 2.00306 0
M  V30 116 H 13.8658 -1.08729 3.93245 0
M  V30 117 H 12.5408 0.0426163 4.15878 0
M  V30 118 H 11.1178 -1.60771 3.36463 0
M  V30 119 N 13.3029 -1.57598 0.00835791 0
M  V30 120 C 14.2349 -2.05811 -1.00868 0
M  V30 121 C 15.2479 -0.977579 -1.30182 0
M  V30 122 O 16.4369 -1.25421 -1.27011 0
M  V30 123 C 13.5369 -2.45016 -2.34137 0
M  V30 124 C 12.7099 -3.75903 -2.23643 0
M  V30 125 C 11.7689 -4.01884 -3.3967 0
M  V30 126 O 10.7949 -4.72433 -3.17483 0
M  V30 127 N 11.9969 -3.50432 -4.62793 0
M  V30 128 H 14.7619 -2.93684 -0.597458 0
M  V30 129 H 12.3229 -1.60909 -0.178852 0
M  V30 130 H 14.3149 -2.59506 -3.10546 0
M  V30 131 H 12.8849 -1.62618 -2.66972 0
M  V30 132 H 12.1049 -3.7141 -1.32091 0
M  V30 133 H 13.3929 -4.61695 -2.13812 0
M  V30 134 H 12.7909 -2.93317 -4.83716 0
M  V30 135 H 11.3479 -3.70236 -5.3644 0
M  V30 136 N 14.781 0.264519 -1.55364 0
M  V30 137 C 15.744 1.31046 -1.88042 0
M  V30 138 C 16.744 1.41943 -0.755569 0
M  V30 139 O 17.934 1.40947 -1.02369 0
M  V30 140 C 15.066 2.69067 -2.09323 0
M  V30 141 H 16.259 1.03297 -2.81549 0
M  V30 142 H 13.812 0.502989 -1.47986 0
M  V30 143 H 14.547 3.01982 -1.18226 0
M  V30 144 H 14.332 2.62542 -2.91229 0
M  V30 145 H 15.822 3.44623 -2.35848 0
M  V30 146 N 16.2591 1.48442 0.529413 0
M  V30 147 C 17.5051 1.5672 1.28711 0
M  V30 148 C 17.8381 0.2406 1.92704 0
M  V30 149 O 17.1131 -0.753454 1.79313 0
M  V30 150 C 17.3961 2.70587 2.37603 0
M  V30 151 C 17.2491 4.12953 1.78297 0
M  V30 152 C 18.5681 2.80212 3.39366 0
M  V30 153 H 15.6871 0.570474 0.466613 0
M  V30 154 H 18.3291 1.80617 0.589706 0
M  V30 155 H 16.4791 2.50342 2.97088 0
M  V30 156 H 18.1511 4.44639 1.22858 0
M  V30 157 H 16.3941 4.19927 1.0883 0
M  V30 158 H 17.0651 4.88448 2.57144 0
M  V30 159 H 19.5411 2.98553 2.89836 0
M  V30 160 H 18.4171 3.61611 4.12951 0
M  V30 161 H 18.6781 1.88393 3.99951 0
M  V30 162 N 17.7372 -0.778329 1.37039 0
M  V30 163 C 19.1532 -1.07796 1.17695 0
M  V30 164 C 19.3532 -2.01498 0.00860115 0
M  V30 165 O 18.4092 -2.43901 -0.653352 0
M  V30 166 C 19.7222 -1.68178 2.49272 0
M  V30 167 C 21.2702 -1.80467 2.55735 0
M  V30 168 C 21.7452 -2.44263 3.87427 0
M  V30 169 N 23.2362 -2.51721 3.88833 0
M  V30 170 C 23.9712 -3.01919 4.87476 0
M  V30 171 N 23.4672 -3.5234 5.96513 0
M  V30 172 N 25.2602 -3.00733 4.74885 0
M  V30 173 H 17.4112 -0.156032 2.11826 0
M  V30 174 H 19.6742 -0.131844 0.938787 0
M  V30 175 H 19.3802 -1.06796 3.35093 0
M  V30 176 H 19.2542 -2.67554 2.65885 0
M  V30 177 H 21.6412 -2.40984 1.70325 0
M  V30 178 H 21.7222 -0.798656 2.43013 0
M  V30 179 H 21.3662 -1.84388 4.73248 0
M  V30 180 H 21.2962 -3.45458 3.9745 0
M  V30 181 H 23.7872 -2.1603 3.10063 0
M  V30 182 H 24.1002 -3.89027 6.67741 0
M  V30 183 H 22.4452 -3.50462 6.00168 0
M  V30 184 H 25.6362 -2.60638 3.88826 0
M  V30 185 H 25.8092 -3.39545 5.51918 0
M  V30 186 N 19.2153 -1.21501 -1.00376 0
M  V30 187 C 20.1653 -0.942843 -2.07592 0
M  V30 188 C 21.1493 0.102384 -1.60574 0
M  V30 189 O 22.3413 -0.10671 -1.76678 0
M  V30 190 C 19.4703 -0.510729 -3.3948 0
M  V30 191 C 18.5563 -1.59009 -3.93163 0
M  V30 192 N 18.9473 -2.81544 -4.20198 0
M  V30 193 C 17.2453 -1.45925 -4.21452 0
M  V30 194 C 17.9463 -3.51261 -4.63671 0
M  V30 195 N 16.9223 -2.78703 -4.66718 0
M  V30 196 H 20.7243 -1.87378 -2.26421 0
M  V30 197 H 18.2383 -1.11093 -1.18458 0
M  V30 198 H 20.2353 -0.297101 -4.1584 0
M  V30 199 H 18.8953 0.413436 -3.22057 0
M  V30 200 H 19.9063 -3.18075 -4.08716 0
M  V30 201 H 16.5833 -0.600467 -4.13159 0
M  V30 202 H 17.9733 -4.56183 -4.93302 0
M  V30 203 N 20.6934 1.19889 -1.02296 0
M  V30 204 C 21.9414 1.89046 -0.714558 0
M  V30 205 C 22.2624 1.79636 0.758681 0
M  V30 206 O 21.5324 1.20292 1.54618 0
M  V30 207 H 20.1124 0.699802 -0.261317 0
M  V30 208 H 22.7744 1.45574 -1.29592 0
M  V30 209 H 21.8704 2.95524 -1.0036 0
M  V30 210 N 22.1715 0.800033 1.35784 0
M  V30 211 C 23.1015 0.220184 2.3246 0
M  V30 212 C 24.0825 -0.65073 1.57161 0
M  V30 213 O 25.2675 -0.582359 1.85263 0
M  V30 214 C 22.3975 -0.637353 3.41402 0
M  V30 215 C 21.3515 0.134531 4.27789 0
M  V30 216 C 20.6775 -0.844285 5.27992 0
M  V30 217 C 21.9775 1.32979 5.05088 0
M  V30 218 H 23.6715 1.02787 2.81203 0
M  V30 219 H 21.2175 0.495717 1.35199 0
M  V30 220 H 23.1705 -1.05302 4.08031 0
M  V30 221 H 21.8945 -1.47785 2.91251 0
M  V30 222 H 20.5535 0.531296 3.6273 0
M  V30 223 H 20.2015 -1.68011 4.74111 0
M  V30 224 H 19.9015 -0.332184 5.8666 0
M  V30 225 H 21.4255 -1.2583 5.97494 0
M  V30 226 H 22.8395 0.98934 5.64699 0
M  V30 227 H 21.2365 1.77593 5.7322 0
M  V30 228 H 22.3065 2.11978 4.36111 0
M  V30 229 N 23.6496 -1.47581 0.552962 0
M  V30 230 C 25.0656 -1.5818 0.212424 0
M  V30 231 C 25.2656 -1.55213 -1.28496 0
M  V30 232 O 24.3216 -1.45329 -2.06484 0
M  V30 233 C 25.6346 -2.88865 0.835318 0
M  V30 234 C 27.1826 -3.0244 0.806156 0
M  V30 235 C 27.6576 -4.35819 1.40804 0
M  V30 236 N 29.1486 -4.42444 1.37103 0
M  V30 237 C 29.8836 -5.44202 1.80641 0
M  V30 238 N 29.3796 -6.52795 2.32015 0
M  V30 239 N 31.1726 -5.35222 1.71738 0
M  V30 240 H 23.3236 -1.47753 1.52587 0
M  V30 241 H 25.5866 -0.702941 0.636064 0
M  V30 242 H 25.2926 -2.9676 1.88749 0
M  V30 243 H 25.1666 -3.7579 0.325848 0
M  V30 244 H 27.5536 -2.94144 -0.237317 0
M  V30 245 H 27.6346 -2.17068 1.35334 0
M  V30 246 H 27.2786 -4.44871 2.45056 0
M  V30 247 H 27.2086 -5.19916 0.836338 0
M  V30 248 H 29.6996 -3.6456 0.995202 0
M  V30 249 H 30.0126 -7.26609 2.63171 0
M  V30 250 H 28.3576 -6.53696 2.36023 0
M  V30 251 H 31.5486 -4.49284 1.31382 0
M  V30 252 H 31.7216 -6.14389 2.05987 0
M  V30 253 N 25.1277 -0.289203 -1.54924 0
M  V30 254 C 26.0907 0.579144 -2.21762 0
M  V30 255 C 27.0907 1.07047 -1.1999 0
M  V30 256 O 28.2807 0.968384 -1.44803 0
M  V30 257 C 25.4127 1.80055 -2.8947 0
M  V30 258 H 26.6057 -0.00464908 -2.999 0
M  V30 259 H 24.1587 -0.0399306 -1.56249 0
M  V30 260 H 24.8937 2.42449 -2.15381 0
M  V30 261 H 24.6787 1.45602 -3.64064 0
M  V30 262 H 26.1687 2.41773 -3.40493 0
M  V30 263 N 26.6058 1.57591 -0.0167156 0
M  V30 264 C 27.5528 2.09462 0.969251 0
M  V30 265 C 28.5228 0.99381 1.33089 0
M  V30 266 O 29.7078 1.26726 1.42636 0
M  V30 267 C 26.8478 2.61622 2.25051 0
M  V30 268 C 25.9608 3.85666 1.94642 0
M  V30 269 C 25.0958 4.26266 3.16972 0
M  V30 270 C 24.1348 5.43101 2.82326 0
M  V30 271 N 23.2718 5.78915 3.97243 0
M  V30 272 H 28.1118 2.93428 0.519997 0
M  V30 273 H 25.6488 1.45044 0.245087 0
M  V30 274 H 27.6068 2.89949 2.99976 0
M  V30 275 H 26.2368 1.80505 2.67615 0
M  V30 276 H 25.2888 3.64145 1.10013 0
M  V30 277 H 26.6008 4.70678 1.65117 0
M  V30 278 H 25.7548 4.55963 4.00228 0
M  V30 279 H 24.4938 3.39996 3.49648 0
M  V30 280 H 23.4988 5.1311 1.97479 0
M  V30 281 H 24.7238 6.3106 2.50879 0
M  V30 282 H 22.6698 4.95602 4.29785 0
M  V30 283 H 22.5868 6.58539 3.71299 0
M  V30 284 H 23.8548 6.13212 4.81239 0
M  V30 285 N 28.0839 -0.256276 1.55502 0
M  V30 286 C 29.3299 -0.987079 1.77157 0
M  V30 287 C 29.6629 -1.85327 0.580315 0
M  V30 288 O 28.9379 -1.89874 -0.421686 0
M  V30 289 C 29.2209 -1.85553 3.08613 0
M  V30 290 C 29.0739 -1.01816 4.38125 0
M  V30 291 C 30.3929 -2.8397 3.36228 0
M  V30 292 H 27.5119 -0.357428 0.644526 0
M  V30 293 H 30.1539 -0.258239 1.88237 0
M  V30 294 H 28.3039 -2.47695 2.99298 0
M  V30 295 H 29.9759 -0.416159 4.59419 0
M  V30 296 H 28.2189 -0.322178 4.32602 0
M  V30 297 H 28.8899 -1.65939 5.26468 0
M  V30 298 H 31.3659 -2.31964 3.45445 0
M  V30 299 H 30.2419 -3.41864 4.29442 0
M  V30 300 H 30.5029 -3.59955 2.56681 0
M  V30 301 N 29.562 -1.4872 -0.521534 0
M  V30 302 C 30.492 -1.66771 -1.63431 0
M  V30 303 C 31.473 -0.516499 -1.62069 0
M  V30 304 O 32.658 -0.750013 -1.79132 0
M  V30 305 C 29.788 -1.71515 -3.01993 0
M  V30 306 C 28.742 -2.86222 -3.18216 0
M  V30 307 C 28.068 -2.76061 -4.57924 0
M  V30 308 C 29.368 -4.27419 -3.00184 0
M  V30 309 H 31.062 -2.59932 -1.48579 0
M  V30 310 H 28.608 -1.25089 -0.713358 0
M  V30 311 H 30.561 -1.82731 -3.7972 0
M  V30 312 H 29.285 -0.749393 -3.17886 0
M  V30 313 H 27.944 -2.74575 -2.42908 0
M  V30 314 H 27.592 -1.77437 -4.70665 0
M  V30 315 H 27.292 -3.53037 -4.69722 0
M  V30 316 H 28.816 -2.89256 -5.37739 0
M  V30 317 H 30.23 -4.39855 -3.67697 0
M  V30 318 H 28.627 -5.05458 -3.2347 0
M  V30 319 H 29.697 -4.43293 -1.96518 0
M  V30 320 N 31.0401 0.771051 -1.3745 0
M  V30 321 C 32.2681 1.56015 -1.35893 0
M  V30 322 C 32.6831 1.88718 0.0555523 0
M  V30 323 O 32.0401 1.51502 1.01752 0
M  V30 324 C 32.0911 2.87001 -2.19801 0
M  V30 325 O 31.8121 2.557 -3.55738 0
M  V30 326 C 33.3131 3.81228 -2.26231 0
M  V30 327 H 30.5331 0.483317 -0.465453 0
M  V30 328 H 33.0771 0.955611 -1.80799 0
M  V30 329 H 31.2321 3.43877 -1.78402 0
M  V30 330 H 31.6461 3.39584 -3.99729 0
M  V30 331 H 33.1201 4.70139 -2.89263 0
M  V30 332 H 33.5971 4.20409 -1.27093 0
M  V30 333 H 34.2031 3.30281 -2.67945 0
M  V30 334 N 32.5182 1.22032 0.997298 0
M  V30 335 C 33.4482 1.01065 2.10495 0
M  V30 336 C 34.4292 -0.0669542 1.69968 0
M  V30 337 O 35.6142 0.0943987 1.9397 0
M  V30 338 C 32.7442 0.582874 3.42374 0
M  V30 339 C 31.6982 1.60592 3.96729 0
M  V30 340 C 31.0242 1.03412 5.24605 0
M  V30 341 C 32.3242 2.99478 4.27914 0
M  V30 342 H 34.0182 1.93708 2.28292 0
M  V30 343 H 31.5642 0.932761 1.09707 0
M  V30 344 H 33.5172 0.423332 4.19268 0
M  V30 345 H 32.2412 -0.379213 3.24391 0
M  V30 346 H 30.9002 1.75316 3.21963 0
M  V30 347 H 30.5482 0.063518 5.0296 0
M  V30 348 H 30.2482 1.71754 5.61938 0
M  V30 349 H 31.7722 0.886066 6.04137 0
M  V30 350 H 33.1862 2.88153 4.95622 0
M  V30 351 H 31.5832 3.64903 4.76409 0
M  V30 352 H 32.6532 3.49742 3.3587 0
M  V30 353 N 33.9963 -1.19345 1.0293 0
M  V30 354 C 35.2733 -1.84811 0.640642 0
M  V30 355 C 35.6533 -1.91855 -0.88062 0
M  V30 356 O 35.0013 -1.43587 -1.7775 0
M  V30 357 C 35.2113 -3.23755 1.30321 0
M  V30 358 C 36.5593 -3.99912 1.42673 0
M  V30 359 O 37.5833 -3.33155 1.26041 0
M  V30 360 O 36.4423 -5.19494 1.6967 0
M  V30 361 H 33.5363 -0.796443 0.222726 0
M  V30 362 H 36.0823 -1.26831 1.12748 0
M  V30 363 H 34.8543 -3.13466 2.34211 0
M  V30 364 H 34.4773 -3.89381 0.804261 0
M  V30 365 N 35.4744 -0.807222 -1.35358 0
M  V30 366 C 36.7224 -0.387122 -1.98358 0
M  V30 367 C 37.0434 1.04942 -1.64354 0
M  V30 368 O 36.3134 1.72615 -0.926339 0
M  V30 369 H 34.8934 -0.140154 -0.733734 0
M  V30 370 H 37.5554 -1.0332 -1.6526 0
M  V30 371 H 36.6514 -0.493352 -3.08176 0
M  V30 372 N 36.9525 1.47285 -0.560781 0
M  V30 373 C 37.8855 2.27009 0.232821 0
M  V30 374 C 38.8635 1.34273 0.917039 0
M  V30 375 O 40.0475 1.63659 0.935315 0
M  V30 376 C 37.1745 3.11406 1.33206 0
M  V30 377 C 36.2205 4.19746 0.756019 0
M  V30 378 S 37.0535 5.34003 -0.400165 0
M  V30 379 C 38.2095 6.21964 0.700805 0
M  V30 380 H 38.4425 2.93971 -0.443683 0
M  V30 381 H 35.9755 1.50446 -0.347181 0
M  V30 382 H 37.9335 3.60601 1.96156 0
M  V30 383 H 36.5945 2.438 1.98041 0
M  V30 384 H 35.7875 4.78541 1.5816 0
M  V30 385 H 35.3895 3.73451 0.202619 0
M  V30 386 H 37.6815 6.58529 1.59202 0
M  V30 387 H 38.6245 7.07941 0.150126 0
M  V30 388 H 39.0325 5.5566 0.995083 0
M  V30 389 N 38.4306 0.297415 1.54768 0
M  V30 390 C 39.3786 -0.596051 2.24833 0
M  V30 391 C 40.3726 -1.13992 1.25308 0
M  V30 392 O 41.5786 -1.09098 1.4317 0
M  V30 393 H 37.9536 -0.210814 0.721846 0
M  V30 394 H 39.9246 0.0174667 2.98395 0
M  V30 395 C 38.6736 -1.75818 2.99972 0
M  V30 396 H 37.9966 -1.3489 3.76357 0
M  V30 397 H 39.4366 -2.35949 3.52284 0
M  V30 398 C 37.8956 -2.66014 2.06732 0
M  V30 399 O 38.4256 -3.67009 1.63302 0
M  V30 400 N 36.6316 -2.33669 1.72763 0
M  V30 401 H 36.1786 -1.51586 2.08277 0
M  V30 402 H 36.1366 -2.94285 1.10652 0
M  V30 403 N 39.9087 -1.5758 0.0250728 0
M  V30 404 C 41.3197 -1.79476 -0.514323 0
M  V30 405 C 41.6707 -0.934956 -1.72491 0
M  V30 406 O 40.7957 -0.144245 -2.15919 0
M  V30 407 C 41.3907 -3.25503 -0.939842 0
M  V30 408 C 39.9497 -3.48408 -1.42438 0
M  V30 409 C 39.0967 -2.74583 -0.387201 0
M  V30 410 H 42.0477 -1.567 0.25113 0
M  V30 411 H 42.0687 -3.34992 -1.80445 0
M  V30 412 H 41.5807 -3.88056 -0.0585628 0
M  V30 413 H 39.6817 -2.91103 -2.32572 0
M  V30 414 H 39.7947 -4.57119 -1.43455 0
M  V30 415 H 38.1587 -2.39942 -0.854409 0
M  V30 416 H 38.9417 -3.39849 0.485543 0
M  V30 417 N 41.3868 0.248026 -1.55636 0
M  V30 418 C 42.8028 0.596483 -1.48035 0
M  V30 419 C 43.0028 1.88386 -0.715039 0
M  V30 420 O 42.0588 2.51319 -0.243944 0
M  V30 421 C 43.3718 0.700258 -2.92433 0
M  V30 422 C 44.9198 0.792659 -3.02797 0
M  V30 423 C 45.3948 0.928005 -4.485 0
M  V30 424 N 46.8858 0.992903 -4.52433 0
M  V30 425 C 47.6208 1.11687 -5.62418 0
M  V30 426 N 47.1168 1.20645 -6.82214 0
M  V30 427 N 48.9098 1.14994 -5.50212 0
M  V30 428 H 41.0608 -0.597109 -2.03834 0
M  V30 429 H 43.3238 -0.205925 -0.925364 0
M  V30 430 H 43.0298 -0.175658 -3.51261 0
M  V30 431 H 42.9038 1.57255 -3.42857 0
M  V30 432 H 45.2908 1.65903 -2.4405 0
M  V30 433 H 45.3718 -0.104762 -2.55585 0
M  V30 434 H 45.0158 0.0661971 -5.07857 0
M  V30 435 H 44.9458 1.84045 -4.93391 0
M  V30 436 H 47.4368 0.935064 -3.66149 0
M  V30 437 H 47.7498 1.30008 -7.61786 0
M  V30 438 H 46.0948 1.17605 -6.84977 0
M  V30 439 H 49.2858 1.07643 -4.55555 0
M  V30 440 H 49.4588 1.24311 -6.35965 0
M  V30 441 N 42.8649 1.48995 0.513639 0
M  V30 442 C 44.1109 1.58076 1.27042 0
M  V30 443 C 44.4439 0.261026 1.92438 0
M  V30 444 O 43.7189 -0.734393 1.80103 0
M  V30 445 C 44.0019 2.73091 2.34719 0
M  V30 446 C 43.8549 4.14821 1.73907 0
M  V30 447 C 45.1739 2.83796 3.36375 0
M  V30 448 H 42.2929 0.575391 0.460536 0
M  V30 449 H 44.9349 1.81232 0.570516 0
M  V30 450 H 43.0849 2.53479 2.94416 0
M  V30 451 H 44.7569 4.45917 1.18135 0
M  V30 452 H 42.9999 4.21058 1.0437 0
M  V30 453 H 43.6709 4.91147 2.51949 0
M  V30 454 H 46.1469 3.01611 2.86653 0
M  V30 455 H 45.0229 3.65971 4.09093 0
M  V30 456 H 45.2839 1.92624 3.9793 0
M  V30 457 N 44.343 -0.763751 1.37857 0
M  V30 458 C 45.759 -1.06542 1.18832 0
M  V30 459 C 45.959 -2.01478 0.0299722 0
M  V30 460 O 45.015 -2.4458 -0.627447 0
M  V30 461 C 46.328 -1.65525 2.51042 0
M  V30 462 C 47.876 -1.77745 2.57635 0
M  V30 463 C 48.351 -2.4014 3.89996 0
M  V30 464 N 49.842 -2.47582 3.91481 0
M  V30 465 C 50.577 -2.96732 4.9065 0
M  V30 466 N 50.073 -3.45993 6.00217 0
M  V30 467 N 51.866 -2.95679 4.78048 0
M  V30 468 H 44.017 -0.133556 2.1198 0
M  V30 469 H 46.28 -0.121879 0.940133 0
M  V30 470 H 45.986 -1.03236 3.36207 0
M  V30 471 H 45.86 -2.64719 2.68707 0
M  V30 472 H 48.247 -2.39164 1.72872 0
M  V30 473 H 48.328 -0.772836 2.43846 0
M  V30 474 H 47.972 -1.79358 4.75177 0
M  V30 475 H 47.902 -3.41223 4.01092 0
M  V30 476 H 50.393 -2.1273 3.12337 0
M  V30 477 H 50.706 -3.81922 6.7183 0
M  V30 478 H 49.051 -3.44077 6.03851 0
M  V30 479 H 52.242 -2.56499 3.91568 0
M  V30 480 H 52.415 -3.33672 5.55488 0
M  V30 481 N 45.8211 -1.22559 -0.990812 0
M  V30 482 C 47.2371 -0.985996 -1.255 0
M  V30 483 C 47.4371 0.319173 -1.98956 0
M  V30 484 O 46.4931 1.04127 -2.3003 0
M  V30 485 C 47.8061 -2.18607 -2.06474 0
M  V30 486 C 49.3541 -2.22985 -2.19651 0
M  V30 487 C 49.8291 -3.4255 -3.04012 0
M  V30 488 N 51.3201 -3.42725 -3.11599 0
M  V30 489 C 52.0551 -4.31892 -3.7717 0
M  V30 490 N 51.5511 -5.31279 -4.44651 0
M  V30 491 N 53.3441 -4.19662 -3.73952 0
M  V30 492 H 45.4951 -2.06469 -0.49841 0
M  V30 493 H 47.7581 -0.904853 -0.282747 0
M  V30 494 H 47.4641 -3.13267 -1.59865 0
M  V30 495 H 47.3381 -2.18838 -3.07229 0
M  V30 496 H 49.7251 -1.28871 -2.65474 0
M  V30 497 H 49.8061 -2.26791 -1.18319 0
M  V30 498 H 49.4501 -4.36965 -2.58889 0
M  V30 499 H 49.3801 -3.35984 -4.0549 0
M  V30 500 H 51.8711 -2.70807 -2.63575 0
M  V30 501 H 52.1841 -5.95593 -4.92431 0
M  V30 502 H 50.5291 -5.3519 -4.43392 0
M  V30 503 H 53.7201 -3.41268 -3.20396 0
M  V30 504 H 53.8931 -4.89358 -4.24774 0
M  V30 505 N 47.2992 1.18797 -1.03562 0
M  V30 506 C 48.5452 1.8893 -0.737113 0
M  V30 507 C 48.8782 1.79837 0.732956 0
M  V30 508 O 48.1532 1.19525 1.5344 0
M  V30 509 C 48.4362 3.39607 -1.19745 0
M  V30 510 C 48.2892 3.57537 -2.72924 0
M  V30 511 C 49.6082 4.33069 -0.783526 0
M  V30 512 H 46.7272 0.686057 -0.269249 0
M  V30 513 H 49.3692 1.39797 -1.28673 0
M  V30 514 H 47.5192 3.81583 -0.729855 0
M  V30 515 H 49.1912 3.24688 -3.27682 0
M  V30 516 H 47.4342 3.00363 -3.12993 0
M  V30 517 H 48.1052 4.63238 -3.00191 0
M  V30 518 H 50.5812 3.98846 -1.18581 0
M  V30 519 H 49.4572 5.3707 -1.13343 0
M  V30 520 H 49.7182 4.40986 0.313681 0
M  V30 521 N 48.7773 0.814389 1.34928 0
M  V30 522 C 49.6873 0.231978 2.3345 0
M  V30 523 C 50.7033 -0.629139 1.62228 0
M  V30 524 O 51.8793 -0.539052 1.94052 0
M  V30 525 C 48.9443 -0.603482 3.41407 0
M  V30 526 C 48.0053 0.279037 4.28392 0
M  V30 527 C 47.2383 -0.516643 5.31193 0
M  V30 528 O 47.4613 -1.75068 5.4287 0
M  V30 529 O 46.3953 0.0965652 6.01823 0
M  V30 530 H 50.2213 1.04721 2.85074 0
M  V30 531 H 47.8063 0.576343 1.37836 0
M  V30 532 H 49.6883 -1.07908 4.0735 0
M  V30 533 H 48.3633 -1.39618 2.92042 0
M  V30 534 H 47.2703 0.801948 3.65403 0
M  V30 535 H 48.6033 1.03588 4.81176 0
M  V30 536 N 50.2554 -1.46986 0.568584 0
M  V30 537 C 51.4854 -2.0653 0.0539173 0
M  V30 538 C 51.8934 -1.42004 -1.25026 0
M  V30 539 O 51.2364 -0.514541 -1.76347 0
M  V30 540 C 51.2984 -3.58938 -0.200854 0
M  V30 541 C 50.9624 -4.45572 1.01559 0
M  V30 542 C 51.9594 -4.82986 1.92407 0
M  V30 543 C 49.6444 -4.8692 1.23346 0
M  V30 544 C 51.6384 -5.60559 3.03402 0
M  V30 545 C 49.3254 -5.64255 2.34649 0
M  V30 546 C 50.3234 -6.00986 3.24507 0
M  V30 547 O 50.0114 -6.76761 4.33878 0
M  V30 548 H 49.7434 -0.674292 0.0480234 0
M  V30 549 H 52.2974 -1.89812 0.784896 0
M  V30 550 H 50.5274 -3.73911 -0.986279 0
M  V30 551 H 52.2164 -4.0046 -0.662294 0
M  V30 552 H 52.9824 -4.51633 1.76785 0
M  V30 553 H 48.8614 -4.57789 0.543178 0
M  V30 554 H 52.4054 -5.89147 3.73565 0
M  V30 555 H 48.3024 -5.95021 2.5024 0
M  V30 556 H 49.0704 -6.95168 4.32068 0
M  V30 557 N 51.7335 -0.305618 -1.54608 0
M  V30 558 C 52.6965 0.555591 -2.22364 0
M  V30 559 C 53.6965 1.05768 -1.21119 0
M  V30 560 O 54.8865 0.952972 -1.45822 0
M  V30 561 C 52.0185 1.76974 -2.91364 0
M  V30 562 H 53.2115 -0.0364572 -2.99878 0
M  V30 563 H 50.7645 -0.0565007 -1.56198 0
M  V30 564 H 51.4995 2.40151 -2.17941 0
M  V30 565 H 51.2845 1.41732 -3.65588 0
M  V30 566 H 52.7745 2.38148 -3.43038 0
M  V30 567 N 53.2116 1.57565 -0.0334293 0
M  V30 568 C 54.4576 1.92262 0.645226 0
M  V30 569 C 54.7906 0.910543 1.71531 0
M  V30 570 O 54.0656 -0.066099 1.94388 0
M  V30 571 C 54.3486 3.37422 1.2577 0
M  V30 572 C 54.2016 4.49369 0.196891 0
M  V30 573 C 55.5206 3.82628 2.17449 0
M  V30 574 H 52.6396 0.699171 0.233085 0
M  V30 575 H 55.2816 1.89779 -0.0915694 0
M  V30 576 H 53.4316 3.39669 1.88566 0
M  V30 577 H 55.1036 4.59254 -0.433962 0
M  V30 578 H 53.3466 4.31168 -0.477137 0
M  V30 579 H 54.0176 5.47978 0.665124 0
M  V30 580 H 56.4936 3.82145 1.64634 0
M  V30 581 H 55.3696 4.84883 2.57254 0
M  V30 582 H 55.6306 3.18376 3.0674 0
M  V30 583 N 54.6897 -0.239769 1.55765 0
M  V30 584 C 56.1057 -0.588624 1.48349 0
M  V30 585 C 56.3057 -1.88005 0.72502 0
M  V30 586 O 55.3617 -2.51186 0.257269 0
M  V30 587 C 56.6747 -0.68474 2.928 0
M  V30 588 C 58.2227 -0.77659 3.03213 0
M  V30 589 C 58.6977 -0.904207 4.48986 0
M  V30 590 N 60.1887 -0.968896 4.52953 0
M  V30 591 C 60.9237 -1.08703 5.63002 0
M  V30 592 N 60.4197 -1.17026 6.82845 0
M  V30 593 N 62.2127 -1.12074 5.50814 0
M  V30 594 H 54.3637 0.607911 2.03515 0
M  V30 595 H 56.6267 0.21083 0.924259 0
M  V30 596 H 56.3327 0.194284 3.51163 0
M  V30 597 H 56.2067 -1.55435 3.43686 0
M  V30 598 H 58.5937 -1.64606 2.44926 0
M  V30 599 H 58.6747 0.118315 2.55526 0
M  V30 600 H 58.3187 -0.0392633 5.07885 0
M  V30 601 H 58.2487 -1.81426 4.9436 0
M  V30 602 H 60.7397 -0.915633 3.6664 0
M  V30 603 H 61.0527 -1.25966 7.62465 0
M  V30 604 H 59.3977 -1.13971 6.85591 0
M  V30 605 H 62.5887 -1.05226 4.5612 0
M  V30 606 H 62.7617 -1.20936 6.36615 0
M  V30 607 N 56.1678 -1.49265 -0.50573 0
M  V30 608 C 57.4158 -1.582 -1.25766 0
M  V30 609 C 57.7368 -0.268482 -1.93143 0
M  V30 610 O 57.0068 0.711833 -1.8251 0
M  V30 611 H 55.5868 -0.582873 -0.467191 0
M  V30 612 H 58.2488 -1.85865 -0.586525 0
M  V30 613 H 57.3448 -2.37563 -2.02412 0
M  V30 614 N 57.6459 0.756429 -1.3826 0
M  V30 615 C 59.0569 1.33359 -1.30661 0
M  V30 616 C 59.4079 1.96161 0.0388875 0
M  V30 617 O 58.5329 1.94874 0.940918 0
M  V30 618 C 59.1279 2.42477 -2.36622 0
M  V30 619 C 57.6869 2.95922 -2.3261 0
M  V30 620 C 56.8339 1.69275 -2.19639 0
M  V30 621 H 59.7849 0.55552 -1.4866 0
M  V30 622 H 59.8059 3.22345 -2.02174 0
M  V30 623 H 59.3179 1.96739 -3.34538 0
M  V30 624 H 57.4189 3.45996 -1.38267 0
M  V30 625 H 57.5319 3.50494 -3.26636 0
M  V30 626 H 55.8959 1.92793 -1.66442 0
M  V30 627 H 56.6789 1.25619 -3.19491 0
M  V30 628 N 59.124 1.23083 0.984299 0
M  V30 629 C 60.373 1.05466 1.71929 0
M  V30 630 C 60.686 -0.409211 1.91272 0
M  V30 631 O 61.892 -0.705226 2.62181 0
M  V30 632 C 60.348 1.83874 3.09384 0
M  V30 633 C 59.956 3.34566 2.97943 0
M  V30 634 C 61.7 1.74734 3.8687 0
M  V30 635 C 59.607 4.05381 4.30605 0
M  V30 636 H 58.537 0.391039 0.644674 0
M  V30 637 H 61.188 1.47013 1.09815 0
M  V30 638 H 59.57 1.35131 3.72231 0
M  V30 639 H 60.744 3.90767 2.44209 0
M  V30 640 H 59.059 3.44476 2.33934 0
M  V30 641 H 61.656 2.24957 4.85076 0
M  V30 642 H 61.999 0.709372 4.10212 0
M  V30 643 H 62.532 2.21067 3.30717 0
M  V30 644 H 59.271 5.09467 4.1246 0
M  V30 645 H 58.791 3.53967 4.84218 0
M  V30 646 H 60.47 4.11458 4.99311 0
M  V30 647 N 60.6021 -1.18246 1.0419 0
M  V30 648 C 61.8481 -1.88536 0.747122 0
M  V30 649 C 62.1811 -1.80223 -0.723409 0
M  V30 650 O 61.4561 -1.20337 -1.52804 0
M  V30 651 C 61.7391 -3.38968 1.21544 0
M  V30 652 C 61.5921 -3.56084 2.74816 0
M  V30 653 C 62.9111 -4.32648 0.806482 0
M  V30 654 H 60.0301 -0.684619 0.272883 0
M  V30 655 H 62.6721 -1.39113 1.29413 0
M  V30 656 H 60.8221 -3.8119 0.750081 0
M  V30 657 H 62.4941 -3.22946 3.29399 0
M  V30 658 H 60.7371 -2.98699 3.14582 0
M  V30 659 H 61.4081 -4.61639 3.02644 0
M  V30 660 H 63.8841 -3.98211 1.20695 0
M  V30 661 H 62.7601 -5.36462 1.1619 0
M  V30 662 H 63.0211 -4.41146 -0.29029 0
M  V30 663 N 62.0802 -0.821533 -1.34494 0
M  V30 664 C 63.0122 -0.199946 -2.28326 0
M  V30 665 C 64.0252 0.609377 -1.50965 0
M  V30 666 O 65.2142 0.439285 -1.7301 0
M  V30 667 C 62.3142 0.738431 -3.30757 0
M  V30 668 C 61.4872 -0.0277632 -4.37391 0
M  V30 669 C 60.5462 0.831332 -5.19591 0
M  V30 670 O 59.5722 0.276822 -5.68526 0
M  V30 671 N 60.7742 2.15132 -5.39165 0
M  V30 672 H 63.5392 -1.00609 -2.82308 0
M  V30 673 H 61.1002 -0.678366 -1.47003 0
M  V30 674 H 63.0922 1.31773 -3.82646 0
M  V30 675 H 61.6622 1.44533 -2.7718 0
M  V30 676 H 60.8822 -0.788359 -3.86236 0
M  V30 677 H 62.1702 -0.555251 -5.05761 0
M  V30 678 H 61.5682 2.62559 -5.01078 0
M  V30 679 H 60.1252 2.6795 -5.94177 0
M  V30 680 N 63.5583 1.46682 -0.576371 0
M  V30 681 C 64.9743 1.57822 -0.237562 0
M  V30 682 C 65.1743 1.57237 1.26011 0
M  V30 683 O 64.2303 1.48596 2.04146 0
M  V30 684 C 65.5433 2.87499 -0.881168 0
M  V30 685 C 67.0913 3.01119 -0.85417 0
M  V30 686 C 67.5663 4.33524 -1.4772 0
M  V30 687 N 69.0573 4.40207 -1.44125 0
M  V30 688 C 69.7923 5.4126 -1.89276 0
M  V30 689 N 69.2883 6.49021 -2.42371 0
M  V30 690 N 71.0813 5.32422 -1.80231 0
M  V30 691 H 63.2323 1.45306 -1.54919 0
M  V30 692 H 65.4953 0.692733 -0.647167 0
M  V30 693 H 65.2013 2.9372 -1.93447 0
M  V30 694 H 65.0753 3.75224 -0.385592 0
M  V30 695 H 67.4623 2.94485 0.190491 0
M  V30 696 H 67.5433 2.14887 -1.3877 0
M  V30 697 H 67.1873 4.40916 -2.52103 0
M  V30 698 H 67.1173 5.1852 -0.918947 0
M  V30 699 H 69.6083 3.62931 -1.05307 0
M  V30 700 H 69.9213 7.2233 -2.74698 0
M  V30 701 H 68.2663 6.49858 -2.46393 0
M  V30 702 H 71.4573 4.47137 -1.38514 0
M  V30 703 H 71.6303 6.11034 -2.15735 0
M  V30 704 N 65.0364 0.313813 1.54444 0
M  V30 705 C 65.9994 -0.54379 2.22656 0
M  V30 706 C 66.9994 -1.05124 1.21678 0
M  V30 707 O 68.1894 -0.945225 1.46325 0
M  V30 708 C 65.3214 -1.75427 2.92298 0
M  V30 709 H 66.5144 0.0523599 2.99854 0
M  V30 710 H 64.0674 0.0647834 1.56166 0
M  V30 711 H 64.8024 -2.38991 2.19211 0
M  V30 712 H 64.5874 -1.39791 3.66334 0
M  V30 713 H 66.0774 -2.36325 3.44297 0
M  V30 714 N 66.5145 -1.57545 0.0417849 0
M  V30 715 C 67.4445 -2.14009 -0.933929 0
M  V30 716 C 68.4255 -1.05938 -1.33083 0
M  V30 717 O 69.6105 -1.33833 -1.40721 0
M  V30 718 C 66.7405 -2.67747 -2.21199 0
M  V30 719 C 65.6945 -3.80718 -1.95544 0
M  V30 720 C 65.0205 -4.20935 -3.29724 0
M  V30 721 C 66.3205 -5.06258 -1.28452 0
M  V30 722 H 68.0145 -2.95788 -0.463645 0
M  V30 723 H 65.5605 -1.42285 -0.221573 0
M  V30 724 H 67.5135 -3.05886 -2.89848 0
M  V30 725 H 66.2375 -1.83147 -2.70416 0
M  V30 726 H 64.8965 -3.43037 -1.2931 0
M  V30 727 H 64.5445 -3.33298 -3.76724 0
M  V30 728 H 64.2445 -4.9707 -3.13361 0
M  V30 729 H 65.7685 -4.61666 -3.9962 0
M  V30 730 H 67.1825 -5.41903 -1.8712 0
M  V30 731 H 65.5795 -5.87475 -1.22445 0
M  V30 732 H 66.6495 -4.84207 -0.259219 0
M  V30 733 N 67.9926 0.231505 -1.5589 0
M  V30 734 C 68.9026 1.308 -1.94752 0
M  V30 735 C 69.9186 1.51826 -0.849989 0
M  V30 736 O 71.0946 1.6515 -1.15271 0
M  V30 737 C 68.1596 2.63968 -2.24771 0
M  V30 738 C 67.2206 2.51331 -3.48039 0
M  V30 739 C 66.4536 3.78148 -3.76616 0
M  V30 740 O 66.6766 4.80722 -3.07022 0
M  V30 741 O 65.6106 3.75857 -4.70123 0
M  V30 742 H 69.4366 1.0083 -2.86474 0
M  V30 743 H 67.0216 0.433547 -1.42971 0
M  V30 744 H 68.9036 3.42633 -2.45318 0
M  V30 745 H 67.5786 2.9364 -1.36225 0
M  V30 746 H 66.4856 1.709 -3.32782 0
M  V30 747 H 67.8186 2.26601 -4.36936 0
M  V30 748 N 69.4707 1.49531 0.497807 0
M  V30 749 C 70.4007 1.6935 1.60757 0
M  V30 750 C 71.3817 0.542218 1.61227 0
M  V30 751 O 72.5667 0.778417 1.77917 0
M  V30 752 C 69.6967 1.76298 2.99226 0
M  V30 753 C 68.6507 2.91248 3.13622 0
M  V30 754 C 67.9767 2.83312 4.53474 0
M  V30 755 C 69.2767 4.3214 2.93346 0
M  V30 756 H 70.9707 2.62263 1.44425 0
M  V30 757 H 68.5167 1.26208 0.693367 0
M  V30 758 H 70.4697 1.88749 3.76765 0
M  V30 759 H 69.1937 0.799871 3.16654 0
M  V30 760 H 67.8527 2.78404 2.38509 0
M  V30 761 H 67.5007 1.84902 4.67782 0
M  V30 762 H 67.2007 3.60465 4.64046 0
M  V30 763 H 68.7247 2.97775 5.33069 0
M  V30 764 H 70.1387 4.45649 3.60652 0
M  V30 765 H 68.5357 5.1054 3.15387 0
M  V30 766 H 69.6057 4.46363 1.89441 0
M  V30 767 N 70.9488 -0.749086 1.3866 0
M  V30 768 C 71.8588 -1.89358 1.38494 0
M  V30 769 C 72.8748 -1.71708 0.281476 0
M  V30 770 O 74.0508 -1.94554 0.520643 0
M  V30 771 C 71.1158 -3.24782 1.21316 0
M  V30 772 C 70.1768 -3.54926 2.41508 0
M  V30 773 C 69.4098 -4.83888 2.2514 0
M  V30 774 O 69.6328 -5.56592 1.24746 0
M  V30 775 O 68.5668 -5.13612 3.13826 0
M  V30 776 H 72.3928 -1.92452 2.34938 0
M  V30 777 H 69.9778 -0.894981 1.19626 0
M  V30 778 H 71.8598 -4.05739 1.13814 0
M  V30 779 H 70.5348 -3.2249 0.279592 0
M  V30 780 H 69.4418 -2.74112 2.54585 0
M  V30 781 H 70.7748 -3.61983 3.3351 0
M  V30 782 N 72.4269 -1.23603 -0.977757 0
M  V30 783 C 73.3589 -0.977369 -2.07317 0
M  V30 784 C 74.3719 0.0495845 -1.62724 0
M  V30 785 O 75.5609 -0.186261 -1.77526 0
M  V30 786 C 72.6609 -0.451216 -3.35883 0
M  V30 787 C 71.8339 -1.53896 -4.09432 0
M  V30 788 C 70.8929 -1.01721 -5.16274 0
M  V30 789 O 69.9189 -1.70676 -5.43009 0
M  V30 790 N 71.1209 0.153594 -5.80297 0
M  V30 791 H 73.8859 -1.92047 -2.30082 0
M  V30 792 H 71.4469 -1.14497 -1.14465 0
M  V30 793 H 73.4389 -0.0871574 -4.04606 0
M  V30 794 H 72.0089 0.397368 -3.10064 0
M  V30 795 H 71.2289 -2.07566 -3.35127 0
M  V30 796 H 72.5169 -2.27037 -4.55337 0
M  V30 797 H 71.9149 0.730323 -5.60966 0
M  V30 798 H 70.4719 0.458892 -6.50183 0
M  V30 799 N 73.905 1.17692 -1.04816 0
M  V30 800 C 74.815 2.25229 -0.65643 0
M  V30 801 C 75.831 1.71018 0.320761 0
M  V30 802 O 77.007 2.00649 0.173805 0
M  V30 803 C 74.072 3.46684 -0.0332629 0
M  V30 804 C 73.133 4.15997 -1.06042 0
M  V30 805 C 72.366 5.31654 -0.466893 0
M  V30 806 O 72.589 5.65777 0.724758 0
M  V30 807 O 71.523 5.89831 -1.1993 0
M  V30 808 H 75.349 2.61016 -1.55255 0
M  V30 809 H 72.934 1.24919 -0.81949 0
M  V30 810 H 74.816 4.20234 0.313256 0
M  V30 811 H 73.491 3.12703 0.836566 0
M  V30 812 H 72.398 3.44482 -1.45886 0
M  V30 813 H 73.731 4.53996 -1.90127 0
M  V30 814 N 75.3831 0.828654 1.34056 0
M  V30 815 C 76.3131 0.269443 2.3194 0
M  V30 816 C 77.2941 -0.617247 1.58506 0
M  V30 817 O 78.4791 -0.542931 1.86456 0
M  V30 818 C 75.6091 -0.564793 3.42677 0
M  V30 819 C 74.5631 0.225241 4.27407 0
M  V30 820 C 73.8891 -0.7321 5.29664 0
M  V30 821 C 75.1891 1.43663 5.02154 0
M  V30 822 H 76.8831 1.08728 2.7896 0
M  V30 823 H 74.4291 0.524283 1.34117 0
M  V30 824 H 76.3821 -0.966233 4.10173 0
M  V30 825 H 75.1061 -1.41574 2.9432 0
M  V30 826 H 73.7651 0.608117 3.61521 0
M  V30 827 H 73.4131 -1.57916 4.77568 0
M  V30 828 H 73.1131 -0.20767 5.87233 0
M  V30 829 H 74.6371 -1.13128 6.00029 0
M  V30 830 H 76.0511 1.1089 5.62473 0
M  V30 831 H 74.4481 1.89711 5.69324 0
M  V30 832 H 75.5181 2.21181 4.31517 0
M  V30 833 N 76.8612 -1.46375 0.584142 0
M  V30 834 C 78.2772 -1.57694 0.245929 0
M  V30 835 C 78.4772 -1.57903 -1.25175 0
M  V30 836 O 77.5332 -1.49676 -2.03355 0
M  V30 837 C 78.8462 -2.87028 0.896402 0
M  V30 838 C 80.3942 -3.00662 0.870127 0
M  V30 839 C 80.8692 -4.32734 1.50017 0
M  V30 840 N 82.3602 -4.39436 1.46458 0
M  V30 841 C 83.0952 -5.40248 1.92144 0
M  V30 842 N 82.5912 -6.47726 2.4581 0
M  V30 843 N 84.3842 -5.31459 1.83052 0
M  V30 844 H 76.5352 -1.44483 1.55687 0
M  V30 845 H 78.7982 -0.689291 0.650831 0
M  V30 846 H 78.5042 -2.9269 1.95002 0
M  V30 847 H 78.3782 -3.75014 0.405486 0
M  V30 848 H 80.7652 -2.94581 -0.174871 0
M  V30 849 H 80.8462 -2.14148 1.39908 0
M  V30 850 H 80.4902 -4.39573 2.54437 0
M  V30 851 H 80.4202 -5.18025 0.946432 0
M  V30 852 H 82.9112 -3.62367 1.07231 0
M  V30 853 H 83.2242 -7.20863 2.78525 0
M  V30 854 H 81.5692 -6.48542 2.49836 0
M  V30 855 H 84.7602 -4.46396 1.40883 0
M  V30 856 H 84.9332 -6.09881 2.18973 0
M  V30 857 N 78.3393 -0.321999 -1.54275 0
M  V30 858 C 79.2713 0.578671 -2.21775 0
M  V30 859 C 80.2843 1.08109 -1.21722 0
M  V30 860 O 81.4733 0.994938 -1.482 0
M  V30 861 C 78.5733 1.80661 -2.86731 0
M  V30 862 C 77.7463 1.44314 -4.12907 0
M  V30 863 C 76.8053 2.52845 -4.61472 0
M  V30 864 O 75.8313 2.17054 -5.2619 0
M  V30 865 N 77.0333 3.83748 -4.35566 0
M  V30 866 H 79.7983 0.000709447 -2.997 0
M  V30 867 H 77.3593 -0.145132 -1.61248 0
M  V30 868 H 79.3513 2.52655 -3.16145 0
M  V30 869 H 77.9213 2.29245 -2.12521 0
M  V30 870 H 77.1413 0.554906 -3.90275 0
M  V30 871 H 78.4293 1.17598 -4.95023 0
M  V30 872 H 77.8273 4.15625 -3.83761 0
M  V30 873 H 76.3843 4.51977 -4.69638 0
M  V30 874 N 79.8174 1.5752 -0.0501392 0
M  V30 875 C 81.0654 1.9227 0.622642 0
M  V30 876 C 81.3864 0.929083 1.71444 0
M  V30 877 O 80.6564 -0.0262186 1.95882 0
M  V30 878 H 79.2364 0.709739 0.232981 0
M  V30 879 H 81.8984 1.94628 -0.102898 0
M  V30 880 H 80.9944 2.93479 1.06191 0
M  V30 881 N 81.2955 -0.223234 1.56011 0
M  V30 882 C 82.5415 -0.949279 1.79211 0
M  V30 883 C 82.8745 -1.84054 0.619494 0
M  V30 884 O 82.1495 -1.90726 -0.381317 0
M  V30 885 C 82.4325 -1.78965 3.12479 0
M  V30 886 C 82.2855 -0.924997 4.40186 0
M  V30 887 C 83.6045 -2.76774 3.42175 0
M  V30 888 H 80.7235 -0.343676 0.651963 0
M  V30 889 H 83.3655 -0.218253 1.88742 0
M  V30 890 H 81.5155 -2.41291 3.04485 0
M  V30 891 H 83.1875 -0.318615 4.60198 0
M  V30 892 H 81.4305 -0.230344 4.33188 0
M  V30 893 H 82.1015 -1.54735 5.29869 0
M  V30 894 H 84.5775 -2.24584 3.50287 0
M  V30 895 H 83.4535 -3.32678 4.36597 0
M  V30 896 H 83.7145 -3.54429 2.64258 0
M  V30 897 N 82.7736 -1.49793 -0.48987 0
M  V30 898 C 83.7206 -1.67281 -1.59014 0
M  V30 899 C 84.6906 -0.514177 -1.57941 0
M  V30 900 O 85.8756 -0.742533 -1.75759 0
M  V30 901 C 83.0156 -1.75569 -2.97102 0
M  V30 902 C 82.1286 -3.0281 -3.08107 0
M  V30 903 C 81.2636 -3.02008 -4.36995 0
M  V30 904 C 80.3026 -4.23782 -4.41673 0
M  V30 905 N 79.4396 -4.20826 -5.62005 0
M  V30 906 H 84.2796 -2.61224 -1.43409 0
M  V30 907 H 81.8166 -1.29508 -0.697565 0
M  V30 908 H 83.7746 -1.78354 -3.77155 0
M  V30 909 H 82.4046 -0.850827 -3.11385 0
M  V30 910 H 81.4566 -3.09584 -2.21047 0
M  V30 911 H 82.7686 -3.92801 -3.07423 0
M  V30 912 H 81.9226 -3.03418 -5.25378 0
M  V30 913 H 80.6616 -2.09815 -4.4026 0
M  V30 914 H 79.6666 -4.22604 -3.5169 0
M  V30 915 H 80.8916 -5.17181 -4.40115 0
M  V30 916 H 78.8376 -3.31476 -5.66091 0
M  V30 917 H 78.7546 -5.04564 -5.62984 0
M  V30 918 H 80.0226 -4.26355 -6.52565 0
M  V30 919 N 84.2517 0.741722 -1.39055 0
M  V30 920 C 85.1987 1.85566 -1.37237 0
M  V30 921 C 86.1687 1.64457 -0.233072 0
M  V30 922 O 87.3537 1.85957 -0.427147 0
M  V30 923 C 84.4937 3.23004 -1.215 0
M  V30 924 C 83.6067 3.55864 -2.44918 0
M  V30 925 C 82.7417 4.82669 -2.21821 0
M  V30 926 C 81.7807 5.08351 -3.40948 0
M  V30 927 N 80.9177 6.26356 -3.17211 0
M  V30 928 H 85.7577 1.86455 -2.32462 0
M  V30 929 H 83.2947 0.911176 -1.15482 0
M  V30 930 H 85.2527 4.02331 -1.10389 0
M  V30 931 H 83.8827 3.21411 -0.29908 0
M  V30 932 H 82.9347 2.7129 -2.66657 0
M  V30 933 H 84.2467 3.70765 -3.33668 0
M  V30 934 H 83.4007 5.69962 -2.07914 0
M  V30 935 H 82.1397 4.69929 -1.30454 0
M  V30 936 H 81.1447 4.19522 -3.55361 0
M  V30 937 H 82.3697 5.22981 -4.33207 0
M  V30 938 H 80.3157 6.14917 -2.28502 0
M  V30 939 H 80.2327 6.41813 -3.99515 0
M  V30 940 H 81.5007 7.16506 -3.06984 0
M  V30 941 N 85.7298 1.2412 0.971189 0
M  V30 942 C 87.1408 1.07236 1.52831 0
M  V30 943 C 87.4918 -0.357352 1.92918 0
M  V30 944 O 86.6168 -1.24528 1.76979 0
M  V30 945 C 87.2118 1.94043 2.77728 0
M  V30 946 C 85.7708 1.81394 3.29808 0
M  V30 947 C 84.9178 1.89189 2.02738 0
M  V30 948 H 87.8688 1.37648 0.789864 0
M  V30 949 H 87.8898 1.47066 3.5093 0
M  V30 950 H 87.4018 2.98093 2.4852 0
M  V30 951 H 85.5028 0.801634 3.63874 0
M  V30 952 H 85.6158 2.65294 3.98944 0
M  V30 953 H 83.9798 1.32877 2.17292 0
M  V30 954 H 84.7628 2.94812 1.759 0
M  V30 955 N 87.2079 -1.17134 1.05439 0
M  V30 956 C 88.4549 -1.87456 0.765942 0
M  V30 957 C 88.7829 -1.81189 -0.707153 0
M  V30 958 O 88.0379 -1.21633 -1.5331 0
M  V30 959 C 88.3369 -3.36833 1.19491 0
M  V30 960 C 88.0029 -3.63301 2.67063 0
M  V30 961 C 86.6649 -3.70234 3.07376 0
M  V30 962 C 89.0169 -3.74575 3.62413 0
M  V30 963 C 86.3449 -3.85933 4.41896 0
M  V30 964 C 88.6969 -3.91793 4.9667 0
M  V30 965 C 87.3609 -3.96966 5.36633 0
M  V30 966 H 86.6309 -0.685948 0.280278 0
M  V30 967 H 89.2779 -1.38556 1.32192 0
M  V30 968 H 87.5829 -3.87807 0.557969 0
M  V30 969 H 89.2799 -3.89611 0.948893 0
M  V30 970 H 85.8699 -3.58532 2.34846 0
M  V30 971 H 90.0539 -3.68537 3.32406 0
M  V30 972 H 85.3099 -3.88187 4.72357 0
M  V30 973 H 89.4839 -3.99458 5.70444 0
M  V30 974 H 87.1109 -4.08883 6.40874 0
M  V30 975 N 88.686 -0.835752 -1.33615 0
M  V30 976 C 89.914 -0.443344 -2.02094 0
M  V30 977 C 90.329 0.954522 -1.62894 0
M  V30 978 O 89.686 1.61982 -0.840723 0
M  V30 979 C 89.737 -0.550775 -3.5728 0
M  V30 980 O 89.458 -1.89356 -3.95065 0
M  V30 981 C 90.959 -0.154919 -4.43029 0
M  V30 982 H 88.179 -0.176359 -0.647409 0
M  V30 983 H 90.723 -1.12746 -1.70612 0
M  V30 984 H 88.878 0.0853997 -3.87306 0
M  V30 985 H 89.292 -1.87687 -4.89769 0
M  V30 986 H 90.766 -0.281144 -5.51284 0
M  V30 987 H 91.243 0.902863 -4.2982 0
M  V30 988 H 91.849 -0.765404 -4.18356 0
M  V30 989 N 90.1641 1.46063 -0.591896 0
M  V30 990 C 91.0741 2.34192 0.13831 0
M  V30 991 C 92.0901 1.50305 0.876608 0
M  V30 992 O 93.2661 1.8315 0.837728 0
M  V30 993 C 90.3311 3.27656 1.13326 0
M  V30 994 C 89.3921 4.27445 0.39863 0
M  V30 995 C 88.6251 5.16443 1.34618 0
M  V30 996 O 88.8481 5.08553 2.58321 0
M  V30 997 O 87.7821 5.95843 0.851768 0
M  V30 998 H 91.6081 2.98002 -0.58552 0
M  V30 999 H 89.1931 1.45188 -0.352239 0
M  V30 1000 H 91.0751 3.85291 1.70671 0
M  V30 1001 H 89.7501 2.6643 1.83839 0
M  V30 1002 H 88.6571 3.73471 -0.216895 0
M  V30 1003 H 89.9901 4.91482 -0.265709 0
M  V30 1004 N 91.6422 0.330177 1.54103 0
M  V30 1005 C 92.8882 -0.270806 2.00984 0
M  V30 1006 C 93.2212 -1.51265 1.21789 0
M  V30 1007 O 92.4962 -1.92142 0.301927 0
M  V30 1008 C 92.7792 -0.598339 3.55094 0
M  V30 1009 C 92.6322 0.654674 4.4501 0
M  V30 1010 C 93.9512 -1.41334 4.16789 0
M  V30 1011 H 91.0702 -0.0969531 0.730595 0
M  V30 1012 H 93.7122 0.448066 1.84641 0
M  V30 1013 H 91.8622 -1.21078 3.69151 0
M  V30 1014 H 93.5342 1.29285 4.42813 0
M  V30 1015 H 91.7772 1.28224 4.14416 0
M  V30 1016 H 92.4482 0.380944 5.50684 0
M  V30 1017 H 94.9242 -0.895597 4.06347 0
M  V30 1018 H 93.8002 -1.61127 5.24718 0
M  V30 1019 H 94.0612 -2.41146 3.70541 0
M  V30 1020 N 93.1203 -1.57491 0.0584922 0
M  V30 1021 C 94.3693 -1.92155 -0.613146 0
M  V30 1022 C 94.6823 -0.939334 -1.71569 0
M  V30 1023 O 95.8883 -1.17829 -2.44599 0
M  V30 1024 C 94.3443 -3.41303 -1.14195 0
M  V30 1025 C 93.9523 -4.47944 -0.0711265 0
M  V30 1026 C 95.6963 -3.84988 -1.78841 0
M  V30 1027 C 93.6033 -5.88212 -0.613225 0
M  V30 1028 H 92.5333 -0.717162 -0.232796 0
M  V30 1029 H 95.1843 -1.83049 0.12857 0
M  V30 1030 H 93.5663 -3.45437 -1.93621 0
M  V30 1031 H 94.7403 -4.55408 0.702836 0
M  V30 1032 H 93.0553 -4.13644 0.478313 0
M  V30 1033 H 95.6523 -4.87159 -2.20408 0
M  V30 1034 H 95.9953 -3.21632 -2.64308 0
M  V30 1035 H 96.5283 -3.83401 -1.06059 0
M  V30 1036 H 93.2673 -6.55183 0.203978 0
M  V30 1037 H 92.7873 -5.84294 -1.35501 0
M  V30 1038 H 94.4663 -6.37687 -1.09383 0
M  V30 1039 N 94.5984 0.214957 -1.56127 0
M  V30 1040 C 96.0144 0.564948 -1.49267 0
M  V30 1041 C 96.2144 1.86827 -0.754838 0
M  V30 1042 O 95.2704 2.50745 -0.297198 0
M  V30 1043 C 96.5834 0.638071 -2.93852 0
M  V30 1044 C 98.1314 0.728253 -3.0441 0
M  V30 1045 C 98.6064 0.832663 -4.50367 0
M  V30 1046 N 100.097 0.896712 -4.54437 0
M  V30 1047 C 100.832 0.997324 -5.6466 0
M  V30 1048 N 100.328 1.06147 -6.8462 0
M  V30 1049 N 102.121 1.03297 -5.52527 0
M  V30 1050 H 94.2724 -0.640211 -2.02522 0
M  V30 1051 H 96.5354 -0.225507 -0.920788 0
M  V30 1052 H 96.2414 -0.250126 -3.50809 0
M  V30 1053 H 96.1154 1.49947 -3.46115 0
M  V30 1054 H 98.5024 1.60689 -2.47514 0
M  V30 1055 H 98.5834 -0.158952 -2.55306 0
M  V30 1056 H 98.2274 -0.0415417 -5.07883 0
M  V30 1057 H 98.1574 1.73538 -4.97184 0
M  V30 1058 H 100.648 0.857188 -3.6805 0
M  V30 1059 H 100.961 1.1382 -7.64372 0
M  V30 1060 H 99.3064 1.03049 -6.87318 0
M  V30 1061 H 102.497 0.979558 -4.57736 0
M  V30 1062 H 102.67 1.10793 -6.38458 0
M  V30 1063 N 96.0765 1.50051 0.48192 0
M  V30 1064 C 97.0395 1.67584 1.5636 0
M  V30 1065 C 98.0395 0.546894 1.51214 0
M  V30 1066 O 99.2295 0.813725 1.54026 0
M  V30 1067 C 96.3615 1.691 2.96003 0
M  V30 1068 H 97.5545 2.64078 1.42136 0
M  V30 1069 H 95.1075 1.39369 0.707533 0
M  V30 1070 H 95.8425 0.742589 3.15684 0
M  V30 1071 H 95.6275 2.51105 3.01146 0
M  V30 1072 H 97.1175 1.84656 3.74556 0
M  V30 1073 N 97.5546 -0.734337 1.39446 0
M  V30 1074 C 98.5026 -1.86971 1.38364 0
M  V30 1075 C 99.4966 -1.67288 0.266687 0
M  V30 1076 O 100.703 -1.74621 0.436755 0
M  V30 1077 H 97.0776 -0.615474 0.432082 0
M  V30 1078 H 99.0486 -1.85 2.34132 0
M  V30 1079 C 97.7976 -3.2466 1.24465 0
M  V30 1080 H 97.1206 -3.40402 2.09682 0
M  V30 1081 H 98.5606 -4.04292 1.27764 0
M  V30 1082 C 97.0196 -3.36867 -0.0468674 0
M  V30 1083 O 97.5496 -3.88618 -1.01681 0
M  V30 1084 N 95.7556 -2.90391 -0.110145 0
M  V30 1085 H 95.3026 -2.48466 0.679868 0
M  V30 1086 H 95.2606 -2.98939 -0.973799 0
M  V30 1087 N 99.0327 -1.24633 -0.964593 0
M  V30 1088 C 100.282 -1.08188 -1.7023 0
M  V30 1089 C 100.595 0.37873 -1.91898 0
M  V30 1090 O 101.801 0.663427 -2.6327 0
M  V30 1091 C 100.257 -1.88773 -3.06419 0
M  V30 1092 C 99.8647 -3.39263 -2.92582 0
M  V30 1093 C 101.609 -1.80867 -3.84041 0
M  V30 1094 C 99.5157 -4.1218 -4.24101 0
M  V30 1095 H 98.4457 -0.401245 -0.638372 0
M  V30 1096 H 101.097 -1.48742 -1.07462 0
M  V30 1097 H 99.4787 -1.41035 -3.70034 0
M  V30 1098 H 100.653 -3.94603 -2.37961 0
M  V30 1099 H 98.9677 -3.48154 -2.28424 0
M  V30 1100 H 101.565 -2.32646 -4.81435 0
M  V30 1101 H 101.908 -0.774543 -4.09031 0
M  V30 1102 H 102.441 -2.26301 -3.27159 0
M  V30 1103 H 99.1797 -5.15965 -4.04303 0
M  V30 1104 H 98.6997 -3.61626 -4.78526 0
M  V30 1105 H 100.379 -4.19349 -4.92702 0
M  V30 1106 N 100.511 1.16574 -1.06058 0
M  V30 1107 C 101.759 1.86677 -0.77434 0
M  V30 1108 C 102.08 1.81959 0.701147 0
M  V30 1109 O 101.35 1.2515 1.50713 0
M  V30 1110 H 99.9298 0.691134 -0.283449 0
M  V30 1111 H 102.592 1.41378 -1.34158 0
M  V30 1112 H 101.688 2.92181 -1.09711 0
M  V30 1113 N 101.989 0.842826 1.3317 0
M  V30 1114 C 103.266 0.362216 1.92217 0
M  V30 1115 C 103.646 -1.15289 1.76838 0
M  V30 1116 O 102.994 -1.96914 1.15919 0
M  V30 1117 C 103.204 0.813495 3.39387 0
M  V30 1118 C 104.552 0.823804 4.16532 0
M  V30 1119 O 105.576 0.757358 3.48055 0
M  V30 1120 O 104.435 0.915193 5.38782 0
M  V30 1121 H 101.529 0.103317 0.820521 0
M  V30 1122 H 104.075 0.928942 1.42017 0
M  V30 1123 H 102.847 1.85624 3.4447 0
M  V30 1124 H 102.47 0.223561 3.96971 0
M  V30 1125 N 103.467 -1.45747 0.599634 0
M  V30 1126 C 104.43 -2.28917 -0.113835 0
M  V30 1127 C 105.43 -1.3933 -0.802729 0
M  V30 1128 O 106.62 -1.61534 -0.652103 0
M  V30 1129 C 103.752 -3.20152 -1.17114 0
M  V30 1130 H 104.945 -2.93478 0.617289 0
M  V30 1131 H 102.498 -1.52137 0.358327 0
M  V30 1132 H 103.233 -2.60374 -1.93329 0
M  V30 1133 H 103.018 -3.86133 -0.681468 0
M  V30 1134 H 104.508 -3.82708 -1.67105 0
M  V30 1135 N 104.945 -0.338344 -1.53925 0
M  V30 1136 C 105.877 0.555117 -2.22376 0
M  V30 1137 C 106.89 1.06812 -1.22862 0
M  V30 1138 O 108.079 0.979163 -1.49247 0
M  V30 1139 C 105.179 1.77609 -2.88631 0
M  V30 1140 C 104.352 1.39927 -4.14414 0
M  V30 1141 C 103.411 2.47936 -4.64127 0
M  V30 1142 O 102.437 2.11461 -5.28463 0
M  V30 1143 N 103.639 3.79107 -4.39612 0
M  V30 1144 H 106.404 -0.0310778 -2.99684 0
M  V30 1145 H 103.965 -0.162226 -1.61085 0
M  V30 1146 H 105.957 2.49287 -3.18807 0
M  V30 1147 H 104.527 2.26978 -2.14941 0
M  V30 1148 H 103.747 0.513481 -3.90841 0
M  V30 1149 H 105.035 1.12341 -4.96243 0
M  V30 1150 H 104.433 4.11531 -3.88148 0
M  V30 1151 H 102.99 4.4697 -4.74406 0
M  V30 1152 N 106.423 1.57458 -0.0668435 0
M  V30 1153 C 107.386 2.11323 0.887422 0
M  V30 1154 C 108.386 1.03618 1.22964 0
M  V30 1155 O 109.576 1.29626 1.16373 0
M  V30 1156 C 106.708 2.61048 2.19242 0
M  V30 1157 H 107.901 2.96942 0.420194 0
M  V30 1158 H 105.454 1.55239 0.181793 0
M  V30 1159 H 106.189 1.78868 2.70512 0
M  V30 1160 H 105.974 3.39769 1.95702 0
M  V30 1161 H 107.464 3.02814 2.87565 0
M  V30 1162 N 107.901 -0.206675 1.56239 0
M  V30 1163 C 108.834 -1.28383 1.88661 0
M  V30 1164 C 109.812 -1.44504 0.745481 0
M  V30 1165 O 110.996 -1.60079 0.995336 0
M  V30 1166 C 108.123 -2.65211 2.10667 0
M  V30 1167 C 107.169 -2.66025 3.33366 0
M  V30 1168 S 108.002 -2.18609 4.88846 0
M  V30 1169 C 109.158 -3.57283 5.13906 0
M  V30 1170 H 109.391 -1.00691 2.7973 0
M  V30 1171 H 106.924 -0.409627 1.48867 0
M  V30 1172 H 108.882 -3.43979 2.24029 0
M  V30 1173 H 107.543 -2.90121 1.20369 0
M  V30 1174 H 106.736 -3.66607 3.45855 0
M  V30 1175 H 106.338 -1.95331 3.18938 0
M  V30 1176 H 108.63 -4.53074 5.03717 0
M  V30 1177 H 109.573 -3.49699 6.15724 0
M  V30 1178 H 109.981 -3.51659 4.41583 0
M  V30 1179 N 109.379 -1.50304 -0.473955 0
M  V30 1180 C 110.627 -1.60832 -1.22382 0
M  V30 1181 C 110.948 -0.30939 -1.9253 0
M  V30 1182 O 110.218 0.67296 -1.83978 0
M  V30 1183 H 108.798 -0.592652 -0.454723 0
M  V30 1184 H 111.46 -1.87068 -0.546968 0
M  V30 1185 H 110.556 -2.41803 -1.97327 0
M  V30 1186 N 110.857 0.726932 -1.39834 0
M  V30 1187 C 111.789 1.85147 -1.35104 0
M  V30 1188 C 112.802 1.60736 -0.258392 0
M  V30 1189 O 113.991 1.70821 -0.517931 0
M  V30 1190 C 111.091 3.21332 -1.07697 0
M  V30 1191 C 110.264 3.73033 -2.28396 0
M  V30 1192 C 109.323 4.87802 -1.97322 0
M  V30 1193 O 108.349 5.01043 -2.70083 0
M  V30 1194 N 109.551 5.72768 -0.944273 0
M  V30 1195 H 112.316 1.89706 -2.32017 0
M  V30 1196 H 109.877 0.908006 -1.3404 0
M  V30 1197 H 111.869 3.95691 -0.849144 0
M  V30 1198 H 110.439 3.11992 -0.194909 0
M  V30 1199 H 109.659 2.89934 -2.6708 0
M  V30 1200 H 110.947 4.0431 -3.08887 0
M  V30 1201 H 110.345 5.64669 -0.341427 0
M  V30 1202 H 108.902 6.4716 -0.776346 0
M  V30 1203 N 112.336 1.25143 0.95797 0
M  V30 1204 C 113.752 1.01892 1.22842 0
M  V30 1205 C 113.952 -0.266311 1.99732 0
M  V30 1206 O 113.008 -0.979913 2.3271 0
M  V30 1207 C 114.321 2.24004 2.00606 0
M  V30 1208 C 115.869 2.28731 2.13662 0
M  V30 1209 C 116.344 3.5049 2.94823 0
M  V30 1210 N 117.835 3.50866 3.02403 0
M  V30 1211 C 118.57 4.4174 3.65586 0
M  V30 1212 N 118.066 5.42882 4.30408 0
M  V30 1213 N 119.859 4.29429 3.62694 0
M  V30 1214 H 112.01 2.07718 0.443493 0
M  V30 1215 H 114.273 0.912031 0.258657 0
M  V30 1216 H 113.979 3.17395 1.51503 0
M  V30 1217 H 113.853 2.26907 3.01319 0
M  V30 1218 H 116.24 1.35865 2.61963 0
M  V30 1219 H 116.321 2.29848 1.12265 0
M  V30 1220 H 115.965 4.43676 2.47213 0
M  V30 1221 H 115.895 3.46617 3.96439 0
M  V30 1222 H 118.386 2.777 2.56302 0
M  V30 1223 H 118.699 6.0844 4.76467 0
M  V30 1224 H 117.044 5.46758 4.29047 0
M  V30 1225 H 120.235 3.49643 3.11236 0
M  V30 1226 H 120.408 5.00448 4.1165 0
M  V30 1227 N 113.814 -1.1601 1.06675 0
M  V30 1228 C 115.225 -1.68235 0.809565 0
M  V30 1229 C 115.576 -1.8454 -0.666303 0
M  V30 1230 O 114.701 -1.54374 -1.5165 0
M  V30 1231 C 115.296 -3.05585 1.46299 0
M  V30 1232 C 113.855 -3.54915 1.25349 0
M  V30 1233 C 113.002 -2.30804 1.53703 0
M  V30 1234 H 115.953 -1.00318 1.22971 0
M  V30 1235 H 115.974 -3.70174 0.880431 0
M  V30 1236 H 115.486 -2.93686 2.53713 0
M  V30 1237 H 113.587 -3.72067 0.199261 0
M  V30 1238 H 113.7 -4.36774 1.9689 0
M  V30 1239 H 112.064 -2.36007 0.957739 0
M  V30 1240 H 112.847 -2.21499 2.62284 0
M  V30 1241 N 115.292 -0.849877 -1.32721 0
M  V30 1242 C 116.541 -0.447175 -1.96681 0
M  V30 1243 C 116.854 1.00135 -1.68025 0
M  V30 1244 O 118.06 1.50926 -2.25685 0
M  V30 1245 C 116.516 -0.7487 -3.52026 0
M  V30 1246 C 116.124 -2.21264 -3.89546 0
M  V30 1247 C 117.868 -0.413487 -4.22481 0
M  V30 1248 C 115.775 -2.45763 -5.37917 0
M  V30 1249 H 114.705 -0.163486 -0.736063 0
M  V30 1250 H 117.356 -1.03999 -1.51183 0
M  V30 1251 H 115.738 -0.0853727 -3.95908 0
M  V30 1252 H 116.912 -2.91736 -3.56689 0
M  V30 1253 H 115.227 -2.5119 -3.32103 0
M  V30 1254 H 117.824 -0.574017 -5.3161 0
M  V30 1255 H 118.167 0.644492 -4.11281 0
M  V30 1256 H 118.7 -1.03251 -3.84167 0
M  V30 1257 H 115.439 -3.50168 -5.54132 0
M  V30 1258 H 114.959 -1.79864 -5.72197 0
M  V30 1259 H 116.638 -2.29471 -6.0494 0
M  V30 1260 N 116.77 1.45427 -0.607355 0
M  V30 1261 C 117.998 2.06614 -0.108814 0
M  V30 1262 C 118.413 1.45204 1.2067 0
M  V30 1263 O 117.77 0.566132 1.73497 0
M  V30 1264 C 117.821 3.61481 0.0375347 0
M  V30 1265 O 117.542 4.20598 -1.22593 0
M  V30 1266 C 119.043 4.39652 0.567561 0
M  V30 1267 H 116.263 0.66747 -0.0687351 0
M  V30 1268 H 118.807 1.86675 -0.835022 0
M  V30 1269 H 116.962 3.80762 0.714068 0
M  V30 1270 H 117.376 5.1377 -1.05547 0
M  V30 1271 H 118.85 5.48518 0.61905 0
M  V30 1272 H 119.327 4.09417 1.58978 0
M  V30 1273 H 119.933 4.25234 -0.0749202 0
M  V30 1274 N 118.248 0.346503 1.53744 0
M  V30 1275 C 119.495 -0.249104 2.00962 0
M  V30 1276 C 119.823 -1.5032 1.23426 0
M  V30 1277 O 119.078 -1.93217 0.310761 0
M  V30 1278 C 119.377 -0.605809 3.52228 0
M  V30 1279 C 119.043 0.551747 4.47512 0
M  V30 1280 C 117.705 0.86941 4.73281 0
M  V30 1281 C 120.057 1.32818 5.03993 0
M  V30 1282 C 117.385 1.96582 5.52786 0
M  V30 1283 C 119.737 2.41486 5.84694 0
M  V30 1284 C 118.401 2.73808 6.08757 0
M  V30 1285 H 117.671 -0.0911538 0.735372 0
M  V30 1286 H 120.318 0.475027 1.85515 0
M  V30 1287 H 118.623 -1.4107 3.65522 0
M  V30 1288 H 120.32 -1.07858 3.86222 0
M  V30 1289 H 116.91 0.294102 4.2759 0
M  V30 1290 H 121.094 1.09602 4.84047 0
M  V30 1291 H 116.35 2.22045 5.69654 0
M  V30 1292 H 120.524 3.02078 6.27473 0
M  V30 1293 H 118.151 3.58892 6.7015 0
M  V30 1294 N 119.726 -1.57421 0.075193 0
M  V30 1295 C 120.656 -2.15942 -0.888324 0
M  V30 1296 C 121.637 -1.08737 -1.30806 0
M  V30 1297 O 122.822 -1.36787 -1.37851 0
M  V30 1298 C 119.952 -2.72379 -2.1547 0
M  V30 1299 C 118.906 -3.8478 -1.87425 0
M  V30 1300 C 118.232 -4.27834 -3.20721 0
M  V30 1301 C 119.532 -5.08869 -1.17684 0
M  V30 1302 H 121.226 -2.96705 -0.400799 0
M  V30 1303 H 118.772 -1.42723 -0.191342 0
M  V30 1304 H 120.725 -3.11965 -2.83295 0
M  V30 1305 H 119.449 -1.88841 -2.6647 0
M  V30 1306 H 118.108 -3.45703 -1.22004 0
M  V30 1307 H 117.756 -3.41214 -3.6957 0
M  V30 1308 H 117.456 -5.03605 -3.02746 0
M  V30 1309 H 118.98 -4.70039 -3.89738 0
M  V30 1310 H 120.394 -5.4575 -1.75584 0
M  V30 1311 H 118.791 -5.8994 -1.09956 0
M  V30 1312 H 119.861 -4.84648 -0.156453 0
M  V30 1313 N 121.204 0.198386 -1.56346 0
M  V30 1314 C 122.62 0.549085 -1.49857 0
M  V30 1315 C 122.82 1.86016 -0.774611 0
M  V30 1316 O 121.876 2.50416 -0.323776 0
M  V30 1317 C 123.189 0.606868 -2.94512 0
M  V30 1318 C 124.737 0.695925 -3.05165 0
M  V30 1319 C 125.212 0.784848 -4.51225 0
M  V30 1320 N 126.703 0.848463 -4.55363 0
M  V30 1321 C 127.438 0.937378 -5.65686 0
M  V30 1322 N 126.934 0.9888 -6.85707 0
M  V30 1323 N 128.727 0.974312 -5.53592 0
M  V30 1324 H 120.878 -0.661655 -2.01831 0
M  V30 1325 H 123.141 -0.235261 -0.918344 0
M  V30 1326 H 122.847 -0.28732 -3.50524 0
M  V30 1327 H 122.721 1.46268 -3.47686 0
M  V30 1328 H 125.108 1.58055 -2.49204 0
M  V30 1329 H 125.189 -0.186022 -2.55123 0
M  V30 1330 H 124.833 -0.0954072 -5.0781 0
M  V30 1331 H 124.763 1.68255 -4.98997 0
M  V30 1332 H 127.254 0.818103 -3.68938 0
M  V30 1333 H 127.567 1.05707 -7.65536 0
M  V30 1334 H 125.912 0.957534 -6.88372 0
M  V30 1335 H 129.103 0.930954 -4.58749 0
M  V30 1336 H 129.276 1.04015 -6.39597 0
M  V30 1337 N 122.682 1.50554 0.465978 0
M  V30 1338 C 123.614 1.65949 1.58093 0
M  V30 1339 C 124.627 0.540827 1.53554 0
M  V30 1340 O 125.816 0.814187 1.5885 0
M  V30 1341 C 122.916 1.63261 2.96983 0
M  V30 1342 C 122.089 2.91245 3.26336 0
M  V30 1343 C 121.148 2.8113 4.44806 0
M  V30 1344 O 120.174 3.55086 4.44862 0
M  V30 1345 N 121.376 1.95032 5.46756 0
M  V30 1346 H 124.141 2.62122 1.45301 0
M  V30 1347 H 121.702 1.48082 0.65448 0
M  V30 1348 H 123.694 1.54101 3.74212 0
M  V30 1349 H 122.264 0.748032 3.03518 0
M  V30 1350 H 121.484 3.14493 2.37672 0
M  V30 1351 H 122.772 3.76022 3.42761 0
M  V30 1352 H 122.17 1.3427 5.49534 0
M  V30 1353 H 120.727 1.91772 6.2295 0
M  V30 1354 N 124.16 -0.719506 1.40217 0
M  V30 1355 C 125.406 -1.48152 1.38488 0
M  V30 1356 C 125.739 -1.94195 -0.0141867 0
M  V30 1357 O 125.014 -1.67884 -0.982096 0
M  V30 1358 C 125.297 -2.71035 2.37091 0
M  V30 1359 C 125.15 -2.30912 3.86005 0
M  V30 1360 C 126.469 -3.73182 2.33288 0
M  V30 1361 H 123.588 -0.537395 0.504357 0
M  V30 1362 H 126.23 -0.821472 1.71324 0
M  V30 1363 H 124.38 -3.27352 2.0922 0
M  V30 1364 H 126.052 -1.80107 4.24687 0
M  V30 1365 H 124.295 -1.62958 4.02029 0
M  V30 1366 H 124.966 -3.18978 4.50508 0
M  V30 1367 H 127.442 -3.26485 2.57966 0
M  V30 1368 H 126.318 -4.56806 3.04334 0
M  V30 1369 H 126.579 -4.21202 1.34317 0
M  V30 1370 N 125.638 -1.25649 -0.95132 0
M  V30 1371 C 126.568 -1.08808 -2.06599 0
M  V30 1372 C 127.549 0.00382547 -1.701 0
M  V30 1373 O 128.734 -0.166325 -1.93486 0
M  V30 1374 C 125.864 -0.709542 -3.39975 0
M  V30 1375 C 124.818 -1.75206 -3.90496 0
M  V30 1376 C 124.144 -1.22811 -5.20405 0
M  V30 1377 C 125.444 -3.15153 -4.16504 0
M  V30 1378 H 127.138 -2.02048 -2.20946 0
M  V30 1379 H 124.684 -0.972835 -1.06169 0
M  V30 1380 H 126.637 -0.578649 -4.17408 0
M  V30 1381 H 125.361 0.258556 -3.25575 0
M  V30 1382 H 124.02 -1.87145 -3.15234 0
M  V30 1383 H 123.668 -0.250145 -5.02378 0
M  V30 1384 H 123.368 -1.92492 -5.55176 0
M  V30 1385 H 124.892 -1.10968 -6.00432 0
M  V30 1386 H 126.306 -3.06349 -4.84586 0
M  V30 1387 H 124.703 -3.82333 -4.62538 0
M  V30 1388 H 125.773 -3.61966 -3.22658 0
M  V30 1389 N 127.117 1.15442 -1.07289 0
M  V30 1390 C 128.08 2.18358 -0.696591 0
M  V30 1391 C 129.08 1.58637 0.262837 0
M  V30 1392 O 130.27 1.74145 0.0438809 0
M  V30 1393 C 127.402 3.4089 -0.0266151 0
M  V30 1394 H 128.595 2.53162 -1.60776 0
M  V30 1395 H 126.148 1.29893 -0.869342 0
M  V30 1396 H 126.883 3.11653 0.896822 0
M  V30 1397 H 126.668 3.85495 -0.716657 0
M  V30 1398 H 128.158 4.17009 0.222028 0
M  V30 1399 N 128.595 0.856903 1.32268 0
M  V30 1400 C 129.525 0.31858 2.31316 0
M  V30 1401 C 130.506 -0.583487 1.59779 0
M  V30 1402 O 131.691 -0.503259 1.87566 0
M  V30 1403 C 128.821 -0.491979 3.43798 0
M  V30 1404 C 127.775 0.315849 4.26833 0
M  V30 1405 C 127.101 -0.619586 5.31098 0
M  V30 1406 C 128.401 1.54282 4.98993 0
M  V30 1407 H 130.095 1.14621 2.76591 0
M  V30 1408 H 127.641 0.552613 1.32974 0
M  V30 1409 H 129.594 -0.879012 4.1213 0
M  V30 1410 H 128.318 -1.35299 2.97257 0
M  V30 1411 H 126.977 0.684664 3.6015 0
M  V30 1412 H 126.625 -1.47751 4.8081 0
M  V30 1413 H 126.325 -0.0830621 5.87541 0
M  V30 1414 H 127.849 -1.00375 6.02293 0
M  V30 1415 H 129.263 1.22796 5.59995 0
M  V30 1416 H 127.66 2.01745 5.65172 0
M  V30 1417 H 128.73 2.30285 4.26728 0
M  V30 1418 N 130.073 -1.45103 0.615059 0
M  V30 1419 C 131.313 -2.04069 0.116282 0
M  V30 1420 C 131.677 -1.4721 -1.2326 0
M  V30 1421 O 132.878 -1.97577 -1.82255 0
M  V30 1422 C 131.149 -3.57298 0.085482 0
M  V30 1423 S 132.708 -4.37394 -0.351015 0
M  V30 1424 H 129.526 -0.709006 0.0532183 0
M  V30 1425 H 132.128 -1.77709 0.81484 0
M  V30 1426 H 130.832 -3.9619 1.0706 0
M  V30 1427 H 130.363 -3.88244 -0.634835 0
M  V30 1428 H 132.378 -4.69734 -1.59889 0
M  V30 1429 N 131.551 -0.354651 -1.53558 0
M  V30 1430 C 132.797 0.238797 -2.01389 0
M  V30 1431 C 133.13 1.49309 -1.2418 0
M  V30 1432 O 132.405 1.91638 -0.332457 0
M  V30 1433 C 132.688 0.541771 -3.56001 0
M  V30 1434 C 132.541 -0.725388 -4.43912 0
M  V30 1435 C 133.86 1.34685 -4.18984 0
M  V30 1436 H 130.979 0.0853177 -0.732045 0
M  V30 1437 H 133.621 -0.477384 -1.83905 0
M  V30 1438 H 131.771 1.15189 -3.71031 0
M  V30 1439 H 133.443 -1.36313 -4.407 0
M  V30 1440 H 131.686 -1.34801 -4.12324 0
M  V30 1441 H 132.357 -0.468505 -5.50008 0
M  V30 1442 H 134.833 0.830837 -4.07721 0
M  V30 1443 H 133.709 1.52759 -5.27215 0
M  V30 1444 H 133.97 2.35221 -3.74331 0
M  V30 1445 N 133.029 1.57378 -0.0835403 0
M  V30 1446 C 133.977 2.14602 0.89714 0
M  V30 1447 C 134.971 1.08589 1.30018 0
M  V30 1448 O 136.177 1.26952 1.27606 0
M  V30 1449 H 132.552 0.686346 0.3073 0
M  V30 1450 H 134.523 2.95845 0.38969 0
M  V30 1451 C 133.272 2.73188 2.15089 0
M  V30 1452 H 132.595 3.54442 1.84962 0
M  V30 1453 H 134.035 3.1681 2.81793 0
M  V30 1454 C 132.494 1.68517 2.91725 0
M  V30 1455 O 133.024 1.11718 3.85852 0
M  V30 1456 N 131.23 1.39277 2.55049 0
M  V30 1457 H 130.777 1.85655 1.78577 0
M  V30 1458 H 130.735 0.694791 3.06627 0
M  V30 1459 N 134.507 -0.190092 1.56449 0
M  V30 1460 C 135.918 -0.754312 1.70784 0
M  V30 1461 C 136.269 -1.83631 0.690951 0
M  V30 1462 O 135.394 -2.15868 -0.151604 0
M  V30 1463 C 135.989 -1.37503 3.09642 0
M  V30 1464 C 134.548 -1.88628 3.25725 0
M  V30 1465 C 133.695 -0.758098 2.66736 0
M  V30 1466 H 136.646 0.0350524 1.58661 0
M  V30 1467 H 136.667 -2.2445 3.0725 0
M  V30 1468 H 136.179 -0.587302 3.83631 0
M  V30 1469 H 134.28 -2.70103 2.56661 0
M  V30 1470 H 134.393 -2.04462 4.3328 0
M  V30 1471 H 132.757 -1.17369 2.26046 0
M  V30 1472 H 133.54 0.0174705 3.43296 0
M  V30 1473 N 135.985 -1.50799 -0.457987 0
M  V30 1474 C 137.262 -1.52968 -1.21902 0
M  V30 1475 C 137.642 -0.281906 -2.09209 0
M  V30 1476 O 136.99 0.734076 -2.16388 0
M  V30 1477 C 137.2 -2.8326 -2.03875 0
M  V30 1478 C 138.548 -3.34425 -2.6162 0
M  V30 1479 O 139.572 -2.8467 -2.14106 0
M  V30 1480 O 138.431 -4.21188 -3.48228 0
M  V30 1481 H 135.525 -0.614129 -0.553873 0
M  V30 1482 H 138.071 -1.63098 -0.468739 0
M  V30 1483 H 136.843 -3.65543 -1.39621 0
M  V30 1484 H 136.466 -2.76195 -2.8601 0
M  V30 1485 N 137.463 0.71206 -1.40597 0
M  V30 1486 C 138.393 1.83889 -1.43899 0
M  V30 1487 C 139.374 1.67442 -0.299504 0
M  V30 1488 O 140.559 1.87421 -0.508624 0
M  V30 1489 C 137.689 3.21877 -1.30431 0
M  V30 1490 C 136.643 3.53002 -2.42019 0
M  V30 1491 C 135.969 4.90172 -2.13626 0
M  V30 1492 C 137.269 3.53643 -3.84362 0
M  V30 1493 H 138.963 1.81383 -2.38203 0
M  V30 1494 H 136.509 0.871237 -1.14654 0
M  V30 1495 H 138.462 4.00404 -1.31357 0
M  V30 1496 H 137.186 3.24968 -0.326049 0
M  V30 1497 H 135.845 2.76818 -2.40349 0
M  V30 1498 H 135.493 4.89869 -1.14182 0
M  V30 1499 H 135.193 5.11962 -2.88389 0
M  V30 1500 H 136.717 5.71028 -2.1624 0
M  V30 1501 H 138.131 4.22203 -3.87837 0
M  V30 1502 H 136.528 3.86961 -4.58673 0
M  V30 1503 H 137.598 2.52954 -4.13693 0
M  V30 1504 N 138.941 1.26152 0.944643 0
M  V30 1505 C 139.871 1.09902 2.06019 0
M  V30 1506 C 140.852 0.00519538 1.70099 0
M  V30 1507 O 142.037 0.176583 1.93396 0
M  V30 1508 C 139.167 0.727562 3.39594 0
M  V30 1509 C 138.121 1.77274 3.89561 0
M  V30 1510 C 137.447 1.25569 5.19747 0
M  V30 1511 C 138.747 3.17357 4.14827 0
M  V30 1512 H 140.441 2.03217 2.19871 0
M  V30 1513 H 137.987 0.978452 1.05652 0
M  V30 1514 H 139.94 0.600777 4.17095 0
M  V30 1515 H 138.664 -0.241287 3.25707 0
M  V30 1516 H 137.323 1.88814 3.14237 0
M  V30 1517 H 136.971 0.276783 5.02238 0
M  V30 1518 H 136.671 1.95433 5.54148 0
M  V30 1519 H 138.195 1.1415 5.99835 0
M  V30 1520 H 139.609 3.08914 4.82954 0
M  V30 1521 H 138.006 3.84781 4.60504 0
M  V30 1522 H 139.076 3.63673 3.20734 0
M  V30 1523 N 140.419 -1.14872 1.07899 0
M  V30 1524 C 141.644 -1.90202 0.826926 0
M  V30 1525 C 142.069 -1.77774 -0.614664 0
M  V30 1526 O 141.427 -1.11431 -1.43013 0
M  V30 1527 C 141.475 -3.38352 1.24702 0
M  V30 1528 O 140.579 -4.10497 0.39575 0
M  V30 1529 H 139.92 -0.591968 0.300782 0
M  V30 1530 H 142.45 -1.45437 1.43907 0
M  V30 1531 H 142.46 -3.89156 1.22563 0
M  V30 1532 H 141.135 -3.46715 2.29698 0
M  V30 1533 H 139.712 -3.69796 0.480117 0
M  V30 1534 N 141.898 -0.863906 -1.31812 0
M  V30 1535 C 143.123 -0.48527 -2.01643 0
M  V30 1536 C 143.548 0.913058 -1.64453 0
M  V30 1537 O 142.906 1.6014 -0.849985 0
M  V30 1538 C 142.954 -0.642625 -3.54828 0
M  V30 1539 O 142.058 0.320659 -4.11151 0
M  V30 1540 H 141.399 -0.193793 -0.635091 0
M  V30 1541 H 143.929 -1.16565 -1.68148 0
M  V30 1542 H 143.939 -0.533628 -4.04495 0
M  V30 1543 H 142.614 -1.66227 -3.81237 0
M  V30 1544 H 141.191 0.167126 -3.72525 0
M  V30 1545 N 143.376 1.44774 -0.622745 0
M  V30 1546 C 144.787 1.85546 -0.207226 0
M  V30 1547 C 145.138 1.52093 1.23944 0
M  V30 1548 O 144.263 0.95492 1.94191 0
M  V30 1549 C 144.858 3.36781 -0.369313 0
M  V30 1550 C 143.417 3.76399 -0.00836847 0
M  V30 1551 C 142.564 2.68664 -0.686651 0
M  V30 1552 H 145.515 1.3536 -0.828454 0
M  V30 1553 H 145.536 3.78453 0.394162 0
M  V30 1554 H 145.048 3.61098 -1.42231 0
M  V30 1555 H 143.149 3.57698 1.04322 0
M  V30 1556 H 143.262 4.7732 -0.412584 0
M  V30 1557 H 141.626 2.54404 -0.122777 0
M  V30 1558 H 142.409 2.95815 -1.74208 0
M  V30 1559 N 144.854 0.36279 1.53368 0
M  V30 1560 C 145.802 -0.500155 2.27159 0
M  V30 1561 C 146.796 -1.08575 1.3003 0
M  V30 1562 O 148.002 -1.02927 1.47668 0
M  V30 1563 H 144.377 -0.180009 0.730138 0
M  V30 1564 H 146.348 0.14401 2.98052 0
M  V30 1565 C 145.097 -1.62937 3.07159 0
M  V30 1566 H 144.42 -1.18806 3.8174 0
M  V30 1567 H 145.86 -2.20795 3.61975 0
M  V30 1568 C 144.319 -2.57007 2.17829 0
M  V30 1569 O 144.849 -3.59752 1.78721 0
M  V30 1570 N 143.055 -2.26131 1.82518 0
M  V30 1571 H 142.602 -1.42616 2.14519 0
M  V30 1572 H 142.56 -2.89327 1.23034 0
M  V30 1573 N 146.332 -1.57332 0.0918853 0
M  V30 1574 C 147.579 -1.94236 -0.572577 0
M  V30 1575 C 147.907 -0.973398 -1.6839 0
M  V30 1576 O 147.162 0.00756912 -1.95699 0
M  V30 1577 C 147.461 -3.37689 -1.17051 0
M  V30 1578 C 147.127 -4.50527 -0.183304 0
M  V30 1579 C 145.789 -4.81119 0.0882276 0
M  V30 1580 C 148.141 -5.18883 0.49095 0
M  V30 1581 C 145.469 -5.77395 1.04076 0
M  V30 1582 C 147.821 -6.1618 1.43193 0
M  V30 1583 C 146.485 -6.45179 1.71173 0
M  V30 1584 H 145.755 -0.710762 -0.209521 0
M  V30 1585 H 148.402 -1.9077 0.167036 0
M  V30 1586 H 146.707 -3.37718 -1.9863 0
M  V30 1587 H 148.404 -3.63543 -1.69227 0
M  V30 1588 H 144.994 -4.26681 -0.405124 0
M  V30 1589 H 149.178 -4.95427 0.294312 0
M  V30 1590 H 144.434 -5.98179 1.26457 0
M  V30 1591 H 148.608 -6.68243 1.96023 0
M  V30 1592 H 146.235 -7.1959 2.4514 0
M  V30 1593 N 147.81 0.181792 -1.56548 0
M  V30 1594 C 149.221 0.745244 -1.71181 0
M  V30 1595 C 149.572 1.83262 -0.70068 0
M  V30 1596 O 148.697 2.15946 0.140154 0
M  V30 1597 C 149.292 1.35859 -3.10367 0
M  V30 1598 C 147.851 1.86898 -3.2672 0
M  V30 1599 C 146.998 0.743942 -2.67134 0
M  V30 1600 H 149.949 -0.0434661 -1.5864 0
M  V30 1601 H 149.97 2.22817 -3.08436 0
M  V30 1602 H 149.482 0.566948 -3.83937 0
M  V30 1603 H 147.583 2.68738 -2.5809 0
M  V30 1604 H 147.696 2.02162 -4.34359 0
M  V30 1605 H 146.06 1.16169 -2.26665 0
M  V30 1606 H 146.843 -0.035676 -3.43281 0
M  V30 1607 N 149.288 1.51039 0.449983 0
M  V30 1608 C 150.565 1.53612 1.21089 0
M  V30 1609 C 150.945 0.292997 2.09057 0
M  V30 1610 O 150.293 -0.72259 2.16774 0
M  V30 1611 C 150.503 2.84337 2.0237 0
M  V30 1612 C 151.851 3.35807 2.59843 0
M  V30 1613 O 152.875 2.85802 2.12593 0
M  V30 1614 O 151.734 4.23029 3.45989 0
M  V30 1615 H 148.828 0.617057 0.550608 0
M  V30 1616 H 151.374 1.63344 0.460082 0
M  V30 1617 H 150.146 3.66278 1.37681 0
M  V30 1618 H 149.769 2.77708 2.84542 0
M  V30 1619 N 150.766 -0.704594 1.40972 0
M  V30 1620 C 152.043 -1.45847 1.30338 0
M  V30 1621 C 152.423 -2.10973 -0.0732344 0
M  V30 1622 O 151.771 -2.00997 -1.08685 0
M  V30 1623 C 151.981 -2.48525 2.45023 0
M  V30 1624 C 153.329 -3.1404 2.8577 0
M  V30 1625 O 154.353 -2.58848 2.44696 0
M  V30 1626 O 153.212 -4.13981 3.56766 0
M  V30 1627 H 150.306 -0.649092 0.512454 0
M  V30 1628 H 152.852 -0.735836 1.52917 0
M  V30 1629 H 151.624 -1.98994 3.36923 0
M  V30 1630 H 151.247 -3.2831 2.24272 0
M  V30 1631 N 152.244 -1.26651 -0.937939 0
M  V30 1632 C 153.207 -1.08546 -2.01867 0
M  V30 1633 C 154.207 -0.0327327 -1.60767 0
M  V30 1634 O 155.397 -0.276427 -1.71993 0
M  V30 1635 C 152.529 -0.651711 -3.34613 0
M  V30 1636 H 153.722 -2.04502 -2.1936 0
M  V30 1637 H 151.275 -1.09294 -1.11734 0
M  V30 1638 H 152.01 0.309696 -3.22818 0
M  V30 1639 H 151.795 -1.41189 -3.65798 0
M  V30 1640 H 153.285 -0.546973 -4.14002 0
M  V30 1641 N 153.722 1.14298 -1.08507 0
M  V30 1642 C 154.669 2.19414 -0.715965 0
M  V30 1643 C 155.639 1.63399 0.298326 0
M  V30 1644 O 156.824 1.89929 0.182101 0
M  V30 1645 C 153.964 3.44845 -0.132534 0
M  V30 1646 C 153.077 4.15007 -1.19973 0
M  V30 1647 C 152.212 5.28024 -0.580048 0
M  V30 1648 C 151.251 5.9002 -1.62921 0
M  V30 1649 N 150.388 6.94485 -1.03125 0
M  V30 1650 H 155.228 2.50336 -1.61666 0
M  V30 1651 H 152.765 1.2293 -0.807882 0
M  V30 1652 H 154.723 4.16601 0.223454 0
M  V30 1653 H 153.353 3.14403 0.731467 0
M  V30 1654 H 152.405 3.41629 -1.67313 0
M  V30 1655 H 153.717 4.57178 -1.99473 0
M  V30 1656 H 152.871 6.06455 -0.172364 0
M  V30 1657 H 151.61 4.87076 0.246603 0
M  V30 1658 H 150.615 5.10291 -2.04654 0
M  V30 1659 H 151.84 6.33042 -2.45835 0
M  V30 1660 H 149.786 6.55612 -0.225711 0
M  V30 1661 H 149.703 7.35148 -1.76334 0
M  V30 1662 H 150.971 7.7679 -0.649458 0
M  V30 1663 N 155.201 0.870884 1.31352 0
M  V30 1664 C 156.148 0.325425 2.28494 0
M  V30 1665 C 157.118 -0.576615 1.5577 0
M  V30 1666 O 158.303 -0.508059 1.83911 0
M  V30 1667 C 155.443 -0.466283 3.41935 0
M  V30 1668 C 154.556 0.463378 4.29508 0
M  V30 1669 C 153.691 -0.342544 5.30094 0
M  V30 1670 C 152.73 0.583486 6.09313 0
M  V30 1671 N 151.867 -0.186244 7.01853 0
M  V30 1672 H 156.707 1.15901 2.74538 0
M  V30 1673 H 154.244 0.58294 1.35056 0
M  V30 1674 H 156.202 -0.941085 4.06447 0
M  V30 1675 H 154.832 -1.26456 2.97 0
M  V30 1676 H 153.884 1.05663 3.65431 0
M  V30 1677 H 155.196 1.1734 4.84802 0
M  V30 1678 H 154.35 -0.879816 6.00287 0
M  V30 1679 H 153.089 -1.08585 4.75458 0
M  V30 1680 H 152.094 1.13251 5.3801 0
M  V30 1681 H 153.319 1.32566 6.66035 0
M  V30 1682 H 151.265 -0.912348 6.49625 0
M  V30 1683 H 151.182 0.464422 7.54572 0
M  V30 1684 H 152.45 -0.704716 7.76308 0
M  V30 1685 N 156.679 -1.44442 0.630414 0
M  V30 1686 C 158.095 -1.56832 0.295973 0
M  V30 1687 C 158.295 -1.61806 -1.20088 0
M  V30 1688 O 157.351 -1.5607 -1.9849 0
M  V30 1689 C 158.664 -2.84031 0.987264 0
M  V30 1690 C 160.212 -2.97742 0.96534 0
M  V30 1691 C 160.687 -4.27743 1.63708 0
M  V30 1692 N 162.178 -4.34555 1.60364 0
M  V30 1693 C 162.913 -5.33862 2.09234 0
M  V30 1694 N 162.409 -6.39578 2.66292 0
M  V30 1695 N 164.202 -5.25366 1.99867 0
M  V30 1696 H 156.353 -1.39457 1.60205 0
M  V30 1697 H 158.616 -0.668237 0.672431 0
M  V30 1698 H 158.322 -2.86338 2.04215 0
M  V30 1699 H 158.196 -3.73534 0.524588 0
M  V30 1700 H 160.583 -2.94989 -0.0810639 0
M  V30 1701 H 160.664 -2.09589 1.4665 0
M  V30 1702 H 160.308 -4.31255 2.68293 0
M  V30 1703 H 160.238 -5.14752 1.11076 0
M  V30 1704 H 162.729 -3.58772 1.18705 0
M  V30 1705 H 163.042 -7.11637 3.01317 0
M  V30 1706 H 161.387 -6.40265 2.70343 0
M  V30 1707 H 164.578 -4.41688 1.55013 0
M  V30 1708 H 164.751 -6.02606 2.38265 0
M  V30 1709 N 158.157 -0.370918 -1.53173 0
M  V30 1710 C 159.12 0.460778 -2.24521 0
M  V30 1711 C 160.12 1.00536 -1.25496 0
M  V30 1712 O 161.31 0.890266 -1.49733 0
M  V30 1713 C 158.442 1.64457 -2.98608 0
M  V30 1714 H 159.635 -0.163613 -2.99453 0
M  V30 1715 H 157.188 -0.122699 -1.55818 0
M  V30 1716 H 157.923 2.30691 -2.2793 0
M  V30 1717 H 157.708 1.26099 -3.7127 0
M  V30 1718 H 159.198 2.23384 -3.5283 0
M  V30 1719 N 159.635 1.57281 -0.100228 0
M  V30 1720 C 160.545 2.17833 0.870965 0
M  V30 1721 C 161.561 1.14921 1.30649 0
M  V30 1722 O 162.737 1.47313 1.37335 0
M  V30 1723 C 159.802 2.75085 2.1102 0
M  V30 1724 C 158.863 3.9297 1.72838 0
M  V30 1725 C 158.096 4.47482 2.90854 0
M  V30 1726 O 158.319 4.00922 4.05731 0
M  V30 1727 O 157.253 5.38433 2.69023 0
M  V30 1728 H 161.079 3.0124 0.38575 0
M  V30 1729 H 158.664 1.48881 0.124397 0
M  V30 1730 H 160.546 3.11656 2.83634 0
M  V30 1731 H 159.221 1.94721 2.58584 0
M  V30 1732 H 158.128 3.61201 0.973883 0
M  V30 1733 H 159.461 4.74713 1.30033 0
M  V30 1734 N 161.113 -0.173488 1.56642 0
M  V30 1735 C 162.529 -0.525174 1.50712 0
M  V30 1736 C 162.729 -1.8476 0.804107 0
M  V30 1737 O 161.785 -2.49869 0.363574 0
M  V30 1738 C 163.098 -0.559937 2.95441 0
M  V30 1739 C 164.646 -0.647288 3.06234 0
M  V30 1740 C 165.121 -0.712963 4.52417 0
M  V30 1741 N 166.612 -0.775911 4.56655 0
M  V30 1742 C 167.347 -0.847264 5.67106 0
M  V30 1743 N 166.843 -0.879585 6.87194 0
M  V30 1744 N 168.636 -0.886117 5.55071 0
M  V30 1745 H 160.787 0.693681 2.00753 0
M  V30 1746 H 163.05 0.249841 0.914485 0
M  V30 1747 H 162.756 0.343049 3.50023 0
M  V30 1748 H 162.63 -1.40718 3.49969 0
M  V30 1749 H 165.017 -1.5407 2.51687 0
M  V30 1750 H 165.098 0.226586 2.54794 0
M  V30 1751 H 164.742 0.176183 5.07594 0
M  V30 1752 H 164.672 -1.60295 5.0161 0
M  V30 1753 H 167.163 -0.759304 3.70193 0
M  V30 1754 H 167.476 -0.935144 7.67121 0
M  V30 1755 H 165.821 -0.847898 6.89808 0
M  V30 1756 H 169.012 -0.857853 4.60172 0
M  V30 1757 H 169.185 -0.938263 6.41171 0
M  V30 1758 N 162.591 -1.51276 -0.441967 0
M  V30 1759 C 163.84 -1.6295 -1.18871 0
M  V30 1760 C 164.153 -0.349312 -1.92456 0
M  V30 1761 O 165.359 -0.345355 -2.69295 0
M  V30 1762 C 163.815 -2.87759 -2.16155 0
M  V30 1763 C 163.423 -4.22764 -1.48239 0
M  V30 1764 C 165.167 -3.08788 -2.91291 0
M  V30 1765 C 163.074 -5.38728 -2.4398 0
M  V30 1766 H 162.004 -0.606913 -0.447406 0
M  V30 1767 H 164.655 -1.77739 -0.456205 0
M  V30 1768 H 163.037 -2.66593 -2.92821 0
M  V30 1769 H 164.211 -4.54293 -0.771635 0
M  V30 1770 H 162.526 -4.07575 -0.852741 0
M  V30 1771 H 165.123 -3.92599 -3.63002 0
M  V30 1772 H 165.466 -2.21679 -3.5237 0
M  V30 1773 H 165.999 -3.30272 -2.21733 0
M  V30 1774 H 162.738 -6.28082 -1.87598 0
M  V30 1775 H 162.258 -5.1158 -3.13123 0
M  V30 1776 H 163.937 -5.70489 -3.05207 0
M  V30 1777 N 164.069 0.697108 -1.41344 0
M  V30 1778 C 164.999 1.82353 -1.45841 0
M  V30 1779 C 165.98 1.67115 -0.317247 0
M  V30 1780 O 167.165 1.86871 -0.528474 0
M  V30 1781 C 164.295 3.20476 -1.33838 0
M  V30 1782 C 163.249 3.50415 -2.4575 0
M  V30 1783 C 162.575 4.87878 -2.18813 0
M  V30 1784 C 163.875 3.49546 -3.88091 0
M  V30 1785 H 165.569 1.78846 -2.40113 0
M  V30 1786 H 163.115 0.859028 -1.15571 0
M  V30 1787 H 165.068 3.98988 -1.35596 0
M  V30 1788 H 163.792 3.24604 -0.360498 0
M  V30 1789 H 162.451 2.74253 -2.43271 0
M  V30 1790 H 162.099 4.8863 -1.19371 0
M  V30 1791 H 161.799 5.08875 -2.93803 0
M  V30 1792 H 163.323 5.68702 -2.22284 0
M  V30 1793 H 164.737 4.18066 -3.92293 0
M  V30 1794 H 163.134 3.82075 -4.62751 0
M  V30 1795 H 164.204 2.48552 -4.16353 0
M  V30 1796 N 165.547 1.27147 0.931209 0
M  V30 1797 C 166.479 1.05364 2.03546 0
M  V30 1798 C 167.492 0.0108438 1.62796 0
M  V30 1799 O 168.681 0.25202 1.76712 0
M  V30 1800 C 165.781 0.575566 3.33977 0
M  V30 1801 C 164.954 1.68985 4.03439 0
M  V30 1802 C 164.013 1.20813 5.12143 0
M  V30 1803 O 163.039 1.90712 5.363 0
M  V30 1804 N 164.241 0.0618851 5.80467 0
M  V30 1805 H 167.006 2.00454 2.22796 0
M  V30 1806 H 164.567 1.18666 1.10136 0
M  V30 1807 H 166.559 0.237264 4.04004 0
M  V30 1808 H 165.129 -0.282016 3.11325 0
M  V30 1809 H 164.349 2.19861 3.27192 0
M  V30 1810 H 165.637 2.4378 4.46597 0
M  V30 1811 H 165.035 -0.521621 5.6329 0
M  V30 1812 H 163.592 -0.217264 6.51438 0
M  V30 1813 N 167.025 -1.13721 1.09112 0
M  V30 1814 C 167.988 -2.17222 0.731241 0
M  V30 1815 C 168.988 -1.59035 -0.237566 0
M  V30 1816 O 170.178 -1.74192 -0.0161704 0
M  V30 1817 C 167.31 -3.40804 0.0808443 0
M  V30 1818 H 168.503 -2.50573 1.64783 0
M  V30 1819 H 166.056 -1.28493 0.889897 0
M  V30 1820 H 166.791 -3.1304 -0.847127 0
M  V30 1821 H 166.576 -3.84306 0.777896 0
M  V30 1822 H 168.066 -4.1731 -0.155657 0
M  V30 1823 N 168.503 -0.877838 -1.30888 0
M  V30 1824 C 169.743 -0.499301 -1.98208 0
M  V30 1825 C 170.107 0.932649 -1.67826 0
M  V30 1826 O 171.308 1.41694 -2.28421 0
M  V30 1827 C 169.579 -0.758221 -3.49265 0
M  V30 1828 S 171.138 -0.480719 -4.36159 0
M  V30 1829 H 167.956 -0.186062 -0.686223 0
M  V30 1830 H 170.558 -1.13556 -1.59139 0
M  V30 1831 H 169.262 -1.79903 -3.68867 0
M  V30 1832 H 168.793 -0.109247 -3.93248 0
M  V30 1833 H 170.808 0.683698 -4.91467 0
M  V30 1834 N 169.982 1.44106 -0.638065 0
M  V30 1835 C 171.23 2.01579 -0.145043 0
M  V30 1836 C 171.551 1.50496 1.24 0
M  V30 1837 O 170.821 0.711374 1.82527 0
M  V30 1838 H 169.401 0.745282 -0.05063 0
M  V30 1839 H 172.063 1.76516 -0.826327 0
M  V30 1840 H 171.159 3.11877 -0.118039 0
M  V30 1841 N 171.46 0.379036 1.52974 0
M  V30 1842 C 172.708 -0.206014 2.01047 0
M  V30 1843 C 173.029 -1.48175 1.26765 0
M  V30 1844 O 172.299 -1.92085 0.384743 0
M  V30 1845 H 170.879 -0.0791184 0.742798 0
M  V30 1846 H 173.541 0.508366 1.88153 0
M  V30 1847 H 172.637 -0.423501 3.09213 0
M  V30 1848 N 172.938 -1.57226 0.108567 0
M  V30 1849 C 173.888 -2.11305 -0.856396 0
M  V30 1850 C 174.872 -1.03129 -1.23504 0
M  V30 1851 O 176.064 -1.29381 -1.20787 0
M  V30 1852 C 173.193 -2.70771 -2.11041 0
M  V30 1853 C 172.279 -3.86011 -1.7566 0
M  V30 1854 N 172.67 -4.93492 -1.10902 0
M  V30 1855 C 170.968 -3.95999 -2.05185 0
M  V30 1856 C 171.669 -5.73984 -0.944308 0
M  V30 1857 N 170.645 -5.2346 -1.46596 0
M  V30 1858 H 174.447 -2.91784 -0.352002 0
M  V30 1859 H 171.961 -1.62126 -0.0942324 0
M  V30 1860 H 173.958 -3.07851 -2.81128 0
M  V30 1861 H 172.618 -1.91751 -2.62034 0
M  V30 1862 H 173.629 -5.1208 -0.774235 0
M  V30 1863 H 170.306 -3.28007 -2.58298 0
M  V30 1864 H 171.696 -6.70479 -0.436813 0
M  V30 1865 N 174.416 0.165178 -1.56732 0
M  V30 1866 C 175.641 0.900253 -1.86843 0
M  V30 1867 C 176.066 1.74766 -0.695596 0
M  V30 1868 O 175.424 1.77786 0.35522 0
M  V30 1869 C 175.472 1.74777 -3.15413 0
M  V30 1870 O 174.576 2.85007 -2.98068 0
M  V30 1871 H 173.917 0.251832 -0.614391 0
M  V30 1872 H 176.447 0.161468 -2.03962 0
M  V30 1873 H 176.457 2.14646 -3.46974 0
M  V30 1874 H 175.132 1.12537 -4.00385 0
M  V30 1875 H 173.709 2.48676 -2.77875 0
M  V30 1876 N 175.894 1.51508 0.433938 0
M  V30 1877 C 176.824 1.76016 1.53429 0
M  V30 1878 C 177.805 0.610112 1.58782 0
M  V30 1879 O 178.99 0.853177 1.74455 0
M  V30 1880 C 176.12 1.88831 2.9148 0
M  V30 1881 C 175.074 3.04288 3.00987 0
M  V30 1882 C 174.4 3.0229 4.4105 0
M  V30 1883 C 175.7 4.44193 2.74754 0
M  V30 1884 H 177.394 2.68152 1.33171 0
M  V30 1885 H 174.94 1.29035 0.639214 0
M  V30 1886 H 176.893 2.04559 3.6842 0
M  V30 1887 H 175.617 0.933455 3.12976 0
M  V30 1888 H 174.276 2.8827 2.26486 0
M  V30 1889 H 173.924 2.04576 4.59519 0
M  V30 1890 H 173.624 3.79822 4.4834 0
M  V30 1891 H 175.148 3.20116 5.1996 0
M  V30 1892 H 176.562 4.60544 3.41426 0
M  V30 1893 H 174.959 5.23457 2.9345 0
M  V30 1894 H 176.029 4.53996 1.70339 0
M  V30 1895 N 177.372 -0.689602 1.41712 0
M  V30 1896 C 178.62 -1.4468 1.4111 0
M  V30 1897 C 178.941 -1.94986 0.0232196 0
M  V30 1898 O 178.211 -1.72097 -0.935913 0
M  V30 1899 H 176.791 -0.536847 0.519427 0
M  V30 1900 H 179.453 -0.815825 1.77004 0
M  V30 1901 H 178.549 -2.30706 2.10193 0
M  V30 1902 N 178.85 -1.27639 -0.924453 0
M  V30 1903 C 179.813 -1.10681 -2.00705 0
M  V30 1904 C 180.813 -0.0497823 -1.60723 0
M  V30 1905 O 182.003 -0.294654 -1.7169 0
M  V30 1906 C 179.135 -0.687164 -3.33902 0
M  V30 1907 H 180.328 -2.06817 -2.17179 0
M  V30 1908 H 177.881 -1.10473 -1.10569 0
M  V30 1909 H 178.616 0.275439 -3.23128 0
M  V30 1910 H 178.401 -1.45061 -3.6428 0
M  V30 1911 H 179.891 -0.590853 -4.13399 0
M  V30 1912 N 180.328 1.1314 -1.09713 0
M  V30 1913 C 181.558 1.88048 -0.855656 0
M  V30 1914 C 181.966 1.79537 0.596919 0
M  V30 1915 O 181.309 1.16196 1.42282 0
M  V30 1916 C 181.371 3.38314 -1.21589 0
M  V30 1917 C 181.035 3.70605 -2.67397 0
M  V30 1918 C 182.032 3.69596 -3.65643 0
M  V30 1919 C 179.717 4.0017 -3.03593 0
M  V30 1920 C 181.711 3.977 -4.9811 0
M  V30 1921 C 179.398 4.27935 -4.36251 0
M  V30 1922 C 180.396 4.26685 -5.33318 0
M  V30 1923 O 180.084 4.53767 -6.63589 0
M  V30 1924 H 179.816 0.60208 -0.307368 0
M  V30 1925 H 182.37 1.44128 -1.46343 0
M  V30 1926 H 180.6 3.82752 -0.551177 0
M  V30 1927 H 182.289 3.94552 -0.953083 0
M  V30 1928 H 183.055 3.46826 -3.39023 0
M  V30 1929 H 178.934 4.00289 -2.2867 0
M  V30 1930 H 182.478 3.9664 -5.73866 0
M  V30 1931 H 178.375 4.50178 -4.62613 0
M  V30 1932 H 179.143 4.71422 -6.69107 0
M  V30 1933 N 181.806 0.884767 1.30421 0
M  V30 1934 C 183.031 0.517288 2.00845 0
M  V30 1935 C 183.456 -0.886779 1.65885 0
M  V30 1936 O 182.814 -1.58768 0.875354 0
M  V30 1937 C 182.862 0.698994 3.5376 0
M  V30 1938 O 181.966 -0.255208 4.1161 0
M  V30 1939 H 181.307 0.203872 0.631927 0
M  V30 1940 H 183.837 1.19225 1.66272 0
M  V30 1941 H 183.847 0.597912 4.03595 0
M  V30 1942 H 182.522 1.72271 3.78544 0
M  V30 1943 H 181.099 -0.10784 3.72744 0
M  V30 1944 N 183.284 -1.43765 0.645699 0
M  V30 1945 C 184.53 -2.02197 0.156271 0
M  V30 1946 C 184.863 -1.50776 -1.22393 0
M  V30 1947 O 184.138 -0.697771 -1.81553 0
M  V30 1948 C 184.421 -3.59749 0.158872 0
M  V30 1949 C 184.274 -4.21419 1.57245 0
M  V30 1950 C 185.593 -4.37149 -0.50879 0
M  V30 1951 H 182.712 -0.734694 0.0582602 0
M  V30 1952 H 185.354 -1.71157 0.824951 0
M  V30 1953 H 183.504 -3.86325 -0.410525 0
M  V30 1954 H 185.176 -4.059 2.19186 0
M  V30 1955 H 183.419 -3.78356 2.122 0
M  V30 1956 H 184.09 -5.30482 1.52619 0
M  V30 1957 H 186.566 -4.16093 -0.024412 0
M  V30 1958 H 185.442 -5.4683 -0.476213 0
M  V30 1959 H 185.703 -4.12839 -1.58165 0
M  V30 1960 N 184.763 -0.387143 -1.52771 0
M  V30 1961 C 185.988 0.198407 -2.06449 0
M  V30 1962 C 186.413 1.39918 -1.25716 0
M  V30 1963 O 185.771 1.79099 -0.281657 0
M  V30 1964 C 185.819 0.548893 -3.56398 0
M  V30 1965 O 184.923 1.64315 -3.78252 0
M  V30 1966 H 184.264 0.0237731 -0.663574 0
M  V30 1967 H 186.794 -0.553989 -1.96957 0
M  V30 1968 H 186.804 0.813812 -3.99801 0
M  V30 1969 H 185.479 -0.329005 -4.14597 0
M  V30 1970 H 184.056 1.37211 -3.46738 0
M  V30 1971 N 186.241 1.57166 -0.116904 0
M  V30 1972 C 187.466 1.999 0.55271 0
M  V30 1973 C 187.891 0.996039 1.59564 0
M  V30 1974 O 187.249 -0.032556 1.81271 0
M  V30 1975 C 187.297 3.4152 1.15742 0
M  V30 1976 O 186.401 3.44106 2.27299 0
M  V30 1977 H 185.742 0.649447 0.138258 0
M  V30 1978 H 188.272 2.03573 -0.204759 0
M  V30 1979 H 188.282 3.79684 1.49346 0
M  V30 1980 H 186.957 4.14034 0.393493 0
M  V30 1981 H 185.534 3.17759 1.9515 0
M  V30 1982 N 187.719 -0.156864 1.56817 0
M  V30 1983 C 188.967 -0.869404 1.82444 0
M  V30 1984 C 189.288 -1.82147 0.69623 0
M  V30 1985 O 188.558 -1.93847 -0.28287 0
M  V30 1986 H 187.138 -0.324043 0.673056 0
M  V30 1987 H 189.8 -0.153224 1.94297 0
M  V30 1988 H 188.896 -1.43761 2.77019 0
M  V30 1989 N 189.197 -1.51736 -0.425897 0
M  V30 1990 C 190.446 -1.64201 -1.17136 0
M  V30 1991 C 190.759 -0.369705 -1.92074 0
M  V30 1992 O 191.965 -0.373898 -2.68913 0
M  V30 1993 C 190.421 -2.90035 -2.13091 0
M  V30 1994 C 190.029 -4.24312 -1.43747 0
M  V30 1995 C 191.773 -3.1186 -2.87999 0
M  V30 1996 C 189.68 -5.41285 -2.38253 0
M  V30 1997 H 188.61 -0.611624 -0.440944 0
M  V30 1998 H 191.261 -1.78212 -0.437328 0
M  V30 1999 H 189.643 -2.69684 -2.89977 0
M  V30 2000 H 190.817 -4.55086 -0.723408 0
M  V30 2001 H 189.132 -4.08456 -0.809465 0
M  V30 2002 H 191.729 -3.96427 -3.58817 0
M  V30 2003 H 192.072 -2.25403 -3.49999 0
M  V30 2004 H 192.605 -3.32605 -2.18217 0
M  V30 2005 H 189.344 -6.30037 -1.80925 0
M  V30 2006 H 188.864 -5.14872 -3.0768 0
M  V30 2007 H 190.543 -5.73694 -2.99139 0
M  V30 2008 N 190.675 0.682077 -1.42076 0
M  V30 2009 C 191.607 1.80755 -1.40926 0
M  V30 2010 C 192.62 1.59833 -0.309398 0
M  V30 2011 O 193.809 1.69087 -0.572014 0
M  V30 2012 C 190.909 3.17744 -1.17865 0
M  V30 2013 C 190.082 3.65578 -2.40149 0
M  V30 2014 C 189.141 4.81277 -2.12742 0
M  V30 2015 O 188.167 4.92197 -2.85887 0
M  V30 2016 N 189.369 5.69474 -1.12602 0
M  V30 2017 H 192.134 1.82229 -2.37935 0
M  V30 2018 H 189.695 0.864903 -1.36861 0
M  V30 2019 H 191.687 3.9279 -0.9746 0
M  V30 2020 H 190.257 3.11214 -0.294068 0
M  V30 2021 H 189.477 2.81291 -2.76169 0
M  V30 2022 H 190.765 3.94278 -3.21593 0
M  V30 2023 H 190.163 5.63297 -0.520899 0
M  V30 2024 H 188.72 6.44363 -0.981842 0
M  V30 2025 N 192.153 1.28127 0.917671 0
M  V30 2026 C 193.083 1.14248 2.03641 0
M  V30 2027 C 194.064 0.0412748 1.7005 0
M  V30 2028 O 195.249 0.217566 1.92977 0
M  V30 2029 C 192.379 0.799431 3.37974 0
M  V30 2030 C 191.333 1.85497 3.85713 0
M  V30 2031 C 190.659 1.36565 5.16966 0
M  V30 2032 C 191.959 3.26085 4.08002 0
M  V30 2033 H 193.653 2.07835 2.15511 0
M  V30 2034 H 191.199 1.00064 1.03553 0
M  V30 2035 H 193.152 0.689114 4.15727 0
M  V30 2036 H 191.876 -0.172145 3.26146 0
M  V30 2037 H 190.535 1.95437 3.10161 0
M  V30 2038 H 190.183 0.383253 5.01538 0
M  V30 2039 H 189.883 2.07143 5.49878 0
M  V30 2040 H 191.407 1.26848 5.97279 0
M  V30 2041 H 192.821 3.19089 4.76293 0
M  V30 2042 H 191.218 3.94462 4.52238 0
M  V30 2043 H 192.288 3.70394 3.12948 0
M  V30 2044 N 193.631 -1.12557 1.10312 0
M  V30 2045 C 194.88 -1.83395 0.839588 0
M  V30 2046 C 195.193 -1.84939 -0.636929 0
M  V30 2047 O 196.399 -2.51761 -1.01631 0
M  V30 2048 C 194.855 -3.29303 1.45215 0
M  V30 2049 C 194.463 -3.36122 2.96186 0
M  V30 2050 C 196.207 -4.05121 1.26796 0
M  V30 2051 C 194.114 -4.76357 3.50483 0
M  V30 2052 H 193.044 -0.687133 0.310425 0
M  V30 2053 H 195.695 -1.26746 1.32694 0
M  V30 2054 H 194.077 -3.85812 0.892469 0
M  V30 2055 H 195.251 -2.89559 3.58458 0
M  V30 2056 H 193.566 -2.73776 3.13745 0
M  V30 2057 H 196.163 -5.08668 1.64806 0
M  V30 2058 H 196.506 -4.15773 0.209409 0
M  V30 2059 H 197.039 -3.54967 1.79563 0
M  V30 2060 H 193.778 -4.70899 4.55998 0
M  V30 2061 H 193.298 -5.23377 2.92978 0
M  V30 2062 H 194.977 -5.45294 3.48228 0
M  V30 2063 N 195.109 -0.891671 -1.2995 0
M  V30 2064 C 196.525 -0.58662 -1.48428 0
M  V30 2065 C 196.725 0.873951 -1.81561 0
M  V30 2066 O 195.781 1.65471 -1.90724 0
M  V30 2067 C 197.094 -1.50553 -2.60296 0
M  V30 2068 C 198.642 -1.50988 -2.74175 0
M  V30 2069 C 199.117 -2.41488 -3.89163 0
M  V30 2070 N 200.608 -2.39489 -3.96483 0
M  V30 2071 C 201.343 -3.06223 -4.84784 0
M  V30 2072 N 200.839 -3.82206 -5.77833 0
M  V30 2073 N 202.632 -2.95421 -4.78208 0
M  V30 2074 H 194.783 -1.83644 -1.06718 0
M  V30 2075 H 197.046 -0.786455 -0.529332 0
M  V30 2076 H 196.752 -2.54581 -2.42654 0
M  V30 2077 H 196.626 -1.22008 -3.56923 0
M  V30 2078 H 199.013 -0.47708 -2.91218 0
M  V30 2079 H 199.094 -1.83567 -1.78148 0
M  V30 2080 H 198.738 -3.44857 -3.72876 0
M  V30 2081 H 198.668 -2.06222 -4.84541 0
M  V30 2082 H 201.159 -1.84278 -3.29924 0
M  V30 2083 H 201.472 -4.302 -6.41988 0
M  V30 2084 H 199.817 -3.86313 -5.77743 0
M  V30 2085 H 203.008 -2.35581 -4.04499 0
M  V30 2086 H 203.181 -3.47704 -5.46814 0
M  V30 2087 N 196.587 1.43421 -0.653314 0
M  V30 2088 C 197.497 2.34568 0.0388565 0
M  V30 2089 C 198.513 1.53888 0.81207 0
M  V30 2090 O 199.689 1.86539 0.759294 0
M  V30 2091 C 196.754 3.32167 0.993269 0
M  V30 2092 C 195.815 4.28751 0.216977 0
M  V30 2093 C 195.048 5.21688 1.12593 0
M  V30 2094 O 195.271 5.19052 2.36519 0
M  V30 2095 O 194.205 5.98919 0.598284 0
M  V30 2096 H 198.031 2.95251 -0.711386 0
M  V30 2097 H 195.616 1.43564 -0.413502 0
M  V30 2098 H 197.498 3.92183 1.54176 0
M  V30 2099 H 196.173 2.73987 1.72374 0
M  V30 2100 H 195.08 3.72215 -0.375101 0
M  V30 2101 H 196.413 4.89913 -0.473924 0
M  V30 2102 N 198.065 0.39524 1.52563 0
M  V30 2103 C 199.342 -0.242908 1.94086 0
M  V30 2104 C 199.722 -1.63841 1.33114 0
M  V30 2105 O 199.07 -2.22928 0.501529 0
M  V30 2106 C 199.28 -0.26327 3.48006 0
M  V30 2107 C 200.628 -0.489354 4.21771 0
M  V30 2108 O 201.652 -0.343226 3.54543 0
M  V30 2109 O 200.511 -0.776169 5.4096 0
M  V30 2110 H 197.605 -0.152536 0.812811 0
M  V30 2111 H 200.151 0.450178 1.6362 0
M  V30 2112 H 198.923 0.713985 3.84731 0
M  V30 2113 H 198.546 -1.00103 3.84792 0
M  V30 2114 N 199.544 -1.57102 0.125237 0
M  V30 2115 C 200.79 -1.95697 -0.532035 0
M  V30 2116 C 201.123 -1.009 -1.6593 0
M  V30 2117 O 200.398 -0.047347 -1.94442 0
M  V30 2118 C 200.681 -3.44181 -1.05884 0
M  V30 2119 C 200.534 -4.49752 0.0654392 0
M  V30 2120 C 201.853 -3.94655 -1.9477 0
M  V30 2121 H 198.972 -0.711571 -0.191925 0
M  V30 2122 H 201.614 -1.88923 0.20206 0
M  V30 2123 H 199.764 -3.50085 -1.68442 0
M  V30 2124 H 201.436 -4.55943 0.700982 0
M  V30 2125 H 199.679 -4.27653 0.727709 0
M  V30 2126 H 200.35 -5.50924 -0.344505 0
M  V30 2127 H 202.826 -3.91094 -1.42074 0
M  V30 2128 H 201.702 -4.99057 -2.28546 0
M  V30 2129 H 201.963 -3.35718 -2.87656 0
M  V30 2130 N 201.022 0.148545 -1.56898 0
M  V30 2131 C 201.985 1.16736 -1.97244 0
M  V30 2132 C 202.985 1.35947 -0.858777 0
M  V30 2133 O 204.175 1.32966 -1.12542 0
M  V30 2134 C 201.307 2.52798 -2.28705 0
M  V30 2135 H 202.5 0.821279 -2.88435 0
M  V30 2136 H 200.053 0.391831 -1.51309 0
M  V30 2137 H 200.788 2.92381 -1.403 0
M  V30 2138 H 200.573 2.40216 -3.09901 0
M  V30 2139 H 202.063 3.26179 -2.60762 0
M  V30 2140 N 202.5 1.5196 0.417844 0
M  V30 2141 C 203.916 1.40569 0.755816 0
M  V30 2142 C 204.116 0.503316 1.95113 0
M  V30 2143 O 203.172 -0.0341925 2.52477 0
M  V30 2144 C 204.485 2.82947 1.01791 0
M  V30 2145 C 206.033 2.92231 1.12116 0
M  V30 2146 C 206.508 4.35559 1.41608 0
M  V30 2147 N 207.999 4.38753 1.48491 0
M  V30 2148 C 208.734 5.46705 1.7292 0
M  V30 2149 N 208.23 6.64788 1.95011 0
M  V30 2150 N 210.023 5.34209 1.74863 0
M  V30 2151 H 202.174 2.09168 -0.369098 0
M  V30 2152 H 204.437 0.942409 -0.102809 0
M  V30 2153 H 204.143 3.5106 0.212081 0
M  V30 2154 H 204.017 3.23462 1.94042 0
M  V30 2155 H 206.404 2.24304 1.9176 0
M  V30 2156 H 206.485 2.55185 0.177225 0
M  V30 2157 H 206.129 5.04042 0.624848 0
M  V30 2158 H 206.059 4.70133 2.37239 0
M  V30 2159 H 208.55 3.5363 1.33244 0
M  V30 2160 H 208.863 7.42845 2.13076 0
M  V30 2161 H 207.208 6.67869 1.92293 0
M  V30 2162 H 210.399 4.40937 1.57137 0
M  V30 2163 H 210.572 6.18415 1.93563 0
M  V30 2164 N 203.978 -0.674533 1.42435 0
M  V30 2165 C 205.208 -1.46071 1.46105 0
M  V30 2166 C 205.616 -1.89067 0.0709605 0
M  V30 2167 O 204.959 -1.58731 -0.924677 0
M  V30 2168 C 205.021 -2.74145 2.32561 0
M  V30 2169 C 204.685 -2.53224 3.8043 0
M  V30 2170 C 205.682 -2.17809 4.72075 0
M  V30 2171 C 203.367 -2.6821 4.24698 0
M  V30 2172 C 205.361 -1.97648 6.05982 0
M  V30 2173 C 203.048 -2.47665 5.58664 0
M  V30 2174 C 204.046 -2.12437 6.49122 0
M  V30 2175 O 203.734 -1.9209 7.80613 0
M  V30 2176 H 203.466 -0.455959 0.499076 0
M  V30 2177 H 206.02 -0.836193 1.87609 0
M  V30 2178 H 204.25 -3.3908 1.85908 0
M  V30 2179 H 205.939 -3.36028 2.27683 0
M  V30 2180 H 206.705 -2.05826 4.39159 0
M  V30 2181 H 202.584 -2.94609 3.54579 0
M  V30 2182 H 206.128 -1.70075 6.7655 0
M  V30 2183 H 202.025 -2.59244 5.91154 0
M  V30 2184 H 202.793 -2.06686 7.91974 0
M  V30 2185 N 205.456 -1.28612 -0.910864 0
M  V30 2186 C 206.705 -1.15311 -1.65488 0
M  V30 2187 C 207.018 0.296999 -1.93332 0
M  V30 2188 O 208.224 0.551168 -2.65847 0
M  V30 2189 C 206.68 -2.01599 -2.98137 0
M  V30 2190 C 206.288 -3.51367 -2.7793 0
M  V30 2191 C 208.032 -1.96993 -3.76024 0
M  V30 2192 C 205.939 -4.29797 -4.06237 0
M  V30 2193 H 204.869 -0.42796 -0.620779 0
M  V30 2194 H 207.52 -1.53166 -1.01057 0
M  V30 2195 H 205.902 -1.56603 -3.63719 0
M  V30 2196 H 207.076 -4.0434 -2.21011 0
M  V30 2197 H 205.391 -3.57529 -2.13452 0
M  V30 2198 H 207.988 -2.52856 -4.71135 0
M  V30 2199 H 208.331 -0.94733 -4.05378 0
M  V30 2200 H 208.864 -2.39973 -3.17266 0
M  V30 2201 H 205.603 -5.32648 -3.82055 0
M  V30 2202 H 205.123 -3.81596 -4.62757 0
M  V30 2203 H 206.802 -4.39869 -4.74473 0
M  V30 2204 N 206.934 1.1197 -1.10907 0
M  V30 2205 C 207.844 2.21433 -0.774896 0
M  V30 2206 C 208.86 1.72478 0.229657 0
M  V30 2207 O 210.036 2.01288 0.0672008 0
M  V30 2208 C 207.101 3.4602 -0.216986 0
M  V30 2209 C 206.162 4.09791 -1.27944 0
M  V30 2210 C 205.395 5.28431 -0.748055 0
M  V30 2211 O 205.618 5.68823 0.423833 0
M  V30 2212 O 204.552 5.82644 -1.51027 0
M  V30 2213 H 208.378 2.5242 -1.68873 0
M  V30 2214 H 205.963 1.20399 -0.884555 0
M  V30 2215 H 207.845 4.21304 0.090059 0
M  V30 2216 H 206.52 3.16698 0.669633 0
M  V30 2217 H 205.427 3.36265 -1.63941 0
M  V30 2218 H 206.76 4.4328 -2.13925 0
M  V30 2219 N 208.412 0.89855 1.29475 0
M  V30 2220 C 209.828 0.594483 1.48115 0
M  V30 2221 C 210.028 -0.86431 1.82022 0
M  V30 2222 O 209.084 -1.64457 1.91599 0
M  V30 2223 C 210.397 1.51932 2.59494 0
M  V30 2224 C 211.945 1.5244 2.7337 0
M  V30 2225 C 212.42 2.43548 3.87877 0
M  V30 2226 N 213.911 2.41589 3.95208 0
M  V30 2227 C 214.646 3.08789 4.83153 0
M  V30 2228 N 214.142 3.85265 5.75798 0
M  V30 2229 N 215.935 2.97952 4.76635 0
M  V30 2230 H 208.086 1.84207 1.05742 0
M  V30 2231 H 210.349 0.789251 0.525154 0
M  V30 2232 H 210.055 2.55865 2.41301 0
M  V30 2233 H 209.929 1.23899 3.56271 0
M  V30 2234 H 212.316 0.492518 2.90961 0
M  V30 2235 H 212.397 1.8451 1.77172 0
M  V30 2236 H 212.041 3.46829 3.71041 0
M  V30 2237 H 211.971 2.08788 4.83441 0
M  V30 2238 H 214.462 1.86025 3.28943 0
M  V30 2239 H 214.775 4.33598 6.39697 0
M  V30 2240 H 213.12 3.89371 5.75687 0
M  V30 2241 H 216.311 2.37723 4.03244 0
M  V30 2242 H 216.484 3.50599 5.44962 0
M  V30 2243 N 209.89 -1.43072 0.660911 0
M  V30 2244 C 211.306 -1.56169 0.329173 0
M  V30 2245 C 211.506 -1.64317 -1.16629 0
M  V30 2246 O 210.562 -1.60245 -1.95135 0
M  V30 2247 C 211.875 -2.81873 1.04729 0
M  V30 2248 C 213.423 -2.95627 1.02828 0
M  V30 2249 C 213.898 -4.24174 1.72744 0
M  V30 2250 N 215.389 -4.31055 1.69545 0
M  V30 2251 C 216.124 -5.29304 2.20511 0
M  V30 2252 N 215.62 -6.33786 2.79799 0
M  V30 2253 N 217.413 -5.21008 2.10966 0
M  V30 2254 H 209.564 -1.36027 1.63127 0
M  V30 2255 H 211.827 -0.653823 0.686454 0
M  V30 2256 H 211.533 -2.81942 2.10242 0
M  V30 2257 H 211.407 -3.72338 0.603702 0
M  V30 2258 H 213.794 -2.95094 -0.0184742 0
M  V30 2259 H 213.875 -2.06431 1.51063 0
M  V30 2260 H 213.519 -4.25467 2.7738 0
M  V30 2261 H 213.449 -5.1228 1.2197 0
M  V30 2262 H 215.94 -3.56174 1.26288 0
M  V30 2263 H 216.253 -7.05086 3.16344 0
M  V30 2264 H 214.598 -6.34387 2.83863 0
M  V30 2265 H 217.789 -4.38301 1.64347 0
M  V30 2266 H 217.962 -5.97416 2.50993 0
M  V30 2267 N 211.368 -0.403325 -1.52352 0
M  V30 2268 C 212.645 0.232611 -1.94212 0
M  V30 2269 C 213.025 1.63133 -1.33981 0
M  V30 2270 O 212.373 2.22659 -0.513344 0
M  V30 2271 C 212.583 0.244811 -3.4814 0
M  V30 2272 C 213.931 0.46698 -4.22024 0
M  V30 2273 O 214.955 0.324419 -3.5472 0
M  V30 2274 O 213.814 0.74747 -5.41364 0
M  V30 2275 H 210.908 0.148223 -0.813609 0
M  V30 2276 H 213.454 -0.458848 -1.63379 0
M  V30 2277 H 212.226 -0.734378 -3.84347 0
M  V30 2278 H 211.849 0.980611 -3.85318 0
M  V30 2279 N 212.846 1.57033 -0.133567 0
M  V30 2280 C 214.094 1.953 0.519848 0
M  V30 2281 C 214.415 1.01866 1.66278 0
M  V30 2282 O 213.685 0.0776513 1.95746 0
M  V30 2283 H 212.265 0.721091 0.195032 0
M  V30 2284 H 214.927 1.93809 -0.205921 0
M  V30 2285 H 214.023 2.98695 0.904854 0
M  V30 2286 N 214.325 -0.140222 1.56975 0
M  V30 2287 C 215.573 -0.850005 1.83356 0
M  V30 2288 C 215.894 -1.81399 0.71551 0
M  V30 2289 O 215.164 -1.94136 -0.262294 0
M  V30 2290 H 213.744 -0.316886 0.676456 0
M  V30 2291 H 216.406 -0.132608 1.94448 0
M  V30 2292 H 215.502 -1.40814 2.78528 0
M  V30 2293 N 215.803 -1.52179 -0.40978 0
M  V30 2294 C 217.052 -1.65434 -1.15388 0
M  V30 2295 C 217.365 -0.390056 -1.91671 0
M  V30 2296 O 218.571 -0.402399 -2.68501 0
M  V30 2297 C 217.027 -2.92279 -2.10003 0
M  V30 2298 C 216.635 -4.25813 -1.39239 0
M  V30 2299 C 218.379 -3.14897 -2.84675 0
M  V30 2300 C 216.286 -5.43782 -2.32498 0
M  V30 2301 H 215.216 -0.616267 -0.434432 0
M  V30 2302 H 217.867 -1.78666 -0.418401 0
M  V30 2303 H 216.249 -2.72744 -2.871 0
M  V30 2304 H 217.423 -4.55828 -0.675099 0
M  V30 2305 H 215.738 -4.09292 -0.766097 0
M  V30 2306 H 218.335 -4.0021 -3.54593 0
M  V30 2307 H 218.678 -2.29103 -3.47588 0
M  V30 2308 H 219.211 -3.34901 -2.14677 0
M  V30 2309 H 215.95 -6.3192 -1.74233 0
M  V30 2310 H 215.47 -5.18106 -3.02201 0
M  V30 2311 H 217.149 -5.76834 -2.93038 0
M  V30 2312 N 217.281 0.66697 -1.42791 0
M  V30 2313 C 218.692 1.2478 -1.38877 0
M  V30 2314 C 219.043 1.96012 -0.0859426 0
M  V30 2315 O 218.168 2.00463 0.815081 0
M  V30 2316 C 218.763 2.26938 -2.51564 0
M  V30 2317 C 217.322 2.80529 -2.50959 0
M  V30 2318 C 216.469 1.54965 -2.29959 0
M  V30 2319 H 219.42 0.459853 -1.51892 0
M  V30 2320 H 219.441 3.08834 -2.22265 0
M  V30 2321 H 218.953 1.75065 -3.46372 0
M  V30 2322 H 217.054 3.36502 -1.59991 0
M  V30 2323 H 217.167 3.29012 -3.48265 0
M  V30 2324 H 215.531 1.81817 -1.78366 0
M  V30 2325 H 216.314 1.05047 -3.26833 0
M  V30 2326 N 218.759 1.29093 0.90403 0
M  V30 2327 C 219.722 1.1386 1.98919 0
M  V30 2328 C 220.722 0.0753457 1.60623 0
M  V30 2329 O 221.912 0.321931 1.71199 0
M  V30 2330 C 219.044 0.740198 3.32767 0
M  V30 2331 H 220.237 2.10246 2.13861 0
M  V30 2332 H 217.79 1.12218 1.08797 0
M  V30 2333 H 218.525 -0.223997 3.23525 0
M  V30 2334 H 218.31 1.50838 3.61926 0
M  V30 2335 H 219.8 0.656546 4.12407 0
M  V30 2336 N 220.237 -1.11381 1.11499 0
M  V30 2337 C 221.514 -1.7955 0.775965 0
M  V30 2338 C 221.894 -1.97859 -0.73588 0
M  V30 2339 O 221.242 -1.56376 -1.66609 0
M  V30 2340 C 221.452 -3.13196 1.53977 0
M  V30 2341 C 222.8 -3.88227 1.71944 0
M  V30 2342 O 223.824 -3.22887 1.50407 0
M  V30 2343 O 222.683 -5.05477 2.07738 0
M  V30 2344 H 219.777 -0.777728 0.28119 0
M  V30 2345 H 222.323 -1.18118 1.21845 0
M  V30 2346 H 221.095 -2.95229 2.56818 0
M  V30 2347 H 220.718 -3.82342 1.09088 0
M  V30 2348 N 221.715 -0.905404 -1.28997 0
M  V30 2349 C 223.126 -0.581953 -1.77398 0
M  V30 2350 C 223.477 0.902552 -1.74208 0
M  V30 2351 O 222.602 1.70584 -1.33154 0
M  V30 2352 C 223.197 -1.04961 -3.22131 0
M  V30 2353 C 221.756 -0.777229 -3.68288 0
M  V30 2354 C 220.903 -1.22109 -2.48967 0
M  V30 2355 H 223.854 -1.08754 -1.15578 0
M  V30 2356 H 223.875 -0.387387 -3.78523 0
M  V30 2357 H 223.387 -2.13008 -3.24421 0
M  V30 2358 H 221.488 0.290383 -3.71467 0
M  V30 2359 H 221.601 -1.37911 -4.58822 0
M  V30 2360 H 219.965 -0.639971 -2.46529 0
M  V30 2361 H 220.748 -2.30972 -2.53982 0
M  V30 2362 N 223.193 1.4272 -0.668489 0
M  V30 2363 C 224.141 2.32586 0.0254857 0
M  V30 2364 C 225.135 1.49471 0.797176 0
M  V30 2365 O 226.341 1.65583 0.705853 0
M  V30 2366 H 222.716 0.751514 0.0270339 0
M  V30 2367 H 224.687 2.88823 -0.749936 0
M  V30 2368 C 223.436 3.3397 0.967427 0
M  V30 2369 H 222.759 3.97961 0.383048 0
M  V30 2370 H 224.199 3.9945 1.42181 0
M  V30 2371 C 222.658 2.65744 2.0708 0
M  V30 2372 O 223.188 2.48454 3.15648 0
M  V30 2373 N 221.394 2.2487 1.8407 0
M  V30 2374 H 220.941 2.39132 0.95778 0
M  V30 2375 H 220.899 1.79552 2.58086 0
M  V30 2376 N 224.671 0.411399 1.52136 0
M  V30 2377 C 225.619 -0.427633 2.28635 0
M  V30 2378 C 226.613 -1.04383 1.33419 0
M  V30 2379 O 227.819 -0.981772 1.50868 0
M  V30 2380 H 224.194 -0.156689 0.735495 0
M  V30 2381 H 226.165 0.238761 2.97443 0
M  V30 2382 C 224.914 -1.53082 3.12188 0
M  V30 2383 H 224.237 -1.06601 3.85326 0
M  V30 2384 H 225.677 -2.09167 3.68816 0
M  V30 2385 C 224.136 -2.49946 2.25895 0
M  V30 2386 O 224.666 -3.53884 1.90076 0
M  V30 2387 N 222.872 -2.2021 1.8962 0
M  V30 2388 H 222.419 -1.35719 2.18948 0
M  V30 2389 H 222.377 -2.85266 1.32176 0
M  V30 2390 N 226.149 -1.5696 0.141893 0
M  V30 2391 C 227.395 -1.9625 -0.511248 0
M  V30 2392 C 227.728 -1.02654 -1.64851 0
M  V30 2393 O 227.003 -0.0679676 -1.94381 0
M  V30 2394 C 227.286 -3.45285 -1.02227 0
M  V30 2395 C 227.139 -4.49658 0.113138 0
M  V30 2396 C 228.458 -3.96698 -1.90574 0
M  V30 2397 H 225.577 -0.713567 -0.184367 0
M  V30 2398 H 228.219 -1.88698 0.222087 0
M  V30 2399 H 226.369 -3.51852 -1.64719 0
M  V30 2400 H 228.041 -4.55174 0.749302 0
M  V30 2401 H 226.284 -4.26857 0.773026 0
M  V30 2402 H 226.955 -5.51258 -0.286053 0
M  V30 2403 H 229.431 -3.92578 -1.37918 0
M  V30 2404 H 228.307 -5.01453 -2.2324 0
M  V30 2405 H 228.568 -3.3875 -2.84079 0
M  V30 2406 N 227.627 0.131896 -1.57047 0
M  V30 2407 C 228.874 0.841932 -1.84168 0
M  V30 2408 C 229.202 1.8048 -0.725066 0
M  V30 2409 O 228.457 1.93618 0.284692 0
M  V30 2410 C 228.756 1.63703 -3.17704 0
M  V30 2411 C 228.422 0.81961 -4.43388 0
M  V30 2412 C 227.084 0.594148 -4.77518 0
M  V30 2413 C 229.436 0.248977 -5.20605 0
M  V30 2414 C 226.764 -0.212409 -5.86315 0
M  V30 2415 C 229.116 -0.544701 -6.30251 0
M  V30 2416 C 227.78 -0.780599 -6.6292 0
M  V30 2417 H 227.05 0.308085 -0.673917 0
M  V30 2418 H 229.697 0.104867 -1.91213 0
M  V30 2419 H 228.002 2.44464 -3.06177 0
M  V30 2420 H 229.699 2.19015 -3.35907 0
M  V30 2421 H 226.289 1.00542 -4.16641 0
M  V30 2422 H 230.473 0.410408 -4.946 0
M  V30 2423 H 225.729 -0.404524 -6.1006 0
M  V30 2424 H 229.903 -0.993922 -6.89271 0
M  V30 2425 H 227.53 -1.40742 -7.47058 0
M  V30 2426 N 229.106 1.52395 0.401703 0
M  V30 2427 C 230.036 1.79231 1.49661 0
M  V30 2428 C 231.017 0.643654 1.57452 0
M  V30 2429 O 232.202 0.889989 1.72606 0
M  V30 2430 C 229.332 1.94971 2.87409 0
M  V30 2431 C 228.286 3.10604 2.94465 0
M  V30 2432 C 227.612 3.11577 4.34538 0
M  V30 2433 C 228.912 4.49921 2.6527 0
M  V30 2434 H 230.606 2.70917 1.27454 0
M  V30 2435 H 228.152 1.30362 0.6117 0
M  V30 2436 H 230.105 2.12328 3.63999 0
M  V30 2437 H 228.829 0.999632 3.10926 0
M  V30 2438 H 227.488 2.93009 2.20321 0
M  V30 2439 H 227.136 2.14277 4.55076 0
M  V30 2440 H 226.836 3.89247 4.40183 0
M  V30 2441 H 228.36 3.31073 5.13053 0
M  V30 2442 H 229.774 4.67683 3.31581 0
M  V30 2443 H 228.171 5.29564 2.82281 0
M  V30 2444 H 229.241 4.57507 1.60671 0
M  V30 2445 N 230.584 -0.659388 1.43143 0
M  V30 2446 C 231.809 -1.45221 1.48073 0
M  V30 2447 C 232.234 -1.87845 0.097995 0
M  V30 2448 O 231.592 -1.56985 -0.90694 0
M  V30 2449 C 231.64 -2.66748 2.42647 0
M  V30 2450 O 230.744 -3.65583 1.90848 0
M  V30 2451 H 230.085 -0.435669 0.501088 0
M  V30 2452 H 232.615 -0.807432 1.87994 0
M  V30 2453 H 232.625 -3.14637 2.59745 0
M  V30 2454 H 231.3 -2.35067 3.43098 0
M  V30 2455 H 229.877 -3.24693 1.83381 0
M  V30 2456 N 232.062 -1.29571 -0.897171 0
M  V30 2457 C 233.29 -1.20583 -1.68129 0
M  V30 2458 C 233.705 0.233181 -1.87354 0
M  V30 2459 O 233.062 1.15579 -1.41236 0
M  V30 2460 C 233.113 -1.91772 -3.06441 0
M  V30 2461 O 232.834 -3.30053 -2.88091 0
M  V30 2462 C 234.335 -1.89291 -4.00854 0
M  V30 2463 H 231.555 -0.417826 -0.525036 0
M  V30 2464 H 234.099 -1.70987 -1.12177 0
M  V30 2465 H 232.254 -1.45196 -3.59161 0
M  V30 2466 H 232.668 -3.65942 -3.75748 0
M  V30 2467 H 234.142 -2.43662 -4.95311 0
M  V30 2468 H 234.619 -0.869014 -4.30517 0
M  V30 2469 H 235.225 -2.35622 -3.54066 0
M  V30 2470 N 233.54 1.10788 -1.12088 0
M  V30 2471 C 234.788 1.8231 -0.872205 0
M  V30 2472 C 235.109 1.85419 0.603709 0
M  V30 2473 O 234.379 1.32963 1.43867 0
M  V30 2474 H 232.959 0.675137 -0.319686 0
M  V30 2475 H 235.621 1.34068 -1.41463 0
M  V30 2476 H 234.717 2.85955 -1.25045 0
M  V30 2477 N 235.018 0.912232 1.28515 0
M  V30 2478 C 235.981 0.404223 2.25607 0
M  V30 2479 C 236.981 -0.468602 1.53821 0
M  V30 2480 O 238.171 -0.271873 1.72065 0
M  V30 2481 C 235.303 -0.420653 3.38295 0
M  V30 2482 H 236.496 1.26188 2.7206 0
M  V30 2483 H 234.049 0.691495 1.40171 0
M  V30 2484 H 234.784 -1.29777 2.97201 0
M  V30 2485 H 234.569 0.204935 3.91564 0
M  V30 2486 H 236.059 -0.766971 4.10496 0
M  V30 2487 N 236.496 -1.42363 0.676048 0
M  V30 2488 C 237.721 -2.06377 0.205705 0
M  V30 2489 C 238.146 -1.50463 -1.12883 0
M  V30 2490 O 237.504 -0.623619 -1.70237 0
M  V30 2491 C 237.552 -3.60277 0.152655 0
M  V30 2492 O 236.656 -4.02935 -0.87845 0
M  V30 2493 H 235.997 -0.655588 0.105359 0
M  V30 2494 H 238.527 -1.82475 0.925412 0
M  V30 2495 H 238.537 -4.07993 -0.0230675 0
M  V30 2496 H 237.212 -4.00346 1.12675 0
M  V30 2497 H 235.789 -3.66764 -0.673668 0
M  V30 2498 N 237.974 -0.419461 -1.51915 0
M  V30 2499 C 239.251 0.211999 -1.94448 0
M  V30 2500 C 239.631 1.61703 -1.35703 0
M  V30 2501 O 238.979 2.22102 -0.536931 0
M  V30 2502 C 239.189 0.207872 -3.4838 0
M  V30 2503 C 240.537 0.422192 -4.22496 0
M  V30 2504 O 241.561 0.286778 -3.55044 0
M  V30 2505 O 240.42 0.690009 -5.42126 0
M  V30 2506 H 237.514 0.139586 -0.815135 0
M  V30 2507 H 240.06 -0.476151 -1.62883 0
M  V30 2508 H 238.832 -0.775102 -3.83546 0
M  V30 2509 H 238.455 0.939688 -3.86336 0
M  V30 2510 N 239.452 1.56882 -0.150215 0
M  V30 2511 C 240.415 2.1573 0.774157 0
M  V30 2512 C 241.415 1.0999 1.17298 0
M  V30 2513 O 242.605 1.35613 1.09338 0
M  V30 2514 C 239.737 2.72302 2.05096 0
M  V30 2515 H 240.93 2.98752 0.262201 0
M  V30 2516 H 238.483 1.55985 0.099248 0
M  V30 2517 H 239.218 1.92956 2.6065 0
M  V30 2518 H 239.003 3.49665 1.77416 0
M  V30 2519 H 240.493 3.17632 2.71109 0
M  V30 2520 N 240.93 -0.123565 1.57115 0
M  V30 2521 C 242.179 -0.830704 1.83799 0
M  V30 2522 C 242.492 -1.81259 0.735158 0
M  V30 2523 O 243.698 -2.56558 0.888278 0
M  V30 2524 C 242.154 -1.52802 3.25852 0
M  V30 2525 C 241.762 -0.587356 4.44133 0
M  V30 2526 C 243.506 -2.22056 3.61789 0
M  V30 2527 C 241.413 -1.28764 5.77212 0
M  V30 2528 H 240.343 -0.313967 0.685522 0
M  V30 2529 H 242.994 -0.0834359 1.8331 0
M  V30 2530 H 241.376 -2.32175 3.20797 0
M  V30 2531 H 242.55 0.172829 4.60476 0
M  V30 2532 H 240.865 -0.00201892 4.164 0
M  V30 2533 H 243.462 -2.75131 4.58483 0
M  V30 2534 H 243.805 -2.99644 2.88997 0
M  V30 2535 H 244.338 -1.49576 3.68608 0
M  V30 2536 H 241.077 -0.55314 6.53162 0
M  V30 2537 H 240.597 -2.01995 5.64764 0
M  V30 2538 H 242.276 -1.8221 6.20813 0
M  V30 2539 N 242.408 -1.52605 -0.393616 0
M  V30 2540 C 243.654 -1.67672 -1.14079 0
M  V30 2541 C 243.987 -0.413121 -1.89755 0
M  V30 2542 O 243.262 0.588952 -1.85369 0
M  V30 2543 C 243.545 -2.9088 -2.12276 0
M  V30 2544 C 243.398 -4.27329 -1.40394 0
M  V30 2545 C 244.717 -3.09628 -3.12759 0
M  V30 2546 H 241.836 -0.610168 -0.413356 0
M  V30 2547 H 244.478 -1.85193 -0.424696 0
M  V30 2548 H 242.628 -2.76073 -2.73342 0
M  V30 2549 H 244.3 -4.53894 -0.82327 0
M  V30 2550 H 242.543 -4.2802 -0.705801 0
M  V30 2551 H 243.214 -5.09615 -2.12123 0
M  V30 2552 H 245.69 -3.23436 -2.61779 0
M  V30 2553 H 244.566 -3.97322 -3.78717 0
M  V30 2554 H 244.827 -2.23637 -3.81365 0
M  V30 2555 N 243.887 0.651787 -1.4349 0
M  V30 2556 C 245.115 1.43937 -1.48626 0
M  V30 2557 C 245.53 1.8851 -0.104587 0
M  V30 2558 O 244.887 1.5958 0.885464 0
M  V30 2559 C 244.938 2.6734 -2.43334 0
M  V30 2560 O 244.659 2.24631 -3.76128 0
M  V30 2561 C 246.16 3.60683 -2.57726 0
M  V30 2562 H 243.38 0.44213 -0.504739 0
M  V30 2563 H 245.924 0.798944 -1.88248 0
M  V30 2564 H 244.079 3.2752 -2.06904 0
M  V30 2565 H 244.493 3.04485 -4.2707 0
M  V30 2566 H 245.967 4.43933 -3.28067 0
M  V30 2567 H 246.444 4.08126 -1.62265 0
M  V30 2568 H 247.05 3.06384 -2.94973 0
M  V30 2569 N 245.365 1.30045 0.890287 0
M  V30 2570 C 246.611 1.18737 1.64406 0
M  V30 2571 C 246.944 -0.258525 1.92472 0
M  V30 2572 O 246.219 -1.18562 1.54186 0
M  V30 2573 C 246.502 2.01087 2.98724 0
M  V30 2574 C 246.355 3.53867 2.77665 0
M  V30 2575 C 247.674 1.84457 3.9958 0
M  V30 2576 H 244.793 0.432698 0.596608 0
M  V30 2577 H 247.435 1.5962 1.0306 0
M  V30 2578 H 245.585 1.66349 3.51084 0
M  V30 2579 H 247.257 3.98637 2.32133 0
M  V30 2580 H 245.5 3.78318 2.12269 0
M  V30 2581 H 246.171 4.06772 3.7315 0
M  V30 2582 H 248.647 2.14817 3.56361 0
M  V30 2583 H 247.523 2.44411 4.91482 0
M  V30 2584 H 247.784 0.802276 4.3476 0
M  V30 2585 N 246.843 -1.10192 1.12674 0
M  V30 2586 C 247.773 -2.18652 0.819362 0
M  V30 2587 C 248.754 -1.68698 -0.217915 0
M  V30 2588 O 249.939 -1.94041 -0.0785581 0
M  V30 2589 C 247.069 -3.46202 0.27594 0
M  V30 2590 C 246.023 -4.09444 1.24656 0
M  V30 2591 C 245.349 -5.31725 0.563258 0
M  V30 2592 C 246.649 -4.52863 2.60217 0
M  V30 2593 H 248.343 -2.44622 1.72628 0
M  V30 2594 H 245.889 -1.17571 0.831451 0
M  V30 2595 H 247.842 -4.21372 0.0486149 0
M  V30 2596 H 246.566 -3.1973 -0.666331 0
M  V30 2597 H 245.225 -3.36284 1.45974 0
M  V30 2598 H 244.873 -5.0153 -0.384235 0
M  V30 2599 H 244.573 -5.74991 1.21075 0
M  V30 2600 H 246.097 -6.09624 0.34503 0
M  V30 2601 H 247.511 -5.19294 2.42913 0
M  V30 2602 H 245.908 -5.06986 3.21068 0
M  V30 2603 H 246.978 -3.65656 3.18471 0
M  V30 2604 N 248.321 -0.919034 -1.28029 0
M  V30 2605 C 249.268 -0.410005 -2.27129 0
M  V30 2606 C 250.238 0.518405 -1.57803 0
M  V30 2607 O 251.423 0.439451 -1.8567 0
M  V30 2608 C 248.563 0.339054 -3.4343 0
M  V30 2609 C 247.676 -0.622468 -4.27492 0
M  V30 2610 C 246.811 0.145567 -5.31001 0
M  V30 2611 C 245.85 -0.809226 -6.06727 0
M  V30 2612 N 244.987 -0.0743728 -7.02061 0
M  V30 2613 H 249.827 -1.26011 -2.70047 0
M  V30 2614 H 247.364 -0.632663 -1.328 0
M  V30 2615 H 249.322 0.789586 -4.0966 0
M  V30 2616 H 247.952 1.15346 -3.01488 0
M  V30 2617 H 247.004 -1.19153 -3.61257 0
M  V30 2618 H 248.316 -1.35252 -4.80113 0
M  V30 2619 H 247.47 0.656417 -6.03139 0
M  V30 2620 H 246.209 0.908643 -4.79161 0
M  V30 2621 H 245.214 -1.3314 -5.33436 0
M  V30 2622 H 246.439 -1.57194 -6.60656 0
M  V30 2623 H 244.385 0.670616 -6.52563 0
M  V30 2624 H 244.302 -0.744157 -7.52329 0
M  V30 2625 H 245.57 0.416109 -7.78389 0
M  V30 2626 N 249.799 1.42003 -0.683588 0
M  V30 2627 C 250.729 2.33487 -0.024866 0
M  V30 2628 C 251.71 1.51163 0.779975 0
M  V30 2629 O 252.895 1.79739 0.735362 0
M  V30 2630 C 250.025 3.3487 0.920836 0
M  V30 2631 C 248.979 4.27414 0.223958 0
M  V30 2632 C 248.305 5.19074 1.2832 0
M  V30 2633 C 249.605 5.14445 -0.90242 0
M  V30 2634 H 251.299 2.88819 -0.788921 0
M  V30 2635 H 248.845 1.38873 -0.38083 0
M  V30 2636 H 250.798 3.97787 1.39081 0
M  V30 2637 H 249.522 2.77861 1.71642 0
M  V30 2638 H 248.181 3.65904 -0.225864 0
M  V30 2639 H 247.829 4.58387 2.071 0
M  V30 2640 H 247.529 5.81822 0.821995 0
M  V30 2641 H 249.053 5.84867 1.75392 0
M  V30 2642 H 250.467 5.70998 -0.513272 0
M  V30 2643 H 248.864 5.86072 -1.28997 0
M  V30 2644 H 249.934 4.52322 -1.74737 0
M  V30 2645 N 251.277 0.427512 1.51691 0
M  V30 2646 C 252.207 -0.3796 2.30394 0
M  V30 2647 C 253.188 -1.02982 1.35384 0
M  V30 2648 O 254.373 -1.03534 1.643 0
M  V30 2649 C 251.503 -1.48649 3.1388 0
M  V30 2650 C 250.457 -0.960294 4.17088 0
M  V30 2651 C 249.783 -2.16219 4.89033 0
M  V30 2652 C 251.083 -0.00153679 5.223 0
M  V30 2653 H 252.777 0.277164 2.98114 0
M  V30 2654 H 250.323 0.134739 1.43368 0
M  V30 2655 H 252.276 -2.05826 3.67714 0
M  V30 2656 H 251 -2.1714 2.43962 0
M  V30 2657 H 249.659 -0.410806 3.64291 0
M  V30 2658 H 249.307 -2.83307 4.15628 0
M  V30 2659 H 249.007 -1.81654 5.58816 0
M  V30 2660 H 250.531 -2.73968 5.45687 0
M  V30 2661 H 251.945 -0.482687 5.71264 0
M  V30 2662 H 250.342 0.256199 5.99553 0
M  V30 2663 H 251.412 0.938174 4.75738 0
M  V30 2664 N 252.755 -1.56801 0.158532 0
M  V30 2665 C 254.001 -1.96781 -0.490405 0
M  V30 2666 C 254.334 -1.04397 -1.63753 0
M  V30 2667 O 253.609 -0.0885805 -1.94298 0
M  V30 2668 C 253.892 -3.4635 -0.985594 0
M  V30 2669 C 253.745 -4.49512 0.160824 0
M  V30 2670 C 255.064 -3.98697 -1.86355 0
M  V30 2671 H 252.183 -0.715482 -0.176788 0
M  V30 2672 H 254.825 -1.88451 0.242088 0
M  V30 2673 H 252.975 -3.53579 -1.60978 0
M  V30 2674 H 254.647 -4.54353 0.797537 0
M  V30 2675 H 252.89 -4.26013 0.818256 0
M  V30 2676 H 253.561 -5.51531 -0.227569 0
M  V30 2677 H 256.037 -3.94019 -1.33746 0
M  V30 2678 H 254.913 -5.03792 -2.17909 0
M  V30 2679 H 255.174 -3.41744 -2.8047 0
M  V30 2680 N 254.233 0.115231 -1.57178 0
M  V30 2681 C 255.196 1.12526 -1.99676 0
M  V30 2682 C 256.196 1.34095 -0.88742 0
M  V30 2683 O 257.386 1.30548 -1.15337 0
M  V30 2684 C 254.518 2.4789 -2.34015 0
M  V30 2685 H 255.711 0.759912 -2.90113 0
M  V30 2686 H 253.264 0.359648 -1.52106 0
M  V30 2687 H 253.999 2.89339 -1.4647 0
M  V30 2688 H 253.784 2.33588 -3.14927 0
M  V30 2689 H 255.274 3.20575 -2.67622 0
M  V30 2690 N 255.711 1.52812 0.385517 0
M  V30 2691 C 256.959 1.67694 1.12797 0
M  V30 2692 C 257.28 0.421115 1.90399 0
M  V30 2693 O 256.55 -0.564551 1.87589 0
M  V30 2694 H 255.13 0.618155 0.419396 0
M  V30 2695 H 257.792 1.89938 0.436972 0
M  V30 2696 H 256.888 2.52896 1.82894 0
M  V30 2697 N 257.189 -0.644168 1.43834 0
M  V30 2698 C 258.099 -1.78563 1.52159 0
M  V30 2699 C 259.115 -1.69147 0.408069 0
M  V30 2700 O 260.291 -1.90156 0.663524 0
M  V30 2701 C 257.356 -3.14888 1.45073 0
M  V30 2702 C 256.417 -3.36034 2.6717 0
M  V30 2703 C 255.65 -4.65855 2.60413 0
M  V30 2704 O 255.873 -5.45805 1.65689 0
M  V30 2705 O 254.807 -4.88918 3.5106 0
M  V30 2706 H 258.633 -1.74494 2.48567 0
M  V30 2707 H 256.218 -0.80378 1.25935 0
M  V30 2708 H 258.1 -3.96179 1.43597 0
M  V30 2709 H 256.775 -3.19528 0.518037 0
M  V30 2710 H 255.682 -2.54472 2.74217 0
M  V30 2711 H 257.015 -3.36247 3.59442 0
M  V30 2712 N 258.668 -1.30515 -0.883378 0
M  V30 2713 C 259.916 -1.19194 -1.63209 0
M  V30 2714 C 260.237 0.253205 -1.93349 0
M  V30 2715 O 259.507 1.17025 -1.57105 0
M  V30 2716 H 258.087 -0.438148 -0.605009 0
M  V30 2717 H 260.749 -1.63663 -1.05832 0
M  V30 2718 H 259.845 -1.75396 -2.58153 0
M  V30 2719 N 260.146 1.09593 -1.13257 0
M  V30 2720 C 261.096 2.14345 -0.777179 0
M  V30 2721 C 262.08 1.59277 0.227966 0
M  V30 2722 O 263.272 1.76971 0.0321413 0
M  V30 2723 C 260.401 3.42439 -0.242991 0
M  V30 2724 C 259.487 4.04419 -1.27694 0
M  V30 2725 N 259.878 4.40979 -2.47732 0
M  V30 2726 C 258.176 4.31596 -1.12432 0
M  V30 2727 C 258.877 4.89784 -3.13826 0
M  V30 2728 N 257.853 4.87133 -2.41252 0
M  V30 2729 H 261.655 2.40415 -1.69049 0
M  V30 2730 H 259.169 1.26803 -1.01463 0
M  V30 2731 H 261.166 4.16889 0.0298496 0
M  V30 2732 H 259.826 3.17824 0.66467 0
M  V30 2733 H 260.837 4.32396 -2.85051 0
M  V30 2734 H 257.514 4.16595 -0.274684 0
M  V30 2735 H 258.904 5.2755 -4.16102 0
M  V30 2736 N 261.624 0.925811 1.2754 0
M  V30 2737 C 262.852 0.581509 1.9856 0
M  V30 2738 C 263.267 -0.840041 1.69082 0
M  V30 2739 O 262.624 -1.55805 0.950312 0
M  V30 2740 C 262.675 0.795589 3.52637 0
M  V30 2741 O 262.396 2.16121 3.81082 0
M  V30 2742 C 263.897 0.459744 4.4091 0
M  V30 2743 H 261.117 0.220538 0.633722 0
M  V30 2744 H 263.661 1.24232 1.6244 0
M  V30 2745 H 261.816 0.18161 3.86974 0
M  V30 2746 H 262.23 2.2098 4.75676 0
M  V30 2747 H 263.704 0.660244 5.48037 0
M  V30 2748 H 264.181 -0.604625 4.35018 0
M  V30 2749 H 264.787 1.05178 4.12089 0
M  V30 2750 N 263.102 -1.41638 0.69111 0
M  V30 2751 C 264.518 -1.55435 0.362224 0
M  V30 2752 C 264.718 -1.66754 -1.13117 0
M  V30 2753 O 263.774 -1.64348 -1.91692 0
M  V30 2754 C 265.087 -2.79588 1.10684 0
M  V30 2755 C 266.635 -2.9338 1.09075 0
M  V30 2756 C 267.11 -4.20414 1.81703 0
M  V30 2757 N 268.601 -4.27362 1.7865 0
M  V30 2758 C 269.336 -5.24507 2.31689 0
M  V30 2759 N 268.832 -6.27708 2.93179 0
M  V30 2760 N 270.625 -5.16416 2.2197 0
M  V30 2761 H 262.776 -1.32536 1.65976 0
M  V30 2762 H 265.039 -0.639115 0.700168 0
M  V30 2763 H 264.745 -2.77419 2.16175 0
M  V30 2764 H 264.619 -3.70973 0.682545 0
M  V30 2765 H 267.006 -2.95067 0.0441238 0
M  V30 2766 H 267.087 -2.0318 1.55407 0
M  V30 2767 H 266.731 -4.19488 2.86343 0
M  V30 2768 H 266.661 -5.09578 1.32808 0
M  V30 2769 H 269.152 -3.53415 1.33815 0
M  V30 2770 H 269.465 -6.98217 3.31229 0
M  V30 2771 H 267.81 -6.28223 2.97255 0
M  V30 2772 H 271.001 -4.34716 1.73607 0
M  V30 2773 H 271.174 -5.91958 2.63609 0
M  V30 2774 N 264.58 -0.43555 -1.51462 0
M  V30 2775 C 265.808 0.130242 -2.0649 0
M  V30 2776 C 266.223 1.36614 -1.30315 0
M  V30 2777 O 265.58 1.78869 -0.362223 0
M  V30 2778 C 265.631 0.454253 -3.58635 0
M  V30 2779 O 265.352 -0.73259 -4.31931 0
M  V30 2780 C 266.853 1.07091 -4.3017 0
M  V30 2781 H 264.073 0.00871669 -0.670943 0
M  V30 2782 H 266.617 -0.614117 -1.95061 0
M  V30 2783 H 264.772 1.14851 -3.69984 0
M  V30 2784 H 265.186 -0.455787 -5.22516 0
M  V30 2785 H 266.66 1.24764 -5.37716 0
M  V30 2786 H 267.137 2.05144 -3.88346 0
M  V30 2787 H 267.743 0.416089 -4.2326 0
M  V30 2788 N 266.058 1.56714 -0.166846 0
M  V30 2789 C 267.306 1.96358 0.478305 0
M  V30 2790 C 267.627 1.0537 1.6408 0
M  V30 2791 O 266.897 0.119154 1.95537 0
M  V30 2792 H 265.477 0.725065 0.179692 0
M  V30 2793 H 268.139 1.93329 -0.246985 0
M  V30 2794 H 267.235 3.00547 0.841292 0
M  V30 2795 N 267.536 -0.106894 1.57237 0
M  V30 2796 C 268.782 -0.81373 1.85759 0
M  V30 2797 C 269.115 -1.78952 0.754315 0
M  V30 2798 O 268.39 -1.93029 -0.23879 0
M  V30 2799 C 268.673 -1.55293 3.24894 0
M  V30 2800 C 268.526 -0.595929 4.45835 0
M  V30 2801 C 269.845 -2.5063 3.61763 0
M  V30 2802 H 266.964 -0.294369 0.67566 0
M  V30 2803 H 269.606 -0.0776472 1.89841 0
M  V30 2804 H 267.756 -2.1804 3.21544 0
M  V30 2805 H 269.428 0.0236262 4.61294 0
M  V30 2806 H 267.671 0.0916191 4.33703 0
M  V30 2807 H 268.342 -1.15004 5.39887 0
M  V30 2808 H 270.818 -1.97982 3.65981 0
M  V30 2809 H 269.694 -2.99376 4.60071 0
M  V30 2810 H 269.955 -3.3385 2.89821 0
M  V30 2811 N 269.014 -1.53014 -0.377408 0
M  V30 2812 C 269.944 -1.81589 -1.46791 0
M  V30 2813 C 270.925 -0.668622 -1.56408 0
M  V30 2814 O 272.11 -0.917337 -1.71168 0
M  V30 2815 C 269.24 -1.99519 -2.8427 0
M  V30 2816 C 268.194 -3.15249 -2.89486 0
M  V30 2817 C 267.52 -3.18451 -4.29527 0
M  V30 2818 C 268.82 -4.54084 -2.58079 0
M  V30 2819 H 270.514 -2.7291 -1.23127 0
M  V30 2820 H 268.06 -1.31319 -0.590883 0
M  V30 2821 H 270.013 -2.18092 -3.60575 0
M  V30 2822 H 268.737 -1.04897 -3.09296 0
M  V30 2823 H 267.396 -2.96477 -2.15631 0
M  V30 2824 H 267.044 -2.2149 -4.5161 0
M  V30 2825 H 266.744 -3.962 -4.33934 0
M  V30 2826 H 268.268 -3.39193 -5.07721 0
M  V30 2827 H 269.682 -4.72899 -3.24098 0
M  V30 2828 H 268.079 -5.33987 -2.7382 0
M  V30 2829 H 269.149 -4.60006 -1.53372 0
M  V30 2830 N 270.492 0.636531 -1.44174 0
M  V30 2831 C 271.741 1.39213 -1.45954 0
M  V30 2832 C 272.054 1.95374 -0.0939119 0
M  V30 2833 O 273.26 2.71498 0.0107767 0
M  V30 2834 C 271.716 2.52025 -2.56927 0
M  V30 2835 C 271.324 2.024 -3.99673 0
M  V30 2836 C 273.068 3.29269 -2.67922 0
M  V30 2837 C 270.975 3.12521 -5.0208 0
M  V30 2838 H 269.905 0.523132 -0.542999 0
M  V30 2839 H 272.556 0.685349 -1.70221 0
M  V30 2840 H 270.938 3.25253 -2.25891 0
M  V30 2841 H 272.112 1.36073 -4.40251 0
M  V30 2842 H 270.427 1.37987 -3.92872 0
M  V30 2843 H 273.024 4.11352 -3.41605 0
M  V30 2844 H 273.367 3.78397 -1.73555 0
M  V30 2845 H 273.9 2.63129 -2.98342 0
M  V30 2846 H 270.639 2.68343 -5.98057 0
M  V30 2847 H 270.159 3.77507 -4.66099 0
M  V30 2848 H 271.838 3.77385 -5.25538 0
M  V30 2849 N 271.97 1.30982 0.876444 0
M  V30 2850 C 273.381 1.18277 1.44456 0
M  V30 2851 C 273.732 -0.213265 1.95037 0
M  V30 2852 O 272.857 -1.11057 1.85729 0
M  V30 2853 C 273.452 2.1411 2.62569 0
M  V30 2854 C 272.011 2.05358 3.15444 0
M  V30 2855 C 271.158 2.03706 1.88146 0
M  V30 2856 H 274.109 1.43127 0.685584 0
M  V30 2857 H 274.13 1.72692 3.39054 0
M  V30 2858 H 273.642 3.15706 2.25724 0
M  V30 2859 H 271.743 1.06934 3.56926 0
M  V30 2860 H 271.856 2.94156 3.78166 0
M  V30 2861 H 270.22 1.48629 2.06837 0
M  V30 2862 H 271.003 3.07047 1.53547 0
M  V30 2863 N 273.449 -1.08991 1.13837 0
M  V30 2864 C 274.698 -1.80631 0.897509 0
M  V30 2865 C 275.011 -1.86872 -0.57777 0
M  V30 2866 O 276.217 -2.54866 -0.935701 0
M  V30 2867 C 274.673 -3.24517 1.55618 0
M  V30 2868 C 274.281 -3.26529 3.0673 0
M  V30 2869 C 276.025 -4.00882 1.3962 0
M  V30 2870 C 273.932 -4.64965 3.65461 0
M  V30 2871 H 272.862 -0.67691 0.332129 0
M  V30 2872 H 275.513 -1.2246 1.3666 0
M  V30 2873 H 273.895 -3.82778 1.01476 0
M  V30 2874 H 275.069 -2.78008 3.67489 0
M  V30 2875 H 273.384 -2.63656 3.22296 0
M  V30 2876 H 275.981 -5.03167 1.80906 0
M  V30 2877 H 276.324 -4.14896 0.341578 0
M  V30 2878 H 276.857 -3.49075 1.90766 0
M  V30 2879 H 273.596 -4.56153 4.70749 0
M  V30 2880 H 273.116 -5.13792 3.09481 0
M  V30 2881 H 274.795 -5.3394 3.654 0
M  V30 2882 N 274.927 -0.932562 -1.27047 0
M  V30 2883 C 276.338 -0.619451 -1.76124 0
M  V30 2884 C 276.689 0.865397 -1.76083 0
M  V30 2885 O 275.814 1.67722 -1.36742 0
M  V30 2886 C 276.409 -1.11771 -3.19832 0
M  V30 2887 C 274.968 -0.855174 -3.66557 0
M  V30 2888 C 274.115 -1.27362 -2.46321 0
M  V30 2889 H 277.066 -1.11181 -1.13245 0
M  V30 2890 H 277.087 -0.46759 -3.77616 0
M  V30 2891 H 276.599 -2.19842 -3.1983 0
M  V30 2892 H 274.7 0.211524 -3.71999 0
M  V30 2893 H 274.813 -1.47613 -4.55793 0
M  V30 2894 H 273.177 -0.692119 -2.45116 0
M  V30 2895 H 273.96 -2.36307 -2.49025 0
M  V30 2896 N 276.405 1.4127 -0.698611 0
M  V30 2897 C 277.337 2.292 0.00399731 0
M  V30 2898 C 278.35 1.44944 0.741279 0
M  V30 2899 O 279.539 1.68416 0.591477 0
M  V30 2900 C 276.639 3.22875 1.02979 0
M  V30 2901 C 275.812 4.35904 0.36151 0
M  V30 2902 C 274.871 5.10134 1.29033 0
M  V30 2903 O 273.897 5.63809 0.781562 0
M  V30 2904 N 275.099 5.17885 2.6225 0
M  V30 2905 H 277.864 2.9014 -0.750921 0
M  V30 2906 H 275.425 1.52455 -0.544882 0
M  V30 2907 H 277.417 3.69404 1.65296 0
M  V30 2908 H 275.987 2.63221 1.68622 0
M  V30 2909 H 275.207 3.91719 -0.441584 0
M  V30 2910 H 276.495 5.08696 -0.103055 0
M  V30 2911 H 275.893 4.7573 3.061 0
M  V30 2912 H 274.45 5.6798 3.19754 0
M  V30 2913 N 277.883 0.443576 1.51229 0
M  V30 2914 C 279.113 -0.119117 2.06256 0
M  V30 2915 C 279.521 -1.36471 1.31043 0
M  V30 2916 O 278.864 -1.80034 0.365151 0
M  V30 2917 C 278.926 -0.500546 3.55998 0
M  V30 2918 C 278.59 0.639125 4.52509 0
M  V30 2919 C 279.587 1.51311 4.97394 0
M  V30 2920 C 277.272 0.821632 4.95535 0
M  V30 2921 C 279.266 2.55425 5.83984 0
M  V30 2922 C 276.953 1.86603 5.81913 0
M  V30 2923 C 277.951 2.73072 6.26036 0
M  V30 2924 O 277.639 3.75718 7.10698 0
M  V30 2925 H 277.371 -0.00857665 0.675946 0
M  V30 2926 H 279.925 0.623288 1.95715 0
M  V30 2927 H 278.155 -1.29575 3.64345 0
M  V30 2928 H 279.844 -0.995116 3.93513 0
M  V30 2929 H 280.61 1.38367 4.64844 0
M  V30 2930 H 276.489 0.158149 4.60729 0
M  V30 2931 H 280.033 3.22949 6.18344 0
M  V30 2932 H 275.93 1.99564 6.13876 0
M  V30 2933 H 276.698 3.72374 7.2889 0
M  V30 2934 N 279.361 -1.56624 0.175154 0
M  V30 2935 C 280.772 -1.83561 -0.340916 0
M  V30 2936 C 281.123 -1.09511 -1.62794 0
M  V30 2937 O 280.248 -0.349389 -2.13561 0
M  V30 2938 C 280.843 -3.32979 -0.625313 0
M  V30 2939 C 279.402 -3.60399 -1.08581 0
M  V30 2940 C 278.549 -2.77024 -0.123722 0
M  V30 2941 H 281.5 -1.53593 0.399344 0
M  V30 2942 H 281.521 -3.50666 -1.47694 0
M  V30 2943 H 281.033 -3.86847 0.311575 0
M  V30 2944 H 279.134 -3.11945 -2.03767 0
M  V30 2945 H 279.247 -4.68711 -0.992317 0
M  V30 2946 H 277.611 -2.46993 -0.621821 0
M  V30 2947 H 278.394 -3.33674 0.807256 0
M  V30 2948 N 280.839 0.0985539 -1.57292 0
M  V30 2949 C 281.769 1.12064 -2.04851 0
M  V30 2950 C 282.75 1.41981 -0.936767 0
M  V30 2951 O 283.935 1.52071 -1.20781 0
M  V30 2952 C 281.065 2.44144 -2.47004 0
M  V30 2953 C 280.019 2.28643 -3.6181 0
M  V30 2954 C 279.345 3.65869 -3.89929 0
M  V30 2955 C 280.645 1.72986 -4.92822 0
M  V30 2956 H 282.339 0.724979 -2.9049 0
M  V30 2957 H 279.885 0.34729 -1.39749 0
M  V30 2958 H 281.838 3.15914 -2.78884 0
M  V30 2959 H 280.562 2.85639 -1.5836 0
M  V30 2960 H 279.221 1.59318 -3.30172 0
M  V30 2961 H 278.869 4.04885 -2.98458 0
M  V30 2962 H 278.569 3.56344 -4.67218 0
M  V30 2963 H 280.093 4.39112 -4.2428 0
M  V30 2964 H 281.507 2.34593 -5.23105 0
M  V30 2965 H 279.904 1.74229 -5.74251 0
M  V30 2966 H 280.974 0.689007 -4.7998 0
M  V30 2967 N 282.317 1.53212 0.369288 0
M  V30 2968 C 283.547 1.72868 1.13139 0
M  V30 2969 C 283.955 0.455754 1.83629 0
M  V30 2970 O 283.298 -0.580861 1.74275 0
M  V30 2971 C 283.36 2.83667 2.20847 0
M  V30 2972 C 283.024 4.24142 1.70155 0
M  V30 2973 C 284.021 5.06619 1.16763 0
M  V30 2974 C 281.706 4.70539 1.7578 0
M  V30 2975 C 283.7 6.33581 0.696678 0
M  V30 2976 C 281.387 5.97481 1.28297 0
M  V30 2977 C 282.385 6.78833 0.753307 0
M  V30 2978 O 282.073 8.03393 0.285475 0
M  V30 2979 H 281.805 0.581707 0.344373 0
M  V30 2980 H 284.359 2.00736 0.435243 0
M  V30 2981 H 282.589 2.51265 2.93944 0
M  V30 2982 H 284.278 2.91536 2.82421 0
M  V30 2983 H 285.044 4.71948 1.11758 0
M  V30 2984 H 280.923 4.07293 2.15949 0
M  V30 2985 H 284.467 6.97027 0.282581 0
M  V30 2986 H 280.364 6.31651 1.32994 0
M  V30 2987 H 281.132 8.17497 0.405145 0
M  V30 2988 N 283.795 -0.628877 1.44509 0
M  V30 2989 C 285.02 -1.42048 1.5112 0
M  V30 2990 C 285.445 -1.87594 0.137818 0
M  V30 2991 O 284.803 -1.58873 -0.873437 0
M  V30 2992 C 284.851 -2.61541 2.48251 0
M  V30 2993 O 283.955 -3.61453 1.98559 0
M  V30 2994 H 283.296 -0.424942 0.510216 0
M  V30 2995 H 285.826 -0.767374 1.89664 0
M  V30 2996 H 285.836 -3.09057 2.66361 0
M  V30 2997 H 284.511 -2.27736 3.48007 0
M  V30 2998 H 283.088 -3.20731 1.90227 0
M  V30 2999 N 285.273 -1.31445 -0.869486 0
M  V30 3000 C 286.236 -1.19094 -1.9583 0
M  V30 3001 C 287.236 -0.117906 -1.60367 0
M  V30 3002 O 288.426 -0.367208 -1.70286 0
M  V30 3003 C 285.558 -0.828165 -3.30688 0
M  V30 3004 H 286.751 -2.15842 -2.08212 0
M  V30 3005 H 284.304 -1.15063 -1.05784 0
M  V30 3006 H 285.039 0.138142 -3.24006 0
M  V30 3007 H 284.824 -1.6038 -3.578 0
M  V30 3008 H 286.314 -0.765658 -4.10521 0
M  V30 3009 N 286.751 1.08385 -1.14413 0
M  V30 3010 C 287.979 1.84517 -0.936001 0
M  V30 3011 C 288.394 1.81626 0.515503 0
M  V30 3012 O 287.751 1.22008 1.35721 0
M  V30 3013 C 287.802 3.32049 -1.42918 0
M  V30 3014 O 287.523 3.34951 -2.82381 0
M  V30 3015 C 289.024 4.24986 -1.26103 0
M  V30 3016 H 286.244 0.582491 -0.333084 0
M  V30 3017 H 288.788 1.36885 -1.5193 0
M  V30 3018 H 286.943 3.7707 -0.888641 0
M  V30 3019 H 287.357 4.27048 -3.04517 0
M  V30 3020 H 288.831 5.26615 -1.6547 0
M  V30 3021 H 289.308 4.38726 -0.20392 0
M  V30 3022 H 289.914 3.85791 -1.79012 0
M  V30 3023 N 288.23 0.939286 1.26551 0
M  V30 3024 C 289.16 0.465044 2.28822 0
M  V30 3025 C 290.141 -0.480692 1.63167 0
M  V30 3026 O 291.326 -0.382955 1.90387 0
M  V30 3027 C 288.456 -0.27234 3.46231 0
M  V30 3028 C 287.41 0.58666 4.2396 0
M  V30 3029 C 286.736 -0.280573 5.33963 0
M  V30 3030 C 288.036 1.85704 4.88171 0
M  V30 3031 H 289.73 1.31979 2.68741 0
M  V30 3032 H 287.276 0.636061 1.29191 0
M  V30 3033 H 289.229 -0.615133 4.16886 0
M  V30 3034 H 287.953 -1.16121 3.0526 0
M  V30 3035 H 286.612 0.91232 3.55067 0
M  V30 3036 H 286.26 -1.16874 4.89234 0
M  V30 3037 H 285.96 0.29076 5.8688 0
M  V30 3038 H 287.484 -0.618678 6.07458 0
M  V30 3039 H 288.898 1.58161 5.51052 0
M  V30 3040 H 287.295 2.37279 5.51197 0
M  V30 3041 H 288.365 2.56957 4.11219 0
M  V30 3042 N 289.708 -1.40897 0.706093 0
M  V30 3043 C 290.671 -2.29131 0.0562841 0
M  V30 3044 C 291.671 -1.44901 -0.697166 0
M  V30 3045 O 292.861 -1.65926 -0.530484 0
M  V30 3046 C 289.993 -3.27957 -0.93043 0
M  V30 3047 H 291.186 -2.88091 0.833284 0
M  V30 3048 H 288.739 -1.4906 0.470192 0
M  V30 3049 H 289.474 -2.73997 -1.73482 0
M  V30 3050 H 289.259 -3.90124 -0.393166 0
M  V30 3051 H 290.749 -3.94049 -1.38256 0
M  V30 3052 N 291.186 -0.45159 -1.50991 0
M  V30 3053 C 292.096 0.358431 -2.31846 0
M  V30 3054 C 293.112 1.01438 -1.41373 0
M  V30 3055 O 294.288 1.00663 -1.74439 0
M  V30 3056 C 291.353 1.43704 -3.15515 0
M  V30 3057 C 290.414 0.799742 -4.21785 0
M  V30 3058 C 289.647 1.82696 -5.01456 0
M  V30 3059 O 289.87 3.05105 -4.81941 0
M  V30 3060 O 288.804 1.40958 -5.85162 0
M  V30 3061 H 292.63 -0.302032 -3.02194 0
M  V30 3062 H 290.215 -0.213825 -1.47862 0
M  V30 3063 H 292.097 2.06227 -3.67489 0
M  V30 3064 H 290.772 2.08133 -2.47916 0
M  V30 3065 H 289.679 0.136084 -3.73852 0
M  V30 3066 H 291.012 0.198718 -4.91799 0
M  V30 3067 N 292.664 1.56529 -0.183458 0
M  V30 3068 C 293.594 2.21549 0.737456 0
M  V30 3069 C 294.575 1.17489 1.23005 0
M  V30 3070 O 295.76 1.45959 1.281 0
M  V30 3071 C 292.89 2.86575 1.96194 0
M  V30 3072 C 291.844 3.96778 1.60473 0
M  V30 3073 C 291.17 4.48911 2.90487 0
M  V30 3074 C 292.47 5.15767 0.823497 0
M  V30 3075 H 294.164 2.98761 0.195453 0
M  V30 3076 H 291.71 1.43702 0.0925686 0
M  V30 3077 H 293.663 3.30739 2.61131 0
M  V30 3078 H 292.387 2.06749 2.52828 0
M  V30 3079 H 291.046 3.53286 0.978997 0
M  V30 3080 H 290.694 3.65862 3.45186 0
M  V30 3081 H 290.394 5.23265 2.67335 0
M  V30 3082 H 291.918 4.95771 3.56432 0
M  V30 3083 H 293.332 5.56549 1.37571 0
M  V30 3084 H 291.729 5.96114 0.690551 0
M  V30 3085 H 292.799 4.84574 -0.177782 0
M  V30 3086 N 294.142 -0.090211 1.57342 0
M  V30 3087 C 295.39 -0.791241 1.85967 0
M  V30 3088 C 295.711 -1.7903 0.772859 0
M  V30 3089 O 294.981 -1.94872 -0.200398 0
M  V30 3090 H 293.561 -0.295205 0.686195 0
M  V30 3091 H 296.223 -0.0706782 1.94772 0
M  V30 3092 H 295.319 -1.31882 2.82867 0
M  V30 3093 N 295.62 -1.53406 -0.361157 0
M  V30 3094 C 296.583 -1.79479 -1.42548 0
M  V30 3095 C 297.583 -0.665327 -1.4639 0
M  V30 3096 O 298.773 -0.933549 -1.47073 0
M  V30 3097 C 295.905 -1.92087 -2.8163 0
M  V30 3098 H 297.098 -2.74538 -1.20701 0
M  V30 3099 H 294.651 -1.4455 -0.594546 0
M  V30 3100 H 295.386 -0.991099 -3.08784 0
M  V30 3101 H 295.171 -2.74241 -2.80239 0
M  V30 3102 H 296.661 -2.13836 -3.58697 0
M  V30 3103 N 297.098 0.621204 -1.44841 0
M  V30 3104 C 298.344 1.3826 -1.48365 0
M  V30 3105 C 298.677 1.93831 -0.119624 0
M  V30 3106 O 297.952 1.74251 0.864111 0
M  V30 3107 C 298.235 2.54058 -2.55199 0
M  V30 3108 C 298.088 2.03772 -4.00995 0
M  V30 3109 C 299.407 3.56225 -2.58442 0
M  V30 3110 H 296.526 0.501374 -0.540179 0
M  V30 3111 H 299.168 0.7015 -1.76576 0
M  V30 3112 H 297.318 3.12162 -2.31274 0
M  V30 3113 H 298.99 1.50423 -4.36086 0
M  V30 3114 H 297.233 1.34876 -4.12299 0
M  V30 3115 H 297.904 2.87185 -4.71411 0
M  V30 3116 H 300.38 3.07939 -2.79844 0
M  V30 3117 H 299.256 4.34756 -3.3508 0
M  V30 3118 H 299.517 4.10949 -1.63013 0
M  V30 3119 N 298.576 1.31904 0.862503 0
M  V30 3120 C 299.508 1.16005 1.97675 0
M  V30 3121 C 300.521 0.0971234 1.6251 0
M  V30 3122 O 301.71 0.345337 1.75128 0
M  V30 3123 C 298.81 0.751791 3.30456 0
M  V30 3124 C 297.983 1.90133 3.93914 0
M  V30 3125 C 297.042 1.4779 5.05019 0
M  V30 3126 O 296.068 2.18872 5.25437 0
M  V30 3127 N 297.27 0.369491 5.79323 0
M  V30 3128 H 300.035 2.11982 2.11857 0
M  V30 3129 H 297.596 1.24337 1.03691 0
M  V30 3130 H 299.588 0.451084 4.02178 0
M  V30 3131 H 298.158 -0.116593 3.12382 0
M  V30 3132 H 297.378 2.36896 3.15078 0
M  V30 3133 H 298.666 2.67111 4.33047 0
M  V30 3134 H 298.064 -0.222299 5.65263 0
M  V30 3135 H 296.621 0.128354 6.51674 0
M  V30 3136 N 300.054 -1.07777 1.14986 0
M  V30 3137 C 301.3 -1.80557 0.923422 0
M  V30 3138 C 301.633 -1.86298 -0.548337 0
M  V30 3139 O 300.908 -1.34354 -1.40639 0
M  V30 3140 C 301.191 -3.25839 1.53299 0
M  V30 3141 C 301.044 -3.28269 3.07505 0
M  V30 3142 C 302.363 -4.22991 1.21518 0
M  V30 3143 H 299.482 -0.655493 0.336894 0
M  V30 3144 H 302.124 -1.26144 1.42083 0
M  V30 3145 H 300.274 -3.72306 1.10999 0
M  V30 3146 H 301.946 -2.90079 3.58681 0
M  V30 3147 H 300.189 -2.67355 3.4162 0
M  V30 3148 H 300.86 -4.30691 3.45266 0
M  V30 3149 H 303.336 -3.84894 1.581 0
M  V30 3150 H 302.212 -5.22945 1.66793 0
M  V30 3151 H 302.473 -4.41904 0.131505 0
M  V30 3152 N 301.532 -0.945985 -1.26051 0
M  V30 3153 C 302.809 -0.513816 -1.88731 0
M  V30 3154 C 303.189 1.00872 -1.8544 0
M  V30 3155 O 302.537 1.8708 -1.312 0
M  V30 3156 C 302.747 -1.08062 -3.31849 0
M  V30 3157 C 304.095 -1.1522 -4.08668 0
M  V30 3158 O 305.119 -1.03155 -3.40936 0
M  V30 3159 O 303.978 -1.34044 -5.29806 0
M  V30 3160 H 301.072 -0.168193 -0.809716 0
M  V30 3161 H 303.618 -1.03886 -1.34186 0
M  V30 3162 H 302.39 -2.1241 -3.2863 0
M  V30 3163 H 302.013 -0.538307 -3.93939 0
M  V30 3164 N 303.011 1.40521 -0.713556 0
M  V30 3165 C 304.241 2.0494 -0.261395 0
M  V30 3166 C 304.649 1.53861 1.10107 0
M  V30 3167 O 303.992 0.689321 1.70276 0
M  V30 3168 C 304.054 3.59138 -0.161227 0
M  V30 3169 C 303.718 4.33096 -1.45865 0
M  V30 3170 C 304.715 4.61182 -2.40016 0
M  V30 3171 C 302.4 4.72043 -1.71701 0
M  V30 3172 C 304.394 5.27196 -3.58251 0
M  V30 3173 C 302.081 5.37789 -2.90218 0
M  V30 3174 C 303.079 5.65295 -3.83315 0
M  V30 3175 O 302.767 6.29683 -4.99754 0
M  V30 3176 H 302.499 0.666041 -0.115608 0
M  V30 3177 H 305.053 1.80954 -0.971849 0
M  V30 3178 H 303.283 3.81936 0.605153 0
M  V30 3179 H 304.972 4.05091 0.256105 0
M  V30 3180 H 305.738 4.31559 -2.21318 0
M  V30 3181 H 301.617 4.50003 -1.00092 0
M  V30 3182 H 305.161 5.48582 -4.30934 0
M  V30 3183 H 301.058 5.66831 -3.08825 0
M  V30 3184 H 301.826 6.4818 -4.99805 0
M  V30 3185 N 304.489 0.459591 1.5075 0
M  V30 3186 C 305.719 -0.0972338 2.06371 0
M  V30 3187 C 306.127 -1.35074 1.32483 0
M  V30 3188 O 305.47 -1.79637 0.384226 0
M  V30 3189 C 305.532 -0.462759 3.56509 0
M  V30 3190 C 305.196 0.687084 4.51805 0
M  V30 3191 C 306.193 1.56578 4.95761 0
M  V30 3192 C 303.878 0.874144 4.94635 0
M  V30 3193 C 305.872 2.61604 5.81242 0
M  V30 3194 C 303.559 1.92765 5.79901 0
M  V30 3195 C 304.557 2.79697 6.23104 0
M  V30 3196 O 304.245 3.83235 7.06673 0
M  V30 3197 H 303.977 -0.00140687 0.675999 0
M  V30 3198 H 306.531 0.644011 1.95043 0
M  V30 3199 H 304.761 -1.25703 3.65699 0
M  V30 3200 H 306.45 -0.953323 3.94546 0
M  V30 3201 H 307.216 1.4329 4.6335 0
M  V30 3202 H 303.095 0.207006 4.60535 0
M  V30 3203 H 306.639 3.29489 6.14884 0
M  V30 3204 H 302.536 2.06064 6.11725 0
M  V30 3205 H 303.304 3.80084 7.24899 0
M  V30 3206 N 305.967 -1.56429 0.191757 0
M  V30 3207 C 306.897 -2.21937 -0.725696 0
M  V30 3208 C 307.878 -1.1814 -1.2238 0
M  V30 3209 O 309.063 -1.46636 -1.27325 0
M  V30 3210 C 306.193 -2.87611 -1.94672 0
M  V30 3211 C 305.147 -3.97623 -1.58366 0
M  V30 3212 C 304.473 -4.50446 -2.88102 0
M  V30 3213 C 305.773 -5.16197 -0.796133 0
M  V30 3214 H 307.467 -2.98861 -0.179606 0
M  V30 3215 H 305.013 -1.43749 -0.0849464 0
M  V30 3216 H 306.966 -3.3212 -2.59373 0
M  V30 3217 H 305.69 -2.08087 -2.51728 0
M  V30 3218 H 304.349 -3.53801 -0.960247 0
M  V30 3219 H 303.997 -3.67688 -3.43241 0
M  V30 3220 H 303.697 -5.24675 -2.64556 0
M  V30 3221 H 305.221 -4.97654 -3.53798 0
M  V30 3222 H 306.635 -5.57271 -1.34618 0
M  V30 3223 H 305.032 -5.96471 -0.658928 0
M  V30 3224 H 306.102 -4.84473 0.203478 0
M  V30 3225 N 307.445 0.0818655 -1.57387 0
M  V30 3226 C 308.722 0.815343 -1.77796 0
M  V30 3227 C 309.102 1.96289 -0.77679 0
M  V30 3228 O 308.45 2.27691 0.192106 0
M  V30 3229 C 308.66 1.29765 -3.23978 0
M  V30 3230 C 310.008 1.7351 -3.8753 0
M  V30 3231 O 311.032 1.39356 -3.27808 0
M  V30 3232 O 309.891 2.36708 -4.92576 0
M  V30 3233 H 306.985 0.389914 -0.729312 0
M  V30 3234 H 309.531 0.0627213 -1.69584 0
M  V30 3235 H 308.303 0.47608 -3.88393 0
M  V30 3236 H 307.926 2.11189 -3.36875 0
M  V30 3237 N 308.923 1.53595 0.353017 0
M  V30 3238 C 309.833 1.83897 1.45667 0
M  V30 3239 C 310.849 0.728334 1.58023 0
M  V30 3240 O 312.025 1.01968 1.73679 0
M  V30 3241 C 309.09 2.03383 2.80778 0
M  V30 3242 C 308.151 3.27262 2.77845 0
M  V30 3243 C 307.384 3.45809 4.06512 0
M  V30 3244 O 307.607 2.68387 5.03314 0
M  V30 3245 O 306.541 4.39207 4.11559 0
M  V30 3246 H 310.367 2.77686 1.2298 0
M  V30 3247 H 307.952 1.39132 0.544308 0
M  V30 3248 H 309.834 2.17698 3.60812 0
M  V30 3249 H 308.509 1.12783 3.03417 0
M  V30 3250 H 307.416 3.18359 1.96465 0
M  V30 3251 H 308.749 4.17824 2.60161 0
M  V30 3252 N 310.401 -0.613514 1.45168 0
M  V30 3253 C 311.311 -1.75296 1.55912 0
M  V30 3254 C 312.327 -1.68244 0.443856 0
M  V30 3255 O 313.503 -1.88706 0.70371 0
M  V30 3256 C 310.568 -3.1174 1.5172 0
M  V30 3257 C 309.629 -3.30291 2.74238 0
M  V30 3258 C 308.862 -4.60226 2.70236 0
M  V30 3259 O 309.085 -5.42168 1.77229 0
M  V30 3260 O 308.019 -4.81361 3.61352 0
M  V30 3261 H 311.845 -1.69183 2.52212 0
M  V30 3262 H 309.43 -0.776886 1.27612 0
M  V30 3263 H 311.312 -3.93044 1.51968 0
M  V30 3264 H 309.987 -3.18357 0.585697 0
M  V30 3265 H 308.894 -2.48598 2.79553 0
M  V30 3266 H 310.227 -3.28547 3.66494 0
M  V30 3267 N 311.879 -1.3236 -0.855495 0
M  V30 3268 C 313.295 -1.11332 -1.14356 0
M  V30 3269 C 313.495 0.106751 -2.01217 0
M  V30 3270 O 312.551 0.791891 -2.39761 0
M  V30 3271 C 313.864 -2.39237 -1.82171 0
M  V30 3272 C 315.412 -2.44986 -1.9481 0
M  V30 3273 C 315.887 -3.7281 -2.66039 0
M  V30 3274 N 317.378 -3.73787 -2.73565 0
M  V30 3275 C 318.113 -4.69394 -3.29327 0
M  V30 3276 N 317.609 -5.75367 -3.85907 0
M  V30 3277 N 319.402 -4.56893 -3.27423 0
M  V30 3278 H 311.553 -2.10586 -0.277027 0
M  V30 3279 H 313.816 -0.929701 -0.185364 0
M  V30 3280 H 313.522 -3.28431 -1.25802 0
M  V30 3281 H 313.396 -2.50134 -2.82335 0
M  V30 3282 H 315.783 -1.56252 -2.50338 0
M  V30 3283 H 315.864 -2.38043 -0.936448 0
M  V30 3284 H 315.508 -4.61918 -2.11174 0
M  V30 3285 H 315.438 -3.77024 -3.67642 0
M  V30 3286 H 317.929 -2.97189 -2.33424 0
M  V30 3287 H 318.242 -6.44378 -4.26611 0
M  V30 3288 H 316.587 -5.79123 -3.84242 0
M  V30 3289 H 319.778 -3.73269 -2.82467 0
M  V30 3290 H 319.951 -5.31577 -3.7058 0
M  V30 3291 N 313.357 1.07166 -1.15556 0
M  V30 3292 C 314.32 2.12589 -0.856644 0
M  V30 3293 C 315.32 1.6015 0.14444 0
M  V30 3294 O 316.51 1.7399 -0.0854163 0
M  V30 3295 C 313.642 3.39753 -0.279405 0
M  V30 3296 H 314.835 2.40539 -1.79112 0
M  V30 3297 H 312.388 1.23086 -0.963298 0
M  V30 3298 H 313.123 3.17447 0.663174 0
M  V30 3299 H 312.908 3.79117 -1.00063 0
M  V30 3300 H 314.398 4.17507 -0.0879113 0
M  V30 3301 N 314.835 0.952656 1.25548 0
M  V30 3302 C 316.081 0.616826 1.93822 0
M  V30 3303 C 316.436 -0.836684 1.73255 0
M  V30 3304 O 315.729 -1.59218 1.06584 0
M  V30 3305 C 315.923 0.908818 3.45652 0
M  V30 3306 C 315.752 2.38916 3.80984 0
M  V30 3307 C 314.522 3.04637 4.03143 0
M  V30 3308 C 316.72 3.36838 3.88645 0
M  V30 3309 N 314.702 4.42565 4.25453 0
M  V30 3310 C 316.073 4.60065 4.1562 0
M  V30 3311 C 318.128 3.31704 3.71318 0
M  V30 3312 C 316.831 5.78795 4.2707 0
M  V30 3313 C 318.857 4.4977 3.84006 0
M  V30 3314 C 318.219 5.71783 4.11392 0
M  V30 3315 H 314.318 0.27629 0.731565 0
M  V30 3316 H 316.902 1.22443 1.5138 0
M  V30 3317 H 315.073 0.330166 3.86994 0
M  V30 3318 H 316.805 0.533093 4.01174 0
M  V30 3319 H 313.56 2.55215 3.98952 0
M  V30 3320 H 313.984 5.1399 4.40617 0
M  V30 3321 H 318.626 2.3842 3.49164 0
M  V30 3322 H 316.344 6.72521 4.48041 0
M  V30 3323 H 319.93 4.47342 3.71989 0
M  V30 3324 H 318.81 6.61617 4.2099 0
M  V30 3325 N 316.313 -1.40141 0.720998 0
M  V30 3326 C 317.276 -2.29058 0.0805834 0
M  V30 3327 C 318.276 -1.45632 -0.681758 0
M  V30 3328 O 319.466 -1.6648 -0.512856 0
M  V30 3329 C 316.598 -3.28925 -0.895593 0
M  V30 3330 H 317.791 -2.87191 0.863793 0
M  V30 3331 H 315.344 -1.48553 0.485975 0
M  V30 3332 H 316.079 -2.75822 -1.70566 0
M  V30 3333 H 315.864 -3.90519 -0.351766 0
M  V30 3334 H 317.354 -3.95494 -1.34069 0
M  V30 3335 N 317.792 -0.46758 -1.50504 0
M  V30 3336 C 318.722 0.318381 -2.31319 0
M  V30 3337 C 319.703 0.993564 -1.38066 0
M  V30 3338 O 320.888 0.991411 -1.66987 0
M  V30 3339 C 318.018 1.40275 -3.17711 0
M  V30 3340 C 316.972 0.849373 -4.19487 0
M  V30 3341 C 316.298 2.03177 -4.94594 0
M  V30 3342 C 317.598 -0.136942 -5.2212 0
M  V30 3343 H 319.292 -0.356106 -2.97275 0
M  V30 3344 H 316.838 -0.172703 -1.42961 0
M  V30 3345 H 318.791 1.96004 -3.73042 0
M  V30 3346 H 317.515 2.10596 -2.49634 0
M  V30 3347 H 316.174 0.314076 -3.65252 0
M  V30 3348 H 315.822 2.72187 -4.22993 0
M  V30 3349 H 315.522 1.66774 -5.63436 0
M  V30 3350 H 317.046 2.59403 -5.52759 0
M  V30 3351 H 318.46 0.331056 -5.72343 0
M  V30 3352 H 316.857 -0.41507 -5.98663 0
M  V30 3353 H 317.927 -1.06398 -4.73083 0
M  V30 3354 N 319.27 1.56325 -0.20005 0
M  V30 3355 C 320.547 1.89484 0.48529 0
M  V30 3356 C 320.927 1.1143 1.79294 0
M  V30 3357 O 320.275 0.216919 2.27468 0
M  V30 3358 C 320.485 3.41923 0.699243 0
M  V30 3359 C 321.833 4.12256 1.01638 0
M  V30 3360 O 322.857 3.47402 0.786792 0
M  V30 3361 O 321.716 5.26887 1.45095 0
M  V30 3362 H 318.81 0.787144 0.253639 0
M  V30 3363 H 321.356 1.67985 -0.240633 0
M  V30 3364 H 320.128 3.90658 -0.224008 0
M  V30 3365 H 319.751 3.69131 1.47744 0
M  V30 3366 N 320.748 -0.0735177 1.57428 0
M  V30 3367 C 321.994 -0.774145 1.87443 0
M  V30 3368 C 322.327 -1.77311 0.792103 0
M  V30 3369 O 321.602 -1.93492 -0.197793 0
M  V30 3370 C 321.885 -1.48367 3.28115 0
M  V30 3371 C 321.738 -0.501227 4.46999 0
M  V30 3372 C 323.057 -2.429 3.66998 0
M  V30 3373 H 320.176 -0.279971 0.681752 0
M  V30 3374 H 322.818 -0.0373616 1.89963 0
M  V30 3375 H 320.968 -2.11171 3.26097 0
M  V30 3376 H 322.64 0.121468 4.6114 0
M  V30 3377 H 320.883 0.183593 4.33411 0
M  V30 3378 H 321.554 -1.03526 5.42205 0
M  V30 3379 H 324.03 -1.90175 3.70098 0
M  V30 3380 H 322.906 -2.89549 4.66318 0
M  V30 3381 H 323.167 -3.27628 2.96837 0
M  V30 3382 N 322.226 -1.5378 -0.344866 0
M  V30 3383 C 323.189 -1.80981 -1.40637 0
M  V30 3384 C 324.189 -0.680816 -1.45676 0
M  V30 3385 O 325.379 -0.949095 -1.46075 0
M  V30 3386 C 322.511 -1.95063 -2.79577 0
M  V30 3387 H 323.704 -2.75803 -1.17783 0
M  V30 3388 H 321.257 -1.45173 -0.579181 0
M  V30 3389 H 321.992 -1.02379 -3.07716 0
M  V30 3390 H 321.777 -2.77198 -2.77315 0
M  V30 3391 H 323.267 -2.17629 -3.56409 0
M  V30 3392 N 323.704 0.605807 -1.45491 0
M  V30 3393 C 324.614 1.74466 -1.56839 0
M  V30 3394 C 325.63 1.68006 -0.452772 0
M  V30 3395 O 326.806 1.8833 -0.713708 0
M  V30 3396 C 323.871 3.10931 -1.53371 0
M  V30 3397 C 322.932 3.28832 -2.75986 0
M  V30 3398 C 322.165 4.58787 -2.72673 0
M  V30 3399 O 322.388 5.4122 -1.80102 0
M  V30 3400 O 321.322 4.79438 -3.63899 0
M  V30 3401 H 325.148 1.67843 -2.53106 0
M  V30 3402 H 322.733 0.770108 -1.28022 0
M  V30 3403 H 324.615 3.92233 -1.54051 0
M  V30 3404 H 323.29 3.18042 -0.602572 0
M  V30 3405 H 322.197 2.47112 -2.80867 0
M  V30 3406 H 323.53 3.26599 -3.68231 0
M  V30 3407 N 325.182 1.32811 0.848464 0
M  V30 3408 C 326.112 1.24882 1.97299 0
M  V30 3409 C 327.093 0.131357 1.69592 0
M  V30 3410 O 328.278 0.319553 1.91553 0
M  V30 3411 C 325.408 0.97746 3.33261 0
M  V30 3412 C 324.362 2.05682 3.75338 0
M  V30 3413 C 323.688 1.63777 5.09 0
M  V30 3414 C 324.988 3.47254 3.90144 0
M  V30 3415 H 326.682 2.18966 2.04191 0
M  V30 3416 H 324.228 1.05413 0.981029 0
M  V30 3417 H 326.181 0.908513 4.1149 0
M  V30 3418 H 324.905 0.000980011 3.266 0
M  V30 3419 H 323.564 2.11603 2.99366 0
M  V30 3420 H 323.212 0.648569 4.98801 0
M  V30 3421 H 322.912 2.36 5.38124 0
M  V30 3422 H 324.436 1.5833 5.89715 0
M  V30 3423 H 325.85 3.43888 4.58709 0
M  V30 3424 H 324.247 4.1788 4.30693 0
M  V30 3425 H 325.317 3.86462 2.92874 0
M  V30 3426 N 326.66 -1.06551 1.16123 0
M  V30 3427 C 327.61 -2.12209 0.833736 0
M  V30 3428 C 328.594 -1.59825 -0.185656 0
M  V30 3429 O 329.786 -1.76994 0.0147906 0
M  V30 3430 C 326.915 -3.41674 0.333697 0
M  V30 3431 C 326.001 -4.00892 1.38372 0
M  V30 3432 N 326.392 -4.34256 2.59337 0
M  V30 3433 C 324.69 -4.28463 1.23836 0
M  V30 3434 C 325.391 -4.81291 3.26701 0
M  V30 3435 N 324.367 -4.80565 2.54083 0
M  V30 3436 H 328.169 -2.35849 1.75364 0
M  V30 3437 H 325.683 -1.24068 1.04789 0
M  V30 3438 H 327.68 -4.16822 0.0806918 0
M  V30 3439 H 326.34 -3.19475 -0.58017 0
M  V30 3440 H 327.351 -4.24687 2.96415 0
M  V30 3441 H 324.028 -4.15721 0.38504 0
M  V30 3442 H 325.418 -5.16332 4.29943 0
M  V30 3443 N 328.138 -0.959301 -1.25041 0
M  V30 3444 C 329.554 -0.664474 -1.4511 0
M  V30 3445 C 329.754 0.776481 -1.85938 0
M  V30 3446 O 328.81 1.55128 -1.99227 0
M  V30 3447 C 330.123 -1.64139 -2.5195 0
M  V30 3448 C 331.671 -1.65309 -2.65786 0
M  V30 3449 C 332.146 -2.61777 -3.75815 0
M  V30 3450 N 333.637 -2.60169 -3.83231 0
M  V30 3451 C 334.372 -3.31489 -4.6787 0
M  V30 3452 N 333.868 -4.12298 -5.56761 0
M  V30 3453 N 335.661 -3.20354 -4.61876 0
M  V30 3454 H 327.812 -1.89043 -0.968332 0
M  V30 3455 H 330.075 -0.813408 -0.4869 0
M  V30 3456 H 329.781 -2.67086 -2.28819 0
M  V30 3457 H 329.655 -1.40756 -3.49954 0
M  V30 3458 H 332.042 -0.630778 -2.8828 0
M  V30 3459 H 332.123 -1.92753 -1.68167 0
M  V30 3460 H 331.767 -3.64137 -3.54071 0
M  V30 3461 H 331.697 -2.31616 -4.72929 0
M  V30 3462 H 334.188 -2.01507 -3.19692 0
M  V30 3463 H 334.501 -4.63625 -6.18281 0
M  V30 3464 H 332.846 -4.16395 -5.56454 0
M  V30 3465 H 336.037 -2.56692 -3.91442 0
M  V30 3466 H 336.21 -3.76201 -5.27614 0
M  V30 3467 N 329.616 1.39756 -0.72842 0
M  V30 3468 C 330.579 2.29012 -0.0927297 0
M  V30 3469 C 331.579 1.45992 0.674025 0
M  V30 3470 O 332.769 1.66749 0.50402 0
M  V30 3471 C 329.901 3.29396 0.878137 0
M  V30 3472 H 331.094 2.86729 -0.879011 0
M  V30 3473 H 328.647 1.48293 -0.493847 0
M  V30 3474 H 329.382 2.76722 1.69101 0
M  V30 3475 H 329.167 3.907 0.331051 0
M  V30 3476 H 330.657 3.96199 1.3197 0
M  V30 3477 N 331.094 0.475555 1.50254 0
M  V30 3478 C 332.024 -0.30611 2.31485 0
M  V30 3479 C 333.005 -0.986228 1.38591 0
M  V30 3480 O 334.19 -0.982541 1.67511 0
M  V30 3481 C 331.32 -1.38588 3.1845 0
M  V30 3482 C 330.274 -0.827115 4.19932 0
M  V30 3483 C 329.6 -2.00551 4.95665 0
M  V30 3484 C 330.9 0.16463 5.2204 0
M  V30 3485 H 332.594 0.371866 2.97082 0
M  V30 3486 H 330.14 0.180282 1.42867 0
M  V30 3487 H 332.093 -1.94023 3.74076 0
M  V30 3488 H 330.817 -2.09269 2.50747 0
M  V30 3489 H 329.476 -0.294702 3.65414 0
M  V30 3490 H 329.124 -2.6994 4.2443 0
M  V30 3491 H 328.824 -1.63784 5.64313 0
M  V30 3492 H 330.348 -2.56468 5.54127 0
M  V30 3493 H 331.762 -0.300699 5.72511 0
M  V30 3494 H 330.159 0.446813 5.98434 0
M  V30 3495 H 331.229 1.08905 4.72512 0
M  V30 3496 N 332.573 -1.56217 0.208337 0
M  V30 3497 C 333.821 -1.97558 -0.426076 0
M  V30 3498 C 334.142 -1.09683 -1.61229 0
M  V30 3499 O 333.412 -0.170956 -1.95153 0
M  V30 3500 H 331.992 -0.729575 -0.160405 0
M  V30 3501 H 334.654 -1.92606 0.298155 0
M  V30 3502 H 333.75 -3.02672 -0.761312 0
M  V30 3503 N 334.051 0.0651679 -1.57465 0
M  V30 3504 C 334.983 1.10359 -2.00882 0
M  V30 3505 C 335.996 1.346 -0.915788 0
M  V30 3506 O 337.185 1.32723 -1.1936 0
M  V30 3507 C 334.285 2.45312 -2.33828 0
M  V30 3508 C 333.458 2.40934 -3.65061 0
M  V30 3509 C 332.517 3.58047 -3.85602 0
M  V30 3510 O 331.543 3.39175 -4.57109 0
M  V30 3511 N 332.745 4.78637 -3.28462 0
M  V30 3512 H 335.51 0.733807 -2.90578 0
M  V30 3513 H 333.071 0.253719 -1.599 0
M  V30 3514 H 335.063 3.22314 -2.44737 0
M  V30 3515 H 333.633 2.74267 -1.49988 0
M  V30 3516 H 332.853 1.49273 -3.64844 0
M  V30 3517 H 334.141 2.35117 -4.51218 0
M  V30 3518 H 333.539 4.96872 -2.70433 0
M  V30 3519 H 332.096 5.53127 -3.44809 0
M  V30 3520 N 335.529 1.53961 0.336706 0
M  V30 3521 C 336.492 1.81724 1.39675 0
M  V30 3522 C 337.492 0.688532 1.45313 0
M  V30 3523 O 338.682 0.956829 1.45569 0
M  V30 3524 C 335.814 1.96543 2.78538 0
M  V30 3525 H 337.007 2.76424 1.16318 0
M  V30 3526 H 334.56 1.45478 0.571474 0
M  V30 3527 H 335.295 1.0401 3.07168 0
M  V30 3528 H 335.08 2.78665 2.75841 0
M  V30 3529 H 336.57 2.19516 3.5525 0
M  V30 3530 N 337.007 -0.598083 1.45811 0
M  V30 3531 C 338.423 -0.919847 1.30426 0
M  V30 3532 C 338.623 -1.99759 0.264303 0
M  V30 3533 O 337.679 -2.50221 -0.338472 0
M  V30 3534 C 338.992 -1.35176 2.68603 0
M  V30 3535 C 340.54 -1.46546 2.76574 0
M  V30 3536 C 341.015 -1.9311 4.15298 0
M  V30 3537 N 342.506 -2.00328 4.1764 0
M  V30 3538 C 343.241 -2.37599 5.21856 0
M  V30 3539 N 342.737 -2.73771 6.36413 0
M  V30 3540 N 344.53 -2.38021 5.09218 0
M  V30 3541 H 336.681 0.114111 2.12093 0
M  V30 3542 H 338.944 -0.0116121 0.947929 0
M  V30 3543 H 338.65 -0.633969 3.45939 0
M  V30 3544 H 338.524 -2.3164 2.97696 0
M  V30 3545 H 340.911 -2.17415 1.99537 0
M  V30 3546 H 340.992 -0.483727 2.51185 0
M  V30 3547 H 340.636 -1.22824 4.92825 0
M  V30 3548 H 340.566 -2.92213 4.38086 0
M  V30 3549 H 343.057 -1.74925 3.34977 0
M  V30 3550 H 343.37 -3.0112 7.11721 0
M  V30 3551 H 341.715 -2.71445 6.39799 0
M  V30 3552 H 344.906 -2.09174 4.18765 0
M  V30 3553 H 345.079 -2.66741 5.90554 0
M  V30 3554 N 338.485 -1.33259 -0.841409 0
M  V30 3555 C 339.762 -1.15174 -1.58096 0
M  V30 3556 C 340.142 0.282858 -2.09196 0
M  V30 3557 O 339.49 1.28151 -1.89181 0
M  V30 3558 C 339.7 -2.1907 -2.71679 0
M  V30 3559 C 341.048 -2.53093 -3.40924 0
M  V30 3560 O 342.072 -2.17717 -2.81918 0
M  V30 3561 O 340.931 -3.1379 -4.47435 0
M  V30 3562 H 338.025 -0.445303 -0.696875 0
M  V30 3563 H 340.571 -1.44833 -0.884385 0
M  V30 3564 H 339.343 -3.15443 -2.31541 0
M  V30 3565 H 338.966 -1.90481 -3.49002 0
M  V30 3566 N 339.963 1.05934 -1.16686 0
M  V30 3567 C 340.913 2.11764 -0.844978 0
M  V30 3568 C 341.897 1.59922 0.177178 0
M  V30 3569 O 343.089 1.76983 -0.0241768 0
M  V30 3570 C 340.218 3.41493 -0.351812 0
M  V30 3571 C 339.304 4.00152 -1.40496 0
M  V30 3572 N 339.695 4.32874 -2.61636 0
M  V30 3573 C 337.993 4.278 -1.26106 0
M  V30 3574 C 338.694 4.79552 -3.29249 0
M  V30 3575 N 337.67 4.79211 -2.56628 0
M  V30 3576 H 341.472 2.34916 -1.76612 0
M  V30 3577 H 338.986 1.23511 -1.05446 0
M  V30 3578 H 340.983 4.16773 -0.102796 0
M  V30 3579 H 339.643 3.19778 0.56322 0
M  V30 3580 H 340.654 4.23109 -2.98663 0
M  V30 3581 H 337.331 4.15511 -0.407081 0
M  V30 3582 H 338.721 5.14045 -4.32675 0
M  V30 3583 N 341.441 0.965919 1.2453 0
M  V30 3584 C 342.681 0.634656 1.94297 0
M  V30 3585 C 343.045 -0.814822 1.73852 0
M  V30 3586 O 344.246 -1.25622 2.3764 0
M  V30 3587 C 342.517 0.99702 3.43212 0
M  V30 3588 S 344.076 0.780038 4.31811 0
M  V30 3589 H 340.894 0.232893 0.671775 0
M  V30 3590 H 343.496 1.24249 1.50938 0
M  V30 3591 H 342.2 2.04886 3.55598 0
M  V30 3592 H 341.731 0.379888 3.91562 0
M  V30 3593 H 343.746 -0.343512 4.9501 0
M  V30 3594 N 342.919 -1.39368 0.735821 0
M  V30 3595 C 344.335 -1.54204 0.411492 0
M  V30 3596 C 344.535 -1.70268 -1.07755 0
M  V30 3597 O 343.591 -1.70364 -1.86366 0
M  V30 3598 C 344.904 -2.75925 1.19523 0
M  V30 3599 C 346.452 -2.89761 1.18354 0
M  V30 3600 C 346.927 -4.14421 1.94986 0
M  V30 3601 N 348.418 -4.21462 1.92156 0
M  V30 3602 C 349.153 -5.16871 2.48258 0
M  V30 3603 N 348.649 -6.18063 3.13001 0
M  V30 3604 N 350.442 -5.09093 2.38287 0
M  V30 3605 H 342.593 -1.27189 1.70108 0
M  V30 3606 H 344.856 -0.616517 0.720147 0
M  V30 3607 H 344.562 -2.70401 2.24892 0
M  V30 3608 H 344.436 -3.68614 0.800222 0
M  V30 3609 H 346.823 -2.94777 0.137975 0
M  V30 3610 H 346.904 -1.98133 1.61793 0
M  V30 3611 H 346.548 -4.10166 2.99543 0
M  V30 3612 H 346.478 -5.05095 1.48953 0
M  V30 3613 H 348.969 -3.48979 1.44991 0
M  V30 3614 H 349.282 -6.87326 3.53275 0
M  V30 3615 H 347.627 -6.18448 3.17091 0
M  V30 3616 H 350.818 -4.28973 1.8735 0
M  V30 3617 H 350.991 -5.83272 2.82308 0
M  V30 3618 N 344.397 -0.483516 -1.5 0
M  V30 3619 C 345.808 -0.0314176 -1.86674 0
M  V30 3620 C 346.159 1.37728 -1.39733 0
M  V30 3621 O 345.284 2.02327 -0.767635 0
M  V30 3622 C 345.879 -0.0502376 -3.38763 0
M  V30 3623 C 344.438 0.346442 -3.74802 0
M  V30 3624 C 343.585 -0.430366 -2.7394 0
M  V30 3625 H 346.536 -0.697182 -1.42566 0
M  V30 3626 H 346.557 0.749116 -3.73053 0
M  V30 3627 H 346.069 -1.07563 -3.72897 0
M  V30 3628 H 344.17 1.37572 -3.46273 0
M  V30 3629 H 344.283 0.0391486 -4.79084 0
M  V30 3630 H 342.647 0.117557 -2.54429 0
M  V30 3631 H 343.43 -1.4555 -3.10918 0
M  V30 3632 N 345.875 1.56104 -0.216619 0
M  V30 3633 C 347.291 1.58995 0.13886 0
M  V30 3634 C 347.491 1.23333 1.59346 0
M  V30 3635 O 346.547 0.966234 2.33281 0
M  V30 3636 C 347.86 3.00143 -0.182968 0
M  V30 3637 C 349.408 3.12751 -0.124807 0
M  V30 3638 C 349.883 4.56068 -0.420241 0
M  V30 3639 N 351.374 4.61723 -0.369634 0
M  V30 3640 C 352.109 5.70542 -0.571789 0
M  V30 3641 N 351.605 6.87744 -0.835453 0
M  V30 3642 N 353.398 5.59831 -0.504563 0
M  V30 3643 H 345.549 1.77562 -1.16557 0
M  V30 3644 H 347.812 0.825091 -0.466828 0
M  V30 3645 H 347.518 3.30871 -1.19237 0
M  V30 3646 H 347.392 3.73813 0.504367 0
M  V30 3647 H 349.779 2.81822 0.875223 0
M  V30 3648 H 349.86 2.41421 -0.845544 0
M  V30 3649 H 349.504 4.87713 -1.41769 0
M  V30 3650 H 349.434 5.25617 0.321631 0
M  V30 3651 H 351.925 3.77502 -0.173338 0
M  V30 3652 H 352.238 7.66587 -0.977938 0
M  V30 3653 H 350.583 6.895 -0.872592 0
M  V30 3654 H 353.774 4.67145 -0.298842 0
M  V30 3655 H 353.947 6.44573 -0.665519 0
M  V30 3656 N 347.353 -0.0568162 1.57498 0
M  V30 3657 C 348.316 -1.05038 2.03715 0
M  V30 3658 C 349.316 -1.30709 0.936577 0
M  V30 3659 O 350.506 -1.26178 1.20103 0
M  V30 3660 C 347.638 -2.39034 2.43055 0
M  V30 3661 H 348.831 -0.651715 2.92733 0
M  V30 3662 H 346.384 -0.302947 1.53336 0
M  V30 3663 H 347.119 -2.83703 1.57108 0
M  V30 3664 H 346.904 -2.21739 3.2338 0
M  V30 3665 H 348.394 -3.10421 2.79336 0
M  V30 3666 N 348.832 -1.54138 -0.328536 0
M  V30 3667 C 349.762 -1.86167 -1.40939 0
M  V30 3668 C 350.743 -0.718044 -1.54202 0
M  V30 3669 O 351.928 -0.971328 -1.68163 0
M  V30 3670 C 349.058 -2.08461 -2.77779 0
M  V30 3671 C 348.012 -3.24299 -2.7931 0
M  V30 3672 C 347.338 -3.31955 -4.19178 0
M  V30 3673 C 348.638 -4.62065 -2.43502 0
M  V30 3674 H 350.332 -2.76689 -1.14383 0
M  V30 3675 H 347.878 -1.33132 -0.548806 0
M  V30 3676 H 349.831 -2.29453 -3.53454 0
M  V30 3677 H 348.555 -1.14684 -3.05802 0
M  V30 3678 H 347.214 -3.03187 -2.0609 0
M  V30 3679 H 346.862 -2.35745 -4.44335 0
M  V30 3680 H 346.562 -4.09805 -4.2111 0
M  V30 3681 H 348.086 -3.55175 -4.96672 0
M  V30 3682 H 349.5 -4.8297 -3.08889 0
M  V30 3683 H 347.897 -5.42429 -2.56693 0
M  V30 3684 H 348.967 -4.64652 -1.38659 0
M  V30 3685 N 350.31 0.590341 -1.46126 0
M  V30 3686 C 351.55 1.35995 -1.52593 0
M  V30 3687 C 351.914 1.91243 -0.170368 0
M  V30 3688 O 353.115 2.68576 -0.109775 0
M  V30 3689 C 351.386 2.46465 -2.58823 0
M  V30 3690 S 352.945 3.33953 -2.84641 0
M  V30 3691 H 349.763 0.463425 -0.53922 0
M  V30 3692 H 352.365 0.67944 -1.83314 0
M  V30 3693 H 351.069 2.04256 -3.5596 0
M  V30 3694 H 350.6 3.19297 -2.2981 0
M  V30 3695 H 352.615 4.45094 -2.19331 0
M  V30 3696 N 351.788 1.33704 0.83433 0
M  V30 3697 C 353.034 1.25603 1.59222 0
M  V30 3698 C 353.367 -0.176659 1.93395 0
M  V30 3699 O 352.642 -1.11915 1.59076 0
M  V30 3700 C 352.925 2.13576 2.89926 0
M  V30 3701 C 352.778 3.65326 2.62406 0
M  V30 3702 C 354.097 2.01238 3.91397 0
M  V30 3703 H 351.216 0.457613 0.577719 0
M  V30 3704 H 353.858 1.63848 0.961972 0
M  V30 3705 H 352.008 1.8109 3.43713 0
M  V30 3706 H 353.68 4.08124 2.15017 0
M  V30 3707 H 351.923 3.8698 1.96033 0
M  V30 3708 H 352.594 4.22232 3.55562 0
M  V30 3709 H 355.07 2.29738 3.46929 0
M  V30 3710 H 353.946 2.65036 4.80673 0
M  V30 3711 H 354.207 0.985951 4.30966 0
M  V30 3712 N 353.266 -1.05314 1.17247 0
M  V30 3713 C 354.515 -1.77685 0.954521 0
M  V30 3714 C 354.828 -1.88616 -0.518025 0
M  V30 3715 O 356.034 -2.57714 -0.854144 0
M  V30 3716 C 354.49 -3.19402 1.65863 0
M  V30 3717 C 354.098 -3.16605 3.16963 0
M  V30 3718 C 355.842 -3.96237 1.52303 0
M  V30 3719 C 353.749 -4.53103 3.80068 0
M  V30 3720 H 352.679 -0.666 0.353496 0
M  V30 3721 H 355.33 -1.1805 1.40486 0
M  V30 3722 H 353.712 -3.79355 1.13602 0
M  V30 3723 H 354.886 -2.66176 3.76148 0
M  V30 3724 H 353.201 -2.53268 3.30521 0
M  V30 3725 H 355.798 -4.97157 1.96822 0
M  V30 3726 H 356.141 -4.136 0.473401 0
M  V30 3727 H 356.674 -3.42829 2.01775 0
M  V30 3728 H 353.413 -4.40946 4.85023 0
M  V30 3729 H 352.933 -5.03686 3.2567 0
M  V30 3730 H 354.612 -5.22045 3.82202 0
M  V30 3731 N 354.744 -0.972509 -1.24016 0
M  V30 3732 C 355.692 -0.498562 -2.27194 0
M  V30 3733 C 356.686 0.440372 -1.63576 0
M  V30 3734 O 357.892 0.315133 -1.7722 0
M  V30 3735 H 354.267 -0.142775 -0.738322 0
M  V30 3736 H 356.238 -1.38065 -2.64539 0
M  V30 3737 C 354.987 0.191072 -3.47175 0
M  V30 3738 H 354.31 -0.522318 -3.96373 0
M  V30 3739 H 355.75 0.486445 -4.212 0
M  V30 3740 C 354.209 1.41967 -3.05527 0
M  V30 3741 O 354.739 2.51642 -3.13112 0
M  V30 3742 N 352.945 1.28746 -2.60524 0
M  V30 3743 H 352.492 0.395089 -2.54552 0
M  V30 3744 H 352.45 2.11061 -2.33025 0
M  V30 3745 N 356.222 1.38976 -0.743202 0
M  V30 3746 C 357.633 1.83123 -0.363732 0
M  V30 3747 C 357.984 1.6205 1.10609 0
M  V30 3748 O 357.109 1.11606 1.854 0
M  V30 3749 C 357.704 3.32439 -0.653408 0
M  V30 3750 C 356.263 3.74974 -0.327338 0
M  V30 3751 C 355.41 2.61878 -0.911875 0
M  V30 3752 H 358.361 1.27852 -0.940191 0
M  V30 3753 H 358.382 3.80432 0.0720031 0
M  V30 3754 H 357.894 3.47745 -1.72323 0
M  V30 3755 H 355.995 3.65252 0.736314 0
M  V30 3756 H 356.108 4.72106 -0.815631 0
M  V30 3757 H 354.472 2.52448 -0.337944 0
M  V30 3758 H 355.255 2.79987 -1.98651 0
M  V30 3759 N 357.7 0.491464 1.49741 0
M  V30 3760 C 358.948 -0.0563141 2.02022 0
M  V30 3761 C 359.269 -1.38363 1.37407 0
M  V30 3762 O 358.539 -1.88702 0.526166 0
M  V30 3763 H 357.119 -0.0238014 0.746621 0
M  V30 3764 H 359.781 0.646533 1.83864 0
M  V30 3765 H 358.877 -0.192967 3.11503 0
M  V30 3766 N 359.178 -1.55987 0.224894 0
M  V30 3767 C 360.126 -2.21808 -0.700283 0
M  V30 3768 C 361.12 -1.19854 -1.19714 0
M  V30 3769 O 362.326 -1.37925 -1.15658 0
M  V30 3770 H 358.701 -0.711226 -0.244258 0
M  V30 3771 H 360.672 -2.98152 -0.121749 0
M  V30 3772 C 359.421 -2.91444 -1.8962 0
M  V30 3773 H 358.744 -3.69655 -1.52299 0
M  V30 3774 H 360.184 -3.40894 -2.52125 0
M  V30 3775 C 358.643 -1.94098 -2.75368 0
M  V30 3776 O 359.173 -1.46004 -3.74227 0
M  V30 3777 N 357.379 -1.61675 -2.41474 0
M  V30 3778 H 356.926 -2.00979 -1.61137 0
M  V30 3779 H 356.884 -0.968036 -2.99126 0
M  V30 3780 N 360.656 0.0484629 -1.57525 0
M  V30 3781 C 362.067 0.597486 -1.76881 0
M  V30 3782 C 362.418 1.76664 -0.853475 0
M  V30 3783 O 361.543 2.16357 -0.0433656 0
M  V30 3784 C 362.138 1.09066 -3.20765 0
M  V30 3785 C 360.697 1.58535 -3.41385 0
M  V30 3786 C 359.844 0.514868 -2.72478 0
M  V30 3787 H 362.795 -0.177758 -1.57701 0
M  V30 3788 H 362.816 1.95875 -3.2621 0
M  V30 3789 H 362.328 0.239521 -3.8736 0
M  V30 3790 H 360.429 2.45898 -2.79937 0
M  V30 3791 H 360.542 1.64622 -4.49929 0
M  V30 3792 H 358.906 0.965407 -2.35695 0
M  V30 3793 H 359.689 -0.32648 -3.41744 0
M  V30 3794 N 362.134 1.5431 0.320358 0
M  V30 3795 C 363.362 1.76636 1.07738 0
M  V30 3796 C 363.777 0.51649 1.81598 0
M  V30 3797 O 363.134 -0.512942 1.75143 0
M  V30 3798 C 363.185 2.96158 2.07299 0
M  V30 3799 O 362.906 4.16313 1.36438 0
M  V30 3800 C 364.407 3.3072 2.95193 0
M  V30 3801 H 361.627 0.589597 0.320339 0
M  V30 3802 H 364.171 2.01207 0.36551 0
M  V30 3803 H 362.326 2.73851 2.74016 0
M  V30 3804 H 362.74 4.83565 2.03138 0
M  V30 3805 H 364.214 4.17643 3.60941 0
M  V30 3806 H 364.691 2.48026 3.62463 0
M  V30 3807 H 365.297 3.55117 2.34034 0
M  V30 3808 N 363.613 -0.582584 1.46437 0
M  V30 3809 C 364.861 -1.33814 1.51453 0
M  V30 3810 C 365.182 -1.94277 0.167792 0
M  V30 3811 O 364.452 -1.78566 -0.805677 0
M  V30 3812 H 363.032 -0.496838 0.557818 0
M  V30 3813 H 365.694 -0.682281 1.82568 0
M  V30 3814 H 364.79 -2.14479 2.26728 0
M  V30 3815 N 365.091 -1.34144 -0.827227 0
M  V30 3816 C 366.023 -1.21206 -1.9453 0
M  V30 3817 C 367.036 -0.140176 -1.62195 0
M  V30 3818 O 368.225 -0.391647 -1.7415 0
M  V30 3819 C 365.325 -0.839141 -3.28347 0
M  V30 3820 C 364.498 -2.0051 -3.88734 0
M  V30 3821 C 363.557 -1.61128 -5.00923 0
M  V30 3822 O 362.583 -2.32726 -5.19449 0
M  V30 3823 N 363.785 -0.522958 -5.7814 0
M  V30 3824 H 366.55 -2.17525 -2.06162 0
M  V30 3825 H 364.111 -1.27043 -1.00358 0
M  V30 3826 H 366.103 -0.557556 -4.00841 0
M  V30 3827 H 364.673 0.0337293 -3.12582 0
M  V30 3828 H 363.893 -2.45166 -3.08686 0
M  V30 3829 H 365.181 -2.78498 -4.25812 0
M  V30 3830 H 364.579 0.0723518 -5.65654 0
M  V30 3831 H 363.136 -0.301089 -6.51104 0
M  V30 3832 N 366.569 1.04691 -1.17803 0
M  V30 3833 C 367.815 1.78045 -0.970969 0
M  V30 3834 C 368.148 1.87686 0.498751 0
M  V30 3835 O 367.423 1.38035 1.37027 0
M  V30 3836 C 367.706 3.2166 -1.61884 0
M  V30 3837 C 367.559 3.20001 -3.161 0
M  V30 3838 C 368.878 4.1962 -1.3269 0
M  V30 3839 H 365.997 0.64633 -0.354155 0
M  V30 3840 H 368.639 1.22333 -1.45378 0
M  V30 3841 H 366.789 3.69232 -1.20831 0
M  V30 3842 H 368.461 2.80467 -3.66246 0
M  V30 3843 H 366.704 2.58203 -3.48588 0
M  V30 3844 H 367.375 4.21386 -3.56564 0
M  V30 3845 H 369.851 3.80567 -1.68249 0
M  V30 3846 H 368.727 5.18339 -1.80599 0
M  V30 3847 H 368.988 4.414 -0.248622 0
M  V30 3848 N 368.047 0.979072 1.23499 0
M  V30 3849 C 368.979 0.476271 2.24197 0
M  V30 3850 C 369.992 -0.421166 1.57258 0
M  V30 3851 O 371.181 -0.225515 1.7707 0
M  V30 3852 C 368.281 -0.330503 3.37285 0
M  V30 3853 C 367.454 0.559744 4.33804 0
M  V30 3854 C 366.513 -0.192954 5.25846 0
M  V30 3855 O 365.539 0.416978 5.67671 0
M  V30 3856 N 366.741 -1.47932 5.61334 0
M  V30 3857 H 369.506 1.34211 2.67969 0
M  V30 3858 H 367.067 0.852189 1.37657 0
M  V30 3859 H 369.059 -0.842361 3.95836 0
M  V30 3860 H 367.629 -1.09734 2.92707 0
M  V30 3861 H 366.849 1.25245 3.73775 0
M  V30 3862 H 368.137 1.1665 4.95248 0
M  V30 3863 H 367.535 -1.9964 5.29302 0
M  V30 3864 H 366.092 -1.93664 6.22364 0
M  V30 3865 N 369.525 -1.3858 0.750561 0
M  V30 3866 C 370.753 -2.04471 0.316098 0
M  V30 3867 C 371.168 -1.56606 -1.05452 0
M  V30 3868 O 370.525 -0.737784 -1.66922 0
M  V30 3869 C 370.576 -3.60025 0.326275 0
M  V30 3870 O 370.297 -4.06133 1.6428 0
M  V30 3871 C 371.798 -4.43131 -0.122429 0
M  V30 3872 H 369.018 -0.65717 0.135528 0
M  V30 3873 H 371.562 -1.77329 1.01857 0
M  V30 3874 H 369.717 -3.86014 -0.327431 0
M  V30 3875 H 370.131 -5.00547 1.56693 0
M  V30 3876 H 371.605 -5.51963 -0.0641473 0
M  V30 3877 H 372.082 -4.23333 -1.16988 0
M  V30 3878 H 372.688 -4.22323 0.50229 0
M  V30 3879 N 371.003 -0.499398 -1.49478 0
M  V30 3880 C 372.419 -0.155261 -1.58843 0
M  V30 3881 C 372.619 1.34008 -1.50479 0
M  V30 3882 O 371.675 2.11589 -1.37791 0
M  V30 3883 C 372.988 -0.730636 -2.91689 0
M  V30 3884 C 374.536 -0.696599 -3.0515 0
M  V30 3885 C 375.011 -1.25001 -4.40612 0
M  V30 3886 N 376.502 -1.21064 -4.47099 0
M  V30 3887 C 377.237 -1.60905 -5.50361 0
M  V30 3888 N 376.733 -2.08331 -6.60735 0
M  V30 3889 N 378.526 -1.52331 -5.41065 0
M  V30 3890 H 370.677 -1.47162 -1.53158 0
M  V30 3891 H 372.94 -0.610309 -0.725415 0
M  V30 3892 H 372.646 -1.77928 -3.03372 0
M  V30 3893 H 372.52 -0.190161 -3.7672 0
M  V30 3894 H 374.907 0.343204 -2.93097 0
M  V30 3895 H 374.988 -1.2742 -2.21806 0
M  V30 3896 H 374.632 -2.28859 -4.53416 0
M  V30 3897 H 374.562 -0.64836 -5.22593 0
M  V30 3898 H 377.053 -0.863128 -3.67911 0
M  V30 3899 H 377.366 -2.36805 -7.35624 0
M  V30 3900 H 375.711 -2.12304 -6.6178 0
M  V30 3901 H 378.902 -1.151 -4.53729 0
M  V30 3902 H 379.075 -1.83704 -6.21415 0
M  V30 3903 N 372.481 1.55866 -0.233164 0
M  V30 3904 C 373.391 2.24431 0.683217 0
M  V30 3905 C 374.407 1.2558 1.2044 0
M  V30 3906 O 375.583 1.58422 1.24356 0
M  V30 3907 C 372.648 2.91979 1.86947 0
M  V30 3908 C 371.709 4.06204 1.38912 0
M  V30 3909 C 370.942 4.70522 2.51883 0
M  V30 3910 O 371.165 4.33865 3.70293 0
M  V30 3911 O 370.099 5.59296 2.22423 0
M  V30 3912 H 373.925 3.03426 0.129059 0
M  V30 3913 H 371.51 1.494 -0.0022283 0
M  V30 3914 H 373.392 3.34573 2.56201 0
M  V30 3915 H 372.067 2.15935 2.41151 0
M  V30 3916 H 370.974 3.68155 0.664259 0
M  V30 3917 H 372.307 4.84025 0.893328 0
M  V30 3918 N 373.959 -0.0401083 1.57549 0
M  V30 3919 C 375.199 -0.738098 1.90608 0
M  V30 3920 C 375.563 -1.73107 0.830539 0
M  V30 3921 O 376.764 -2.4765 1.04513 0
M  V30 3922 C 375.035 -1.39985 3.28845 0
M  V30 3923 S 376.594 -2.12852 3.83718 0
M  V30 3924 H 373.412 -0.24477 0.667539 0
M  V30 3925 H 376.014 0.00693599 1.95499 0
M  V30 3926 H 374.718 -0.663775 4.04997 0
M  V30 3927 H 374.249 -2.18366 3.2723 0
M  V30 3928 H 376.264 -3.39842 3.61555 0
M  V30 3929 N 375.437 -1.54477 -0.31217 0
M  V30 3930 C 376.686 -1.72438 -1.04633 0
M  V30 3931 C 376.999 -0.511163 -1.88803 0
M  V30 3932 O 378.205 -0.572341 -2.65399 0
M  V30 3933 C 376.661 -3.05043 -1.9099 0
M  V30 3934 C 376.269 -4.33806 -1.11877 0
M  V30 3935 C 378.013 -3.32364 -2.64073 0
M  V30 3936 C 375.92 -5.57467 -1.97445 0
M  V30 3937 H 374.85 -0.642647 -0.394361 0
M  V30 3938 H 377.501 -1.80966 -0.303929 0
M  V30 3939 H 375.883 -2.90451 -2.69173 0
M  V30 3940 H 377.057 -4.59199 -0.383843 0
M  V30 3941 H 375.372 -4.13336 -0.504252 0
M  V30 3942 H 377.969 -4.21951 -3.28423 0
M  V30 3943 H 378.312 -2.50745 -3.32314 0
M  V30 3944 H 378.845 -3.47875 -1.92944 0
M  V30 3945 H 375.584 -6.41722 -1.33692 0
M  V30 3946 H 375.104 -5.36277 -2.6864 0
M  V30 3947 H 376.783 -5.94303 -2.5576 0
M  V30 3948 N 376.915 0.57481 -1.46744 0
M  V30 3949 C 377.825 1.711 -1.60505 0
M  V30 3950 C 378.841 1.67008 -0.488307 0
M  V30 3951 O 380.017 1.86774 -0.753495 0
M  V30 3952 C 377.082 3.07608 -1.59932 0
M  V30 3953 C 376.143 3.22904 -2.82898 0
M  V30 3954 C 375.376 4.529 -2.82343 0
M  V30 3955 O 375.599 5.37278 -1.91542 0
M  V30 3956 O 374.533 4.71611 -3.73987 0
M  V30 3957 H 378.359 1.62436 -2.56609 0
M  V30 3958 H 375.944 0.742779 -1.29627 0
M  V30 3959 H 377.826 3.88877 -1.62336 0
M  V30 3960 H 376.501 3.16692 -0.669898 0
M  V30 3961 H 375.408 2.41099 -2.86046 0
M  V30 3962 H 376.741 3.18715 -3.75076 0
M  V30 3963 N 378.394 1.34581 0.820102 0
M  V30 3964 C 379.357 1.2628 1.91275 0
M  V30 3965 C 380.357 0.177344 1.59819 0
M  V30 3966 O 381.547 0.430156 1.68806 0
M  V30 3967 C 378.679 0.950327 3.27386 0
M  V30 3968 H 379.872 2.23421 2.00057 0
M  V30 3969 H 377.425 1.1891 1.0144 0
M  V30 3970 H 378.16 -0.0177938 3.24295 0
M  V30 3971 H 377.945 1.73549 3.51601 0
M  V30 3972 H 379.435 0.917492 4.07396 0
M  V30 3973 N 379.872 -1.04064 1.18357 0
M  V30 3974 C 381.118 -1.77528 0.980397 0
M  V30 3975 C 381.451 -1.87948 -0.48879 0
M  V30 3976 O 380.726 -1.3876 -1.36293 0
M  V30 3977 C 381.009 -3.20797 1.63588 0
M  V30 3978 C 380.862 -3.1832 3.17793 0
M  V30 3979 C 382.181 -4.18911 1.34914 0
M  V30 3980 H 379.3 -0.644443 0.357578 0
M  V30 3981 H 381.942 -1.2156 1.46024 0
M  V30 3982 H 380.092 -3.68586 1.22788 0
M  V30 3983 H 381.764 -2.78521 3.67728 0
M  V30 3984 H 380.007 -2.56351 3.49952 0
M  V30 3985 H 380.678 -4.19489 3.58794 0
M  V30 3986 H 383.154 -3.7967 1.70265 0
M  V30 3987 H 382.03 -5.17374 1.83346 0
M  V30 3988 H 382.291 -4.41262 0.272027 0
M  V30 3989 N 381.35 -0.985608 -1.22978 0
M  V30 3990 C 382.599 -0.652881 -1.90841 0
M  V30 3991 C 382.912 0.817842 -1.77681 0
M  V30 3992 O 384.118 1.26185 -2.40395 0
M  V30 3993 C 382.574 -1.11717 -3.42122 0
M  V30 3994 C 382.182 -2.6126 -3.63933 0
M  V30 3995 C 383.926 -0.85843 -4.1573 0
M  V30 3996 C 381.833 -3.0133 -5.08876 0
M  V30 3997 H 380.763 -0.240491 -0.714619 0
M  V30 3998 H 383.414 -1.1942 -1.39324 0
M  V30 3999 H 381.796 -0.504027 -3.92779 0
M  V30 4000 H 382.97 -3.27858 -3.23799 0
M  V30 4001 H 381.285 -2.84937 -3.03644 0
M  V30 4002 H 383.882 -1.13359 -5.22546 0
M  V30 4003 H 384.225 0.205461 -4.15793 0
M  V30 4004 H 384.758 -1.43341 -3.71077 0
M  V30 4005 H 381.497 -4.06864 -5.13947 0
M  V30 4006 H 381.017 -2.3943 -5.49939 0
M  V30 4007 H 382.696 -2.92224 -5.77247 0
M  V30 4008 N 382.828 1.3818 -0.7579 0
M  V30 4009 C 384.244 1.5353 -0.435972 0
M  V30 4010 C 384.444 1.71961 1.05032 0
M  V30 4011 O 383.5 1.73307 1.83633 0
M  V30 4012 C 384.813 2.73989 -1.23898 0
M  V30 4013 C 386.361 2.87841 -1.22949 0
M  V30 4014 C 386.836 4.11266 -2.01554 0
M  V30 4015 N 388.327 4.18352 -1.98837 0
M  V30 4016 C 389.062 5.12856 -2.5645 0
M  V30 4017 N 388.558 6.13005 -3.22794 0
M  V30 4018 N 390.351 5.05238 -2.46356 0
M  V30 4019 H 382.502 1.24467 -1.7211 0
M  V30 4020 H 384.765 0.604982 -0.729864 0
M  V30 4021 H 384.471 2.66789 -2.29165 0
M  V30 4022 H 384.345 3.67294 -0.858764 0
M  V30 4023 H 386.732 2.9452 -0.184854 0
M  V30 4024 H 386.813 1.95534 -1.64924 0
M  V30 4025 H 386.457 4.05349 -3.06031 0
M  V30 4026 H 386.387 5.02661 -1.5697 0
M  V30 4027 H 388.878 3.46628 -1.50524 0
M  V30 4028 H 389.191 6.81619 -3.64165 0
M  V30 4029 H 387.536 6.13325 -3.2689 0
M  V30 4030 H 390.727 4.25938 -1.9415 0
M  V30 4031 H 390.9 5.78707 -2.91552 0
M  V30 4032 N 384.306 0.507319 1.49211 0
M  V30 4033 C 385.553 -0.0349529 2.0247 0
M  V30 4034 C 385.881 -1.36409 1.38647 0
M  V30 4035 O 385.136 -1.88841 0.513566 0
M  V30 4036 C 385.435 -0.229513 3.56662 0
M  V30 4037 C 385.101 1.02241 4.39156 0
M  V30 4038 C 383.763 1.36557 4.61417 0
M  V30 4039 C 386.115 1.85428 4.871 0
M  V30 4040 C 383.443 2.53999 5.28868 0
M  V30 4041 C 385.795 3.02028 5.55843 0
M  V30 4042 C 384.459 3.36717 5.76349 0
M  V30 4043 H 383.729 -0.0127902 0.74089 0
M  V30 4044 H 386.376 0.668756 1.79443 0
M  V30 4045 H 384.681 -1.0158 3.78403 0
M  V30 4046 H 386.378 -0.663641 3.9547 0
M  V30 4047 H 382.968 0.745124 4.22073 0
M  V30 4048 H 387.152 1.6023 4.69723 0
M  V30 4049 H 382.408 2.81105 5.42946 0
M  V30 4050 H 386.582 3.66808 5.91967 0
M  V30 4051 H 384.209 4.27821 6.28389 0
M  V30 4052 N 385.784 -1.5574 0.241426 0
M  V30 4053 C 386.747 -2.19877 -0.647063 0
M  V30 4054 C 387.747 -1.16642 -1.10686 0
M  V30 4055 O 388.937 -1.41757 -1.01245 0
M  V30 4056 C 386.069 -2.83797 -1.88871 0
M  V30 4057 H 387.262 -2.99772 -0.087574 0
M  V30 4058 H 384.815 -1.56298 -0.00813574 0
M  V30 4059 H 385.55 -2.07824 -2.48957 0
M  V30 4060 H 385.335 -3.59414 -1.56728 0
M  V30 4061 H 386.825 -3.32898 -2.52129 0
M  V30 4062 N 387.262 0.0317525 -1.57568 0
M  V30 4063 C 388.509 0.723104 -1.89149 0
M  V30 4064 C 388.837 1.75504 -0.838377 0
M  V30 4065 O 388.092 1.95037 0.160982 0
M  V30 4066 C 388.391 1.43167 -3.27472 0
M  V30 4067 C 388.057 0.535972 -4.47703 0
M  V30 4068 C 386.719 0.289262 -4.8033 0
M  V30 4069 C 389.071 -0.0826125 -5.21135 0
M  V30 4070 C 386.399 -0.584853 -5.83778 0
M  V30 4071 C 388.751 -0.944414 -6.25511 0
M  V30 4072 C 387.415 -1.20061 -6.56614 0
M  V30 4073 H 386.685 0.264602 -0.692146 0
M  V30 4074 H 389.332 -0.0169496 -1.91492 0
M  V30 4075 H 387.637 2.24497 -3.21105 0
M  V30 4076 H 389.334 1.97209 -3.49155 0
M  V30 4077 H 385.924 0.738414 -4.22191 0
M  V30 4078 H 390.108 0.0950302 -4.96209 0
M  V30 4079 H 385.364 -0.79168 -6.06253 0
M  V30 4080 H 389.538 -1.43026 -6.81554 0
M  V30 4081 H 387.165 -1.87967 -7.36595 0
M  V30 4082 N 388.74 1.54641 0.303973 0
M  V30 4083 C 389.65 1.88439 1.39743 0
M  V30 4084 C 390.666 0.778239 1.55626 0
M  V30 4085 O 391.842 1.07442 1.70347 0
M  V30 4086 C 388.907 2.12212 2.74166 0
M  V30 4087 C 387.968 3.35936 2.67293 0
M  V30 4088 C 387.201 3.58566 3.95305 0
M  V30 4089 O 387.424 2.84263 4.9452 0
M  V30 4090 O 386.358 4.52078 3.97378 0
M  V30 4091 H 390.184 2.81458 1.14083 0
M  V30 4092 H 387.769 1.40793 0.499768 0
M  V30 4093 H 389.651 2.29067 3.53704 0
M  V30 4094 H 388.326 1.22379 2.99675 0
M  V30 4095 H 387.233 3.24448 1.86237 0
M  V30 4096 H 388.566 4.2589 2.46736 0
M  V30 4097 N 390.218 -0.567019 1.47046 0
M  V30 4098 C 391.128 -1.70247 1.6141 0
M  V30 4099 C 392.144 -1.66746 0.497157 0
M  V30 4100 O 393.32 -1.86371 0.763389 0
M  V30 4101 C 390.385 -3.06756 1.61561 0
M  V30 4102 C 389.446 -3.21399 2.84607 0
M  V30 4103 C 388.679 -4.51396 2.84741 0
M  V30 4104 O 388.902 -5.36255 1.94388 0
M  V30 4105 O 387.836 -4.69621 3.76483 0
M  V30 4106 H 391.662 -1.61073 2.57467 0
M  V30 4107 H 389.247 -0.735894 1.30019 0
M  V30 4108 H 391.129 -3.8801 1.64396 0
M  V30 4109 H 389.804 -3.16333 0.686684 0
M  V30 4110 H 388.711 -2.39579 2.8732 0
M  V30 4111 H 390.044 -3.16721 3.76761 0
M  V30 4112 N 391.696 -1.35014 -0.812953 0
M  V30 4113 C 393.112 -1.14914 -1.10757 0
M  V30 4114 C 393.312 0.0426818 -2.01455 0
M  V30 4115 O 392.368 0.715212 -2.42159 0
M  V30 4116 C 393.681 -2.44911 -1.74468 0
M  V30 4117 C 395.229 -2.5106 -1.86917 0
M  V30 4118 C 395.704 -3.81085 -2.54044 0
M  V30 4119 N 397.195 -3.82301 -2.61535 0
M  V30 4120 C 397.93 -4.79634 -3.14227 0
M  V30 4121 N 397.426 -5.87353 -3.67407 0
M  V30 4122 N 399.219 -4.67078 -3.12721 0
M  V30 4123 H 391.37 -2.1136 -0.20989 0
M  V30 4124 H 393.633 -0.935128 -0.155692 0
M  V30 4125 H 393.339 -3.32267 -1.15289 0
M  V30 4126 H 393.213 -2.58989 -2.74234 0
M  V30 4127 H 395.6 -1.64137 -2.45241 0
M  V30 4128 H 395.681 -2.40901 -0.860242 0
M  V30 4129 H 395.325 -4.68402 -1.96372 0
M  V30 4130 H 395.255 -3.88529 -3.55461 0
M  V30 4131 H 397.746 -3.04465 -2.23851 0
M  V30 4132 H 398.059 -6.57624 -4.05894 0
M  V30 4133 H 396.404 -5.91054 -3.65623 0
M  V30 4134 H 399.595 -3.82067 -2.70449 0
M  V30 4135 H 399.768 -5.43098 -3.53481 0
M  V30 4136 N 393.175 1.03435 -1.18907 0
M  V30 4137 C 394.105 2.13503 -0.945448 0
M  V30 4138 C 395.086 1.69682 0.119189 0
M  V30 4139 O 396.271 1.94169 -0.034707 0
M  V30 4140 C 393.401 3.44004 -0.477316 0
M  V30 4141 C 392.355 4.0148 -1.48316 0
M  V30 4142 C 391.681 5.27537 -0.872311 0
M  V30 4143 C 392.981 4.36921 -2.86177 0
M  V30 4144 H 394.675 2.34141 -1.86597 0
M  V30 4145 H 392.221 1.12523 -0.898584 0
M  V30 4146 H 394.174 4.20372 -0.294204 0
M  V30 4147 H 392.898 3.23072 0.478786 0
M  V30 4148 H 391.557 3.27201 -1.65332 0
M  V30 4149 H 391.205 5.02917 0.0911752 0
M  V30 4150 H 390.905 5.66954 -1.54393 0
M  V30 4151 H 392.429 6.06576 -0.699871 0
M  V30 4152 H 393.843 5.04248 -2.72776 0
M  V30 4153 H 392.24 4.87405 -3.50081 0
M  V30 4154 H 393.31 3.46466 -3.39248 0
M  V30 4155 N 394.653 0.992116 1.22453 0
M  V30 4156 C 395.9 0.667534 1.91181 0
M  V30 4157 C 396.228 -0.800317 1.77271 0
M  V30 4158 O 395.483 -1.59421 1.13505 0
M  V30 4159 C 395.782 1.01832 3.42586 0
M  V30 4160 C 395.448 2.47831 3.76684 0
M  V30 4161 C 394.11 2.87729 3.85701 0
M  V30 4162 C 396.462 3.42466 3.92895 0
M  V30 4163 C 393.79 4.21252 4.08367 0
M  V30 4164 C 396.142 4.75648 4.17064 0
M  V30 4165 C 394.806 5.15288 4.24305 0
M  V30 4166 H 394.076 0.244268 0.699581 0
M  V30 4167 H 396.723 1.24816 1.45235 0
M  V30 4168 H 395.028 0.355769 3.90181 0
M  V30 4169 H 396.725 0.745228 3.94014 0
M  V30 4170 H 393.315 2.15905 3.70247 0
M  V30 4171 H 397.499 3.12814 3.85307 0
M  V30 4172 H 392.755 4.51554 4.122 0
M  V30 4173 H 396.929 5.48924 4.2855 0
M  V30 4174 H 394.556 6.18769 4.41621 0
M  V30 4175 N 396.131 -1.37776 0.765217 0
M  V30 4176 C 397.061 -2.32945 0.160953 0
M  V30 4177 C 398.042 -1.55454 -0.690516 0
M  V30 4178 O 399.227 -1.83721 -0.629318 0
M  V30 4179 C 396.357 -3.39669 -0.724031 0
M  V30 4180 C 395.311 -4.27992 0.0256173 0
M  V30 4181 C 394.637 -5.25673 -0.978383 0
M  V30 4182 C 395.937 -5.08309 1.20082 0
M  V30 4183 H 397.631 -2.83728 0.955969 0
M  V30 4184 H 395.177 -1.36416 0.461149 0
M  V30 4185 H 397.13 -4.05219 -1.15652 0
M  V30 4186 H 395.854 -2.87396 -1.5515 0
M  V30 4187 H 394.513 -3.63964 0.438812 0
M  V30 4188 H 394.161 -4.69682 -1.80022 0
M  V30 4189 H 393.861 -5.85625 -0.481378 0
M  V30 4190 H 395.385 -5.94098 -1.40995 0
M  V30 4191 H 396.799 -5.67034 0.845307 0
M  V30 4192 H 395.196 -5.77554 1.62947 0
M  V30 4193 H 396.266 -4.41365 2.00811 0
M  V30 4194 N 397.609 -0.515225 -1.4894 0
M  V30 4195 C 398.539 0.244628 -2.32215 0
M  V30 4196 C 399.52 0.949136 -1.41157 0
M  V30 4197 O 400.705 0.937783 -1.70057 0
M  V30 4198 C 397.835 1.30096 -3.22013 0
M  V30 4199 C 396.789 0.715486 -4.21977 0
M  V30 4200 C 396.115 1.87339 -5.00808 0
M  V30 4201 C 397.415 -0.302982 -5.2142 0
M  V30 4202 H 399.109 -0.450501 -2.95991 0
M  V30 4203 H 396.655 -0.218098 -1.42339 0
M  V30 4204 H 398.608 1.84037 -3.79089 0
M  V30 4205 H 397.332 2.02547 -2.56207 0
M  V30 4206 H 395.991 0.197715 -3.66066 0
M  V30 4207 H 395.639 2.58592 -4.31438 0
M  V30 4208 H 395.339 1.48764 -5.68457 0
M  V30 4209 H 396.863 2.41686 -5.60732 0
M  V30 4210 H 398.277 0.148802 -5.73107 0
M  V30 4211 H 396.674 -0.60532 -5.97039 0
M  V30 4212 H 397.744 -1.21395 -4.69459 0
M  V30 4213 N 399.087 1.5561 -0.249682 0
M  V30 4214 C 400.05 2.20217 0.635394 0
M  V30 4215 C 401.05 1.17227 1.10066 0
M  V30 4216 O 402.24 1.42292 1.00492 0
M  V30 4217 C 399.372 2.84794 1.87363 0
M  V30 4218 H 400.565 2.99814 0.0716752 0
M  V30 4219 H 398.118 1.563 -0.000153234 0
M  V30 4220 H 398.853 2.09142 2.47851 0
M  V30 4221 H 398.638 3.60241 1.5482 0
M  V30 4222 H 400.128 3.3423 2.5036 0
M  V30 4223 N 400.565 -0.0233959 1.57583 0
M  V30 4224 C 401.842 -0.748794 1.807 0
M  V30 4225 C 402.222 -1.9327 0.849106 0
M  V30 4226 O 401.57 -2.28247 -0.107468 0
M  V30 4227 C 401.78 -1.17651 3.28571 0
M  V30 4228 C 403.128 -1.59008 3.93702 0
M  V30 4229 O 404.152 -1.27094 3.32755 0
M  V30 4230 O 403.011 -2.18264 5.01022 0
M  V30 4231 H 400.105 -0.362578 0.743281 0
M  V30 4232 H 402.651 0.000261958 1.697 0
M  V30 4233 H 401.423 -0.331603 3.89892 0
M  V30 4234 H 401.046 -1.98541 3.44481 0
M  V30 4235 N 402.043 -1.548 -0.295768 0
M  V30 4236 C 402.953 -1.89177 -1.38742 0
M  V30 4237 C 403.969 -0.786481 -1.55211 0
M  V30 4238 O 405.145 -1.08344 -1.69775 0
M  V30 4239 C 402.21 -2.13663 -2.73036 0
M  V30 4240 C 401.271 -3.37349 -2.65508 0
M  V30 4241 C 400.504 -3.60658 -3.93398 0
M  V30 4242 O 400.727 -2.86882 -4.93006 0
M  V30 4243 O 399.661 -4.54179 -3.94975 0
M  V30 4244 H 403.487 -2.82059 -1.12589 0
M  V30 4245 H 401.072 -1.41056 -0.492295 0
M  V30 4246 H 402.954 -2.3094 -3.52484 0
M  V30 4247 H 401.629 -1.23967 -2.99022 0
M  V30 4248 H 400.536 -3.25431 -1.84514 0
M  V30 4249 H 401.869 -4.27192 -2.44474 0
M  V30 4250 N 403.521 0.559213 -1.47345 0
M  V30 4251 C 404.767 1.31843 -1.54095 0
M  V30 4252 C 405.1 1.93149 -0.201726 0
M  V30 4253 O 404.375 1.77759 0.789428 0
M  V30 4254 C 404.658 2.43006 -2.65744 0
M  V30 4255 C 404.511 1.86581 -4.09277 0
M  V30 4256 C 405.83 3.44943 -2.73318 0
M  V30 4257 H 402.949 0.478012 -0.560957 0
M  V30 4258 H 405.591 0.625977 -1.79392 0
M  V30 4259 H 403.741 3.02072 -2.44305 0
M  V30 4260 H 405.413 1.31792 -4.42073 0
M  V30 4261 H 403.656 1.17268 -4.17649 0
M  V30 4262 H 404.327 2.66933 -4.83168 0
M  V30 4263 H 406.803 2.95793 -2.92653 0
M  V30 4264 H 405.679 4.20153 -3.53218 0
M  V30 4265 H 405.94 4.03665 -1.80296 0
M  V30 4266 N 404.999 1.35443 0.805782 0
M  V30 4267 C 406.229 1.31687 1.59192 0
M  V30 4268 C 406.637 -0.10756 1.88894 0
M  V30 4269 O 405.98 -1.07017 1.49309 0
M  V30 4270 C 406.042 2.05686 2.94845 0
M  V30 4271 C 405.706 3.54868 2.87954 0
M  V30 4272 C 406.703 4.49444 2.61335 0
M  V30 4273 C 404.388 3.97528 3.07046 0
M  V30 4274 C 406.382 5.84655 2.53885 0
M  V30 4275 C 404.069 5.32833 2.99219 0
M  V30 4276 C 405.067 6.26209 2.72674 0
M  V30 4277 O 404.755 7.59032 2.64811 0
M  V30 4278 H 404.487 0.453878 0.50097 0
M  V30 4279 H 407.041 1.78892 1.0093 0
M  V30 4280 H 405.271 1.5312 3.55093 0
M  V30 4281 H 406.96 1.94998 3.55993 0
M  V30 4282 H 407.726 4.17804 2.46303 0
M  V30 4283 H 403.605 3.25233 3.26718 0
M  V30 4284 H 407.149 6.57508 2.33086 0
M  V30 4285 H 403.046 5.64087 3.13809 0
M  V30 4286 H 403.814 7.68967 2.80413 0
M  V30 4287 N 406.477 -1.02803 1.19454 0
M  V30 4288 C 407.409 -2.11181 0.890807 0
M  V30 4289 C 408.422 -1.6238 -0.116829 0
M  V30 4290 O 409.611 -1.78144 0.112694 0
M  V30 4291 C 406.711 -3.37461 0.311942 0
M  V30 4292 C 405.884 -4.15446 1.36834 0
M  V30 4293 C 404.943 -5.20039 0.802864 0
M  V30 4294 O 403.969 -5.49602 1.48077 0
M  V30 4295 N 405.171 -5.79165 -0.393417 0
M  V30 4296 H 407.936 -2.37827 1.82369 0
M  V30 4297 H 405.497 -1.19101 1.09666 0
M  V30 4298 H 407.489 -4.0462 -0.0802225 0
M  V30 4299 H 406.059 -3.08156 -0.52524 0
M  V30 4300 H 405.279 -3.43423 1.93531 0
M  V30 4301 H 406.567 -4.64335 2.08015 0
M  V30 4302 H 405.965 -5.57466 -0.961658 0
M  V30 4303 H 404.522 -6.47729 -0.727351 0
M  V30 4304 N 407.956 -0.998596 -1.21925 0
M  V30 4305 C 409.233 -0.593401 -1.86382 0
M  V30 4306 C 409.613 0.92916 -1.89552 0
M  V30 4307 O 408.961 1.81347 -1.39017 0
M  V30 4308 C 409.171 -1.22039 -3.26967 0
M  V30 4309 C 410.519 -1.32449 -4.03413 0
M  V30 4310 O 411.543 -1.17522 -3.36254 0
M  V30 4311 O 410.402 -1.56395 -5.23644 0
M  V30 4312 H 407.496 -0.202385 -0.801854 0
M  V30 4313 H 410.042 -1.09484 -1.29659 0
M  V30 4314 H 408.814 -2.26158 -3.19325 0
M  V30 4315 H 408.437 -0.704906 -3.91301 0
M  V30 4316 N 409.434 1.37368 -0.772513 0
M  V30 4317 C 410.382 2.32134 -0.147111 0
M  V30 4318 C 411.376 1.54972 0.684106 0
M  V30 4319 O 412.582 1.70363 0.581083 0
M  V30 4320 H 408.957 0.751449 -0.028786 0
M  V30 4321 H 410.928 2.82464 -0.962112 0
M  V30 4322 C 409.677 3.40226 0.71703 0
M  V30 4323 H 409 3.99706 0.0867951 0
M  V30 4324 H 410.44 4.08897 1.12159 0
M  V30 4325 C 408.899 2.80372 1.86797 0
M  V30 4326 O 409.429 2.71183 2.96349 0
M  V30 4327 N 407.635 2.37904 1.66883 0
M  V30 4328 H 407.182 2.45578 0.777759 0
M  V30 4329 H 407.14 1.98202 2.44056 0
M  V30 4330 N 410.912 0.523116 1.48665 0
M  V30 4331 C 412.158 -0.0134963 2.02796 0
M  V30 4332 C 412.491 -1.34582 1.40004 0
M  V30 4333 O 411.766 -1.86756 0.543381 0
M  V30 4334 C 412.049 -0.14276 3.59817 0
M  V30 4335 C 411.902 1.21425 4.331 0
M  V30 4336 C 413.221 -0.872856 4.31357 0
M  V30 4337 H 410.34 -0.00343074 0.736992 0
M  V30 4338 H 412.982 0.678816 1.7746 0
M  V30 4339 H 411.132 -0.732401 3.81534 0
M  V30 4340 H 412.804 1.84447 4.2282 0
M  V30 4341 H 411.047 1.79791 3.94788 0
M  V30 4342 H 411.718 1.07687 5.41394 0
M  V30 4343 H 414.194 -0.372555 4.14429 0
M  V30 4344 H 413.07 -0.932185 5.40927 0
M  V30 4345 H 413.331 -1.92161 3.98154 0
M  V30 4346 N 412.39 -1.55475 0.257931 0
M  V30 4347 C 413.62 -2.03314 -0.367026 0
M  V30 4348 C 414.028 -1.13625 -1.51281 0
M  V30 4349 O 413.371 -0.145334 -1.83124 0
M  V30 4350 C 413.433 -3.47362 -0.926284 0
M  V30 4351 C 413.097 -4.56914 0.0886584 0
M  V30 4352 C 414.094 -5.12013 0.902123 0
M  V30 4353 C 411.779 -5.01827 0.217936 0
M  V30 4354 C 413.773 -6.10529 1.83122 0
M  V30 4355 C 411.46 -6.00172 1.15052 0
M  V30 4356 C 412.458 -6.54402 1.95568 0
M  V30 4357 O 412.146 -7.50827 2.87253 0
M  V30 4358 H 411.878 -0.669976 -0.0900443 0
M  V30 4359 H 414.432 -2.01804 0.382673 0
M  V30 4360 H 412.662 -3.46056 -1.72575 0
M  V30 4361 H 414.351 -3.78637 -1.46249 0
M  V30 4362 H 415.117 -4.78139 0.812891 0
M  V30 4363 H 410.996 -4.59272 -0.398721 0
M  V30 4364 H 414.54 -6.52783 2.46008 0
M  V30 4365 H 410.437 -6.33465 1.24064 0
M  V30 4366 H 411.205 -7.68483 2.81739 0
M  V30 4367 N 413.868 0.0150385 -1.57593 0
M  V30 4368 C 414.831 0.995996 -2.06428 0
M  V30 4369 C 415.831 1.2818 -0.970903 0
M  V30 4370 O 417.021 1.22949 -1.23406 0
M  V30 4371 C 414.153 2.32506 -2.49307 0
M  V30 4372 H 415.346 0.573873 -2.94358 0
M  V30 4373 H 412.899 0.262186 -1.54085 0
M  V30 4374 H 413.634 2.79438 -1.64575 0
M  V30 4375 H 413.419 2.13087 -3.29145 0
M  V30 4376 H 414.909 3.02906 -2.87468 0
M  V30 4377 N 415.346 1.54954 0.287554 0
M  V30 4378 C 416.309 1.86076 1.33823 0
M  V30 4379 C 417.309 0.734414 1.43049 0
M  V30 4380 O 418.499 1.00266 1.42452 0
M  V30 4381 C 415.631 2.05305 2.72144 0
M  V30 4382 H 416.824 2.79984 1.07465 0
M  V30 4383 H 414.377 1.47223 0.524902 0
M  V30 4384 H 415.112 1.1373 3.03704 0
M  V30 4385 H 414.897 2.873 2.66836 0
M  V30 4386 H 416.387 2.30706 3.48087 0
M  V30 4387 N 416.824 -0.551391 1.4764 0
M  V30 4388 C 418.072 -1.30572 1.54258 0
M  V30 4389 C 418.393 -1.93877 0.208963 0
M  V30 4390 O 417.663 -1.80234 -0.767619 0
M  V30 4391 H 416.243 -0.484894 0.568231 0
M  V30 4392 H 418.905 -0.643402 1.83974 0
M  V30 4393 H 418.001 -2.09621 2.31226 0
M  V30 4394 N 418.302 -1.35869 -0.798587 0
M  V30 4395 C 419.527 -1.32883 -1.59238 0
M  V30 4396 C 419.952 0.0894587 -1.87887 0
M  V30 4397 O 419.31 1.05869 -1.47178 0
M  V30 4398 C 419.358 -2.14892 -2.89575 0
M  V30 4399 O 418.462 -1.53512 -3.82763 0
M  V30 4400 H 417.803 -0.455236 -0.48338 0
M  V30 4401 H 420.333 -1.79024 -0.990539 0
M  V30 4402 H 420.343 -2.27139 -3.38928 0
M  V30 4403 H 419.018 -3.17998 -2.68049 0
M  V30 4404 H 417.595 -1.50153 -3.41334 0
M  V30 4405 N 419.78 1.02168 -1.19998 0
M  V30 4406 C 420.712 2.10705 -0.901994 0
M  V30 4407 C 421.725 1.6244 0.108216 0
M  V30 4408 O 422.914 1.78082 -0.12214 0
M  V30 4409 C 420.014 3.37291 -0.329834 0
M  V30 4410 C 419.187 4.14714 -1.39035 0
M  V30 4411 C 418.246 5.19606 -0.830432 0
M  V30 4412 O 417.272 5.48809 -1.50989 0
M  V30 4413 N 418.474 5.79366 0.362696 0
M  V30 4414 H 421.239 2.36856 -1.83628 0
M  V30 4415 H 418.8 1.18518 -1.10296 0
M  V30 4416 H 420.792 4.04657 0.0587633 0
M  V30 4417 H 419.362 3.0843 0.508891 0
M  V30 4418 H 418.582 3.42392 -1.9535 0
M  V30 4419 H 419.87 4.63226 -2.10474 0
M  V30 4420 H 419.268 5.57968 0.932081 0
M  V30 4421 H 417.825 6.48106 0.69299 0
M  V30 4422 N 421.258 1.00505 1.21394 0
M  V30 4423 C 422.505 0.687774 1.90462 0
M  V30 4424 C 422.833 -0.78147 1.7811 0
M  V30 4425 O 422.088 -1.58208 1.1519 0
M  V30 4426 C 422.387 1.0546 3.41486 0
M  V30 4427 C 422.053 2.51812 3.74034 0
M  V30 4428 C 420.715 2.91804 3.82628 0
M  V30 4429 C 423.067 3.46614 3.8924 0
M  V30 4430 C 420.395 4.2556 4.03876 0
M  V30 4431 C 422.747 4.80044 4.11995 0
M  V30 4432 C 421.411 5.19759 4.18816 0
M  V30 4433 H 420.681 0.251674 0.696951 0
M  V30 4434 H 423.328 1.26349 1.43903 0
M  V30 4435 H 421.633 0.397133 3.89782 0
M  V30 4436 H 423.33 0.786976 3.93202 0
M  V30 4437 H 419.92 2.1982 3.67936 0
M  V30 4438 H 424.104 3.16883 3.81967 0
M  V30 4439 H 419.36 4.55901 4.07387 0
M  V30 4440 H 423.534 5.53439 4.22704 0
M  V30 4441 H 421.161 6.23418 4.35033 0
M  V30 4442 N 422.737 -1.36956 0.779787 0
M  V30 4443 C 423.687 -2.27539 0.144892 0
M  V30 4444 C 424.671 -1.46493 -0.665488 0
M  V30 4445 O 425.863 -1.68968 -0.527141 0
M  V30 4446 C 422.992 -3.35512 -0.727082 0
M  V30 4447 C 422.078 -4.24001 0.0915642 0
M  V30 4448 N 422.469 -4.92757 1.14125 0
M  V30 4449 C 420.767 -4.45807 -0.131141 0
M  V30 4450 C 421.468 -5.58138 1.6388 0
M  V30 4451 N 420.444 -5.35241 0.94962 0
M  V30 4452 H 424.246 -2.78176 0.948446 0
M  V30 4453 H 421.76 -1.50169 0.618315 0
M  V30 4454 H 423.757 -3.99324 -1.19776 0
M  V30 4455 H 422.417 -2.86431 -1.52929 0
M  V30 4456 H 423.428 -4.94984 1.52353 0
M  V30 4457 H 420.105 -4.07582 -0.904621 0
M  V30 4458 H 421.495 -6.23071 2.51461 0
M  V30 4459 N 424.215 -0.530993 -1.48385 0
M  V30 4460 C 425.44 0.000729535 -2.074 0
M  V30 4461 C 425.865 1.27298 -1.3848 0
M  V30 4462 O 425.223 1.75599 -0.451081 0
M  V30 4463 C 425.271 0.206697 -3.60007 0
M  V30 4464 O 424.375 1.27514 -3.92191 0
M  V30 4465 H 423.716 -0.039583 -0.662819 0
M  V30 4466 H 426.246 -0.739194 -1.9078 0
M  V30 4467 H 426.256 0.42904 -4.05738 0
M  V30 4468 H 424.931 -0.722675 -4.09573 0
M  V30 4469 H 423.508 1.03537 -3.58238 0
M  V30 4470 N 425.693 1.55336 -0.266172 0
M  V30 4471 C 426.94 1.99397 0.353158 0
M  V30 4472 C 427.268 1.15451 1.56529 0
M  V30 4473 O 426.523 0.209974 1.9457 0
M  V30 4474 C 426.822 3.48606 0.787957 0
M  V30 4475 C 426.488 4.49773 -0.318541 0
M  V30 4476 C 425.15 4.77158 -0.62239 0
M  V30 4477 C 427.502 5.10212 -1.06459 0
M  V30 4478 C 424.83 5.62251 -1.67602 0
M  V30 4479 C 427.182 5.96449 -2.10788 0
M  V30 4480 C 425.846 6.22158 -2.41817 0
M  V30 4481 H 425.116 0.729644 0.12923 0
M  V30 4482 H 427.763 1.87732 -0.37802 0
M  V30 4483 H 426.068 3.57701 1.59866 0
M  V30 4484 H 427.765 3.80098 1.27775 0
M  V30 4485 H 424.355 4.2854 -0.0715925 0
M  V30 4486 H 428.539 4.89086 -0.843098 0
M  V30 4487 H 423.795 5.80419 -1.92155 0
M  V30 4488 H 427.969 6.42317 -2.69076 0
M  V30 4489 H 425.596 6.87888 -3.23596 0
M  V30 4490 N 427.171 -0.0066808 1.57599 0
M  V30 4491 C 428.118 -1.00024 2.08 0
M  V30 4492 C 429.088 -1.34549 0.973943 0
M  V30 4493 O 430.273 -1.44502 1.24595 0
M  V30 4494 C 427.413 -2.2891 2.58252 0
M  V30 4495 C 426.526 -2.00346 3.82734 0
M  V30 4496 C 425.661 -3.23265 4.21513 0
M  V30 4497 C 424.7 -2.90357 5.3885 0
M  V30 4498 N 423.837 -4.05793 5.72954 0
M  V30 4499 H 428.677 -0.563499 2.92624 0
M  V30 4500 H 426.214 -0.266592 1.44664 0
M  V30 4501 H 428.172 -3.04247 2.85464 0
M  V30 4502 H 426.802 -2.70265 1.76512 0
M  V30 4503 H 425.854 -1.15406 3.62471 0
M  V30 4504 H 427.166 -1.72086 4.68175 0
M  V30 4505 H 426.32 -4.06953 4.49971 0
M  V30 4506 H 425.059 -3.54657 3.34768 0
M  V30 4507 H 424.064 -2.05075 5.10122 0
M  V30 4508 H 425.289 -2.60219 6.27266 0
M  V30 4509 H 423.235 -4.37094 4.89167 0
M  V30 4510 H 423.152 -3.81034 6.52954 0
M  V30 4511 H 424.42 -4.90289 6.06001 0
M  V30 4512 N 428.649 -1.55105 -0.279332 0
M  V30 4513 C 429.596 -1.8755 -1.34513 0
M  V30 4514 C 430.566 -0.726384 -1.49375 0
M  V30 4515 O 431.751 -0.977063 -1.63884 0
M  V30 4516 C 428.891 -2.14738 -2.70151 0
M  V30 4517 C 428.004 -3.42285 -2.63562 0
M  V30 4518 C 427.139 -3.59206 -3.91337 0
M  V30 4519 C 426.178 -4.80467 -3.79233 0
M  V30 4520 N 425.315 -4.94079 -4.98829 0
M  V30 4521 H 430.155 -2.78456 -1.06143 0
M  V30 4522 H 427.692 -1.37867 -0.512936 0
M  V30 4523 H 429.65 -2.28501 -3.49061 0
M  V30 4524 H 428.28 -1.27075 -2.96735 0
M  V30 4525 H 427.332 -3.37029 -1.76397 0
M  V30 4526 H 428.644 -4.31328 -2.50515 0
M  V30 4527 H 427.798 -3.72751 -4.78687 0
M  V30 4528 H 426.537 -2.68337 -4.07243 0
M  V30 4529 H 425.542 -4.66932 -2.90266 0
M  V30 4530 H 426.767 -5.72765 -3.64852 0
M  V30 4531 H 424.713 -4.06139 -5.15158 0
M  V30 4532 H 424.63 -5.77156 -4.8829 0
M  V30 4533 H 425.898 -5.12003 -5.8777 0
M  V30 4534 N 430.127 0.543554 -1.4793 0
M  V30 4535 C 431.373 1.30201 -1.55485 0
M  V30 4536 C 431.706 1.92925 -0.222201 0
M  V30 4537 O 430.981 1.78586 0.77053 0
M  V30 4538 C 431.264 2.40174 -2.68307 0
M  V30 4539 C 431.117 1.8223 -4.11233 0
M  V30 4540 C 432.436 3.42024 -2.76961 0
M  V30 4541 H 429.555 0.472036 -0.565996 0
M  V30 4542 H 432.197 0.606914 -1.80046 0
M  V30 4543 H 430.347 2.99463 -2.47495 0
M  V30 4544 H 432.019 1.27096 -4.43446 0
M  V30 4545 H 430.262 1.12832 -4.18869 0
M  V30 4546 H 430.933 2.61793 -4.85972 0
M  V30 4547 H 433.409 2.92672 -2.95774 0
M  V30 4548 H 432.285 4.16383 -3.57654 0
M  V30 4549 H 432.546 4.0173 -1.84568 0
M  V30 4550 N 431.605 1.3629 0.791371 0
M  V30 4551 C 432.535 1.33137 1.91825 0
M  V30 4552 C 433.516 0.203168 1.68882 0
M  V30 4553 O 434.701 0.400509 1.90025 0
M  V30 4554 C 431.831 1.11793 3.28816 0
M  V30 4555 C 430.785 2.21417 3.66277 0
M  V30 4556 C 430.111 1.85218 5.01596 0
M  V30 4557 C 431.411 3.63489 3.75064 0
M  V30 4558 H 433.105 2.2743 1.9472 0
M  V30 4559 H 430.651 1.09479 0.935437 0
M  V30 4560 H 432.604 1.08222 4.07266 0
M  V30 4561 H 431.328 0.139501 3.26302 0
M  V30 4562 H 429.987 2.2411 2.90121 0
M  V30 4563 H 429.635 0.859544 4.95602 0
M  V30 4564 H 429.335 2.58611 5.27631 0
M  V30 4565 H 430.859 1.832 5.82469 0
M  V30 4566 H 432.273 3.63034 4.43711 0
M  V30 4567 H 430.67 4.35771 4.12582 0
M  V30 4568 H 431.74 3.98536 2.76219 0
M  V30 4569 N 433.083 -1.0153 1.20538 0
M  V30 4570 C 434.016 -2.09759 0.898695 0
M  V30 4571 C 434.994 -1.61909 -0.149733 0
M  V30 4572 O 436.178 -1.88486 -0.0230293 0
M  V30 4573 C 433.305 -3.36913 0.347512 0
M  V30 4574 C 432.351 -4.03655 1.37713 0
M  V30 4575 S 433.184 -4.47402 2.94265 0
M  V30 4576 C 434.34 -5.77756 2.40726 0
M  V30 4577 H 434.573 -2.3545 1.81523 0
M  V30 4578 H 432.106 -1.14665 1.03399 0
M  V30 4579 H 434.064 -4.10484 0.0360518 0
M  V30 4580 H 432.725 -3.09291 -0.547546 0
M  V30 4581 H 431.918 -4.9514 0.940872 0
M  V30 4582 H 431.52 -3.36313 1.63614 0
M  V30 4583 H 433.812 -6.52994 1.80569 0
M  V30 4584 H 434.755 -6.2618 3.30612 0
M  V30 4585 H 435.163 -5.34081 1.82806 0
M  V30 4586 N 434.561 -1.01147 -1.20859 0
M  V30 4587 C 435.471 -0.58686 -2.27141 0
M  V30 4588 C 436.487 0.373198 -1.69951 0
M  V30 4589 O 437.663 0.235423 -2.00019 0
M  V30 4590 C 434.728 0.0733602 -3.46622 0
M  V30 4591 C 433.789 -0.931995 -4.19061 0
M  V30 4592 C 433.022 -0.303186 -5.32838 0
M  V30 4593 O 433.245 0.898395 -5.63281 0
M  V30 4594 O 432.179 -1.01735 -5.9324 0
M  V30 4595 H 436.005 -1.47155 -2.65667 0
M  V30 4596 H 433.59 -0.780689 -1.2738 0
M  V30 4597 H 435.472 0.442333 -4.19072 0
M  V30 4598 H 434.147 0.932329 -3.09983 0
M  V30 4599 H 433.054 -1.35224 -3.48805 0
M  V30 4600 H 434.387 -1.76076 -4.59628 0
M  V30 4601 N 436.039 1.36541 -0.78704 0
M  V30 4602 C 436.972 2.27831 -0.129765 0
M  V30 4603 C 437.95 1.47105 0.692732 0
M  V30 4604 O 439.134 1.7641 0.664222 0
M  V30 4605 C 436.261 3.28577 0.821883 0
M  V30 4606 C 435.307 4.26422 0.0814771 0
M  V30 4607 S 436.14 5.20919 -1.24112 0
M  V30 4608 C 437.296 6.25212 -0.293409 0
M  V30 4609 H 437.529 2.83229 -0.903811 0
M  V30 4610 H 435.062 1.43046 -0.581144 0
M  V30 4611 H 437.02 3.87123 1.3655 0
M  V30 4612 H 435.681 2.72096 1.56916 0
M  V30 4613 H 434.874 4.97554 0.803485 0
M  V30 4614 H 434.476 3.71944 -0.391589 0
M  V30 4615 H 436.768 6.75435 0.528622 0
M  V30 4616 H 437.711 7.01378 -0.973344 0
M  V30 4617 H 438.119 5.64407 0.102196 0
M  V30 4618 N 437.518 0.538854 1.48102 0
M  V30 4619 C 438.766 0.00798599 2.02098 0
M  V30 4620 C 439.087 -1.33922 1.41739 0
M  V30 4621 O 438.357 -1.86932 0.585934 0
M  V30 4622 H 436.937 -3.62179e-05 0.747 0
M  V30 4623 H 439.599 0.7047 1.81714 0
M  V30 4624 H 438.695 -0.0937672 3.11959 0
M  V30 4625 N 438.996 -1.55193 0.274407 0
M  V30 4626 C 440.407 -1.85358 -0.223488 0
M  V30 4627 C 440.758 -1.19642 -1.555 0
M  V30 4628 O 439.883 -0.484498 -2.10907 0
M  V30 4629 C 440.478 -3.36282 -0.412285 0
M  V30 4630 C 439.037 -3.66574 -0.854413 0
M  V30 4631 C 438.184 -2.7725 0.0527056 0
M  V30 4632 H 441.135 -1.50743 0.496215 0
M  V30 4633 H 441.156 -3.59349 -1.25094 0
M  V30 4634 H 440.668 -3.84083 0.556965 0
M  V30 4635 H 438.769 -3.24273 -1.83516 0
M  V30 4636 H 438.882 -4.74073 -0.692226 0
M  V30 4637 H 437.246 -2.50447 -0.463484 0
M  V30 4638 H 438.029 -3.27865 1.01783 0
M  V30 4639 N 440.474 -0.00167713 -1.576 0
M  V30 4640 C 441.885 0.54091 -1.78693 0
M  V30 4641 C 442.236 1.7386 -0.909247 0
M  V30 4642 O 441.361 2.16109 -0.112176 0
M  V30 4643 C 441.956 0.98806 -3.24072 0
M  V30 4644 C 440.515 1.47594 -3.46256 0
M  V30 4645 C 439.662 0.42792 -2.73978 0
M  V30 4646 H 442.613 -0.22784 -1.57056 0
M  V30 4647 H 442.634 1.85398 -3.32277 0
M  V30 4648 H 442.146 0.116164 -3.87926 0
M  V30 4649 H 440.247 2.36868 -2.87618 0
M  V30 4650 H 440.36 1.50225 -4.54939 0
M  V30 4651 H 438.724 0.889934 -2.38647 0
M  V30 4652 H 439.507 -0.435038 -3.40532 0
M  V30 4653 N 441.952 1.55251 0.271103 0
M  V30 4654 C 443.182 1.79713 1.01916 0
M  V30 4655 C 443.59 0.571613 1.80359 0
M  V30 4656 O 442.933 -0.468853 1.77616 0
M  V30 4657 C 442.995 2.97138 2.02359 0
M  V30 4658 C 442.659 4.34104 1.42837 0
M  V30 4659 C 443.656 5.13019 0.843071 0
M  V30 4660 C 441.341 4.80765 1.455 0
M  V30 4661 C 443.335 6.36729 0.292333 0
M  V30 4662 C 441.022 6.0443 0.900402 0
M  V30 4663 C 442.02 6.8225 0.32007 0
M  V30 4664 O 441.708 8.03582 -0.226031 0
M  V30 4665 H 441.44 0.602431 0.306681 0
M  V30 4666 H 443.994 2.03097 0.306701 0
M  V30 4667 H 442.224 2.6945 2.77369 0
M  V30 4668 H 443.913 3.08907 2.63309 0
M  V30 4669 H 444.679 4.781 0.815178 0
M  V30 4670 H 440.558 4.20202 1.89609 0
M  V30 4671 H 444.102 6.97414 -0.161274 0
M  V30 4672 H 439.999 6.3883 0.925541 0
M  V30 4673 H 440.767 8.18418 -0.115572 0
M  V30 4674 N 443.43 -0.535701 1.48216 0
M  V30 4675 C 444.393 -1.623 1.61838 0
M  V30 4676 C 445.393 -1.53087 0.492024 0
M  V30 4677 O 446.583 -1.5686 0.757668 0
M  V30 4678 C 443.715 -3.01907 1.58319 0
M  V30 4679 H 444.908 -1.51564 2.58783 0
M  V30 4680 H 442.461 -0.757317 1.36727 0
M  V30 4681 H 443.196 -3.18155 0.628299 0
M  V30 4682 H 442.981 -3.10003 2.40085 0
M  V30 4683 H 444.471 -3.80969 1.71033 0
M  V30 4684 N 444.908 -1.36708 -0.784132 0
M  V30 4685 C 446.156 -1.30972 -1.53918 0
M  V30 4686 C 446.477 0.109086 -1.94695 0
M  V30 4687 O 445.747 1.05048 -1.65353 0
M  V30 4688 H 444.327 -0.481819 -0.570841 0
M  V30 4689 H 446.989 -1.71063 -0.934002 0
M  V30 4690 H 446.085 -1.94061 -2.44431 0
M  V30 4691 N 446.386 1.0089 -1.21074 0
M  V30 4692 C 447.318 2.09737 -0.924291 0
M  V30 4693 C 448.331 1.62546 0.0909809 0
M  V30 4694 O 449.52 1.77942 -0.141021 0
M  V30 4695 C 446.62 3.36922 -0.36559 0
M  V30 4696 C 445.793 4.13216 -1.43426 0
M  V30 4697 C 444.852 5.18696 -0.885496 0
M  V30 4698 O 443.878 5.47176 -1.56801 0
M  V30 4699 N 445.08 5.79718 0.301227 0
M  V30 4700 H 447.845 2.34895 -1.8613 0
M  V30 4701 H 445.406 1.17341 -1.11546 0
M  V30 4702 H 447.398 4.04697 0.0158407 0
M  V30 4703 H 445.968 3.08952 0.476149 0
M  V30 4704 H 445.188 3.40301 -1.9897 0
M  V30 4705 H 446.476 4.60967 -2.15376 0
M  V30 4706 H 445.874 5.58926 0.872849 0
M  V30 4707 H 444.431 6.48804 0.624211 0
M  V30 4708 N 447.864 1.01787 1.20321 0
M  V30 4709 C 448.796 0.547357 2.22568 0
M  V30 4710 C 449.809 -0.370922 1.58518 0
M  V30 4711 O 450.998 -0.169067 1.77698 0
M  V30 4712 C 448.098 -0.223031 3.38165 0
M  V30 4713 C 447.271 0.697472 4.31803 0
M  V30 4714 C 446.33 -0.025562 5.26194 0
M  V30 4715 O 445.356 0.597367 5.66057 0
M  V30 4716 N 446.558 -1.29999 5.65757 0
M  V30 4717 H 449.323 1.42668 2.63564 0
M  V30 4718 H 446.884 0.895552 1.34876 0
M  V30 4719 H 448.876 -0.716002 3.98316 0
M  V30 4720 H 447.446 -1.00366 2.9605 0
M  V30 4721 H 446.666 1.37073 3.69601 0
M  V30 4722 H 447.954 1.32347 4.91286 0
M  V30 4723 H 447.352 -1.827 5.35385 0
M  V30 4724 H 445.909 -1.73766 6.28211 0
M  V30 4725 N 449.342 -1.36122 0.79427 0
M  V30 4726 C 450.252 -2.33769 0.197296 0
M  V30 4727 C 451.268 -1.61276 -0.653153 0
M  V30 4728 O 452.444 -1.9323 -0.5678 0
M  V30 4729 C 449.509 -3.40474 -0.654098 0
M  V30 4730 C 448.57 -4.28759 0.215411 0
M  V30 4731 C 447.803 -5.30368 -0.595443 0
M  V30 4732 O 448.026 -5.40211 -1.83107 0
M  V30 4733 O 446.96 -6.019 0.00721351 0
M  V30 4734 H 450.786 -2.86597 1.00478 0
M  V30 4735 H 448.371 -1.38676 0.555818 0
M  V30 4736 H 450.253 -4.05703 -1.13944 0
M  V30 4737 H 448.928 -2.89937 -1.43938 0
M  V30 4738 H 447.835 -3.66554 0.747615 0
M  V30 4739 H 449.168 -4.82661 0.964332 0
M  V30 4740 N 450.82 -0.546701 -1.47814 0
M  V30 4741 C 451.75 0.195317 -2.32682 0
M  V30 4742 C 452.731 0.918981 -1.43139 0
M  V30 4743 O 453.916 0.901501 -1.72008 0
M  V30 4744 C 451.046 1.23237 -3.247 0
M  V30 4745 C 450 0.625818 -4.234 0
M  V30 4746 C 449.326 1.76674 -5.04669 0
M  V30 4747 C 450.626 -0.413515 -5.2066 0
M  V30 4748 H 452.32 -0.513184 -2.94969 0
M  V30 4749 H 449.866 -0.248241 -1.41844 0
M  V30 4750 H 451.819 1.75955 -3.82907 0
M  V30 4751 H 450.543 1.97067 -2.60446 0
M  V30 4752 H 449.202 0.120023 -3.66403 0
M  V30 4753 H 448.85 2.49383 -4.36826 0
M  V30 4754 H 448.55 1.36673 -5.71484 0
M  V30 4755 H 450.074 2.29738 -5.65732 0
M  V30 4756 H 451.488 0.0272042 -5.73294 0
M  V30 4757 H 449.885 -0.731825 -5.95621 0
M  V30 4758 H 450.955 -1.31325 -4.66778 0
M  V30 4759 N 452.299 1.55045 -0.282633 0
M  V30 4760 C 453.262 2.21515 0.588539 0
M  V30 4761 C 454.262 1.19535 1.07554 0
M  V30 4762 O 455.452 1.44391 0.974514 0
M  V30 4763 C 452.584 2.88704 1.8128 0
M  V30 4764 H 453.777 2.99899 0.00806397 0
M  V30 4765 H 451.33 1.56265 -0.0333067 0
M  V30 4766 H 452.065 2.14352 2.43359 0
M  V30 4767 H 451.85 3.63443 1.47144 0
M  V30 4768 H 453.34 3.39465 2.43214 0
M  V30 4769 N 453.777 0.010035 1.57597 0
M  V30 4770 C 455.002 -0.687021 1.95691 0
M  V30 4771 C 455.427 -1.65952 0.885519 0
M  V30 4772 O 454.785 -1.80633 -0.15543 0
M  V30 4773 C 454.833 -1.3864 3.32884 0
M  V30 4774 O 453.937 -2.50115 3.27897 0
M  V30 4775 H 453.278 -0.181989 0.638573 0
M  V30 4776 H 455.808 0.0662122 2.04493 0
M  V30 4777 H 455.818 -1.74754 3.6868 0
M  V30 4778 H 454.493 -0.673411 4.10412 0
M  V30 4779 H 453.07 -2.16253 3.03791 0
M  V30 4780 N 455.255 -1.55392 -0.262866 0
M  V30 4781 C 456.502 -1.76476 -0.993109 0
M  V30 4782 C 456.83 -0.571479 -1.85915 0
M  V30 4783 O 456.085 0.445733 -1.90556 0
M  V30 4784 C 456.384 -3.02889 -1.89718 0
M  V30 4785 C 456.05 -4.34974 -1.18781 0
M  V30 4786 C 454.712 -4.7087 -0.991699 0
M  V30 4787 C 457.064 -5.16695 -0.683798 0
M  V30 4788 C 454.392 -5.86036 -0.279024 0
M  V30 4789 C 456.744 -6.32598 0.0153327 0
M  V30 4790 C 455.408 -6.67127 0.223062 0
M  V30 4791 H 454.678 -0.64577 -0.363404 0
M  V30 4792 H 457.325 -1.89664 -0.264525 0
M  V30 4793 H 455.63 -2.84644 -2.6923 0
M  V30 4794 H 457.327 -3.16399 -2.46359 0
M  V30 4795 H 453.917 -4.06765 -1.35058 0
M  V30 4796 H 458.101 -4.8943 -0.8229 0
M  V30 4797 H 453.357 -6.11306 -0.107456 0
M  V30 4798 H 457.531 -6.95171 0.413584 0
M  V30 4799 H 455.158 -7.56216 0.777265 0
M  V30 4800 N 456.733 0.527833 -1.48498 0
M  V30 4801 C 457.683 1.62844 -1.5958 0
M  V30 4802 C 458.667 1.54397 -0.452809 0
M  V30 4803 O 459.859 1.62381 -0.704364 0
M  V30 4804 C 456.988 3.01557 -1.64067 0
M  V30 4805 C 456.074 3.151 -2.83853 0
M  V30 4806 N 456.465 2.9861 -4.08247 0
M  V30 4807 C 454.763 3.46158 -2.8123 0
M  V30 4808 C 455.464 3.15626 -4.88626 0
M  V30 4809 N 454.44 3.43298 -4.21483 0
M  V30 4810 H 458.242 1.48708 -2.53502 0
M  V30 4811 H 455.756 0.733343 -1.44899 0
M  V30 4812 H 457.753 3.8062 -1.70101 0
M  V30 4813 H 456.413 3.16783 -0.712636 0
M  V30 4814 H 457.424 2.75329 -4.3865 0
M  V30 4815 H 454.101 3.67728 -1.97692 0
M  V30 4816 H 455.491 3.07596 -5.97356 0
M  V30 4817 N 458.211 1.37122 0.776871 0
M  V30 4818 C 459.436 1.354 1.57104 0
M  V30 4819 C 459.861 -0.0595562 1.88006 0
M  V30 4820 O 459.219 -1.03514 1.48844 0
M  V30 4821 C 459.267 2.19472 2.8612 0
M  V30 4822 O 458.371 1.59582 3.80273 0
M  V30 4823 H 457.712 0.462869 0.476076 0
M  V30 4824 H 460.242 1.80577 0.961932 0
M  V30 4825 H 460.252 2.32502 3.35271 0
M  V30 4826 H 458.927 3.22222 2.62956 0
M  V30 4827 H 457.504 1.55564 3.38902 0
M  V30 4828 N 459.689 -1.00246 1.21608 0
M  V30 4829 C 460.917 -1.77631 1.06089 0
M  V30 4830 C 461.332 -1.84746 -0.38916 0
M  V30 4831 O 460.689 -1.31068 -1.26994 0
M  V30 4832 C 460.74 -3.21415 1.65453 0
M  V30 4833 O 460.461 -3.14703 3.04785 0
M  V30 4834 C 461.962 -4.15289 1.55079 0
M  V30 4835 H 459.182 -0.558162 0.37242 0
M  V30 4836 H 461.726 -1.26093 1.60999 0
M  V30 4837 H 459.881 -3.70053 1.14629 0
M  V30 4838 H 460.295 -4.05056 3.33212 0
M  V30 4839 H 461.769 -5.13965 2.01355 0
M  V30 4840 H 462.246 -4.36279 0.505665 0
M  V30 4841 H 462.852 -3.72543 2.05163 0
M  V30 4842 N 461.167 -1.02423 -1.1978 0
M  V30 4843 C 462.392 -0.7373 -1.93852 0
M  V30 4844 C 462.817 0.696923 -1.74713 0
M  V30 4845 O 462.175 1.48056 -1.04638 0
M  V30 4846 C 462.223 -1.08783 -3.438 0
M  V30 4847 O 461.327 -0.20383 -4.11896 0
M  V30 4848 H 460.668 -0.27284 -0.605355 0
M  V30 4849 H 463.198 -1.36966 -1.51992 0
M  V30 4850 H 463.208 -1.04276 -3.9445 0
M  V30 4851 H 461.883 -2.13274 -3.57053 0
M  V30 4852 H 460.46 -0.307091 -3.71633 0
M  V30 4853 N 462.645 1.35699 -0.801477 0
M  V30 4854 C 463.592 2.29876 -0.206294 0
M  V30 4855 C 464.562 1.52565 0.656752 0
M  V30 4856 O 465.747 1.81024 0.602906 0
M  V30 4857 C 462.887 3.39052 0.643272 0
M  V30 4858 C 462 4.31335 -0.239644 0
M  V30 4859 C 461.135 5.27599 0.61744 0
M  V30 4860 C 460.174 6.11521 -0.26619 0
M  V30 4861 N 459.311 6.99938 0.550571 0
M  V30 4862 H 464.151 2.80187 -1.01484 0
M  V30 4863 H 461.688 1.37902 -0.511997 0
M  V30 4864 H 463.646 4.0101 1.15094 0
M  V30 4865 H 462.276 2.9003 1.41713 0
M  V30 4866 H 461.328 3.70426 -0.865381 0
M  V30 4867 H 462.64 4.90243 -0.919985 0
M  V30 4868 H 461.794 5.94906 1.19045 0
M  V30 4869 H 460.533 4.69176 1.33137 0
M  V30 4870 H 459.538 5.43166 -0.851507 0
M  V30 4871 H 460.763 6.72022 -0.9779 0
M  V30 4872 H 458.709 6.44008 1.24856 0
M  V30 4873 H 458.626 7.55966 -0.071832 0
M  V30 4874 H 459.894 7.71599 1.10702 0
M  V30 4875 N 464.123 0.554532 1.47522 0
M  V30 4876 C 465.371 0.0294208 2.02079 0
M  V30 4877 C 465.692 -1.32411 1.43151 0
M  V30 4878 O 464.962 -1.863 0.605728 0
M  V30 4879 H 463.542 0.00788672 0.746958 0
M  V30 4880 H 466.204 0.723934 1.80956 0
M  V30 4881 H 465.3 -0.0606745 3.12041 0
M  V30 4882 N 465.601 -1.54893 0.290851 0
M  V30 4883 C 466.831 -2.04047 -0.323818 0
M  V30 4884 C 467.239 -1.16809 -1.48837 0
M  V30 4885 O 466.582 -0.184145 -1.82775 0
M  V30 4886 C 466.644 -3.49248 -0.852395 0
M  V30 4887 C 466.308 -4.56623 0.185557 0
M  V30 4888 C 467.305 -5.09985 1.01053 0
M  V30 4889 C 464.99 -5.01252 0.324332 0
M  V30 4890 C 466.984 -6.06507 1.96031 0
M  V30 4891 C 464.671 -5.97596 1.27757 0
M  V30 4892 C 465.669 -6.50107 2.09405 0
M  V30 4893 O 465.357 -7.44565 3.03114 0
M  V30 4894 H 465.089 -0.671735 -0.0758129 0
M  V30 4895 H 467.643 -2.00947 0.425393 0
M  V30 4896 H 465.873 -3.49639 -1.65195 0
M  V30 4897 H 467.562 -3.81654 -1.38185 0
M  V30 4898 H 468.328 -4.76307 0.914129 0
M  V30 4899 H 464.207 -4.60015 -0.301213 0
M  V30 4900 H 467.751 -6.47418 2.598 0
M  V30 4901 H 463.648 -6.30691 1.37473 0
M  V30 4902 H 464.416 -7.62334 2.97976 0
M  V30 4903 N 467.08 -0.0183926 -1.57589 0
M  V30 4904 C 468.013 1.00148 -2.0505 0
M  V30 4905 C 468.991 1.32387 -0.944058 0
M  V30 4906 O 470.175 1.44237 -1.21358 0
M  V30 4907 C 467.302 2.32435 -2.46357 0
M  V30 4908 C 466.348 2.15731 -3.67916 0
M  V30 4909 S 467.181 1.46613 -5.15039 0
M  V30 4910 C 468.337 2.80293 -5.59631 0
M  V30 4911 H 468.57 0.597429 -2.91235 0
M  V30 4912 H 466.103 0.193002 -1.53189 0
M  V30 4913 H 468.061 3.0849 -2.70822 0
M  V30 4914 H 466.722 2.69975 -1.60537 0
M  V30 4915 H 465.915 3.13502 -3.9463 0
M  V30 4916 H 465.517 1.4782 -3.43548 0
M  V30 4917 H 467.809 3.76557 -5.63215 0
M  V30 4918 H 468.752 2.58256 -6.59325 0
M  V30 4919 H 469.16 2.85047 -4.87246 0
M  V30 4920 N 468.558 1.5553 0.254621 0
M  V30 4921 C 469.806 1.7665 0.981793 0
M  V30 4922 C 470.127 0.580963 1.86145 0
M  V30 4923 O 469.397 -0.403537 1.91699 0
M  V30 4924 H 467.977 0.651475 0.365498 0
M  V30 4925 H 470.639 1.92958 0.274426 0
M  V30 4926 H 469.735 2.67486 1.60802 0
M  V30 4927 N 470.036 -0.519951 1.48776 0
M  V30 4928 C 470.946 -1.65025 1.66745 0
M  V30 4929 C 471.962 -1.6508 0.549954 0
M  V30 4930 O 473.138 -1.83848 0.822295 0
M  V30 4931 C 470.203 -3.0146 1.71238 0
M  V30 4932 C 469.264 -3.12182 2.94688 0
M  V30 4933 C 468.497 -4.42109 2.98958 0
M  V30 4934 O 468.72 -5.29799 2.1135 0
M  V30 4935 O 467.654 -4.57406 3.91233 0
M  V30 4936 H 471.48 -1.52801 2.62461 0
M  V30 4937 H 469.065 -0.694157 1.32294 0
M  V30 4938 H 470.947 -3.82584 1.76657 0
M  V30 4939 H 469.622 -3.13988 0.786975 0
M  V30 4940 H 468.529 -2.30316 2.94797 0
M  V30 4941 H 469.862 -3.04574 3.86646 0
M  V30 4942 N 471.514 -1.37532 -0.769588 0
M  V30 4943 C 472.754 -1.34261 -1.54122 0
M  V30 4944 C 473.118 0.0717222 -1.91866 0
M  V30 4945 O 474.319 0.22918 -2.67821 0
M  V30 4946 C 472.59 -2.2574 -2.77086 0
M  V30 4947 S 474.149 -2.40339 -3.67127 0
M  V30 4948 H 470.967 -0.476595 -0.527615 0
M  V30 4949 H 473.569 -1.73303 -0.90479 0
M  V30 4950 H 472.273 -3.27417 -2.4744 0
M  V30 4951 H 471.804 -1.87789 -3.45686 0
M  V30 4952 H 473.819 -1.61558 -4.69163 0
M  V30 4953 N 472.992 0.995999 -1.22138 0
M  V30 4954 C 474.24 1.73167 -1.042 0
M  V30 4955 C 474.561 1.90329 0.42423 0
M  V30 4956 O 473.831 1.4607 1.30539 0
M  V30 4957 H 472.411 0.641593 -0.38258 0
M  V30 4958 H 475.073 1.19974 -1.53598 0
M  V30 4959 H 474.169 2.72734 -1.51731 0
M  V30 4960 N 474.47 1.03057 1.19235 0
M  V30 4961 C 475.717 0.728019 1.88961 0
M  V30 4962 C 476.045 -0.743515 1.79728 0
M  V30 4963 O 475.3 -1.55729 1.1852 0
M  V30 4964 C 475.599 1.1268 3.39172 0
M  V30 4965 C 475.265 2.5969 3.68608 0
M  V30 4966 C 473.927 2.99854 3.76352 0
M  V30 4967 C 476.279 3.54793 3.81801 0
M  V30 4968 C 473.607 4.34031 3.94758 0
M  V30 4969 C 475.959 4.88675 4.0172 0
M  V30 4970 C 474.623 5.28526 4.07697 0
M  V30 4971 H 473.893 0.266401 0.691456 0
M  V30 4972 H 476.54 1.29373 1.41191 0
M  V30 4973 H 474.845 0.479722 3.88852 0
M  V30 4974 H 476.542 0.870203 3.91444 0
M  V30 4975 H 473.132 2.27575 3.63191 0
M  V30 4976 H 477.316 3.24914 3.7516 0
M  V30 4977 H 472.572 4.6444 3.97625 0
M  V30 4978 H 476.746 5.6228 4.1087 0
M  V30 4979 H 474.373 6.32506 4.21712 0
M  V30 4980 N 475.948 -1.35272 0.808662 0
M  V30 4981 C 477.364 -1.51806 0.492653 0
M  V30 4982 C 477.564 -1.7574 -0.985778 0
M  V30 4983 O 476.62 -1.80003 -1.77074 0
M  V30 4984 C 477.933 -2.69202 1.33981 0
M  V30 4985 C 479.481 -2.8308 1.33547 0
M  V30 4986 C 479.956 -4.03502 2.16679 0
M  V30 4987 N 481.447 -4.10684 2.14227 0
M  V30 4988 C 482.182 -5.02984 2.75308 0
M  V30 4989 N 481.678 -6.00603 3.45323 0
M  V30 4990 N 483.471 -4.95746 2.64938 0
M  V30 4991 H 475.622 -1.17993 1.76611 0
M  V30 4992 H 477.885 -0.577476 0.751814 0
M  V30 4993 H 477.591 -2.581 2.38909 0
M  V30 4994 H 477.465 -3.63854 0.994491 0
M  V30 4995 H 479.852 -2.93631 0.294036 0
M  V30 4996 H 479.933 -1.89278 1.72068 0
M  V30 4997 H 479.577 -3.93711 3.20864 0
M  V30 4998 H 479.507 -4.96489 1.75517 0
M  V30 4999 H 481.998 -3.40802 1.63285 0
M  V30 5000 H 482.311 -6.67633 3.89212 0
M  V30 5001 H 480.656 -6.0077 3.49428 0
M  V30 5002 H 483.847 -4.18439 2.09825 0
M  V30 5003 H 484.02 -5.67487 3.12829 0
M  V30 5004 N 477.426 -0.562348 -1.47226 0
M  V30 5005 C 478.674 -0.0401371 -2.0206 0
M  V30 5006 C 478.995 1.3165 -1.43852 0
M  V30 5007 O 478.265 1.85976 -0.615599 0
M  V30 5008 H 476.845 -0.0118479 -0.746906 0
M  V30 5009 H 479.507 -0.73352 -1.8057 0
M  V30 5010 H 478.603 0.0441254 -3.12069 0
M  V30 5011 N 478.904 1.54736 -0.299062 0
M  V30 5012 C 480.152 1.99706 0.31017 0
M  V30 5013 C 480.473 1.18896 1.54559 0
M  V30 5014 O 479.743 0.284445 1.93824 0
M  V30 5015 H 478.323 0.737686 0.117596 0
M  V30 5016 H 480.985 1.9054 -0.409943 0
M  V30 5017 H 480.081 3.06596 0.58355 0
M  V30 5018 N 480.382 0.0267497 1.57577 0
M  V30 5019 C 481.612 -0.6617 1.95717 0
M  V30 5020 C 482.02 -1.66331 0.901706 0
M  V30 5021 O 481.363 -1.83273 -0.125241 0
M  V30 5022 C 481.425 -1.42649 3.29987 0
M  V30 5023 C 481.089 -0.583482 4.5326 0
M  V30 5024 C 482.086 0.140221 5.19711 0
M  V30 5025 C 479.771 -0.521581 4.99585 0
M  V30 5026 C 481.765 0.914523 6.30805 0
M  V30 5027 C 479.452 0.256428 6.10562 0
M  V30 5028 C 480.45 0.973189 6.76031 0
M  V30 5029 O 480.138 1.73845 7.84878 0
M  V30 5030 H 479.87 -0.187483 0.649481 0
M  V30 5031 H 482.424 0.0820847 2.05236 0
M  V30 5032 H 480.654 -2.21536 3.16952 0
M  V30 5033 H 482.343 -2.00282 3.53047 0
M  V30 5034 H 483.109 0.101716 4.84893 0
M  V30 5035 H 478.988 -1.06904 4.48433 0
M  V30 5036 H 482.532 1.4745 6.81839 0
M  V30 5037 H 478.429 0.296657 6.44818 0
M  V30 5038 H 479.197 1.65797 8.01532 0
M  V30 5039 N 481.861 -1.55662 -0.24637 0
M  V30 5040 C 483.107 -1.77782 -0.975779 0
M  V30 5041 C 483.44 -0.592103 -1.84953 0
M  V30 5042 O 482.715 0.409588 -1.90138 0
M  V30 5043 C 482.998 -3.09788 -1.83584 0
M  V30 5044 C 482.851 -4.38764 -0.990241 0
M  V30 5045 C 484.17 -3.38029 -2.81823 0
M  V30 5046 H 481.289 -0.646789 -0.353317 0
M  V30 5047 H 483.931 -1.88398 -0.246248 0
M  V30 5048 H 482.081 -3.00869 -2.45784 0
M  V30 5049 H 483.753 -4.59675 -0.386897 0
M  V30 5050 H 481.996 -4.32798 -0.294626 0
M  V30 5051 H 482.667 -5.27514 -1.62584 0
M  V30 5052 H 485.143 -3.46915 -2.2976 0
M  V30 5053 H 484.019 -4.3161 -3.39122 0
M  V30 5054 H 484.28 -2.58968 -3.58313 0
M  V30 5055 N 483.339 0.512053 -1.4905 0
M  V30 5056 C 484.249 1.64139 -1.67617 0
M  V30 5057 C 485.265 1.64786 -0.558701 0
M  V30 5058 O 486.441 1.8341 -0.832034 0
M  V30 5059 C 483.506 3.00548 -1.72835 0
M  V30 5060 C 482.567 3.10615 -2.96339 0
M  V30 5061 C 481.8 4.40517 -3.01298 0
M  V30 5062 O 482.023 5.28671 -2.14157 0
M  V30 5063 O 480.957 4.55325 -3.93653 0
M  V30 5064 H 484.783 1.51407 -2.63267 0
M  V30 5065 H 482.368 0.687131 -1.32661 0
M  V30 5066 H 484.25 3.81641 -1.78683 0
M  V30 5067 H 482.925 3.13566 -0.803616 0
M  V30 5068 H 481.832 2.2875 -2.96014 0
M  V30 5069 H 483.165 3.0252 -3.88256 0
M  V30 5070 N 484.817 1.37938 0.762283 0
M  V30 5071 C 486.063 1.33866 1.52341 0
M  V30 5072 C 486.396 -0.0738961 1.94059 0
M  V30 5073 O 485.671 -1.03326 1.64785 0
M  V30 5074 C 485.954 2.28644 2.78197 0
M  V30 5075 C 485.807 3.78722 2.42672 0
M  V30 5076 C 487.126 2.21702 3.80179 0
M  V30 5077 H 484.245 0.487593 0.55265 0
M  V30 5078 H 486.887 1.68717 0.873767 0
M  V30 5079 H 485.037 1.99055 3.33631 0
M  V30 5080 H 486.709 4.18948 1.93081 0
M  V30 5081 H 484.952 3.96827 1.75244 0
M  V30 5082 H 485.623 4.40486 3.3268 0
M  V30 5083 H 488.099 2.47805 3.34263 0
M  V30 5084 H 486.975 2.90143 4.65949 0
M  V30 5085 H 487.236 1.21301 4.25133 0
M  V30 5086 N 486.295 -0.989507 1.22664 0
M  V30 5087 C 487.541 -1.7321 1.05481 0
M  V30 5088 C 487.874 -1.89852 -0.408635 0
M  V30 5089 O 487.149 -1.44416 -1.30285 0
M  V30 5090 C 487.432 -3.1357 1.77047 0
M  V30 5091 C 487.285 -3.04555 3.31008 0
M  V30 5092 C 488.604 -4.12812 1.5256 0
M  V30 5093 H 485.723 -0.628697 0.384589 0
M  V30 5094 H 488.365 -1.15258 1.51049 0
M  V30 5095 H 486.515 -3.63046 1.3831 0
M  V30 5096 H 488.187 -2.62674 3.7921 0
M  V30 5097 H 486.43 -2.41278 3.6051 0
M  V30 5098 H 487.101 -4.03894 3.76263 0
M  V30 5099 H 489.577 -3.72106 1.86215 0
M  V30 5100 H 488.453 -5.09132 2.05124 0
M  V30 5101 H 488.714 -4.39711 0.458936 0
M  V30 5102 N 487.773 -1.03688 -1.18687 0
M  V30 5103 C 488.721 -0.618292 -2.24232 0
M  V30 5104 C 489.715 0.353045 -1.6568 0
M  V30 5105 O 490.921 0.220749 -1.78641 0
M  V30 5106 H 487.296 -0.181711 -0.729716 0
M  V30 5107 H 489.267 -1.51893 -2.56848 0
M  V30 5108 C 488.016 0.00677342 -3.47699 0
M  V30 5109 H 487.339 -0.731692 -3.93047 0
M  V30 5110 H 488.779 0.262492 -4.23187 0
M  V30 5111 C 487.238 1.25572 -3.12623 0
M  V30 5112 O 487.768 2.34691 -3.26011 0
M  V30 5113 N 485.974 1.14755 -2.66982 0
M  V30 5114 H 485.521 0.259601 -2.56289 0
M  V30 5115 H 485.479 1.98412 -2.43885 0
M  V30 5116 N 489.251 1.34841 -0.815825 0
M  V30 5117 C 490.184 2.27504 -0.178062 0
M  V30 5118 C 491.162 1.48542 0.661373 0
M  V30 5119 O 492.346 1.77779 0.626653 0
M  V30 5120 C 489.473 3.30246 0.752002 0
M  V30 5121 C 488.519 4.26499 -0.00899172 0
M  V30 5122 S 489.352 5.18169 -1.35134 0
M  V30 5123 C 490.508 6.24449 -0.42596 0
M  V30 5124 H 490.741 2.81248 -0.963684 0
M  V30 5125 H 488.274 1.41781 -0.611355 0
M  V30 5126 H 490.232 3.89933 1.28308 0
M  V30 5127 H 488.893 2.75363 1.51109 0
M  V30 5128 H 488.086 4.99146 0.697766 0
M  V30 5129 H 487.688 3.7103 -0.470396 0
M  V30 5130 H 489.98 6.76404 0.385234 0
M  V30 5131 H 490.923 6.99156 -1.1219 0
M  V30 5132 H 491.331 5.64497 -0.0175461 0
M  V30 5133 N 490.729 0.570148 1.46925 0
M  V30 5134 C 492.006 -0.0153259 1.95594 0
M  V30 5135 C 492.386 -1.47232 1.51281 0
M  V30 5136 O 491.734 -2.15574 0.757624 0
M  V30 5137 C 491.944 0.143624 3.48704 0
M  V30 5138 C 493.292 0.00494484 4.246 0
M  V30 5139 O 494.316 0.0718214 3.56128 0
M  V30 5140 O 493.175 -0.141175 5.46318 0
M  V30 5141 H 490.269 -0.0568819 0.825041 0
M  V30 5142 H 492.815 0.637583 1.57267 0
M  V30 5143 H 491.587 1.15699 3.73804 0
M  V30 5144 H 491.21 -0.5463 3.93829 0
M  V30 5145 N 492.207 -1.54576 0.307264 0
M  V30 5146 C 493.17 -2.22423 -0.553224 0
M  V30 5147 C 494.17 -1.21231 -1.05639 0
M  V30 5148 O 495.36 -1.45923 -0.951419 0
M  V30 5149 C 492.492 -2.91552 -1.76664 0
M  V30 5150 H 493.685 -2.99874 0.0396484 0
M  V30 5151 H 491.238 -1.56192 0.0581629 0
M  V30 5152 H 491.973 -2.18196 -2.39918 0
M  V30 5153 H 491.758 -3.65738 -1.41343 0
M  V30 5154 H 493.248 -3.43292 -2.37783 0
M  V30 5155 N 493.685 -0.035106 -1.57561 0
M  V30 5156 C 494.648 0.929819 -2.09492 0
M  V30 5157 C 495.648 1.25026 -1.01119 0
M  V30 5158 O 496.838 1.18961 -1.27255 0
M  V30 5159 C 493.97 2.24457 -2.56577 0
M  V30 5160 H 495.163 0.479935 -2.96035 0
M  V30 5161 H 492.716 0.213033 -1.54841 0
M  V30 5162 H 493.451 2.74061 -1.73382 0
M  V30 5163 H 493.236 2.02508 -3.35757 0
M  V30 5164 H 494.726 2.93607 -2.96959 0
M  V30 5165 N 495.163 1.55791 0.238111 0
M  V30 5166 C 496.409 1.78297 0.966337 0
M  V30 5167 C 496.742 0.601903 1.84637 0
M  V30 5168 O 496.017 -0.399499 1.90353 0
M  V30 5169 C 496.3 3.10758 1.81939 0
M  V30 5170 C 496.153 4.39283 0.966958 0
M  V30 5171 C 497.472 3.39519 2.80027 0
M  V30 5172 H 494.591 0.648654 0.349882 0
M  V30 5173 H 497.233 1.88525 0.236253 0
M  V30 5174 H 495.383 3.02168 2.44185 0
M  V30 5175 H 497.055 4.59873 0.362514 0
M  V30 5176 H 495.298 4.32948 0.271669 0
M  V30 5177 H 495.969 5.28368 1.59784 0
M  V30 5178 H 498.445 3.48128 2.27917 0
M  V30 5179 H 497.321 4.33402 3.36829 0
M  V30 5180 H 497.582 2.60864 3.56934 0
M  V30 5181 N 496.642 -0.504142 1.49319 0
M  V30 5182 C 497.574 -1.62265 1.61872 0
M  V30 5183 C 498.587 -1.54881 0.501573 0
M  V30 5184 O 499.776 -1.6087 0.773497 0
M  V30 5185 C 496.876 -3.01042 1.55651 0
M  V30 5186 C 496.049 -3.33642 2.82845 0
M  V30 5187 C 495.108 -4.51816 2.69719 0
M  V30 5188 O 494.134 -4.53755 3.4365 0
M  V30 5189 N 495.336 -5.51543 1.81055 0
M  V30 5190 H 498.101 -1.51924 2.58339 0
M  V30 5191 H 495.662 -0.691954 1.46368 0
M  V30 5192 H 497.654 -3.78013 1.44528 0
M  V30 5193 H 496.224 -3.05323 0.670546 0
M  V30 5194 H 495.444 -2.45598 3.08343 0
M  V30 5195 H 496.732 -3.5222 3.67177 0
M  V30 5196 H 496.13 -5.52774 1.20241 0
M  V30 5197 H 494.687 -6.27629 1.75856 0
M  V30 5198 N 498.12 -1.38341 -0.754957 0
M  V30 5199 C 499.052 -1.31347 -1.87831 0
M  V30 5200 C 500.065 -0.225955 -1.61224 0
M  V30 5201 O 501.254 -0.48341 -1.7183 0
M  V30 5202 C 498.354 -1.01201 -3.23437 0
M  V30 5203 C 497.527 -2.20834 -3.77559 0
M  V30 5204 C 496.586 -1.87454 -4.91678 0
M  V30 5205 O 495.612 -2.59934 -5.06382 0
M  V30 5206 N 496.814 -0.828682 -5.74555 0
M  V30 5207 H 499.579 -2.28147 -1.94342 0
M  V30 5208 H 497.14 -1.32184 -0.934828 0
M  V30 5209 H 499.132 -0.769249 -3.97322 0
M  V30 5210 H 497.702 -0.132011 -3.12321 0
M  V30 5211 H 496.922 -2.61184 -2.95256 0
M  V30 5212 H 498.21 -3.00678 -4.10451 0
M  V30 5213 H 497.608 -0.227591 -5.65242 0
M  V30 5214 H 496.165 -0.645802 -6.48593 0
M  V30 5215 N 499.598 0.982988 -1.23187 0
M  V30 5216 C 500.53 2.07729 -0.968572 0
M  V30 5217 C 501.543 1.62702 0.0564821 0
M  V30 5218 O 502.732 1.77603 -0.178733 0
M  V30 5219 C 499.832 3.36071 -0.436974 0
M  V30 5220 C 499.005 4.10081 -1.52159 0
M  V30 5221 C 498.064 5.16701 -0.99532 0
M  V30 5222 O 497.09 5.43727 -1.68373 0
M  V30 5223 N 498.292 5.80226 0.178192 0
M  V30 5224 H 501.057 2.30894 -1.9107 0
M  V30 5225 H 498.618 1.14949 -1.1401 0
M  V30 5226 H 500.61 4.04639 -0.0700051 0
M  V30 5227 H 499.18 3.09893 0.410509 0
M  V30 5228 H 498.4 3.36004 -2.06144 0
M  V30 5229 H 499.688 4.56295 -2.25105 0
M  V30 5230 H 499.086 5.60651 0.754096 0
M  V30 5231 H 497.643 6.49982 0.486449 0
M  V30 5232 N 501.076 1.04316 1.18135 0
M  V30 5233 C 502.009 0.580823 2.20685 0
M  V30 5234 C 502.987 -0.385943 1.57953 0
M  V30 5235 O 504.171 -0.299654 1.86103 0
M  V30 5236 C 501.298 -0.151162 3.38363 0
M  V30 5237 C 500.344 0.769247 4.19505 0
M  V30 5238 S 501.177 2.25352 4.85774 0
M  V30 5239 C 502.333 1.53246 6.0685 0
M  V30 5240 H 502.566 1.44968 2.5956 0
M  V30 5241 H 500.099 0.85434 1.28609 0
M  V30 5242 H 502.057 -0.567315 4.06561 0
M  V30 5243 H 500.718 -0.995936 2.97892 0
M  V30 5244 H 499.911 0.203335 5.0359 0
M  V30 5245 H 499.513 1.12436 3.56699 0
M  V30 5246 H 501.805 0.82689 6.72435 0
M  V30 5247 H 502.748 2.35044 6.67952 0
M  V30 5248 H 503.156 1.0237 5.5514 0
M  V30 5249 N 502.554 -1.34406 0.822964 0
M  V30 5250 C 503.484 -2.32052 0.259608 0
M  V30 5251 C 504.465 -1.58243 -0.623961 0
M  V30 5252 O 505.65 -1.86224 -0.55083 0
M  V30 5253 C 502.78 -3.42434 -0.579314 0
M  V30 5254 C 501.734 -4.27499 0.20712 0
M  V30 5255 C 501.06 -5.29349 -0.754547 0
M  V30 5256 C 502.36 -5.02758 1.41533 0
M  V30 5257 H 504.054 -2.79418 1.07545 0
M  V30 5258 H 501.6 -1.34338 0.518593 0
M  V30 5259 H 503.553 -4.0976 -0.983612 0
M  V30 5260 H 502.277 -2.93717 -1.4282 0
M  V30 5261 H 500.936 -3.61776 0.592787 0
M  V30 5262 H 500.584 -4.76895 -1.59939 0
M  V30 5263 H 500.284 -5.8714 -0.232561 0
M  V30 5264 H 501.808 -5.99544 -1.1567 0
M  V30 5265 H 503.222 -5.62938 1.08504 0
M  V30 5266 H 501.619 -5.70123 1.87296 0
M  V30 5267 H 502.689 -4.32451 2.1935 0
M  V30 5268 N 504.032 -0.577932 -1.46621 0
M  V30 5269 C 504.979 0.158048 -2.30258 0
M  V30 5270 C 505.949 0.888669 -1.40328 0
M  V30 5271 O 507.134 0.880283 -1.6928 0
M  V30 5272 C 504.274 1.16884 -3.24703 0
M  V30 5273 C 503.387 0.442163 -4.29731 0
M  V30 5274 C 502.522 1.44007 -5.11308 0
M  V30 5275 C 501.561 0.69952 -6.0809 0
M  V30 5276 N 500.698 1.64525 -6.82551 0
M  V30 5277 H 505.538 -0.561242 -2.92667 0
M  V30 5278 H 503.075 -0.288591 -1.44241 0
M  V30 5279 H 505.033 1.7677 -3.779 0
M  V30 5280 H 503.663 1.85591 -2.64113 0
M  V30 5281 H 502.715 -0.271632 -3.79429 0
M  V30 5282 H 504.027 -0.136992 -4.98612 0
M  V30 5283 H 503.181 2.11186 -5.68758 0
M  V30 5284 H 501.92 2.05315 -4.42377 0
M  V30 5285 H 500.925 0.0139217 -5.49798 0
M  V30 5286 H 502.15 0.091894 -6.79038 0
M  V30 5287 H 500.096 2.24653 -6.16334 0
M  V30 5288 H 500.013 1.11878 -7.47676 0
M  V30 5289 H 501.281 2.30754 -7.44562 0
M  V30 5290 N 505.51 1.54411 -0.315457 0
M  V30 5291 C 506.44 2.27002 0.547039 0
M  V30 5292 C 507.421 1.27492 1.12605 0
M  V30 5293 O 508.606 1.5629 1.15269 0
M  V30 5294 C 505.736 3.02171 1.71201 0
M  V30 5295 C 504.69 4.0895 1.26268 0
M  V30 5296 C 504.016 4.71915 2.51396 0
M  V30 5297 C 505.316 5.20891 0.383419 0
M  V30 5298 H 507.01 2.99343 -0.0584517 0
M  V30 5299 H 504.556 1.4397 -0.0295527 0
M  V30 5300 H 506.509 3.51681 2.32161 0
M  V30 5301 H 505.233 2.27433 2.34397 0
M  V30 5302 H 503.892 3.60312 0.676062 0
M  V30 5303 H 503.54 3.93801 3.12937 0
M  V30 5304 H 503.24 5.44039 2.22026 0
M  V30 5305 H 504.764 5.24195 3.13133 0
M  V30 5306 H 506.178 5.66206 0.899082 0
M  V30 5307 H 504.575 5.99821 0.182857 0
M  V30 5308 H 505.645 4.81324 -0.587821 0
M  V30 5309 N 506.988 0.0434614 1.5754 0
M  V30 5310 C 507.921 -0.968729 2.06618 0
M  V30 5311 C 508.899 -1.30868 0.965 0
M  V30 5312 O 510.083 -1.42288 1.23638 0
M  V30 5313 C 507.21 -2.28486 2.50023 0
M  V30 5314 C 506.256 -2.09851 3.71302 0
M  V30 5315 S 507.089 -1.38401 5.17306 0
M  V30 5316 C 508.245 -2.71354 5.64019 0
M  V30 5317 H 508.478 -0.551021 2.92149 0
M  V30 5318 H 506.011 -0.168607 1.53477 0
M  V30 5319 H 507.969 -3.04142 2.75695 0
M  V30 5320 H 506.63 -2.67387 1.64812 0
M  V30 5321 H 505.823 -3.07184 3.99567 0
M  V30 5322 H 505.425 -1.42336 3.45856 0
M  V30 5323 H 507.717 -3.67549 5.69134 0
M  V30 5324 H 508.66 -2.47734 6.6335 0
M  V30 5325 H 509.068 -2.77259 4.91719 0
M  V30 5326 N 508.466 -1.55915 -0.229846 0
M  V30 5327 C 509.691 -1.8296 -0.976743 0
M  V30 5328 C 510.116 -0.622735 -1.77493 0
M  V30 5329 O 509.474 0.428431 -1.76165 0
M  V30 5330 C 509.522 -3.07916 -1.8767 0
M  V30 5331 O 508.626 -2.86028 -2.97088 0
M  V30 5332 H 507.967 -0.603453 -0.277021 0
M  V30 5333 H 510.497 -2.0312 -0.245669 0
M  V30 5334 H 510.507 -3.37802 -2.2881 0
M  V30 5335 H 509.182 -3.95389 -1.28996 0
M  V30 5336 H 507.759 -2.67355 -2.59954 0
M  V30 5337 N 509.944 0.496216 -1.49584 0
M  V30 5338 C 511.19 1.25189 -1.59548 0
M  V30 5339 C 511.523 1.9212 -0.283466 0
M  V30 5340 O 510.798 1.80947 0.713324 0
M  V30 5341 C 511.081 2.31516 -2.75812 0
M  V30 5342 C 510.934 1.69054 -4.16822 0
M  V30 5343 C 512.253 3.3304 -2.87702 0
M  V30 5344 H 509.372 0.45379 -0.580727 0
M  V30 5345 H 512.014 0.549327 -1.81886 0
M  V30 5346 H 510.164 2.91438 -2.56897 0
M  V30 5347 H 511.836 1.12923 -4.47265 0
M  V30 5348 H 510.079 0.994485 -4.22247 0
M  V30 5349 H 510.75 2.462 -4.94054 0
M  V30 5350 H 513.226 2.83114 -3.04936 0
M  V30 5351 H 512.102 4.04794 -3.7072 0
M  V30 5352 H 512.363 3.95655 -1.97255 0
M  V30 5353 N 511.423 1.38739 0.74761 0
M  V30 5354 C 512.839 1.20067 1.05148 0
M  V30 5355 C 513.039 0.0534835 2.01429 0
M  V30 5356 O 512.095 -0.59886 2.45296 0
M  V30 5357 C 513.408 2.52957 1.62584 0
M  V30 5358 C 514.956 2.59692 1.74726 0
M  V30 5359 C 515.431 3.92772 2.35573 0
M  V30 5360 N 516.922 3.94343 2.42997 0
M  V30 5361 C 517.657 4.9408 2.90985 0
M  V30 5362 N 517.153 6.04214 3.38965 0
M  V30 5363 N 518.946 4.81466 2.9008 0
M  V30 5364 H 511.097 2.12121 0.108808 0
M  V30 5365 H 513.36 0.941491 0.110899 0
M  V30 5366 H 513.066 3.37389 0.993051 0
M  V30 5367 H 512.94 2.71779 2.61565 0
M  V30 5368 H 515.327 1.75651 2.3713 0
M  V30 5369 H 515.408 2.44731 0.744326 0
M  V30 5370 H 515.052 4.77238 1.738 0
M  V30 5371 H 514.982 4.05046 3.36519 0
M  V30 5372 H 517.473 3.14799 2.0907 0
M  V30 5373 H 517.786 6.76241 3.74056 0
M  V30 5374 H 516.131 6.07825 3.37007 0
M  V30 5375 H 519.322 3.94535 2.51912 0
M  V30 5376 H 519.495 5.59344 3.27166 0
M  V30 5377 N 512.901 -0.976442 1.23707 0
M  V30 5378 C 513.831 -2.08749 1.04624 0
M  V30 5379 C 514.812 -1.70057 -0.0380956 0
M  V30 5380 O 515.997 -1.93782 0.127308 0
M  V30 5381 C 513.127 -3.41335 0.640902 0
M  V30 5382 C 512.081 -3.93947 1.67302 0
M  V30 5383 C 511.407 -5.22774 1.12301 0
M  V30 5384 C 512.707 -4.22769 3.06697 0
M  V30 5385 H 514.401 -2.24972 1.97555 0
M  V30 5386 H 511.947 -1.08108 0.951247 0
M  V30 5387 H 513.9 -4.18489 0.494434 0
M  V30 5388 H 512.624 -3.24988 -0.324099 0
M  V30 5389 H 511.283 -3.18941 1.80755 0
M  V30 5390 H 510.931 -5.0278 0.148877 0
M  V30 5391 H 510.631 -5.58942 1.81267 0
M  V30 5392 H 512.155 -6.02546 0.988479 0
M  V30 5393 H 513.569 -4.90659 2.96524 0
M  V30 5394 H 511.966 -4.70147 3.72937 0
M  V30 5395 H 513.036 -3.29885 3.55392 0
M  V30 5396 N 514.379 -1.04941 -1.1758 0
M  V30 5397 C 515.619 -0.766996 -1.89464 0
M  V30 5398 C 515.983 0.693123 -1.79053 0
M  V30 5399 O 517.184 1.08953 -2.45729 0
M  V30 5400 C 515.455 -1.23108 -3.35528 0
M  V30 5401 S 517.014 -1.07565 -4.25412 0
M  V30 5402 H 513.832 -0.278616 -0.654136 0
M  V30 5403 H 516.434 -1.34352 -1.4202 0
M  V30 5404 H 515.138 -2.28896 -3.40639 0
M  V30 5405 H 514.669 -0.648724 -3.88014 0
M  V30 5406 H 516.684 0.00169467 -4.962 0
M  V30 5407 N 515.857 1.33968 -0.830081 0
M  V30 5408 C 517.268 1.80439 -0.479455 0
M  V30 5409 C 517.619 1.68756 1.00079 0
M  V30 5410 O 516.744 1.23171 1.77927 0
M  V30 5411 C 517.339 3.27611 -0.863505 0
M  V30 5412 C 515.898 3.72133 -0.565145 0
M  V30 5413 C 515.045 2.55549 -1.07657 0
M  V30 5414 H 517.996 1.21614 -1.0196 0
M  V30 5415 H 518.017 3.8012 -0.170083 0
M  V30 5416 H 517.529 3.36082 -1.94089 0
M  V30 5417 H 515.63 3.69196 0.502536 0
M  V30 5418 H 515.743 4.65963 -1.11422 0
M  V30 5419 H 514.107 2.49788 -0.497807 0
M  V30 5420 H 514.89 2.66786 -2.16055 0
M  V30 5421 N 517.335 0.585699 1.46312 0
M  V30 5422 C 518.746 0.159938 1.86014 0
M  V30 5423 C 519.097 -1.27775 1.48889 0
M  V30 5424 O 518.222 -1.96559 0.90519 0
M  V30 5425 C 518.817 0.283485 3.37612 0
M  V30 5426 C 517.376 -0.0874256 3.76298 0
M  V30 5427 C 516.523 0.618055 2.70325 0
M  V30 5428 H 519.474 0.793737 1.37425 0
M  V30 5429 H 519.495 -0.490348 3.77327 0
M  V30 5430 H 519.007 1.32995 3.64601 0
M  V30 5431 H 517.108 -1.13391 3.54927 0
M  V30 5432 H 517.221 0.290975 4.78216 0
M  V30 5433 H 515.585 0.057993 2.54634 0
M  V30 5434 H 516.368 1.66623 3.00153 0
M  V30 5435 N 518.813 -1.54241 0.323641 0
M  V30 5436 C 520.059 -2.00867 -0.279323 0
M  V30 5437 C 520.392 -1.21146 -1.5178 0
M  V30 5438 O 519.667 -0.29378 -1.92269 0
M  V30 5439 C 519.95 -3.54837 -0.613387 0
M  V30 5440 C 519.803 -4.45284 0.635803 0
M  V30 5441 C 521.122 -4.16186 -1.43099 0
M  V30 5442 H 518.241 -0.730177 -0.100049 0
M  V30 5443 H 520.883 -1.84829 0.440235 0
M  V30 5444 H 519.033 -3.68634 -1.22641 0
M  V30 5445 H 520.705 -4.43357 1.27406 0
M  V30 5446 H 518.948 -4.14956 1.26466 0
M  V30 5447 H 519.619 -5.5084 0.357597 0
M  V30 5448 H 522.095 -4.05964 -0.912814 0
M  V30 5449 H 520.971 -5.24031 -1.6335 0
M  V30 5450 H 521.232 -3.69516 -2.42715 0
M  V30 5451 N 520.291 -0.0518155 -1.57515 0
M  V30 5452 C 521.702 0.483787 -1.80323 0
M  V30 5453 C 522.053 1.70879 -0.964099 0
M  V30 5454 O 521.178 2.15643 -0.180872 0
M  V30 5455 C 521.773 0.884459 -3.27052 0
M  V30 5456 C 520.332 1.36504 -3.50776 0
M  V30 5457 C 519.479 0.340539 -2.75201 0
M  V30 5458 H 522.43 -0.277691 -1.56252 0
M  V30 5459 H 522.451 1.74733 -3.38007 0
M  V30 5460 H 521.963 -0.00731093 -3.88099 0
M  V30 5461 H 520.064 2.27598 -2.95009 0
M  V30 5462 H 520.177 1.35675 -4.59488 0
M  V30 5463 H 518.541 0.81356 -2.41357 0
M  V30 5464 H 519.324 -0.543156 -3.38976 0
M  V30 5465 N 521.769 1.56035 0.221574 0
M  V30 5466 C 523.017 1.78693 0.944102 0
M  V30 5467 C 523.338 0.620317 1.8487 0
M  V30 5468 O 522.608 -0.362784 1.92512 0
M  V30 5469 H 521.188 0.659082 0.351597 0
M  V30 5470 H 523.85 1.93497 0.233435 0
M  V30 5471 H 522.946 2.70837 1.55093 0
M  V30 5472 N 523.247 -0.488276 1.49845 0
M  V30 5473 C 524.179 -1.60539 1.63584 0
M  V30 5474 C 525.192 -1.5434 0.517972 0
M  V30 5475 O 526.381 -1.60041 0.790516 0
M  V30 5476 C 523.481 -2.99374 1.58835 0
M  V30 5477 C 522.654 -3.30624 2.86368 0
M  V30 5478 C 521.713 -4.4893 2.74496 0
M  V30 5479 O 520.739 -4.50085 3.48443 0
M  V30 5480 N 521.941 -5.49591 1.86894 0
M  V30 5481 H 524.706 -1.49176 2.59936 0
M  V30 5482 H 522.267 -0.67639 1.47094 0
M  V30 5483 H 524.259 -3.76459 1.48529 0
M  V30 5484 H 522.829 -3.04595 0.702892 0
M  V30 5485 H 522.049 -2.42314 3.1093 0
M  V30 5486 H 523.337 -3.48305 3.70892 0
M  V30 5487 H 522.735 -5.51467 1.26097 0
M  V30 5488 H 521.292 -6.25728 1.82503 0
M  V30 5489 N 524.725 -1.39134 -0.740242 0
M  V30 5490 C 525.688 -1.37217 -1.83587 0
M  V30 5491 C 526.688 -0.270221 -1.58513 0
M  V30 5492 O 527.878 -0.527843 -1.6601 0
M  V30 5493 C 525.01 -1.13959 -3.21288 0
M  V30 5494 H 526.203 -2.34705 -1.86691 0
M  V30 5495 H 523.756 -1.24622 -0.94335 0
M  V30 5496 H 524.491 -0.17131 -3.23847 0
M  V30 5497 H 524.276 -1.93754 -3.40884 0
M  V30 5498 H 525.766 -1.15346 -4.01354 0
M  V30 5499 N 526.204 0.969867 -1.24223 0
M  V30 5500 C 527.134 2.08191 -1.05729 0
M  V30 5501 C 528.115 1.70075 0.0290765 0
M  V30 5502 O 529.3 1.93712 -0.137583 0
M  V30 5503 C 526.43 3.40991 -0.658995 0
M  V30 5504 C 525.384 3.93054 -1.69389 0
M  V30 5505 C 524.71 5.22171 -1.15072 0
M  V30 5506 C 526.01 4.21137 -3.08935 0
M  V30 5507 H 527.704 2.23921 -1.98746 0
M  V30 5508 H 525.25 1.07602 -0.956967 0
M  V30 5509 H 527.203 4.18221 -0.51662 0
M  V30 5510 H 525.927 3.25155 0.30686 0
M  V30 5511 H 524.586 3.17977 -1.82444 0
M  V30 5512 H 524.234 5.02694 -0.175539 0
M  V30 5513 H 523.934 5.57973 -1.84229 0
M  V30 5514 H 525.458 6.02013 -1.02042 0
M  V30 5515 H 526.872 4.8908 -2.99121 0
M  V30 5516 H 525.269 4.68163 -3.75425 0
M  V30 5517 H 526.339 3.27996 -3.57137 0
M  V30 5518 N 527.682 1.05563 1.17022 0
M  V30 5519 C 528.612 0.681026 2.23348 0
M  V30 5520 C 529.593 -0.322983 1.67005 0
M  V30 5521 O 530.778 -0.199746 1.9317 0
M  V30 5522 C 527.908 0.0589053 3.4725 0
M  V30 5523 C 526.862 0.988082 4.16438 0
M  V30 5524 C 526.188 0.229646 5.34207 0
M  V30 5525 C 527.488 2.31388 4.68249 0
M  V30 5526 H 529.182 1.56993 2.54938 0
M  V30 5527 H 526.728 0.756302 1.2254 0
M  V30 5528 H 528.681 -0.214982 4.20851 0
M  V30 5529 H 527.405 -0.864968 3.14938 0
M  V30 5530 H 526.064 1.24659 3.44754 0
M  V30 5531 H 525.712 -0.697111 4.98146 0
M  V30 5532 H 525.412 0.848815 5.81437 0
M  V30 5533 H 526.936 -0.0368694 6.10589 0
M  V30 5534 H 528.35 2.09964 5.33468 0
M  V30 5535 H 526.747 2.88736 5.26072 0
M  V30 5536 H 527.817 2.94982 3.84855 0
M  V30 5537 N 529.16 -1.33526 0.837174 0
M  V30 5538 C 530.437 -1.92369 0.354065 0
M  V30 5539 C 530.817 -1.76348 -1.16038 0
M  V30 5540 O 530.165 -1.15083 -1.97403 0
M  V30 5541 C 530.375 -3.39728 0.799101 0
M  V30 5542 C 531.723 -4.16877 0.806139 0
M  V30 5543 O 532.747 -3.48373 0.742597 0
M  V30 5544 O 531.606 -5.39166 0.892345 0
M  V30 5545 H 528.7 -0.820952 0.0998378 0
M  V30 5546 H 531.246 -1.42409 0.922913 0
M  V30 5547 H 530.018 -3.45254 1.84162 0
M  V30 5548 H 529.641 -3.97062 0.206731 0
M  V30 5549 N 530.638 -0.59345 -1.46 0
M  V30 5550 C 531.568 0.121192 -2.33185 0
M  V30 5551 C 532.549 0.872977 -1.4599 0
M  V30 5552 O 533.734 0.846321 -1.74789 0
M  V30 5553 C 530.864 1.12844 -3.28456 0
M  V30 5554 C 529.818 0.4908 -4.25177 0
M  V30 5555 C 529.144 1.60529 -5.10034 0
M  V30 5556 C 530.444 -0.578949 -5.19081 0
M  V30 5557 H 532.138 -0.606767 -2.93187 0
M  V30 5558 H 529.684 -0.293242 -1.40983 0
M  V30 5559 H 531.637 1.63684 -3.88311 0
M  V30 5560 H 530.361 1.88681 -2.66584 0
M  V30 5561 H 529.02 0.00339328 -3.666 0
M  V30 5562 H 528.668 2.35359 -4.44539 0
M  V30 5563 H 528.368 1.18422 -5.75543 0
M  V30 5564 H 529.892 2.11623 -5.72755 0
M  V30 5565 H 531.306 -0.155199 -5.7309 0
M  V30 5566 H 529.703 -0.920947 -5.92991 0
M  V30 5567 H 530.773 -1.46109 -4.62364 0
M  V30 5568 N 532.116 1.54067 -0.331816 0
M  V30 5569 C 533.362 2.01012 0.268667 0
M  V30 5570 C 533.695 1.2195 1.51136 0
M  V30 5571 O 532.97 0.303972 1.9211 0
M  V30 5572 C 533.253 3.55158 0.59456 0
M  V30 5573 C 533.106 4.4494 -0.659409 0
M  V30 5574 C 534.425 4.16939 1.4089 0
M  V30 5575 H 531.544 0.730698 0.0961756 0
M  V30 5576 H 534.186 1.84593 -0.450031 0
M  V30 5577 H 532.336 3.6928 1.20685 0
M  V30 5578 H 534.008 4.42675 -1.29756 0
M  V30 5579 H 532.251 4.1428 -1.28665 0
M  V30 5580 H 532.922 5.50643 -0.386804 0
M  V30 5581 H 535.398 4.06443 0.891272 0
M  V30 5582 H 534.274 5.24889 1.60569 0
M  V30 5583 H 534.535 3.70798 2.40752 0
M  V30 5584 N 533.594 0.0601682 1.57485 0
M  V30 5585 C 534.84 -0.612501 1.93329 0
M  V30 5586 C 535.173 -1.6996 0.939526 0
M  V30 5587 O 534.448 -1.94472 -0.0330957 0
M  V30 5588 C 534.731 -1.20025 3.39508 0
M  V30 5589 C 534.584 -0.12059 4.49638 0
M  V30 5590 C 535.903 -2.10923 3.86264 0
M  V30 5591 H 533.022 -0.221185 0.703027 0
M  V30 5592 H 535.664 0.123768 1.89596 0
M  V30 5593 H 533.814 -1.82774 3.42821 0
M  V30 5594 H 535.486 0.51185 4.58452 0
M  V30 5595 H 533.729 0.550251 4.30296 0
M  V30 5596 H 534.4 -0.572019 5.49028 0
M  V30 5597 H 536.876 -1.58124 3.84884 0
M  V30 5598 H 535.752 -2.48987 4.8918 0
M  V30 5599 H 536.013 -3.01292 3.23536 0
M  V30 5600 N 535.072 -1.5615 -0.213296 0
M  V30 5601 C 536.297 -1.83986 -0.957282 0
M  V30 5602 C 536.722 -0.641526 -1.76822 0
M  V30 5603 O 536.08 0.409722 -1.7661 0
M  V30 5604 C 536.128 -3.09889 -1.84393 0
M  V30 5605 O 535.232 -2.89163 -2.94038 0
M  V30 5606 H 534.573 -0.606357 -0.270605 0
M  V30 5607 H 537.103 -2.03369 -0.224111 0
M  V30 5608 H 537.113 -3.40209 -2.25215 0
M  V30 5609 H 535.788 -3.96735 -1.24795 0
M  V30 5610 H 534.365 -2.70097 -2.57103 0
M  V30 5611 N 536.55 0.480323 -1.50102 0
M  V30 5612 C 537.961 1.06142 -1.53593 0
M  V30 5613 C 538.312 1.93335 -0.334055 0
M  V30 5614 O 537.437 2.09188 0.55403 0
M  V30 5615 C 538.032 1.9317 -2.78336 0
M  V30 5616 C 536.591 2.46405 -2.84538 0
M  V30 5617 C 535.738 1.24521 -2.4777 0
M  V30 5618 H 538.689 0.26333 -1.565 0
M  V30 5619 H 538.71 2.78123 -2.59669 0
M  V30 5620 H 538.222 1.29683 -3.65792 0
M  V30 5621 H 536.323 3.13472 -2.01411 0
M  V30 5622 H 536.436 2.82143 -3.87211 0
M  V30 5623 H 534.8 1.57706 -2.00003 0
M  V30 5624 H 535.583 0.627102 -3.37524 0
M  V30 5625 N 538.028 1.39524 0.732853 0
M  V30 5626 C 539.439 1.32905 1.31122 0
M  V30 5627 C 539.79 -0.00558708 1.96199 0
M  V30 5628 O 538.915 -0.907706 1.96443 0
M  V30 5629 C 539.51 2.40704 2.38426 0
M  V30 5630 C 538.069 2.37599 2.91931 0
M  V30 5631 C 537.216 2.2248 1.65523 0
M  V30 5632 H 540.167 1.49581 0.530207 0
M  V30 5633 H 540.188 2.07616 3.18867 0
M  V30 5634 H 539.7 3.37829 1.91033 0
M  V30 5635 H 537.801 1.44119 3.43599 0
M  V30 5636 H 537.914 3.32538 3.44899 0
M  V30 5637 H 536.278 1.69691 1.8994 0
M  V30 5638 H 537.061 3.21577 1.20178 0
M  V30 5639 N 539.506 -0.963266 1.24736 0
M  V30 5640 C 540.469 -2.04013 1.04457 0
M  V30 5641 C 541.469 -1.608 0.000335555 0
M  V30 5642 O 542.659 -1.72515 0.241719 0
M  V30 5643 C 539.791 -3.35858 0.584162 0
M  V30 5644 H 540.984 -2.23436 2.00041 0
M  V30 5645 H 538.537 -1.13914 1.07021 0
M  V30 5646 H 539.272 -3.22128 -0.374673 0
M  V30 5647 H 539.057 -3.68568 1.3379 0
M  V30 5648 H 540.547 -4.1502 0.463451 0
M  V30 5649 N 540.985 -1.06182 -1.16461 0
M  V30 5650 C 542.396 -0.802426 -1.68576 0
M  V30 5651 C 542.747 0.67412 -1.84255 0
M  V30 5652 O 541.872 1.52303 -1.5373 0
M  V30 5653 C 542.467 -1.45002 -3.06202 0
M  V30 5654 C 541.026 -1.23843 -3.55443 0
M  V30 5655 C 540.173 -1.52724 -2.31454 0
M  V30 5656 H 543.124 -1.22545 -1.00839 0
M  V30 5657 H 543.145 -0.864731 -3.70544 0
M  V30 5658 H 542.657 -2.52466 -2.94759 0
M  V30 5659 H 540.758 -0.183487 -3.72148 0
M  V30 5660 H 540.871 -1.95036 -4.37604 0
M  V30 5661 H 539.235 -0.947726 -2.36411 0
M  V30 5662 H 540.018 -2.61343 -2.22609 0
M  V30 5663 N 542.463 1.3308 -0.844243 0
M  V30 5664 C 543.691 2.01808 -0.456203 0
M  V30 5665 C 544.106 1.63498 0.944131 0
M  V30 5666 O 543.463 0.85102 1.61443 0
M  V30 5667 C 543.514 3.56922 -0.573513 0
M  V30 5668 O 543.235 3.93851 -1.91868 0
M  V30 5669 C 544.736 4.42922 -0.183125 0
M  V30 5670 H 541.956 0.646273 -0.180477 0
M  V30 5671 H 544.5 1.69891 -1.1383 0
M  V30 5672 H 542.655 3.87352 0.0607367 0
M  V30 5673 H 543.069 4.88564 -1.90802 0
M  V30 5674 H 544.543 5.51093 -0.316241 0
M  V30 5675 H 545.02 4.30386 0.875477 0
M  V30 5676 H 545.626 4.1786 -0.792027 0
M  V30 5677 N 543.941 0.601185 1.45683 0
M  V30 5678 C 545.218 0.0261659 1.95582 0
M  V30 5679 C 545.598 -1.4399 1.5437 0
M  V30 5680 O 544.946 -2.13919 0.80318 0
M  V30 5681 C 545.156 0.217557 3.48321 0
M  V30 5682 C 546.504 0.0950076 4.24494 0
M  V30 5683 O 547.528 0.147345 3.55895 0
M  V30 5684 O 546.387 -0.025261 5.46494 0
M  V30 5685 H 543.481 -0.0393688 0.826062 0
M  V30 5686 H 546.027 0.670798 1.55879 0
M  V30 5687 H 544.799 1.23601 3.71266 0
M  V30 5688 H 544.422 -0.46264 3.94899 0
M  V30 5689 N 545.419 -1.53889 0.339982 0
M  V30 5690 C 546.83 -1.86139 -0.144671 0
M  V30 5691 C 547.181 -1.2613 -1.50285 0
M  V30 5692 O 546.306 -0.573515 -2.08662 0
M  V30 5693 C 546.901 -3.37728 -0.269285 0
M  V30 5694 C 545.46 -3.69868 -0.698168 0
M  V30 5695 C 544.607 -2.76777 0.170249 0
M  V30 5696 H 547.558 -1.48503 0.559704 0
M  V30 5697 H 547.579 -3.64331 -1.0974 0
M  V30 5698 H 547.091 -3.81375 0.719366 0
M  V30 5699 H 545.192 -3.31764 -1.69597 0
M  V30 5700 H 545.305 -4.76582 -0.490533 0
M  V30 5701 H 543.669 -2.52188 -0.356844 0
M  V30 5702 H 544.452 -3.23253 1.15597 0
M  V30 5703 N 546.897 -0.0685191 -1.57451 0
M  V30 5704 C 548.122 0.613919 -1.98106 0
M  V30 5705 C 548.547 1.62551 -0.946501 0
M  V30 5706 O 547.905 1.81085 0.0882824 0
M  V30 5707 C 547.953 1.26189 -3.378 0
M  V30 5708 O 547.057 2.37773 -3.36954 0
M  V30 5709 H 546.398 0.158163 -0.644888 0
M  V30 5710 H 548.928 -0.142063 -2.04106 0
M  V30 5711 H 548.938 1.60951 -3.74912 0
M  V30 5712 H 547.613 0.520625 -4.12629 0
M  V30 5713 H 546.19 2.04829 -3.11608 0
M  V30 5714 N 548.375 1.56261 0.205012 0
M  V30 5715 C 549.622 1.8004 0.926927 0
M  V30 5716 C 549.95 0.640086 1.83666 0
M  V30 5717 O 549.205 -0.374702 1.92079 0
M  V30 5718 C 549.504 3.09722 1.78345 0
M  V30 5719 C 549.17 4.39082 1.02555 0
M  V30 5720 C 547.832 4.74226 0.816256 0
M  V30 5721 C 550.184 5.18877 0.491559 0
M  V30 5722 C 547.512 5.86668 0.0613287 0
M  V30 5723 C 549.864 6.32105 -0.250107 0
M  V30 5724 C 548.528 6.6584 -0.470508 0
M  V30 5725 H 547.798 0.658812 0.339187 0
M  V30 5726 H 550.445 1.90515 0.19395 0
M  V30 5727 H 548.75 2.9444 2.5848 0
M  V30 5728 H 550.447 3.25324 2.34446 0
M  V30 5729 H 547.037 4.11497 1.19868 0
M  V30 5730 H 551.221 4.92147 0.640684 0
M  V30 5731 H 546.477 6.11283 -0.119501 0
M  V30 5732 H 550.651 6.93157 -0.671307 0
M  V30 5733 H 548.278 7.5281 -1.05739 0
M  V30 5734 N 549.853 -0.472356 1.50355 0
M  V30 5735 C 550.816 -1.5529 1.68576 0
M  V30 5736 C 551.816 -1.50863 0.556511 0
M  V30 5737 O 553.006 -1.53505 0.823516 0
M  V30 5738 C 550.138 -2.94921 1.70981 0
M  V30 5739 H 551.331 -1.40451 2.64978 0
M  V30 5740 H 548.884 -0.698645 1.39816 0
M  V30 5741 H 549.619 -3.15204 0.762675 0
M  V30 5742 H 549.404 -2.99541 2.53017 0
M  V30 5743 H 550.894 -3.73372 1.87037 0
M  V30 5744 N 551.331 -1.39911 -0.725443 0
M  V30 5745 C 552.263 -1.35301 -1.85003 0
M  V30 5746 C 553.276 -0.260102 -1.60709 0
M  V30 5747 O 554.465 -0.519749 -1.70766 0
M  V30 5748 C 551.565 -1.08039 -3.21218 0
M  V30 5749 C 550.738 -2.28793 -3.7279 0
M  V30 5750 C 549.797 -1.97841 -4.87591 0
M  V30 5751 O 548.823 -2.70616 -5.00755 0
M  V30 5752 N 550.025 -0.950367 -5.72668 0
M  V30 5753 H 552.79 -2.32218 -1.89459 0
M  V30 5754 H 550.351 -1.34137 -0.90658 0
M  V30 5755 H 552.343 -0.853354 -3.95601 0
M  V30 5756 H 550.913 -0.198229 -3.11971 0
M  V30 5757 H 550.133 -2.67388 -2.8965 0
M  V30 5758 H 551.421 -3.09317 -4.03981 0
M  V30 5759 H 550.819 -0.347436 -5.64632 0
M  V30 5760 H 549.376 -0.783232 -6.47077 0
M  V30 5761 N 552.809 0.956637 -1.25245 0
M  V30 5762 C 554.056 1.701 -1.09874 0
M  V30 5763 C 554.384 1.91128 0.36062 0
M  V30 5764 O 553.639 1.47837 1.28229 0
M  V30 5765 C 553.938 3.08996 -1.79601 0
M  V30 5766 C 553.604 3.07774 -3.29523 0
M  V30 5767 C 552.266 3.07149 -3.70423 0
M  V30 5768 C 554.618 3.01257 -4.25316 0
M  V30 5769 C 551.946 2.97752 -5.0553 0
M  V30 5770 C 554.298 2.93403 -5.60444 0
M  V30 5771 C 552.962 2.91111 -6.00675 0
M  V30 5772 H 552.232 0.62244 -0.402056 0
M  V30 5773 H 554.879 1.1178 -1.55491 0
M  V30 5774 H 553.184 3.70848 -1.26408 0
M  V30 5775 H 554.881 3.65407 -1.65162 0
M  V30 5776 H 551.471 3.09032 -2.9698 0
M  V30 5777 H 555.655 3.00861 -3.9471 0
M  V30 5778 H 550.911 2.94346 -5.35883 0
M  V30 5779 H 555.085 2.87321 -6.34366 0
M  V30 5780 H 552.712 2.83586 -7.05325 0
M  V30 5781 N 554.287 1.06798 1.15896 0
M  V30 5782 C 555.219 0.641263 2.20046 0
M  V30 5783 C 556.232 -0.303355 1.59949 0
M  V30 5784 O 557.421 -0.0935478 1.78255 0
M  V30 5785 C 554.521 -0.0794029 3.38807 0
M  V30 5786 C 553.694 0.879986 4.28457 0
M  V30 5787 C 552.753 0.197638 5.25829 0
M  V30 5788 O 551.779 0.836913 5.63014 0
M  V30 5789 N 552.981 -1.05886 5.70761 0
M  V30 5790 H 555.746 1.53718 2.57276 0
M  V30 5791 H 553.307 0.951951 1.30956 0
M  V30 5792 H 555.299 -0.546418 4.00994 0
M  V30 5793 H 553.869 -0.877193 3.0004 0
M  V30 5794 H 553.089 1.52625 3.63454 0
M  V30 5795 H 554.377 1.53065 4.8523 0
M  V30 5796 H 553.775 -1.59828 5.42652 0
M  V30 5797 H 552.332 -1.46965 6.35015 0
M  V30 5798 N 555.766 -1.3263 0.851289 0
M  V30 5799 C 556.729 -2.27247 0.298541 0
M  V30 5800 C 557.729 -1.51467 -0.539847 0
M  V30 5801 O 558.919 -1.7061 -0.351843 0
M  V30 5802 C 556.051 -3.35964 -0.578004 0
M  V30 5803 H 557.244 -2.7765 1.13359 0
M  V30 5804 H 554.797 -1.43245 0.625354 0
M  V30 5805 H 555.532 -2.90823 -1.435 0
M  V30 5806 H 555.317 -3.92094 0.0220539 0
M  V30 5807 H 556.807 -4.06472 -0.957626 0
M  V30 5808 N 557.244 -0.608902 -1.45362 0
M  V30 5809 C 558.154 0.110969 -2.34337 0
M  V30 5810 C 559.17 0.859007 -1.51318 0
M  V30 5811 O 560.346 0.816296 -1.84116 0
M  V30 5812 C 557.411 1.09494 -3.28956 0
M  V30 5813 C 556.472 0.348718 -4.27881 0
M  V30 5814 C 555.705 1.28582 -5.17979 0
M  V30 5815 O 555.928 2.52369 -5.11533 0
M  V30 5816 O 554.862 0.782172 -5.96796 0
M  V30 5817 H 558.688 -0.620258 -2.97299 0
M  V30 5818 H 556.273 -0.36916 -1.44767 0
M  V30 5819 H 558.155 1.66163 -3.87257 0
M  V30 5820 H 556.83 1.80717 -2.68557 0
M  V30 5821 H 555.737 -0.260465 -3.73192 0
M  V30 5822 H 557.07 -0.323049 -4.91139 0
M  V30 5823 N 558.722 1.53707 -0.348139 0
M  V30 5824 C 559.669 2.25173 0.506518 0
M  V30 5825 C 560.639 1.25174 1.09182 0
M  V30 5826 O 561.824 1.53917 1.12757 0
M  V30 5827 C 558.964 3.03141 1.64923 0
M  V30 5828 C 558.077 4.18002 1.0908 0
M  V30 5829 C 557.212 4.83447 2.20119 0
M  V30 5830 C 556.251 5.90369 1.61651 0
M  V30 5831 N 555.388 6.49575 2.66451 0
M  V30 5832 H 560.228 2.97799 -0.109452 0
M  V30 5833 H 557.765 1.46953 -0.0657866 0
M  V30 5834 H 559.723 3.46607 2.32205 0
M  V30 5835 H 558.353 2.32803 2.23612 0
M  V30 5836 H 557.405 3.79145 0.308783 0
M  V30 5837 H 558.717 4.94892 0.623178 0
M  V30 5838 H 557.871 5.30008 2.95257 0
M  V30 5839 H 556.61 4.05991 2.70227 0
M  V30 5840 H 555.615 5.43186 0.850209 0
M  V30 5841 H 556.84 6.69735 1.1239 0
M  V30 5842 H 554.786 5.74981 3.15805 0
M  V30 5843 H 554.703 7.21952 2.24325 0
M  V30 5844 H 555.971 7.00789 3.41344 0
M  V30 5845 N 560.2 0.0768682 1.57412 0
M  V30 5846 C 561.132 -0.918248 2.10002 0
M  V30 5847 C 562.145 -1.25808 1.03325 0
M  V30 5848 O 563.334 -1.21438 1.30824 0
M  V30 5849 C 560.434 -2.23263 2.54964 0
M  V30 5850 C 559.607 -2.07088 3.8527 0
M  V30 5851 C 558.666 -3.21876 4.16272 0
M  V30 5852 O 557.692 -2.96643 4.8579 0
M  V30 5853 N 558.894 -4.4712 3.70221 0
M  V30 5854 H 561.659 -0.469209 2.96004 0
M  V30 5855 H 559.22 -0.108725 1.61535 0
M  V30 5856 H 561.212 -2.9897 2.72762 0
M  V30 5857 H 559.782 -2.59649 1.74072 0
M  V30 5858 H 559.002 -1.15818 3.76802 0
M  V30 5859 H 560.29 -1.93537 4.70554 0
M  V30 5860 H 559.688 -4.70506 3.1407 0
M  V30 5861 H 558.245 -5.19837 3.93209 0
M  V30 5862 N 561.678 -1.56367 -0.196722 0
M  V30 5863 C 562.641 -1.93561 -1.22746 0
M  V30 5864 C 563.641 -0.816566 -1.38524 0
M  V30 5865 O 564.831 -1.084 -1.36363 0
M  V30 5866 C 561.963 -2.20823 -2.59712 0
M  V30 5867 H 563.156 -2.85774 -0.909586 0
M  V30 5868 H 560.709 -1.50032 -0.438174 0
M  V30 5869 H 561.444 -1.31243 -2.96557 0
M  V30 5870 H 561.229 -3.02368 -2.49632 0
M  V30 5871 H 562.719 -2.50608 -3.34044 0
M  V30 5872 N 563.156 0.464375 -1.50603 0
M  V30 5873 C 564.402 1.21776 -1.62168 0
M  V30 5874 C 564.735 1.91476 -0.324154 0
M  V30 5875 O 564.01 1.8242 0.674782 0
M  V30 5876 C 564.293 2.25614 -2.80661 0
M  V30 5877 C 564.146 1.60175 -4.20314 0
M  V30 5878 C 565.465 3.26862 -2.94702 0
M  V30 5879 H 562.584 0.44137 -0.590222 0
M  V30 5880 H 565.226 0.510623 -1.8301 0
M  V30 5881 H 563.376 2.85923 -2.63021 0
M  V30 5882 H 565.048 1.03411 -4.4956 0
M  V30 5883 H 563.291 0.904697 -4.24261 0
M  V30 5884 H 563.962 2.35665 -4.99165 0
M  V30 5885 H 566.438 2.76582 -3.10872 0
M  V30 5886 H 565.314 3.96839 -3.79223 0
M  V30 5887 H 565.575 3.91382 -2.05603 0
M  V30 5888 N 564.634 1.40294 0.718013 0
M  V30 5889 C 565.564 1.43118 1.84498 0
M  V30 5890 C 566.545 0.292403 1.67568 0
M  V30 5891 O 567.73 0.500675 1.87635 0
M  V30 5892 C 564.86 1.29065 3.22427 0
M  V30 5893 C 563.814 2.40521 3.54025 0
M  V30 5894 C 563.14 2.11546 4.91073 0
M  V30 5895 C 564.44 3.82859 3.55269 0
M  V30 5896 H 566.134 2.37432 1.82391 0
M  V30 5897 H 563.68 1.14283 0.87609 0
M  V30 5898 H 565.633 1.29658 4.00957 0
M  V30 5899 H 564.357 0.312271 3.25104 0
M  V30 5900 H 563.016 2.39173 2.77834 0
M  V30 5901 H 562.664 1.12104 4.90348 0
M  V30 5902 H 562.364 2.86216 5.1318 0
M  V30 5903 H 563.888 2.13817 5.71939 0
M  V30 5904 H 565.302 3.86044 4.23843 0
M  V30 5905 H 563.699 4.57029 3.88902 0
M  V30 5906 H 564.769 4.12617 2.54706 0
M  V30 5907 N 566.112 -0.949982 1.2575 0
M  V30 5908 C 567.075 -2.02894 1.06615 0
M  V30 5909 C 568.075 -1.60791 0.0173905 0
M  V30 5910 O 569.265 -1.72249 0.260003 0
M  V30 5911 C 566.397 -3.35219 0.619751 0
M  V30 5912 H 567.59 -2.21302 2.02399 0
M  V30 5913 H 565.143 -1.12772 1.08223 0
M  V30 5914 H 565.878 -3.22508 -0.340486 0
M  V30 5915 H 565.663 -3.67129 1.37692 0
M  V30 5916 H 567.153 -4.14505 0.507443 0
M  V30 5917 N 567.59 -1.07411 -1.15328 0
M  V30 5918 C 568.5 -0.706438 -2.23711 0
M  V30 5919 C 569.516 0.282586 -1.7169 0
M  V30 5920 O 570.692 0.129066 -2.00986 0
M  V30 5921 C 567.757 -0.11048 -3.46524 0
M  V30 5922 C 566.818 -1.15282 -4.13532 0
M  V30 5923 C 566.051 -0.585205 -5.30482 0
M  V30 5924 O 566.274 0.598549 -5.67251 0
M  V30 5925 O 565.208 -1.33039 -5.87013 0
M  V30 5926 H 569.034 -1.61031 -2.57493 0
M  V30 5927 H 566.619 -0.847113 -1.23062 0
M  V30 5928 H 568.501 0.21957 -4.20828 0
M  V30 5929 H 567.176 0.766703 -3.14489 0
M  V30 5930 H 566.083 -1.53523 -3.41147 0
M  V30 5931 H 567.416 -2.00192 -4.49649 0
M  V30 5932 N 569.068 1.32177 -0.85831 0
M  V30 5933 C 569.998 2.31282 -0.321041 0
M  V30 5934 C 570.979 1.59841 0.581786 0
M  V30 5935 O 572.164 1.87619 0.501262 0
M  V30 5936 C 569.294 3.4385 0.48832 0
M  V30 5937 C 568.248 4.26799 -0.320391 0
M  V30 5938 C 567.574 5.31164 0.613934 0
M  V30 5939 C 568.874 4.98829 -1.54813 0
M  V30 5940 H 570.568 2.76469 -1.14915 0
M  V30 5941 H 568.114 1.32916 -0.554028 0
M  V30 5942 H 570.067 4.12224 0.874626 0
M  V30 5943 H 568.791 2.97401 1.34983 0
M  V30 5944 H 567.45 3.60077 -0.688497 0
M  V30 5945 H 567.098 4.80967 1.47239 0
M  V30 5946 H 566.798 5.8755 0.0768097 0
M  V30 5947 H 568.322 6.024 0.997336 0
M  V30 5948 H 569.736 5.59864 -1.23392 0
M  V30 5949 H 568.133 5.64957 -2.02346 0
M  V30 5950 H 569.203 4.26483 -2.30739 0
M  V30 5951 N 570.547 0.616602 1.45037 0
M  V30 5952 C 571.51 -0.0871112 2.29034 0
M  V30 5953 C 572.51 -0.786414 1.40258 0
M  V30 5954 O 573.7 -0.633207 1.62284 0
M  V30 5955 C 570.832 -1.13369 3.21497 0
M  V30 5956 H 572.025 0.651497 2.92738 0
M  V30 5957 H 569.578 0.376058 1.51709 0
M  V30 5958 H 570.313 -1.90277 2.62612 0
M  V30 5959 H 570.098 -0.636358 3.86902 0
M  V30 5960 H 571.588 -1.62627 3.84633 0
M  V30 5961 N 572.025 -1.5352 0.356285 0
M  V30 5962 C 572.988 -2.24071 -0.482182 0
M  V30 5963 C 573.988 -1.24531 -1.01729 0
M  V30 5964 O 575.178 -1.48876 -0.904513 0
M  V30 5965 C 572.31 -2.97025 -1.67299 0
M  V30 5966 H 573.503 -2.99596 0.135031 0
M  V30 5967 H 571.056 -1.55928 0.107825 0
M  V30 5968 H 571.791 -2.25719 -2.32855 0
M  V30 5969 H 571.576 -3.7005 -1.29636 0
M  V30 5970 H 573.066 -3.50683 -2.26741 0
M  V30 5971 N 573.503 -0.0852151 -1.57369 0
M  V30 5972 C 574.45 0.877268 -2.13478 0
M  V30 5973 C 575.42 1.28642 -1.05073 0
M  V30 5974 O 576.605 1.36992 -1.32808 0
M  V30 5975 C 573.745 2.13464 -2.71159 0
M  V30 5976 C 572.858 1.77691 -3.93764 0
M  V30 5977 C 571.993 2.98139 -4.39643 0
M  V30 5978 C 571.032 2.58447 -5.54862 0
M  V30 5979 N 570.169 3.71698 -5.95639 0
M  V30 5980 H 575.009 0.391933 -2.95411 0
M  V30 5981 H 572.546 0.181796 -1.45972 0
M  V30 5982 H 574.504 2.87086 -3.02717 0
M  V30 5983 H 573.134 2.59514 -1.91969 0
M  V30 5984 H 572.186 0.940768 -3.68583 0
M  V30 5985 H 573.498 1.44497 -4.77412 0
M  V30 5986 H 572.652 3.80026 -4.72933 0
M  V30 5987 H 571.391 3.34536 -3.54876 0
M  V30 5988 H 570.396 1.74984 -5.21211 0
M  V30 5989 H 571.621 2.23205 -6.41371 0
M  V30 5990 H 569.567 4.07831 -5.13819 0
M  V30 5991 H 569.484 3.42317 -6.74059 0
M  V30 5992 H 570.752 4.54123 -6.33555 0
M  V30 5993 N 574.981 1.5647 0.188427 0
M  V30 5994 C 575.944 1.9421 1.21718 0
M  V30 5995 C 576.944 0.823901 1.38089 0
M  V30 5996 O 578.134 1.09122 1.35787 0
M  V30 5997 C 575.266 2.22197 2.58537 0
M  V30 5998 H 576.459 2.86252 0.894418 0
M  V30 5999 H 574.012 1.50263 0.430211 0
M  V30 6000 H 574.747 1.32814 2.95856 0
M  V30 6001 H 574.532 3.03688 2.48025 0
M  V30 6002 H 576.022 2.52376 3.3271 0
M  V30 6003 N 576.459 -0.456382 1.50847 0
M  V30 6004 C 577.406 -1.55249 1.70782 0
M  V30 6005 C 578.376 -1.56757 0.549231 0
M  V30 6006 O 579.561 -1.74061 0.7815 0
M  V30 6007 C 576.701 -2.93118 1.82143 0
M  V30 6008 C 575.814 -3.01285 3.09598 0
M  V30 6009 C 574.949 -4.30159 3.11667 0
M  V30 6010 C 573.988 -4.32124 4.33515 0
M  V30 6011 N 573.125 -5.52492 4.3324 0
M  V30 6012 H 577.965 -1.37555 2.64353 0
M  V30 6013 H 575.502 -0.668543 1.3103 0
M  V30 6014 H 577.46 -3.73088 1.86711 0
M  V30 6015 H 576.09 -3.09413 0.919978 0
M  V30 6016 H 575.142 -2.14096 3.14431 0
M  V30 6017 H 576.454 -2.98597 3.99551 0
M  V30 6018 H 575.608 -5.18489 3.15046 0
M  V30 6019 H 574.347 -4.35477 2.1957 0
M  V30 6020 H 573.352 -3.42189 4.30333 0
M  V30 6021 H 574.577 -4.28485 5.26856 0
M  V30 6022 H 572.523 -5.58567 3.44004 0
M  V30 6023 H 572.44 -5.51605 5.16979 0
M  V30 6024 H 573.708 -6.42906 4.40786 0
M  V30 6025 N 577.937 -1.40673 -0.710563 0
M  V30 6026 C 578.867 -1.44095 -1.83736 0
M  V30 6027 C 579.848 -0.301286 -1.67411 0
M  V30 6028 O 581.033 -0.510618 -1.87367 0
M  V30 6029 C 578.163 -1.30773 -3.21738 0
M  V30 6030 C 577.117 -2.42395 -3.52745 0
M  V30 6031 C 576.443 -2.14147 -4.89944 0
M  V30 6032 C 577.743 -3.84738 -3.53234 0
M  V30 6033 H 579.437 -2.38396 -1.81129 0
M  V30 6034 H 576.983 -1.14746 -0.870017 0
M  V30 6035 H 578.936 -1.31783 -4.00264 0
M  V30 6036 H 577.66 -0.329507 -3.24934 0
M  V30 6037 H 576.319 -2.40643 -2.76562 0
M  V30 6038 H 575.967 -1.14703 -4.89747 0
M  V30 6039 H 575.667 -2.88934 -5.11655 0
M  V30 6040 H 577.191 -2.16848 -5.70797 0
M  V30 6041 H 578.605 -3.88286 -4.2179 0
M  V30 6042 H 577.002 -4.59085 -3.86473 0
M  V30 6043 H 578.072 -4.13962 -2.52514 0
M  V30 6044 N 579.415 0.9433 -1.26252 0
M  V30 6045 C 580.643 1.72367 -1.14443 0
M  V30 6046 C 581.058 1.86392 0.300572 0
M  V30 6047 O 580.415 1.36978 1.20596 0
M  V30 6048 C 580.466 3.13155 -1.806 0
M  V30 6049 O 580.187 2.99803 -3.19452 0
M  V30 6050 C 581.688 4.07417 -1.74717 0
M  V30 6051 H 578.908 0.539758 -0.398626 0
M  V30 6052 H 581.452 1.18268 -1.66832 0
M  V30 6053 H 579.607 3.64162 -1.32154 0
M  V30 6054 H 580.021 3.88697 -3.52158 0
M  V30 6055 H 581.495 5.03773 -2.25647 0
M  V30 6056 H 581.972 4.3337 -0.713244 0
M  V30 6057 H 582.578 3.6233 -2.22704 0
M  V30 6058 N 580.893 1.08022 1.14757 0
M  V30 6059 C 581.803 0.718292 2.23333 0
M  V30 6060 C 582.819 -0.273477 1.71837 0
M  V30 6061 O 583.995 -0.118406 2.01052 0
M  V30 6062 C 581.06 0.128855 3.4646 0
M  V30 6063 C 580.121 1.17473 4.12915 0
M  V30 6064 C 579.354 0.61333 5.30164 0
M  V30 6065 O 579.577 -0.568458 5.6756 0
M  V30 6066 O 578.511 1.3615 5.86299 0
M  V30 6067 H 582.337 1.62394 2.56636 0
M  V30 6068 H 579.922 0.853628 1.22611 0
M  V30 6069 H 581.804 -0.197249 4.20938 0
M  V30 6070 H 580.479 -0.750014 3.14891 0
M  V30 6071 H 579.386 1.5533 3.40328 0
M  V30 6072 H 580.719 2.02574 4.48581 0
M  V30 6073 N 582.371 -1.3172 0.865308 0
M  V30 6074 C 583.303 -2.27545 0.274906 0
M  V30 6075 C 584.316 -1.52887 -0.559413 0
M  V30 6076 O 585.505 -1.74361 -0.382166 0
M  V30 6077 C 582.605 -3.33006 -0.629286 0
M  V30 6078 C 581.778 -4.37063 0.171553 0
M  V30 6079 C 580.837 -5.22044 -0.660052 0
M  V30 6080 O 579.863 -5.69129 -0.0897527 0
M  V30 6081 N 581.065 -5.45946 -1.97289 0
M  V30 6082 H 583.83 -2.78848 1.09836 0
M  V30 6083 H 581.391 -1.44693 0.726331 0
M  V30 6084 H 583.383 -3.86772 -1.19121 0
M  V30 6085 H 581.953 -2.81782 -1.35342 0
M  V30 6086 H 581.173 -3.83436 0.914919 0
M  V30 6087 H 582.461 -5.03662 0.721235 0
M  V30 6088 H 581.859 -5.0944 -2.45942 0
M  V30 6089 H 580.416 -6.02665 -2.4827 0
M  V30 6090 N 583.85 -0.624285 -1.44708 0
M  V30 6091 C 585.096 -0.126237 -2.02407 0
M  V30 6092 C 585.428 1.24618 -1.48943 0
M  V30 6093 O 584.704 1.82569 -0.670742 0
M  V30 6094 C 584.986 -0.105449 -3.59946 0
M  V30 6095 C 584.84 -1.50972 -4.23707 0
M  V30 6096 C 586.159 0.573629 -4.36346 0
M  V30 6097 H 583.278 -0.0473472 -0.735478 0
M  V30 6098 H 585.92 -0.799452 -1.72362 0
M  V30 6099 H 584.07 0.46783 -3.85673 0
M  V30 6100 H 585.742 -2.13136 -4.0911 0
M  V30 6101 H 583.985 -2.0656 -3.81465 0
M  V30 6102 H 584.656 -1.44727 -5.32689 0
M  V30 6103 H 587.132 0.0861787 -4.16011 0
M  V30 6104 H 586.008 0.557338 -5.46063 0
M  V30 6105 H 586.269 1.64276 -4.10446 0
M  V30 6106 N 585.328 1.53329 -0.364422 0
M  V30 6107 C 586.575 2.01239 0.225634 0
M  V30 6108 C 586.903 1.25172 1.48869 0
M  V30 6109 O 586.158 0.333289 1.92841 0
M  V30 6110 C 586.457 3.52911 0.564661 0
M  V30 6111 C 586.123 4.46837 -0.603936 0
M  V30 6112 C 584.785 4.72234 -0.924585 0
M  V30 6113 C 587.137 5.02409 -1.38691 0
M  V30 6114 C 584.465 5.50454 -2.0302 0
M  V30 6115 C 586.817 5.81836 -2.48293 0
M  V30 6116 C 585.481 6.0552 -2.80894 0
M  V30 6117 H 584.751 0.736386 0.0825654 0
M  V30 6118 H 587.398 1.84948 -0.496645 0
M  V30 6119 H 585.703 3.67144 1.36794 0
M  V30 6120 H 587.4 3.87455 1.03344 0
M  V30 6121 H 583.99 4.27217 -0.343983 0
M  V30 6122 H 588.174 4.82735 -1.15243 0
M  V30 6123 H 583.43 5.67024 -2.28678 0
M  V30 6124 H 587.604 6.23905 -3.0938 0
M  V30 6125 H 585.231 6.65916 -3.66688 0
M  V30 6126 N 586.806 0.0935595 1.57322 0
M  V30 6127 C 587.754 -0.883457 2.15169 0
M  V30 6128 C 588.748 -1.29324 1.09415 0
M  V30 6129 O 589.954 -1.26795 1.27762 0
M  V30 6130 H 586.329 -0.302923 0.688289 0
M  V30 6131 H 588.3 -0.370845 2.96087 0
M  V30 6132 C 587.049 -2.13345 2.74552 0
M  V30 6133 H 586.372 -1.82702 3.55612 0
M  V30 6134 H 587.812 -2.7977 3.18598 0
M  V30 6135 C 586.271 -2.90646 1.70371 0
M  V30 6136 O 586.801 -3.85133 1.14173 0
M  V30 6137 N 585.007 -2.54157 1.40899 0
M  V30 6138 H 584.554 -1.77391 1.86789 0
M  V30 6139 H 584.512 -3.06178 0.714301 0
M  V30 6140 N 588.284 -1.56567 -0.180126 0
M  V30 6141 C 589.194 -1.98947 -1.24327 0
M  V30 6142 C 590.21 -0.899446 -1.4895 0
M  V30 6143 O 591.386 -1.20639 -1.61271 0
M  V30 6144 C 588.451 -2.33328 -2.56435 0
M  V30 6145 C 587.512 -3.56114 -2.39752 0
M  V30 6146 C 586.745 -3.88845 -3.65561 0
M  V30 6147 O 586.968 -3.22662 -4.70368 0
M  V30 6148 O 585.902 -4.82226 -3.60197 0
M  V30 6149 H 589.728 -2.89634 -0.913565 0
M  V30 6150 H 587.313 -1.44319 -0.386306 0
M  V30 6151 H 589.195 -2.5645 -3.34382 0
M  V30 6152 H 587.87 -1.45806 -2.89002 0
M  V30 6153 H 586.777 -3.38221 -1.59866 0
M  V30 6154 H 588.11 -4.4415 -2.12113 0
M  V30 6155 N 589.762 0.448376 -1.51087 0
M  V30 6156 C 590.725 1.52588 -1.71025 0
M  V30 6157 C 591.725 1.49958 -0.580442 0
M  V30 6158 O 592.915 1.52176 -0.847833 0
M  V30 6159 C 590.047 2.92163 -1.75652 0
M  V30 6160 H 591.24 1.36218 -2.67179 0
M  V30 6161 H 588.793 0.676313 -1.4091 0
M  V30 6162 H 589.528 3.13951 -0.812724 0
M  V30 6163 H 589.313 2.95478 -2.57751 0
M  V30 6164 H 590.803 3.70349 -1.92953 0
M  V30 6165 N 591.24 1.41047 0.703093 0
M  V30 6166 C 592.651 1.35657 1.28274 0
M  V30 6167 C 593.002 0.0360309 1.96167 0
M  V30 6168 O 592.127 -0.865833 1.98324 0
M  V30 6169 C 592.722 2.45707 2.33267 0
M  V30 6170 C 591.281 2.43738 2.86825 0
M  V30 6171 C 590.428 2.25941 1.60767 0
M  V30 6172 H 593.379 1.50672 0.49836 0
M  V30 6173 H 593.4 2.14333 3.14391 0
M  V30 6174 H 592.912 3.41805 1.83824 0
M  V30 6175 H 591.013 1.51375 3.40465 0
M  V30 6176 H 591.126 3.39779 3.37768 0
M  V30 6177 H 589.49 1.73681 1.86298 0
M  V30 6178 H 590.273 3.24054 1.1333 0
M  V30 6179 N 592.718 -0.936591 1.26751 0
M  V30 6180 C 593.966 -1.67998 1.12343 0
M  V30 6181 C 594.287 -1.92137 -0.332938 0
M  V30 6182 O 593.557 -1.52132 -1.23421 0
M  V30 6183 H 592.137 -0.622609 0.412756 0
M  V30 6184 H 594.799 -1.12509 1.59147 0
M  V30 6185 H 593.895 -2.65185 1.64571 0
M  V30 6186 N 594.196 -1.08629 -1.14182 0
M  V30 6187 C 595.445 -0.812271 -1.84621 0
M  V30 6188 C 595.758 0.664313 -1.83973 0
M  V30 6189 O 596.964 1.05357 -2.50224 0
M  V30 6190 C 595.42 -1.4031 -3.31423 0
M  V30 6191 C 595.028 -2.91164 -3.40481 0
M  V30 6192 C 596.772 -1.20767 -4.06959 0
M  V30 6193 C 594.679 -3.43373 -4.81507 0
M  V30 6194 H 593.609 -0.30019 -0.691666 0
M  V30 6195 H 596.26 -1.30798 -1.28701 0
M  V30 6196 H 594.642 -0.835096 -3.87094 0
M  V30 6197 H 595.816 -3.5412 -2.94848 0
M  V30 6198 H 594.131 -3.09646 -2.78403 0
M  V30 6199 H 596.728 -1.57237 -5.11058 0
M  V30 6200 H 597.071 -0.147664 -4.16038 0
M  V30 6201 H 597.604 -1.74274 -3.57594 0
M  V30 6202 H 594.343 -4.48958 -4.77616 0
M  V30 6203 H 593.863 -2.85176 -5.27669 0
M  V30 6204 H 595.542 -3.40095 -5.50404 0
M  V30 6205 N 595.674 1.31259 -0.872281 0
M  V30 6206 C 596.899 2.0133 -0.498099 0
M  V30 6207 C 597.324 1.65031 0.902568 0
M  V30 6208 O 596.682 0.860164 1.59596 0
M  V30 6209 C 596.73 3.54411 -0.665205 0
M  V30 6210 O 595.834 4.11347 0.294473 0
M  V30 6211 H 595.175 0.633844 -0.197832 0
M  V30 6212 H 597.705 1.67402 -1.17633 0
M  V30 6213 H 597.715 4.04147 -0.559373 0
M  V30 6214 H 596.39 3.80171 -1.68651 0
M  V30 6215 H 594.967 3.72624 0.143403 0
M  V30 6216 N 597.152 0.631951 1.44375 0
M  V30 6217 C 598.392 0.14009 2.03919 0
M  V30 6218 C 598.756 -1.21534 1.48639 0
M  V30 6219 O 599.957 -1.79936 1.99691 0
M  V30 6220 C 598.228 0.127174 3.57174 0
M  V30 6221 S 599.787 -0.299946 4.37774 0
M  V30 6222 H 596.605 0.0614891 0.708336 0
M  V30 6223 H 599.207 0.835524 1.76746 0
M  V30 6224 H 597.911 1.11676 3.94913 0
M  V30 6225 H 597.442 -0.589482 3.88958 0
M  V30 6226 H 599.457 -1.54396 4.71568 0
M  V30 6227 N 598.631 -1.53133 0.372548 0
M  V30 6228 C 599.579 -2.27473 -0.485681 0
M  V30 6229 C 600.573 -1.30719 -1.07745 0
M  V30 6230 O 601.779 -1.48321 -1.01985 0
M  V30 6231 H 598.154 -0.731269 -0.175356 0
M  V30 6232 H 600.125 -2.97955 0.162986 0
M  V30 6233 C 598.874 -3.08191 -1.60978 0
M  V30 6234 H 598.197 -3.82488 -1.16373 0
M  V30 6235 H 599.637 -3.63373 -2.18485 0
M  V30 6236 C 598.096 -2.19461 -2.55614 0
M  V30 6237 O 598.626 -1.81008 -3.58607 0
M  V30 6238 N 596.832 -1.83955 -2.24965 0
M  V30 6239 H 596.379 -2.15423 -1.41247 0
M  V30 6240 H 596.337 -1.24874 -2.88538 0
M  V30 6241 N 600.109 -0.101901 -1.5727 0
M  V30 6242 C 601.52 0.426173 -1.81771 0
M  V30 6243 C 601.871 1.67725 -1.01797 0
M  V30 6244 O 600.996 2.14958 -0.249386 0
M  V30 6245 C 601.591 0.779962 -3.297 0
M  V30 6246 C 600.15 1.25275 -3.54941 0
M  V30 6247 C 599.297 0.252814 -2.76145 0
M  V30 6248 H 602.248 -0.32726 -1.55289 0
M  V30 6249 H 602.269 1.63891 -3.43395 0
M  V30 6250 H 601.781 -0.130778 -3.8788 0
M  V30 6251 H 599.882 2.18097 -3.021 0
M  V30 6252 H 599.995 1.20988 -4.63572 0
M  V30 6253 H 598.359 0.736362 -2.43823 0
M  V30 6254 H 599.142 -0.650724 -3.37076 0
M  V30 6255 N 601.587 1.56661 0.17182 0
M  V30 6256 C 602.833 1.82235 0.889845 0
M  V30 6257 C 603.166 0.679673 1.81918 0
M  V30 6258 O 602.441 -0.318404 1.91876 0
M  V30 6259 C 602.724 3.18195 1.68595 0
M  V30 6260 C 602.577 4.42989 0.779773 0
M  V30 6261 C 603.896 3.5109 2.65375 0
M  V30 6262 H 601.015 0.66291 0.322056 0
M  V30 6263 H 603.657 1.89358 0.15608 0
M  V30 6264 H 601.807 3.12253 2.3115 0
M  V30 6265 H 603.479 4.60997 0.16714 0
M  V30 6266 H 601.722 4.33711 0.0877964 0
M  V30 6267 H 602.393 5.3467 1.3723 0
M  V30 6268 H 604.869 3.57482 2.12946 0
M  V30 6269 H 603.745 4.47298 3.18144 0
M  V30 6270 H 604.006 2.75768 3.45549 0
M  V30 6271 N 603.065 -0.440357 1.51323 0
M  V30 6272 C 603.997 -1.55254 1.68609 0
M  V30 6273 C 605.01 -1.52614 0.566812 0
M  V30 6274 O 606.199 -1.57445 0.841032 0
M  V30 6275 C 603.299 -2.94169 1.68279 0
M  V30 6276 C 602.472 -3.21346 2.96742 0
M  V30 6277 C 601.531 -4.3997 2.8864 0
M  V30 6278 O 600.557 -4.38771 3.62586 0
M  V30 6279 N 601.759 -5.43367 2.04285 0
M  V30 6280 H 604.524 -1.40831 2.6455 0
M  V30 6281 H 602.085 -0.629251 1.49171 0
M  V30 6282 H 604.077 -3.71543 1.60431 0
M  V30 6283 H 602.647 -3.02205 0.799441 0
M  V30 6284 H 601.867 -2.32299 3.18482 0
M  V30 6285 H 603.155 -3.3633 3.81785 0
M  V30 6286 H 602.553 -5.47176 1.43578 0
M  V30 6287 H 601.11 -6.19605 2.02318 0
M  V30 6288 N 604.543 -1.41418 -0.695603 0
M  V30 6289 C 605.791 -1.40496 -1.45277 0
M  V30 6290 C 606.112 -0.0149538 -1.94994 0
M  V30 6291 O 605.382 0.9432 -1.71699 0
M  V30 6292 H 603.962 -0.517147 -0.539044 0
M  V30 6293 H 606.624 -1.76656 -0.823321 0
M  V30 6294 H 605.72 -2.09214 -2.31595 0
M  V30 6295 N 606.021 0.929856 -1.27246 0
M  V30 6296 C 606.984 2.01172 -1.09829 0
M  V30 6297 C 607.984 1.60743 -0.0429687 0
M  V30 6298 O 609.174 1.71813 -0.287373 0
M  V30 6299 C 606.306 3.34191 -0.673003 0
M  V30 6300 H 607.499 2.18054 -2.05895 0
M  V30 6301 H 605.052 1.11036 -1.10003 0
M  V30 6302 H 605.787 3.23009 0.289134 0
M  V30 6303 H 605.572 3.64892 -1.43515 0
M  V30 6304 H 607.062 4.13646 -0.573323 0
M  V30 6305 N 607.499 1.09233 1.13605 0
M  V30 6306 C 608.432 0.6739 2.18023 0
M  V30 6307 C 609.41 -0.318603 1.59448 0
M  V30 6308 O 610.594 -0.220452 1.87206 0
M  V30 6309 C 607.721 -0.00751458 3.38699 0
M  V30 6310 C 606.767 0.946481 4.15865 0
M  V30 6311 S 607.6 2.45753 4.75779 0
M  V30 6312 C 608.756 1.78846 5.99804 0
M  V30 6313 H 608.989 1.55846 2.53178 0
M  V30 6314 H 606.522 0.908118 1.2487 0
M  V30 6315 H 608.48 -0.394368 4.08601 0
M  V30 6316 H 607.141 -0.868693 3.01849 0
M  V30 6317 H 606.334 0.416742 5.02274 0
M  V30 6318 H 605.936 1.27464 3.51609 0
M  V30 6319 H 608.228 1.11135 6.68323 0
M  V30 6320 H 609.171 2.63163 6.57382 0
M  V30 6321 H 609.579 1.25823 5.50299 0
M  V30 6322 N 608.977 -1.30795 0.87923 0
M  V30 6323 C 610.207 -2.00237 0.50881 0
M  V30 6324 C 610.615 -1.66115 -0.905682 0
M  V30 6325 O 609.958 -0.89138 -1.60624 0
M  V30 6326 C 610.02 -3.54508 0.597003 0
M  V30 6327 C 609.684 -4.12131 1.97477 0
M  V30 6328 C 610.681 -4.28552 2.94346 0
M  V30 6329 C 608.366 -4.47644 2.2786 0
M  V30 6330 C 610.36 -4.79689 4.19735 0
M  V30 6331 C 608.047 -4.98481 3.53496 0
M  V30 6332 C 609.045 -5.14456 4.49248 0
M  V30 6333 O 608.733 -5.64199 5.72656 0
M  V30 6334 H 608.465 -0.647026 0.195788 0
M  V30 6335 H 611.019 -1.67785 1.1848 0
M  V30 6336 H 609.249 -3.86461 -0.135945 0
M  V30 6337 H 610.938 -4.05198 0.238684 0
M  V30 6338 H 611.704 -4.01424 2.72183 0
M  V30 6339 H 607.583 -4.34481 1.54102 0
M  V30 6340 H 611.127 -4.92073 4.9448 0
M  V30 6341 H 607.024 -5.25044 3.75498 0
M  V30 6342 H 607.792 -5.82551 5.74957 0
M  V30 6343 N 610.455 -0.639598 -1.44038 0
M  V30 6344 C 611.68 -0.153117 -2.06834 0
M  V30 6345 C 612.105 1.16676 -1.47541 0
M  V30 6346 O 611.463 1.71769 -0.580093 0
M  V30 6347 C 611.511 -0.0609169 -3.60549 0
M  V30 6348 O 610.615 0.98071 -4.00569 0
M  V30 6349 H 609.956 -0.0886402 -0.658057 0
M  V30 6350 H 612.486 -0.878674 -1.84771 0
M  V30 6351 H 612.496 0.126892 -4.07803 0
M  V30 6352 H 611.171 -1.0245 -4.03084 0
M  V30 6353 H 609.748 0.766789 -3.64931 0
M  V30 6354 N 611.933 1.52934 -0.380664 0
M  V30 6355 C 613.18 2.01467 0.204278 0
M  V30 6356 C 613.508 1.26744 1.47533 0
M  V30 6357 O 612.763 0.353723 1.92477 0
M  V30 6358 C 613.062 3.5349 0.527199 0
M  V30 6359 C 612.728 4.46171 -0.651295 0
M  V30 6360 C 611.39 4.71227 -0.974619 0
M  V30 6361 C 613.742 5.00909 -1.44012 0
M  V30 6362 C 611.07 5.4827 -2.08847 0
M  V30 6363 C 613.422 5.7917 -2.5445 0
M  V30 6364 C 612.086 6.02507 -2.87301 0
M  V30 6365 H 611.356 0.73722 0.0747504 0
M  V30 6366 H 614.003 1.84411 -0.516234 0
M  V30 6367 H 612.308 3.68574 1.32892 0
M  V30 6368 H 614.005 3.88529 0.992283 0
M  V30 6369 H 610.595 4.26829 -0.389276 0
M  V30 6370 H 614.779 4.81485 -1.20357 0
M  V30 6371 H 610.035 5.64567 -2.34679 0
M  V30 6372 H 614.209 6.20588 -3.1598 0
M  V30 6373 H 611.836 6.61989 -3.7373 0
M  V30 6374 N 613.412 0.11024 1.57214 0
M  V30 6375 C 614.823 -0.416527 1.81994 0
M  V30 6376 C 615.174 -1.67183 1.02686 0
M  V30 6377 O 614.299 -2.14823 0.260782 0
M  V30 6378 C 614.894 -0.762466 3.30109 0
M  V30 6379 C 613.453 -1.23391 3.556 0
M  V30 6380 C 612.6 -0.238166 2.76275 0
M  V30 6381 H 615.551 0.335491 1.55113 0
M  V30 6382 H 615.572 -1.62068 3.44259 0
M  V30 6383 H 615.084 0.151346 3.87805 0
M  V30 6384 H 613.185 -2.16492 3.03253 0
M  V30 6385 H 613.298 -1.18528 4.64207 0
M  V30 6386 H 611.662 -0.723421 2.4421 0
M  V30 6387 H 612.445 0.668591 3.36727 0
M  V30 6388 N 614.89 -1.56749 -0.16351 0
M  V30 6389 C 616.306 -1.51043 -0.515567 0
M  V30 6390 C 616.506 -0.815855 -1.84245 0
M  V30 6391 O 615.562 -0.379477 -2.49632 0
M  V30 6392 C 616.875 -2.95791 -0.541114 0
M  V30 6393 C 618.423 -3.0664 -0.627776 0
M  V30 6394 C 618.898 -4.52861 -0.684141 0
M  V30 6395 N 620.389 -4.5714 -0.746818 0
M  V30 6396 C 621.124 -5.67634 -0.811137 0
M  V30 6397 N 620.62 -6.8774 -0.835811 0
M  V30 6398 N 622.413 -5.55624 -0.850756 0
M  V30 6399 H 614.564 -2.00307 0.70645 0
M  V30 6400 H 616.827 -0.912876 0.255659 0
M  V30 6401 H 616.533 -3.49797 0.365329 0
M  V30 6402 H 616.407 -3.50858 -1.38487 0
M  V30 6403 H 618.794 -2.52663 -1.52464 0
M  V30 6404 H 618.875 -2.54645 0.242805 0
M  V30 6405 H 618.519 -5.07472 0.2085 0
M  V30 6406 H 618.449 -5.02621 -1.57098 0
M  V30 6407 H 620.94 -3.70669 -0.735717 0
M  V30 6408 H 621.253 -7.67701 -0.886279 0
M  V30 6409 H 619.598 -6.90334 -0.803958 0
M  V30 6410 H 622.789 -4.60709 -0.828535 0
M  V30 6411 H 622.962 -6.41756 -0.897418 0
M  V30 6412 N 616.368 0.432326 -1.51554 0
M  V30 6413 C 617.614 1.18309 -1.64714 0
M  V30 6414 C 617.947 1.90745 -0.364696 0
M  V30 6415 O 617.222 1.8381 0.635936 0
M  V30 6416 C 617.505 2.1961 -2.85383 0
M  V30 6417 C 617.358 1.51223 -4.23617 0
M  V30 6418 C 618.677 3.20538 -3.01569 0
M  V30 6419 H 615.796 0.428751 -0.599451 0
M  V30 6420 H 618.438 0.471689 -1.84052 0
M  V30 6421 H 616.588 2.8028 -2.69027 0
M  V30 6422 H 618.26 0.938516 -4.51652 0
M  V30 6423 H 616.503 0.814501 -4.26085 0
M  V30 6424 H 617.174 2.25024 -5.04052 0
M  V30 6425 H 619.65 2.69926 -3.16669 0
M  V30 6426 H 618.526 3.88706 -3.87555 0
M  V30 6427 H 618.787 3.86933 -2.13859 0
M  V30 6428 N 617.846 1.41785 0.688094 0
M  V30 6429 C 618.778 1.40159 1.81351 0
M  V30 6430 C 619.791 0.30262 1.59963 0
M  V30 6431 O 620.98 0.564841 1.69327 0
M  V30 6432 C 618.08 1.16517 3.1824 0
M  V30 6433 C 617.253 2.38597 3.66593 0
M  V30 6434 C 616.312 2.10699 4.82174 0
M  V30 6435 O 615.338 2.83798 4.93404 0
M  V30 6436 N 616.54 1.10187 5.69947 0
M  V30 6437 H 619.305 2.3716 1.83236 0
M  V30 6438 H 616.866 1.36494 0.870697 0
M  V30 6439 H 618.858 0.957941 3.93199 0
M  V30 6440 H 617.428 0.280873 3.11336 0
M  V30 6441 H 616.648 2.74974 2.82459 0
M  V30 6442 H 617.936 3.19919 3.95638 0
M  V30 6443 H 617.334 0.497016 5.63512 0
M  V30 6444 H 615.891 0.954518 6.44773 0
M  V30 6445 N 619.324 -0.923095 1.27737 0
M  V30 6446 C 620.254 -2.04124 1.13383 0
M  V30 6447 C 621.235 -1.70066 0.0340658 0
M  V30 6448 O 622.42 -1.93068 0.209383 0
M  V30 6449 C 619.55 -3.3831 0.785097 0
M  V30 6450 C 618.504 -3.86496 1.8386 0
M  V30 6451 C 617.83 -5.1754 1.34373 0
M  V30 6452 C 619.13 -4.09381 3.24353 0
M  V30 6453 H 620.824 -2.1639 2.06919 0
M  V30 6454 H 618.37 -1.03976 0.996243 0
M  V30 6455 H 620.323 -4.16016 0.671485 0
M  V30 6456 H 619.047 -3.2607 -0.185969 0
M  V30 6457 H 617.706 -3.10987 1.9412 0
M  V30 6458 H 617.354 -5.01696 0.361989 0
M  V30 6459 H 617.054 -5.50751 2.04811 0
M  V30 6460 H 618.578 -5.97811 1.24315 0
M  V30 6461 H 619.992 -4.77641 3.17067 0
M  V30 6462 H 618.389 -4.53906 3.92542 0
M  V30 6463 H 619.459 -3.14515 3.69064 0
M  V30 6464 N 620.802 -1.09834 -1.13024 0
M  V30 6465 C 622.213 -0.855651 -1.65938 0
M  V30 6466 C 622.564 0.615159 -1.86307 0
M  V30 6467 O 621.689 1.47335 -1.58497 0
M  V30 6468 C 622.284 -1.5467 -3.01434 0
M  V30 6469 C 620.843 -1.35088 -3.51323 0
M  V30 6470 C 619.99 -1.6001 -2.26478 0
M  V30 6471 H 622.941 -1.25691 -0.968889 0
M  V30 6472 H 622.962 -0.982179 -3.67605 0
M  V30 6473 H 622.474 -2.61715 -2.86578 0
M  V30 6474 H 620.575 -0.30179 -3.71376 0
M  V30 6475 H 620.688 -2.0886 -4.31178 0
M  V30 6476 H 619.052 -1.02246 -2.33276 0
M  V30 6477 H 619.835 -2.68293 -2.14182 0
M  V30 6478 N 622.28 1.30327 -0.886154 0
M  V30 6479 C 623.691 1.78243 -0.555554 0
M  V30 6480 C 624.042 1.72849 0.928314 0
M  V30 6481 O 623.167 1.30607 1.72542 0
M  V30 6482 C 623.762 3.23654 -1.00168 0
M  V30 6483 C 622.321 3.69401 -0.722471 0
M  V30 6484 C 621.468 2.50753 -1.18399 0
M  V30 6485 H 624.419 1.1718 -1.07026 0
M  V30 6486 H 624.44 3.79056 -0.331152 0
M  V30 6487 H 623.952 3.27548 -2.08169 0
M  V30 6488 H 622.053 3.70995 0.345496 0
M  V30 6489 H 622.166 4.60818 -1.31085 0
M  V30 6490 H 620.53 2.47452 -0.603303 0
M  V30 6491 H 621.313 2.57383 -2.27176 0
M  V30 6492 N 623.758 0.647228 1.43697 0
M  V30 6493 C 625.174 0.314256 1.56476 0
M  V30 6494 C 625.374 -1.18191 1.63196 0
M  V30 6495 O 624.43 -1.96655 1.58376 0
M  V30 6496 C 625.743 1.02034 2.82859 0
M  V30 6497 C 627.291 1.00002 2.96595 0
M  V30 6498 C 627.766 1.68689 4.25803 0
M  V30 6499 N 629.257 1.65424 4.32654 0
M  V30 6500 C 629.992 2.1545 5.31384 0
M  V30 6501 N 629.488 2.73738 6.36427 0
M  V30 6502 N 631.281 2.05985 5.22998 0
M  V30 6503 H 623.432 1.61821 1.37578 0
M  V30 6504 H 625.695 0.680184 0.660344 0
M  V30 6505 H 625.401 2.07542 2.83935 0
M  V30 6506 H 625.275 0.568146 3.72897 0
M  V30 6507 H 627.662 -0.0466319 2.95063 0
M  V30 6508 H 627.743 1.49086 2.07863 0
M  V30 6509 H 627.387 2.73308 4.28095 0
M  V30 6510 H 627.317 1.17076 5.13421 0
M  V30 6511 H 629.808 1.22884 3.57363 0
M  V30 6512 H 630.121 3.09602 7.08072 0
M  V30 6513 H 628.466 2.77796 6.37067 0
M  V30 6514 H 631.657 1.60157 4.39849 0
M  V30 6515 H 631.83 2.45281 5.99784 0
M  V30 6516 N 625.236 -1.5273 0.388769 0
M  V30 6517 C 626.199 -2.25043 -0.434544 0
M  V30 6518 C 627.199 -1.26661 -0.990644 0
M  V30 6519 O 628.389 -1.50762 -0.872731 0
M  V30 6520 C 625.521 -3.00507 -1.60961 0
M  V30 6521 H 626.714 -2.99242 0.198549 0
M  V30 6522 H 624.267 -1.55664 0.140875 0
M  V30 6523 H 625.002 -2.30607 -2.28015 0
M  V30 6524 H 624.787 -3.72716 -1.21757 0
M  V30 6525 H 626.277 -3.55413 -2.19251 0
M  V30 6526 N 626.714 -0.118576 -1.57153 0
M  V30 6527 C 627.96 0.540326 -1.95469 0
M  V30 6528 C 628.293 1.66356 -1.00196 0
M  V30 6529 O 627.568 1.94461 -0.039104 0
M  V30 6530 C 627.851 1.07342 -3.43729 0
M  V30 6531 C 627.704 -0.0463732 -4.49776 0
M  V30 6532 C 629.023 1.96442 -3.93826 0
M  V30 6533 H 626.142 0.19494 -0.710751 0
M  V30 6534 H 628.784 -0.19405 -1.89006 0
M  V30 6535 H 626.934 1.69925 -3.49368 0
M  V30 6536 H 628.606 -0.681648 -4.56236 0
M  V30 6537 H 626.849 -0.709574 -4.27957 0
M  V30 6538 H 627.52 0.367856 -5.50773 0
M  V30 6539 H 629.996 1.43731 -3.90488 0
M  V30 6540 H 628.872 2.3066 -4.98084 0
M  V30 6541 H 629.133 2.89077 -3.34495 0
M  V30 6542 N 628.193 1.56834 0.155195 0
M  V30 6543 C 629.103 2.009 1.21146 0
M  V30 6544 C 630.119 0.923029 1.475 0
M  V30 6545 O 631.295 1.23189 1.59331 0
M  V30 6546 C 628.36 2.37378 2.52691 0
M  V30 6547 C 627.421 3.59883 2.34057 0
M  V30 6548 C 626.654 3.94612 3.59329 0
M  V30 6549 O 626.877 3.30104 4.65175 0
M  V30 6550 O 625.811 4.87895 3.52479 0
M  V30 6551 H 629.637 2.9105 0.867371 0
M  V30 6552 H 627.222 1.44916 0.363298 0
M  V30 6553 H 629.104 2.61737 3.3026 0
M  V30 6554 H 627.779 1.50385 2.86646 0
M  V30 6555 H 626.686 3.40722 1.54465 0
M  V30 6556 H 628.019 4.47468 2.0502 0
M  V30 6557 N 629.671 -0.424282 1.51781 0
M  V30 6558 C 631.087 -0.761768 1.40247 0
M  V30 6559 C 631.287 -1.95324 0.495041 0
M  V30 6560 O 630.343 -2.5246 -0.0448949 0
M  V30 6561 C 631.656 -1.0299 2.82513 0
M  V30 6562 C 633.204 -1.13354 2.91753 0
M  V30 6563 C 633.679 -1.43453 4.34954 0
M  V30 6564 N 635.17 -1.5035 4.3812 0
M  V30 6565 C 635.905 -1.75236 5.45967 0
M  V30 6566 N 635.401 -1.97827 6.63955 0
M  V30 6567 N 637.194 -1.77126 5.33463 0
M  V30 6568 H 629.345 0.360228 2.09323 0
M  V30 6569 H 631.608 0.0988128 0.942836 0
M  V30 6570 H 631.314 -0.226961 3.50967 0
M  V30 6571 H 631.188 -1.95411 3.22637 0
M  V30 6572 H 633.575 -1.92709 2.23489 0
M  V30 6573 H 633.656 -0.188041 2.55108 0
M  V30 6574 H 633.3 -0.646209 5.03772 0
M  V30 6575 H 633.23 -2.3923 4.69123 0
M  V30 6576 H 635.721 -1.34742 3.53062 0
M  V30 6577 H 636.034 -2.16223 7.41935 0
M  V30 6578 H 634.379 -1.95123 6.67047 0
M  V30 6579 H 637.57 -1.59005 4.40267 0
M  V30 6580 H 637.743 -1.96182 6.17589 0
M  V30 6581 N 631.149 -1.42148 -0.680565 0
M  V30 6582 C 632.112 -1.4488 -1.77602 0
M  V30 6583 C 633.112 -0.337209 -1.57224 0
M  V30 6584 O 634.302 -0.597778 -1.63622 0
M  V30 6585 C 631.434 -1.27483 -3.16166 0
M  V30 6586 H 632.627 -2.42412 -1.76568 0
M  V30 6587 H 630.18 -1.28511 -0.889645 0
M  V30 6588 H 630.915 -0.30851 -3.22829 0
M  V30 6589 H 630.7 -2.08037 -3.3236 0
M  V30 6590 H 632.19 -1.32265 -3.96101 0
M  V30 6591 N 632.627 0.916307 -1.28225 0
M  V30 6592 C 633.559 2.02303 -1.07732 0
M  V30 6593 C 634.572 1.62773 -0.0298421 0
M  V30 6594 O 635.761 1.76406 -0.272626 0
M  V30 6595 C 632.861 3.33282 -0.614504 0
M  V30 6596 C 632.034 4.01439 -1.73682 0
M  V30 6597 C 631.093 5.10698 -1.26781 0
M  V30 6598 O 630.119 5.34038 -1.96958 0
M  V30 6599 N 631.321 5.80355 -0.129624 0
M  V30 6600 H 634.086 2.20442 -2.03041 0
M  V30 6601 H 631.647 1.08744 -1.19943 0
M  V30 6602 H 633.639 4.03699 -0.284397 0
M  V30 6603 H 632.209 3.11633 0.245664 0
M  V30 6604 H 631.429 3.24604 -2.23665 0
M  V30 6605 H 632.717 4.43721 -2.48976 0
M  V30 6606 H 632.115 5.6386 0.455847 0
M  V30 6607 H 630.672 6.51647 0.141224 0
M  V30 6608 N 634.105 1.10431 1.1244 0
M  V30 6609 C 635.015 0.765502 2.21759 0
M  V30 6610 C 636.031 -0.236966 1.72379 0
M  V30 6611 O 637.207 -0.0757329 2.01258 0
M  V30 6612 C 634.272 0.202316 3.46109 0
M  V30 6613 C 633.333 1.26205 4.1033 0
M  V30 6614 C 632.566 0.725648 5.28744 0
M  V30 6615 O 632.789 -0.447942 5.68638 0
M  V30 6616 O 631.723 1.48555 5.83279 0
M  V30 6617 H 635.549 1.67801 2.53133 0
M  V30 6618 H 633.134 0.879443 1.20773 0
M  V30 6619 H 635.016 -0.107918 4.21262 0
M  V30 6620 H 633.691 -0.683052 3.16411 0
M  V30 6621 H 632.598 1.62514 3.36957 0
M  V30 6622 H 633.931 2.12044 4.44183 0
M  V30 6623 N 635.583 -1.29855 0.893053 0
M  V30 6624 C 636.513 -2.3035 0.382249 0
M  V30 6625 C 637.494 -1.61328 -0.539203 0
M  V30 6626 O 638.679 -1.88882 -0.451342 0
M  V30 6627 C 635.809 -3.45024 -0.396983 0
M  V30 6628 C 634.763 -4.258 0.433437 0
M  V30 6629 C 634.089 -5.32605 -0.472889 0
M  V30 6630 C 635.389 -4.94549 1.67984 0
M  V30 6631 H 637.083 -2.73325 1.22205 0
M  V30 6632 H 634.629 -1.314 0.589073 0
M  V30 6633 H 636.582 -4.14398 -0.765024 0
M  V30 6634 H 635.306 -3.00875 -1.2705 0
M  V30 6635 H 633.965 -3.58125 0.783723 0
M  V30 6636 H 633.613 -4.84702 -1.34435 0
M  V30 6637 H 633.313 -5.87547 0.0789958 0
M  V30 6638 H 634.837 -6.04832 -0.837269 0
M  V30 6639 H 636.251 -5.56395 1.38192 0
M  V30 6640 H 634.648 -5.59393 2.17254 0
M  V30 6641 H 635.718 -4.20215 2.41965 0
M  V30 6642 N 637.061 -0.65484 -1.43351 0
M  V30 6643 C 638.309 -0.168559 -2.01396 0
M  V30 6644 C 638.63 1.22235 -1.51933 0
M  V30 6645 O 637.9 1.81685 -0.732627 0
M  V30 6646 H 636.48 -0.0593244 -0.744641 0
M  V30 6647 H 639.142 -0.846871 -1.75539 0
M  V30 6648 H 638.238 -0.154428 -3.11718 0
M  V30 6649 N 638.539 1.52521 -0.396863 0
M  V30 6650 C 639.469 2.29582 0.425941 0
M  V30 6651 C 640.45 1.33281 1.05689 0
M  V30 6652 O 641.635 1.62181 1.06823 0
M  V30 6653 C 638.765 3.10821 1.54943 0
M  V30 6654 C 637.719 4.15069 1.04413 0
M  V30 6655 C 637.045 4.84578 2.26028 0
M  V30 6656 C 638.345 5.22191 0.106767 0
M  V30 6657 H 640.039 2.98612 -0.217045 0
M  V30 6658 H 637.585 1.43611 -0.105826 0
M  V30 6659 H 639.538 3.63492 2.13193 0
M  V30 6660 H 638.262 2.39538 2.22011 0
M  V30 6661 H 636.921 3.63389 0.484118 0
M  V30 6662 H 636.569 4.09835 2.91623 0
M  V30 6663 H 636.269 5.55043 1.92876 0
M  V30 6664 H 637.793 5.40056 2.84906 0
M  V30 6665 H 639.207 5.70176 0.597685 0
M  V30 6666 H 637.604 5.99947 -0.135352 0
M  V30 6667 H 638.674 4.77531 -0.842134 0
M  V30 6668 N 640.017 0.126909 1.57088 0
M  V30 6669 C 640.98 -0.806097 2.14557 0
M  V30 6670 C 641.98 -1.18918 1.08236 0
M  V30 6671 O 643.17 -1.11339 1.33975 0
M  V30 6672 C 640.302 -2.09116 2.69227 0
M  V30 6673 H 641.495 -0.306522 2.98329 0
M  V30 6674 H 639.048 -0.122393 1.5582 0
M  V30 6675 H 639.783 -2.63486 1.89065 0
M  V30 6676 H 639.568 -1.82588 3.46993 0
M  V30 6677 H 641.058 -2.75794 3.13572 0
M  V30 6678 N 641.495 -1.56914 -0.146875 0
M  V30 6679 C 642.906 -1.72799 -0.706928 0
M  V30 6680 C 643.257 -0.741329 -1.81656 0
M  V30 6681 O 642.382 0.0920162 -2.16204 0
M  V30 6682 C 642.977 -3.13317 -1.28911 0
M  V30 6683 C 641.536 -3.30803 -1.79573 0
M  V30 6684 C 640.683 -2.68725 -0.684252 0
M  V30 6685 H 643.634 -1.58504 0.0787931 0
M  V30 6686 H 643.655 -3.13323 -2.15891 0
M  V30 6687 H 643.167 -3.85104 -0.481284 0
M  V30 6688 H 641.268 -2.64012 -2.62923 0
M  V30 6689 H 641.381 -4.38754 -1.92436 0
M  V30 6690 H 639.745 -2.29196 -1.11091 0
M  V30 6691 H 640.528 -3.43117 0.112134 0
M  V30 6692 N 642.974 0.416227 -1.52004 0
M  V30 6693 C 644.251 1.17637 -1.56272 0
M  V30 6694 C 644.631 2.08352 -0.339493 0
M  V30 6695 O 643.979 2.1833 0.674124 0
M  V30 6696 C 644.189 1.95986 -2.88774 0
M  V30 6697 C 645.537 2.52299 -3.41512 0
M  V30 6698 O 646.561 2.06174 -2.90467 0
M  V30 6699 O 645.42 3.3648 -4.30631 0
M  V30 6700 H 642.514 0.536726 -0.629169 0
M  V30 6701 H 645.06 0.423583 -1.64329 0
M  V30 6702 H 643.832 1.29487 -3.69254 0
M  V30 6703 H 643.455 2.78285 -2.83978 0
M  V30 6704 N 644.452 1.42507 0.673017 0
M  V30 6705 C 645.385 1.40557 1.79774 0
M  V30 6706 C 646.363 0.269606 1.60349 0
M  V30 6707 O 647.547 0.460105 1.82798 0
M  V30 6708 C 644.674 1.19815 3.168 0
M  V30 6709 C 643.72 2.36429 3.5497 0
M  V30 6710 S 644.553 3.98963 3.57196 0
M  V30 6711 C 645.709 3.80567 4.9691 0
M  V30 6712 H 645.942 2.35734 1.81154 0
M  V30 6713 H 643.475 1.293 0.843846 0
M  V30 6714 H 645.433 1.08535 3.95892 0
M  V30 6715 H 644.094 0.262215 3.13004 0
M  V30 6716 H 643.287 2.17669 4.54573 0
M  V30 6717 H 642.889 2.44233 2.83242 0
M  V30 6718 H 645.181 3.41668 5.85038 0
M  V30 6719 H 646.124 4.79852 5.20718 0
M  V30 6720 H 646.532 3.13399 4.69512 0
M  V30 6721 N 645.93 -0.909495 1.28709 0
M  V30 6722 C 647.177 -1.65905 1.16111 0
M  V30 6723 C 647.505 -1.92334 -0.289436 0
M  V30 6724 O 646.76 -1.52495 -1.22653 0
M  V30 6725 C 647.059 -3.02117 1.90945 0
M  V30 6726 C 646.725 -2.95332 3.40719 0
M  V30 6727 C 645.387 -2.93189 3.81567 0
M  V30 6728 C 647.739 -2.85264 4.36204 0
M  V30 6729 C 645.067 -2.78784 5.16233 0
M  V30 6730 C 647.419 -2.724 5.70948 0
M  V30 6731 C 646.083 -2.68617 6.11066 0
M  V30 6732 H 645.353 -0.60709 0.42488 0
M  V30 6733 H 648 -1.05932 1.59533 0
M  V30 6734 H 646.305 -3.65901 1.40085 0
M  V30 6735 H 648.002 -3.59026 1.7861 0
M  V30 6736 H 644.592 -2.97797 3.08245 0
M  V30 6737 H 648.776 -2.86005 4.05605 0
M  V30 6738 H 644.032 -2.74254 5.46438 0
M  V30 6739 H 648.206 -2.63579 6.44592 0
M  V30 6740 H 645.833 -2.57213 7.15364 0
M  V30 6741 N 647.408 -1.11026 -1.11852 0
M  V30 6742 C 648.655 -0.85646 -1.83497 0
M  V30 6743 C 648.983 0.617938 -1.84423 0
M  V30 6744 O 648.238 1.47194 -1.28966 0
M  V30 6745 C 648.537 -1.35777 -3.30604 0
M  V30 6746 C 648.203 -2.84465 -3.49843 0
M  V30 6747 C 646.865 -3.25068 -3.54802 0
M  V30 6748 C 649.217 -3.80251 -3.56453 0
M  V30 6749 C 646.545 -4.60194 -3.63921 0
M  V30 6750 C 648.897 -5.15188 -3.67102 0
M  V30 6751 C 647.561 -5.55356 -3.70319 0
M  V30 6752 H 646.831 -0.313401 -0.671462 0
M  V30 6753 H 649.478 -1.38792 -1.31943 0
M  V30 6754 H 647.783 -0.746455 -3.84624 0
M  V30 6755 H 649.48 -1.13779 -3.8452 0
M  V30 6756 H 646.07 -2.52054 -3.46651 0
M  V30 6757 H 650.254 -3.49986 -3.51886 0
M  V30 6758 H 645.51 -4.90728 -3.64686 0
M  V30 6759 H 649.684 -5.89248 -3.71159 0
M  V30 6760 H 647.311 -6.60054 -3.77138 0
M  V30 6761 N 648.886 1.2938 -0.899927 0
M  V30 6762 C 650.126 1.97332 -0.532871 0
M  V30 6763 C 650.49 1.69385 0.904029 0
M  V30 6764 O 651.691 2.30793 1.37797 0
M  V30 6765 C 649.962 3.47927 -0.817393 0
M  V30 6766 S 651.521 4.3528 -0.55468 0
M  V30 6767 H 648.339 0.682966 -0.197683 0
M  V30 6768 H 650.941 1.57189 -1.16241 0
M  V30 6769 H 649.645 3.65761 -1.86138 0
M  V30 6770 H 649.176 3.93006 -0.175978 0
M  V30 6771 H 651.191 4.92557 0.600182 0
M  V30 6772 N 650.364 0.662433 1.43002 0
M  V30 6773 C 651.294 -0.00979809 2.33498 0
M  V30 6774 C 652.275 -0.802329 1.49989 0
M  V30 6775 O 653.46 -0.761964 1.78627 0
M  V30 6776 C 650.59 -0.970446 3.33466 0
M  V30 6777 C 649.544 -0.287383 4.27034 0
M  V30 6778 C 648.87 -1.36012 5.17112 0
M  V30 6779 C 650.17 0.82595 5.15728 0
M  V30 6780 H 651.864 0.745959 2.89958 0
M  V30 6781 H 649.41 0.360172 1.39423 0
M  V30 6782 H 651.363 -1.44971 3.95679 0
M  V30 6783 H 650.087 -1.75748 2.75282 0
M  V30 6784 H 648.746 0.17152 3.66199 0
M  V30 6785 H 648.394 -2.13882 4.55262 0
M  V30 6786 H 648.094 -0.908276 5.80538 0
M  V30 6787 H 649.618 -1.84056 5.82199 0
M  V30 6788 H 651.032 0.42845 5.71697 0
M  V30 6789 H 649.429 1.20282 5.87922 0
M  V30 6790 H 650.499 1.68003 4.54866 0
M  V30 6791 N 651.842 -1.52309 0.404946 0
M  V30 6792 C 653.258 -1.59503 0.0556255 0
M  V30 6793 C 653.458 -1.41805 -1.43156 0
M  V30 6794 O 652.514 -1.2429 -2.19792 0
M  V30 6795 C 653.827 -2.95687 0.546801 0
M  V30 6796 C 655.375 -3.08909 0.504413 0
M  V30 6797 C 655.85 -4.47566 0.97203 0
M  V30 6798 N 657.341 -4.53795 0.928679 0
M  V30 6799 C 658.076 -5.59346 1.26174 0
M  V30 6800 N 657.572 -6.72469 1.66604 0
M  V30 6801 N 659.365 -5.49532 1.18198 0
M  V30 6802 H 651.516 -1.6206 1.37296 0
M  V30 6803 H 653.779 -0.762161 0.563751 0
M  V30 6804 H 653.485 -3.13905 1.58609 0
M  V30 6805 H 653.359 -3.77172 -0.0457905 0
M  V30 6806 H 655.746 -2.90378 -0.525819 0
M  V30 6807 H 655.827 -2.2934 1.13301 0
M  V30 6808 H 655.471 -4.6684 2.00057 0
M  V30 6809 H 655.401 -5.25625 0.320292 0
M  V30 6810 H 657.892 -3.72588 0.631369 0
M  V30 6811 H 658.205 -7.48993 1.9034 0
M  V30 6812 H 656.55 -6.73761 1.70504 0
M  V30 6813 H 659.741 -4.60038 0.865011 0
M  V30 6814 H 659.914 -6.31687 1.44485 0
M  V30 6815 N 653.32 -0.135238 -1.57019 0
M  V30 6816 C 654.25 0.805235 -2.19176 0
M  V30 6817 C 655.231 1.2656 -1.13651 0
M  V30 6818 O 656.416 1.32528 -1.4195 0
M  V30 6819 C 653.546 2.04914 -2.80406 0
M  V30 6820 C 652.5 1.72598 -3.91655 0
M  V30 6821 C 651.826 3.04154 -4.39766 0
M  V30 6822 C 653.126 0.981709 -5.12991 0
M  V30 6823 H 654.82 0.287232 -2.98019 0
M  V30 6824 H 652.366 0.136714 -1.4335 0
M  V30 6825 H 654.319 2.71178 -3.22553 0
M  V30 6826 H 653.043 2.59067 -1.98877 0
M  V30 6827 H 651.702 1.08717 -3.50109 0
M  V30 6828 H 651.35 3.56274 -3.55075 0
M  V30 6829 H 651.05 2.83299 -5.14796 0
M  V30 6830 H 652.574 3.71509 -4.84576 0
M  V30 6831 H 653.988 1.5462 -5.52056 0
M  V30 6832 H 652.385 0.873533 -5.93708 0
M  V30 6833 H 653.455 -0.0286887 -4.84892 0
M  V30 6834 N 654.798 1.5699 0.138552 0
M  V30 6835 C 655.728 2.01933 1.17241 0
M  V30 6836 C 656.709 0.90033 1.44319 0
M  V30 6837 O 657.894 1.16872 1.55095 0
M  V30 6838 C 655.024 2.40711 2.50351 0
M  V30 6839 C 653.978 3.55874 2.37776 0
M  V30 6840 C 653.304 3.80491 3.75674 0
M  V30 6841 C 654.604 4.8826 1.85472 0
M  V30 6842 H 656.298 2.88551 0.798672 0
M  V30 6843 H 653.844 1.3882 0.382743 0
M  V30 6844 H 655.797 2.70754 3.22909 0
M  V30 6845 H 654.521 1.5104 2.89576 0
M  V30 6846 H 653.18 3.2601 1.67669 0
M  V30 6847 H 652.828 2.88057 4.12349 0
M  V30 6848 H 652.528 4.57998 3.68119 0
M  V30 6849 H 654.052 4.12967 4.49767 0
M  V30 6850 H 655.466 5.16965 2.4783 0
M  V30 6851 H 653.863 5.69631 1.88787 0
M  V30 6852 H 654.933 4.78071 0.810935 0
M  V30 6853 N 656.276 -0.40816 1.52223 0
M  V30 6854 C 657.186 -1.52202 1.78526 0
M  V30 6855 C 658.202 -1.60546 0.670892 0
M  V30 6856 O 659.378 -1.77242 0.956404 0
M  V30 6857 C 656.443 -2.87928 1.93128 0
M  V30 6858 C 655.504 -2.89463 3.17033 0
M  V30 6859 C 654.737 -4.18715 3.30929 0
M  V30 6860 O 654.96 -5.12662 2.50067 0
M  V30 6861 O 653.894 -4.27125 4.24084 0
M  V30 6862 H 657.72 -1.32911 2.73072 0
M  V30 6863 H 655.305 -0.594112 1.37079 0
M  V30 6864 H 657.187 -3.68426 2.04549 0
M  V30 6865 H 655.862 -3.07285 1.01772 0
M  V30 6866 H 654.769 -2.07815 3.11069 0
M  V30 6867 H 656.102 -2.75055 4.08174 0
M  V30 6868 N 657.755 -1.42862 -0.66545 0
M  V30 6869 C 658.665 -1.49491 -1.80803 0
M  V30 6870 C 659.681 -0.382914 -1.69734 0
M  V30 6871 O 660.857 -0.635223 -1.9112 0
M  V30 6872 C 657.922 -1.40383 -3.17007 0
M  V30 6873 C 656.983 -2.62152 -3.39963 0
M  V30 6874 C 656.216 -2.53469 -4.69669 0
M  V30 6875 O 656.439 -1.57568 -5.48205 0
M  V30 6876 O 655.373 -3.43763 -4.94075 0
M  V30 6877 H 659.199 -2.45949 -1.78165 0
M  V30 6878 H 656.784 -1.24728 -0.822387 0
M  V30 6879 H 658.666 -1.377 -3.98267 0
M  V30 6880 H 657.341 -0.470546 -3.20262 0
M  V30 6881 H 656.248 -2.70409 -2.58515 0
M  V30 6882 H 657.581 -3.54411 -3.41546 0
M  V30 6883 N 659.233 0.902656 -1.29189 0
M  V30 6884 C 660.461 1.68639 -1.19869 0
M  V30 6885 C 660.876 1.87254 0.241121 0
M  V30 6886 O 660.233 1.40745 1.16177 0
M  V30 6887 C 660.284 3.07251 -1.90471 0
M  V30 6888 O 660.005 2.89488 -3.28829 0
M  V30 6889 C 661.506 4.01653 -1.8759 0
M  V30 6890 H 658.726 0.526802 -0.415596 0
M  V30 6891 H 661.27 1.12901 -1.7051 0
M  V30 6892 H 659.425 3.59774 -1.43672 0
M  V30 6893 H 659.839 3.77296 -3.64346 0
M  V30 6894 H 661.313 4.96339 -2.4156 0
M  V30 6895 H 661.79 4.30881 -0.850756 0
M  V30 6896 H 662.396 3.55061 -2.34119 0
M  V30 6897 N 660.711 1.11618 1.11262 0
M  V30 6898 C 661.959 0.864469 1.82678 0
M  V30 6899 C 662.28 -0.611564 1.85162 0
M  V30 6900 O 661.55 -1.44429 1.32352 0
M  V30 6901 H 660.13 0.316821 0.676486 0
M  V30 6902 H 662.792 1.40894 1.34666 0
M  V30 6903 H 661.888 1.23832 2.86482 0
M  V30 6904 N 662.189 -1.289 0.906776 0
M  V30 6905 C 663.438 -1.9455 0.532262 0
M  V30 6906 C 663.751 -1.72219 -0.927353 0
M  V30 6907 O 664.957 -2.32033 -1.40971 0
M  V30 6908 C 663.413 -3.48438 0.901041 0
M  V30 6909 C 663.021 -3.79558 2.37991 0
M  V30 6910 C 664.765 -4.20284 0.596777 0
M  V30 6911 C 662.672 -5.26723 2.68918 0
M  V30 6912 H 661.602 -0.728259 0.195333 0
M  V30 6913 H 664.253 -1.46519 1.10474 0
M  V30 6914 H 662.635 -3.95162 0.257419 0
M  V30 6915 H 663.809 -3.43668 3.06967 0
M  V30 6916 H 662.124 -3.20868 2.65391 0
M  V30 6917 H 664.721 -5.28612 0.8046 0
M  V30 6918 H 665.064 -4.13694 -0.465072 0
M  V30 6919 H 665.597 -3.79315 1.19855 0
M  V30 6920 H 662.336 -5.38384 3.73928 0
M  V30 6921 H 661.856 -5.63836 2.04571 0
M  V30 6922 H 663.535 -5.94391 2.55555 0
M  V30 6923 N 663.667 -0.670007 -1.42649 0
M  V30 6924 C 664.907 -0.194106 -2.03476 0
M  V30 6925 C 665.271 1.1755 -1.51809 0
M  V30 6926 O 666.472 1.74579 -2.04391 0
M  V30 6927 C 664.743 -0.221828 -3.56711 0
M  V30 6928 S 666.302 0.183772 -4.38415 0
M  V30 6929 H 663.12 -0.0802478 -0.706457 0
M  V30 6930 H 665.722 -0.882092 -1.74469 0
M  V30 6931 H 664.426 -1.22107 -3.91814 0
M  V30 6932 H 663.957 0.486149 -3.90385 0
M  V30 6933 H 665.972 1.41839 -4.75496 0
M  V30 6934 N 665.145 1.52092 -0.413018 0
M  V30 6935 C 666.391 2.02154 0.161737 0
M  V30 6936 C 666.724 1.29789 1.44459 0
M  V30 6937 O 665.999 0.405378 1.90229 0
M  V30 6938 C 666.282 3.5781 0.405463 0
M  V30 6939 C 666.135 4.40819 -0.894335 0
M  V30 6940 C 667.454 4.23821 1.18591 0
M  V30 6941 H 664.573 0.734769 0.0573077 0
M  V30 6942 H 667.215 1.81948 -0.547247 0
M  V30 6943 H 665.365 3.75158 1.0094 0
M  V30 6944 H 667.037 4.35175 -1.53039 0
M  V30 6945 H 665.28 4.06877 -1.50444 0
M  V30 6946 H 665.951 5.47819 -0.678144 0
M  V30 6947 H 668.427 4.10596 0.674573 0
M  V30 6948 H 667.303 5.32663 1.3252 0
M  V30 6949 H 667.564 3.83038 2.20758 0
M  V30 6950 N 666.623 0.143563 1.56945 0
M  V30 6951 C 667.869 -0.50916 1.96304 0
M  V30 6952 C 668.202 -1.64741 1.0283 0
M  V30 6953 O 667.477 -1.94374 0.0700361 0
M  V30 6954 C 667.76 -1.0186 3.45393 0
M  V30 6955 C 667.613 0.117923 4.49645 0
M  V30 6956 C 668.932 -1.90151 3.96901 0
M  V30 6957 H 666.051 -0.183608 0.713763 0
M  V30 6958 H 668.693 0.224095 1.88674 0
M  V30 6959 H 666.843 -1.64345 3.52027 0
M  V30 6960 H 668.515 0.754145 4.55094 0
M  V30 6961 H 666.758 0.777568 4.26774 0
M  V30 6962 H 667.429 -0.280187 5.51288 0
M  V30 6963 H 669.905 -1.375 3.92725 0
M  V30 6964 H 668.781 -2.22707 5.0169 0
M  V30 6965 H 669.042 -2.83718 3.39052 0
M  V30 6966 N 668.101 -1.57061 -0.130224 0
M  V30 6967 C 669.512 -1.73539 -0.68856 0
M  V30 6968 C 669.863 -0.760554 -1.80859 0
M  V30 6969 O 668.988 0.0690796 -2.1629 0
M  V30 6970 C 669.583 -3.14666 -1.25581 0
M  V30 6971 C 668.142 -3.32689 -1.76055 0
M  V30 6972 C 667.289 -2.69436 -0.655712 0
M  V30 6973 H 670.24 -1.58412 0.0956002 0
M  V30 6974 H 670.261 -3.15595 -2.12556 0
M  V30 6975 H 669.773 -3.85593 -0.440412 0
M  V30 6976 H 667.874 -2.66786 -2.60108 0
M  V30 6977 H 667.987 -4.4077 -1.87772 0
M  V30 6978 H 666.351 -2.30362 -1.08654 0
M  V30 6979 H 667.134 -3.42979 0.14852 0
M  V30 6980 N 669.579 0.400081 -1.52437 0
M  V30 6981 C 670.827 1.14392 -1.6661 0
M  V30 6982 C 671.148 1.90792 -0.402927 0
M  V30 6983 O 670.418 1.87042 0.582425 0
M  V30 6984 H 668.998 0.425275 -0.614125 0
M  V30 6985 H 671.66 0.455076 -1.89513 0
M  V30 6986 H 670.756 1.85298 -2.51139 0
M  V30 6987 N 671.057 1.43213 0.657864 0
M  V30 6988 C 672.282 1.48227 1.45064 0
M  V30 6989 C 672.707 0.0999939 1.87834 0
M  V30 6990 O 672.065 -0.905269 1.57081 0
M  V30 6991 C 672.113 2.42931 2.6649 0
M  V30 6992 O 671.217 1.91237 3.6538 0
M  V30 6993 H 670.558 0.501551 0.435135 0
M  V30 6994 H 673.088 1.8808 0.805431 0
M  V30 6995 H 673.098 2.6008 3.1436 0
M  V30 6996 H 671.773 3.43348 2.34701 0
M  V30 6997 H 670.35 1.83726 3.24498 0
M  V30 6998 N 672.536 -0.895792 1.29666 0
M  V30 6999 C 673.784 -1.64339 1.17631 0
M  V30 7000 C 674.105 -1.93099 -0.271643 0
M  V30 7001 O 673.375 -1.55981 -1.18518 0
M  V30 7002 H 671.955 -0.609162 0.432354 0
M  V30 7003 H 674.617 -1.07389 1.62646 0
M  V30 7004 H 673.713 -2.59815 1.72924 0
M  V30 7005 N 674.014 -1.12206 -1.10668 0
M  V30 7006 C 675.261 -0.875875 -1.82578 0
M  V30 7007 C 675.589 0.598342 -1.85068 0
M  V30 7008 O 674.844 1.45818 -1.3052 0
M  V30 7009 C 675.143 -1.39276 -3.29146 0
M  V30 7010 C 674.809 -2.8816 -3.46806 0
M  V30 7011 C 673.471 -3.28813 -3.51334 0
M  V30 7012 C 675.823 -3.8401 -3.52399 0
M  V30 7013 C 673.151 -4.64028 -3.59019 0
M  V30 7014 C 675.503 -5.19053 -3.61617 0
M  V30 7015 C 674.167 -5.59252 -3.64408 0
M  V30 7016 H 673.437 -0.320505 -0.6681 0
M  V30 7017 H 676.084 -1.40184 -1.30464 0
M  V30 7018 H 674.389 -0.787207 -3.8381 0
M  V30 7019 H 676.086 -1.17851 -3.83291 0
M  V30 7020 H 672.676 -2.55716 -3.43958 0
M  V30 7021 H 676.86 -3.53698 -3.48154 0
M  V30 7022 H 672.116 -4.94568 -3.59461 0
M  V30 7023 H 676.29 -5.93152 -3.64889 0
M  V30 7024 H 673.917 -6.64017 -3.70116 0
M  V30 7025 N 675.492 1.28418 -0.913599 0
M  V30 7026 C 676.74 1.94596 -0.545594 0
M  V30 7027 C 677.061 1.7227 0.913668 0
M  V30 7028 O 676.331 1.06233 1.64595 0
M  V30 7029 H 674.911 0.720065 -0.198783 0
M  V30 7030 H 677.573 1.56404 -1.16292 0
M  V30 7031 H 676.669 3.03202 -0.739911 0
M  V30 7032 N 676.97 0.677563 1.42291 0
M  V30 7033 C 677.902 -0.0380218 2.29168 0
M  V30 7034 C 678.915 -0.762714 1.43828 0
M  V30 7035 O 680.104 -0.616413 1.67519 0
M  V30 7036 C 677.204 -1.07761 3.21311 0
M  V30 7037 C 676.377 -0.42618 4.35319 0
M  V30 7038 C 675.436 -1.36592 5.08162 0
M  V30 7039 O 674.462 -0.865174 5.62586 0
M  V30 7040 N 675.664 -2.69909 5.13935 0
M  V30 7041 H 678.429 0.707766 2.91223 0
M  V30 7042 H 675.99 0.52219 1.53247 0
M  V30 7043 H 677.982 -1.70761 3.6691 0
M  V30 7044 H 676.552 -1.72511 2.60689 0
M  V30 7045 H 675.772 0.383385 3.92331 0
M  V30 7046 H 677.06 0.0275277 5.08793 0
M  V30 7047 H 676.458 -3.13129 4.71134 0
M  V30 7048 H 675.015 -3.2815 5.6317 0
M  V30 7049 N 678.448 -1.51871 0.421078 0
M  V30 7050 C 679.864 -1.59435 0.0725398 0
M  V30 7051 C 680.064 -1.43315 -1.41644 0
M  V30 7052 O 679.12 -1.26614 -2.18461 0
M  V30 7053 C 680.433 -2.9509 0.578132 0
M  V30 7054 C 681.981 -3.08356 0.537149 0
M  V30 7055 C 682.456 -4.4651 1.01945 0
M  V30 7056 N 683.947 -4.52784 0.976758 0
M  V30 7057 C 684.682 -5.57976 1.32099 0
M  V30 7058 N 684.178 -6.70664 1.73727 0
M  V30 7059 N 685.971 -5.48248 1.2402 0
M  V30 7060 H 678.122 -1.60595 1.39007 0
M  V30 7061 H 680.385 -0.756138 0.571803 0
M  V30 7062 H 680.091 -3.12205 1.61929 0
M  V30 7063 H 679.965 -3.772 -0.00578374 0
M  V30 7064 H 682.352 -2.90919 -0.494991 0
M  V30 7065 H 682.433 -2.28125 1.15727 0
M  V30 7066 H 682.077 -4.64692 2.04997 0
M  V30 7067 H 682.007 -5.25256 0.376023 0
M  V30 7068 H 684.498 -3.71898 0.670851 0
M  V30 7069 H 684.811 -7.46932 1.98274 0
M  V30 7070 H 683.156 -6.71914 1.77641 0
M  V30 7071 H 686.347 -4.59095 0.913756 0
M  V30 7072 H 686.52 -6.30119 1.51176 0
M  V30 7073 N 679.926 -0.151884 -1.56866 0
M  V30 7074 C 680.836 0.798876 -2.20579 0
M  V30 7075 C 681.852 1.268 -1.19154 0
M  V30 7076 O 683.028 1.32418 -1.51748 0
M  V30 7077 C 680.093 2.01861 -2.81874 0
M  V30 7078 C 679.154 1.59825 -3.9844 0
M  V30 7079 C 678.387 2.75984 -4.56802 0
M  V30 7080 O 678.61 3.92331 -4.14044 0
M  V30 7081 O 677.544 2.51175 -5.46987 0
M  V30 7082 H 681.37 0.2865 -3.02346 0
M  V30 7083 H 678.955 0.0753806 -1.4921 0
M  V30 7084 H 680.837 2.73235 -3.20813 0
M  V30 7085 H 679.512 2.52042 -2.03117 0
M  V30 7086 H 678.419 0.854601 -3.64208 0
M  V30 7087 H 679.752 1.14355 -4.78731 0
M  V30 7088 N 681.404 1.57128 0.121893 0
M  V30 7089 C 682.652 1.84335 0.828548 0
M  V30 7090 C 682.973 0.736632 1.80551 0
M  V30 7091 O 682.243 -0.23962 1.94429 0
M  V30 7092 H 680.823 0.680108 0.30897 0
M  V30 7093 H 683.485 1.9459 0.109906 0
M  V30 7094 H 682.581 2.80152 1.37554 0
M  V30 7095 N 682.882 -0.391992 1.52647 0
M  V30 7096 C 684.11 -1.1586 1.71418 0
M  V30 7097 C 684.525 -1.8381 0.431216 0
M  V30 7098 O 683.882 -1.7256 -0.594085 0
M  V30 7099 C 683.933 -2.20888 2.86165 0
M  V30 7100 O 683.654 -1.5571 4.09495 0
M  V30 7101 C 685.155 -3.103 3.1659 0
M  V30 7102 H 682.375 -0.347494 0.574011 0
M  V30 7103 H 684.919 -0.458972 1.99283 0
M  V30 7104 H 683.074 -2.86492 2.6077 0
M  V30 7105 H 683.488 -2.25474 4.73563 0
M  V30 7106 H 684.962 -3.8003 4.00351 0
M  V30 7107 H 685.439 -3.73639 2.30848 0
M  V30 7108 H 686.045 -2.50345 3.43813 0
M  V30 7109 N 684.36 -1.4356 -0.65026 0
M  V30 7110 C 685.59 -1.48563 -1.4357 0
M  V30 7111 C 685.998 -0.103041 -1.88919 0
M  V30 7112 O 685.341 0.897602 -1.60277 0
M  V30 7113 C 685.403 -2.37181 -2.70158 0
M  V30 7114 C 685.067 -3.84673 -2.4673 0
M  V30 7115 C 686.064 -4.75704 -2.09765 0
M  V30 7116 C 683.749 -4.29189 -2.60963 0
M  V30 7117 C 685.743 -6.09249 -1.87334 0
M  V30 7118 C 683.43 -5.62787 -2.38147 0
M  V30 7119 C 684.428 -6.52634 -2.01389 0
M  V30 7120 O 684.116 -7.83761 -1.78813 0
M  V30 7121 H 683.848 -0.506743 -0.447423 0
M  V30 7122 H 686.402 -1.89001 -0.80423 0
M  V30 7123 H 684.632 -1.91636 -3.35876 0
M  V30 7124 H 686.321 -2.33354 -3.32116 0
M  V30 7125 H 687.087 -4.42589 -1.98343 0
M  V30 7126 H 682.966 -3.59529 -2.88548 0
M  V30 7127 H 686.51 -6.7934 -1.58567 0
M  V30 7128 H 682.407 -5.95469 -2.49173 0
M  V30 7129 H 683.175 -7.95368 -1.93214 0
M  V30 7130 N 685.838 0.888903 -1.30139 0
M  V30 7131 C 686.788 1.9814 -1.12803 0
M  V30 7132 C 687.772 1.60839 -0.0443137 0
M  V30 7133 O 688.964 1.74971 -0.267208 0
M  V30 7134 C 686.093 3.33416 -0.817849 0
M  V30 7135 C 685.179 3.77043 -1.94163 0
M  V30 7136 N 685.57 3.92805 -3.18651 0
M  V30 7137 C 683.868 4.06407 -1.8371 0
M  V30 7138 C 684.569 4.29746 -3.92038 0
M  V30 7139 N 683.545 4.3939 -3.20059 0
M  V30 7140 H 687.347 2.08411 -2.07225 0
M  V30 7141 H 684.861 1.07845 -1.21421 0
M  V30 7142 H 686.858 4.11405 -0.674668 0
M  V30 7143 H 685.518 3.24484 0.118344 0
M  V30 7144 H 686.529 3.78042 -3.53984 0
M  V30 7145 H 683.206 4.05972 -0.974331 0
M  V30 7146 H 684.596 4.49695 -4.99223 0
M  V30 7147 N 687.317 1.12792 1.10072 0
M  V30 7148 C 688.564 0.885545 1.82111 0
M  V30 7149 C 688.892 -0.588519 1.85383 0
M  V30 7150 O 688.147 -1.45124 1.31292 0
M  V30 7151 C 688.446 1.4102 3.28403 0
M  V30 7152 C 688.112 2.89995 3.45273 0
M  V30 7153 C 686.774 3.30671 3.49585 0
M  V30 7154 C 689.126 3.85874 3.50358 0
M  V30 7155 C 686.454 4.65925 3.56553 0
M  V30 7156 C 688.806 5.20963 3.58859 0
M  V30 7157 C 687.47 5.61177 3.61437 0
M  V30 7158 H 686.74 0.324044 0.666391 0
M  V30 7159 H 689.387 1.40874 1.29718 0
M  V30 7160 H 687.692 0.807551 3.83387 0
M  V30 7161 H 689.389 1.19882 3.82661 0
M  V30 7162 H 685.979 2.57537 3.42597 0
M  V30 7163 H 690.163 3.5554 3.46273 0
M  V30 7164 H 685.419 4.96468 3.56833 0
M  V30 7165 H 689.593 5.95079 3.61738 0
M  V30 7166 H 687.22 6.6597 3.66589 0
M  V30 7167 N 688.795 -1.27931 0.920396 0
M  V30 7168 C 690.211 -1.47085 0.619537 0
M  V30 7169 C 690.411 -1.83463 -0.833291 0
M  V30 7170 O 689.467 -1.94363 -1.61181 0
M  V30 7171 C 690.78 -2.56878 1.56314 0
M  V30 7172 C 692.328 -2.70743 1.57058 0
M  V30 7173 C 692.803 -3.83687 2.50097 0
M  V30 7174 N 694.294 -3.9105 2.48262 0
M  V30 7175 C 695.029 -4.77842 3.16945 0
M  V30 7176 N 694.525 -5.69176 3.94982 0
M  V30 7177 N 696.318 -4.71509 3.06 0
M  V30 7178 H 688.469 -1.02601 1.85975 0
M  V30 7179 H 690.732 -0.511682 0.798051 0
M  V30 7180 H 690.438 -2.36923 2.59923 0
M  V30 7181 H 690.312 -3.54117 1.29928 0
M  V30 7182 H 692.699 -2.90083 0.541832 0
M  V30 7183 H 692.78 -1.74015 1.8749 0
M  V30 7184 H 692.424 -3.65101 3.53077 0
M  V30 7185 H 692.354 -4.79827 2.16964 0
M  V30 7186 H 694.845 -3.25738 1.91581 0
M  V30 7187 H 695.158 -6.32245 4.44394 0
M  V30 7188 H 693.503 -5.68995 3.99086 0
M  V30 7189 H 696.694 -3.99151 2.44533 0
M  V30 7190 H 696.867 -5.38933 3.59799 0
M  V30 7191 N 690.273 -0.685099 -1.4193 0
M  V30 7192 C 691.206 0.0371639 -2.2817 0
M  V30 7193 C 692.184 0.798436 -1.41647 0
M  V30 7194 O 693.368 0.791428 -1.71081 0
M  V30 7195 C 690.495 1.05993 -3.21688 0
M  V30 7196 C 689.541 0.393043 -4.24685 0
M  V30 7197 S 690.374 -0.856921 -5.28599 0
M  V30 7198 C 691.53 0.164508 -6.25684 0
M  V30 7199 H 691.763 -0.694305 -2.89079 0
M  V30 7200 H 689.296 -0.474999 -1.46912 0
M  V30 7201 H 691.254 1.64489 -3.76103 0
M  V30 7202 H 689.915 1.7639 -2.59895 0
M  V30 7203 H 689.108 1.16513 -4.90348 0
M  V30 7204 H 688.71 -0.118589 -3.73812 0
M  V30 7205 H 691.002 1.02106 -6.69762 0
M  V30 7206 H 691.945 -0.457917 -7.06618 0
M  V30 7207 H 692.353 0.514596 -5.6215 0
M  V30 7208 N 691.751 1.51645 -0.429126 0
M  V30 7209 C 692.979 2.06433 0.138994 0
M  V30 7210 C 693.394 1.29735 1.37165 0
M  V30 7211 O 692.751 0.354638 1.79021 0
M  V30 7212 C 692.802 3.58439 0.469452 0
M  V30 7213 O 692.523 4.32238 -0.714273 0
M  V30 7214 C 694.024 4.29712 1.08914 0
M  V30 7215 H 691.244 0.6709 0.0115608 0
M  V30 7216 H 693.788 1.9532 -0.605843 0
M  V30 7217 H 691.943 3.69494 1.16419 0
M  V30 7218 H 692.357 5.22704 -0.433633 0
M  V30 7219 H 693.831 5.37182 1.27042 0
M  V30 7220 H 694.308 3.87473 2.06788 0
M  V30 7221 H 694.914 4.2308 0.434028 0
M  V30 7222 N 693.229 0.160201 1.56784 0
M  V30 7223 C 694.478 -0.487619 1.95717 0
M  V30 7224 C 694.791 -1.65136 1.0483 0
M  V30 7225 O 695.997 -2.36468 1.33398 0
M  V30 7226 C 694.453 -0.91888 3.47972 0
M  V30 7227 C 694.061 0.218655 4.47466 0
M  V30 7228 C 695.805 -1.53575 3.95746 0
M  V30 7229 C 693.712 -0.231614 5.90946 0
M  V30 7230 H 692.642 -0.185939 0.730714 0
M  V30 7231 H 695.293 0.246657 1.81835 0
M  V30 7232 H 693.675 -1.70881 3.57234 0
M  V30 7233 H 694.849 0.995825 4.49911 0
M  V30 7234 H 693.164 0.744767 4.09685 0
M  V30 7235 H 695.761 -1.88448 5.00391 0
M  V30 7236 H 696.104 -2.42959 3.38048 0
M  V30 7237 H 696.637 -0.810467 3.89456 0
M  V30 7238 H 693.376 0.62718 6.52493 0
M  V30 7239 H 692.896 -0.974379 5.91833 0
M  V30 7240 H 694.575 -0.67922 6.43425 0
M  V30 7241 N 694.707 -1.5719 -0.113559 0
M  V30 7242 C 695.637 -2.03772 -1.14013 0
M  V30 7243 C 696.618 -0.923176 -1.42869 0
M  V30 7244 O 697.803 -1.19325 -1.53216 0
M  V30 7245 C 694.933 -2.44663 -2.4649 0
M  V30 7246 C 693.887 -3.59612 -2.32085 0
M  V30 7247 C 693.213 -3.8642 -3.69573 0
M  V30 7248 C 694.513 -4.91149 -1.7768 0
M  V30 7249 H 696.207 -2.89785 -0.752665 0
M  V30 7250 H 693.753 -1.39412 -0.360609 0
M  V30 7251 H 695.706 -2.75857 -3.18561 0
M  V30 7252 H 694.43 -1.55628 -2.87137 0
M  V30 7253 H 693.089 -3.28636 -1.62461 0
M  V30 7254 H 692.737 -2.94581 -4.07715 0
M  V30 7255 H 692.437 -4.63797 -3.60786 0
M  V30 7256 H 693.961 -4.2007 -4.4314 0
M  V30 7257 H 695.375 -5.20843 -2.39574 0
M  V30 7258 H 693.772 -5.72562 -1.79701 0
M  V30 7259 H 694.842 -4.79301 -0.734776 0
M  V30 7260 N 696.185 0.383891 -1.52853 0
M  V30 7261 C 697.596 0.961591 -1.60032 0
M  V30 7262 C 697.947 1.90819 -0.456333 0
M  V30 7263 O 697.072 2.12288 0.419873 0
M  V30 7264 C 697.667 1.75078 -2.90057 0
M  V30 7265 C 696.226 2.2781 -2.99632 0
M  V30 7266 C 695.373 1.08512 -2.55187 0
M  V30 7267 H 698.324 0.163269 -1.57858 0
M  V30 7268 H 698.345 2.61046 -2.7683 0
M  V30 7269 H 697.857 1.06157 -3.73299 0
M  V30 7270 H 695.958 3.00028 -2.20939 0
M  V30 7271 H 696.071 2.56947 -4.0437 0
M  V30 7272 H 694.435 1.44667 -2.09627 0
M  V30 7273 H 695.218 0.41118 -3.40829 0
M  V30 7274 N 697.663 1.43903 0.642637 0
M  V30 7275 C 699.074 1.40975 1.22404 0
M  V30 7276 C 699.425 0.1192 1.95838 0
M  V30 7277 O 698.55 -0.780939 2.01818 0
M  V30 7278 C 699.145 2.5538 2.22636 0
M  V30 7279 C 697.704 2.55684 2.76229 0
M  V30 7280 C 696.851 2.32556 1.51039 0
M  V30 7281 H 699.802 1.5265 0.434006 0
M  V30 7282 H 699.823 2.27474 3.05017 0
M  V30 7283 H 699.335 3.49294 1.69161 0
M  V30 7284 H 697.436 1.65679 3.33738 0
M  V30 7285 H 697.549 3.53799 3.23053 0
M  V30 7286 H 695.913 1.81427 1.78764 0
M  V30 7287 H 696.696 3.28569 0.99484 0
M  V30 7288 N 699.141 -0.881989 1.30609 0
M  V30 7289 C 700.071 -2.00413 1.1982 0
M  V30 7290 C 701.052 -1.69871 0.0881538 0
M  V30 7291 O 702.237 -1.92304 0.2707 0
M  V30 7292 C 699.367 -3.35641 0.89233 0
M  V30 7293 C 698.321 -3.80451 1.96064 0
M  V30 7294 C 697.647 -5.13003 1.5077 0
M  V30 7295 C 698.947 -3.98855 3.37213 0
M  V30 7296 H 700.641 -2.09698 2.13699 0
M  V30 7297 H 698.187 -1.00754 1.02882 0
M  V30 7298 H 700.14 -4.13669 0.803497 0
M  V30 7299 H 698.864 -3.26497 -0.0821381 0
M  V30 7300 H 697.523 -3.04654 2.03916 0
M  V30 7301 H 697.171 -5.0029 0.521417 0
M  V30 7302 H 696.871 -5.43956 2.22229 0
M  V30 7303 H 698.395 -5.93554 1.43271 0
M  V30 7304 H 699.809 -4.67312 3.32103 0
M  V30 7305 H 698.206 -4.41188 4.06784 0
M  V30 7306 H 699.276 -3.02614 3.78883 0
M  V30 7307 N 700.619 -1.13374 -1.09472 0
M  V30 7308 C 701.529 -0.824029 -2.19652 0
M  V30 7309 C 702.545 0.19118 -1.72947 0
M  V30 7310 O 703.721 0.0223464 -2.01388 0
M  V30 7311 C 700.786 -0.294009 -3.45451 0
M  V30 7312 C 699.847 -1.3704 -4.0684 0
M  V30 7313 C 699.08 -0.86558 -5.26634 0
M  V30 7314 O 699.303 0.29702 -5.69626 0
M  V30 7315 O 698.237 -1.63968 -5.79136 0
M  V30 7316 H 702.063 -1.74454 -2.48595 0
M  V30 7317 H 699.648 -0.911155 -1.18399 0
M  V30 7318 H 701.53 -0.00381039 -4.214 0
M  V30 7319 H 700.205 0.598921 -3.18111 0
M  V30 7320 H 699.112 -1.71391 -3.3253 0
M  V30 7321 H 700.445 -2.23746 -4.38405 0
M  V30 7322 N 702.098 1.27442 -0.927168 0
M  V30 7323 C 703.045 2.26863 -0.424459 0
M  V30 7324 C 704.015 1.5813 0.508346 0
M  V30 7325 O 705.2 1.85946 0.42762 0
M  V30 7326 C 702.34 3.43639 0.31718 0
M  V30 7327 C 701.453 4.27087 -0.649675 0
M  V30 7328 C 700.588 5.31082 0.111753 0
M  V30 7329 C 699.627 6.062 -0.847843 0
M  V30 7330 N 698.764 7.01999 -0.119074 0
M  V30 7331 H 703.604 2.69239 -1.27728 0
M  V30 7332 H 701.141 1.32394 -0.641106 0
M  V30 7333 H 703.099 4.10155 0.763486 0
M  V30 7334 H 701.729 3.02217 1.13424 0
M  V30 7335 H 700.781 3.60491 -1.21451 0
M  V30 7336 H 702.093 4.79242 -1.38307 0
M  V30 7337 H 701.247 6.03544 0.618 0
M  V30 7338 H 699.986 4.7973 0.878114 0
M  V30 7339 H 698.991 5.32577 -1.36534 0
M  V30 7340 H 700.216 6.59642 -1.61398 0
M  V30 7341 H 698.162 6.52977 0.629051 0
M  V30 7342 H 698.079 7.5184 -0.792046 0
M  V30 7343 H 699.347 7.78638 0.366537 0
M  V30 7344 N 703.576 0.692616 1.41565 0
M  V30 7345 C 704.506 0.0397325 2.33466 0
M  V30 7346 C 705.487 -0.770334 1.51657 0
M  V30 7347 O 706.672 -0.723903 1.80203 0
M  V30 7348 C 703.802 -0.899495 3.3545 0
M  V30 7349 C 702.756 -0.196738 4.27548 0
M  V30 7350 C 702.082 -1.25012 5.19881 0
M  V30 7351 C 703.382 0.935158 5.1386 0
M  V30 7352 H 705.076 0.807296 2.88311 0
M  V30 7353 H 702.622 0.389665 1.38628 0
M  V30 7354 H 704.575 -1.36545 3.98665 0
M  V30 7355 H 703.299 -1.69869 2.78948 0
M  V30 7356 H 701.958 0.249158 3.65752 0
M  V30 7357 H 701.606 -2.04177 4.59696 0
M  V30 7358 H 701.306 -0.784931 5.82334 0
M  V30 7359 H 702.83 -1.71665 5.85972 0
M  V30 7360 H 704.244 0.549619 5.70659 0
M  V30 7361 H 702.641 1.32726 5.85238 0
M  V30 7362 H 703.711 1.77613 4.512 0
M  V30 7363 N 705.054 -1.51416 0.437162 0
M  V30 7364 C 706.47 -1.59349 0.0894459 0
M  V30 7365 C 706.67 -1.44809 -1.40116 0
M  V30 7366 O 705.726 -1.28924 -2.17106 0
M  V30 7367 C 707.039 -2.9446 0.609398 0
M  V30 7368 C 708.587 -3.07769 0.569824 0
M  V30 7369 C 709.062 -4.45404 1.06675 0
M  V30 7370 N 710.553 -4.51723 1.02473 0
M  V30 7371 C 711.288 -5.56544 1.3801 0
M  V30 7372 N 710.784 -6.68784 1.80831 0
M  V30 7373 N 712.577 -5.46901 1.29828 0
M  V30 7374 H 704.728 -1.59112 1.40703 0
M  V30 7375 H 706.991 -0.750031 0.579791 0
M  V30 7376 H 706.697 -3.1047 1.65231 0
M  V30 7377 H 706.571 -3.77184 0.0342236 0
M  V30 7378 H 708.958 -2.91428 -0.464107 0
M  V30 7379 H 709.039 -2.26885 1.1814 0
M  V30 7380 H 708.683 -4.62492 2.09914 0
M  V30 7381 H 708.613 -5.24827 0.431712 0
M  V30 7382 H 711.104 -3.71165 0.710258 0
M  V30 7383 H 711.417 -7.44787 2.06185 0
M  V30 7384 H 709.762 -6.69992 1.84757 0
M  V30 7385 H 712.953 -4.581 0.962397 0
M  V30 7386 H 713.126 -6.2848 1.57851 0
M  V30 7387 N 706.532 -0.168513 -1.56696 0
M  V30 7388 C 707.462 0.758563 -2.20835 0
M  V30 7389 C 708.443 1.24121 -1.1631 0
M  V30 7390 O 709.628 1.29487 -1.4473 0
M  V30 7391 C 706.758 1.9892 -2.8469 0
M  V30 7392 C 705.712 1.64252 -3.95228 0
M  V30 7393 C 705.038 2.94757 -4.46119 0
M  V30 7394 C 706.338 0.872675 -5.14958 0
M  V30 7395 H 708.032 0.223953 -2.98561 0
M  V30 7396 H 705.578 0.106277 -1.43607 0
M  V30 7397 H 707.531 2.64275 -3.28233 0
M  V30 7398 H 706.255 2.5479 -2.04327 0
M  V30 7399 H 704.914 1.01266 -3.52336 0
M  V30 7400 H 704.562 3.48662 -3.62552 0
M  V30 7401 H 704.262 2.72316 -5.2069 0
M  V30 7402 H 705.786 3.61147 -4.92347 0
M  V30 7403 H 707.2 1.42875 -5.55211 0
M  V30 7404 H 705.597 0.747402 -5.95428 0
M  V30 7405 H 706.667 -0.131535 -4.84722 0
M  V30 7406 N 708.01 1.57248 0.105221 0
M  V30 7407 C 708.94 2.04374 1.12931 0
M  V30 7408 C 709.921 0.93074 1.42377 0
M  V30 7409 O 711.106 1.20136 1.52581 0
M  V30 7410 C 708.236 2.45967 2.45189 0
M  V30 7411 C 707.19 3.60838 2.30174 0
M  V30 7412 C 706.516 3.88374 3.67518 0
M  V30 7413 C 707.816 4.92084 1.75073 0
M  V30 7414 H 709.51 2.9018 0.737287 0
M  V30 7415 H 707.056 1.39601 0.353211 0
M  V30 7416 H 709.009 2.77542 3.17094 0
M  V30 7417 H 707.733 1.57148 2.86308 0
M  V30 7418 H 706.392 3.29493 1.60716 0
M  V30 7419 H 706.04 2.96739 4.06147 0
M  V30 7420 H 705.74 4.65703 3.58321 0
M  V30 7421 H 707.264 4.22415 4.40906 0
M  V30 7422 H 708.678 5.22106 2.36809 0
M  V30 7423 H 707.075 5.73507 1.76662 0
M  V30 7424 H 708.145 4.79684 0.709347 0
M  V30 7425 N 709.488 -0.375779 1.53054 0
M  V30 7426 C 710.418 -1.46598 1.81745 0
M  V30 7427 C 711.399 -1.56337 0.670286 0
M  V30 7428 O 712.584 -1.71071 0.919158 0
M  V30 7429 C 709.714 -2.84058 1.99821 0
M  V30 7430 C 708.668 -2.8915 3.15557 0
M  V30 7431 C 707.994 -4.29187 3.18908 0
M  V30 7432 C 709.294 -2.57595 4.54359 0
M  V30 7433 H 710.988 -1.22837 2.73041 0
M  V30 7434 H 708.534 -0.589485 1.31381 0
M  V30 7435 H 710.487 -3.60342 2.18475 0
M  V30 7436 H 709.211 -3.09184 1.05226 0
M  V30 7437 H 707.87 -2.15316 2.96706 0
M  V30 7438 H 707.518 -4.51374 2.2197 0
M  V30 7439 H 707.218 -4.33512 3.96662 0
M  V30 7440 H 708.742 -5.07359 3.39734 0
M  V30 7441 H 710.156 -3.23595 4.73243 0
M  V30 7442 H 708.553 -2.73252 5.34279 0
M  V30 7443 H 709.623 -1.52882 4.60169 0
M  V30 7444 N 710.966 -1.44241 -0.634997 0
M  V30 7445 C 711.876 -1.53293 -1.77591 0
M  V30 7446 C 712.892 -0.418831 -1.68884 0
M  V30 7447 O 714.068 -0.675619 -1.8973 0
M  V30 7448 C 711.133 -1.47075 -3.13958 0
M  V30 7449 C 710.194 -2.69304 -3.34326 0
M  V30 7450 C 709.427 -2.63374 -4.64187 0
M  V30 7451 O 709.65 -1.69161 -5.44739 0
M  V30 7452 O 708.584 -3.54166 -4.86673 0
M  V30 7453 H 712.41 -2.49673 -1.72908 0
M  V30 7454 H 709.995 -1.26445 -0.795745 0
M  V30 7455 H 711.877 -1.46117 -3.95257 0
M  V30 7456 H 710.552 -0.538373 -3.19192 0
M  V30 7457 H 709.459 -2.75831 -2.52721 0
M  V30 7458 H 710.792 -3.61576 -3.33951 0
M  V30 7459 N 712.444 0.87505 -1.31075 0
M  V30 7460 C 713.391 1.98178 -1.18296 0
M  V30 7461 C 714.361 1.65952 -0.0699923 0
M  V30 7462 O 715.546 1.8926 -0.241951 0
M  V30 7463 C 712.686 3.33399 -0.891024 0
M  V30 7464 C 711.799 3.78253 -2.08684 0
M  V30 7465 C 710.934 5.02166 -1.73212 0
M  V30 7466 C 709.973 5.39455 -2.89231 0
M  V30 7467 N 709.11 6.54549 -2.53989 0
M  V30 7468 H 713.95 2.0844 -2.12971 0
M  V30 7469 H 711.487 1.02047 -1.05948 0
M  V30 7470 H 713.445 4.11246 -0.702338 0
M  V30 7471 H 712.075 3.22794 0.0188799 0
M  V30 7472 H 711.127 2.9623 -2.38646 0
M  V30 7473 H 712.439 4.01821 -2.95536 0
M  V30 7474 H 711.593 5.87666 -1.50777 0
M  V30 7475 H 710.332 4.80491 -0.83544 0
M  V30 7476 H 709.337 4.52477 -3.12321 0
M  V30 7477 H 710.562 5.63098 -3.79601 0
M  V30 7478 H 708.508 6.3443 -1.66838 0
M  V30 7479 H 708.425 6.78035 -3.34372 0
M  V30 7480 H 709.693 7.43254 -2.34934 0
M  V30 7481 N 713.922 1.13953 1.08869 0
M  V30 7482 C 714.852 0.844824 2.17681 0
M  V30 7483 C 715.833 -0.198213 1.68941 0
M  V30 7484 O 717.018 -0.0559073 1.9412 0
M  V30 7485 C 714.148 0.316325 3.45856 0
M  V30 7486 C 713.102 1.29426 4.07962 0
M  V30 7487 C 712.428 0.625275 5.31031 0
M  V30 7488 C 713.728 2.65484 4.49795 0
M  V30 7489 H 715.422 1.75471 2.42591 0
M  V30 7490 H 712.968 0.845116 1.16592 0
M  V30 7491 H 714.921 0.0977876 4.21287 0
M  V30 7492 H 713.645 -0.628972 3.20486 0
M  V30 7493 H 712.304 1.49889 3.34558 0
M  V30 7494 H 711.952 -0.325678 5.01945 0
M  V30 7495 H 711.652 1.27777 5.73539 0
M  V30 7496 H 713.176 0.416152 6.0918 0
M  V30 7497 H 714.59 2.48957 5.16424 0
M  V30 7498 H 712.987 3.26963 5.03205 0
M  V30 7499 H 714.057 3.22717 3.61914 0
M  V30 7500 N 715.4 -1.26948 0.933913 0
M  V30 7501 C 716.625 -1.98724 0.593589 0
M  V30 7502 C 717.05 -1.6915 -0.822801 0
M  V30 7503 O 716.408 -0.93533 -1.5531 0
M  V30 7504 C 716.456 -3.50834 0.833542 0
M  V30 7505 O 715.56 -4.12284 -0.0978788 0
M  V30 7506 H 714.901 -0.623683 0.227849 0
M  V30 7507 H 717.431 -1.61599 1.25486 0
M  V30 7508 H 717.441 -4.01018 0.75156 0
M  V30 7509 H 716.116 -3.71691 1.86597 0
M  V30 7510 H 714.693 -3.72884 0.0345443 0
M  V30 7511 N 716.879 -0.700114 -1.41195 0
M  V30 7512 C 718.295 -0.372114 -1.55201 0
M  V30 7513 C 718.495 1.12053 -1.6747 0
M  V30 7514 O 717.551 1.90642 -1.65566 0
M  V30 7515 C 718.864 -1.12462 -2.78878 0
M  V30 7516 C 720.412 -1.10941 -2.92679 0
M  V30 7517 C 720.887 -1.84376 -4.19249 0
M  V30 7518 N 722.378 -1.81368 -4.26216 0
M  V30 7519 C 723.113 -2.35024 -5.23021 0
M  V30 7520 N 722.609 -2.9717 -6.25829 0
M  V30 7521 N 724.402 -2.25254 -5.14992 0
M  V30 7522 H 716.553 -1.66816 -1.31477 0
M  V30 7523 H 718.816 -0.704223 -0.634644 0
M  V30 7524 H 718.522 -2.17937 -2.76037 0
M  V30 7525 H 718.396 -0.706152 -3.70531 0
M  V30 7526 H 720.783 -0.062911 -2.95033 0
M  V30 7527 H 720.864 -1.56698 -2.02187 0
M  V30 7528 H 720.508 -2.89008 -4.17656 0
M  V30 7529 H 720.438 -1.3605 -5.08722 0
M  V30 7530 H 722.929 -1.36062 -3.52556 0
M  V30 7531 H 723.242 -3.35668 -6.96094 0
M  V30 7532 H 721.587 -3.01249 -6.26318 0
M  V30 7533 H 724.778 -1.76372 -4.33602 0
M  V30 7534 H 724.951 -2.67373 -5.90268 0
M  V30 7535 N 718.357 1.51182 -0.445186 0
M  V30 7536 C 719.604 2.02152 0.118645 0
M  V30 7537 C 719.932 1.32888 1.42025 0
M  V30 7538 O 719.187 0.435041 1.90803 0
M  V30 7539 C 719.486 3.55408 0.376797 0
M  V30 7540 C 719.152 4.43008 -0.839945 0
M  V30 7541 C 717.814 4.66669 -1.17361 0
M  V30 7542 C 720.166 4.9435 -1.65127 0
M  V30 7543 C 717.494 5.38919 -2.31913 0
M  V30 7544 C 719.846 5.67857 -2.78786 0
M  V30 7545 C 718.51 5.89779 -3.12597 0
M  V30 7546 H 717.78 0.739727 0.0434152 0
M  V30 7547 H 720.427 1.82055 -0.593984 0
M  V30 7548 H 718.732 3.73879 1.1714 0
M  V30 7549 H 720.429 3.92388 0.826602 0
M  V30 7550 H 717.019 4.24793 -0.569958 0
M  V30 7551 H 721.203 4.75947 -1.4067 0
M  V30 7552 H 716.459 5.54105 -2.58413 0
M  V30 7553 H 720.633 6.06628 -3.42017 0
M  V30 7554 H 718.26 6.45542 -4.01471 0
M  V30 7555 N 719.835 0.176821 1.56605 0
M  V30 7556 C 720.785 -0.763718 2.14829 0
M  V30 7557 C 721.769 -1.18903 1.08401 0
M  V30 7558 O 722.961 -1.15048 1.3451 0
M  V30 7559 C 720.09 -1.99069 2.7969 0
M  V30 7560 C 719.176 -1.58711 3.93283 0
M  V30 7561 N 719.567 -0.893423 4.97847 0
M  V30 7562 C 717.865 -1.87774 4.04545 0
M  V30 7563 C 718.566 -0.693866 5.77547 0
M  V30 7564 N 717.542 -1.23699 5.29339 0
M  V30 7565 H 721.344 -0.224811 2.93039 0
M  V30 7566 H 718.858 -0.0236563 1.62383 0
M  V30 7567 H 720.855 -2.67478 3.19783 0
M  V30 7568 H 719.515 -2.53449 2.02962 0
M  V30 7569 H 720.526 -0.550868 5.14962 0
M  V30 7570 H 717.203 -2.43793 3.38927 0
M  V30 7571 H 718.593 -0.144899 6.71744 0
M  V30 7572 N 721.313 -1.57302 -0.09688 0
M  V30 7573 C 722.276 -2.00976 -1.10188 0
M  V30 7574 C 723.276 -0.903009 -1.3305 0
M  V30 7575 O 724.466 -1.16853 -1.29194 0
M  V30 7576 C 721.598 -2.36893 -2.45142 0
M  V30 7577 H 722.791 -2.9098 -0.726003 0
M  V30 7578 H 720.344 -1.52515 -0.341872 0
M  V30 7579 H 721.079 -1.49837 -2.8761 0
M  V30 7580 H 720.864 -3.17632 -2.29897 0
M  V30 7581 H 722.354 -2.71345 -3.1743 0
M  V30 7582 N 722.791 0.367657 -1.53252 0
M  V30 7583 C 723.738 1.45028 -1.79543 0
M  V30 7584 C 724.708 1.53288 -0.63969 0
M  V30 7585 O 725.893 1.69209 -0.881653 0
M  V30 7586 C 723.033 2.82 -1.98923 0
M  V30 7587 C 722.146 2.82722 -3.26638 0
M  V30 7588 C 721.281 4.11257 -3.36216 0
M  V30 7589 C 720.32 4.06113 -4.57972 0
M  V30 7590 N 719.457 5.26293 -4.64715 0
M  V30 7591 H 724.297 1.21908 -2.71923 0
M  V30 7592 H 721.834 0.591011 -1.34705 0
M  V30 7593 H 723.792 3.61568 -2.08146 0
M  V30 7594 H 722.422 3.03523 -1.09881 0
M  V30 7595 H 721.474 1.95399 -3.26379 0
M  V30 7596 H 722.786 2.74794 -4.16281 0
M  V30 7597 H 721.94 4.99239 -3.44739 0
M  V30 7598 H 720.679 4.21935 -2.44586 0
M  V30 7599 H 719.684 3.16517 -4.49552 0
M  V30 7600 H 720.909 3.97039 -5.50942 0
M  V30 7601 H 718.855 5.37561 -3.75985 0
M  V30 7602 H 718.772 5.20526 -5.4826 0
M  V30 7603 H 720.04 6.16113 -4.77519 0
M  V30 7604 N 724.269 1.44576 0.627338 0
M  V30 7605 C 725.516 1.47558 1.38682 0
M  V30 7606 C 725.844 0.109636 1.94191 0
M  V30 7607 O 725.099 -0.889092 1.74338 0
M  V30 7608 C 725.398 2.48644 2.56731 0
M  V30 7609 C 725.064 3.93873 2.19489 0
M  V30 7610 C 723.726 4.33421 2.09045 0
M  V30 7611 C 726.078 4.85286 1.90124 0
M  V30 7612 C 723.406 5.62303 1.6743 0
M  V30 7613 C 725.758 6.14559 1.50001 0
M  V30 7614 C 724.422 6.53058 1.38101 0
M  V30 7615 H 723.692 0.539955 0.507474 0
M  V30 7616 H 726.339 1.77811 0.711021 0
M  V30 7617 H 724.644 2.11889 3.29561 0
M  V30 7618 H 726.341 2.48197 3.14959 0
M  V30 7619 H 722.931 3.62587 2.28537 0
M  V30 7620 H 727.115 4.55483 1.971 0
M  V30 7621 H 722.371 5.90945 1.56823 0
M  V30 7622 H 726.545 6.84848 1.26319 0
M  V30 7623 H 724.172 7.52826 1.05628 0
M  V30 7624 N 725.747 -0.868086 1.31537 0
M  V30 7625 C 726.975 -1.65402 1.24298 0
M  V30 7626 C 727.39 -1.87827 -0.191389 0
M  V30 7627 O 726.747 -1.43776 -1.12404 0
M  V30 7628 C 726.798 -3.02093 1.9855 0
M  V30 7629 O 726.519 -2.80668 3.36388 0
M  V30 7630 C 728.02 -3.96538 1.98173 0
M  V30 7631 H 725.24 -0.515598 0.429417 0
M  V30 7632 H 727.784 -1.0834 1.73444 0
M  V30 7633 H 725.939 -3.55838 1.53161 0
M  V30 7634 H 726.353 -3.67504 3.74221 0
M  V30 7635 H 727.827 -4.8976 2.54635 0
M  V30 7636 H 728.304 -4.28474 0.964697 0
M  V30 7637 H 728.91 -3.48729 2.4345 0
M  V30 7638 N 727.225 -1.14528 -1.08264 0
M  V30 7639 C 728.155 -0.856356 -2.1723 0
M  V30 7640 C 729.136 0.189251 -1.69044 0
M  V30 7641 O 730.321 0.0456119 -1.94146 0
M  V30 7642 C 727.451 -0.334662 -3.45684 0
M  V30 7643 C 726.405 -1.31588 -4.0727 0
M  V30 7644 C 725.731 -0.653428 -5.30692 0
M  V30 7645 C 727.031 -2.67866 -4.48381 0
M  V30 7646 H 728.725 -1.76755 -2.41657 0
M  V30 7647 H 726.271 -0.851287 -1.16143 0
M  V30 7648 H 728.224 -0.120128 -4.21229 0
M  V30 7649 H 726.948 0.611967 -3.20815 0
M  V30 7650 H 725.607 -1.51661 -3.33758 0
M  V30 7651 H 725.255 0.299054 -5.0211 0
M  V30 7652 H 724.955 -1.30817 -5.72853 0
M  V30 7653 H 726.479 -0.448453 -6.08951 0
M  V30 7654 H 727.893 -2.51692 -5.15096 0
M  V30 7655 H 726.29 -3.29627 -5.01464 0
M  V30 7656 H 727.36 -3.24632 -3.60198 0
M  V30 7657 N 728.703 1.26451 -0.940633 0
M  V30 7658 C 729.613 2.30128 -0.455881 0
M  V30 7659 C 730.629 1.67536 0.469867 0
M  V30 7660 O 731.805 1.98344 0.349529 0
M  V30 7661 C 728.87 3.45634 0.271648 0
M  V30 7662 C 727.931 4.23709 -0.690594 0
M  V30 7663 C 727.164 5.337 0.00231047 0
M  V30 7664 O 727.387 5.57215 1.21935 0
M  V30 7665 O 726.321 5.98091 -0.676111 0
M  V30 7666 H 730.147 2.73655 -1.31707 0
M  V30 7667 H 727.732 1.3164 -0.706497 0
M  V30 7668 H 729.614 4.15853 0.681486 0
M  V30 7669 H 728.289 3.04138 1.10824 0
M  V30 7670 H 727.196 3.55974 -1.15037 0
M  V30 7671 H 728.529 4.68953 -1.49478 0
M  V30 7672 N 730.181 0.707592 1.40822 0
M  V30 7673 C 731.411 0.252706 2.05049 0
M  V30 7674 C 731.819 -1.10758 1.53393 0
M  V30 7675 O 731.162 -1.70567 0.682097 0
M  V30 7676 C 731.224 0.146001 3.59203 0
M  V30 7677 C 730.888 1.44027 4.33711 0
M  V30 7678 C 731.885 2.38058 4.62195 0
M  V30 7679 C 729.57 1.69698 4.72766 0
M  V30 7680 C 731.564 3.56013 5.28709 0
M  V30 7681 C 729.251 2.87936 5.39014 0
M  V30 7682 C 730.249 3.80915 5.66915 0
M  V30 7683 O 729.937 4.9708 6.31796 0
M  V30 7684 H 729.669 0.112784 0.666525 0
M  V30 7685 H 732.223 0.96417 1.81364 0
M  V30 7686 H 730.453 -0.621338 3.81676 0
M  V30 7687 H 732.142 -0.273275 4.04979 0
M  V30 7688 H 732.908 2.19487 4.32493 0
M  V30 7689 H 728.787 0.981835 4.50423 0
M  V30 7690 H 732.331 4.28604 5.50404 0
M  V30 7691 H 728.228 3.06419 5.68135 0
M  V30 7692 H 728.996 4.97053 6.50293 0
M  V30 7693 N 731.66 -1.50943 0.453197 0
M  V30 7694 C 732.885 -2.07116 -0.108463 0
M  V30 7695 C 733.31 -1.31681 -1.3432 0
M  V30 7696 O 732.668 -0.359256 -1.77705 0
M  V30 7697 C 732.716 -3.58447 -0.393424 0
M  V30 7698 O 731.82 -3.85038 -1.47714 0
M  V30 7699 H 731.161 -0.66398 0.0050993 0
M  V30 7700 H 733.691 -1.94362 0.639095 0
M  V30 7701 H 733.701 -4.02961 -0.639222 0
M  V30 7702 H 732.376 -4.12774 0.508946 0
M  V30 7703 H 730.953 -3.52376 -1.22006 0
M  V30 7704 O 733.177 -0.326351 -1.58168 0
M  V30 7705 H 733.868 0.23289 -1.92295 0
M  V30 END ATOM
M  V30 BEGIN BOND
M  V30 END BOND
M  V30 END CTAB
M  END
$$$$
