drugbank_target|P24289 Nuclease P1 (DB02980; DB03011)
 OpenBabel12092119563D

  0  0  0     0  0            999 V3000
M  V30 BEGIN CTAB
M  V30 COUNTS 3986 4040 0 0 0
M  V30 BEGIN ATOM
M  V30 1 H -0.908 1.98254 -0.117106 0
M  V30 2 N 0 1.576 0 0
M  V30 3 C 1.246 1.91688 0.68023 0
M  V30 4 C 1.601 0.874433 1.71381 0
M  V30 5 O 0.894 -0.113368 1.91264 0
M  V30 6 C 1.088 3.3029 1.3654 0
M  V30 7 C 0.917 4.4792 0.399705 0
M  V30 8 C -0.313 5.05299 0.010106 0
M  V30 9 C 1.885 5.13214 -0.33406 0
M  V30 10 N -0.133 6.06445 -0.953804 0
M  V30 11 C 1.238 6.09191 -1.15265 0
M  V30 12 C 3.293 4.96308 -0.397895 0
M  V30 13 C 1.996 6.90082 -2.02927 0
M  V30 14 C 4.022 5.77784 -1.26174 0
M  V30 15 C 3.384 6.73354 -2.06818 0
M  V30 16 H -0.517 0.749792 0.222116 0
M  V30 17 H 2.067 1.94606 -0.0603473 0
M  V30 18 H 0.238 3.28246 2.07627 0
M  V30 19 H 1.97 3.51808 2.00033 0
M  V30 20 H -1.275 4.72085 0.378476 0
M  V30 21 H -0.851 6.61701 -1.43113 0
M  V30 22 H 3.791 4.22272 0.211312 0
M  V30 23 H 1.509 7.63443 -2.64915 0
M  V30 24 H 5.095 5.66743 -1.31504 0
M  V30 25 H 3.975 7.35302 -2.7258 0
M  V30 26 N 1.4781 -0.272755 1.55222 0
M  V30 27 C 2.7261 -1.00234 1.75492 0
M  V30 28 C 3.0471 -1.8681 0.5592 0
M  V30 29 O 2.3171 -1.91215 -0.425882 0
M  V30 30 H 0.8971 -0.373076 0.647166 0
M  V30 31 H 3.5591 -0.296926 1.92625 0
M  V30 32 H 2.6551 -1.63913 2.65592 0
M  V30 33 N 2.9562 -1.48159 -0.537278 0
M  V30 34 C 3.9192 -1.61665 -1.62472 0
M  V30 35 C 4.9192 -0.490395 -1.5314 0
M  V30 36 O 6.1092 -0.755998 -1.5694 0
M  V30 37 C 3.2412 -1.57997 -3.02076 0
M  V30 38 H 4.4342 -2.58621 -1.51839 0
M  V30 39 H 1.9872 -1.36647 -0.758771 0
M  V30 40 H 2.7222 -0.624913 -3.18222 0
M  V30 41 H 2.5072 -2.39755 -3.10258 0
M  V30 42 H 3.9972 -1.70627 -3.81151 0
M  V30 43 N 4.4343 0.785586 -1.36625 0
M  V30 44 C 5.3643 1.91259 -1.33949 0
M  V30 45 C 6.3453 1.68795 -0.210325 0
M  V30 46 O 7.5303 1.89854 -0.408561 0
M  V30 47 C 4.6603 3.28339 -1.13186 0
M  V30 48 C 3.6143 3.65335 -2.22967 0
M  V30 49 C 2.9403 5.00806 -1.87342 0
M  V30 50 C 4.2403 3.7352 -3.65075 0
M  V30 51 H 5.9343 1.93755 -2.28253 0
M  V30 52 H 3.4803 0.930788 -1.09874 0
M  V30 53 H 5.4333 4.06804 -1.09948 0
M  V30 54 H 4.1573 3.2624 -0.153332 0
M  V30 55 H 2.8163 2.89169 -2.25337 0
M  V30 56 H 2.4643 4.95233 -0.880545 0
M  V30 57 H 2.1643 5.26529 -2.60846 0
M  V30 58 H 3.6883 5.81687 -1.85667 0
M  V30 59 H 5.1023 4.42168 -3.64911 0
M  V30 60 H 3.4993 4.10731 -4.37516 0
M  V30 61 H 4.5693 2.74527 -3.99703 0
M  V30 62 N 5.9124 1.20967 1.01018 0
M  V30 63 C 7.1604 1.02172 1.74371 0
M  V30 64 C 7.4814 -0.446414 1.89821 0
M  V30 65 O 6.7514 -1.32234 1.44537 0
M  V30 66 H 5.3314 0.375066 0.646014 0
M  V30 67 H 7.9934 1.52187 1.21758 0
M  V30 68 H 7.0894 1.48538 2.74487 0
M  V30 69 N 7.3905 -1.2043 1.01659 0
M  V30 70 C 8.3405 -2.21076 0.557623 0
M  V30 71 C 9.3245 -1.56176 -0.387029 0
M  V30 72 O 10.5165 -1.7575 -0.209996 0
M  V30 73 C 7.6455 -3.43146 -0.102707 0
M  V30 74 C 6.7315 -4.15213 0.863652 0
M  V30 75 N 7.1225 -4.63662 2.02117 0
M  V30 76 C 5.4205 -4.40716 0.684472 0
M  V30 77 C 6.1215 -5.18868 2.62966 0
M  V30 78 N 5.0975 -5.0893 1.91027 0
M  V30 79 H 8.8995 -2.56201 1.44008 0
M  V30 80 H 6.4135 -1.36366 0.881931 0
M  V30 81 H 8.4105 -4.14475 -0.449054 0
M  V30 82 H 7.0705 -3.09526 -0.981003 0
M  V30 83 H 8.0815 -4.58877 2.40109 0
M  V30 84 H 4.7585 -4.17245 -0.14577 0
M  V30 85 H 6.1485 -5.6673 3.60924 0
M  V30 86 N 8.8686 -0.792821 -1.36206 0
M  V30 87 C 9.8316 -0.199459 -2.2833 0
M  V30 88 C 10.8316 0.605189 -1.48977 0
M  V30 89 O 12.0216 0.425685 -1.68919 0
M  V30 90 C 9.1536 0.723523 -3.33134 0
M  V30 91 H 10.3466 -1.01181 -2.82316 0
M  V30 92 H 7.8996 -0.562485 -1.45828 0
M  V30 93 H 8.6346 1.56008 -2.84309 0
M  V30 94 H 8.4196 0.148436 -3.91819 0
M  V30 95 H 9.9096 1.13344 -4.01924 0
M  V30 96 N 10.3467 1.47872 -0.545128 0
M  V30 97 C 11.5747 2.06889 -0.021084 0
M  V30 98 C 11.9897 1.39955 1.2672 0
M  V30 99 O 11.3467 0.492036 1.75742 0
M  V30 100 C 11.3977 3.60996 0.190817 0
M  V30 101 O 11.1187 4.25419 -1.04644 0
M  V30 102 C 12.6197 4.36849 0.753521 0
M  V30 103 H 9.8397 0.669785 -0.0403635 0
M  V30 104 H 12.3837 1.90049 -0.755095 0
M  V30 105 H 10.5387 3.77391 0.87492 0
M  V30 106 H 10.9527 5.17785 -0.836611 0
M  V30 107 H 12.4267 5.45399 0.851139 0
M  V30 108 H 12.9037 4.02306 1.762 0
M  V30 109 H 13.5097 4.25169 0.105503 0
M  V30 110 N 11.8248 0.280983 1.55075 0
M  V30 111 C 13.0708 -0.33461 2.00021 0
M  V30 112 C 13.4038 -1.55063 1.16915 0
M  V30 113 O 12.6788 -1.93006 0.240646 0
M  V30 114 C 12.9618 -0.711007 3.53011 0
M  V30 115 C 12.8148 0.512766 4.46868 0
M  V30 116 C 14.1338 -1.54522 4.12081 0
M  V30 117 H 11.2528 -0.120147 0.727141 0
M  V30 118 H 13.8948 0.389097 1.85973 0
M  V30 119 H 12.0448 -1.32761 3.65112 0
M  V30 120 H 13.7168 1.15131 4.46702 0
M  V30 121 H 11.9598 1.14975 4.18286 0
M  V30 122 H 12.6308 0.205556 5.51617 0
M  V30 123 H 15.1068 -1.02442 4.03293 0
M  V30 124 H 13.9828 -1.77739 5.19327 0
M  V30 125 H 14.2438 -2.52813 3.62682 0
M  V30 126 N 13.3029 -1.57598 0.00835791 0
M  V30 127 C 14.2659 -2.07884 -0.965242 0
M  V30 128 C 15.2659 -0.989825 -1.26725 0
M  V30 129 O 16.4559 -1.25218 -1.21104 0
M  V30 130 C 13.5879 -2.52731 -2.28779 0
M  V30 131 H 14.7809 -2.95178 -0.530112 0
M  V30 132 H 12.3339 -1.54458 -0.239283 0
M  V30 133 H 13.0689 -1.68705 -2.76964 0
M  V30 134 H 12.8539 -3.32272 -2.08177 0
M  V30 135 H 14.3439 -2.91933 -2.98605 0
M  V30 136 N 14.781 0.264519 -1.55364 0
M  V30 137 C 16.011 1.01153 -1.80143 0
M  V30 138 C 16.419 1.80115 -0.579253 0
M  V30 139 O 15.762 1.77813 0.46132 0
M  V30 140 C 15.824 2.01098 -2.97993 0
M  V30 141 C 15.488 1.40995 -4.34706 0
M  V30 142 C 16.485 0.821316 -5.13372 0
M  V30 143 C 14.17 1.43461 -4.81378 0
M  V30 144 C 16.164 0.265339 -6.36847 0
M  V30 145 C 13.851 0.874771 -6.04807 0
M  V30 146 C 14.849 0.291146 -6.82379 0
M  V30 147 O 14.537 -0.260093 -8.03479 0
M  V30 148 H 14.269 0.304125 -0.603725 0
M  V30 149 H 16.823 0.298089 -2.03225 0
M  V30 150 H 15.053 2.76224 -2.70623 0
M  V30 151 H 16.742 2.61997 -3.1002 0
M  V30 152 H 17.508 0.794903 -4.78442 0
M  V30 153 H 13.387 1.87826 -4.21002 0
M  V30 154 H 16.931 -0.190837 -6.97339 0
M  V30 155 H 12.828 0.898452 -6.39217 0
M  V30 156 H 13.596 -0.150265 -8.18362 0
M  V30 157 N 16.2591 1.48442 0.529413 0
M  V30 158 C 17.5051 1.5672 1.28711 0
M  V30 159 C 17.8381 0.2406 1.92704 0
M  V30 160 O 17.1131 -0.753454 1.79313 0
M  V30 161 C 17.3961 2.70587 2.37603 0
M  V30 162 C 17.2491 4.12953 1.78297 0
M  V30 163 C 18.5681 2.80212 3.39366 0
M  V30 164 H 15.6871 0.570474 0.466613 0
M  V30 165 H 18.3291 1.80617 0.589706 0
M  V30 166 H 16.4791 2.50342 2.97088 0
M  V30 167 H 18.1511 4.44639 1.22858 0
M  V30 168 H 16.3941 4.19927 1.0883 0
M  V30 169 H 17.0651 4.88448 2.57144 0
M  V30 170 H 19.5411 2.98553 2.89836 0
M  V30 171 H 18.4171 3.61611 4.12951 0
M  V30 172 H 18.6781 1.88393 3.99951 0
M  V30 173 N 17.7372 -0.778329 1.37039 0
M  V30 174 C 18.7002 -1.87301 1.32102 0
M  V30 175 C 19.7002 -1.59198 0.226405 0
M  V30 176 O 20.8902 -1.67403 0.481861 0
M  V30 177 C 18.0222 -3.24309 1.05055 0
M  V30 178 H 19.2152 -1.93093 2.29467 0
M  V30 179 H 16.7682 -0.977358 1.21973 0
M  V30 180 H 17.5032 -3.24196 0.0819373 0
M  V30 181 H 17.2882 -3.46098 1.84279 0
M  V30 182 H 18.7782 -4.04382 1.04234 0
M  V30 183 N 19.2153 -1.21501 -1.00376 0
M  V30 184 C 20.1473 -0.933174 -2.09343 0
M  V30 185 C 21.1603 0.0840896 -1.62583 0
M  V30 186 O 22.3493 -0.148563 -1.77881 0
M  V30 187 C 19.4493 -0.379869 -3.36764 0
M  V30 188 C 18.6223 -1.45176 -4.12605 0
M  V30 189 C 17.6813 -0.907476 -5.18316 0
M  V30 190 O 16.7073 -1.5912 -5.46507 0
M  V30 191 N 17.9093 0.276649 -5.7984 0
M  V30 192 H 20.6743 -1.87124 -2.34104 0
M  V30 193 H 18.2353 -1.12043 -1.16867 0
M  V30 194 H 20.2273 -0.00131488 -4.047 0
M  V30 195 H 18.7973 0.463048 -3.09151 0
M  V30 196 H 18.0173 -2.00411 -3.39454 0
M  V30 197 H 19.3053 -2.17328 -4.6005 0
M  V30 198 H 18.7033 0.849147 -5.59291 0
M  V30 199 H 17.2603 0.596702 -6.49063 0
M  V30 200 N 20.6934 1.19889 -1.02296 0
M  V30 201 C 21.6434 2.20777 -0.56934 0
M  V30 202 C 22.6274 1.56379 0.378741 0
M  V30 203 O 23.8194 1.75859 0.200673 0
M  V30 204 C 20.9484 3.43196 0.0845077 0
M  V30 205 C 20.0344 4.14749 -0.88566 0
M  V30 206 N 20.4254 4.62584 -2.04573 0
M  V30 207 C 18.7234 4.40347 -0.707835 0
M  V30 208 C 19.4244 5.17466 -2.65714 0
M  V30 209 N 18.4004 5.0791 -1.93723 0
M  V30 210 H 22.2024 2.55434 -1.45365 0
M  V30 211 H 19.7164 1.35897 -0.88915 0
M  V30 212 H 21.7134 4.14707 0.427067 0
M  V30 213 H 20.3734 3.10042 0.964574 0
M  V30 214 H 21.3844 4.57597 -2.4254 0
M  V30 215 H 18.0614 4.17317 0.12364 0
M  V30 216 H 19.4514 5.64808 -3.63925 0
M  V30 217 N 22.1715 0.800033 1.35784 0
M  V30 218 C 23.4015 0.389041 2.02904 0
M  V30 219 C 23.8095 -1.0027 1.60445 0
M  V30 220 O 23.1525 -1.65633 0.794453 0
M  V30 221 C 23.2145 0.385495 3.57427 0
M  V30 222 C 22.8785 1.72662 4.23127 0
M  V30 223 C 23.8755 2.68385 4.4527 0
M  V30 224 C 21.5605 2.00883 4.60381 0
M  V30 225 C 23.5545 3.90517 5.03761 0
M  V30 226 C 21.2415 3.2328 5.18588 0
M  V30 227 C 22.2395 4.17915 5.40218 0
M  V30 228 O 21.9275 5.38153 5.97199 0
M  V30 229 H 21.6595 0.157032 0.657508 0
M  V30 230 H 24.2135 1.08311 1.74522 0
M  V30 231 H 22.4435 -0.365128 3.84972 0
M  V30 232 H 24.1325 -0.00228296 4.059 0
M  V30 233 H 24.8985 2.47872 4.16874 0
M  V30 234 H 20.7775 1.28037 4.42863 0
M  V30 235 H 24.3215 4.64395 5.2056 0
M  V30 236 H 20.2185 3.43667 5.4641 0
M  V30 237 H 20.9865 5.3936 6.15656 0
M  V30 238 N 23.6496 -1.47581 0.552962 0
M  V30 239 C 24.8956 -2.02782 0.0273648 0
M  V30 240 C 25.2286 -1.42687 -1.31734 0
M  V30 241 O 24.5036 -0.580897 -1.85623 0
M  V30 242 C 24.7866 -3.60031 -0.0702371 0
M  V30 243 C 24.6396 -4.30566 1.30126 0
M  V30 244 C 25.9586 -4.33028 -0.785771 0
M  V30 245 H 23.0776 -0.736912 0.0114185 0
M  V30 246 H 25.7196 -1.76056 0.714432 0
M  V30 247 H 23.8696 -3.82932 -0.655382 0
M  V30 248 H 25.5416 -4.19018 1.92929 0
M  V30 249 H 23.7846 -3.91086 1.87709 0
M  V30 250 H 24.4556 -5.39114 1.18573 0
M  V30 251 H 26.9316 -4.15095 -0.288982 0
M  V30 252 H 25.8076 -5.42695 -0.823013 0
M  V30 253 H 26.0686 -4.01945 -1.841 0
M  V30 254 N 25.1277 -0.289203 -1.54924 0
M  V30 255 C 26.3527 0.329299 -2.04769 0
M  V30 256 C 26.7777 1.4763 -1.16564 0
M  V30 257 O 26.1357 1.80527 -0.167186 0
M  V30 258 C 26.1837 0.774438 -3.52186 0
M  V30 259 O 25.2877 1.88038 -3.67036 0
M  V30 260 H 24.6287 0.0659259 -0.660719 0
M  V30 261 H 27.1587 -0.42761 -2.00082 0
M  V30 262 H 27.1687 1.06642 -3.93816 0
M  V30 263 H 25.8437 -0.0646707 -4.1585 0
M  V30 264 H 24.4207 1.58985 -3.3731 0
M  V30 265 N 26.6058 1.57591 -0.0167156 0
M  V30 266 C 28.0168 1.79201 0.523834 0
M  V30 267 C 28.3678 0.925796 1.72984 0
M  V30 268 O 27.4928 0.132792 2.15992 0
M  V30 269 C 28.0878 3.25 0.957091 0
M  V30 270 C 26.6468 3.47648 1.44283 0
M  V30 271 C 25.7938 2.74374 0.401757 0
M  V30 272 H 28.7448 1.56831 -0.242816 0
M  V30 273 H 28.7658 3.34031 1.82219 0
M  V30 274 H 28.2778 3.88019 0.0791415 0
M  V30 275 H 26.3788 2.89866 2.34113 0
M  V30 276 H 26.4918 4.56352 1.45877 0
M  V30 277 H 24.8558 2.39485 0.867121 0
M  V30 278 H 25.6388 3.40102 -0.467513 0
M  V30 279 N 28.0839 -0.256276 1.55502 0
M  V30 280 C 28.9939 -1.33882 1.92647 0
M  V30 281 C 30.0099 -1.53159 0.825727 0
M  V30 282 O 31.1859 -1.66963 1.12629 0
M  V30 283 C 28.2509 -2.6751 2.20543 0
M  V30 284 C 27.3119 -2.56836 3.43997 0
M  V30 285 C 26.5449 -3.84092 3.70553 0
M  V30 286 O 26.7679 -4.85545 2.99336 0
M  V30 287 O 25.7019 -3.83288 4.64084 0
M  V30 288 H 29.5279 -1.05374 2.84833 0
M  V30 289 H 27.1129 -0.456237 1.42263 0
M  V30 290 H 28.9949 -3.46492 2.39835 0
M  V30 291 H 27.6699 -2.9577 1.31536 0
M  V30 292 H 26.5769 -1.76172 3.30021 0
M  V30 293 H 27.9099 -2.33523 4.33275 0
M  V30 294 N 29.562 -1.4872 -0.521534 0
M  V30 295 C 30.525 -1.63379 -1.60748 0
M  V30 296 C 31.525 -0.50661 -1.52611 0
M  V30 297 O 32.715 -0.772601 -1.5613 0
M  V30 298 C 29.847 -1.61192 -3.00383 0
M  V30 299 H 31.04 -2.60217 -1.49087 0
M  V30 300 H 28.593 -1.37444 -0.744235 0
M  V30 301 H 29.328 -0.65863 -3.17541 0
M  V30 302 H 29.113 -2.43032 -3.07698 0
M  V30 303 H 30.603 -1.7466 -3.7932 0
M  V30 304 N 31.0401 0.771051 -1.3745 0
M  V30 305 C 32.0031 1.86598 -1.33093 0
M  V30 306 C 33.0031 1.59076 -0.234845 0
M  V30 307 O 34.1931 1.67145 -0.490732 0
M  V30 308 C 31.3251 3.23747 -1.06773 0
M  V30 309 H 32.5181 1.91873 -2.30488 0
M  V30 310 H 30.0711 0.970876 -1.2249 0
M  V30 311 H 30.8061 3.24148 -0.099129 0
M  V30 312 H 30.5911 3.45115 -1.86112 0
M  V30 313 H 32.0811 4.03824 -1.06377 0
M  V30 314 N 32.5182 1.22032 0.997298 0
M  V30 315 C 33.7432 1.06921 1.77715 0
M  V30 316 C 34.1682 -0.376226 1.84299 0
M  V30 317 O 33.5262 -1.27165 1.29223 0
M  V30 318 C 33.5742 1.67996 3.19076 0
M  V30 319 O 32.6782 0.930653 4.01762 0
M  V30 320 H 32.0192 0.375814 0.547412 0
M  V30 321 H 34.5492 1.61737 1.25309 0
M  V30 322 H 34.5592 1.72538 3.69723 0
M  V30 323 H 33.2342 2.73182 3.13599 0
M  V30 324 H 31.8112 0.960917 3.60307 0
M  V30 325 N 33.9963 -1.19345 1.0293 0
M  V30 326 C 35.2423 -1.89585 0.736824 0
M  V30 327 C 35.5973 -1.78148 -0.726703 0
M  V30 328 O 34.8903 -1.16332 -1.52242 0
M  V30 329 C 35.0843 -3.39292 1.12319 0
M  V30 330 C 34.9133 -3.65298 2.62273 0
M  V30 331 C 33.6833 -3.83304 3.29251 0
M  V30 332 C 35.8813 -3.6682 3.60482 0
M  V30 333 N 33.8633 -3.96944 4.68304 0
M  V30 334 C 35.2343 -3.86037 4.85155 0
M  V30 335 C 37.2893 -3.49848 3.54275 0
M  V30 336 C 35.9923 -3.9004 6.04369 0
M  V30 337 C 38.0183 -3.55129 4.72903 0
M  V30 338 C 37.3803 -3.74831 5.9639 0
M  V30 339 H 33.4793 -0.712856 0.321497 0
M  V30 340 H 36.0633 -1.43427 1.31669 0
M  V30 341 H 34.2343 -3.84172 0.571524 0
M  V30 342 H 35.9663 -3.97055 0.78292 0
M  V30 343 H 32.7213 -3.82211 2.79663 0
M  V30 344 H 33.1453 -4.07613 5.40538 0
M  V30 345 H 37.7873 -3.33572 2.59788 0
M  V30 346 H 35.5053 -4.05108 6.99223 0
M  V30 347 H 39.0913 -3.43287 4.69729 0
M  V30 348 H 37.9713 -3.78792 6.86649 0
M  V30 349 N 35.4744 -0.807222 -1.35358 0
M  V30 350 C 36.4374 -0.223665 -2.28106 0
M  V30 351 C 37.4374 0.589354 -1.4961 0
M  V30 352 O 38.6274 0.407745 -1.69361 0
M  V30 353 C 35.7594 0.688149 -3.33882 0
M  V30 354 H 36.9524 -1.04169 -2.81227 0
M  V30 355 H 34.5054 -0.577921 -1.45223 0
M  V30 356 H 35.2404 1.52984 -2.85948 0
M  V30 357 H 35.0254 0.10687 -3.91954 0
M  V30 358 H 36.5154 1.09075 -4.03104 0
M  V30 359 N 36.9525 1.47285 -0.560781 0
M  V30 360 C 37.8845 2.28118 0.222438 0
M  V30 361 C 38.8975 1.37219 0.876056 0
M  V30 362 O 40.0865 1.62011 0.749307 0
M  V30 363 C 37.1865 3.1159 1.33285 0
M  V30 364 C 36.3595 4.30473 0.77534 0
M  V30 365 C 35.4185 4.95513 1.77069 0
M  V30 366 O 34.4445 5.53792 1.31539 0
M  V30 367 N 35.6465 4.90531 3.10418 0
M  V30 368 H 38.4115 2.95976 -0.470958 0
M  V30 369 H 35.9725 1.56955 -0.39709 0
M  V30 370 H 37.9645 3.51967 1.99752 0
M  V30 371 H 36.5345 2.45951 1.92943 0
M  V30 372 H 35.7545 3.94144 -0.0662113 0
M  V30 373 H 37.0425 5.07362 0.382272 0
M  V30 374 H 36.4405 4.44389 3.5005 0
M  V30 375 H 34.9975 5.34917 3.72434 0
M  V30 376 N 38.4306 0.297415 1.54768 0
M  V30 377 C 39.6786 -0.312295 1.99673 0
M  V30 378 C 39.9996 -1.54686 1.18732 0
M  V30 379 O 39.2696 -1.93854 0.282382 0
M  V30 380 H 37.8496 -0.118381 0.73756 0
M  V30 381 H 40.5116 0.407915 1.90583 0
M  V30 382 H 39.6076 -0.586813 3.06534 0
M  V30 383 N 39.9087 -1.5758 0.0250728 0
M  V30 384 C 41.1577 -1.90811 -0.653767 0
M  V30 385 C 41.4707 -0.90273 -1.73523 0
M  V30 386 O 42.6767 -1.12614 -2.47043 0
M  V30 387 C 41.1327 -3.38804 -1.21409 0
M  V30 388 C 40.7407 -4.47692 -0.166126 0
M  V30 389 C 42.4847 -3.81108 -1.86967 0
M  V30 390 C 40.3917 -5.86779 -0.737856 0
M  V30 391 H 39.3217 -0.712063 -0.247956 0
M  V30 392 H 41.9727 -1.83281 0.0897137 0
M  V30 393 H 40.3547 -3.41252 -2.00905 0
M  V30 394 H 41.5287 -4.56797 0.606079 0
M  V30 395 H 39.8437 -4.14565 0.390466 0
M  V30 396 H 42.4407 -4.82375 -2.30692 0
M  V30 397 H 42.7837 -3.15953 -2.71071 0
M  V30 398 H 43.3167 -3.81065 -1.14167 0
M  V30 399 H 40.0557 -6.55468 0.0649577 0
M  V30 400 H 39.5757 -5.81288 -1.47864 0
M  V30 401 H 41.2547 -6.35223 -1.22884 0
M  V30 402 N 41.3868 0.248026 -1.55636 0
M  V30 403 C 42.3168 1.31079 -1.93237 0
M  V30 404 C 43.2978 1.50264 -0.797174 0
M  V30 405 O 44.4828 1.62891 -1.05737 0
M  V30 406 C 41.6128 2.66575 -2.22609 0
M  V30 407 C 40.5668 2.62087 -3.3837 0
M  V30 408 C 39.8928 4.01369 -3.53281 0
M  V30 409 C 41.1928 2.19171 -4.7409 0
M  V30 410 H 42.8868 0.998556 -2.82257 0
M  V30 411 H 40.4328 0.47891 -1.35803 0
M  V30 412 H 42.3858 3.41057 -2.47503 0
M  V30 413 H 41.1098 2.99432 -1.30414 0
M  V30 414 H 39.7688 1.90063 -3.13483 0
M  V30 415 H 39.4168 4.31489 -2.58508 0
M  V30 416 H 39.1168 3.99254 -4.31127 0
M  V30 417 H 40.6408 4.77552 -3.80495 0
M  V30 418 H 42.0548 2.83384 -4.98363 0
M  V30 419 H 40.4518 2.2817 -5.5503 0
M  V30 420 H 41.5218 1.14336 -4.71227 0
M  V30 421 N 42.8649 1.48995 0.513639 0
M  V30 422 C 44.1129 1.57531 1.26604 0
M  V30 423 C 44.4339 0.258236 1.93283 0
M  V30 424 O 43.7039 -0.721502 1.8213 0
M  V30 425 H 42.2839 0.580387 0.470276 0
M  V30 426 H 44.9459 1.85552 0.596373 0
M  V30 427 H 44.0419 2.36486 2.03669 0
M  V30 428 N 44.343 -0.763751 1.37857 0
M  V30 429 C 45.568 -1.55805 1.36893 0
M  V30 430 C 45.993 -1.88054 -0.0416135 0
M  V30 431 O 45.351 -1.49825 -1.02089 0
M  V30 432 C 45.399 -2.84012 2.22192 0
M  V30 433 O 44.503 -3.78732 1.63204 0
M  V30 434 H 43.844 -0.471638 0.46739 0
M  V30 435 H 46.374 -0.944657 1.81487 0
M  V30 436 H 46.384 -3.33037 2.35691 0
M  V30 437 H 45.059 -2.59869 3.24716 0
M  V30 438 H 43.636 -3.37402 1.58791 0
M  V30 439 N 45.8211 -1.22559 -0.990812 0
M  V30 440 C 47.0461 -1.07862 -1.77145 0
M  V30 441 C 47.4711 0.366447 -1.84496 0
M  V30 442 O 46.8291 1.26478 -1.29896 0
M  V30 443 C 46.8771 -1.69686 -3.18181 0
M  V30 444 O 45.9811 -0.951946 -4.01263 0
M  V30 445 H 45.3221 -0.378712 -0.545411 0
M  V30 446 H 47.8521 -1.62399 -1.2445 0
M  V30 447 H 47.8621 -1.74496 -3.68802 0
M  V30 448 H 46.5371 -2.74841 -3.12146 0
M  V30 449 H 45.1141 -0.980011 -3.59792 0
M  V30 450 N 47.2992 1.18797 -1.03562 0
M  V30 451 C 48.5242 1.9314 -0.755764 0
M  V30 452 C 48.9492 1.7537 0.68022 0
M  V30 453 O 48.3072 1.06046 1.47051 0
M  V30 454 C 48.3552 3.42747 -1.12058 0
M  V30 455 O 47.4592 4.11683 -0.243124 0
M  V30 456 H 46.8002 0.602724 -0.278604 0
M  V30 457 H 49.3302 1.50678 -1.3841 0
M  V30 458 H 49.3402 3.93437 -1.08035 0
M  V30 459 H 48.0152 3.55002 -2.16672 0
M  V30 460 H 46.5922 3.71323 -0.342539 0
M  V30 461 N 48.7773 0.814389 1.34928 0
M  V30 462 C 50.0023 0.410097 2.03305 0
M  V30 463 C 50.4273 -0.973464 1.60951 0
M  V30 464 O 49.7853 -1.63185 0.789964 0
M  V30 465 C 49.8333 0.51049 3.56968 0
M  V30 466 O 48.9373 -0.473035 4.09678 0
M  V30 467 H 48.2783 0.170088 0.641846 0
M  V30 468 H 50.8083 1.10244 1.72358 0
M  V30 469 H 50.8183 0.383135 4.06197 0
M  V30 470 H 49.4933 1.51963 3.87144 0
M  V30 471 H 48.0703 -0.305272 3.71648 0
M  V30 472 N 50.2554 -1.46986 0.568584 0
M  V30 473 C 51.4804 -2.07335 0.0520528 0
M  V30 474 C 51.9054 -1.41675 -1.23733 0
M  V30 475 O 51.2634 -0.495623 -1.74394 0
M  V30 476 C 51.3114 -3.60417 -0.11501 0
M  V30 477 O 50.4154 -3.95309 -1.17492 0
M  V30 478 H 49.7564 -0.661597 0.0564385 0
M  V30 479 H 52.2864 -1.88837 0.787507 0
M  V30 480 H 52.2964 -4.06698 -0.325644 0
M  V30 481 H 50.9714 -4.07601 0.826675 0
M  V30 482 H 49.5484 -3.60757 -0.943869 0
M  V30 483 N 51.7335 -0.305618 -1.54608 0
M  V30 484 C 52.9635 0.304333 -2.04346 0
M  V30 485 C 53.3715 1.47715 -1.18224 0
M  V30 486 O 52.7145 1.82591 -0.201577 0
M  V30 487 C 52.7765 0.819031 -3.50046 0
M  V30 488 C 52.4405 -0.22912 -4.56425 0
M  V30 489 C 53.4375 -1.05914 -5.08997 0
M  V30 490 C 51.1225 -0.372148 -5.0092 0
M  V30 491 C 53.1165 -2.01809 -6.04609 0
M  V30 492 C 50.8035 -1.33454 -5.9635 0
M  V30 493 C 51.8015 -2.15599 -6.48079 0
M  V30 494 O 51.4895 -3.10205 -7.41639 0
M  V30 495 H 51.2215 0.0693996 -0.672428 0
M  V30 496 H 53.7755 -0.444548 -2.00532 0
M  V30 497 H 52.0055 1.61852 -3.51199 0
M  V30 498 H 53.6945 1.34537 -3.82955 0
M  V30 499 H 54.4605 -0.959538 -4.75413 0
M  V30 500 H 50.3395 0.257304 -4.60281 0
M  V30 501 H 53.8835 -2.65966 -6.44909 0
M  V30 502 H 49.7805 -1.43485 -6.29351 0
M  V30 503 H 50.5485 -3.05237 -7.59455 0
M  V30 504 N 53.2116 1.57565 -0.0334293 0
M  V30 505 C 54.1416 2.13511 0.945265 0
M  V30 506 C 55.1226 1.05231 1.33643 0
M  V30 507 O 56.3076 1.33084 1.41429 0
M  V30 508 C 53.4376 2.6657 2.22616 0
M  V30 509 C 52.3916 3.79676 1.97561 0
M  V30 510 C 51.7176 4.1918 3.31952 0
M  V30 511 C 53.0176 5.0557 1.31135 0
M  V30 512 H 54.7116 2.95538 0.479325 0
M  V30 513 H 52.2576 1.42166 0.229115 0
M  V30 514 H 54.2106 3.04344 2.91466 0
M  V30 515 H 52.9346 1.8171 2.71384 0
M  V30 516 H 51.5936 3.42347 1.31127 0
M  V30 517 H 51.2416 3.31296 3.78487 0
M  V30 518 H 50.9416 4.95402 3.15992 0
M  V30 519 H 52.4656 4.59541 4.02063 0
M  V30 520 H 53.8796 5.40903 1.89992 0
M  V30 521 H 52.2766 5.86818 1.25559 0
M  V30 522 H 53.3466 4.84062 0.284894 0
M  V30 523 N 54.6897 -0.239769 1.55765 0
M  V30 524 C 55.6527 -1.28038 1.90103 0
M  V30 525 C 56.6527 -1.40723 0.778055 0
M  V30 526 O 57.8427 -1.39301 1.04599 0
M  V30 527 C 54.9747 -2.65702 2.13577 0
M  V30 528 H 56.1677 -0.988048 2.83157 0
M  V30 529 H 53.7207 -0.479382 1.48767 0
M  V30 530 H 54.4557 -3.00063 1.23015 0
M  V30 531 H 54.2407 -2.57875 2.95369 0
M  V30 532 H 55.7307 -3.40828 2.41301 0
M  V30 533 N 56.1678 -1.49265 -0.50573 0
M  V30 534 C 57.3928 -1.62478 -1.28902 0
M  V30 535 C 57.8178 -0.294332 -1.85783 0
M  V30 536 O 57.1758 0.737412 -1.65626 0
M  V30 537 C 57.2238 -2.69268 -2.39848 0
M  V30 538 O 56.3278 -2.28113 -3.43567 0
M  V30 539 H 55.6688 -0.54399 -0.380751 0
M  V30 540 H 58.1988 -1.95421 -0.605952 0
M  V30 541 H 58.2088 -2.91291 -2.85681 0
M  V30 542 H 56.8838 -3.65846 -1.97812 0
M  V30 543 H 55.4608 -2.16401 -3.03685 0
M  V30 544 N 57.6459 0.756429 -1.3826 0
M  V30 545 C 58.8949 1.51082 -1.3363 0
M  V30 546 C 59.2079 1.95467 0.0720068 0
M  V30 547 O 60.4139 2.7043 0.240834 0
M  V30 548 C 58.8699 2.72893 -2.34644 0
M  V30 549 C 58.4779 2.35544 -3.81081 0
M  V30 550 C 60.2219 3.50791 -2.39052 0
M  V30 551 C 58.1289 3.53948 -4.73787 0
M  V30 552 H 57.0589 0.56727 -0.49671 0
M  V30 553 H 59.7099 0.827147 -1.638 0
M  V30 554 H 58.0919 3.43227 -1.97513 0
M  V30 555 H 59.2659 1.72894 -4.27135 0
M  V30 556 H 57.5809 1.70786 -3.79764 0
M  V30 557 H 60.1779 4.38823 -3.05513 0
M  V30 558 H 60.5209 3.91745 -1.40861 0
M  V30 559 H 61.0539 2.87467 -2.74968 0
M  V30 560 H 57.7929 3.18064 -5.73163 0
M  V30 561 H 57.3129 4.15651 -4.32428 0
M  V30 562 H 58.9919 4.20566 -4.91663 0
M  V30 563 N 59.124 1.23083 0.984299 0
M  V30 564 C 60.087 1.00979 2.05757 0
M  V30 565 C 61.087 -0.0269573 1.60777 0
M  V30 566 O 62.277 0.212403 1.729 0
M  V30 567 C 59.409 0.527072 3.36801 0
M  V30 568 H 60.602 1.9622 2.26799 0
M  V30 569 H 58.155 1.05072 1.15714 0
M  V30 570 H 58.89 -0.429294 3.21446 0
M  V30 571 H 58.675 1.27515 3.70786 0
M  V30 572 H 60.165 0.392942 4.15747 0
M  V30 573 N 60.6021 -1.18246 1.0419 0
M  V30 574 C 61.8271 -1.92736 0.765996 0
M  V30 575 C 62.2521 -1.75728 -0.67091 0
M  V30 576 O 61.6101 -1.06825 -1.46486 0
M  V30 577 C 61.6581 -3.42148 1.13875 0
M  V30 578 O 60.7621 -4.11548 0.264954 0
M  V30 579 H 60.1031 -0.601238 0.281797 0
M  V30 580 H 62.6331 -1.49942 1.39207 0
M  V30 581 H 62.6431 -3.92858 1.1012 0
M  V30 582 H 61.3181 -3.53848 2.18551 0
M  V30 583 H 59.8951 -3.71137 0.362226 0
M  V30 584 N 62.0802 -0.821533 -1.34494 0
M  V30 585 C 63.3262 -0.418729 -1.99043 0
M  V30 586 C 63.6812 1.00672 -1.6396 0
M  V30 587 O 62.9742 1.69132 -0.900271 0
M  V30 588 C 63.1682 -0.556512 -3.53041 0
M  V30 589 C 62.9972 -1.9938 -4.03085 0
M  V30 590 C 61.7672 -2.62539 -4.31742 0
M  V30 591 C 63.9652 -2.96035 -4.20556 0
M  V30 592 N 61.9472 -3.97523 -4.67813 0
M  V30 593 C 63.3182 -4.15924 -4.59791 0
M  V30 594 C 65.3732 -2.9267 -4.02801 0
M  V30 595 C 64.0762 -5.32899 -4.83126 0
M  V30 596 C 66.1022 -4.08861 -4.27302 0
M  V30 597 C 65.4642 -5.275 -4.66822 0
M  V30 598 H 61.5632 -0.201299 -0.755647 0
M  V30 599 H 64.1472 -1.06594 -1.62929 0
M  V30 600 H 62.3182 0.0607924 -3.88352 0
M  V30 601 H 64.0502 -0.126842 -4.04501 0
M  V30 602 H 60.8052 -2.13789 -4.22601 0
M  V30 603 H 61.2292 -4.67061 -4.90085 0
M  V30 604 H 65.8712 -2.02088 -3.71376 0
M  V30 605 H 63.5892 -6.24041 -5.13418 0
M  V30 606 H 67.1752 -4.07654 -4.15101 0
M  V30 607 H 66.0552 -6.15913 -4.85408 0
M  V30 608 N 63.5583 1.46682 -0.576371 0
M  V30 609 C 64.5213 2.28707 0.150239 0
M  V30 610 C 65.5213 1.38035 0.824794 0
M  V30 611 O 66.7113 1.60476 0.677719 0
M  V30 612 C 63.8433 3.18248 1.22192 0
M  V30 613 H 65.0363 2.94423 -0.570521 0
M  V30 614 H 62.5893 1.52688 -0.334078 0
M  V30 615 H 63.3243 2.57265 1.97447 0
M  V30 616 H 63.1093 3.85 0.742812 0
M  V30 617 H 64.5993 3.80001 1.73172 0
M  V30 618 N 65.0364 0.313813 1.54444 0
M  V30 619 C 66.3134 -0.345447 1.92525 0
M  V30 620 C 66.6934 -1.70667 1.24242 0
M  V30 621 O 66.0414 -2.25273 0.382654 0
M  V30 622 C 66.2514 -0.44737 3.46121 0
M  V30 623 C 67.5994 -0.712238 4.18584 0
M  V30 624 O 68.6234 -0.530678 3.52225 0
M  V30 625 O 67.4824 -1.06183 5.36085 0
M  V30 626 H 64.5764 -0.195407 0.803583 0
M  V30 627 H 67.1224 0.362813 1.65776 0
M  V30 628 H 65.8944 0.509043 3.87975 0
M  V30 629 H 65.5174 -1.20359 3.78945 0
M  V30 630 N 66.5145 -1.57545 0.0417849 0
M  V30 631 C 67.4245 -2.14451 -0.951213 0
M  V30 632 C 68.4405 -1.09992 -1.34825 0
M  V30 633 O 69.6165 -1.42114 -1.42708 0
M  V30 634 C 66.6815 -2.67063 -2.21084 0
M  V30 635 C 65.7425 -3.86284 -1.87304 0
M  V30 636 C 64.9755 -4.36378 -3.07261 0
M  V30 637 O 65.1985 -3.85587 -4.20332 0
M  V30 638 O 64.1325 -5.28077 -2.88822 0
M  V30 639 H 67.9585 -2.99601 -0.497287 0
M  V30 640 H 65.5435 -1.48317 -0.179567 0
M  V30 641 H 67.4255 -3.00914 -2.95006 0
M  V30 642 H 66.1005 -1.84989 -2.65633 0
M  V30 643 H 65.0075 -3.57338 -1.10727 0
M  V30 644 H 66.3405 -4.6956 -1.47562 0
M  V30 645 N 67.9926 0.231505 -1.5589 0
M  V30 646 C 69.2226 0.973092 -1.82248 0
M  V30 647 C 69.6306 1.78845 -0.617328 0
M  V30 648 O 68.9736 1.78752 0.423499 0
M  V30 649 C 69.0356 1.94732 -3.02192 0
M  V30 650 C 68.6996 1.31743 -4.37599 0
M  V30 651 C 69.6966 0.712238 -5.14998 0
M  V30 652 C 67.3816 1.33218 -4.84312 0
M  V30 653 C 69.3756 0.130195 -6.37267 0
M  V30 654 C 67.0626 0.746286 -6.06526 0
M  V30 655 C 68.0606 0.146337 -6.82843 0
M  V30 656 O 67.7486 -0.430465 -8.02747 0
M  V30 657 H 67.4806 0.29125 -0.61004 0
M  V30 658 H 70.0346 0.254915 -2.03812 0
M  V30 659 H 68.2646 2.70422 -2.76422 0
M  V30 660 H 69.9536 2.55362 -3.15508 0
M  V30 661 H 70.7196 0.69324 -4.8002 0
M  V30 662 H 66.5986 1.78854 -4.24891 0
M  V30 663 H 70.1426 -0.33871 -6.96777 0
M  V30 664 H 66.0396 0.762663 -6.40979 0
M  V30 665 H 66.8076 -0.323818 -8.17859 0
M  V30 666 N 69.4707 1.49531 0.497807 0
M  V30 667 C 70.8867 1.36365 0.829266 0
M  V30 668 C 71.0867 0.399184 1.97506 0
M  V30 669 O 70.1427 -0.167977 2.51941 0
M  V30 670 C 71.4557 2.77153 1.16647 0
M  V30 671 C 73.0037 2.85877 1.27449 0
M  V30 672 C 73.4787 4.2744 1.64497 0
M  V30 673 N 74.9697 4.30265 1.7154 0
M  V30 674 C 75.7047 5.3677 2.01656 0
M  V30 675 N 75.2007 6.53516 2.29976 0
M  V30 676 N 76.9937 5.24189 2.02934 0
M  V30 677 H 69.1447 2.10831 -0.257703 0
M  V30 678 H 71.4077 0.946534 -0.0527091 0
M  V30 679 H 71.1137 3.49442 0.397872 0
M  V30 680 H 70.9877 3.12722 2.10915 0
M  V30 681 H 73.3747 2.13824 2.0338 0
M  V30 682 H 73.4557 2.53887 0.312244 0
M  V30 683 H 73.0997 5.00021 0.891151 0
M  V30 684 H 73.0297 4.56896 2.61827 0
M  V30 685 H 75.5207 3.4607 1.51802 0
M  V30 686 H 75.8337 7.30506 2.52153 0
M  V30 687 H 74.1787 6.56737 2.27425 0
M  V30 688 H 77.3697 4.31988 1.80289 0
M  V30 689 H 77.5427 6.07286 2.26071 0
M  V30 690 N 70.9488 -0.749086 1.3866 0
M  V30 691 C 71.8788 -1.8764 1.38973 0
M  V30 692 C 72.8598 -1.68178 0.255004 0
M  V30 693 O 74.0448 -1.88704 0.458754 0
M  V30 694 C 71.1748 -3.25222 1.21851 0
M  V30 695 C 70.1288 -3.59295 2.32575 0
M  V30 696 C 69.4548 -4.95663 2.00555 0
M  V30 697 C 70.7548 -3.63709 3.7485 0
M  V30 698 H 72.4488 -1.87635 2.3331 0
M  V30 699 H 69.9948 -0.901329 1.12303 0
M  V30 700 H 71.9478 -4.03746 1.20695 0
M  V30 701 H 70.6718 -3.25719 0.239775 0
M  V30 702 H 69.3308 -2.83093 2.32925 0
M  V30 703 H 68.9788 -4.92724 1.01154 0
M  V30 704 H 68.6788 -5.19429 2.74714 0
M  V30 705 H 70.2028 -5.7656 2.01024 0
M  V30 706 H 71.6168 -4.32338 3.76506 0
M  V30 707 H 70.0138 -3.98986 4.48252 0
M  V30 708 H 71.0838 -2.63834 4.06841 0
M  V30 709 N 72.4269 -1.23603 -0.977757 0
M  V30 710 C 73.6549 -1.09646 -1.75458 0
M  V30 711 C 74.0699 0.351859 -1.85492 0
M  V30 712 O 73.4269 1.24327 -1.336 0
M  V30 713 C 73.4779 -1.71895 -3.18016 0
M  V30 714 O 73.1989 -3.11063 -3.08498 0
M  V30 715 C 74.6999 -1.63415 -4.12081 0
M  V30 716 H 71.9199 -0.38359 -0.550545 0
M  V30 717 H 74.4639 -1.63507 -1.22824 0
M  V30 718 H 72.6189 -1.22061 -3.67668 0
M  V30 719 H 73.0329 -3.41305 -3.9826 0
M  V30 720 H 74.5069 -2.11669 -5.09804 0
M  V30 721 H 74.9839 -0.593462 -4.35172 0
M  V30 722 H 75.5899 -2.12628 -3.68334 0
M  V30 723 N 73.905 1.17692 -1.04816 0
M  V30 724 C 75.13 1.92327 -0.776207 0
M  V30 725 C 75.555 1.76082 0.661581 0
M  V30 726 O 74.913 1.076 1.45917 0
M  V30 727 C 74.961 3.41539 -1.15687 0
M  V30 728 O 74.065 4.11402 -0.286775 0
M  V30 729 H 73.406 0.599735 -0.284981 0
M  V30 730 H 75.936 1.49201 -1.4 0
M  V30 731 H 75.946 3.92269 -1.12202 0
M  V30 732 H 74.621 3.52684 -2.20425 0
M  V30 733 H 73.198 3.70939 -0.381903 0
M  V30 734 N 75.3831 0.828654 1.34056 0
M  V30 735 C 76.3461 0.259927 2.27721 0
M  V30 736 C 77.3461 -0.565478 1.50529 0
M  V30 737 O 78.5361 -0.38075 1.69988 0
M  V30 738 C 75.6681 -0.634944 3.34935 0
M  V30 739 H 76.8611 1.0863 2.79534 0
M  V30 740 H 74.4141 0.600951 1.44285 0
M  V30 741 H 75.1491 -1.48416 2.88346 0
M  V30 742 H 74.9341 -0.0444999 3.92075 0
M  V30 743 H 76.4241 -1.02648 4.04788 0
M  V30 744 N 76.8612 -1.46375 0.584142 0
M  V30 745 C 78.1092 -2.01978 0.0701287 0
M  V30 746 C 78.4302 -1.4579 -1.295 0
M  V30 747 O 77.7002 -0.64314 -1.85042 0
M  V30 748 H 76.2802 -0.746648 0.0229345 0
M  V30 749 H 78.9422 -1.79461 0.760245 0
M  V30 750 H 78.0382 -3.121 0.0022064 0
M  V30 751 N 78.3393 -0.321999 -1.54275 0
M  V30 752 C 79.2863 0.544664 -2.24281 0
M  V30 753 C 80.2563 1.1129 -1.23303 0
M  V30 754 O 81.4413 1.15354 -1.51981 0
M  V30 755 C 78.5813 1.70045 -3.00298 0
M  V30 756 C 77.6943 1.16159 -4.1609 0
M  V30 757 C 76.8293 2.28293 -4.79641 0
M  V30 758 C 75.8683 1.71648 -5.8754 0
M  V30 759 N 75.0053 2.77438 -6.44959 0
M  V30 760 H 79.8453 -0.0588907 -2.97942 0
M  V30 761 H 77.3823 -0.0408345 -1.47043 0
M  V30 762 H 79.3403 2.38054 -3.42616 0
M  V30 763 H 77.9703 2.27531 -2.28975 0
M  V30 764 H 77.0223 0.373092 -3.78566 0
M  V30 765 H 78.3343 0.707087 -4.93763 0
M  V30 766 H 77.4883 3.0421 -5.2492 0
M  V30 767 H 76.2273 2.77079 -4.01346 0
M  V30 768 H 75.2323 0.942282 -5.41665 0
M  V30 769 H 76.4573 1.23741 -6.67731 0
M  V30 770 H 74.4033 3.25519 -5.69538 0
M  V30 771 H 74.3203 2.36547 -7.1804 0
M  V30 772 H 75.5883 3.53189 -6.94894 0
M  V30 773 N 79.8174 1.5752 -0.0501392 0
M  V30 774 C 81.0634 1.93755 0.618901 0
M  V30 775 C 81.4184 0.928514 1.68512 0
M  V30 776 O 80.7114 -0.0524613 1.91528 0
M  V30 777 C 80.9054 3.34467 1.25963 0
M  V30 778 C 80.7344 4.48965 0.257 0
M  V30 779 C 79.5044 5.05075 -0.150656 0
M  V30 780 C 81.7024 5.11891 -0.497166 0
M  V30 781 N 79.6844 6.03104 -1.14626 0
M  V30 782 C 81.0554 6.05216 -1.34588 0
M  V30 783 C 83.1104 4.9479 -0.55559 0
M  V30 784 C 81.8134 6.83277 -2.24778 0
M  V30 785 C 83.8394 5.73477 -1.44492 0
M  V30 786 C 83.2014 6.66433 -2.28136 0
M  V30 787 H 79.3004 0.756479 0.198149 0
M  V30 788 H 81.8844 1.94316 -0.122229 0
M  V30 789 H 80.0554 3.34685 1.97079 0
M  V30 790 H 81.7874 3.57994 1.88739 0
M  V30 791 H 78.5424 4.7305 0.228094 0
M  V30 792 H 78.9664 6.56813 -1.64092 0
M  V30 793 H 83.6084 4.2273 0.0768625 0
M  V30 794 H 81.3264 7.54629 -2.89069 0
M  V30 795 H 84.9124 5.62273 -1.49468 0
M  V30 796 H 83.7924 7.26258 -2.95835 0
M  V30 797 N 81.2955 -0.223234 1.56011 0
M  V30 798 C 82.5205 -0.968978 1.83373 0
M  V30 799 C 82.9455 -1.77227 0.630254 0
M  V30 800 O 82.3035 -1.76345 -0.420959 0
M  V30 801 C 82.3515 -1.86363 3.08709 0
M  V30 802 O 81.4555 -2.95873 2.87285 0
M  V30 803 H 80.7965 -0.274461 0.604622 0
M  V30 804 H 83.3265 -0.237056 2.03222 0
M  V30 805 H 83.3365 -2.27376 3.38768 0
M  V30 806 H 82.0115 -1.27319 3.95933 0
M  V30 807 H 80.5885 -2.58818 2.68454 0
M  V30 808 N 82.7736 -1.49793 -0.48987 0
M  V30 809 C 83.7366 -1.66752 -1.57246 0
M  V30 810 C 84.7366 -0.538867 -1.51502 0
M  V30 811 O 85.9266 -0.805545 -1.54456 0
M  V30 812 C 83.0586 -1.67528 -2.96896 0
M  V30 813 H 84.2516 -2.63321 -1.43534 0
M  V30 814 H 81.8046 -1.38992 -0.714914 0
M  V30 815 H 82.5396 -0.725837 -3.16073 0
M  V30 816 H 82.3246 -2.49504 -3.02473 0
M  V30 817 H 83.8146 -1.82667 -3.7553 0
M  V30 818 N 84.2517 0.741722 -1.39055 0
M  V30 819 C 85.4767 1.53607 -1.39354 0
M  V30 820 C 85.9017 1.88096 0.0116905 0
M  V30 821 O 85.2597 1.5143 0.996924 0
M  V30 822 C 85.3077 2.80441 -2.26682 0
M  V30 823 O 84.4117 3.76088 -1.69208 0
M  V30 824 H 83.7527 0.464142 -0.474835 0
M  V30 825 H 86.2827 0.915665 -1.82967 0
M  V30 826 H 86.2927 3.29246 -2.40959 0
M  V30 827 H 84.9677 2.5467 -3.2881 0
M  V30 828 H 83.5447 3.34833 -1.64138 0
M  V30 829 N 85.7298 1.2412 0.971189 0
M  V30 830 C 86.6598 1.05508 2.08304 0
M  V30 831 C 87.6408 -0.0308864 1.70072 0
M  V30 832 O 88.8258 0.135521 1.93727 0
M  V30 833 C 85.9558 0.655365 3.4106 0
M  V30 834 C 84.9098 1.68971 3.93234 0
M  V30 835 C 84.2358 1.14516 5.22293 0
M  V30 836 C 85.5358 3.08487 4.21465 0
M  V30 837 H 87.2298 1.98507 2.24132 0
M  V30 838 H 84.7758 0.955821 1.07704 0
M  V30 839 H 86.7288 0.51217 4.18276 0
M  V30 840 H 85.4528 -0.31032 3.25122 0
M  V30 841 H 84.1118 1.82106 3.18171 0
M  V30 842 H 83.7598 0.170189 5.02712 0
M  V30 843 H 83.4598 1.83635 5.58168 0
M  V30 844 H 84.9838 1.01401 6.02121 0
M  V30 845 H 86.3978 2.98601 4.89398 0
M  V30 846 H 84.7948 3.74926 4.68562 0
M  V30 847 H 85.8648 3.56787 3.28376 0
M  V30 848 N 87.2079 -1.17134 1.05439 0
M  V30 849 C 88.1579 -2.1919 0.627675 0
M  V30 850 C 89.1419 -1.57328 -0.337147 0
M  V30 851 O 90.3339 -1.76329 -0.153976 0
M  V30 852 C 87.4629 -3.43299 0.00651435 0
M  V30 853 C 86.5489 -4.12255 0.995312 0
M  V30 854 N 86.9399 -4.56997 2.16765 0
M  V30 855 C 85.2379 -4.38316 0.824336 0
M  V30 856 C 85.9389 -5.10239 2.7934 0
M  V30 857 N 84.9149 -5.02595 2.07122 0
M  V30 858 H 88.7169 -2.5149 1.52086 0
M  V30 859 H 86.2309 -1.33491 0.924868 0
M  V30 860 H 88.2279 -4.15693 -0.316965 0
M  V30 861 H 86.8879 -3.1249 -0.882033 0
M  V30 862 H 87.8989 -4.51006 2.54587 0
M  V30 863 H 84.5759 -4.17498 -0.0129526 0
M  V30 864 H 85.9659 -5.54961 3.78772 0
M  V30 865 N 88.686 -0.835752 -1.33615 0
M  V30 866 C 89.933 -0.429959 -1.97883 0
M  V30 867 C 90.261 1.01006 -1.66217 0
M  V30 868 O 89.516 1.72047 -0.93265 0
M  V30 869 C 89.815 -0.593925 -3.52431 0
M  V30 870 C 89.481 -2.00158 -4.04039 0
M  V30 871 C 88.143 -2.38662 -4.17844 0
M  V30 872 C 90.495 -2.92117 -4.31644 0
M  V30 873 C 87.823 -3.68435 -4.56588 0
M  V30 874 C 90.175 -4.21368 -4.71838 0
M  V30 875 C 88.839 -4.59833 -4.83849 0
M  V30 876 H 88.109 -0.157333 -0.724104 0
M  V30 877 H 90.756 -1.06217 -1.59343 0
M  V30 878 H 89.061 0.121619 -3.91611 0
M  V30 879 H 90.758 -0.260282 -4.00154 0
M  V30 880 H 87.348 -1.69252 -3.93766 0
M  V30 881 H 91.532 -2.63608 -4.20505 0
M  V30 882 H 86.788 -3.98046 -4.64079 0
M  V30 883 H 90.962 -4.92703 -4.92155 0
M  V30 884 H 88.589 -5.60438 -5.13627 0
M  V30 885 N 90.1641 1.46063 -0.591896 0
M  V30 886 C 91.4131 2.01547 -0.0786637 0
M  V30 887 C 91.7261 1.46796 1.29268 0
M  V30 888 O 92.9321 1.94157 1.89777 0
M  V30 889 C 91.3881 3.59787 -0.0900024 0
M  V30 890 C 90.9961 4.23534 -1.46023 0
M  V30 891 C 92.7401 4.22895 0.368806 0
M  V30 892 C 90.6471 5.73881 -1.4288 0
M  V30 893 H 89.5771 0.753564 -0.0256388 0
M  V30 894 H 92.2281 1.677 -0.744905 0
M  V30 895 H 90.6101 3.90752 0.642586 0
M  V30 896 H 91.7841 4.04167 -2.21328 0
M  V30 897 H 90.0991 3.72558 -1.85982 0
M  V30 898 H 92.6961 5.33116 0.411258 0
M  V30 899 H 93.0391 3.9247 1.38827 0
M  V30 900 H 93.5721 3.9659 -0.31001 0
M  V30 901 H 90.3111 6.0898 -2.42536 0
M  V30 902 H 89.8311 5.95486 -0.718095 0
M  V30 903 H 91.5101 6.36776 -1.14565 0
M  V30 904 N 91.6422 0.330177 1.54103 0
M  V30 905 C 92.9192 -0.325007 1.92881 0
M  V30 906 C 93.2992 -1.6934 1.26045 0
M  V30 907 O 92.6472 -2.24855 0.406526 0
M  V30 908 C 92.8572 -0.410634 3.46576 0
M  V30 909 C 94.2052 -0.667801 4.19316 0
M  V30 910 O 95.2292 -0.49329 3.52768 0
M  V30 911 O 94.0882 -1.00491 5.37181 0
M  V30 912 H 91.1822 -0.186873 0.80561 0
M  V30 913 H 93.7282 0.380376 1.65382 0
M  V30 914 H 92.5002 0.550164 3.87413 0
M  V30 915 H 92.1232 -1.16333 3.802 0
M  V30 916 N 93.1203 -1.57491 0.0584922 0
M  V30 917 C 94.0833 -2.1085 -0.898617 0
M  V30 918 C 95.0833 -1.02964 -1.23511 0
M  V30 919 O 96.2733 -1.29007 -1.17059 0
M  V30 920 C 93.4053 -2.59881 -2.20623 0
M  V30 921 H 94.5983 -2.96715 -0.435936 0
M  V30 922 H 92.1513 -1.55141 -0.190023 0
M  V30 923 H 92.8863 -1.77431 -2.71457 0
M  V30 924 H 92.6713 -3.38727 -1.97501 0
M  V30 925 H 94.1613 -3.01285 -2.89166 0
M  V30 926 N 94.5984 0.214957 -1.56127 0
M  V30 927 C 95.5084 1.28727 -1.96129 0
M  V30 928 C 96.5244 1.50916 -0.866044 0
M  V30 929 O 97.7004 1.63918 -1.17016 0
M  V30 930 C 94.7654 2.61569 -2.27558 0
M  V30 931 C 93.8264 2.47625 -3.50685 0
M  V30 932 C 93.0594 3.74132 -3.80606 0
M  V30 933 O 93.2824 4.77438 -3.12104 0
M  V30 934 O 92.2164 3.70849 -4.74083 0
M  V30 935 H 96.0424 0.977855 -2.87527 0
M  V30 936 H 93.6274 0.418358 -1.43423 0
M  V30 937 H 95.5094 3.40012 -2.48938 0
M  V30 938 H 94.1844 2.92178 -1.39332 0
M  V30 939 H 93.0914 1.67361 -3.34576 0
M  V30 940 H 94.4244 2.21954 -4.39315 0
M  V30 941 N 96.0765 1.50051 0.48192 0
M  V30 942 C 97.3535 1.51009 1.2432 0
M  V30 943 C 97.7335 0.248587 2.09631 0
M  V30 944 O 97.0815 -0.768409 2.15192 0
M  V30 945 C 97.2915 2.79981 2.08355 0
M  V30 946 C 98.6395 3.3022 2.66908 0
M  V30 947 O 99.6635 2.81228 2.18607 0
M  V30 948 O 98.5225 4.15595 3.54884 0
M  V30 949 H 95.6165 0.605239 0.563573 0
M  V30 950 H 98.1625 1.62332 0.494627 0
M  V30 951 H 96.9345 3.63275 1.45419 0
M  V30 952 H 96.5575 2.7161 2.90368 0
M  V30 953 N 97.5546 -0.734337 1.39446 0
M  V30 954 C 98.5026 -1.86971 1.38364 0
M  V30 955 C 99.4966 -1.67288 0.266687 0
M  V30 956 O 100.703 -1.74621 0.436755 0
M  V30 957 H 97.0776 -0.615474 0.432082 0
M  V30 958 H 99.0486 -1.85 2.34132 0
M  V30 959 C 97.7976 -3.2466 1.24465 0
M  V30 960 H 97.1206 -3.40402 2.09682 0
M  V30 961 H 98.5606 -4.04292 1.27764 0
M  V30 962 C 97.0196 -3.36867 -0.0468674 0
M  V30 963 O 97.5496 -3.88618 -1.01681 0
M  V30 964 N 95.7556 -2.90391 -0.110145 0
M  V30 965 H 95.3026 -2.48466 0.679868 0
M  V30 966 H 95.2606 -2.98939 -0.973799 0
M  V30 967 N 99.0327 -1.24633 -0.964593 0
M  V30 968 C 100.444 -1.08045 -1.5226 0
M  V30 969 C 100.795 0.347116 -1.93105 0
M  V30 970 O 99.9197 1.23588 -1.77637 0
M  V30 971 C 100.515 -1.95514 -2.76695 0
M  V30 972 C 99.0737 -1.8314 -3.28841 0
M  V30 973 C 98.2207 -1.90262 -2.01732 0
M  V30 974 H 101.172 -1.38064 -0.782553 0
M  V30 975 H 101.193 -1.48925 -3.50145 0
M  V30 976 H 100.705 -2.99407 -2.46936 0
M  V30 977 H 98.8057 -0.82092 -3.63444 0
M  V30 978 H 98.9187 -2.67406 -3.97531 0
M  V30 979 H 97.2827 -1.34027 -2.16584 0
M  V30 980 H 98.0657 -2.9574 -1.74334 0
M  V30 981 N 100.511 1.16574 -1.06058 0
M  V30 982 C 101.922 1.68662 -0.800632 0
M  V30 983 C 102.273 1.84184 0.67608 0
M  V30 984 O 101.398 1.53568 1.52466 0
M  V30 985 C 101.993 3.06356 -1.44676 0
M  V30 986 C 100.552 3.55575 -1.23465 0
M  V30 987 C 99.6988 2.31616 -1.52477 0
M  V30 988 H 102.65 1.00969 -1.22438 0
M  V30 989 H 102.671 3.70636 -0.860788 0
M  V30 990 H 102.183 2.95027 -2.52152 0
M  V30 991 H 100.284 3.72167 -0.179527 0
M  V30 992 H 100.397 4.37812 -1.94571 0
M  V30 993 H 98.7608 2.36512 -0.945209 0
M  V30 994 H 99.5438 2.22887 -2.61106 0
M  V30 995 N 101.989 0.842826 1.3317 0
M  V30 996 C 103.217 0.454055 2.01856 0
M  V30 997 C 103.632 -0.94587 1.63397 0
M  V30 998 O 102.989 -1.61534 0.849302 0
M  V30 999 C 103.04 0.569715 3.56982 0
M  V30 1000 O 102.761 1.91448 3.94055 0
M  V30 1001 C 104.262 0.178412 4.42941 0
M  V30 1002 H 101.482 0.17979 0.646465 0
M  V30 1003 H 104.026 1.1365 1.70012 0
M  V30 1004 H 102.181 -0.0648587 3.87346 0
M  V30 1005 H 102.595 1.90282 4.88767 0
M  V30 1006 H 104.069 0.310376 5.51127 0
M  V30 1007 H 104.546 -0.880056 4.30293 0
M  V30 1008 H 105.152 0.787579 4.17944 0
M  V30 1009 N 103.467 -1.45747 0.599634 0
M  V30 1010 C 104.415 -2.322 -0.136426 0
M  V30 1011 C 105.409 -1.45497 -0.867583 0
M  V30 1012 O 106.615 -1.62027 -0.78405 0
M  V30 1013 H 102.99 -0.749368 -0.0628588 0
M  V30 1014 H 104.961 -2.92072 0.611281 0
M  V30 1015 C 103.71 -3.28974 -1.12567 0
M  V30 1016 H 103.033 -3.9568 -0.572484 0
M  V30 1017 H 104.473 -3.92212 -1.61077 0
M  V30 1018 C 102.932 -2.55561 -2.19523 0
M  V30 1019 O 103.462 -2.33111 -3.27143 0
M  V30 1020 N 101.668 -2.15832 -1.94589 0
M  V30 1021 H 101.215 -2.3429 -1.07078 0
M  V30 1022 H 101.173 -1.67034 -2.66359 0
M  V30 1023 N 104.945 -0.338344 -1.53925 0
M  V30 1024 C 106.185 0.260168 -2.02737 0
M  V30 1025 C 106.549 1.48181 -1.22092 0
M  V30 1026 O 107.75 2.15416 -1.60777 0
M  V30 1027 C 106.021 0.571627 -3.52799 0
M  V30 1028 S 107.58 1.14769 -4.23525 0
M  V30 1029 H 104.398 0.077791 -0.706732 0
M  V30 1030 H 107 -0.474899 -1.89644 0
M  V30 1031 H 105.704 -0.325392 -4.09108 0
M  V30 1032 H 105.235 1.3365 -3.70002 0
M  V30 1033 H 107.25 2.43372 -4.32417 0
M  V30 1034 N 106.423 1.57458 -0.0668435 0
M  V30 1035 C 107.371 2.13639 0.919851 0
M  V30 1036 C 108.365 1.07204 1.31163 0
M  V30 1037 O 109.571 1.25591 1.28945 0
M  V30 1038 H 105.946 0.683048 0.314562 0
M  V30 1039 H 107.917 2.95415 0.421047 0
M  V30 1040 C 106.666 2.70892 2.17975 0
M  V30 1041 H 105.989 3.5246 1.88711 0
M  V30 1042 H 107.429 3.13803 2.85138 0
M  V30 1043 C 105.888 1.65414 2.93496 0
M  V30 1044 O 106.418 1.07619 3.87015 0
M  V30 1045 N 104.624 1.36564 2.56512 0
M  V30 1046 H 104.171 1.83751 1.80536 0
M  V30 1047 H 104.129 0.66223 3.07347 0
M  V30 1048 N 107.901 -0.206675 1.56239 0
M  V30 1049 C 109.147 -0.930218 1.80208 0
M  V30 1050 C 109.48 -1.83387 0.638981 0
M  V30 1051 O 108.755 -1.91119 -0.361066 0
M  V30 1052 C 109.038 -1.75641 3.1436 0
M  V30 1053 C 108.891 -0.878257 4.41142 0
M  V30 1054 C 110.21 -2.73129 3.45092 0
M  V30 1055 H 107.329 -0.336742 0.655571 0
M  V30 1056 H 109.971 -0.198222 1.88963 0
M  V30 1057 H 108.121 -2.38048 3.07027 0
M  V30 1058 H 109.793 -0.269787 4.6051 0
M  V30 1059 H 108.036 -0.184385 4.33408 0
M  V30 1060 H 108.707 -1.49106 5.3148 0
M  V30 1061 H 111.183 -2.20856 3.52649 0
M  V30 1062 H 110.059 -3.28028 4.40101 0
M  V30 1063 H 110.32 -3.51606 2.68003 0
M  V30 1064 N 109.379 -1.50304 -0.473955 0
M  V30 1065 C 110.656 -1.51667 -1.23518 0
M  V30 1066 C 111.036 -0.259701 -2.09496 0
M  V30 1067 O 110.384 0.756986 -2.15597 0
M  V30 1068 C 110.594 -2.81082 -2.06868 0
M  V30 1069 C 111.942 -3.31631 -2.65153 0
M  V30 1070 O 112.966 -2.82384 -2.17113 0
M  V30 1071 O 111.825 -4.17471 -3.52675 0
M  V30 1072 H 108.919 -0.60822 -0.560355 0
M  V30 1073 H 111.465 -1.62592 -0.486011 0
M  V30 1074 H 110.237 -3.64041 -1.4349 0
M  V30 1075 H 109.86 -2.73146 -2.88924 0
M  V30 1076 N 110.857 0.726932 -1.39834 0
M  V30 1077 C 112.087 1.51393 -1.40583 0
M  V30 1078 C 112.495 1.892 -0.000740625 0
M  V30 1079 O 111.838 1.55189 0.982951 0
M  V30 1080 C 111.9 2.82588 -2.22226 0
M  V30 1081 C 111.564 2.67169 -3.70769 0
M  V30 1082 C 112.561 2.3518 -4.63666 0
M  V30 1083 C 110.246 2.83788 -4.14451 0
M  V30 1084 C 112.24 2.20002 -5.98229 0
M  V30 1085 C 109.927 2.68229 -5.49087 0
M  V30 1086 C 110.925 2.36382 -6.4079 0
M  V30 1087 O 110.613 2.2093 -7.72946 0
M  V30 1088 H 110.345 0.474168 -0.48181 0
M  V30 1089 H 112.899 0.905247 -1.84376 0
M  V30 1090 H 111.129 3.45746 -1.73195 0
M  V30 1091 H 112.818 3.44247 -2.15055 0
M  V30 1092 H 113.584 2.21984 -4.31217 0
M  V30 1093 H 109.463 3.07566 -3.43401 0
M  V30 1094 H 113.007 1.95067 -6.69772 0
M  V30 1095 H 108.904 2.81006 -5.81125 0
M  V30 1096 H 109.672 2.35937 -7.83757 0
M  V30 1097 N 112.336 1.25143 0.95797 0
M  V30 1098 C 113.246 1.06968 2.08794 0
M  V30 1099 C 114.262 0.00773911 1.73998 0
M  V30 1100 O 115.438 0.207972 2.00323 0
M  V30 1101 C 112.503 0.68691 3.39827 0
M  V30 1102 C 111.564 1.82641 3.88511 0
M  V30 1103 C 110.797 1.46181 5.1329 0
M  V30 1104 O 111.02 0.355971 5.69288 0
M  V30 1105 O 109.954 2.29085 5.566 0
M  V30 1106 H 113.78 2.01723 2.27027 0
M  V30 1107 H 111.365 1.04051 1.07209 0
M  V30 1108 H 113.247 0.485417 4.18595 0
M  V30 1109 H 111.922 -0.231417 3.22872 0
M  V30 1110 H 110.829 2.08274 3.10762 0
M  V30 1111 H 112.162 2.72386 4.09959 0
M  V30 1112 N 113.814 -1.1601 1.06675 0
M  V30 1113 C 115.23 -1.38622 0.790948 0
M  V30 1114 C 115.43 -1.92109 -0.607965 0
M  V30 1115 O 114.486 -2.12239 -1.36787 0
M  V30 1116 C 115.799 -2.36347 1.85905 0
M  V30 1117 C 117.347 -2.50023 1.88301 0
M  V30 1118 C 117.822 -3.51033 2.94176 0
M  V30 1119 N 119.313 -3.58563 2.93235 0
M  V30 1120 C 120.048 -4.36521 3.71803 0
M  V30 1121 N 119.544 -5.17869 4.602 0
M  V30 1122 N 121.337 -4.31541 3.60178 0
M  V30 1123 H 113.488 -0.796294 1.96908 0
M  V30 1124 H 115.751 -0.412597 0.853503 0
M  V30 1125 H 115.457 -2.04147 2.86386 0
M  V30 1126 H 115.331 -3.36042 1.71334 0
M  V30 1127 H 117.718 -2.81524 0.884769 0
M  V30 1128 H 117.799 -1.5035 2.06951 0
M  V30 1129 H 117.443 -3.20268 3.94196 0
M  V30 1130 H 117.373 -4.50445 2.72776 0
M  V30 1131 H 119.864 -3.00496 2.29152 0
M  V30 1132 H 120.177 -5.74578 5.16797 0
M  V30 1133 H 118.522 -5.17199 4.64253 0
M  V30 1134 H 121.713 -3.67051 2.90502 0
M  V30 1135 H 121.886 -4.9205 4.21653 0
M  V30 1136 N 115.292 -0.849877 -1.32721 0
M  V30 1137 C 116.569 -0.372405 -1.92022 0
M  V30 1138 C 116.949 1.1435 -1.77447 0
M  V30 1139 O 116.297 1.96296 -1.16962 0
M  V30 1140 C 116.507 -0.831482 -3.3895 0
M  V30 1141 C 117.855 -0.845882 -4.16089 0
M  V30 1142 O 118.879 -0.775806 -3.47649 0
M  V30 1143 O 117.738 -0.943753 -5.38289 0
M  V30 1144 H 114.832 -0.107667 -0.819961 0
M  V30 1145 H 117.378 -0.93646 -1.41522 0
M  V30 1146 H 116.15 -1.87448 -3.4348 0
M  V30 1147 H 115.773 -0.24461 -3.96847 0
M  V30 1148 N 116.77 1.45427 -0.607355 0
M  V30 1149 C 118.01 2.04128 -0.105458 0
M  V30 1150 C 118.374 1.46555 1.24039 0
M  V30 1151 O 119.575 1.96608 1.833 0
M  V30 1152 C 117.846 3.57338 -0.0665324 0
M  V30 1153 S 119.405 4.37201 0.374207 0
M  V30 1154 H 116.223 0.709278 -0.0494575 0
M  V30 1155 H 118.825 1.78139 -0.805404 0
M  V30 1156 H 117.529 3.96752 -1.04957 0
M  V30 1157 H 117.06 3.87902 0.655415 0
M  V30 1158 H 119.075 4.6888 1.62377 0
M  V30 1159 N 118.248 0.346503 1.53744 0
M  V30 1160 C 119.496 -0.248612 2.00565 0
M  V30 1161 C 119.817 -1.5083 1.23593 0
M  V30 1162 O 119.087 -1.92858 0.343912 0
M  V30 1163 H 117.667 -0.0948564 0.740953 0
M  V30 1164 H 120.329 0.468341 1.89189 0
M  V30 1165 H 119.425 -0.488994 3.08245 0
M  V30 1166 N 119.726 -1.57421 0.075193 0
M  V30 1167 C 120.951 -1.98364 -0.605515 0
M  V30 1168 C 121.376 -0.953383 -1.62149 0
M  V30 1169 O 120.734 0.0806053 -1.81121 0
M  V30 1170 C 120.782 -3.38332 -1.24756 0
M  V30 1171 O 119.886 -3.37959 -2.36342 0
M  V30 1172 H 119.227 -0.645553 -0.155428 0
M  V30 1173 H 121.757 -2.04044 0.150714 0
M  V30 1174 H 121.767 -3.75591 -1.5936 0
M  V30 1175 H 120.442 -4.12846 -0.503129 0
M  V30 1176 H 119.019 -3.12474 -2.03506 0
M  V30 1177 N 121.204 0.198386 -1.56346 0
M  V30 1178 C 122.429 0.939682 -1.84891 0
M  V30 1179 C 122.854 1.76202 -0.658369 0
M  V30 1180 O 122.212 1.76993 0.392851 0
M  V30 1181 C 122.26 1.81428 -3.11635 0
M  V30 1182 O 121.364 2.91265 -2.91956 0
M  V30 1183 H 120.705 0.264807 -0.608912 0
M  V30 1184 H 123.235 0.204695 -2.03573 0
M  V30 1185 H 123.245 2.21958 -3.42343 0
M  V30 1186 H 121.92 1.21004 -3.97908 0
M  V30 1187 H 120.497 2.54514 -2.72538 0
M  V30 1188 N 122.682 1.50554 0.465978 0
M  V30 1189 C 123.93 1.61479 1.21528 0
M  V30 1190 C 124.251 0.319596 1.92363 0
M  V30 1191 O 123.521 -0.663194 1.84333 0
M  V30 1192 H 122.101 0.595055 0.451573 0
M  V30 1193 H 124.763 1.87355 0.53704 0
M  V30 1194 H 123.859 2.42846 1.96042 0
M  V30 1195 N 124.16 -0.719506 1.40217 0
M  V30 1196 C 125.4 -1.49181 1.39729 0
M  V30 1197 C 125.764 -1.92 -0.00250614 0
M  V30 1198 O 126.965 -2.68473 -0.132479 0
M  V30 1199 C 125.236 -2.68767 2.35582 0
M  V30 1200 S 126.795 -3.58224 2.53418 0
M  V30 1201 H 123.613 -0.510091 0.495307 0
M  V30 1202 H 126.215 -0.841724 1.76452 0
M  V30 1203 H 124.919 -2.35475 3.36124 0
M  V30 1204 H 124.45 -3.38691 2.0013 0
M  V30 1205 H 126.465 -4.63033 1.78367 0
M  V30 1206 N 125.638 -1.25649 -0.95132 0
M  V30 1207 C 126.863 -1.13443 -1.73624 0
M  V30 1208 C 127.288 0.307565 -1.85568 0
M  V30 1209 O 126.646 1.22282 -1.33854 0
M  V30 1210 C 126.694 -1.79723 -3.12621 0
M  V30 1211 O 125.798 -1.07912 -3.98031 0
M  V30 1212 H 125.139 -0.395872 -0.533086 0
M  V30 1213 H 127.669 -1.66276 -1.1922 0
M  V30 1214 H 127.679 -1.86141 -3.63064 0
M  V30 1215 H 126.354 -2.84633 -3.03244 0
M  V30 1216 H 124.931 -1.09398 -3.56492 0
M  V30 1217 N 127.117 1.15442 -1.07289 0
M  V30 1218 C 128.366 1.85557 -0.790669 0
M  V30 1219 C 128.679 1.83186 0.685739 0
M  V30 1220 O 129.885 2.48977 1.0827 0
M  V30 1221 C 128.341 3.33038 -1.36433 0
M  V30 1222 C 127.949 3.43856 -2.8717 0
M  V30 1223 C 129.693 4.0834 -1.1601 0
M  V30 1224 C 127.6 4.85482 -3.3773 0
M  V30 1225 H 126.53 0.695122 -0.292098 0
M  V30 1226 H 129.181 1.30219 -1.29287 0
M  V30 1227 H 127.563 3.88043 -0.789864 0
M  V30 1228 H 128.737 2.98961 -3.50655 0
M  V30 1229 H 127.052 2.81998 -3.06376 0
M  V30 1230 H 129.649 5.12859 -1.51262 0
M  V30 1231 H 129.992 4.16182 -0.0991007 0
M  V30 1232 H 130.525 3.59603 -1.70089 0
M  V30 1233 H 127.264 4.82823 -4.43353 0
M  V30 1234 H 126.784 5.30961 -2.78999 0
M  V30 1235 H 128.463 5.54335 -3.33648 0
M  V30 1236 N 128.595 0.856903 1.32268 0
M  V30 1237 C 129.82 0.474569 2.01897 0
M  V30 1238 C 130.245 -0.921766 1.63967 0
M  V30 1239 O 129.603 -1.60589 0.84148 0
M  V30 1240 C 129.651 0.623799 3.55164 0
M  V30 1241 O 128.755 -0.342459 4.10976 0
M  V30 1242 H 128.096 0.190422 0.63611 0
M  V30 1243 H 130.626 1.15672 1.68764 0
M  V30 1244 H 130.636 0.512169 4.04773 0
M  V30 1245 H 129.311 1.64202 3.82113 0
M  V30 1246 H 127.888 -0.18688 3.72431 0
M  V30 1247 N 130.073 -1.45103 0.615059 0
M  V30 1248 C 131.036 -2.29025 -0.0895485 0
M  V30 1249 C 132.036 -1.40174 -0.787906 0
M  V30 1250 O 133.226 -1.62217 -0.634933 0
M  V30 1251 C 130.358 -3.21376 -1.13711 0
M  V30 1252 H 131.551 -2.92807 0.648382 0
M  V30 1253 H 129.104 -1.51749 0.374444 0
M  V30 1254 H 129.839 -2.6241 -1.90556 0
M  V30 1255 H 129.624 -3.86834 -0.640475 0
M  V30 1256 H 131.114 -3.84459 -1.63036 0
M  V30 1257 N 131.551 -0.354651 -1.53558 0
M  V30 1258 C 132.8 0.239504 -2.00273 0
M  V30 1259 C 133.113 1.50759 -1.24623 0
M  V30 1260 O 134.319 2.17968 -1.61871 0
M  V30 1261 C 132.775 0.477341 -3.5672 0
M  V30 1262 C 132.383 -0.775488 -4.41237 0
M  V30 1263 C 134.127 1.02975 -4.11821 0
M  V30 1264 C 132.034 -0.507838 -5.89216 0
M  V30 1265 H 130.964 0.0932743 -0.748208 0
M  V30 1266 H 133.615 -0.471701 -1.77334 0
M  V30 1267 H 131.997 1.24953 -3.7577 0
M  V30 1268 H 133.171 -1.54963 -4.33962 0
M  V30 1269 H 131.486 -1.25033 -3.97185 0
M  V30 1270 H 134.083 1.24513 -5.2 0
M  V30 1271 H 134.426 1.98862 -3.65731 0
M  V30 1272 H 134.959 0.317994 -3.96527 0
M  V30 1273 H 131.698 -1.43674 -6.39561 0
M  V30 1274 H 131.218 0.228011 -5.99366 0
M  V30 1275 H 132.897 -0.129238 -6.46871 0
M  V30 1276 N 133.029 1.57378 -0.0835403 0
M  V30 1277 C 133.992 2.12252 0.864959 0
M  V30 1278 C 134.992 1.04916 1.21858 0
M  V30 1279 O 136.182 1.30853 1.14991 0
M  V30 1280 C 133.314 2.63358 2.16461 0
M  V30 1281 H 134.507 2.97371 0.388676 0
M  V30 1282 H 132.06 1.55423 0.165317 0
M  V30 1283 H 132.795 1.81727 2.686 0
M  V30 1284 H 132.58 3.41826 1.92087 0
M  V30 1285 H 134.07 3.05847 2.84337 0
M  V30 1286 N 134.507 -0.190092 1.56449 0
M  V30 1287 C 135.455 -1.25501 1.95837 0
M  V30 1288 C 136.449 -1.4685 0.844485 0
M  V30 1289 O 137.655 -1.47651 1.02952 0
M  V30 1290 H 134.03 -0.421447 0.622805 0
M  V30 1291 H 136.001 -0.895821 2.84636 0
M  V30 1292 C 134.75 -2.59124 2.31841 0
M  V30 1293 H 134.073 -2.43514 3.17082 0
M  V30 1294 H 135.513 -3.32371 2.6326 0
M  V30 1295 C 133.972 -3.16488 1.15486 0
M  V30 1296 O 134.502 -3.99365 0.432535 0
M  V30 1297 N 132.708 -2.75305 0.930349 0
M  V30 1298 H 132.255 -2.08013 1.51948 0
M  V30 1299 H 132.213 -3.14024 0.153634 0
M  V30 1300 N 135.985 -1.50799 -0.457987 0
M  V30 1301 C 137.215 -1.65977 -1.23025 0
M  V30 1302 C 137.623 -0.347918 -1.85974 0
M  V30 1303 O 136.966 0.68148 -1.70592 0
M  V30 1304 C 137.028 -2.70309 -2.3701 0
M  V30 1305 C 136.692 -4.135 -1.94594 0
M  V30 1306 C 137.689 -4.98949 -1.46101 0
M  V30 1307 C 135.374 -4.5949 -2.02915 0
M  V30 1308 C 137.368 -6.28442 -1.06489 0
M  V30 1309 C 135.055 -5.88984 -1.62914 0
M  V30 1310 C 136.053 -6.73286 -1.1478 0
M  V30 1311 O 135.741 -8.00362 -0.75339 0
M  V30 1312 H 135.473 -0.56064 -0.377702 0
M  V30 1313 H 138.027 -1.97857 -0.551537 0
M  V30 1314 H 136.257 -2.337 -3.08093 0
M  V30 1315 H 137.946 -2.74574 -2.98938 0
M  V30 1316 H 138.712 -4.6463 -1.39084 0
M  V30 1317 H 134.591 -3.94009 -2.39328 0
M  V30 1318 H 138.135 -6.94194 -0.688488 0
M  V30 1319 H 134.032 -6.22822 -1.69595 0
M  V30 1320 H 134.8 -8.13744 -0.88108 0
M  V30 1321 N 137.463 0.71206 -1.40597 0
M  V30 1322 C 138.691 1.50111 -1.42388 0
M  V30 1323 C 139.106 1.88784 -0.0245395 0
M  V30 1324 O 138.463 1.55681 0.952351 0
M  V30 1325 C 138.514 2.7742 -2.31776 0
M  V30 1326 O 138.235 2.40382 -3.66262 0
M  V30 1327 C 139.736 3.7129 -2.42196 0
M  V30 1328 H 136.956 0.46314 -0.485533 0
M  V30 1329 H 139.5 0.878068 -1.8469 0
M  V30 1330 H 137.655 3.36001 -1.92827 0
M  V30 1331 H 138.069 3.22324 -4.13772 0
M  V30 1332 H 139.543 4.57448 -3.08943 0
M  V30 1333 H 140.02 4.14641 -1.44809 0
M  V30 1334 H 140.626 3.18619 -2.81712 0
M  V30 1335 N 138.941 1.26152 0.944643 0
M  V30 1336 C 139.873 1.03199 2.04652 0
M  V30 1337 C 140.886 -0.00642356 1.62799 0
M  V30 1338 O 142.075 0.233263 1.76969 0
M  V30 1339 C 139.175 0.540111 3.34568 0
M  V30 1340 C 138.348 1.64697 4.05208 0
M  V30 1341 C 137.407 1.15374 5.13396 0
M  V30 1342 O 136.433 1.85013 5.38293 0
M  V30 1343 N 137.635 0.00031529 5.805 0
M  V30 1344 H 140.4 1.9808 2.2491 0
M  V30 1345 H 137.961 1.17491 1.11389 0
M  V30 1346 H 139.953 0.194401 4.04233 0
M  V30 1347 H 138.523 -0.315021 3.11009 0
M  V30 1348 H 137.743 2.16379 3.29506 0
M  V30 1349 H 139.031 2.3903 4.49157 0
M  V30 1350 H 138.429 -0.581336 5.62705 0
M  V30 1351 H 136.986 -0.286346 6.51171 0
M  V30 1352 N 140.419 -1.14872 1.07899 0
M  V30 1353 C 141.835 -1.37776 0.805606 0
M  V30 1354 C 142.035 -1.92743 -0.587555 0
M  V30 1355 O 141.091 -2.13678 -1.34528 0
M  V30 1356 C 142.404 -2.34361 1.88402 0
M  V30 1357 C 143.952 -2.48012 1.90942 0
M  V30 1358 C 144.427 -3.47893 2.97883 0
M  V30 1359 N 145.918 -3.55433 2.97021 0
M  V30 1360 C 146.653 -4.32553 3.76412 0
M  V30 1361 N 146.149 -5.12959 4.65666 0
M  V30 1362 N 147.942 -4.27697 3.64735 0
M  V30 1363 H 140.093 -0.775365 1.97742 0
M  V30 1364 H 142.356 -0.403521 0.857831 0
M  V30 1365 H 142.062 -2.01098 2.88535 0
M  V30 1366 H 141.936 -3.34206 1.74889 0
M  V30 1367 H 144.323 -2.8057 0.914579 0
M  V30 1368 H 144.404 -1.48147 2.08534 0
M  V30 1369 H 144.048 -3.16069 3.97571 0
M  V30 1370 H 143.978 -4.47527 2.77538 0
M  V30 1371 H 146.469 -2.98048 2.32326 0
M  V30 1372 H 146.782 -5.69065 5.22862 0
M  V30 1373 H 145.127 -5.12245 4.69712 0
M  V30 1374 H 148.318 -3.63949 2.94378 0
M  V30 1375 H 148.491 -4.8755 4.26848 0
M  V30 1376 N 141.898 -0.863906 -1.31812 0
M  V30 1377 C 143.144 -0.472535 -1.97218 0
M  V30 1378 C 143.477 0.971394 -1.68159 0
M  V30 1379 O 142.752 1.68309 -0.974798 0
M  V30 1380 C 143.035 -0.723054 -3.52766 0
M  V30 1381 C 142.888 -2.21608 -3.91421 0
M  V30 1382 C 144.207 -0.185522 -4.39709 0
M  V30 1383 H 141.326 -0.173158 -0.71637 0
M  V30 1384 H 143.968 -1.08403 -1.56041 0
M  V30 1385 H 142.118 -0.202577 -3.87971 0
M  V30 1386 H 143.79 -2.80334 -3.66347 0
M  V30 1387 H 142.033 -2.691 -3.40246 0
M  V30 1388 H 142.704 -2.34203 -4.99853 0
M  V30 1389 H 145.18 -0.630726 -4.11292 0
M  V30 1390 H 144.056 -0.390306 -5.47511 0
M  V30 1391 H 144.317 0.912229 -4.32586 0
M  V30 1392 N 143.376 1.44774 -0.622745 0
M  V30 1393 C 144.601 2.06999 -0.128968 0
M  V30 1394 C 145.026 1.4617 1.1839 0
M  V30 1395 O 144.384 0.560007 1.72434 0
M  V30 1396 C 144.432 3.60595 -0.0188351 0
M  V30 1397 O 143.536 3.99398 1.02739 0
M  V30 1398 H 142.877 0.659047 -0.0809544 0
M  V30 1399 H 145.407 1.85784 -0.85705 0
M  V30 1400 H 145.417 4.07627 0.174476 0
M  V30 1401 H 144.092 4.04252 -0.977384 0
M  V30 1402 H 142.669 3.64011 0.809326 0
M  V30 1403 N 144.854 0.36279 1.53368 0
M  V30 1404 C 146.131 -0.284021 1.93527 0
M  V30 1405 C 146.511 -1.66628 1.29608 0
M  V30 1406 O 145.859 -2.23942 0.45413 0
M  V30 1407 C 146.069 -0.337028 3.47369 0
M  V30 1408 C 147.417 -0.578708 4.20638 0
M  V30 1409 O 148.441 -0.418352 3.53735 0
M  V30 1410 O 147.3 -0.89074 5.39192 0
M  V30 1411 H 144.394 -0.169743 0.809393 0
M  V30 1412 H 146.94 0.41537 1.64538 0
M  V30 1413 H 145.712 0.632217 3.86159 0
M  V30 1414 H 145.335 -1.08243 3.82582 0
M  V30 1415 N 146.332 -1.57332 0.0918853 0
M  V30 1416 C 147.557 -1.98995 -0.584442 0
M  V30 1417 C 147.982 -0.970528 -1.61128 0
M  V30 1418 O 147.34 0.0613904 -1.81196 0
M  V30 1419 C 147.388 -3.39636 -1.21161 0
M  V30 1420 O 146.492 -3.40447 -2.32744 0
M  V30 1421 H 145.833 -0.647165 -0.148572 0
M  V30 1422 H 148.363 -2.03873 0.172347 0
M  V30 1423 H 148.373 -3.7726 -1.55367 0
M  V30 1424 H 147.048 -4.13356 -0.459313 0
M  V30 1425 H 145.625 -3.14614 -2.0018 0
M  V30 1426 N 147.81 0.181792 -1.56548 0
M  V30 1427 C 149.035 0.920019 -1.85877 0
M  V30 1428 C 149.46 1.75494 -0.677021 0
M  V30 1429 O 148.818 1.77399 0.374056 0
M  V30 1430 C 148.866 1.78112 -3.13542 0
M  V30 1431 O 147.97 2.88152 -2.95029 0
M  V30 1432 H 147.311 0.258334 -0.611686 0
M  V30 1433 H 149.841 0.183092 -2.03779 0
M  V30 1434 H 149.851 2.18314 -3.44678 0
M  V30 1435 H 148.526 1.16777 -3.99169 0
M  V30 1436 H 147.103 2.51609 -2.75222 0
M  V30 1437 N 149.288 1.51039 0.449983 0
M  V30 1438 C 150.218 1.74379 1.55288 0
M  V30 1439 C 151.199 0.593236 1.5942 0
M  V30 1440 O 152.384 0.834625 1.7535 0
M  V30 1441 C 149.514 1.85728 2.93466 0
M  V30 1442 C 148.468 3.01078 3.04197 0
M  V30 1443 C 147.794 2.97595 4.44231 0
M  V30 1444 C 149.094 4.41254 2.7945 0
M  V30 1445 H 150.788 2.66725 1.36008 0
M  V30 1446 H 148.334 1.2835 0.652864 0
M  V30 1447 H 150.287 2.0064 3.70569 0
M  V30 1448 H 149.011 0.900207 3.13949 0
M  V30 1449 H 147.67 2.85851 2.29531 0
M  V30 1450 H 147.318 1.99691 4.61663 0
M  V30 1451 H 147.018 3.75046 4.52343 0
M  V30 1452 H 148.542 3.14583 5.23326 0
M  V30 1453 H 149.956 4.56897 3.46292 0
M  V30 1454 H 148.353 5.20315 2.98985 0
M  V30 1455 H 149.423 4.52164 1.75144 0
M  V30 1456 N 150.766 -0.704594 1.40972 0
M  V30 1457 C 151.991 -1.49858 1.43378 0
M  V30 1458 C 152.416 -1.88061 0.038184 0
M  V30 1459 O 151.774 -1.5402 -0.956425 0
M  V30 1460 C 151.822 -2.74333 2.34038 0
M  V30 1461 O 150.926 -3.7147 1.7912 0
M  V30 1462 H 150.267 -0.45139 0.486974 0
M  V30 1463 H 152.797 -0.866832 1.8533 0
M  V30 1464 H 152.807 -3.22741 2.49604 0
M  V30 1465 H 151.482 -2.45863 3.35446 0
M  V30 1466 H 150.059 -3.30363 1.72958 0
M  V30 1467 N 152.244 -1.26651 -0.937939 0
M  V30 1468 C 153.469 -1.15279 -1.72411 0
M  V30 1469 C 153.894 0.287866 -1.85884 0
M  V30 1470 O 153.252 1.20855 -1.35143 0
M  V30 1471 C 153.3 -1.83028 -3.10698 0
M  V30 1472 O 152.404 -1.12128 -3.96864 0
M  V30 1473 H 151.745 -0.401504 -0.528858 0
M  V30 1474 H 154.275 -1.67531 -1.1745 0
M  V30 1475 H 154.285 -1.89981 -3.6107 0
M  V30 1476 H 152.96 -2.87833 -3.00208 0
M  V30 1477 H 151.537 -1.13173 -3.55312 0
M  V30 1478 N 153.722 1.14298 -1.08507 0
M  V30 1479 C 154.632 2.23027 -0.727753 0
M  V30 1480 C 155.648 1.71952 0.26619 0
M  V30 1481 O 156.824 2.011 0.109882 0
M  V30 1482 C 153.889 3.46403 -0.143541 0
M  V30 1483 C 152.95 4.12413 -1.19223 0
M  V30 1484 C 152.183 5.29899 -0.635798 0
M  V30 1485 O 152.406 5.67796 0.544393 0
M  V30 1486 O 151.34 5.85717 -1.38634 0
M  V30 1487 H 155.166 2.55945 -1.63481 0
M  V30 1488 H 152.751 1.22248 -0.858817 0
M  V30 1489 H 154.633 4.21018 0.179404 0
M  V30 1490 H 153.308 3.15206 0.736659 0
M  V30 1491 H 152.215 3.39667 -1.56772 0
M  V30 1492 H 153.548 4.47718 -2.04474 0
M  V30 1493 N 155.201 0.870884 1.31352 0
M  V30 1494 C 156.149 0.316445 2.30437 0
M  V30 1495 C 157.143 -0.568965 1.59559 0
M  V30 1496 O 158.349 -0.454964 1.74155 0
M  V30 1497 H 154.724 0.0836521 0.747333 0
M  V30 1498 H 156.695 1.16606 2.74673 0
M  V30 1499 C 155.444 -0.46635 3.44558 0
M  V30 1500 H 154.767 0.205687 3.99271 0
M  V30 1501 H 156.207 -0.819614 4.16003 0
M  V30 1502 C 154.666 -1.65797 2.9328 0
M  V30 1503 O 155.196 -2.75728 2.92125 0
M  V30 1504 N 153.402 -1.49041 2.4947 0
M  V30 1505 H 152.949 -0.59612 2.50608 0
M  V30 1506 H 152.907 -2.28911 2.15516 0
M  V30 1507 N 156.679 -1.44442 0.630414 0
M  V30 1508 C 157.629 -2.27794 -0.0968103 0
M  V30 1509 C 158.613 -1.38624 -0.816834 0
M  V30 1510 O 159.805 -1.62438 -0.70306 0
M  V30 1511 C 156.934 -3.25929 -1.07819 0
M  V30 1512 C 156.02 -4.22588 -0.357826 0
M  V30 1513 N 156.411 -5.0207 0.613169 0
M  V30 1514 C 154.709 -4.41914 -0.602365 0
M  V30 1515 C 155.41 -5.72351 1.03871 0
M  V30 1516 N 154.386 -5.42287 0.377642 0
M  V30 1517 H 158.188 -2.86653 0.648621 0
M  V30 1518 H 155.702 -1.55871 0.455862 0
M  V30 1519 H 157.699 -3.84399 -1.61378 0
M  V30 1520 H 156.359 -2.68631 -1.82393 0
M  V30 1521 H 157.37 -5.08331 0.990947 0
M  V30 1522 H 154.047 -3.95714 -1.33103 0
M  V30 1523 H 155.437 -6.4619 1.84086 0
M  V30 1524 N 158.157 -0.370918 -1.53173 0
M  V30 1525 C 159.12 0.460778 -2.24521 0
M  V30 1526 C 160.12 1.00536 -1.25496 0
M  V30 1527 O 161.31 0.890266 -1.49733 0
M  V30 1528 C 158.442 1.64457 -2.98608 0
M  V30 1529 H 159.635 -0.163613 -2.99453 0
M  V30 1530 H 157.188 -0.122699 -1.55818 0
M  V30 1531 H 157.923 2.30691 -2.2793 0
M  V30 1532 H 157.708 1.26099 -3.7127 0
M  V30 1533 H 159.198 2.23384 -3.5283 0
M  V30 1534 N 159.635 1.57281 -0.100228 0
M  V30 1535 C 160.545 2.17833 0.870965 0
M  V30 1536 C 161.561 1.14921 1.30649 0
M  V30 1537 O 162.737 1.47313 1.37335 0
M  V30 1538 C 159.802 2.75085 2.1102 0
M  V30 1539 C 158.863 3.9297 1.72838 0
M  V30 1540 C 158.096 4.47482 2.90854 0
M  V30 1541 O 158.319 4.00922 4.05731 0
M  V30 1542 O 157.253 5.38433 2.69023 0
M  V30 1543 H 161.079 3.0124 0.38575 0
M  V30 1544 H 158.664 1.48881 0.124397 0
M  V30 1545 H 160.546 3.11656 2.83634 0
M  V30 1546 H 159.221 1.94721 2.58584 0
M  V30 1547 H 158.128 3.61201 0.973883 0
M  V30 1548 H 159.461 4.74713 1.30033 0
M  V30 1549 N 161.113 -0.173488 1.56642 0
M  V30 1550 C 162.076 -1.19859 1.95362 0
M  V30 1551 C 163.076 -1.37296 0.83704 0
M  V30 1552 O 164.266 -1.34739 1.10413 0
M  V30 1553 C 161.398 -2.56405 2.24654 0
M  V30 1554 H 162.591 -0.867062 2.87092 0
M  V30 1555 H 160.144 -0.415853 1.50666 0
M  V30 1556 H 160.879 -2.94576 1.35631 0
M  V30 1557 H 160.664 -2.45115 3.06041 0
M  V30 1558 H 162.154 -3.30287 2.5554 0
M  V30 1559 N 162.591 -1.51276 -0.441967 0
M  V30 1560 C 163.521 -1.752 -1.54361 0
M  V30 1561 C 164.502 -0.601682 -1.59103 0
M  V30 1562 O 165.687 -0.843913 -1.74905 0
M  V30 1563 C 162.817 -1.87282 -2.92477 0
M  V30 1564 C 161.771 -3.02687 -3.02596 0
M  V30 1565 C 161.097 -2.99947 -4.42647 0
M  V30 1566 C 162.397 -4.4273 -2.77106 0
M  V30 1567 H 164.091 -2.67442 -1.34592 0
M  V30 1568 H 161.637 -1.28694 -0.646048 0
M  V30 1569 H 163.59 -2.02602 -3.695 0
M  V30 1570 H 162.314 -0.916844 -3.13467 0
M  V30 1571 H 160.973 -2.87065 -2.28012 0
M  V30 1572 H 160.621 -2.02136 -4.60597 0
M  V30 1573 H 160.321 -3.77439 -4.50348 0
M  V30 1574 H 161.845 -3.17354 -5.2165 0
M  V30 1575 H 163.259 -4.58727 -3.43864 0
M  V30 1576 H 161.656 -5.21893 -2.96222 0
M  V30 1577 H 162.726 -4.53087 -1.72744 0
M  V30 1578 N 164.069 0.697108 -1.41344 0
M  V30 1579 C 165.485 1.00751 -1.2378 0
M  V30 1580 C 165.685 2.01105 -0.126066 0
M  V30 1581 O 164.741 2.47295 0.51004 0
M  V30 1582 C 166.054 1.53359 -2.58653 0
M  V30 1583 C 167.602 1.6525 -2.65822 0
M  V30 1584 C 168.077 2.2126 -4.01009 0
M  V30 1585 N 169.568 2.28622 -4.02847 0
M  V30 1586 C 170.303 2.72984 -5.04249 0
M  V30 1587 N 169.799 3.16962 -6.16041 0
M  V30 1588 N 171.592 2.72534 -4.91611 0
M  V30 1589 H 163.743 0.0322662 -2.12375 0
M  V30 1590 H 166.006 0.0768853 -0.944877 0
M  V30 1591 H 165.712 0.870773 -3.4075 0
M  V30 1592 H 165.586 2.51597 -2.81032 0
M  V30 1593 H 167.973 2.30644 -1.84086 0
M  V30 1594 H 168.054 0.655614 -2.47256 0
M  V30 1595 H 167.698 1.56482 -4.83193 0
M  V30 1596 H 167.628 3.21698 -4.16915 0
M  V30 1597 H 170.119 1.97585 -3.22131 0
M  V30 1598 H 170.432 3.49434 -6.89287 0
M  V30 1599 H 168.777 3.14875 -6.1958 0
M  V30 1600 H 171.968 2.37525 -4.0336 0
M  V30 1601 H 172.141 3.06789 -5.70775 0
M  V30 1602 N 165.547 1.27147 0.931209 0
M  V30 1603 C 166.794 1.13278 1.67852 0
M  V30 1604 C 167.122 -0.32204 1.91815 0
M  V30 1605 O 166.377 -1.25224 1.50391 0
M  V30 1606 C 166.676 1.8579 3.05314 0
M  V30 1607 C 166.342 3.35657 3.01073 0
M  V30 1608 C 165.004 3.76536 2.99623 0
M  V30 1609 C 167.356 4.31299 2.92627 0
M  V30 1610 C 164.684 5.11426 2.87506 0
M  V30 1611 C 167.036 5.66242 2.82051 0
M  V30 1612 C 165.7 6.06418 2.7895 0
M  V30 1613 H 164.97 0.414515 0.614214 0
M  V30 1614 H 167.617 1.57712 1.08624 0
M  V30 1615 H 165.922 1.33854 3.68226 0
M  V30 1616 H 167.619 1.72491 3.62005 0
M  V30 1617 H 164.209 3.03146 3.02986 0
M  V30 1618 H 168.393 4.00692 2.92848 0
M  V30 1619 H 163.649 5.41705 2.83489 0
M  V30 1620 H 167.823 6.40026 2.74481 0
M  V30 1621 H 165.45 7.10895 2.69318 0
M  V30 1622 N 167.025 -1.13721 1.09112 0
M  V30 1623 C 167.955 -2.21148 0.749385 0
M  V30 1624 C 168.936 -1.6792 -0.271475 0
M  V30 1625 O 170.121 -1.93693 -0.140251 0
M  V30 1626 C 167.251 -3.46905 0.165659 0
M  V30 1627 C 166.205 -4.13203 1.11567 0
M  V30 1628 C 165.531 -5.33248 0.393809 0
M  V30 1629 C 166.831 -4.60912 2.45678 0
M  V30 1630 H 168.525 -2.4999 1.64758 0
M  V30 1631 H 166.071 -1.20156 0.793626 0
M  V30 1632 H 168.024 -4.21313 -0.085466 0
M  V30 1633 H 166.748 -3.17449 -0.767714 0
M  V30 1634 H 165.407 -3.40758 1.35202 0
M  V30 1635 H 165.055 -5.00054 -0.543599 0
M  V30 1636 H 164.755 -5.78552 1.02721 0
M  V30 1637 H 166.279 -6.10413 0.150908 0
M  V30 1638 H 167.693 -5.26759 2.26269 0
M  V30 1639 H 166.09 -5.16944 3.04776 0
M  V30 1640 H 167.16 -3.75603 3.06677 0
M  V30 1641 N 168.503 -0.877838 -1.30888 0
M  V30 1642 C 169.749 -0.493426 -1.96706 0
M  V30 1643 C 170.082 0.953504 -1.6918 0
M  V30 1644 O 169.357 1.67266 -0.992594 0
M  V30 1645 C 169.64 -0.760429 -3.51979 0
M  V30 1646 C 169.493 -2.25747 -3.89048 0
M  V30 1647 C 170.812 -0.232148 -4.39487 0
M  V30 1648 H 167.931 -0.180746 -0.714493 0
M  V30 1649 H 170.573 -1.10052 -1.54882 0
M  V30 1650 H 168.723 -0.243715 -3.87735 0
M  V30 1651 H 170.395 -2.84204 -3.63354 0
M  V30 1652 H 168.638 -2.72694 -3.37373 0
M  V30 1653 H 169.309 -2.39491 -4.97341 0
M  V30 1654 H 171.785 -0.674314 -4.106 0
M  V30 1655 H 170.661 -0.448355 -5.47066 0
M  V30 1656 H 170.922 0.866297 -4.33529 0
M  V30 1657 N 169.982 1.44106 -0.638065 0
M  V30 1658 C 170.932 2.27843 0.0847285 0
M  V30 1659 C 171.916 1.39055 0.809471 0
M  V30 1660 O 173.108 1.62808 0.694435 0
M  V30 1661 C 170.237 3.26497 1.06089 0
M  V30 1662 C 169.323 4.22772 0.33541 0
M  V30 1663 N 169.714 5.01737 -0.639787 0
M  V30 1664 C 168.012 4.42227 0.578921 0
M  V30 1665 C 168.713 5.71792 -1.06904 0
M  V30 1666 N 167.689 5.42079 -0.406395 0
M  V30 1667 H 171.491 2.86305 -0.663814 0
M  V30 1668 H 169.005 1.55627 -0.464122 0
M  V30 1669 H 171.002 3.8525 1.59337 0
M  V30 1670 H 169.662 2.69595 1.80966 0
M  V30 1671 H 170.673 5.07799 -1.01789 0
M  V30 1672 H 167.35 3.96415 1.31003 0
M  V30 1673 H 168.74 6.45205 -1.8751 0
M  V30 1674 N 171.46 0.379036 1.52974 0
M  V30 1675 C 172.707 -0.206421 2.01445 0
M  V30 1676 C 173.035 -1.47668 1.26587 0
M  V30 1677 O 172.29 -1.92514 0.351675 0
M  V30 1678 C 172.589 -0.53096 3.53434 0
M  V30 1679 C 172.255 0.646546 4.46241 0
M  V30 1680 C 170.917 0.969604 4.7133 0
M  V30 1681 C 173.269 1.43479 5.01062 0
M  V30 1682 C 170.597 2.08263 5.48492 0
M  V30 1683 C 172.949 2.53834 5.7944 0
M  V30 1684 C 171.613 2.86659 6.02812 0
M  V30 1685 H 170.883 -0.0755349 0.73714 0
M  V30 1686 H 173.53 0.514271 1.84465 0
M  V30 1687 H 171.835 -1.33285 3.68432 0
M  V30 1688 H 173.532 -0.996417 3.88423 0
M  V30 1689 H 170.122 0.384734 4.2687 0
M  V30 1690 H 174.306 1.19844 4.81613 0
M  V30 1691 H 169.562 2.34078 5.64816 0
M  V30 1692 H 173.736 3.15319 6.20924 0
M  V30 1693 H 171.363 3.73026 6.62387 0
M  V30 1694 N 172.938 -1.57226 0.108567 0
M  V30 1695 C 174.187 -1.94008 -0.551703 0
M  V30 1696 C 174.5 -0.993442 -1.68494 0
M  V30 1697 O 175.706 -1.25551 -2.40726 0
M  V30 1698 C 174.162 -3.44763 -1.03279 0
M  V30 1699 C 173.77 -4.47943 0.0714193 0
M  V30 1700 C 175.514 -3.90483 -1.66503 0
M  V30 1701 C 173.421 -5.89865 -0.425779 0
M  V30 1702 H 172.351 -0.724206 -0.209863 0
M  V30 1703 H 175.002 -1.82547 0.186741 0
M  V30 1704 H 173.384 -3.51422 -1.82533 0
M  V30 1705 H 174.558 -4.52942 0.847365 0
M  V30 1706 H 172.873 -4.11913 0.609669 0
M  V30 1707 H 175.47 -4.93925 -2.04798 0
M  V30 1708 H 175.813 -3.29877 -2.53942 0
M  V30 1709 H 176.346 -3.86581 -0.938074 0
M  V30 1710 H 173.085 -6.54202 0.412316 0
M  V30 1711 H 172.605 -5.88309 -1.16843 0
M  V30 1712 H 174.284 -6.40844 -0.890397 0
M  V30 1713 N 174.416 0.165178 -1.56732 0
M  V30 1714 C 175.664 0.879068 -1.8198 0
M  V30 1715 C 175.985 1.82514 -0.686561 0
M  V30 1716 O 175.255 1.93694 0.293146 0
M  V30 1717 H 173.835 0.327608 -0.671329 0
M  V30 1718 H 176.497 0.163526 -1.94213 0
M  V30 1719 H 175.593 1.45228 -2.76252 0
M  V30 1720 N 175.894 1.51508 0.433938 0
M  V30 1721 C 177.171 1.54888 1.19453 0
M  V30 1722 C 177.551 0.315154 2.08734 0
M  V30 1723 O 176.899 -0.699558 2.17528 0
M  V30 1724 C 177.109 2.86467 1.99342 0
M  V30 1725 C 178.457 3.38545 2.56267 0
M  V30 1726 O 179.481 2.88041 2.0955 0
M  V30 1727 O 178.34 4.26675 3.41483 0
M  V30 1728 H 175.434 0.622863 0.544032 0
M  V30 1729 H 177.98 1.63823 0.442732 0
M  V30 1730 H 176.752 3.67718 1.33788 0
M  V30 1731 H 176.375 2.8071 2.8158 0
M  V30 1732 N 177.372 -0.689602 1.41712 0
M  V30 1733 C 178.305 -1.81403 1.3845 0
M  V30 1734 C 179.283 -1.60653 0.250874 0
M  V30 1735 O 180.467 -1.83323 0.43874 0
M  V30 1736 C 177.594 -3.18176 1.1611 0
M  V30 1737 C 176.64 -3.57705 2.3227 0
M  V30 1738 S 177.473 -3.61827 3.94767 0
M  V30 1739 C 178.629 -5.01318 3.74742 0
M  V30 1740 H 178.862 -1.83893 2.33603 0
M  V30 1741 H 176.395 -0.858878 1.28307 0
M  V30 1742 H 178.353 -3.97132 1.03907 0
M  V30 1743 H 177.014 -3.13288 0.225668 0
M  V30 1744 H 176.207 -4.57082 2.12349 0
M  V30 1745 H 175.809 -2.86073 2.40911 0
M  V30 1746 H 178.101 -5.88986 3.34817 0
M  V30 1747 H 179.044 -5.26283 4.73743 0
M  V30 1748 H 179.452 -4.73138 3.07898 0
M  V30 1749 N 178.85 -1.27639 -0.924453 0
M  V30 1750 C 180.078 -1.16989 -1.70649 0
M  V30 1751 C 180.493 0.272869 -1.86818 0
M  V30 1752 O 179.85 1.18549 -1.38753 0
M  V30 1753 C 179.901 -1.85229 -3.10439 0
M  V30 1754 O 179.622 -3.23868 -2.95028 0
M  V30 1755 C 181.123 -1.80746 -4.04779 0
M  V30 1756 H 178.343 -0.406595 -0.53378 0
M  V30 1757 H 180.887 -1.68569 -1.15778 0
M  V30 1758 H 179.042 -1.37545 -3.6216 0
M  V30 1759 H 179.456 -3.57889 -3.83426 0
M  V30 1760 H 180.93 -2.33101 -5.00368 0
M  V30 1761 H 181.407 -0.777499 -4.32263 0
M  V30 1762 H 182.013 -2.28059 -3.58984 0
M  V30 1763 N 180.328 1.1314 -1.09713 0
M  V30 1764 C 181.26 2.18343 -0.697056 0
M  V30 1765 C 182.273 1.60669 0.262551 0
M  V30 1766 O 183.462 1.78435 0.0481527 0
M  V30 1767 C 180.562 3.38899 -0.00684728 0
M  V30 1768 C 179.735 4.26078 -0.988741 0
M  V30 1769 C 178.794 5.25155 -0.331394 0
M  V30 1770 O 177.82 5.60701 -0.979926 0
M  V30 1771 N 179.022 5.73271 0.913261 0
M  V30 1772 H 181.787 2.5328 -1.60216 0
M  V30 1773 H 179.348 1.28491 -0.984971 0
M  V30 1774 H 181.34 4.02255 0.444191 0
M  V30 1775 H 179.91 3.02175 0.800551 0
M  V30 1776 H 179.13 3.59453 -1.61826 0
M  V30 1777 H 180.418 4.81178 -1.65364 0
M  V30 1778 H 179.816 5.46544 1.45966 0
M  V30 1779 H 178.373 6.3855 1.30757 0
M  V30 1780 N 181.806 0.884767 1.30421 0
M  V30 1781 C 183.217 0.553656 1.78302 0
M  V30 1782 C 183.568 -0.930153 1.7275 0
M  V30 1783 O 182.693 -1.72681 1.30423 0
M  V30 1784 C 183.288 0.998234 3.2376 0
M  V30 1785 C 181.847 0.71854 3.69478 0
M  V30 1786 C 180.994 1.18132 2.50879 0
M  V30 1787 H 183.945 1.06901 1.17294 0
M  V30 1788 H 183.966 0.327118 3.79091 0
M  V30 1789 H 183.478 2.0782 3.27769 0
M  V30 1790 H 181.579 -0.349444 3.70958 0
M  V30 1791 H 181.692 1.30595 4.60958 0
M  V30 1792 H 180.056 0.600669 2.47516 0
M  V30 1793 H 180.839 2.26902 2.57624 0
M  V30 1794 N 183.284 -1.43765 0.645699 0
M  V30 1795 C 184.214 -2.33471 -0.0370477 0
M  V30 1796 C 185.195 -1.49042 -0.819779 0
M  V30 1797 O 186.38 -1.77726 -0.782758 0
M  V30 1798 C 183.51 -3.32311 -1.0093 0
M  V30 1799 C 182.464 -4.2667 -0.337201 0
M  V30 1800 C 181.79 -5.1549 -1.42037 0
M  V30 1801 C 183.09 -5.16657 0.765706 0
M  V30 1802 H 184.784 -2.90809 0.712069 0
M  V30 1803 H 182.33 -1.39834 0.343876 0
M  V30 1804 H 184.283 -3.9396 -1.49578 0
M  V30 1805 H 183.007 -2.73213 -1.78948 0
M  V30 1806 H 181.666 -3.66374 0.128771 0
M  V30 1807 H 181.314 -4.52735 -2.1918 0
M  V30 1808 H 181.014 -5.79438 -0.975966 0
M  V30 1809 H 182.538 -5.80012 -1.90838 0
M  V30 1810 H 183.952 -5.72158 0.361702 0
M  V30 1811 H 182.349 -5.89286 1.13413 0
M  V30 1812 H 183.419 -4.56796 1.62683 0
M  V30 1813 N 184.763 -0.387143 -1.52771 0
M  V30 1814 C 185.713 0.465942 -2.23188 0
M  V30 1815 C 186.697 1.03138 -1.23496 0
M  V30 1816 O 187.889 0.957845 -1.48843 0
M  V30 1817 C 185.018 1.59384 -3.04059 0
M  V30 1818 C 184.104 1.04024 -4.11144 0
M  V30 1819 N 184.495 0.211416 -5.05358 0
M  V30 1820 C 182.793 1.31295 -4.26237 0
M  V30 1821 C 183.494 -0.0941698 -5.81624 0
M  V30 1822 N 182.47 0.509207 -5.4121 0
M  V30 1823 H 186.272 -0.173856 -2.93385 0
M  V30 1824 H 183.786 -0.19633 -1.61209 0
M  V30 1825 H 185.783 2.21738 -3.53041 0
M  V30 1826 H 184.443 2.23648 -2.35397 0
M  V30 1827 H 185.454 -0.151151 -5.17679 0
M  V30 1828 H 182.131 1.95679 -3.68803 0
M  V30 1829 H 183.521 -0.765572 -6.67524 0
M  V30 1830 N 186.241 1.57166 -0.116904 0
M  V30 1831 C 187.518 1.86645 0.585049 0
M  V30 1832 C 187.898 1.0177 1.84949 0
M  V30 1833 O 187.246 0.0960379 2.28298 0
M  V30 1834 C 187.456 3.37736 0.879507 0
M  V30 1835 C 188.804 4.06289 1.23348 0
M  V30 1836 O 189.828 3.42743 0.969836 0
M  V30 1837 O 188.687 5.18455 1.7282 0
M  V30 1838 H 185.781 0.772593 0.295007 0
M  V30 1839 H 188.327 1.69025 -0.151249 0
M  V30 1840 H 187.099 3.91296 -0.0166136 0
M  V30 1841 H 186.722 3.6078 1.67103 0
M  V30 1842 N 187.719 -0.156864 1.56817 0
M  V30 1843 C 188.629 -1.2136 2.00771 0
M  V30 1844 C 189.645 -1.47598 0.921459 0
M  V30 1845 O 190.821 -1.59462 1.2302 0
M  V30 1846 C 187.886 -2.52943 2.37109 0
M  V30 1847 C 186.947 -2.34439 3.59634 0
M  V30 1848 C 186.18 -3.59748 3.94229 0
M  V30 1849 O 186.403 -4.65526 3.29609 0
M  V30 1850 O 185.337 -3.52998 4.8752 0
M  V30 1851 H 189.163 -0.870468 2.90958 0
M  V30 1852 H 186.748 -0.36484 1.44877 0
M  V30 1853 H 188.63 -3.30538 2.61386 0
M  V30 1854 H 187.305 -2.86806 1.5008 0
M  V30 1855 H 186.212 -1.54828 3.40557 0
M  V30 1856 H 187.545 -2.05496 4.4725 0
M  V30 1857 N 189.197 -1.51736 -0.425897 0
M  V30 1858 C 190.16 -1.73271 -1.50032 0
M  V30 1859 C 191.16 -0.602639 -1.4908 0
M  V30 1860 O 192.35 -0.87033 -1.509 0
M  V30 1861 C 189.482 -1.79969 -2.89523 0
M  V30 1862 H 190.675 -2.69172 -1.32237 0
M  V30 1863 H 188.228 -1.41899 -0.65532 0
M  V30 1864 H 188.963 -0.859241 -3.1271 0
M  V30 1865 H 188.748 -2.62109 -2.91619 0
M  V30 1866 H 190.238 -1.9843 -3.67444 0
M  V30 1867 N 190.675 0.682077 -1.42076 0
M  V30 1868 C 191.905 1.46844 -1.45329 0
M  V30 1869 C 192.313 1.89102 -0.0609328 0
M  V30 1870 O 191.656 1.58238 0.933082 0
M  V30 1871 C 191.718 2.75375 -2.31104 0
M  V30 1872 C 191.382 2.55238 -3.79081 0
M  V30 1873 C 192.379 2.20309 -4.70914 0
M  V30 1874 C 190.064 2.70459 -4.2327 0
M  V30 1875 C 192.058 2.00859 -6.04925 0
M  V30 1876 C 189.745 2.50624 -5.57343 0
M  V30 1877 C 190.743 2.15876 -6.47986 0
M  V30 1878 O 190.431 1.96227 -7.79583 0
M  V30 1879 H 190.163 0.4586 -0.496651 0
M  V30 1880 H 192.717 0.846131 -1.87162 0
M  V30 1881 H 190.947 3.40061 -1.84107 0
M  V30 1882 H 192.636 3.37231 -2.25898 0
M  V30 1883 H 193.402 2.08153 -4.38061 0
M  V30 1884 H 189.281 2.96485 -3.53012 0
M  V30 1885 H 192.825 1.7366 -6.75639 0
M  V30 1886 H 188.722 2.62375 -5.89771 0
M  V30 1887 H 189.49 2.10883 -7.90867 0
M  V30 1888 N 192.153 1.28127 0.917671 0
M  V30 1889 C 193.116 1.11744 2.00115 0
M  V30 1890 C 194.116 0.0583052 1.60694 0
M  V30 1891 O 195.306 0.303755 1.71531 0
M  V30 1892 C 192.438 0.704862 3.33533 0
M  V30 1893 H 193.631 2.07966 2.16079 0
M  V30 1894 H 191.184 1.11058 1.09981 0
M  V30 1895 H 191.919 -0.258299 3.2327 0
M  V30 1896 H 191.704 1.4699 3.63505 0
M  V30 1897 H 193.194 0.612768 4.1308 0
M  V30 1898 N 193.631 -1.12557 1.10312 0
M  V30 1899 C 194.877 -1.84311 0.846011 0
M  V30 1900 C 195.21 -1.83805 -0.626859 0
M  V30 1901 O 194.485 -1.28268 -1.46211 0
M  V30 1902 C 194.768 -3.32048 1.39341 0
M  V30 1903 C 194.621 -3.41016 2.93305 0
M  V30 1904 C 195.94 -4.27764 1.03468 0
M  V30 1905 H 193.059 -0.669192 0.30879 0
M  V30 1906 H 195.701 -1.32057 1.36605 0
M  V30 1907 H 193.851 -3.76678 0.951087 0
M  V30 1908 H 195.523 -3.05031 3.46055 0
M  V30 1909 H 193.766 -2.81603 3.29973 0
M  V30 1910 H 194.437 -4.44948 3.26689 0
M  V30 1911 H 196.913 -3.91253 1.41633 0
M  V30 1912 H 195.789 -5.29549 1.44463 0
M  V30 1913 H 196.05 -4.42064 -0.0560404 0
M  V30 1914 N 195.109 -0.891671 -1.2995 0
M  V30 1915 C 196.357 -0.512486 -1.95494 0
M  V30 1916 C 196.678 0.942776 -1.70695 0
M  V30 1917 O 195.948 1.66374 -1.03424 0
M  V30 1918 H 194.528 -0.186533 -0.723336 0
M  V30 1919 H 197.19 -1.13621 -1.58355 0
M  V30 1920 H 196.286 -0.688342 -3.04415 0
M  V30 1921 N 196.587 1.43421 -0.653314 0
M  V30 1922 C 197.835 2.01414 -0.166415 0
M  V30 1923 C 198.156 1.51803 1.22397 0
M  V30 1924 O 197.426 0.730693 1.81763 0
M  V30 1925 H 196.006 0.744703 -0.0585319 0
M  V30 1926 H 198.668 1.75629 -0.845003 0
M  V30 1927 H 197.764 3.11734 -0.151111 0
M  V30 1928 N 198.065 0.39524 1.52563 0
M  V30 1929 C 199.013 -0.451859 2.28169 0
M  V30 1930 C 200.007 -1.05792 1.32304 0
M  V30 1931 O 201.213 -0.997718 1.49818 0
M  V30 1932 H 197.588 -0.164481 0.733792 0
M  V30 1933 H 199.559 0.207199 2.9768 0
M  V30 1934 C 198.308 -1.56385 3.10546 0
M  V30 1935 H 197.631 -1.10682 3.84174 0
M  V30 1936 H 199.071 -2.13067 3.66577 0
M  V30 1937 C 197.53 -2.52328 2.23231 0
M  V30 1938 O 198.06 -3.5588 1.86312 0
M  V30 1939 N 196.266 -2.22209 1.87274 0
M  V30 1940 H 195.813 -1.38033 2.17496 0
M  V30 1941 H 195.771 -2.86652 1.29143 0
M  V30 1942 N 199.544 -1.57102 0.125237 0
M  V30 1943 C 200.491 -2.15641 -0.822655 0
M  V30 1944 C 201.461 -1.08313 -1.25927 0
M  V30 1945 O 202.646 -1.36251 -1.33567 0
M  V30 1946 C 199.786 -2.76504 -2.06494 0
M  V30 1947 C 198.899 -3.98158 -1.67612 0
M  V30 1948 C 198.034 -4.47088 -2.86854 0
M  V30 1949 C 197.073 -5.6126 -2.44242 0
M  V30 1950 N 196.21 -6.04905 -3.56419 0
M  V30 1951 H 201.05 -2.96313 -0.316625 0
M  V30 1952 H 198.587 -1.46388 -0.144588 0
M  V30 1953 H 200.545 -3.09925 -2.79289 0
M  V30 1954 H 199.175 -1.98512 -2.54545 0
M  V30 1955 H 198.227 -3.70858 -0.846661 0
M  V30 1956 H 199.539 -4.80934 -1.32301 0
M  V30 1957 H 198.693 -4.82451 -3.67867 0
M  V30 1958 H 197.432 -3.63275 -3.25396 0
M  V30 1959 H 196.437 -5.25495 -1.61663 0
M  V30 1960 H 197.662 -6.46843 -2.0681 0
M  V30 1961 H 195.608 -5.24032 -3.94623 0
M  V30 1962 H 195.525 -6.82552 -3.25051 0
M  V30 1963 H 196.793 -6.44907 -4.37853 0
M  V30 1964 N 201.022 0.148545 -1.56898 0
M  V30 1965 C 202.271 0.85984 -1.82454 0
M  V30 1966 C 202.584 1.82406 -0.706229 0
M  V30 1967 O 203.79 2.57938 -0.847349 0
M  V30 1968 C 202.246 1.57967 -3.2338 0
M  V30 1969 C 201.854 0.65794 -4.43142 0
M  V30 1970 C 203.598 2.27784 -3.58211 0
M  V30 1971 C 201.505 1.3793 -5.75091 0
M  V30 1972 H 200.435 0.324834 -0.68044 0
M  V30 1973 H 203.086 0.112588 -1.83154 0
M  V30 1974 H 201.468 2.37249 -3.17063 0
M  V30 1975 H 202.642 -0.0995497 -4.60692 0
M  V30 1976 H 200.957 0.0682643 -4.16344 0
M  V30 1977 H 203.554 2.8239 -4.54048 0
M  V30 1978 H 203.897 3.04204 -2.84193 0
M  V30 1979 H 204.43 1.55421 -3.66182 0
M  V30 1980 H 201.169 0.656982 -6.52199 0
M  V30 1981 H 200.689 2.10954 -5.61479 0
M  V30 1982 H 202.368 1.92063 -6.17835 0
M  V30 1983 N 202.5 1.5196 0.417844 0
M  V30 1984 C 203.448 1.75278 1.52907 0
M  V30 1985 C 204.442 0.619611 1.57662 0
M  V30 1986 O 205.648 0.801457 1.61173 0
M  V30 1987 H 202.023 0.554141 0.508362 0
M  V30 1988 H 203.994 2.68389 1.30422 0
M  V30 1989 C 202.743 1.91262 2.90369 0
M  V30 1990 H 202.066 2.77872 2.8745 0
M  V30 1991 H 203.506 2.11581 3.67436 0
M  V30 1992 C 201.965 0.677431 3.30019 0
M  V30 1993 O 202.495 -0.158799 4.01386 0
M  V30 1994 N 200.701 0.515851 2.85985 0
M  V30 1995 H 200.248 1.19744 2.28077 0
M  V30 1996 H 200.206 -0.309315 3.12875 0
M  V30 1997 N 203.978 -0.674533 1.42435 0
M  V30 1998 C 205.224 -1.43671 1.43131 0
M  V30 1999 C 205.557 -1.94142 0.0476021 0
M  V30 2000 O 204.832 -1.70924 -0.928188 0
M  V30 2001 C 205.115 -2.63355 2.45594 0
M  V30 2002 C 204.968 -2.18514 3.93156 0
M  V30 2003 C 206.287 -3.65571 2.45043 0
M  V30 2004 H 203.406 -0.521077 0.521198 0
M  V30 2005 H 206.048 -0.766551 1.7385 0
M  V30 2006 H 204.198 -3.2053 2.19528 0
M  V30 2007 H 205.87 -1.66504 4.30202 0
M  V30 2008 H 204.113 -1.50086 4.07009 0
M  V30 2009 H 204.784 -3.04484 4.60428 0
M  V30 2010 H 207.26 -3.18113 2.68223 0
M  V30 2011 H 206.136 -4.46893 3.18713 0
M  V30 2012 H 206.397 -4.16716 1.47649 0
M  V30 2013 N 205.456 -1.28612 -0.910864 0
M  V30 2014 C 206.684 -1.18792 -1.69399 0
M  V30 2015 C 207.099 0.253039 -1.87097 0
M  V30 2016 O 206.456 1.17071 -1.40003 0
M  V30 2017 C 206.507 -1.88511 -3.08457 0
M  V30 2018 O 206.228 -3.26979 -2.91576 0
M  V30 2019 C 207.729 -1.85029 -4.02839 0
M  V30 2020 H 204.949 -0.412233 -0.529438 0
M  V30 2021 H 207.493 -1.69788 -1.13984 0
M  V30 2022 H 205.648 -1.41379 -3.60681 0
M  V30 2023 H 206.062 -3.61936 -3.79608 0
M  V30 2024 H 207.536 -2.38395 -4.97867 0
M  V30 2025 H 208.013 -0.823303 -4.31414 0
M  V30 2026 H 208.619 -2.31853 -3.56545 0
M  V30 2027 N 206.934 1.1197 -1.10907 0
M  V30 2028 C 208.181 1.83588 -0.854507 0
M  V30 2029 C 208.509 1.84357 0.6199 0
M  V30 2030 O 207.764 1.28809 1.47332 0
M  V30 2031 C 208.063 3.30749 -1.35425 0
M  V30 2032 C 207.729 3.50146 -2.84093 0
M  V30 2033 C 206.391 3.55148 -3.2469 0
M  V30 2034 C 208.743 3.56857 -3.79872 0
M  V30 2035 C 206.071 3.6441 -4.59806 0
M  V30 2036 C 208.423 3.6765 -5.14797 0
M  V30 2037 C 207.087 3.7091 -5.54961 0
M  V30 2038 H 206.357 0.671795 -0.312686 0
M  V30 2039 H 209.004 1.32091 -1.38652 0
M  V30 2040 H 207.309 3.84703 -0.742361 0
M  V30 2041 H 209.006 3.8464 -1.1337 0
M  V30 2042 H 205.596 3.46919 -2.51685 0
M  V30 2043 H 209.78 3.52258 -3.49611 0
M  V30 2044 H 205.036 3.65208 -4.9034 0
M  V30 2045 H 209.21 3.71786 -5.88853 0
M  V30 2046 H 206.837 3.7784 -6.59652 0
M  V30 2047 N 208.412 0.89855 1.29475 0
M  V30 2048 C 209.689 0.443416 1.90508 0
M  V30 2049 C 210.069 -1.07685 1.81569 0
M  V30 2050 O 209.417 -1.9182 1.24166 0
M  V30 2051 C 209.627 0.956708 3.35631 0
M  V30 2052 C 210.975 0.999728 4.12663 0
M  V30 2053 O 211.999 0.904299 3.4453 0
M  V30 2054 O 210.858 1.14289 5.34416 0
M  V30 2055 H 207.952 0.138025 0.815401 0
M  V30 2056 H 210.498 0.98834 1.37949 0
M  V30 2057 H 209.27 2.00067 3.36287 0
M  V30 2058 H 208.893 0.391728 3.95666 0
M  V30 2059 N 209.89 -1.43072 0.660911 0
M  V30 2060 C 211.138 -2.01323 0.177094 0
M  V30 2061 C 211.459 -1.5245 -1.2159 0
M  V30 2062 O 210.729 -0.740322 -1.81373 0
M  V30 2063 H 209.309 -0.744382 0.0624804 0
M  V30 2064 H 211.971 -1.75179 0.854305 0
M  V30 2065 H 211.067 -3.11649 0.167641 0
M  V30 2066 N 211.368 -0.403325 -1.52352 0
M  V30 2067 C 212.598 0.17376 -2.05868 0
M  V30 2068 C 213.006 1.39898 -1.27378 0
M  V30 2069 O 212.349 1.80939 -0.31729 0
M  V30 2070 C 212.411 0.594756 -3.54546 0
M  V30 2071 C 212.075 -0.518926 -4.54044 0
M  V30 2072 C 213.072 -1.3807 -5.01231 0
M  V30 2073 C 210.757 -0.689961 -4.97539 0
M  V30 2074 C 212.751 -2.39852 -5.90551 0
M  V30 2075 C 210.438 -1.71109 -5.86656 0
M  V30 2076 C 211.436 -2.56378 -6.33056 0
M  V30 2077 O 211.124 -3.56743 -7.20409 0
M  V30 2078 H 210.856 0.0264951 -0.675481 0
M  V30 2079 H 213.41 -0.571179 -1.97299 0
M  V30 2080 H 211.64 1.39189 -3.60782 0
M  V30 2081 H 213.329 1.0991 -3.90736 0
M  V30 2082 H 214.095 -1.25994 -4.68349 0
M  V30 2083 H 209.974 -0.035939 -4.60986 0
M  V30 2084 H 213.518 -3.06441 -6.26689 0
M  V30 2085 H 209.415 -1.83218 -6.18952 0
M  V30 2086 H 210.183 -3.52918 -7.38506 0
M  V30 2087 N 212.846 1.57033 -0.133567 0
M  V30 2088 C 213.796 2.12641 0.822671 0
M  V30 2089 C 214.78 1.05081 1.21847 0
M  V30 2090 O 215.972 1.31287 1.18713 0
M  V30 2091 C 213.101 2.74094 2.06706 0
M  V30 2092 C 212.187 3.88757 1.69497 0
M  V30 2093 N 212.578 4.95194 1.03037 0
M  V30 2094 C 210.876 3.99213 1.98859 0
M  V30 2095 C 211.577 5.75414 0.852873 0
M  V30 2096 N 210.553 5.25726 1.3825 0
M  V30 2097 H 214.355 2.92308 0.305537 0
M  V30 2098 H 211.869 1.62256 0.0684276 0
M  V30 2099 H 213.866 3.12285 2.76195 0
M  V30 2100 H 212.526 1.95896 2.5895 0
M  V30 2101 H 213.537 5.13247 0.692669 0
M  V30 2102 H 210.214 3.32075 2.53047 0
M  V30 2103 H 211.604 6.71089 0.330091 0
M  V30 2104 N 214.325 -0.140222 1.56975 0
M  V30 2105 C 215.602 -0.880769 1.74648 0
M  V30 2106 C 215.982 -1.99036 0.703404 0
M  V30 2107 O 215.33 -2.26821 -0.27648 0
M  V30 2108 C 215.54 -1.417 3.18939 0
M  V30 2109 C 216.888 -1.87774 3.80823 0
M  V30 2110 O 217.912 -1.51427 3.2241 0
M  V30 2111 O 216.771 -2.54827 4.83452 0
M  V30 2112 H 213.865 -0.416713 0.714338 0
M  V30 2113 H 216.411 -0.125618 1.69234 0
M  V30 2114 H 215.183 -0.619902 3.86359 0
M  V30 2115 H 214.806 -2.23546 3.28805 0
M  V30 2116 N 215.803 -1.52179 -0.40978 0
M  V30 2117 C 216.751 -1.76086 -1.51975 0
M  V30 2118 C 217.745 -0.627964 -1.57331 0
M  V30 2119 O 218.951 -0.809993 -1.60745 0
M  V30 2120 H 215.326 -0.556829 -0.505416 0
M  V30 2121 H 217.297 -2.69077 -1.28996 0
M  V30 2122 C 216.046 -1.92799 -2.8935 0
M  V30 2123 H 215.369 -2.79392 -2.85972 0
M  V30 2124 H 216.809 -2.13527 -3.66309 0
M  V30 2125 C 215.268 -0.694923 -3.29655 0
M  V30 2126 O 215.798 0.13751 -4.01465 0
M  V30 2127 N 214.004 -0.53101 -2.85707 0
M  V30 2128 H 213.551 -1.20952 -2.27439 0
M  V30 2129 H 213.509 0.292718 -3.13034 0
M  V30 2130 N 217.281 0.66697 -1.42791 0
M  V30 2131 C 218.211 1.79218 -1.49677 0
M  V30 2132 C 219.192 1.66405 -0.352623 0
M  V30 2133 O 220.377 1.85708 -0.567993 0
M  V30 2134 C 217.507 3.17565 -1.40605 0
M  V30 2135 C 216.461 3.45124 -2.53127 0
M  V30 2136 C 215.787 4.83127 -2.29112 0
M  V30 2137 C 217.087 3.41236 -3.95418 0
M  V30 2138 H 218.781 1.73713 -2.43853 0
M  V30 2139 H 216.327 0.83432 -1.17367 0
M  V30 2140 H 218.28 3.96022 -1.44029 0
M  V30 2141 H 217.004 3.23767 -0.429271 0
M  V30 2142 H 215.663 2.69031 -2.49034 0
M  V30 2143 H 215.311 4.85988 -1.29709 0
M  V30 2144 H 215.011 5.02528 -3.04531 0
M  V30 2145 H 216.535 5.63859 -2.34297 0
M  V30 2146 H 217.949 4.09651 -4.01073 0
M  V30 2147 H 216.346 3.72173 -4.70752 0
M  V30 2148 H 217.416 2.39665 -4.21532 0
M  V30 2149 N 218.759 1.29093 0.90403 0
M  V30 2150 C 219.709 1.10482 1.99443 0
M  V30 2151 C 220.693 0.0255401 1.6088 0
M  V30 2152 O 221.885 0.24677 1.75271 0
M  V30 2153 C 219.014 0.778882 3.34348 0
M  V30 2154 C 218.1 1.89749 3.79284 0
M  V30 2155 N 218.491 3.14045 3.96497 0
M  V30 2156 C 216.789 1.78955 4.08523 0
M  V30 2157 C 217.49 3.86996 4.34292 0
M  V30 2158 N 216.466 3.14909 4.43095 0
M  V30 2159 H 220.268 2.04778 2.10815 0
M  V30 2160 H 217.782 1.20155 1.09255 0
M  V30 2161 H 219.779 0.62661 4.12164 0
M  V30 2162 H 218.439 -0.156205 3.24324 0
M  V30 2163 H 219.45 3.49548 3.82148 0
M  V30 2164 H 216.127 0.926886 4.07081 0
M  V30 2165 H 217.517 4.93941 4.55491 0
M  V30 2166 N 220.237 -1.11381 1.11499 0
M  V30 2167 C 221.462 -1.87475 0.887019 0
M  V30 2168 C 221.887 -1.79639 -0.557796 0
M  V30 2169 O 221.245 -1.15924 -1.39396 0
M  V30 2170 C 221.293 -3.34213 1.35403 0
M  V30 2171 O 220.397 -4.0903 0.526146 0
M  V30 2172 H 219.738 -0.582099 0.319463 0
M  V30 2173 H 222.268 -1.40785 1.48461 0
M  V30 2174 H 222.278 -3.8506 1.34881 0
M  V30 2175 H 220.953 -3.39232 2.40612 0
M  V30 2176 H 219.53 -3.68082 0.597522 0
M  V30 2177 N 221.715 -0.905404 -1.28997 0
M  V30 2178 C 222.992 -0.453513 -1.9027 0
M  V30 2179 C 223.372 1.06721 -1.82137 0
M  V30 2180 O 222.72 1.91159 -1.25182 0
M  V30 2181 C 222.93 -0.974494 -3.35119 0
M  V30 2182 C 224.278 -1.0216 -4.12127 0
M  V30 2183 O 225.302 -0.922557 -3.44046 0
M  V30 2184 O 224.161 -1.17121 -5.33802 0
M  V30 2185 H 221.255 -0.142347 -0.814657 0
M  V30 2186 H 223.801 -0.995642 -1.37423 0
M  V30 2187 H 222.573 -2.01848 -3.35221 0
M  V30 2188 H 222.196 -0.412706 -3.95452 0
M  V30 2189 N 223.193 1.4272 -0.668489 0
M  V30 2190 C 224.439 2.02443 -0.197076 0
M  V30 2191 C 224.794 1.51882 1.18109 0
M  V30 2192 O 224.087 0.708618 1.78015 0
M  V30 2193 C 224.281 3.57021 -0.164499 0
M  V30 2194 C 224.11 4.22583 -1.53797 0
M  V30 2195 C 222.88 4.58019 -2.13416 0
M  V30 2196 C 225.078 4.50588 -2.47941 0
M  V30 2197 N 223.06 5.08729 -3.4361 0
M  V30 2198 C 224.431 5.02782 -3.62782 0
M  V30 2199 C 226.486 4.32571 -2.46551 0
M  V30 2200 C 225.189 5.38852 -4.76478 0
M  V30 2201 C 227.215 4.69713 -3.59338 0
M  V30 2202 C 226.577 5.22053 -4.72906 0
M  V30 2203 H 222.676 0.773214 -0.116894 0
M  V30 2204 H 225.26 1.73673 -0.880108 0
M  V30 2205 H 223.431 3.85323 0.487925 0
M  V30 2206 H 225.163 4.03439 0.319207 0
M  V30 2207 H 221.918 4.43566 -1.65969 0
M  V30 2208 H 222.342 5.38521 -4.10273 0
M  V30 2209 H 226.984 3.91365 -1.59978 0
M  V30 2210 H 224.702 5.78993 -5.63731 0
M  V30 2211 H 228.288 4.57454 -3.59482 0
M  V30 2212 H 227.168 5.50258 -5.58736 0
M  V30 2213 N 224.671 0.411399 1.52136 0
M  V30 2214 C 225.948 -0.222308 1.94333 0
M  V30 2215 C 226.328 -1.6242 1.34844 0
M  V30 2216 O 225.676 -2.22384 0.525145 0
M  V30 2217 C 225.886 -0.226345 3.48265 0
M  V30 2218 C 227.234 -0.444592 4.22266 0
M  V30 2219 O 228.258 -0.305602 3.54887 0
M  V30 2220 O 227.117 -0.718749 5.41753 0
M  V30 2221 H 224.211 -0.143907 0.814383 0
M  V30 2222 H 226.757 0.467506 1.63133 0
M  V30 2223 H 225.529 0.75475 3.83952 0
M  V30 2224 H 225.152 -0.960163 3.85832 0
M  V30 2225 N 226.149 -1.5696 0.141893 0
M  V30 2226 C 227.377 -2.00322 -0.517579 0
M  V30 2227 C 227.792 -1.02193 -1.58752 0
M  V30 2228 O 227.149 -0.0181619 -1.82491 0
M  V30 2229 C 227.2 -3.43618 -1.12289 0
M  V30 2230 O 226.921 -4.37995 -0.0956929 0
M  V30 2231 C 228.422 -4.02231 -1.86347 0
M  V30 2232 H 225.642 -0.657243 -0.135177 0
M  V30 2233 H 228.186 -2.03146 0.234973 0
M  V30 2234 H 226.341 -3.41662 -1.82609 0
M  V30 2235 H 226.755 -5.21729 -0.538469 0
M  V30 2236 H 228.229 -5.04509 -2.23997 0
M  V30 2237 H 228.706 -3.42655 -2.74744 0
M  V30 2238 H 229.312 -4.07802 -1.20737 0
M  V30 2239 N 227.627 0.131896 -1.57047 0
M  V30 2240 C 228.857 0.855219 -1.88068 0
M  V30 2241 C 229.265 1.74557 -0.729817 0
M  V30 2242 O 228.608 1.81083 0.308962 0
M  V30 2243 C 228.67 1.75119 -3.13964 0
M  V30 2244 C 228.334 1.03646 -4.45091 0
M  V30 2245 C 229.331 0.383276 -5.18485 0
M  V30 2246 C 227.016 1.02148 -4.91804 0
M  V30 2247 C 229.01 -0.275347 -6.36805 0
M  V30 2248 C 226.697 0.359047 -6.10044 0
M  V30 2249 C 227.695 -0.288222 -6.82392 0
M  V30 2250 O 227.383 -0.94011 -7.98384 0
M  V30 2251 H 227.115 0.251864 -0.627328 0
M  V30 2252 H 229.669 0.124782 -2.05021 0
M  V30 2253 H 227.899 2.52295 -2.9306 0
M  V30 2254 H 229.588 2.3478 -3.31109 0
M  V30 2255 H 230.354 0.386562 -4.83457 0
M  V30 2256 H 226.233 1.5147 -4.35405 0
M  V30 2257 H 229.777 -0.781148 -6.93213 0
M  V30 2258 H 225.674 0.35348 -6.44531 0
M  V30 2259 H 226.442 -0.84329 -8.14144 0
M  V30 2260 N 229.106 1.52395 0.401703 0
M  V30 2261 C 230.039 1.70999 1.51111 0
M  V30 2262 C 231.017 0.55765 1.52738 0
M  V30 2263 O 232.201 0.785912 1.71335 0
M  V30 2264 C 229.328 1.75607 2.8962 0
M  V30 2265 C 228.374 2.97227 3.05873 0
M  V30 2266 S 229.207 4.57439 2.78405 0
M  V30 2267 C 230.363 4.64844 4.19131 0
M  V30 2268 H 230.596 2.6483 1.35102 0
M  V30 2269 H 228.129 1.42527 0.593762 0
M  V30 2270 H 230.087 1.78947 3.69443 0
M  V30 2271 H 228.748 0.828914 3.02965 0
M  V30 2272 H 227.941 2.96955 4.07227 0
M  V30 2273 H 227.543 2.91813 2.33925 0
M  V30 2274 H 229.835 4.42677 5.12877 0
M  V30 2275 H 230.778 5.66807 4.24424 0
M  V30 2276 H 231.186 3.93804 4.04448 0
M  V30 2277 N 230.584 -0.659388 1.43143 0
M  V30 2278 C 231.995 -1.24041 1.39537 0
M  V30 2279 C 232.346 -1.95963 0.0963364 0
M  V30 2280 O 231.471 -2.00892 -0.804438 0
M  V30 2281 C 232.066 -2.25601 2.52764 0
M  V30 2282 C 230.625 -2.79195 2.52443 0
M  V30 2283 C 229.772 -1.53743 2.30778 0
M  V30 2284 H 232.723 -0.451792 1.52133 0
M  V30 2285 H 232.744 -3.07651 2.23899 0
M  V30 2286 H 232.256 -1.73226 3.47296 0
M  V30 2287 H 230.357 -3.35649 1.61773 0
M  V30 2288 H 230.47 -3.2716 3.50004 0
M  V30 2289 H 228.834 -1.80869 1.79328 0
M  V30 2290 H 229.617 -1.03312 3.27386 0
M  V30 2291 N 232.062 -1.29571 -0.897171 0
M  V30 2292 C 232.994 -1.10724 -2.00681 0
M  V30 2293 C 234.007 -0.0540026 -1.6271 0
M  V30 2294 O 235.196 -0.298783 -1.75982 0
M  V30 2295 C 232.296 -0.663912 -3.32333 0
M  V30 2296 C 231.469 -1.79622 -3.98816 0
M  V30 2297 C 230.528 -1.34349 -5.0876 0
M  V30 2298 O 229.554 -2.04864 -5.31055 0
M  V30 2299 N 230.756 -0.215764 -5.80099 0
M  V30 2300 H 233.521 -2.06291 -2.17403 0
M  V30 2301 H 231.082 -1.21544 -1.06951 0
M  V30 2302 H 233.074 -0.344295 -4.03233 0
M  V30 2303 H 231.644 0.199375 -3.11964 0
M  V30 2304 H 230.864 -2.28459 -3.21248 0
M  V30 2305 H 232.152 -2.55535 -4.39976 0
M  V30 2306 H 231.55 0.372091 -5.64475 0
M  V30 2307 H 230.107 0.0444707 -6.51785 0
M  V30 2308 N 233.54 1.10788 -1.12088 0
M  V30 2309 C 234.487 2.17025 -0.785407 0
M  V30 2310 C 235.457 1.64265 0.246191 0
M  V30 2311 O 236.642 1.90412 0.121584 0
M  V30 2312 C 233.782 3.44249 -0.242177 0
M  V30 2313 C 232.895 4.1098 -1.33115 0
M  V30 2314 C 232.03 5.25911 -0.747741 0
M  V30 2315 C 231.069 5.84538 -1.81609 0
M  V30 2316 N 230.206 6.90853 -1.25167 0
M  V30 2317 H 235.046 2.45066 -1.69548 0
M  V30 2318 H 232.583 1.20297 -0.846582 0
M  V30 2319 H 234.541 4.17101 0.0908026 0
M  V30 2320 H 233.171 3.16571 0.631072 0
M  V30 2321 H 232.223 3.36133 -1.78097 0
M  V30 2322 H 233.535 4.50601 -2.13917 0
M  V30 2323 H 232.689 6.056 -0.365216 0
M  V30 2324 H 231.428 4.87614 0.0915188 0
M  V30 2325 H 230.433 5.03522 -2.20785 0
M  V30 2326 H 231.658 6.249 -2.6585 0
M  V30 2327 H 229.604 6.54562 -0.434174 0
M  V30 2328 H 229.521 7.29166 -1.99633 0
M  V30 2329 H 230.789 7.7433 -0.896259 0
M  V30 2330 N 235.018 0.912232 1.28515 0
M  V30 2331 C 235.948 0.416403 2.29757 0
M  V30 2332 C 236.929 -0.515194 1.6211 0
M  V30 2333 O 238.114 -0.423253 1.89532 0
M  V30 2334 C 235.244 -0.34572 3.45575 0
M  V30 2335 C 234.198 0.496599 4.25109 0
M  V30 2336 C 233.524 -0.393771 5.33248 0
M  V30 2337 C 234.824 1.75307 4.92001 0
M  V30 2338 H 236.518 1.26249 2.7148 0
M  V30 2339 H 234.064 0.608515 1.30511 0
M  V30 2340 H 236.017 -0.703422 4.15488 0
M  V30 2341 H 234.741 -1.2257 3.02728 0
M  V30 2342 H 233.4 0.8368 3.56922 0
M  V30 2343 H 233.048 -1.27225 4.86644 0
M  V30 2344 H 232.748 0.166209 5.87365 0
M  V30 2345 H 234.272 -0.747389 6.06009 0
M  V30 2346 H 235.686 1.46437 5.54283 0
M  V30 2347 H 234.083 2.25534 5.56106 0
M  V30 2348 H 235.153 2.48176 4.16577 0
M  V30 2349 N 236.496 -1.42363 0.676048 0
M  V30 2350 C 237.745 -2.00745 0.196037 0
M  V30 2351 C 238.058 -1.54083 -1.20489 0
M  V30 2352 O 239.264 -2.04891 -1.78134 0
M  V30 2353 C 237.72 -3.58651 0.299616 0
M  V30 2354 C 237.328 -4.143 1.70468 0
M  V30 2355 C 239.072 -4.24326 -0.121619 0
M  V30 2356 C 236.979 -5.64574 1.76096 0
M  V30 2357 H 235.909 -0.750787 0.0695301 0
M  V30 2358 H 238.56 -1.63072 0.841412 0
M  V30 2359 H 236.942 -3.93833 -0.413673 0
M  V30 2360 H 238.116 -3.90575 2.44515 0
M  V30 2361 H 236.431 -3.61081 2.07387 0
M  V30 2362 H 239.028 -5.34607 -0.0997362 0
M  V30 2363 H 239.371 -3.99897 -1.15708 0
M  V30 2364 H 239.904 -3.94108 0.540706 0
M  V30 2365 H 236.643 -5.93804 2.77628 0
M  V30 2366 H 236.163 -5.90286 1.06406 0
M  V30 2367 H 237.842 -6.29013 1.51496 0
M  V30 2368 N 237.974 -0.419461 -1.51915 0
M  V30 2369 C 239.222 0.152637 -2.01523 0
M  V30 2370 C 239.543 1.44762 -1.30649 0
M  V30 2371 O 238.813 1.90997 -0.435535 0
M  V30 2372 H 237.393 0.0593966 -0.744635 0
M  V30 2373 H 240.055 -0.558073 -1.86739 0
M  V30 2374 H 239.151 0.341369 -3.10227 0
M  V30 2375 N 239.452 1.56882 -0.150215 0
M  V30 2376 C 240.7 1.9584 0.499105 0
M  V30 2377 C 241.021 1.03623 1.65188 0
M  V30 2378 O 240.291 0.0984084 1.95653 0
M  V30 2379 H 238.871 0.723119 0.187373 0
M  V30 2380 H 241.533 1.9358 -0.226466 0
M  V30 2381 H 240.629 2.99638 0.873122 0
M  V30 2382 N 240.93 -0.123565 1.57115 0
M  V30 2383 C 241.88 -1.1575 1.96433 0
M  V30 2384 C 242.864 -1.37313 0.838686 0
M  V30 2385 O 244.056 -1.38482 1.10235 0
M  V30 2386 C 241.185 -2.48526 2.36833 0
M  V30 2387 C 240.271 -2.30457 3.5602 0
M  V30 2388 N 240.662 -1.8219 4.71848 0
M  V30 2389 C 238.96 -2.61129 3.61563 0
M  V30 2390 C 239.661 -1.77721 5.53886 0
M  V30 2391 N 238.637 -2.21899 4.96248 0
M  V30 2392 H 242.439 -0.776797 2.83449 0
M  V30 2393 H 239.953 -0.331364 1.58983 0
M  V30 2394 H 241.95 -3.233 2.63216 0
M  V30 2395 H 240.61 -2.87358 1.5118 0
M  V30 2396 H 241.621 -1.51805 4.95152 0
M  V30 2397 H 238.298 -3.03678 2.86507 0
M  V30 2398 H 239.688 -1.41697 6.56789 0
M  V30 2399 N 242.408 -1.52605 -0.393616 0
M  V30 2400 C 243.371 -1.76415 -1.46323 0
M  V30 2401 C 244.371 -0.634126 -1.47768 0
M  V30 2402 O 245.561 -0.902142 -1.4902 0
M  V30 2403 C 242.693 -1.8607 -2.85641 0
M  V30 2404 H 243.886 -2.71916 -1.26498 0
M  V30 2405 H 241.439 -1.43257 -0.625073 0
M  V30 2406 H 242.174 -0.925378 -3.10817 0
M  V30 2407 H 241.959 -2.68235 -2.85993 0
M  V30 2408 H 243.449 -2.06179 -3.63153 0
M  V30 2409 N 243.887 0.651787 -1.4349 0
M  V30 2410 C 244.817 1.77621 -1.51569 0
M  V30 2411 C 245.798 1.66022 -0.370253 0
M  V30 2412 O 246.983 1.85095 -0.587658 0
M  V30 2413 C 244.113 3.16056 -1.43966 0
M  V30 2414 C 243.067 3.4242 -2.56774 0
M  V30 2415 C 242.393 4.8067 -2.34223 0
M  V30 2416 C 243.693 3.37023 -3.99015 0
M  V30 2417 H 245.387 1.71117 -2.45681 0
M  V30 2418 H 242.933 0.821825 -1.18246 0
M  V30 2419 H 244.886 3.94472 -1.48221 0
M  V30 2420 H 243.61 3.23293 -0.463586 0
M  V30 2421 H 242.269 2.66375 -2.51873 0
M  V30 2422 H 241.917 4.84585 -1.34856 0
M  V30 2423 H 241.617 4.9927 -3.09844 0
M  V30 2424 H 243.141 5.61342 -2.40265 0
M  V30 2425 H 244.555 4.05374 -4.05395 0
M  V30 2426 H 242.952 3.67159 -4.74673 0
M  V30 2427 H 244.022 2.3518 -4.2405 0
M  V30 2428 N 245.365 1.30045 0.890287 0
M  V30 2429 C 246.59 1.21598 1.68014 0
M  V30 2430 C 247.015 -0.218678 1.86825 0
M  V30 2431 O 246.373 -1.15756 1.39536 0
M  V30 2432 C 246.421 1.94434 3.03691 0
M  V30 2433 O 245.525 1.2678 3.92429 0
M  V30 2434 H 244.866 0.420856 0.513592 0
M  V30 2435 H 247.396 1.71775 1.11151 0
M  V30 2436 H 247.406 2.03251 3.5377 0
M  V30 2437 H 246.081 2.98777 2.89318 0
M  V30 2438 H 244.658 1.26282 3.50866 0
M  V30 2439 N 246.843 -1.10192 1.12674 0
M  V30 2440 C 248.12 -1.78717 0.794965 0
M  V30 2441 C 248.5 -1.98628 -0.714853 0
M  V30 2442 O 247.848 -1.58135 -1.64941 0
M  V30 2443 C 248.058 -3.11546 1.5729 0
M  V30 2444 C 249.406 -3.86382 1.76052 0
M  V30 2445 O 250.43 -3.21274 1.53823 0
M  V30 2446 O 249.289 -5.03246 2.13087 0
M  V30 2447 H 246.383 -0.774702 0.289423 0
M  V30 2448 H 248.929 -1.16819 1.23091 0
M  V30 2449 H 247.701 -2.92489 2.59935 0
M  V30 2450 H 247.324 -3.81164 1.13137 0
M  V30 2451 N 248.321 -0.919034 -1.28029 0
M  V30 2452 C 249.284 -0.416182 -2.2539 0
M  V30 2453 C 250.284 0.460438 -1.54067 0
M  V30 2454 O 251.474 0.262744 -1.72207 0
M  V30 2455 C 248.606 0.402707 -3.38513 0
M  V30 2456 H 249.799 -1.27629 -2.71387 0
M  V30 2457 H 247.352 -0.698919 -1.39803 0
M  V30 2458 H 248.087 1.282 -2.97885 0
M  V30 2459 H 247.872 -0.225698 -3.9145 0
M  V30 2460 H 249.362 0.745191 -4.10897 0
M  V30 2461 N 249.799 1.42003 -0.683588 0
M  V30 2462 C 250.709 2.34597 -0.0109075 0
M  V30 2463 C 251.725 1.55576 0.779245 0
M  V30 2464 O 252.901 1.88107 0.719555 0
M  V30 2465 C 249.966 3.34199 0.922588 0
M  V30 2466 C 249.027 4.29115 0.125984 0
M  V30 2467 C 248.26 5.23959 1.01502 0
M  V30 2468 O 248.483 5.23952 2.25456 0
M  V30 2469 O 247.417 6.00053 0.47111 0
M  V30 2470 H 251.243 2.93675 -0.773853 0
M  V30 2471 H 248.828 1.42654 -0.443861 0
M  V30 2472 H 250.71 3.95365 1.45823 0
M  V30 2473 H 249.385 2.77582 1.66523 0
M  V30 2474 H 248.292 3.71335 -0.453969 0
M  V30 2475 H 249.625 4.88798 -0.577736 0
M  V30 2476 N 251.277 0.427512 1.51691 0
M  V30 2477 C 252.502 -0.143601 2.06902 0
M  V30 2478 C 252.927 -1.36536 1.29382 0
M  V30 2479 O 252.285 -1.78289 0.329043 0
M  V30 2480 C 252.333 -0.454207 3.57728 0
M  V30 2481 O 251.437 -1.54228 3.82475 0
M  V30 2482 H 250.778 -0.00617128 0.663971 0
M  V30 2483 H 253.308 0.606014 1.95419 0
M  V30 2484 H 253.318 -0.707525 4.01818 0
M  V30 2485 H 251.993 0.438812 4.13579 0
M  V30 2486 H 250.57 -1.2797 3.50254 0
M  V30 2487 N 252.755 -1.56801 0.158532 0
M  V30 2488 C 254.001 -1.97559 -0.483957 0
M  V30 2489 C 254.356 -1.04239 -1.61716 0
M  V30 2490 O 253.649 -0.079603 -1.91435 0
M  V30 2491 C 253.843 -3.4235 -1.02623 0
M  V30 2492 C 253.672 -4.49669 0.0528929 0
M  V30 2493 C 252.442 -5.02838 0.498234 0
M  V30 2494 C 254.64 -5.0725 0.848616 0
M  V30 2495 N 252.622 -5.93775 1.559 0
M  V30 2496 C 253.993 -5.94506 1.7596 0
M  V30 2497 C 256.048 -4.89788 0.895121 0
M  V30 2498 C 254.751 -6.66169 2.71314 0
M  V30 2499 C 256.777 -5.62161 1.83654 0
M  V30 2500 C 256.139 -6.49134 2.73503 0
M  V30 2501 H 252.238 -0.768332 -0.145566 0
M  V30 2502 H 254.822 -1.93012 0.255799 0
M  V30 2503 H 252.993 -3.47467 -1.73555 0
M  V30 2504 H 254.725 -3.70145 -1.63629 0
M  V30 2505 H 251.48 -4.73498 0.0983222 0
M  V30 2506 H 251.904 -6.43948 2.08949 0
M  V30 2507 H 256.546 -4.22255 0.21453 0
M  V30 2508 H 254.264 -7.32923 3.40367 0
M  V30 2509 H 257.85 -5.5064 1.87847 0
M  V30 2510 H 256.73 -7.04153 3.45163 0
M  V30 2511 N 254.233 0.115231 -1.57178 0
M  V30 2512 C 255.196 1.12526 -1.99676 0
M  V30 2513 C 256.196 1.34095 -0.88742 0
M  V30 2514 O 257.386 1.30548 -1.15337 0
M  V30 2515 C 254.518 2.4789 -2.34015 0
M  V30 2516 H 255.711 0.759912 -2.90113 0
M  V30 2517 H 253.264 0.359648 -1.52106 0
M  V30 2518 H 253.999 2.89339 -1.4647 0
M  V30 2519 H 253.784 2.33588 -3.14927 0
M  V30 2520 H 255.274 3.20575 -2.67622 0
M  V30 2521 N 255.711 1.52812 0.385517 0
M  V30 2522 C 256.658 1.77838 1.47113 0
M  V30 2523 C 257.628 0.621757 1.54024 0
M  V30 2524 O 258.813 0.861846 1.70226 0
M  V30 2525 C 255.953 1.95618 2.84302 0
M  V30 2526 C 255.066 3.23316 2.86515 0
M  V30 2527 C 254.201 3.31394 4.15152 0
M  V30 2528 C 253.24 4.53201 4.1143 0
M  V30 2529 N 252.377 4.58542 5.3168 0
M  V30 2530 H 257.217 2.70482 1.25073 0
M  V30 2531 H 254.754 1.34006 0.606692 0
M  V30 2532 H 256.712 2.03912 3.63972 0
M  V30 2533 H 255.342 1.06331 3.04784 0
M  V30 2534 H 254.394 3.24076 1.99195 0
M  V30 2535 H 255.706 4.13045 2.79634 0
M  V30 2536 H 254.86 3.3889 5.03228 0
M  V30 2537 H 253.599 2.39645 4.24761 0
M  V30 2538 H 252.604 4.45827 3.21742 0
M  V30 2539 H 253.829 5.46271 4.03442 0
M  V30 2540 H 251.775 3.69686 5.41912 0
M  V30 2541 H 251.692 5.42148 5.26889 0
M  V30 2542 H 252.96 4.70296 6.21644 0
M  V30 2543 N 257.189 -0.644168 1.43834 0
M  V30 2544 C 258.417 -1.43147 1.49387 0
M  V30 2545 C 258.832 -1.88452 0.114583 0
M  V30 2546 O 258.189 -1.60047 -0.876989 0
M  V30 2547 C 258.24 -2.66046 2.44748 0
M  V30 2548 O 257.961 -2.22633 3.77314 0
M  V30 2549 C 259.462 -3.59311 2.59635 0
M  V30 2550 H 256.682 -0.439447 0.507077 0
M  V30 2551 H 259.226 -0.78895 1.88669 0
M  V30 2552 H 257.381 -3.26418 2.08638 0
M  V30 2553 H 257.795 -3.02216 4.28679 0
M  V30 2554 H 259.269 -4.42187 3.30416 0
M  V30 2555 H 259.746 -4.07259 1.64427 0
M  V30 2556 H 260.352 -3.04816 2.96593 0
M  V30 2557 N 258.668 -1.30515 -0.883378 0
M  V30 2558 C 259.598 -1.19607 -2.00541 0
M  V30 2559 C 260.579 -0.086346 -1.69881 0
M  V30 2560 O 261.764 -0.268654 -1.92333 0
M  V30 2561 C 258.894 -0.888758 -3.35736 0
M  V30 2562 C 257.848 -1.95659 -3.8066 0
M  V30 2563 C 257.174 -1.50224 -5.13164 0
M  V30 2564 C 258.474 -3.36788 -3.99213 0
M  V30 2565 H 260.168 -2.13476 -2.09925 0
M  V30 2566 H 257.714 -1.02775 -1.00863 0
M  V30 2567 H 259.667 -0.799094 -4.13754 0
M  V30 2568 H 258.391 0.0856125 -3.26488 0
M  V30 2569 H 257.05 -2.03591 -3.04871 0
M  V30 2570 H 256.698 -0.516092 -5.00345 0
M  V30 2571 H 256.398 -2.2165 -5.44192 0
M  V30 2572 H 257.922 -1.42639 -5.93706 0
M  V30 2573 H 259.336 -3.31605 -4.67665 0
M  V30 2574 H 257.733 -4.06314 -4.41621 0
M  V30 2575 H 258.803 -3.78561 -3.03017 0
M  V30 2576 N 260.146 1.09593 -1.13257 0
M  V30 2577 C 261.392 1.82003 -0.89458 0
M  V30 2578 C 261.725 1.85402 0.577906 0
M  V30 2579 O 261 1.32099 1.42759 0
M  V30 2580 C 261.283 3.28237 -1.48096 0
M  V30 2581 C 261.136 3.3312 -3.02244 0
M  V30 2582 C 262.455 4.24871 -1.14774 0
M  V30 2583 H 259.574 0.66077 -0.326424 0
M  V30 2584 H 262.216 1.28389 -1.40058 0
M  V30 2585 H 260.366 3.74024 -1.05062 0
M  V30 2586 H 262.038 2.95748 -3.54021 0
M  V30 2587 H 260.281 2.72756 -3.37323 0
M  V30 2588 H 260.952 4.3613 -3.38371 0
M  V30 2589 H 263.428 3.87361 -1.51957 0
M  V30 2590 H 262.304 5.25532 -1.58452 0
M  V30 2591 H 262.565 4.42058 -0.0611849 0
M  V30 2592 N 261.624 0.925811 1.2754 0
M  V30 2593 C 262.556 0.380753 2.26015 0
M  V30 2594 C 263.569 -0.487485 1.5533 0
M  V30 2595 O 264.758 -0.300413 1.75954 0
M  V30 2596 C 261.858 -0.473259 3.35579 0
M  V30 2597 C 261.031 0.375249 4.35787 0
M  V30 2598 C 260.09 -0.415809 5.24555 0
M  V30 2599 O 259.116 0.175834 5.68928 0
M  V30 2600 N 260.318 -1.71607 5.54555 0
M  V30 2601 H 263.083 1.22725 2.73421 0
M  V30 2602 H 260.644 0.793037 1.41147 0
M  V30 2603 H 262.636 -1.00949 3.91907 0
M  V30 2604 H 261.206 -1.2205 2.87789 0
M  V30 2605 H 260.426 1.09279 3.7875 0
M  V30 2606 H 261.714 0.955399 4.99749 0
M  V30 2607 H 261.112 -2.2191 5.20358 0
M  V30 2608 H 259.669 -2.19887 6.1359 0
M  V30 2609 N 263.102 -1.41638 0.69111 0
M  V30 2610 C 264.05 -2.32597 0.0115199 0
M  V30 2611 C 265.044 -1.5072 -0.773296 0
M  V30 2612 O 266.25 -1.66685 -0.67942 0
M  V30 2613 H 262.625 -0.751849 -0.0150746 0
M  V30 2614 H 264.596 -2.87593 0.795791 0
M  V30 2615 C 263.345 -3.35467 -0.914172 0
M  V30 2616 H 262.668 -3.9852 -0.319687 0
M  V30 2617 H 264.108 -4.01662 -1.35808 0
M  V30 2618 C 262.567 -2.69004 -2.02826 0
M  V30 2619 O 263.097 -2.53444 -3.11655 0
M  V30 2620 N 261.303 -2.2777 -1.80469 0
M  V30 2621 H 260.85 -2.40626 -0.919615 0
M  V30 2622 H 260.808 -1.83635 -2.55197 0
M  V30 2623 N 264.58 -0.43555 -1.51462 0
M  V30 2624 C 265.829 0.133007 -2.01261 0
M  V30 2625 C 266.142 1.43942 -1.32439 0
M  V30 2626 O 267.348 2.09081 -1.73198 0
M  V30 2627 C 265.804 0.287581 -3.58749 0
M  V30 2628 C 265.412 -1.00829 -4.36506 0
M  V30 2629 C 267.156 0.810004 -4.167 0
M  V30 2630 C 265.063 -0.819454 -5.85695 0
M  V30 2631 H 263.993 0.0534822 -0.752101 0
M  V30 2632 H 266.644 -0.565038 -1.74584 0
M  V30 2633 H 265.026 1.04859 -3.81865 0
M  V30 2634 H 266.2 -1.77749 -4.25138 0
M  V30 2635 H 264.515 -1.45911 -3.89999 0
M  V30 2636 H 267.112 0.967743 -5.2587 0
M  V30 2637 H 267.455 1.79196 -3.75758 0
M  V30 2638 H 267.988 0.107357 -3.97655 0
M  V30 2639 H 264.727 -1.77374 -6.31046 0
M  V30 2640 H 264.247 -0.0900208 -5.99732 0
M  V30 2641 H 265.926 -0.471949 -6.45276 0
M  V30 2642 N 266.058 1.56714 -0.166846 0
M  V30 2643 C 266.968 2.21331 0.777791 0
M  V30 2644 C 267.984 1.20358 1.25658 0
M  V30 2645 O 269.16 1.53005 1.30964 0
M  V30 2646 C 266.225 2.83787 1.99163 0
M  V30 2647 C 265.286 3.99947 1.56016 0
M  V30 2648 C 264.519 4.59415 2.71613 0
M  V30 2649 O 264.742 4.17769 3.88362 0
M  V30 2650 O 263.676 5.49359 2.45945 0
M  V30 2651 H 267.502 3.02605 0.257636 0
M  V30 2652 H 265.087 1.49275 0.0611393 0
M  V30 2653 H 266.969 3.23405 2.70161 0
M  V30 2654 H 265.644 2.05513 2.50092 0
M  V30 2655 H 264.551 3.65007 0.819809 0
M  V30 2656 H 265.884 4.79801 1.09782 0
M  V30 2657 N 267.536 -0.106894 1.57237 0
M  V30 2658 C 268.761 -0.830287 1.90055 0
M  V30 2659 C 269.186 -1.72064 0.75998 0
M  V30 2660 O 268.544 -1.78982 -0.288991 0
M  V30 2661 C 268.592 -1.6295 3.21683 0
M  V30 2662 O 267.696 -2.73748 3.08441 0
M  V30 2663 H 267.037 -0.228855 0.623315 0
M  V30 2664 H 269.567 -0.085658 2.04421 0
M  V30 2665 H 269.577 -2.01621 3.54701 0
M  V30 2666 H 268.252 -0.975989 4.04286 0
M  V30 2667 H 266.829 -2.38192 2.86913 0
M  V30 2668 N 269.014 -1.53014 -0.377408 0
M  V30 2669 C 270.262 -1.6829 -1.11906 0
M  V30 2670 C 270.583 -0.431206 -1.90173 0
M  V30 2671 O 269.853 0.554595 -1.87886 0
M  V30 2672 H 268.433 -0.620371 -0.416112 0
M  V30 2673 H 271.095 -1.90167 -0.426893 0
M  V30 2674 H 270.191 -2.53862 -1.8155 0
M  V30 2675 N 270.492 0.636531 -1.44174 0
M  V30 2676 C 271.44 1.76995 -1.50915 0
M  V30 2677 C 272.434 1.65053 -0.381295 0
M  V30 2678 O 273.64 1.71197 -0.55601 0
M  V30 2679 H 270.015 0.584247 -0.473455 0
M  V30 2680 H 271.986 1.68432 -2.4632 0
M  V30 2681 C 270.735 3.15314 -1.46534 0
M  V30 2682 H 270.058 3.25149 -2.32633 0
M  V30 2683 H 271.498 3.9453 -1.55312 0
M  V30 2684 C 269.957 3.3639 -0.185305 0
M  V30 2685 O 270.487 3.94699 0.746688 0
M  V30 2686 N 268.693 2.9046 -0.0901606 0
M  V30 2687 H 268.24 2.43193 -0.849416 0
M  V30 2688 H 268.198 3.04937 0.765553 0
M  V30 2689 N 271.97 1.30982 0.876444 0
M  V30 2690 C 273.2 1.23063 1.65949 0
M  V30 2691 C 273.608 -0.207537 1.88058 0
M  V30 2692 O 272.951 -1.14781 1.43426 0
M  V30 2693 C 273.013 1.89768 3.05333 0
M  V30 2694 C 272.677 3.39106 3.0636 0
M  V30 2695 C 273.674 4.3496 2.84791 0
M  V30 2696 C 271.359 3.80693 3.27686 0
M  V30 2697 C 273.353 5.70375 2.84519 0
M  V30 2698 C 271.04 5.16223 3.27043 0
M  V30 2699 C 272.038 6.10875 3.05485 0
M  V30 2700 O 271.726 7.43928 3.04674 0
M  V30 2701 H 271.458 0.426685 0.524324 0
M  V30 2702 H 274.012 1.7329 1.10271 0
M  V30 2703 H 272.242 1.34082 3.6271 0
M  V30 2704 H 273.931 1.75853 3.65829 0
M  V30 2705 H 274.697 4.0416 2.68103 0
M  V30 2706 H 270.576 3.07457 3.43499 0
M  V30 2707 H 274.12 6.44228 2.67611 0
M  V30 2708 H 270.017 5.4666 3.43269 0
M  V30 2709 H 270.785 7.53022 3.2078 0
M  V30 2710 N 273.449 -1.08991 1.13837 0
M  V30 2711 C 274.677 -1.85011 0.926202 0
M  V30 2712 C 275.092 -1.8135 -0.525127 0
M  V30 2713 O 274.449 -1.21287 -1.36366 0
M  V30 2714 C 274.5 -3.32802 1.41155 0
M  V30 2715 O 274.221 -3.36444 2.80601 0
M  V30 2716 C 275.722 -4.25649 1.23847 0
M  V30 2717 H 272.942 -0.584249 0.32999 0
M  V30 2718 H 275.486 -1.37688 1.51202 0
M  V30 2719 H 273.641 -3.77536 0.868631 0
M  V30 2720 H 274.055 -4.28657 3.02248 0
M  V30 2721 H 275.529 -5.27485 1.62675 0
M  V30 2722 H 276.006 -4.38828 0.18065 0
M  V30 2723 H 276.612 -3.86735 1.76964 0
M  V30 2724 N 274.927 -0.932562 -1.27047 0
M  V30 2725 C 275.89 -0.440064 -2.24936 0
M  V30 2726 C 276.89 0.444071 -1.54547 0
M  V30 2727 O 278.08 0.244465 -1.72476 0
M  V30 2728 C 275.212 0.36678 -3.38921 0
M  V30 2729 H 276.405 -1.305 -2.70018 0
M  V30 2730 H 273.958 -0.713707 -1.39054 0
M  V30 2731 H 274.693 1.25033 -2.99228 0
M  V30 2732 H 274.478 -0.267204 -3.91188 0
M  V30 2733 H 275.968 0.701567 -4.11665 0
M  V30 2734 N 276.405 1.4127 -0.698611 0
M  V30 2735 C 277.337 2.292 0.00399731 0
M  V30 2736 C 278.35 1.44944 0.741279 0
M  V30 2737 O 279.539 1.68416 0.591477 0
M  V30 2738 C 276.639 3.22875 1.02979 0
M  V30 2739 C 275.812 4.35904 0.36151 0
M  V30 2740 C 274.871 5.10134 1.29033 0
M  V30 2741 O 273.897 5.63809 0.781562 0
M  V30 2742 N 275.099 5.17885 2.6225 0
M  V30 2743 H 277.864 2.9014 -0.750921 0
M  V30 2744 H 275.425 1.52455 -0.544882 0
M  V30 2745 H 277.417 3.69404 1.65296 0
M  V30 2746 H 275.987 2.63221 1.68622 0
M  V30 2747 H 275.207 3.91719 -0.441584 0
M  V30 2748 H 276.495 5.08696 -0.103055 0
M  V30 2749 H 275.893 4.7573 3.061 0
M  V30 2750 H 274.45 5.6798 3.19754 0
M  V30 2751 N 277.883 0.443576 1.51229 0
M  V30 2752 C 278.846 -0.353132 2.26463 0
M  V30 2753 C 279.846 -0.944338 1.3015 0
M  V30 2754 O 281.036 -0.817813 1.5381 0
M  V30 2755 C 278.168 -1.50023 3.06114 0
M  V30 2756 H 279.361 0.3063 2.98332 0
M  V30 2757 H 276.914 0.196902 1.55055 0
M  V30 2758 H 277.649 -2.19553 2.38677 0
M  V30 2759 H 277.434 -1.08241 3.76864 0
M  V30 2760 H 278.924 -2.06296 3.63087 0
M  V30 2761 N 279.361 -1.56624 0.175154 0
M  V30 2762 C 280.61 -1.96173 -0.468921 0
M  V30 2763 C 280.923 -1.06401 -1.64128 0
M  V30 2764 O 282.129 -1.35648 -2.35185 0
M  V30 2765 C 280.585 -3.48833 -0.885633 0
M  V30 2766 C 280.193 -4.47237 0.261343 0
M  V30 2767 C 281.937 -3.97194 -1.49791 0
M  V30 2768 C 279.844 -5.9114 -0.175214 0
M  V30 2769 H 278.774 -0.732455 -0.178958 0
M  V30 2770 H 281.425 -1.81591 0.263997 0
M  V30 2771 H 279.807 -3.58848 -1.67464 0
M  V30 2772 H 280.981 -4.4894 1.03871 0
M  V30 2773 H 279.296 -4.08956 0.783827 0
M  V30 2774 H 281.893 -5.02167 -1.83665 0
M  V30 2775 H 282.236 -3.40351 -2.39722 0
M  V30 2776 H 282.769 -3.90212 -0.773267 0
M  V30 2777 H 279.508 -6.51865 0.689414 0
M  V30 2778 H 279.028 -5.92735 -0.91786 0
M  V30 2779 H 280.707 -6.44044 -0.617792 0
M  V30 2780 N 280.839 0.0985539 -1.57292 0
M  V30 2781 C 282.087 0.801092 -1.85545 0
M  V30 2782 C 282.408 1.79438 -0.763353 0
M  V30 2783 O 281.678 1.94763 0.21073 0
M  V30 2784 H 280.258 0.29884 -0.684619 0
M  V30 2785 H 282.92 0.0810064 -1.94732 0
M  V30 2786 H 282.016 1.3338 -2.82163 0
M  V30 2787 N 282.317 1.53212 0.369288 0
M  V30 2788 C 283.563 1.70413 1.11046 0
M  V30 2789 C 283.918 0.448509 1.87099 0
M  V30 2790 O 283.211 -0.558382 1.83283 0
M  V30 2791 C 283.405 2.89101 2.10132 0
M  V30 2792 C 283.234 4.26084 1.43814 0
M  V30 2793 C 282.004 4.90994 1.19384 0
M  V30 2794 C 284.202 5.06754 0.877802 0
M  V30 2795 N 282.184 6.11911 0.49377 0
M  V30 2796 C 283.555 6.1924 0.306891 0
M  V30 2797 C 285.61 4.91814 0.776129 0
M  V30 2798 C 284.313 7.1842 -0.355774 0
M  V30 2799 C 286.339 5.91263 0.127252 0
M  V30 2800 C 285.701 7.03069 -0.432801 0
M  V30 2801 H 281.8 0.676872 0.391623 0
M  V30 2802 H 284.384 1.90603 0.397334 0
M  V30 2803 H 282.555 2.70456 2.78761 0
M  V30 2804 H 284.287 2.95142 2.76899 0
M  V30 2805 H 281.042 4.50074 1.47413 0
M  V30 2806 H 281.466 6.76813 0.159207 0
M  V30 2807 H 286.108 4.05564 1.19489 0
M  V30 2808 H 283.826 8.04264 -0.786499 0
M  V30 2809 H 287.412 5.81779 0.0495613 0
M  V30 2810 H 286.292 7.78702 -0.926958 0
M  V30 2811 N 283.795 -0.628877 1.44509 0
M  V30 2812 C 285.044 -1.38437 1.4669 0
M  V30 2813 C 285.357 -1.95322 0.104272 0
M  V30 2814 O 286.563 -2.715 0.00362163 0
M  V30 2815 C 285.019 -2.50659 2.5826 0
M  V30 2816 C 284.627 -2.00277 4.0074 0
M  V30 2817 C 286.371 -3.27844 2.69664 0
M  V30 2818 C 284.278 -3.09854 5.0373 0
M  V30 2819 H 283.208 -0.520245 0.545766 0
M  V30 2820 H 285.859 -0.676313 1.70582 0
M  V30 2821 H 284.241 -3.2405 2.27612 0
M  V30 2822 H 285.415 -1.33736 4.40966 0
M  V30 2823 H 283.73 -1.35901 3.93599 0
M  V30 2824 H 286.327 -4.09534 3.43781 0
M  V30 2825 H 286.67 -3.77471 1.75559 0
M  V30 2826 H 287.203 -2.61543 2.99733 0
M  V30 2827 H 283.942 -2.65168 5.99472 0
M  V30 2828 H 283.462 -3.7503 4.68095 0
M  V30 2829 H 285.141 -3.74592 5.27532 0
M  V30 2830 N 285.273 -1.31445 -0.869486 0
M  V30 2831 C 286.22 -1.19135 -1.97675 0
M  V30 2832 C 287.19 -0.0770266 -1.65921 0
M  V30 2833 O 288.375 -0.249972 -1.89155 0
M  V30 2834 C 285.515 -0.905149 -3.33018 0
M  V30 2835 C 284.628 -2.10285 -3.77365 0
M  V30 2836 C 283.763 -1.75339 -5.01427 0
M  V30 2837 C 282.802 -2.91515 -5.38224 0
M  V30 2838 N 281.939 -2.56762 -6.53466 0
M  V30 2839 H 286.779 -2.13853 -2.07535 0
M  V30 2840 H 284.316 -1.06379 -1.01597 0
M  V30 2841 H 286.274 -0.719765 -4.10944 0
M  V30 2842 H 284.904 0.00519624 -3.228 0
M  V30 2843 H 283.956 -2.39899 -2.95216 0
M  V30 2844 H 285.268 -2.97237 -4.00564 0
M  V30 2845 H 284.422 -1.53266 -5.87022 0
M  V30 2846 H 283.161 -0.855801 -4.80133 0
M  V30 2847 H 282.166 -3.14237 -4.51149 0
M  V30 2848 H 283.391 -3.81985 -5.61484 0
M  V30 2849 H 281.337 -1.69526 -6.33717 0
M  V30 2850 H 281.254 -3.37243 -6.76612 0
M  V30 2851 H 282.522 -2.38083 -7.42251 0
M  V30 2852 N 286.751 1.08385 -1.14413 0
M  V30 2853 C 287.999 1.80419 -0.910679 0
M  V30 2854 C 288.32 1.86658 0.564243 0
M  V30 2855 O 287.59 1.35985 1.41014 0
M  V30 2856 H 286.17 0.668204 -0.333934 0
M  V30 2857 H 288.832 1.31037 -1.44275 0
M  V30 2858 H 287.928 2.83238 -1.31082 0
M  V30 2859 N 288.23 0.939286 1.26551 0
M  V30 2860 C 289.507 0.5038 1.89001 0
M  V30 2861 C 289.887 -1.01854 1.84903 0
M  V30 2862 O 289.235 -1.87773 1.30206 0
M  V30 2863 C 289.445 1.063 3.32417 0
M  V30 2864 C 290.793 1.13051 4.09273 0
M  V30 2865 O 291.817 1.01345 3.41479 0
M  V30 2866 O 290.676 1.31233 5.30509 0
M  V30 2867 H 287.77 0.163897 0.810597 0
M  V30 2868 H 290.316 1.03173 1.34735 0
M  V30 2869 H 289.088 2.10665 3.29752 0
M  V30 2870 H 288.711 0.517408 3.94219 0
M  V30 2871 N 289.708 -1.40897 0.706093 0
M  V30 2872 C 290.656 -2.32572 0.0361893 0
M  V30 2873 C 291.65 -1.51532 -0.757266 0
M  V30 2874 O 292.856 -1.67396 -0.661703 0
M  V30 2875 H 289.231 -0.751966 -0.00709935 0
M  V30 2876 H 291.202 -2.86733 0.826249 0
M  V30 2877 C 289.951 -3.36418 -0.87854 0
M  V30 2878 H 289.274 -3.98836 -0.277401 0
M  V30 2879 H 290.714 -4.0308 -1.3154 0
M  V30 2880 C 289.173 -2.71141 -1.99961 0
M  V30 2881 O 289.703 -2.56735 -3.0895 0
M  V30 2882 N 287.909 -2.29671 -1.78043 0
M  V30 2883 H 287.456 -2.41588 -0.894042 0
M  V30 2884 H 287.414 -1.86332 -2.53235 0
M  V30 2885 N 291.186 -0.45159 -1.50991 0
M  V30 2886 C 292.435 0.111653 -2.01391 0
M  V30 2887 C 292.748 1.42529 -1.33959 0
M  V30 2888 O 293.954 2.07232 -1.75405 0
M  V30 2889 C 292.41 0.249514 -3.59034 0
M  V30 2890 C 292.018 -1.05453 -4.35412 0
M  V30 2891 C 293.762 0.765762 -4.17536 0
M  V30 2892 C 291.669 -0.881529 -5.84793 0
M  V30 2893 H 290.599 0.0455022 -0.752626 0
M  V30 2894 H 293.25 -0.583524 -1.73975 0
M  V30 2895 H 291.632 1.00803 -3.82955 0
M  V30 2896 H 292.806 -1.82248 -4.23229 0
M  V30 2897 H 291.121 -1.50039 -3.88429 0
M  V30 2898 H 293.718 0.911913 -5.26866 0
M  V30 2899 H 294.061 1.75201 -3.77638 0
M  V30 2900 H 294.594 0.0651744 -3.97747 0
M  V30 2901 H 291.333 -1.84057 -6.29129 0
M  V30 2902 H 290.853 -0.153625 -5.99603 0
M  V30 2903 H 292.532 -0.540363 -6.4474 0
M  V30 2904 N 292.664 1.56529 -0.183458 0
M  V30 2905 C 293.889 2.02064 0.467428 0
M  V30 2906 C 294.314 1.06282 1.55196 0
M  V30 2907 O 293.672 0.0443565 1.81246 0
M  V30 2908 C 293.72 3.46122 1.01153 0
M  V30 2909 O 292.824 3.53437 2.12499 0
M  V30 2910 H 292.165 0.654726 0.110588 0
M  V30 2911 H 294.695 2.02521 -0.290917 0
M  V30 2912 H 294.705 3.85676 1.33108 0
M  V30 2913 H 293.38 4.15331 0.217533 0
M  V30 2914 H 291.957 3.2575 1.81497 0
M  V30 2915 N 294.142 -0.090211 1.57342 0
M  V30 2916 C 295.052 -1.12735 2.05738 0
M  V30 2917 C 296.068 -1.43557 0.983231 0
M  V30 2918 O 297.244 -1.54101 1.29672 0
M  V30 2919 C 294.309 -2.42659 2.47624 0
M  V30 2920 C 293.37 -2.18975 3.69254 0
M  V30 2921 C 292.603 -3.42704 4.09133 0
M  V30 2922 O 292.826 -4.51127 3.49057 0
M  V30 2923 O 291.76 -3.32003 5.02053 0
M  V30 2924 H 295.586 -0.746279 2.94388 0
M  V30 2925 H 293.171 -0.303064 1.46294 0
M  V30 2926 H 295.053 -3.19155 2.7517 0
M  V30 2927 H 293.728 -2.80182 1.62109 0
M  V30 2928 H 292.635 -1.40244 3.46818 0
M  V30 2929 H 293.968 -1.86342 4.55563 0
M  V30 2930 N 295.62 -1.53406 -0.361157 0
M  V30 2931 C 297.031 -1.61442 -0.937728 0
M  V30 2932 C 297.382 -0.48461 -1.90121 0
M  V30 2933 O 296.507 0.388312 -2.12888 0
M  V30 2934 C 297.102 -2.92624 -1.70753 0
M  V30 2935 C 295.661 -3.02981 -2.23337 0
M  V30 2936 C 294.808 -2.5677 -1.04712 0
M  V30 2937 H 297.759 -1.58083 -0.139816 0
M  V30 2938 H 297.78 -2.80675 -2.56908 0
M  V30 2939 H 297.292 -3.74834 -1.00604 0
M  V30 2940 H 295.393 -2.25368 -2.96715 0
M  V30 2941 H 295.506 -4.0814 -2.50916 0
M  V30 2942 H 293.87 -2.11752 -1.41539 0
M  V30 2943 H 294.653 -3.41402 -0.360539 0
M  V30 2944 N 297.098 0.621204 -1.44841 0
M  V30 2945 C 298.347 1.37658 -1.47422 0
M  V30 2946 C 298.66 1.95264 -0.114629 0
M  V30 2947 O 299.866 2.71494 -0.0180199 0
M  V30 2948 C 298.322 2.49285 -2.59586 0
M  V30 2949 C 297.93 1.98149 -4.01797 0
M  V30 2950 C 299.674 3.26409 -2.71399 0
M  V30 2951 C 297.581 3.07178 -5.05367 0
M  V30 2952 H 296.511 0.517344 -0.548517 0
M  V30 2953 H 299.162 0.667257 -1.70938 0
M  V30 2954 H 297.544 3.22839 -2.29328 0
M  V30 2955 H 298.718 1.31395 -4.41669 0
M  V30 2956 H 297.033 1.33812 -3.94314 0
M  V30 2957 H 299.63 4.07706 -3.45948 0
M  V30 2958 H 299.973 3.76535 -1.77559 0
M  V30 2959 H 300.506 2.5995 -3.01116 0
M  V30 2960 H 297.245 2.61985 -6.00869 0
M  V30 2961 H 296.765 3.72542 -4.70077 0
M  V30 2962 H 298.444 3.71789 -5.29511 0
M  V30 2963 N 298.576 1.31904 0.862503 0
M  V30 2964 C 299.804 1.24998 1.64873 0
M  V30 2965 C 300.219 -0.183425 1.87907 0
M  V30 2966 O 299.576 -1.11794 1.44251 0
M  V30 2967 C 299.627 1.99829 3.01248 0
M  V30 2968 O 299.348 3.37575 2.79239 0
M  V30 2969 C 300.849 1.99852 3.95694 0
M  V30 2970 H 298.069 0.431599 0.513773 0
M  V30 2971 H 300.613 1.73901 1.07604 0
M  V30 2972 H 298.768 1.54668 3.55185 0
M  V30 2973 H 299.182 3.75776 3.65914 0
M  V30 2974 H 300.656 2.56709 4.88676 0
M  V30 2975 H 301.133 0.982852 4.28062 0
M  V30 2976 H 301.739 2.44926 3.47694 0
M  V30 2977 N 300.054 -1.07777 1.14986 0
M  V30 2978 C 301.282 -1.84018 0.945773 0
M  V30 2979 C 301.697 -1.81897 -0.505863 0
M  V30 2980 O 301.054 -1.22726 -1.35072 0
M  V30 2981 C 301.105 -3.31287 1.44677 0
M  V30 2982 O 300.826 -3.33449 2.84154 0
M  V30 2983 C 302.327 -4.24311 1.28355 0
M  V30 2984 H 299.547 -0.580716 0.336169 0
M  V30 2985 H 302.091 -1.36077 1.52654 0
M  V30 2986 H 300.246 -3.76594 0.908625 0
M  V30 2987 H 300.66 -4.25427 3.06777 0
M  V30 2988 H 302.134 -5.2573 1.68261 0
M  V30 2989 H 302.611 -4.38612 0.227184 0
M  V30 2990 H 303.217 -3.84836 1.81056 0
M  V30 2991 N 301.532 -0.945985 -1.26051 0
M  V30 2992 C 302.495 -0.463897 -2.24456 0
M  V30 2993 C 303.495 0.427655 -1.55009 0
M  V30 2994 O 304.685 0.226157 -1.72726 0
M  V30 2995 C 301.817 0.330812 -3.39291 0
M  V30 2996 H 303.01 -1.33357 -2.68619 0
M  V30 2997 H 300.563 -0.728416 -1.38289 0
M  V30 2998 H 301.298 1.21852 -3.00537 0
M  V30 2999 H 301.083 -0.308679 -3.90883 0
M  V30 3000 H 302.573 0.657865 -4.12386 0
M  V30 3001 N 303.011 1.40521 -0.713556 0
M  V30 3002 C 304.239 2.05237 -0.261775 0
M  V30 3003 C 304.654 1.53755 1.09567 0
M  V30 3004 O 304.011 0.693268 1.6882 0
M  V30 3005 C 304.062 3.60763 -0.230706 0
M  V30 3006 O 303.783 4.10345 -1.53455 0
M  V30 3007 C 305.284 4.42651 0.239874 0
M  V30 3008 H 302.504 0.660533 -0.118057 0
M  V30 3009 H 305.048 1.79967 -0.971192 0
M  V30 3010 H 303.203 3.8501 0.429661 0
M  V30 3011 H 303.617 5.04526 -1.43366 0
M  V30 3012 H 305.091 5.51599 0.210468 0
M  V30 3013 H 305.568 4.20082 1.28171 0
M  V30 3014 H 306.174 4.23507 -0.390142 0
M  V30 3015 N 304.489 0.459591 1.5075 0
M  V30 3016 C 305.905 0.113092 1.59199 0
M  V30 3017 C 306.105 -1.37951 1.46874 0
M  V30 3018 O 305.161 -2.15168 1.32132 0
M  V30 3019 C 306.474 0.653043 2.93523 0
M  V30 3020 C 308.022 0.615449 3.0689 0
M  V30 3021 C 308.497 1.13275 4.43771 0
M  V30 3022 N 309.988 1.09167 4.50152 0
M  V30 3023 C 310.723 1.46256 5.54434 0
M  V30 3024 N 310.219 1.90739 6.66026 0
M  V30 3025 N 312.012 1.37932 5.44914 0
M  V30 3026 H 304.163 1.43049 1.57005 0
M  V30 3027 H 306.426 0.590861 0.741341 0
M  V30 3028 H 306.132 1.69822 3.07983 0
M  V30 3029 H 306.006 0.0902132 3.77092 0
M  V30 3030 H 308.393 -0.420793 2.92084 0
M  V30 3031 H 308.474 1.21495 2.25106 0
M  V30 3032 H 308.118 2.16757 4.59324 0
M  V30 3033 H 308.048 0.509576 5.24129 0
M  V30 3034 H 310.539 0.76528 3.7007 0
M  V30 3035 H 310.852 2.17218 7.41644 0
M  V30 3036 H 309.197 1.94683 6.67176 0
M  V30 3037 H 312.388 1.0303 4.56621 0
M  V30 3038 H 312.561 1.67164 6.26067 0
M  V30 3039 N 305.967 -1.56429 0.191757 0
M  V30 3040 C 307.213 -1.98541 -0.441943 0
M  V30 3041 C 307.568 -1.07646 -1.59468 0
M  V30 3042 O 306.861 -0.120191 -1.91223 0
M  V30 3043 C 307.055 -3.44449 -0.953384 0
M  V30 3044 C 306.884 -4.49456 0.148262 0
M  V30 3045 C 305.654 -5.01668 0.604781 0
M  V30 3046 C 307.852 -5.05336 0.95602 0
M  V30 3047 N 305.834 -5.90334 1.6846 0
M  V30 3048 C 307.205 -5.9064 1.88531 0
M  V30 3049 C 309.26 -4.87779 0.998811 0
M  V30 3050 C 307.963 -6.60264 2.85383 0
M  V30 3051 C 309.989 -5.58139 1.95537 0
M  V30 3052 C 309.351 -6.43187 2.8721 0
M  V30 3053 H 305.45 -0.771247 -0.129236 0
M  V30 3054 H 308.034 -1.92426 0.296682 0
M  V30 3055 H 306.205 -3.5107 -1.66146 0
M  V30 3056 H 307.937 -3.73533 -1.55741 0
M  V30 3057 H 304.692 -4.73183 0.198736 0
M  V30 3058 H 305.116 -6.39371 2.22561 0
M  V30 3059 H 309.758 -4.21705 0.304048 0
M  V30 3060 H 307.476 -7.25538 3.55837 0
M  V30 3061 H 311.062 -5.46532 1.99484 0
M  V30 3062 H 309.942 -6.96674 3.60022 0
M  V30 3063 N 307.445 0.0818655 -1.57387 0
M  V30 3064 C 308.408 1.08265 -2.02018 0
M  V30 3065 C 309.408 1.32183 -0.915664 0
M  V30 3066 O 310.598 1.28073 -1.18081 0
M  V30 3067 C 307.73 2.42871 -2.39221 0
M  V30 3068 H 308.923 0.698204 -2.91659 0
M  V30 3069 H 306.476 0.327303 -1.52835 0
M  V30 3070 H 307.211 2.86167 -1.52575 0
M  V30 3071 H 306.996 2.26855 -3.19811 0
M  V30 3072 H 308.486 3.14826 -2.74362 0
M  V30 3073 N 308.923 1.53595 0.353017 0
M  V30 3074 C 310.148 1.7462 1.11904 0
M  V30 3075 C 310.573 0.479721 1.8188 0
M  V30 3076 O 309.931 -0.567066 1.72204 0
M  V30 3077 C 309.979 2.92029 2.11545 0
M  V30 3078 O 309.083 2.61516 3.18878 0
M  V30 3079 H 308.424 0.579531 0.324099 0
M  V30 3080 H 310.954 2.00525 0.406301 0
M  V30 3081 H 310.964 3.18551 2.5493 0
M  V30 3082 H 309.639 3.83888 1.60008 0
M  V30 3083 H 308.216 2.45852 2.80377 0
M  V30 3084 N 310.401 -0.613514 1.45168 0
M  V30 3085 C 311.678 -1.37263 1.39349 0
M  V30 3086 C 312.058 -2.11012 0.0610848 0
M  V30 3087 O 311.406 -2.07502 -0.956825 0
M  V30 3088 C 311.616 -2.3244 2.60332 0
M  V30 3089 C 312.964 -2.9523 3.05163 0
M  V30 3090 O 313.988 -2.42762 2.60663 0
M  V30 3091 O 312.847 -3.90454 3.82372 0
M  V30 3092 H 309.941 -0.615188 0.552696 0
M  V30 3093 H 312.487 -0.637097 1.57287 0
M  V30 3094 H 311.259 -1.77164 3.48896 0
M  V30 3095 H 310.882 -3.13383 2.44698 0
M  V30 3096 N 311.879 -1.3236 -0.855495 0
M  V30 3097 C 312.842 -1.21164 -1.94556 0
M  V30 3098 C 313.842 -0.134908 -1.60233 0
M  V30 3099 O 315.032 -0.385249 -1.69887 0
M  V30 3100 C 312.164 -0.863192 -3.29791 0
M  V30 3101 H 313.357 -2.18038 -2.05911 0
M  V30 3102 H 310.91 -1.16179 -1.04557 0
M  V30 3103 H 311.645 0.103769 -3.24134 0
M  V30 3104 H 311.43 -1.64166 -3.56078 0
M  V30 3105 H 312.92 -0.809156 -4.09686 0
M  V30 3106 N 313.357 1.07166 -1.15556 0
M  V30 3107 C 314.305 2.16517 -0.8499 0
M  V30 3108 C 315.299 1.68468 0.177454 0
M  V30 3109 O 316.505 1.79971 0.0323026 0
M  V30 3110 H 312.88 0.706652 -0.25719 0
M  V30 3111 H 314.851 2.39514 -1.77976 0
M  V30 3112 C 313.6 3.45855 -0.357682 0
M  V30 3113 H 312.923 3.83214 -1.13961 0
M  V30 3114 H 314.363 4.23607 -0.182489 0
M  V30 3115 C 312.822 3.24062 0.921152 0
M  V30 3116 O 313.352 3.48813 1.9923 0
M  V30 3117 N 311.558 2.77539 0.86141 0
M  V30 3118 H 311.105 2.57598 -0.0104408 0
M  V30 3119 H 311.063 2.63337 1.71758 0
M  V30 3120 N 314.835 0.952656 1.25548 0
M  V30 3121 C 315.798 0.475794 2.24207 0
M  V30 3122 C 316.798 -0.419428 1.55234 0
M  V30 3123 O 317.988 -0.216994 1.72843 0
M  V30 3124 C 315.12 -0.312814 3.39462 0
M  V30 3125 H 316.313 1.34779 2.67908 0
M  V30 3126 H 313.866 0.735739 1.37901 0
M  V30 3127 H 314.601 -1.20257 3.01179 0
M  V30 3128 H 314.386 0.329404 3.90714 0
M  V30 3129 H 315.876 -0.635986 4.12729 0
M  V30 3130 N 316.313 -1.40141 0.720998 0
M  V30 3131 C 317.243 -2.33339 0.0867621 0
M  V30 3132 C 318.224 -1.53178 -0.739622 0
M  V30 3133 O 319.409 -1.81625 -0.687449 0
M  V30 3134 C 316.539 -3.37194 -0.831728 0
M  V30 3135 C 315.493 -4.27857 -0.110558 0
M  V30 3136 C 314.819 -5.22294 -1.14513 0
M  V30 3137 C 316.119 -5.11872 1.0385 0
M  V30 3138 H 317.813 -2.86626 0.865219 0
M  V30 3139 H 315.359 -1.37814 0.417516 0
M  V30 3140 H 317.312 -4.01335 -1.28485 0
M  V30 3141 H 316.036 -2.82314 -1.64214 0
M  V30 3142 H 314.695 -3.65176 0.322797 0
M  V30 3143 H 314.343 -4.63717 -1.94874 0
M  V30 3144 H 314.043 -5.83797 -0.667446 0
M  V30 3145 H 315.567 -5.89312 -1.59824 0
M  V30 3146 H 316.981 -5.69436 0.664482 0
M  V30 3147 H 315.378 -5.82445 1.4449 0
M  V30 3148 H 316.448 -4.4753 1.86668 0
M  V30 3149 N 317.792 -0.46758 -1.50504 0
M  V30 3150 C 319.038 0.0887532 -2.02606 0
M  V30 3151 C 319.371 1.39686 -1.34913 0
M  V30 3152 O 318.646 1.88644 -0.473694 0
M  V30 3153 C 318.929 0.276206 -3.59039 0
M  V30 3154 C 318.782 -1.05267 -4.37309 0
M  V30 3155 C 320.101 1.03235 -4.27821 0
M  V30 3156 H 317.22 0.0307814 -0.736357 0
M  V30 3157 H 319.862 -0.612485 -1.79857 0
M  V30 3158 H 318.012 0.8735 -3.78553 0
M  V30 3159 H 319.684 -1.68628 -4.29374 0
M  V30 3160 H 317.927 -1.65015 -4.01189 0
M  V30 3161 H 318.598 -0.875197 -5.45018 0
M  V30 3162 H 321.074 0.526111 -4.12761 0
M  V30 3163 H 319.95 1.1323 -5.37094 0
M  V30 3164 H 320.211 2.06806 -3.90748 0
M  V30 3165 N 319.27 1.56325 -0.20005 0
M  V30 3166 C 320.51 1.99619 0.439519 0
M  V30 3167 C 320.874 1.08423 1.58456 0
M  V30 3168 O 322.075 1.40973 2.28867 0
M  V30 3169 C 320.346 3.46314 0.883258 0
M  V30 3170 S 321.905 4.11634 1.51997 0
M  V30 3171 H 318.723 0.697007 0.140363 0
M  V30 3172 H 321.325 1.93118 -0.304282 0
M  V30 3173 H 320.029 4.10381 0.0398967 0
M  V30 3174 H 319.56 3.56643 1.6604 0
M  V30 3175 H 321.575 4.09049 2.8088 0
M  V30 3176 N 320.748 -0.0735177 1.57428 0
M  V30 3177 C 321.976 -0.785969 1.9139 0
M  V30 3178 C 322.391 -1.71207 0.795847 0
M  V30 3179 O 321.748 -1.81033 -0.230915 0
M  V30 3180 C 321.799 -1.58107 3.25091 0
M  V30 3181 O 321.52 -0.6922 4.32597 0
M  V30 3182 C 323.021 -2.39467 3.73055 0
M  V30 3183 H 320.241 -0.223558 0.632663 0
M  V30 3184 H 322.785 -0.044302 2.04452 0
M  V30 3185 H 320.94 -2.27503 3.13562 0
M  V30 3186 H 321.354 -1.24504 5.09508 0
M  V30 3187 H 322.828 -2.90716 4.69242 0
M  V30 3188 H 323.305 -3.18913 3.01979 0
M  V30 3189 H 323.911 -1.7523 3.87523 0
M  V30 3190 N 322.226 -1.5378 -0.344866 0
M  V30 3191 C 323.472 -1.71216 -1.08687 0
M  V30 3192 C 323.805 -0.473281 -1.88345 0
M  V30 3193 O 323.08 0.52968 -1.87149 0
M  V30 3194 C 323.363 -2.97486 -2.02914 0
M  V30 3195 C 323.216 -4.31579 -1.26727 0
M  V30 3196 C 324.535 -3.19422 -3.0275 0
M  V30 3197 H 321.654 -0.62301 -0.393735 0
M  V30 3198 H 324.296 -1.8645 -0.365563 0
M  V30 3199 H 322.446 -2.84629 -2.64421 0
M  V30 3200 H 324.118 -4.56284 -0.67845 0
M  V30 3201 H 322.361 -4.30049 -0.569273 0
M  V30 3202 H 323.032 -5.16106 -1.95803 0
M  V30 3203 H 325.508 -3.316 -2.51357 0
M  V30 3204 H 324.384 -4.09169 -3.65885 0
M  V30 3205 H 324.645 -2.35656 -3.74057 0
M  V30 3206 N 323.704 0.605807 -1.45491 0
M  V30 3207 C 324.95 1.36679 -1.49823 0
M  V30 3208 C 325.283 1.93693 -0.140175 0
M  V30 3209 O 324.558 1.75158 0.845581 0
M  V30 3210 C 324.841 2.51337 -2.57879 0
M  V30 3211 C 324.694 1.99508 -4.03134 0
M  V30 3212 C 326.013 3.53463 -2.62205 0
M  V30 3213 H 323.132 0.495617 -0.545466 0
M  V30 3214 H 325.774 0.682732 -1.7731 0
M  V30 3215 H 323.924 3.09691 -2.34571 0
M  V30 3216 H 325.596 1.45789 -4.37656 0
M  V30 3217 H 323.839 1.30496 -4.13707 0
M  V30 3218 H 324.51 2.82169 -4.74431 0
M  V30 3219 H 326.986 3.04953 -2.83095 0
M  V30 3220 H 325.862 4.31178 -3.39672 0
M  V30 3221 H 326.123 4.09197 -1.67363 0
M  V30 3222 N 325.182 1.32811 0.848464 0
M  V30 3223 C 326.115 1.16601 1.96162 0
M  V30 3224 C 327.093 0.0638855 1.62474 0
M  V30 3225 O 328.277 0.224348 1.8716 0
M  V30 3226 C 325.404 0.786333 3.29446 0
M  V30 3227 C 324.45 1.89459 3.8211 0
M  V30 3228 S 325.283 3.50395 4.04949 0
M  V30 3229 C 326.439 3.14413 5.41198 0
M  V30 3230 H 326.672 2.10832 2.09612 0
M  V30 3231 H 324.205 1.17543 1.00115 0
M  V30 3232 H 326.163 0.574044 4.06466 0
M  V30 3233 H 324.824 -0.137218 3.138 0
M  V30 3234 H 324.017 1.58207 4.78526 0
M  V30 3235 H 323.619 2.06304 3.11953 0
M  V30 3236 H 325.911 2.64642 6.23675 0
M  V30 3237 H 326.854 4.09874 5.77416 0
M  V30 3238 H 327.262 2.51266 5.05495 0
M  V30 3239 N 326.66 -1.06551 1.16123 0
M  V30 3240 C 328.071 -1.60768 0.949232 0
M  V30 3241 C 328.422 -1.89523 -0.507508 0
M  V30 3242 O 327.547 -1.66671 -1.38021 0
M  V30 3243 C 328.142 -2.92086 1.71671 0
M  V30 3244 C 326.701 -3.43015 1.54977 0
M  V30 3245 C 325.848 -2.16947 1.72711 0
M  V30 3246 H 328.799 -0.895354 1.31031 0
M  V30 3247 H 328.82 -3.6138 1.19099 0
M  V30 3248 H 328.332 -2.71127 2.7769 0
M  V30 3249 H 326.433 -3.69039 0.513873 0
M  V30 3250 H 326.546 -4.18516 2.33198 0
M  V30 3251 H 324.91 -2.27041 1.15431 0
M  V30 3252 H 325.693 -1.98473 2.80113 0
M  V30 3253 N 328.138 -0.959301 -1.25041 0
M  V30 3254 C 329.088 -0.453888 -2.23436 0
M  V30 3255 C 330.072 0.459461 -1.542 0
M  V30 3256 O 331.264 0.291752 -1.74579 0
M  V30 3257 C 328.393 0.262667 -3.42294 0
M  V30 3258 C 327.479 -0.669022 -4.1879 0
M  V30 3259 N 327.87 -1.80267 -4.72586 0
M  V30 3260 C 326.168 -0.47814 -4.4343 0
M  V30 3261 C 326.869 -2.38475 -5.3057 0
M  V30 3262 N 325.845 -1.67078 -5.17287 0
M  V30 3263 H 329.647 -1.319 -2.6264 0
M  V30 3264 H 327.161 -0.817358 -1.40332 0
M  V30 3265 H 329.158 0.641911 -4.11929 0
M  V30 3266 H 327.818 1.12432 -3.04613 0
M  V30 3267 H 328.829 -2.18442 -4.69578 0
M  V30 3268 H 325.506 0.340249 -4.16111 0
M  V30 3269 H 326.896 -3.34094 -5.8295 0
M  V30 3270 N 329.616 1.39756 -0.72842 0
M  V30 3271 C 330.864 2.00248 -0.272946 0
M  V30 3272 C 331.185 1.58077 1.14178 0
M  V30 3273 O 330.455 0.826014 1.77634 0
M  V30 3274 H 329.035 0.740554 -0.0979247 0
M  V30 3275 H 331.697 1.70903 -0.936912 0
M  V30 3276 H 330.793 3.10495 -0.316142 0
M  V30 3277 N 331.094 0.475555 1.50254 0
M  V30 3278 C 332.057 -0.305016 2.27161 0
M  V30 3279 C 333.057 -0.916519 1.32123 0
M  V30 3280 O 334.247 -0.785003 1.5551 0
M  V30 3281 C 331.379 -1.43496 3.09227 0
M  V30 3282 H 332.572 0.369511 2.97615 0
M  V30 3283 H 330.125 0.229747 1.54602 0
M  V30 3284 H 330.86 -2.14441 2.43281 0
M  V30 3285 H 330.645 -1.00223 3.79075 0
M  V30 3286 H 332.135 -1.98548 3.67381 0
M  V30 3287 N 332.573 -1.56217 0.208337 0
M  V30 3288 C 333.536 -2.18455 -0.693557 0
M  V30 3289 C 334.536 -1.14268 -1.13135 0
M  V30 3290 O 335.726 -1.39577 -1.0423 0
M  V30 3291 C 332.858 -2.79727 -1.94848 0
M  V30 3292 H 334.051 -2.99519 -0.15114 0
M  V30 3293 H 331.604 -1.56245 -0.041287 0
M  V30 3294 H 332.339 -2.02497 -2.53309 0
M  V30 3295 H 332.124 -3.56009 -1.64316 0
M  V30 3296 H 333.614 -3.27475 -2.59133 0
M  V30 3297 N 334.051 0.0651679 -1.57465 0
M  V30 3298 C 335.014 1.06117 -2.03155 0
M  V30 3299 C 336.014 1.31204 -0.929632 0
M  V30 3300 O 337.204 1.26813 -1.19432 0
M  V30 3301 C 334.336 2.4032 -2.41783 0
M  V30 3302 H 335.529 0.667231 -2.92383 0
M  V30 3303 H 333.082 0.311075 -1.53173 0
M  V30 3304 H 333.817 2.84532 -1.55601 0
M  V30 3305 H 333.602 2.23451 -3.22199 0
M  V30 3306 H 335.092 3.11898 -2.77685 0
M  V30 3307 N 335.529 1.53961 0.336706 0
M  V30 3308 C 336.459 1.85417 1.41925 0
M  V30 3309 C 337.44 0.709856 1.5458 0
M  V30 3310 O 338.625 0.962396 1.68676 0
M  V30 3311 C 335.755 2.06985 2.78881 0
M  V30 3312 C 334.709 3.22813 2.81026 0
M  V30 3313 C 334.035 3.29727 4.20932 0
M  V30 3314 C 335.335 4.60767 2.45949 0
M  V30 3315 H 337.029 2.76079 1.15848 0
M  V30 3316 H 334.575 1.32839 0.555859 0
M  V30 3317 H 336.528 2.27575 3.54665 0
M  V30 3318 H 335.252 1.13061 3.06406 0
M  V30 3319 H 333.911 3.0209 2.07695 0
M  V30 3320 H 333.559 2.33385 4.45579 0
M  V30 3321 H 333.259 4.07566 4.23277 0
M  V30 3322 H 334.783 3.52536 4.98549 0
M  V30 3323 H 336.197 4.81325 3.11446 0
M  V30 3324 H 334.594 5.4106 2.59566 0
M  V30 3325 H 335.664 4.6391 1.41122 0
M  V30 3326 N 337.007 -0.598083 1.45811 0
M  V30 3327 C 337.939 -1.72231 1.51225 0
M  V30 3328 C 338.952 -1.57757 0.402059 0
M  V30 3329 O 340.141 -1.65464 0.669624 0
M  V30 3330 C 337.241 -3.10331 1.3619 0
M  V30 3331 C 336.414 -3.50955 2.61054 0
M  V30 3332 C 335.473 -4.68055 2.40439 0
M  V30 3333 O 334.499 -4.74691 3.14097 0
M  V30 3334 N 335.701 -5.61941 1.45612 0
M  V30 3335 H 338.466 -1.68046 2.48154 0
M  V30 3336 H 336.027 -0.783637 1.41671 0
M  V30 3337 H 338.019 -3.86439 1.20195 0
M  V30 3338 H 336.589 -3.0897 0.475015 0
M  V30 3339 H 335.809 -2.64711 2.92099 0
M  V30 3340 H 337.097 -3.74858 3.44034 0
M  V30 3341 H 336.495 -5.59301 0.848431 0
M  V30 3342 H 335.052 -6.37542 1.35585 0
M  V30 3343 N 338.485 -1.33259 -0.841409 0
M  V30 3344 C 339.713 -1.27605 -1.62864 0
M  V30 3345 C 340.128 0.153507 -1.88175 0
M  V30 3346 O 339.485 1.09485 -1.46011 0
M  V30 3347 C 339.536 -2.04596 -2.98031 0
M  V30 3348 O 339.257 -3.41975 -2.73834 0
M  V30 3349 C 340.758 -2.06122 -3.92465 0
M  V30 3350 H 337.978 -0.439718 -0.506842 0
M  V30 3351 H 340.522 -1.75591 -1.04824 0
M  V30 3352 H 338.677 -1.60299 -3.5268 0
M  V30 3353 H 339.091 -3.81549 -3.59889 0
M  V30 3354 H 340.565 -2.64451 -4.84531 0
M  V30 3355 H 341.042 -1.05083 -4.26444 0
M  V30 3356 H 341.648 -2.50427 -3.43753 0
M  V30 3357 N 339.963 1.05934 -1.16686 0
M  V30 3358 C 341.211 1.78447 -0.948744 0
M  V30 3359 C 341.532 1.87813 0.524523 0
M  V30 3360 O 340.802 1.38945 1.38098 0
M  V30 3361 H 339.382 0.660971 -0.348033 0
M  V30 3362 H 342.044 1.27947 -1.47022 0
M  V30 3363 H 341.14 2.80394 -1.37061 0
M  V30 3364 N 341.441 0.965919 1.2453 0
M  V30 3365 C 342.718 0.543777 1.87889 0
M  V30 3366 C 343.098 -0.97909 1.87021 0
M  V30 3367 O 342.446 -1.84969 1.3416 0
M  V30 3368 C 342.656 1.13327 3.30088 0
M  V30 3369 C 344.004 1.21707 4.06783 0
M  V30 3370 O 345.028 1.08566 3.39252 0
M  V30 3371 O 343.887 1.42456 5.27606 0
M  V30 3372 H 340.981 0.181054 0.806938 0
M  V30 3373 H 343.527 1.06007 1.32516 0
M  V30 3374 H 342.299 2.17612 3.25209 0
M  V30 3375 H 341.922 0.600911 3.93033 0
M  V30 3376 N 342.919 -1.39368 0.735821 0
M  V30 3377 C 343.849 -2.33234 0.111506 0
M  V30 3378 C 344.83 -1.53954 -0.723334 0
M  V30 3379 O 346.015 -1.82344 -0.668147 0
M  V30 3380 C 343.145 -3.38057 -0.795917 0
M  V30 3381 C 342.099 -4.2795 -0.065172 0
M  V30 3382 C 341.425 -5.23479 -1.08967 0
M  V30 3383 C 342.725 -5.10741 1.09273 0
M  V30 3384 H 344.419 -2.85692 0.895571 0
M  V30 3385 H 341.965 -1.37364 0.432109 0
M  V30 3386 H 343.918 -4.02675 -1.24221 0
M  V30 3387 H 342.642 -2.8404 -1.61211 0
M  V30 3388 H 341.301 -3.64813 0.361511 0
M  V30 3389 H 340.949 -4.65758 -1.89944 0
M  V30 3390 H 340.649 -5.84472 -0.605489 0
M  V30 3391 H 342.173 -5.90974 -1.53565 0
M  V30 3392 H 343.587 -5.68699 0.724841 0
M  V30 3393 H 341.984 -5.8088 1.50659 0
M  V30 3394 H 343.054 -4.45525 1.91404 0
M  V30 3395 N 344.397 -0.483516 -1.5 0
M  V30 3396 C 345.627 0.0643896 -2.065 0
M  V30 3397 C 346.035 1.32949 -1.34615 0
M  V30 3398 O 345.378 1.79003 -0.412756 0
M  V30 3399 C 345.44 0.405983 -3.572 0
M  V30 3400 C 345.104 -0.758875 -4.50655 0
M  V30 3401 C 346.101 -1.64445 -4.93208 0
M  V30 3402 C 343.786 -0.952725 -4.93182 0
M  V30 3403 C 345.78 -2.70818 -5.77006 0
M  V30 3404 C 343.467 -2.01966 -5.76761 0
M  V30 3405 C 344.465 -2.89574 -6.18576 0
M  V30 3406 O 344.153 -3.94429 -7.00486 0
M  V30 3407 H 343.885 -0.00934786 -0.675935 0
M  V30 3408 H 346.439 -0.674959 -1.93993 0
M  V30 3409 H 344.669 1.19869 -3.67652 0
M  V30 3410 H 346.358 0.890433 -3.96013 0
M  V30 3411 H 347.124 -1.50643 -4.61012 0
M  V30 3412 H 343.003 -0.280247 -4.60147 0
M  V30 3413 H 346.547 -3.3923 -6.09565 0
M  V30 3414 H 342.444 -2.1577 -6.0837 0
M  V30 3415 H 343.212 -3.91568 -7.1876 0
M  V30 3416 N 345.875 1.56104 -0.216619 0
M  V30 3417 C 347.286 1.844 0.292128 0
M  V30 3418 C 347.637 1.13788 1.59833 0
M  V30 3419 O 346.762 0.405888 2.12559 0
M  V30 3420 C 347.357 3.3452 0.53681 0
M  V30 3421 C 345.916 3.63151 0.989876 0
M  V30 3422 C 345.063 2.77255 0.0502302 0
M  V30 3423 H 348.014 1.52481 -0.439926 0
M  V30 3424 H 348.035 3.54459 1.38345 0
M  V30 3425 H 347.547 3.85885 -0.414031 0
M  V30 3426 H 345.648 3.17238 1.95425 0
M  V30 3427 H 345.761 4.71177 0.867698 0
M  V30 3428 H 344.125 2.48555 0.556117 0
M  V30 3429 H 344.908 3.31416 -0.89544 0
M  V30 3430 N 347.353 -0.0568162 1.57498 0
M  V30 3431 C 348.581 -0.765626 1.92213 0
M  V30 3432 C 348.996 -1.70353 0.813961 0
M  V30 3433 O 348.353 -1.81268 -0.211701 0
M  V30 3434 C 348.404 -1.5465 3.2675 0
M  V30 3435 O 348.125 -0.646278 4.33307 0
M  V30 3436 C 349.626 -2.35497 3.75574 0
M  V30 3437 H 346.846 -0.216835 0.634999 0
M  V30 3438 H 349.39 -0.0226146 2.04487 0
M  V30 3439 H 347.545 -2.24165 3.15957 0
M  V30 3440 H 347.959 -1.19093 5.108 0
M  V30 3441 H 349.433 -2.85722 4.72299 0
M  V30 3442 H 349.91 -3.15692 3.05344 0
M  V30 3443 H 350.516 -1.7111 3.8936 0
M  V30 3444 N 348.832 -1.54138 -0.328536 0
M  V30 3445 C 350.062 -1.75807 -1.08516 0
M  V30 3446 C 350.47 -0.50428 -1.82356 0
M  V30 3447 O 349.813 0.534451 -1.75754 0
M  V30 3448 C 349.875 -2.89423 -2.13248 0
M  V30 3449 C 349.539 -4.28504 -1.5885 0
M  V30 3450 C 350.536 -5.09536 -1.03289 0
M  V30 3451 C 348.221 -4.75034 -1.63243 0
M  V30 3452 C 350.215 -6.35206 -0.52845 0
M  V30 3453 C 347.902 -6.00672 -1.12411 0
M  V30 3454 C 348.9 -6.80592 -0.573062 0
M  V30 3455 O 348.588 -8.03867 -0.0723692 0
M  V30 3456 H 348.32 -0.590633 -0.328829 0
M  V30 3457 H 350.874 -2.01819 -0.381868 0
M  V30 3458 H 349.104 -2.5897 -2.87178 0
M  V30 3459 H 350.793 -2.98921 -2.74592 0
M  V30 3460 H 351.559 -4.74745 -0.99206 0
M  V30 3461 H 347.438 -4.12875 -2.05074 0
M  V30 3462 H 350.982 -6.97532 -0.0976774 0
M  V30 3463 H 346.879 -6.34955 -1.162 0
M  V30 3464 H 347.647 -8.18283 -0.188258 0
M  V30 3465 N 350.31 0.590341 -1.46126 0
M  V30 3466 C 351.54 1.37304 -1.54373 0
M  V30 3467 C 351.948 1.88332 -0.181071 0
M  V30 3468 O 351.291 1.63852 0.830559 0
M  V30 3469 C 351.353 2.6012 -2.48149 0
M  V30 3470 C 351.017 2.30613 -3.94546 0
M  V30 3471 C 352.014 1.89915 -4.83971 0
M  V30 3472 C 349.699 2.42993 -4.39613 0
M  V30 3473 C 351.693 1.61981 -6.16475 0
M  V30 3474 C 349.38 2.14672 -5.72153 0
M  V30 3475 C 350.378 1.7423 -6.60404 0
M  V30 3476 O 350.066 1.46251 -7.90485 0
M  V30 3477 H 349.798 0.426086 -0.524811 0
M  V30 3478 H 352.352 0.72539 -1.92165 0
M  V30 3479 H 350.582 3.27664 -2.05361 0
M  V30 3480 H 352.271 3.22182 -2.46887 0
M  V30 3481 H 353.037 1.79872 -4.50412 0
M  V30 3482 H 348.916 2.73435 -3.71153 0
M  V30 3483 H 352.46 1.30341 -6.85315 0
M  V30 3484 H 348.357 2.24337 -6.05263 0
M  V30 3485 H 349.125 1.6016 -8.02677 0
M  V30 3486 N 351.788 1.33704 0.83433 0
M  V30 3487 C 353.065 1.16011 1.57483 0
M  V30 3488 C 353.445 -0.27176 2.09343 0
M  V30 3489 O 352.793 -1.27146 1.89858 0
M  V30 3490 C 353.003 2.20507 2.70514 0
M  V30 3491 C 354.351 2.54898 3.39577 0
M  V30 3492 O 355.375 2.19209 2.80759 0
M  V30 3493 O 354.234 3.16158 4.45765 0
M  V30 3494 H 351.328 0.448992 0.694503 0
M  V30 3495 H 353.874 1.453 0.876691 0
M  V30 3496 H 352.646 3.16667 2.29865 0
M  V30 3497 H 352.269 1.92329 3.47987 0
M  V30 3498 N 353.266 -1.05314 1.17247 0
M  V30 3499 C 354.491 -1.82509 0.985148 0
M  V30 3500 C 354.916 -1.82343 -0.461788 0
M  V30 3501 O 354.274 -1.23151 -1.33055 0
M  V30 3502 C 354.322 -3.26566 1.52929 0
M  V30 3503 O 353.426 -4.05666 0.742225 0
M  V30 3504 H 352.767 -0.564347 0.349869 0
M  V30 3505 H 355.297 -1.32718 1.55715 0
M  V30 3506 H 355.307 -3.77369 1.55103 0
M  V30 3507 H 353.982 -3.26001 2.58256 0
M  V30 3508 H 352.559 -3.64397 0.791794 0
M  V30 3509 N 354.744 -0.972509 -1.24016 0
M  V30 3510 C 355.99 -0.637978 -1.92504 0
M  V30 3511 C 356.323 0.825383 -1.75787 0
M  V30 3512 O 355.598 1.59442 -1.11393 0
M  V30 3513 C 355.881 -1.01942 -3.45369 0
M  V30 3514 C 355.734 -2.53983 -3.71231 0
M  V30 3515 C 357.053 -0.55751 -4.36555 0
M  V30 3516 H 354.172 -0.233248 -0.699117 0
M  V30 3517 H 356.814 -1.21238 -1.46292 0
M  V30 3518 H 354.964 -0.530656 -3.84859 0
M  V30 3519 H 356.636 -3.10374 -3.41271 0
M  V30 3520 H 354.879 -2.96968 -3.16216 0
M  V30 3521 H 355.55 -2.75723 -4.78206 0
M  V30 3522 H 358.026 -0.977029 -4.04467 0
M  V30 3523 H 356.902 -0.85292 -5.42233 0
M  V30 3524 H 357.163 0.542328 -4.38761 0
M  V30 3525 N 356.222 1.38976 -0.743202 0
M  V30 3526 C 357.471 1.99581 -0.291592 0
M  V30 3527 C 357.784 1.59656 1.13001 0
M  V30 3528 O 358.99 2.13157 1.68156 0
M  V30 3529 C 357.446 3.56813 -0.470391 0
M  V30 3530 C 357.054 4.05695 -1.90041 0
M  V30 3531 C 358.798 4.24423 -0.0809709 0
M  V30 3532 C 356.705 5.5553 -2.02832 0
M  V30 3533 H 355.635 0.746615 -0.105272 0
M  V30 3534 H 358.286 1.58872 -0.918258 0
M  V30 3535 H 356.668 3.95359 0.225299 0
M  V30 3536 H 357.842 3.78464 -2.62872 0
M  V30 3537 H 356.157 3.50775 -2.24379 0
M  V30 3538 H 358.754 5.34474 -0.155445 0
M  V30 3539 H 359.097 4.04962 0.96497 0
M  V30 3540 H 359.63 3.9108 -0.728124 0
M  V30 3541 H 356.369 5.79881 -3.05643 0
M  V30 3542 H 355.889 5.84537 -1.34448 0
M  V30 3543 H 357.568 6.21069 -1.81335 0
M  V30 3544 N 357.7 0.491464 1.49741 0
M  V30 3545 C 358.977 -0.118984 1.95238 0
M  V30 3546 C 359.357 -1.55044 1.43264 0
M  V30 3547 O 358.705 -2.19287 0.642287 0
M  V30 3548 C 358.915 -0.0414187 3.48975 0
M  V30 3549 C 360.263 -0.220133 4.24029 0
M  V30 3550 O 361.287 -0.117055 3.56008 0
M  V30 3551 O 360.146 -0.430567 5.44801 0
M  V30 3552 H 357.24 -0.100536 0.820866 0
M  V30 3553 H 359.786 0.553322 1.60426 0
M  V30 3554 H 358.558 0.957214 3.79412 0
M  V30 3555 H 358.181 -0.754292 3.9038 0
M  V30 3556 N 359.178 -1.55987 0.224894 0
M  V30 3557 C 360.406 -2.02784 -0.410665 0
M  V30 3558 C 360.821 -1.10464 -1.53112 0
M  V30 3559 O 360.178 -0.114871 -1.82138 0
M  V30 3560 C 360.229 -3.49087 -0.939165 0
M  V30 3561 O 359.95 -4.37887 0.136614 0
M  V30 3562 C 361.451 -4.11543 -1.64763 0
M  V30 3563 H 358.671 -0.663484 -0.100148 0
M  V30 3564 H 361.215 -2.01614 0.342326 0
M  V30 3565 H 359.37 -3.50861 -1.64242 0
M  V30 3566 H 359.784 -5.23849 -0.261155 0
M  V30 3567 H 361.258 -5.15673 -1.96939 0
M  V30 3568 H 361.735 -3.56736 -2.56195 0
M  V30 3569 H 362.341 -4.13629 -0.989503 0
M  V30 3570 N 360.656 0.0484629 -1.57525 0
M  V30 3571 C 361.905 0.742065 -1.87553 0
M  V30 3572 C 362.218 1.77545 -0.820802 0
M  V30 3573 O 363.424 2.52027 -1.00967 0
M  V30 3574 C 361.88 1.37081 -3.32771 0
M  V30 3575 C 361.488 0.374786 -4.4643 0
M  V30 3576 C 363.232 2.04542 -3.71972 0
M  V30 3577 C 361.139 1.01077 -5.82698 0
M  V30 3578 H 360.069 0.280903 -0.699721 0
M  V30 3579 H 362.72 -0.00411877 -1.835 0
M  V30 3580 H 361.102 2.16605 -3.31509 0
M  V30 3581 H 362.276 -0.392331 -4.59127 0
M  V30 3582 H 360.591 -0.196653 -4.15935 0
M  V30 3583 H 363.188 2.52943 -4.71088 0
M  V30 3584 H 363.531 2.85515 -3.02964 0
M  V30 3585 H 364.064 1.31819 -3.75325 0
M  V30 3586 H 360.803 0.240878 -6.55057 0
M  V30 3587 H 360.323 1.74819 -5.73758 0
M  V30 3588 H 362.002 1.52383 -6.28799 0
M  V30 3589 N 362.134 1.5431 0.320358 0
M  V30 3590 C 363.044 1.86946 1.41734 0
M  V30 3591 C 364.06 0.761689 1.56443 0
M  V30 3592 O 365.236 1.05629 1.71477 0
M  V30 3593 C 362.301 2.09293 2.76401 0
M  V30 3594 C 361.362 3.33082 2.70841 0
M  V30 3595 C 360.595 3.54353 3.99086 0
M  V30 3596 O 360.818 2.79002 4.97508 0
M  V30 3597 O 359.752 4.47838 4.0215 0
M  V30 3598 H 363.578 2.80232 1.17062 0
M  V30 3599 H 361.163 1.40255 0.514673 0
M  V30 3600 H 363.045 2.25303 3.56113 0
M  V30 3601 H 361.72 1.19194 3.00956 0
M  V30 3602 H 360.627 3.22454 1.89668 0
M  V30 3603 H 361.96 4.23249 2.5124 0
M  V30 3604 N 363.613 -0.582584 1.46437 0
M  V30 3605 C 364.543 -1.70187 1.59871 0
M  V30 3606 C 365.524 -1.64066 0.449042 0
M  V30 3607 O 366.709 -1.82081 0.6753 0
M  V30 3608 C 363.839 -3.08827 1.58881 0
M  V30 3609 C 362.793 -3.29779 2.72819 0
M  V30 3610 C 362.119 -4.68947 2.5689 0
M  V30 3611 C 363.419 -3.17601 4.1464 0
M  V30 3612 H 365.113 -1.592 2.53566 0
M  V30 3613 H 362.659 -0.764472 1.22032 0
M  V30 3614 H 364.612 -3.86951 1.66873 0
M  V30 3615 H 363.336 -3.20713 0.617306 0
M  V30 3616 H 361.995 -2.54054 2.64296 0
M  V30 3617 H 361.643 -4.77599 1.57823 0
M  V30 3618 H 361.343 -4.83919 3.33312 0
M  V30 3619 H 362.867 -5.4924 2.66773 0
M  V30 3620 H 364.281 -3.8557 4.24274 0
M  V30 3621 H 362.678 -3.44094 4.9165 0
M  V30 3622 H 363.748 -2.14681 4.34788 0
M  V30 3623 N 365.091 -1.34144 -0.827227 0
M  V30 3624 C 366.023 -1.21206 -1.9453 0
M  V30 3625 C 367.036 -0.140176 -1.62195 0
M  V30 3626 O 368.225 -0.391647 -1.7415 0
M  V30 3627 C 365.325 -0.839141 -3.28347 0
M  V30 3628 C 364.498 -2.0051 -3.88734 0
M  V30 3629 C 363.557 -1.61128 -5.00923 0
M  V30 3630 O 362.583 -2.32726 -5.19449 0
M  V30 3631 N 363.785 -0.522958 -5.7814 0
M  V30 3632 H 366.55 -2.17525 -2.06162 0
M  V30 3633 H 364.111 -1.27043 -1.00358 0
M  V30 3634 H 366.103 -0.557556 -4.00841 0
M  V30 3635 H 364.673 0.0337293 -3.12582 0
M  V30 3636 H 363.893 -2.45166 -3.08686 0
M  V30 3637 H 365.181 -2.78498 -4.25812 0
M  V30 3638 H 364.579 0.0723518 -5.65654 0
M  V30 3639 H 363.136 -0.301089 -6.51104 0
M  V30 3640 N 366.569 1.04691 -1.17803 0
M  V30 3641 C 367.818 1.77176 -0.963931 0
M  V30 3642 C 368.131 1.88888 0.508015 0
M  V30 3643 O 369.337 2.58164 0.840465 0
M  V30 3644 C 367.793 3.18518 -1.67555 0
M  V30 3645 C 367.401 3.14919 -3.18637 0
M  V30 3646 C 369.145 3.95424 -1.54402 0
M  V30 3647 C 367.052 4.51081 -3.82466 0
M  V30 3648 H 365.982 0.664116 -0.357023 0
M  V30 3649 H 368.633 1.17303 -1.4111 0
M  V30 3650 H 367.015 3.78748 -1.15613 0
M  V30 3651 H 368.189 2.64178 -3.77554 0
M  V30 3652 H 366.504 2.51512 -3.31859 0
M  V30 3653 H 369.101 4.96106 -1.99456 0
M  V30 3654 H 369.444 4.13343 -0.495329 0
M  V30 3655 H 369.977 3.41754 -2.0359 0
M  V30 3656 H 366.716 4.38368 -4.87354 0
M  V30 3657 H 366.236 5.01951 -3.28337 0
M  V30 3658 H 367.915 5.2001 -3.84965 0
M  V30 3659 N 368.047 0.979072 1.23499 0
M  V30 3660 C 369.01 0.523244 2.23147 0
M  V30 3661 C 370.01 -0.386406 1.56088 0
M  V30 3662 O 371.2 -0.180283 1.73265 0
M  V30 3663 C 368.332 -0.240739 3.40049 0
M  V30 3664 H 369.525 1.40432 2.64989 0
M  V30 3665 H 367.078 0.764824 1.36309 0
M  V30 3666 H 367.813 -1.13841 3.03662 0
M  V30 3667 H 367.598 0.412207 3.89927 0
M  V30 3668 H 369.088 -0.548297 4.13985 0
M  V30 3669 N 369.525 -1.3858 0.750561 0
M  V30 3670 C 370.472 -2.30483 0.120835 0
M  V30 3671 C 371.442 -1.50022 -0.712923 0
M  V30 3672 O 372.627 -1.78662 -0.669676 0
M  V30 3673 C 369.767 -3.36431 -0.768666 0
M  V30 3674 C 368.88 -4.31927 0.0793922 0
M  V30 3675 C 368.015 -5.24944 -0.81283 0
M  V30 3676 C 367.054 -6.12088 0.0390447 0
M  V30 3677 N 366.191 -6.97412 -0.809969 0
M  V30 3678 H 371.031 -2.83761 0.91015 0
M  V30 3679 H 368.568 -1.39707 0.460463 0
M  V30 3680 H 370.526 -3.96462 -1.29898 0
M  V30 3681 H 369.156 -2.8457 -1.5238 0
M  V30 3682 H 368.208 -3.73382 0.727303 0
M  V30 3683 H 369.52 -4.93319 0.737401 0
M  V30 3684 H 368.674 -5.90078 -1.41042 0
M  V30 3685 H 367.413 -4.63911 -1.50458 0
M  V30 3686 H 366.418 -5.45952 0.649328 0
M  V30 3687 H 367.643 -6.75189 0.727809 0
M  V30 3688 H 365.589 -6.38931 -1.48672 0
M  V30 3689 H 365.506 -7.55712 -0.208789 0
M  V30 3690 H 366.774 -7.66959 -1.39263 0
M  V30 3691 N 371.003 -0.499398 -1.49478 0
M  V30 3692 C 372.251 0.0455996 -2.02049 0
M  V30 3693 C 372.572 1.37633 -1.38138 0
M  V30 3694 O 371.842 1.8842 -0.536166 0
M  V30 3695 H 370.422 0.0198416 -0.746736 0
M  V30 3696 H 373.084 -0.656274 -1.83519 0
M  V30 3697 H 372.18 0.176445 -3.11601 0
M  V30 3698 N 372.481 1.55866 -0.233164 0
M  V30 3699 C 373.729 1.9821 0.394593 0
M  V30 3700 C 374.05 1.12234 1.59463 0
M  V30 3701 O 373.32 0.201981 1.94856 0
M  V30 3702 H 371.9 0.732034 0.148778 0
M  V30 3703 H 374.562 1.92107 -0.32876 0
M  V30 3704 H 373.658 3.03845 0.713063 0
M  V30 3705 N 373.959 -0.0401083 1.57549 0
M  V30 3706 C 375.189 -0.744115 1.92734 0
M  V30 3707 C 375.597 -1.70005 0.830348 0
M  V30 3708 O 374.94 -1.82576 -0.20286 0
M  V30 3709 C 375.002 -1.56516 3.2364 0
M  V30 3710 C 374.666 -0.7752 4.50377 0
M  V30 3711 C 375.663 -0.0803326 5.19838 0
M  V30 3712 C 373.348 -0.733002 4.96923 0
M  V30 3713 C 375.342 0.646154 6.34116 0
M  V30 3714 C 373.029 -0.00276321 6.111 0
M  V30 3715 C 374.027 0.685585 6.7955 0
M  V30 3716 O 373.715 1.40399 7.91545 0
M  V30 3717 H 373.447 -0.214861 0.640945 0
M  V30 3718 H 376.001 -0.00503675 2.05399 0
M  V30 3719 H 374.231 -2.3478 3.07271 0
M  V30 3720 H 375.92 -2.15076 3.44234 0
M  V30 3721 H 376.686 -0.104035 4.84888 0
M  V30 3722 H 372.565 -1.25827 4.43496 0
M  V30 3723 H 376.109 1.18398 6.87479 0
M  V30 3724 H 372.006 0.0229012 6.45496 0
M  V30 3725 H 372.774 1.31653 8.07843 0
M  V30 3726 N 375.437 -1.54477 -0.31217 0
M  V30 3727 C 376.853 -1.45442 -0.657185 0
M  V30 3728 C 377.053 -0.63653 -1.91182 0
M  V30 3729 O 376.109 -0.139815 -2.52113 0
M  V30 3730 C 377.422 -2.89287 -0.82058 0
M  V30 3731 C 378.97 -2.9926 -0.917188 0
M  V30 3732 C 379.445 -4.44279 -1.11267 0
M  V30 3733 N 380.936 -4.4794 -1.17914 0
M  V30 3734 C 381.671 -5.57318 -1.34848 0
M  V30 3735 N 381.167 -6.76642 -1.48752 0
M  V30 3736 N 382.96 -5.44986 -1.37647 0
M  V30 3737 H 375.111 -2.06129 0.512313 0
M  V30 3738 H 377.374 -0.933088 0.167485 0
M  V30 3739 H 377.08 -3.51687 0.0302604 0
M  V30 3740 H 376.954 -3.36061 -1.71298 0
M  V30 3741 H 379.341 -2.36981 -1.75852 0
M  V30 3742 H 379.422 -2.558 -0.00101257 0
M  V30 3743 H 379.066 -5.07149 -0.27614 0
M  V30 3744 H 378.996 -4.85359 -2.04289 0
M  V30 3745 H 381.487 -3.61969 -1.08567 0
M  V30 3746 H 381.8 -7.55758 -1.61397 0
M  V30 3747 H 380.145 -6.79529 -1.45828 0
M  V30 3748 H 383.336 -4.50715 -1.26388 0
M  V30 3749 H 383.509 -6.3028 -1.50501 0
M  V30 3750 N 376.915 0.57481 -1.46744 0
M  V30 3751 C 377.845 1.69337 -1.60771 0
M  V30 3752 C 378.826 1.63825 -0.457736 0
M  V30 3753 O 380.011 1.8172 -0.684947 0
M  V30 3754 C 377.141 3.0798 -1.60517 0
M  V30 3755 C 376.095 3.28327 -2.74564 0
M  V30 3756 C 375.421 4.67578 -2.59373 0
M  V30 3757 C 376.721 3.15398 -4.16319 0
M  V30 3758 H 378.415 1.57853 -2.54407 0
M  V30 3759 H 375.961 0.75799 -1.22436 0
M  V30 3760 H 377.914 3.86061 -1.68923 0
M  V30 3761 H 376.638 3.20381 -0.634305 0
M  V30 3762 H 375.297 2.52649 -2.65639 0
M  V30 3763 H 374.945 4.76755 -1.60353 0
M  V30 3764 H 374.645 4.82144 -3.35873 0
M  V30 3765 H 376.169 5.47817 -2.69682 0
M  V30 3766 H 377.583 3.83315 -4.26313 0
M  V30 3767 H 375.98 3.41482 -4.93468 0
M  V30 3768 H 377.05 2.12372 -4.3592 0
M  V30 3769 N 378.394 1.34581 0.820102 0
M  V30 3770 C 379.357 1.2628 1.91275 0
M  V30 3771 C 380.357 0.177344 1.59819 0
M  V30 3772 O 381.547 0.430156 1.68806 0
M  V30 3773 C 378.679 0.950327 3.27386 0
M  V30 3774 H 379.872 2.23421 2.00057 0
M  V30 3775 H 377.425 1.1891 1.0144 0
M  V30 3776 H 378.16 -0.0177938 3.24295 0
M  V30 3777 H 377.945 1.73549 3.51601 0
M  V30 3778 H 379.435 0.917492 4.07396 0
M  V30 3779 N 379.872 -1.04064 1.18357 0
M  V30 3780 C 380.82 -2.14187 0.907007 0
M  V30 3781 C 381.814 -1.68879 -0.132725 0
M  V30 3782 O 383.02 -1.79993 0.0154248 0
M  V30 3783 H 379.395 -0.699585 0.275835 0
M  V30 3784 H 381.366 -2.34711 1.84264 0
M  V30 3785 C 380.115 -3.44785 0.449254 0
M  V30 3786 H 379.438 -3.80058 1.24081 0
M  V30 3787 H 380.878 -4.22974 0.294737 0
M  V30 3788 C 379.337 -3.26391 -0.834909 0
M  V30 3789 O 379.867 -3.53973 -1.89911 0
M  V30 3790 N 378.073 -2.79726 -0.787523 0
M  V30 3791 H 377.62 -2.5748 0.0787347 0
M  V30 3792 H 377.578 -2.67798 -1.64716 0
M  V30 3793 N 381.35 -0.985608 -1.22978 0
M  V30 3794 C 382.596 -0.667998 -1.92118 0
M  V30 3795 C 382.951 0.790454 -1.75413 0
M  V30 3796 O 382.244 1.56336 -1.10768 0
M  V30 3797 C 382.438 -1.00014 -3.43121 0
M  V30 3798 C 382.267 -2.48933 -3.74516 0
M  V30 3799 C 381.037 -3.15218 -3.94925 0
M  V30 3800 C 383.235 -3.47024 -3.79577 0
M  V30 3801 N 381.217 -4.53689 -4.13569 0
M  V30 3802 C 382.588 -4.70923 -4.03276 0
M  V30 3803 C 384.643 -3.41432 -3.62393 0
M  V30 3804 C 383.346 -5.89914 -4.11574 0
M  V30 3805 C 385.372 -4.59793 -3.71947 0
M  V30 3806 C 384.734 -5.82489 -3.96088 0
M  V30 3807 H 380.833 -0.295589 -0.723983 0
M  V30 3808 H 383.417 -1.26413 -1.4808 0
M  V30 3809 H 381.588 -0.432655 -3.85983 0
M  V30 3810 H 383.32 -0.63927 -3.99619 0
M  V30 3811 H 380.075 -2.65702 -3.92045 0
M  V30 3812 H 380.499 -5.25492 -4.26834 0
M  V30 3813 H 385.141 -2.47594 -3.4272 0
M  V30 3814 H 382.859 -6.84164 -4.30053 0
M  V30 3815 H 386.445 -4.57048 -3.59998 0
M  V30 3816 H 385.325 -6.72546 -4.033 0
M  V30 3817 N 382.828 1.3818 -0.7579 0
M  V30 3818 C 384.077 1.99261 -0.312744 0
M  V30 3819 C 384.39 1.60846 1.11301 0
M  V30 3820 O 385.596 2.14929 1.65885 0
M  V30 3821 C 384.052 3.56294 -0.50821 0
M  V30 3822 C 383.66 4.03657 -1.94333 0
M  V30 3823 C 385.404 4.24313 -0.125982 0
M  V30 3824 C 383.311 5.53347 -2.08712 0
M  V30 3825 H 382.241 0.745456 -0.113185 0
M  V30 3826 H 384.892 1.57889 -0.935056 0
M  V30 3827 H 383.274 3.95575 0.183353 0
M  V30 3828 H 384.448 3.75655 -2.66871 0
M  V30 3829 H 382.763 3.48376 -2.28086 0
M  V30 3830 H 385.36 5.34279 -0.212125 0
M  V30 3831 H 385.703 4.05962 0.921964 0
M  V30 3832 H 386.236 3.90285 -0.769563 0
M  V30 3833 H 382.975 5.76607 -3.11777 0
M  V30 3834 H 382.495 5.83078 -1.4064 0
M  V30 3835 H 384.174 6.19111 -1.87912 0
M  V30 3836 N 384.306 0.507319 1.49211 0
M  V30 3837 C 385.254 -0.281364 2.30892 0
M  V30 3838 C 386.248 -0.95687 1.39787 0
M  V30 3839 O 387.454 -0.883838 1.56807 0
M  V30 3840 H 383.829 -0.109597 0.743971 0
M  V30 3841 H 385.8 0.42744 2.95323 0
M  V30 3842 C 384.549 -1.32918 3.21291 0
M  V30 3843 H 383.872 -0.818799 3.91326 0
M  V30 3844 H 385.312 -1.85288 3.81372 0
M  V30 3845 C 383.771 -2.35074 2.41333 0
M  V30 3846 O 384.301 -3.4108 2.12197 0
M  V30 3847 N 382.507 -2.07705 2.03241 0
M  V30 3848 H 382.054 -1.2152 2.27136 0
M  V30 3849 H 382.012 -2.76283 1.50051 0
M  V30 3850 N 385.784 -1.5574 0.241426 0
M  V30 3851 C 386.694 -2.2479 -0.671305 0
M  V30 3852 C 387.71 -1.26217 -1.19772 0
M  V30 3853 O 388.886 -1.59079 -1.23514 0
M  V30 3854 C 385.951 -2.92966 -1.85396 0
M  V30 3855 C 385.012 -4.06935 -1.36756 0
M  V30 3856 C 384.245 -4.71851 -2.49384 0
M  V30 3857 O 384.468 -4.35823 -3.67987 0
M  V30 3858 O 383.402 -5.60467 -2.19454 0
M  V30 3859 H 387.228 -3.0349 -0.112966 0
M  V30 3860 H 384.813 -1.49397 0.0101513 0
M  V30 3861 H 386.695 -3.35927 -2.54423 0
M  V30 3862 H 385.37 -2.17211 -2.40002 0
M  V30 3863 H 384.277 -3.68503 -0.644726 0
M  V30 3864 H 385.61 -4.84492 -0.867647 0
M  V30 3865 N 387.262 0.0317525 -1.57568 0
M  V30 3866 C 388.511 0.722131 -1.8833 0
M  V30 3867 C 388.824 1.76664 -0.839587 0
M  V30 3868 O 390.03 2.50942 -1.03635 0
M  V30 3869 C 388.486 1.33544 -3.34207 0
M  V30 3870 C 388.094 0.327415 -4.46802 0
M  V30 3871 C 389.838 2.00585 -3.7412 0
M  V30 3872 C 387.745 0.948915 -5.83738 0
M  V30 3873 H 386.675 0.273466 -0.702661 0
M  V30 3874 H 389.326 -0.0235811 -1.83485 0
M  V30 3875 H 387.708 2.13077 -3.33788 0
M  V30 3876 H 388.882 -0.441006 -4.58685 0
M  V30 3877 H 387.197 -0.240758 -4.15703 0
M  V30 3878 H 389.794 2.47932 -4.73744 0
M  V30 3879 H 390.137 2.82285 -3.05975 0
M  V30 3880 H 390.67 1.27831 -3.76702 0
M  V30 3881 H 387.409 0.171387 -6.55276 0
M  V30 3882 H 386.929 1.68724 -5.7558 0
M  V30 3883 H 388.608 1.45705 -6.3038 0
M  V30 3884 N 388.74 1.54641 0.303973 0
M  V30 3885 C 389.69 1.8177 1.37636 0
M  V30 3886 C 390.674 0.674697 1.46071 0
M  V30 3887 O 391.866 0.935251 1.50273 0
M  V30 3888 C 388.995 2.06584 2.74186 0
M  V30 3889 C 388.081 3.2706 2.69986 0
M  V30 3890 N 388.472 4.47682 2.35402 0
M  V30 3891 C 386.77 3.29028 3.01092 0
M  V30 3892 C 387.471 5.29689 2.40426 0
M  V30 3893 N 386.447 4.67339 2.7766 0
M  V30 3894 H 390.249 2.72596 1.09857 0
M  V30 3895 H 387.763 1.541 0.51254 0
M  V30 3896 H 389.76 2.24166 3.51504 0
M  V30 3897 H 388.42 1.17024 3.02879 0
M  V30 3898 H 389.431 4.74336 2.07908 0
M  V30 3899 H 386.108 2.49565 3.34699 0
M  V30 3900 H 387.498 6.3606 2.16512 0
M  V30 3901 N 390.218 -0.567019 1.47046 0
M  V30 3902 C 391.466 -1.322 1.52864 0
M  V30 3903 C 391.787 -1.94088 0.188388 0
M  V30 3904 O 391.057 -1.7941 -0.786693 0
M  V30 3905 H 389.637 -0.490894 0.563056 0
M  V30 3906 H 392.299 -0.662879 1.83281 0
M  V30 3907 H 391.395 -2.12062 2.2899 0
M  V30 3908 N 391.696 -1.35014 -0.812953 0
M  V30 3909 C 392.921 -1.31187 -1.60639 0
M  V30 3910 C 393.346 0.109382 -1.87782 0
M  V30 3911 O 392.704 1.07424 -1.46047 0
M  V30 3912 C 392.752 -2.11809 -2.91838 0
M  V30 3913 O 391.856 -1.49444 -3.8437 0
M  V30 3914 H 391.197 -0.450084 -0.488181 0
M  V30 3915 H 393.727 -1.77963 -1.00947 0
M  V30 3916 H 393.737 -2.23531 -3.41318 0
M  V30 3917 H 392.412 -3.15137 -2.71407 0
M  V30 3918 H 390.989 -1.46524 -3.42907 0
M  V30 3919 N 393.175 1.03435 -1.18907 0
M  V30 3920 C 394.085 2.15075 -0.937015 0
M  V30 3921 C 395.101 1.73706 0.101085 0
M  V30 3922 O 396.277 2.01232 -0.0822948 0
M  V30 3923 C 393.342 3.43458 -0.473057 0
M  V30 3924 C 392.403 3.99172 -1.57989 0
M  V30 3925 C 391.636 5.21427 -1.13797 0
M  V30 3926 O 391.859 5.704 0.000725941 0
M  V30 3927 O 390.793 5.69837 -1.9383 0
M  V30 3928 H 394.619 2.39198 -1.87131 0
M  V30 3929 H 392.204 1.13506 -0.971427 0
M  V30 3930 H 394.086 4.20811 -0.222702 0
M  V30 3931 H 392.761 3.20793 0.432869 0
M  V30 3932 H 391.668 3.23178 -1.88433 0
M  V30 3933 H 393.001 4.2619 -2.46217 0
M  V30 3934 N 394.653 0.992116 1.22453 0
M  V30 3935 C 395.902 0.662992 1.90492 0
M  V30 3936 C 396.215 -0.808407 1.78113 0
M  V30 3937 O 397.421 -1.24908 2.41061 0
M  V30 3938 C 395.877 1.1353 3.41524 0
M  V30 3939 C 395.485 2.63187 3.62542 0
M  V30 3940 C 397.229 0.880465 4.15269 0
M  V30 3941 C 395.136 3.04024 5.0727 0
M  V30 3942 H 394.066 0.244278 0.713333 0
M  V30 3943 H 396.717 1.20157 1.38688 0
M  V30 3944 H 395.099 0.52485 3.92506 0
M  V30 3945 H 396.273 3.2957 3.22056 0
M  V30 3946 H 394.588 2.86543 3.02129 0
M  V30 3947 H 397.185 1.16128 5.21937 0
M  V30 3948 H 397.528 -0.183408 4.15896 0
M  V30 3949 H 398.061 1.45307 3.70312 0
M  V30 3950 H 394.8 4.09584 5.11782 0
M  V30 3951 H 394.32 2.42343 5.48662 0
M  V30 3952 H 395.999 2.95282 5.75689 0
M  V30 3953 N 396.131 -1.37776 0.765217 0
M  V30 3954 C 397.094 -2.28686 0.153416 0
M  V30 3955 C 398.094 -1.47727 -0.635081 0
M  V30 3956 O 399.284 -1.68027 -0.459632 0
M  V30 3957 C 396.416 -3.31608 -0.790495 0
M  V30 3958 H 397.609 -2.84297 0.954723 0
M  V30 3959 H 395.162 -1.46932 0.53299 0
M  V30 3960 H 395.897 -2.81109 -1.61705 0
M  V30 3961 H 395.682 -3.9144 -0.227348 0
M  V30 3962 H 397.172 -3.99559 -1.21419 0
M  V30 3963 N 397.609 -0.515225 -1.4894 0
M  V30 3964 C 398.556 0.255567 -2.29381 0
M  V30 3965 C 399.526 0.947387 -1.36432 0
M  V30 3966 O 400.711 0.951288 -1.65394 0
M  V30 3967 C 397.851 1.30551 -3.19453 0
M  V30 3968 C 396.964 0.624029 -4.27469 0
M  V30 3969 C 396.099 1.65563 -5.0474 0
M  V30 3970 C 395.138 0.956802 -6.04576 0
M  V30 3971 N 394.275 1.93326 -6.74959 0
M  V30 3972 H 399.115 -0.436607 -2.94784 0
M  V30 3973 H 396.652 -0.227154 -1.45336 0
M  V30 3974 H 398.61 1.92639 -3.70062 0
M  V30 3975 H 397.24 1.96626 -2.56004 0
M  V30 3976 H 396.292 -0.110459 -3.8024 0
M  V30 3977 H 397.604 0.0746092 -4.98744 0
M  V30 3978 H 396.758 2.35119 -5.59289 0
M  V30 3979 H 395.497 2.23893 -4.3327 0
M  V30 3980 H 394.502 0.247097 -5.49244 0
M  V30 3981 H 395.727 0.379814 -6.78037 0
M  V30 3982 H 393.673 2.50591 -6.06251 0
M  V30 3983 H 393.59 1.43489 -7.42258 0
M  V30 3984 H 394.858 2.62126 -7.34105 0
M  V30 3985 O 399.126 1.56684 -0.391475 0
M  V30 3986 H 399.817 1.93093 0.153177 0
M  V30 END ATOM
M  V30 BEGIN BOND
M  V30 END BOND
M  V30 END CTAB
M  END
$$$$
