drugbank_target|P24232 Flavohemoprotein (DB03147)
 OpenBabel12092120263D

  0  0  0     0  0            999 V3000
M  V30 BEGIN CTAB
M  V30 COUNTS 6110 6188 0 0 0
M  V30 BEGIN ATOM
M  V30 1 H -0.908 1.98254 -0.117106 0
M  V30 2 N 0 1.576 0 0
M  V30 3 C 0.933 2.03868 1.02534 0
M  V30 4 C 1.911 0.928543 1.3348 0
M  V30 5 O 3.095 1.19667 1.45644 0
M  V30 6 C 0.222 2.43627 2.35294 0
M  V30 7 C -0.732 3.65373 2.2001 0
M  V30 8 S 0.101 5.13292 1.52614 0
M  V30 9 C 1.257 5.56322 2.86805 0
M  V30 10 H 1.49 2.90518 0.631377 0
M  V30 11 H -0.977 1.52953 0.210867 0
M  V30 12 H 0.981 2.67203 3.11629 0
M  V30 13 H -0.358 1.57376 2.7183 0
M  V30 14 H -1.165 3.90944 3.18086 0
M  V30 15 H -1.563 3.418 1.51819 0
M  V30 16 H 0.729 5.58782 3.83104 0
M  V30 17 H 1.672 6.56266 2.65933 0
M  V30 18 H 2.08 4.83886 2.90714 0
M  V30 19 N 1.4781 -0.272755 1.55222 0
M  V30 20 C 2.4081 -1.34136 1.91127 0
M  V30 21 C 3.3891 -1.51513 0.773168 0
M  V30 22 O 4.5741 -1.64552 1.03132 0
M  V30 23 C 1.7041 -2.70083 2.1834 0
M  V30 24 C 0.6581 -2.67437 3.34158 0
M  V30 25 C -0.0159 -4.06938 3.46851 0
M  V30 26 C 1.2841 -2.26686 4.70543 0
M  V30 27 H 2.9781 -1.04333 2.80633 0
M  V30 28 H 0.5241 -0.500454 1.35024 0
M  V30 29 H 2.4771 -3.44952 2.42046 0
M  V30 30 H 1.2011 -3.01469 1.25634 0
M  V30 31 H -0.1399 -1.95026 3.1042 0
M  V30 32 H -0.4919 -4.35547 2.51611 0
M  V30 33 H -0.7919 -4.06062 4.2472 0
M  V30 34 H 0.7321 -4.83545 3.72849 0
M  V30 35 H 2.1461 -2.91277 4.93792 0
M  V30 36 H 0.5431 -2.36971 5.5133 0
M  V30 37 H 1.6131 -1.21818 4.69349 0
M  V30 38 N 2.9562 -1.48159 -0.537278 0
M  V30 39 C 4.2332 -1.46291 -1.29839 0
M  V30 40 C 4.6132 -0.170613 -2.10409 0
M  V30 41 O 3.9612 0.847746 -2.12192 0
M  V30 42 C 4.1712 -2.72055 -2.18603 0
M  V30 43 C 5.5192 -3.20087 -2.7898 0
M  V30 44 O 6.5432 -2.72921 -2.28894 0
M  V30 45 O 5.4022 -4.02138 -3.70064 0
M  V30 46 H 2.4962 -0.583906 -0.585647 0
M  V30 47 H 5.0422 -1.60384 -0.554534 0
M  V30 48 H 3.8142 -3.57628 -1.58801 0
M  V30 49 H 3.4372 -2.60646 -3.00249 0
M  V30 50 N 4.4343 0.785586 -1.36625 0
M  V30 51 C 5.3973 1.87999 -1.31107 0
M  V30 52 C 6.3973 1.59316 -0.217959 0
M  V30 53 O 7.5873 1.67656 -0.472977 0
M  V30 54 C 4.7193 3.24861 -1.03334 0
M  V30 55 H 5.9123 1.94307 -2.2844 0
M  V30 56 H 3.4653 0.983813 -1.21453 0
M  V30 57 H 4.2003 3.24235 -0.0647432 0
M  V30 58 H 3.9853 3.4707 -1.82441 0
M  V30 59 H 5.4753 4.04929 -1.02088 0
M  V30 60 N 5.9124 1.20967 1.01018 0
M  V30 61 C 6.8444 0.922059 2.09835 0
M  V30 62 C 7.8574 -0.0927106 1.62536 0
M  V30 63 O 9.0464 0.139127 1.77957 0
M  V30 64 C 6.1464 0.362004 3.36961 0
M  V30 65 C 5.3194 1.42986 4.13369 0
M  V30 66 C 4.3784 0.879976 5.1879 0
M  V30 67 O 3.4044 1.56219 5.47343 0
M  V30 68 N 4.6064 -0.307396 5.79686 0
M  V30 69 H 7.3714 1.8588 2.35093 0
M  V30 70 H 4.9324 1.11422 1.1746 0
M  V30 71 H 6.9244 -0.0201474 4.04695 0
M  V30 72 H 5.4944 -0.479437 3.08902 0
M  V30 73 H 4.7144 1.98608 3.40512 0
M  V30 74 H 6.0024 2.14885 4.61196 0
M  V30 75 H 5.4004 -0.878796 5.58832 0
M  V30 76 H 3.9574 -0.631115 6.48737 0
M  V30 77 N 7.3905 -1.2043 1.01659 0
M  V30 78 C 8.6185 -1.93777 0.725132 0
M  V30 79 C 9.0335 -1.74772 -0.714166 0
M  V30 80 O 8.3905 -1.06169 -1.4844 0
M  V30 81 C 8.4415 -3.45876 1.05129 0
M  V30 82 O 8.1625 -3.6426 2.43406 0
M  V30 83 C 9.6635 -4.36368 0.780891 0
M  V30 84 H 6.8835 -0.615901 0.266284 0
M  V30 85 H 9.4275 -1.52922 1.35776 0
M  V30 86 H 7.5825 -3.8461 0.464065 0
M  V30 87 H 7.9965 -4.58246 2.55169 0
M  V30 88 H 9.4705 -5.41743 1.05918 0
M  V30 89 H 9.9475 -4.38275 -0.284937 0
M  V30 90 H 10.5535 -4.03296 1.35027 0
M  V30 91 N 8.8686 -0.792821 -1.36206 0
M  V30 92 C 10.1176 -0.363353 -1.984 0
M  V30 93 C 10.4306 1.07172 -1.63626 0
M  V30 94 O 11.6366 1.60362 -2.19081 0
M  V30 95 C 10.0926 -0.59872 -3.54885 0
M  V30 96 C 9.7006 -2.04543 -3.9858 0
M  V30 97 C 11.4446 -0.233926 -4.23855 0
M  V30 98 C 9.3516 -2.22727 -5.47856 0
M  V30 99 H 8.2816 -0.13212 -0.742334 0
M  V30 100 H 10.9326 -0.974935 -1.55458 0
M  V30 101 H 9.3146 0.0826222 -3.95914 0
M  V30 102 H 10.4886 -2.76345 -3.68741 0
M  V30 103 H 8.8036 -2.36879 -3.42458 0
M  V30 104 H 11.4006 -0.348027 -5.33566 0
M  V30 105 H 11.7436 0.818351 -4.08177 0
M  V30 106 H 12.2766 -0.868639 -3.882 0
M  V30 107 H 9.0156 -3.2635 -5.68486 0
M  V30 108 H 8.5356 -1.55434 -5.7931 0
M  V30 109 H 10.2146 -2.03607 -6.14128 0
M  V30 110 N 10.3467 1.47872 -0.545128 0
M  V30 111 C 11.3097 2.28337 0.198717 0
M  V30 112 C 12.3097 1.36255 0.853888 0
M  V30 113 O 13.4997 1.59003 0.711606 0
M  V30 114 C 10.6317 3.15585 1.28915 0
M  V30 115 H 11.8247 2.95567 -0.507941 0
M  V30 116 H 9.3777 1.53362 -0.301616 0
M  V30 117 H 10.1127 2.53019 2.02859 0
M  V30 118 H 9.8977 3.83337 0.824309 0
M  V30 119 H 11.3877 3.76243 1.81194 0
M  V30 120 N 11.8248 0.280983 1.55075 0
M  V30 121 C 13.0528 -0.337293 2.04132 0
M  V30 122 C 13.4678 -1.4903 1.15912 0
M  V30 123 O 12.8248 -1.81606 0.180459 0
M  V30 124 C 12.8758 -0.812706 3.52246 0
M  V30 125 O 12.5968 0.294387 4.3711 0
M  V30 126 C 14.0978 -1.4982 4.17216 0
M  V30 127 H 11.3178 -0.0761638 0.666663 0
M  V30 128 H 13.8618 0.414787 2.00249 0
M  V30 129 H 12.0168 -1.51486 3.56554 0
M  V30 130 H 12.4308 -0.0721325 5.2445 0
M  V30 131 H 13.9048 -1.7822 5.22438 0
M  V30 132 H 14.3818 -2.43168 3.65741 0
M  V30 133 H 14.9878 -0.839742 4.16927 0
M  V30 134 N 13.3029 -1.57598 0.00835791 0
M  V30 135 C 14.5489 -1.91211 -0.675732 0
M  V30 136 C 14.8819 -0.883139 -1.72958 0
M  V30 137 O 14.1569 0.097016 -1.94258 0
M  V30 138 C 14.4399 -3.35379 -1.31123 0
M  V30 139 C 14.2929 -4.48999 -0.268356 0
M  V30 140 C 15.6119 -3.7912 -2.23508 0
M  V30 141 H 12.7309 -0.695374 -0.244179 0
M  V30 142 H 15.3729 -1.89901 0.0613655 0
M  V30 143 H 13.5229 -3.36626 -1.93946 0
M  V30 144 H 15.1949 -4.59887 0.360844 0
M  V30 145 H 13.4379 -4.31873 0.408482 0
M  V30 146 H 14.1089 -5.46851 -0.752218 0
M  V30 147 H 16.5849 -3.79477 -1.70693 0
M  V30 148 H 15.4609 -4.80729 -2.64936 0
M  V30 149 H 15.7219 -3.13455 -3.11766 0
M  V30 150 N 14.781 0.264519 -1.55364 0
M  V30 151 C 15.728 1.32717 -1.88825 0
M  V30 152 C 16.698 1.48675 -0.740605 0
M  V30 153 O 17.883 1.62945 -0.992657 0
M  V30 154 C 15.023 2.68089 -2.17307 0
M  V30 155 C 14.136 2.60284 -3.44785 0
M  V30 156 C 13.271 3.87892 -3.62924 0
M  V30 157 C 12.31 3.74631 -4.84064 0
M  V30 158 N 11.447 4.94092 -4.98816 0
M  V30 159 H 16.287 1.03481 -2.79456 0
M  V30 160 H 13.824 0.499757 -1.3835 0
M  V30 161 H 15.782 3.46864 -2.31821 0
M  V30 162 H 14.412 2.95509 -1.299 0
M  V30 163 H 13.464 1.73173 -3.38697 0
M  V30 164 H 14.776 2.46388 -4.33698 0
M  V30 165 H 13.93 4.75109 -3.77302 0
M  V30 166 H 12.669 4.04664 -2.7221 0
M  V30 167 H 11.674 2.85797 -4.69681 0
M  V30 168 H 12.899 3.5937 -5.76221 0
M  V30 169 H 10.845 5.11259 -4.11036 0
M  V30 170 H 10.762 4.8276 -5.81789 0
M  V30 171 H 12.03 5.82857 -5.17588 0
M  V30 172 N 16.2591 1.48442 0.529413 0
M  V30 173 C 17.2221 1.62524 1.61612 0
M  V30 174 C 18.2221 0.498509 1.52877 0
M  V30 175 O 19.4121 0.76431 1.56537 0
M  V30 176 C 16.5441 1.59597 3.01233 0
M  V30 177 H 17.7371 2.59423 1.50465 0
M  V30 178 H 15.2901 1.37047 0.751514 0
M  V30 179 H 16.0251 0.641781 3.17886 0
M  V30 180 H 15.8101 2.41397 3.08982 0
M  V30 181 H 17.3001 1.72646 3.80241 0
M  V30 182 N 17.7372 -0.778329 1.37039 0
M  V30 183 C 18.9652 -1.56734 1.35063 0
M  V30 184 C 19.3802 -1.88686 -0.0655597 0
M  V30 185 O 18.7372 -1.5096 -1.02554 0
M  V30 186 C 18.7882 -2.88163 2.18276 0
M  V30 187 O 18.5092 -2.57583 3.54376 0
M  V30 188 C 20.0102 -3.82422 2.24206 0
M  V30 189 H 17.2302 -0.485778 0.462883 0
M  V30 190 H 19.7742 -0.965185 1.8029 0
M  V30 191 H 17.9292 -3.44818 1.76576 0
M  V30 192 H 18.3432 -3.41699 3.97922 0
M  V30 193 H 19.8172 -4.71667 2.86765 0
M  V30 194 H 20.2942 -4.21078 1.24861 0
M  V30 195 H 20.9002 -3.31697 2.6619 0
M  V30 196 N 19.2153 -1.21501 -1.00376 0
M  V30 197 C 20.4643 -1.02718 -1.73586 0
M  V30 198 C 20.7773 0.439589 -1.90596 0
M  V30 199 O 21.9833 0.746848 -2.61026 0
M  V30 200 C 20.4393 -1.78929 -3.1227 0
M  V30 201 C 20.0473 -3.29783 -3.03228 0
M  V30 202 C 21.7913 -1.68557 -3.89601 0
M  V30 203 C 19.6983 -3.98479 -4.36999 0
M  V30 204 H 18.6283 -0.380733 -0.650814 0
M  V30 205 H 21.2793 -1.45248 -1.1214 0
M  V30 206 H 19.6613 -1.29192 -3.74333 0
M  V30 207 H 20.8353 -3.86832 -2.50395 0
M  V30 208 H 19.1503 -3.40711 -2.39385 0
M  V30 209 H 21.7473 -2.17211 -4.88593 0
M  V30 210 H 22.0903 -0.644021 -4.11288 0
M  V30 211 H 22.6233 -2.15778 -3.34193 0
M  V30 212 H 19.3623 -5.02841 -4.20513 0
M  V30 213 H 18.8823 -3.46219 -4.89788 0
M  V30 214 H 20.5613 -4.03462 -5.05794 0
M  V30 215 N 20.6934 1.19889 -1.02296 0
M  V30 216 C 22.1044 1.71124 -0.746568 0
M  V30 217 C 22.4554 1.81939 0.734335 0
M  V30 218 O 21.5804 1.48639 1.57275 0
M  V30 219 C 22.1754 3.10804 -1.34857 0
M  V30 220 C 20.7344 3.59323 -1.1209 0
M  V30 221 C 19.8814 2.3635 -1.45031 0
M  V30 222 H 22.8324 1.04813 -1.19163 0
M  V30 223 H 22.8534 3.73186 -0.742437 0
M  V30 224 H 22.3654 3.029 -2.42638 0
M  V30 225 H 20.4664 3.7255 -0.0610337 0
M  V30 226 H 20.5794 4.4378 -1.80544 0
M  V30 227 H 18.9434 2.39399 -0.869487 0
M  V30 228 H 19.7264 2.31081 -2.53883 0
M  V30 229 N 22.1715 0.800033 1.35784 0
M  V30 230 C 23.1015 0.220184 2.3246 0
M  V30 231 C 24.0825 -0.65073 1.57161 0
M  V30 232 O 25.2675 -0.582359 1.85263 0
M  V30 233 C 22.3975 -0.637353 3.41402 0
M  V30 234 C 21.3515 0.134531 4.27789 0
M  V30 235 C 20.6775 -0.844285 5.27992 0
M  V30 236 C 21.9775 1.32979 5.05088 0
M  V30 237 H 23.6715 1.02787 2.81203 0
M  V30 238 H 21.2175 0.495717 1.35199 0
M  V30 239 H 23.1705 -1.05302 4.08031 0
M  V30 240 H 21.8945 -1.47785 2.91251 0
M  V30 241 H 20.5535 0.531296 3.6273 0
M  V30 242 H 20.2015 -1.68011 4.74111 0
M  V30 243 H 19.9015 -0.332184 5.8666 0
M  V30 244 H 21.4255 -1.2583 5.97494 0
M  V30 245 H 22.8395 0.98934 5.64699 0
M  V30 246 H 21.2365 1.77593 5.7322 0
M  V30 247 H 22.3065 2.11978 4.36111 0
M  V30 248 N 23.6496 -1.47581 0.552962 0
M  V30 249 C 24.5796 -2.32762 -0.185451 0
M  V30 250 C 25.5606 -1.43527 -0.912905 0
M  V30 251 O 26.7456 -1.72388 -0.894201 0
M  V30 252 C 23.8756 -3.25219 -1.21859 0
M  V30 253 C 22.8296 -4.23661 -0.607864 0
M  V30 254 C 22.1556 -5.05413 -1.74533 0
M  V30 255 C 23.4556 -5.20481 0.435582 0
M  V30 256 H 25.1496 -2.94749 0.525684 0
M  V30 257 H 22.6956 -1.41738 0.254251 0
M  V30 258 H 24.6486 -3.8365 -1.7433 0
M  V30 259 H 23.3726 -2.61279 -1.95961 0
M  V30 260 H 22.0316 -3.66451 -0.104489 0
M  V30 261 H 21.6796 -4.3788 -2.47529 0
M  V30 262 H 21.3796 -5.72059 -1.34249 0
M  V30 263 H 22.9036 -5.66701 -2.27338 0
M  V30 264 H 24.3176 -5.733 -0.00290157 0
M  V30 265 H 22.7146 -5.95305 0.757067 0
M  V30 266 H 23.7846 -4.66217 1.33303 0
M  V30 267 N 25.1277 -0.289203 -1.54924 0
M  V30 268 C 26.3737 0.323998 -2.00195 0
M  V30 269 C 26.7067 1.54441 -1.17735 0
M  V30 270 O 25.9817 1.92875 -0.250878 0
M  V30 271 C 26.2647 0.692276 -3.53383 0
M  V30 272 C 26.1177 -0.536457 -4.46589 0
M  V30 273 C 27.4367 1.52335 -4.12895 0
M  V30 274 H 24.5557 0.116289 -0.727768 0
M  V30 275 H 27.1977 -0.398954 -1.85764 0
M  V30 276 H 25.3477 1.30822 -3.65811 0
M  V30 277 H 27.0197 -1.17499 -4.46085 0
M  V30 278 H 25.2627 -1.17192 -4.1767 0
M  V30 279 H 25.9337 -0.234806 -5.515 0
M  V30 280 H 28.4097 1.00302 -4.0383 0
M  V30 281 H 27.2857 1.74982 -5.20262 0
M  V30 282 H 27.5467 2.50886 -3.64018 0
M  V30 283 N 26.6058 1.57591 -0.0167156 0
M  V30 284 C 27.5158 2.1291 0.98521 0
M  V30 285 C 28.5318 1.07834 1.36557 0
M  V30 286 O 29.7078 1.39826 1.44951 0
M  V30 287 C 26.7728 2.63512 2.25305 0
M  V30 288 C 25.8338 3.83256 1.93426 0
M  V30 289 C 25.0668 4.31435 3.14165 0
M  V30 290 O 25.2898 3.78851 4.26413 0
M  V30 291 O 24.2238 5.23416 2.97186 0
M  V30 292 H 28.0498 2.98772 0.544888 0
M  V30 293 H 25.6348 1.48012 0.203141 0
M  V30 294 H 27.5168 2.96183 2.99756 0
M  V30 295 H 26.1918 1.8074 2.68542 0
M  V30 296 H 25.0988 3.55531 1.16398 0
M  V30 297 H 26.4318 4.67153 1.55013 0
M  V30 298 N 28.0839 -0.256276 1.55502 0
M  V30 299 C 29.3119 -1.00342 1.8094 0
M  V30 300 C 29.7269 -1.79307 0.59114 0
M  V30 301 O 29.0839 -1.77114 -0.440081 0
M  V30 302 C 29.1349 -1.94875 3.04476 0
M  V30 303 O 28.8559 -1.19107 4.21598 0
M  V30 304 C 30.3569 -2.81266 3.42644 0
M  V30 305 H 27.5769 -0.295685 0.602338 0
M  V30 306 H 30.1209 -0.281998 2.02546 0
M  V30 307 H 28.2759 -2.62457 2.84947 0
M  V30 308 H 28.6899 -1.82969 4.91551 0
M  V30 309 H 30.1639 -3.43362 4.32211 0
M  V30 310 H 30.6409 -3.51897 2.62802 0
M  V30 311 H 31.2469 -2.1915 3.64491 0
M  V30 312 N 29.562 -1.4872 -0.521534 0
M  V30 313 C 30.81 -1.56857 -1.27437 0
M  V30 314 C 31.131 -0.247982 -1.93417 0
M  V30 315 O 30.401 0.731151 -1.81744 0
M  V30 316 H 28.981 -0.577885 -0.473347 0
M  V30 317 H 31.643 -1.85233 -0.606205 0
M  V30 318 H 30.739 -2.35402 -2.0492 0
M  V30 319 N 31.0401 0.771051 -1.3745 0
M  V30 320 C 32.4511 1.34737 -1.29239 0
M  V30 321 C 32.8021 1.96109 0.0596908 0
M  V30 322 O 31.9271 1.93865 0.961534 0
M  V30 323 C 32.5221 2.44973 -2.34037 0
M  V30 324 C 31.0811 2.98372 -2.29458 0
M  V30 325 C 30.2281 1.71595 -2.17831 0
M  V30 326 H 33.1791 0.571256 -1.48062 0
M  V30 327 H 33.2001 3.24471 -1.98744 0
M  V30 328 H 32.7121 2.00276 -3.32432 0
M  V30 329 H 30.8131 3.47443 -1.34589 0
M  V30 330 H 30.9261 3.53939 -3.229 0
M  V30 331 H 29.2901 1.94547 -1.64388 0
M  V30 332 H 30.0731 1.29001 -3.18141 0
M  V30 333 N 32.5182 1.22032 0.997298 0
M  V30 334 C 33.4652 0.986467 2.08656 0
M  V30 335 C 34.4352 -0.0902671 1.65855 0
M  V30 336 O 35.6202 0.0584294 1.90711 0
M  V30 337 C 32.7602 0.565569 3.40434 0
M  V30 338 C 31.8732 1.71259 3.96604 0
M  V30 339 C 31.0082 1.24011 5.16522 0
M  V30 340 C 30.0472 2.35896 5.64818 0
M  V30 341 N 29.1842 1.89726 6.7598 0
M  V30 342 H 34.0242 1.91892 2.27994 0
M  V30 343 H 31.5612 0.956199 1.11782 0
M  V30 344 H 33.5192 0.302738 4.161 0
M  V30 345 H 32.1492 -0.329879 3.2111 0
M  V30 346 H 31.2012 2.08986 3.17851 0
M  V30 347 H 32.5132 2.55436 4.28432 0
M  V30 348 H 31.6672 0.934395 5.99461 0
M  V30 349 H 30.4062 0.368487 4.86306 0
M  V30 350 H 29.4112 2.67261 4.8047 0
M  V30 351 H 30.6362 3.23567 5.97061 0
M  V30 352 H 28.5822 1.0492 6.47555 0
M  V30 353 H 28.4992 2.67471 7.07103 0
M  V30 354 H 29.7672 1.62211 7.62435 0
M  V30 355 N 33.9963 -1.19345 1.0293 0
M  V30 356 C 34.9263 -2.2481 0.631105 0
M  V30 357 C 35.9073 -1.66245 -0.360104 0
M  V30 358 O 37.0923 -1.92677 -0.242726 0
M  V30 359 C 34.2223 -3.47295 -0.0184607 0
M  V30 360 C 33.1763 -4.18536 0.895073 0
M  V30 361 C 32.5023 -5.34586 0.110592 0
M  V30 362 C 33.8023 -4.73287 2.209 0
M  V30 363 H 35.4963 -2.58372 1.51275 0
M  V30 364 H 33.0423 -1.24194 0.728818 0
M  V30 365 H 34.9953 -4.20268 -0.308675 0
M  V30 366 H 33.7193 -3.12933 -0.934907 0
M  V30 367 H 32.3783 -3.47446 1.16949 0
M  V30 368 H 32.0263 -4.96469 -0.807902 0
M  V30 369 H 31.7263 -5.83183 0.719087 0
M  V30 370 H 33.2503 -6.10355 -0.172871 0
M  V30 371 H 34.6643 -5.38013 1.98028 0
M  V30 372 H 33.0613 -5.32373 2.76946 0
M  V30 373 H 34.1313 -3.91331 2.86336 0
M  V30 374 N 35.4744 -0.807222 -1.35358 0
M  V30 375 C 36.7024 -0.400377 -2.02989 0
M  V30 376 C 37.1174 0.988859 -1.60832 0
M  V30 377 O 36.4744 1.63729 -0.806175 0
M  V30 378 C 36.5254 -0.474867 -3.58368 0
M  V30 379 O 36.2464 -1.80933 -3.98992 0
M  V30 380 C 37.7474 -0.0609112 -4.43258 0
M  V30 381 H 34.9674 -0.162587 -0.651004 0
M  V30 382 H 37.5114 -1.09102 -1.72965 0
M  V30 383 H 35.6664 0.167534 -3.87038 0
M  V30 384 H 36.0804 -1.77256 -4.9364 0
M  V30 385 H 37.5544 -0.164145 -5.51756 0
M  V30 386 H 38.0314 0.993831 -4.27808 0
M  V30 387 H 38.6374 -0.676492 -4.19885 0
M  V30 388 N 36.9525 1.47285 -0.560781 0
M  V30 389 C 37.9155 2.28535 0.174488 0
M  V30 390 C 38.9155 1.37153 0.839388 0
M  V30 391 O 40.1055 1.59748 0.694702 0
M  V30 392 C 37.2375 3.16934 1.25561 0
M  V30 393 H 38.4305 2.95012 -0.539262 0
M  V30 394 H 35.9835 1.53034 -0.317865 0
M  V30 395 H 36.7185 2.55157 2.00164 0
M  V30 396 H 36.5035 3.8419 0.783604 0
M  V30 397 H 37.9935 3.78143 1.77193 0
M  V30 398 N 38.4306 0.297415 1.54768 0
M  V30 399 C 39.3806 -0.595275 2.20092 0
M  V30 400 C 40.3646 -1.10163 1.17273 0
M  V30 401 O 41.5566 -1.043 1.43006 0
M  V30 402 C 38.6856 -1.7684 2.94249 0
M  V30 403 C 37.7716 -1.27818 4.0438 0
M  V30 404 N 38.1626 -0.505695 5.03266 0
M  V30 405 C 36.4606 -1.55923 4.17857 0
M  V30 406 C 37.1616 -0.245094 5.81183 0
M  V30 407 N 36.1376 -0.823881 5.3732 0
M  V30 408 H 39.9396 0.00250837 2.939 0
M  V30 409 H 37.4536 0.102007 1.62079 0
M  V30 410 H 39.4506 -2.41944 3.39513 0
M  V30 411 H 38.1106 -2.36992 2.21957 0
M  V30 412 H 39.1216 -0.150928 5.1768 0
M  V30 413 H 35.7986 -2.16849 3.56767 0
M  V30 414 H 37.1886 0.375084 6.70852 0
M  V30 415 N 39.9087 -1.5758 0.0250728 0
M  V30 416 C 41.1557 -1.91633 -0.654444 0
M  V30 417 C 41.4837 -0.901103 -1.72367 0
M  V30 418 O 40.7387 0.0905647 -1.9549 0
M  V30 419 C 41.0377 -3.32421 -1.31268 0
M  V30 420 C 40.7037 -4.49344 -0.374223 0
M  V30 421 C 39.3657 -4.8106 -0.115911 0
M  V30 422 C 41.7177 -5.20498 0.270432 0
M  V30 423 C 39.0457 -5.8129 0.79493 0
M  V30 424 C 41.3977 -6.21699 1.1693 0
M  V30 425 C 40.0617 -6.51859 1.43655 0
M  V30 426 H 39.3317 -0.701236 -0.239478 0
M  V30 427 H 41.9787 -1.91307 0.0859734 0
M  V30 428 H 40.2837 -3.28989 -2.12775 0
M  V30 429 H 41.9807 -3.56038 -1.84494 0
M  V30 430 H 38.5707 -4.24579 -0.58573 0
M  V30 431 H 42.7547 -4.96229 0.0839194 0
M  V30 432 H 38.0107 -6.03005 1.00973 0
M  V30 433 H 42.1847 -6.75955 1.67504 0
M  V30 434 H 39.8117 -7.2934 2.144 0
M  V30 435 N 41.3868 0.248026 -1.55636 0
M  V30 436 C 42.6168 0.992367 -1.81206 0
M  V30 437 C 43.0248 1.7949 -0.598324 0
M  V30 438 O 42.3678 1.78292 0.442434 0
M  V30 439 C 42.4298 1.97926 -3.00109 0
M  V30 440 C 42.0938 1.36377 -4.36177 0
M  V30 441 C 43.0908 0.76682 -5.14214 0
M  V30 442 C 40.7758 1.38347 -4.82872 0
M  V30 443 C 42.7698 0.197778 -6.37093 0
M  V30 444 C 40.4568 0.810574 -6.057 0
M  V30 445 C 41.4548 0.218754 -6.8265 0
M  V30 446 O 41.1428 -0.345298 -8.03158 0
M  V30 447 H 40.8748 0.297704 -0.606917 0
M  V30 448 H 43.4288 0.276517 -2.0353 0
M  V30 449 H 41.6588 2.73339 -2.73538 0
M  V30 450 H 43.3478 2.58694 -3.12781 0
M  V30 451 H 44.1138 0.744114 -4.79258 0
M  V30 452 H 39.9928 1.8335 -4.2297 0
M  V30 453 H 43.5368 -0.264788 -6.97097 0
M  V30 454 H 39.4338 0.830604 -6.40134 0
M  V30 455 H 40.2018 -0.237055 -8.18157 0
M  V30 456 N 42.8649 1.48995 0.513639 0
M  V30 457 C 44.1419 1.48338 1.27495 0
M  V30 458 C 44.5219 0.204065 2.10111 0
M  V30 459 O 43.8699 -0.813881 2.13514 0
M  V30 460 C 44.0799 2.75498 2.14247 0
M  V30 461 C 45.4279 3.24484 2.73852 0
M  V30 462 O 46.4519 2.76528 2.24523 0
M  V30 463 O 45.3109 4.07974 3.6362 0
M  V30 464 H 42.4049 0.593149 0.576284 0
M  V30 465 H 44.9509 1.61246 0.528948 0
M  V30 466 H 43.7229 3.60109 1.53092 0
M  V30 467 H 43.3459 2.6539 2.96064 0
M  V30 468 N 44.343 -0.763751 1.37857 0
M  V30 469 C 45.759 -1.06542 1.18832 0
M  V30 470 C 45.959 -2.01478 0.0299722 0
M  V30 471 O 45.015 -2.4458 -0.627447 0
M  V30 472 C 46.328 -1.65525 2.51042 0
M  V30 473 C 47.876 -1.77745 2.57635 0
M  V30 474 C 48.351 -2.4014 3.89996 0
M  V30 475 N 49.842 -2.47582 3.91481 0
M  V30 476 C 50.577 -2.96732 4.9065 0
M  V30 477 N 50.073 -3.45993 6.00217 0
M  V30 478 N 51.866 -2.95679 4.78048 0
M  V30 479 H 44.017 -0.133556 2.1198 0
M  V30 480 H 46.28 -0.121879 0.940133 0
M  V30 481 H 45.986 -1.03236 3.36207 0
M  V30 482 H 45.86 -2.64719 2.68707 0
M  V30 483 H 48.247 -2.39164 1.72872 0
M  V30 484 H 48.328 -0.772836 2.43846 0
M  V30 485 H 47.972 -1.79358 4.75177 0
M  V30 486 H 47.902 -3.41223 4.01092 0
M  V30 487 H 50.393 -2.1273 3.12337 0
M  V30 488 H 50.706 -3.81922 6.7183 0
M  V30 489 H 49.051 -3.44077 6.03851 0
M  V30 490 H 52.242 -2.56499 3.91568 0
M  V30 491 H 52.415 -3.33672 5.55488 0
M  V30 492 N 45.8211 -1.22559 -0.990812 0
M  V30 493 C 46.7541 -0.940773 -2.07905 0
M  V30 494 C 47.7321 0.117082 -1.62178 0
M  V30 495 O 48.9161 -0.0149506 -1.88494 0
M  V30 496 C 46.0431 -0.415321 -3.36144 0
M  V30 497 C 45.0891 -1.45818 -4.00799 0
M  V30 498 S 45.9221 -3.03219 -4.41382 0
M  V30 499 C 47.0781 -2.52317 -5.72789 0
M  V30 500 H 47.3111 -1.8623 -2.31745 0
M  V30 501 H 44.8441 -1.05688 -1.12558 0
M  V30 502 H 46.8021 -0.118747 -4.10328 0
M  V30 503 H 45.4631 0.485121 -3.10331 0
M  V30 504 H 44.6561 -1.04044 -4.93144 0
M  V30 505 H 44.2581 -1.70356 -3.32949 0
M  V30 506 H 46.5501 -1.93688 -6.49224 0
M  V30 507 H 47.4931 -3.43161 -6.19392 0
M  V30 508 H 47.9011 -1.93529 -5.30289 0
M  V30 509 N 47.2992 1.18797 -1.03562 0
M  V30 510 C 48.5462 1.8865 -0.736023 0
M  V30 511 C 48.8742 1.80041 0.735889 0
M  V30 512 O 48.1292 1.19179 1.55225 0
M  V30 513 C 48.4282 3.38692 -1.14117 0
M  V30 514 C 48.0942 3.67504 -2.6125 0
M  V30 515 C 46.7562 3.75078 -3.01447 0
M  V30 516 C 49.1082 3.80293 -3.56408 0
M  V30 517 C 46.4362 3.92915 -4.35701 0
M  V30 518 C 48.7882 3.99645 -4.90374 0
M  V30 519 C 47.4522 4.05453 -5.30249 0
M  V30 520 H 46.7222 0.690321 -0.26933 0
M  V30 521 H 49.3692 1.40641 -1.29971 0
M  V30 522 H 47.6742 3.88645 -0.496202 0
M  V30 523 H 49.3712 3.91072 -0.886789 0
M  V30 524 H 45.9612 3.62223 -2.29113 0
M  V30 525 H 50.1452 3.73779 -3.26501 0
M  V30 526 H 45.4012 3.95653 -4.66121 0
M  V30 527 H 49.5752 4.08482 -5.64017 0
M  V30 528 H 47.2022 4.19027 -6.34288 0
M  V30 529 N 48.7773 0.814389 1.34928 0
M  V30 530 C 50.0053 0.411136 2.02774 0
M  V30 531 C 50.4203 -0.980316 1.61354 0
M  V30 532 O 49.7773 -1.63299 0.814847 0
M  V30 533 C 49.8283 0.493865 3.58111 0
M  V30 534 O 49.5493 1.83047 3.98027 0
M  V30 535 C 51.0503 0.0844174 4.4322 0
M  V30 536 H 48.2703 0.166037 0.650133 0
M  V30 537 H 50.8143 1.10018 1.72384 0
M  V30 538 H 48.9693 -0.147006 3.87121 0
M  V30 539 H 49.3833 1.79872 4.92693 0
M  V30 540 H 50.8573 0.193404 5.51661 0
M  V30 541 H 51.3343 -0.97113 4.28329 0
M  V30 542 H 51.9403 0.69875 4.19521 0
M  V30 543 N 50.2554 -1.46986 0.568584 0
M  V30 544 C 51.2054 -2.27179 -0.193339 0
M  V30 545 C 52.1894 -1.35035 -0.874895 0
M  V30 546 O 53.3814 -1.5931 -0.771322 0
M  V30 547 C 50.5104 -3.21063 -1.21546 0
M  V30 548 C 49.5964 -4.2069 -0.536738 0
M  V30 549 N 49.9874 -5.04218 0.399673 0
M  V30 550 C 48.2854 -4.38961 -0.789254 0
M  V30 551 C 48.9864 -5.76242 0.795017 0
M  V30 552 N 47.9624 -5.434 0.1473 0
M  V30 553 H 51.7644 -2.89146 0.526458 0
M  V30 554 H 49.2784 -1.57664 0.389342 0
M  V30 555 H 51.2754 -3.77209 -1.77536 0
M  V30 556 H 49.9354 -2.60654 -1.93623 0
M  V30 557 H 50.9464 -5.12077 0.774454 0
M  V30 558 H 47.6234 -3.89713 -1.49767 0
M  V30 559 H 49.0134 -6.53417 1.56513 0
M  V30 560 N 51.7335 -0.305618 -1.54608 0
M  V30 561 C 52.6815 0.584119 -2.25146 0
M  V30 562 C 53.6755 1.13326 -1.25911 0
M  V30 563 O 54.8815 1.08337 -1.43747 0
M  V30 564 H 51.2565 0.206983 -0.722954 0
M  V30 565 H 53.2275 -0.033291 -2.98381 0
M  V30 566 C 51.9765 1.74225 -3.009 0
M  V30 567 H 51.2995 1.32892 -3.77067 0
M  V30 568 H 52.7395 2.34077 -3.53531 0
M  V30 569 C 51.1985 2.64914 -2.0814 0
M  V30 570 O 51.7285 3.66137 -1.65246 0
M  V30 571 N 49.9345 2.3275 -1.74 0
M  V30 572 H 49.4815 1.50479 -2.09078 0
M  V30 573 H 49.4395 2.93694 -1.12211 0
M  V30 574 N 53.2116 1.57565 -0.0334293 0
M  V30 575 C 54.6226 1.79746 0.504798 0
M  V30 576 C 54.9736 0.944091 1.71992 0
M  V30 577 O 54.0986 0.155694 2.15839 0
M  V30 578 C 54.6936 3.25997 0.922567 0
M  V30 579 C 53.2526 3.49159 1.40588 0
M  V30 580 C 52.3996 2.74785 0.372633 0
M  V30 581 H 55.3506 1.56565 -0.259436 0
M  V30 582 H 55.3716 3.35945 1.78666 0
M  V30 583 H 54.8836 3.88081 0.0379825 0
M  V30 584 H 52.9846 2.92332 2.31025 0
M  V30 585 H 53.0976 4.57873 1.41028 0
M  V30 586 H 51.4616 2.40391 0.841672 0
M  V30 587 H 52.2446 3.39587 -0.503559 0
M  V30 588 N 54.6897 -0.239769 1.55765 0
M  V30 589 C 55.5997 -1.31831 1.94056 0
M  V30 590 C 56.6157 -1.52275 0.841925 0
M  V30 591 O 57.7917 -1.65759 1.14394 0
M  V30 592 C 54.8567 -2.65156 2.23368 0
M  V30 593 C 53.9177 -2.53173 3.46701 0
M  V30 594 C 53.1507 -3.8014 3.74606 0
M  V30 595 O 53.3737 -4.82343 3.04469 0
M  V30 596 O 52.3077 -3.78344 4.68123 0
M  V30 597 H 56.1337 -1.02347 2.85935 0
M  V30 598 H 53.7187 -0.441123 1.42739 0
M  V30 599 H 55.6007 -3.43929 2.43497 0
M  V30 600 H 54.2757 -2.94358 1.34666 0
M  V30 601 H 53.1827 -1.72662 3.31871 0
M  V30 602 H 54.5157 -2.28915 4.35728 0
M  V30 603 N 56.1678 -1.49265 -0.50573 0
M  V30 604 C 57.0978 -1.68495 -1.61653 0
M  V30 605 C 58.0788 -0.53366 -1.61512 0
M  V30 606 O 59.2638 -0.76897 -1.78327 0
M  V30 607 C 56.3938 -1.74709 -3.00157 0
M  V30 608 C 55.3478 -2.89581 -3.15162 0
M  V30 609 C 54.6738 -2.80903 -4.5497 0
M  V30 610 C 55.9738 -4.30578 -2.95634 0
M  V30 611 H 57.6678 -2.61493 -1.45814 0
M  V30 612 H 55.2138 -1.25838 -0.70005 0
M  V30 613 H 57.1668 -1.86748 -3.77761 0
M  V30 614 H 55.8908 -0.783067 -3.17074 0
M  V30 615 H 54.5498 -2.77136 -2.39982 0
M  V30 616 H 54.1978 -1.82419 -4.68756 0
M  V30 617 H 53.8978 -3.57999 -4.65951 0
M  V30 618 H 55.4218 -2.94944 -5.34641 0
M  V30 619 H 56.8358 -4.4373 -3.63011 0
M  V30 620 H 55.2328 -5.0886 -3.18091 0
M  V30 621 H 56.3028 -4.45352 -1.91806 0
M  V30 622 N 57.6459 0.756429 -1.3826 0
M  V30 623 C 58.5929 1.87011 -1.35261 0
M  V30 624 C 59.5629 1.64695 -0.215616 0
M  V30 625 O 60.7479 1.864 -0.407399 0
M  V30 626 C 57.8879 3.24275 -1.18068 0
M  V30 627 C 57.0009 3.58442 -2.41129 0
M  V30 628 C 56.1359 4.84994 -2.16689 0
M  V30 629 C 55.1749 5.11939 -3.35537 0
M  V30 630 N 54.3119 6.29685 -3.10549 0
M  V30 631 H 59.1519 1.8891 -2.30472 0
M  V30 632 H 56.6889 0.923373 -1.14509 0
M  V30 633 H 58.6469 4.03479 -1.06116 0
M  V30 634 H 57.2769 3.21711 -0.264973 0
M  V30 635 H 56.3289 2.74103 -2.63764 0
M  V30 636 H 57.6409 3.74283 -3.29717 0
M  V30 637 H 56.7949 5.72135 -2.01857 0
M  V30 638 H 55.5339 4.71286 -1.25462 0
M  V30 639 H 54.5389 4.23268 -3.50891 0
M  V30 640 H 55.7639 5.27546 -4.27635 0
M  V30 641 H 53.7099 6.17306 -2.21967 0
M  V30 642 H 53.6269 6.46014 -3.92686 0
M  V30 643 H 54.8949 7.19722 -2.99367 0
M  V30 644 N 59.124 1.23083 0.984299 0
M  V30 645 C 60.034 1.02515 2.11016 0
M  V30 646 C 61.05 -0.0291702 1.73976 0
M  V30 647 O 62.226 0.165434 2.00719 0
M  V30 648 C 59.291 0.614673 3.41208 0
M  V30 649 C 58.352 1.74359 3.92297 0
M  V30 650 C 57.585 1.35261 5.16275 0
M  V30 651 O 57.808 0.235136 5.69915 0
M  V30 652 O 56.742 2.17227 5.61334 0
M  V30 653 H 60.568 1.96862 2.31255 0
M  V30 654 H 58.153 1.01753 1.09392 0
M  V30 655 H 60.035 0.396518 4.1953 0
M  V30 656 H 58.71 -0.299851 3.22308 0
M  V30 657 H 57.617 2.01635 3.1511 0
M  V30 658 H 58.95 2.63629 4.15645 0
M  V30 659 N 60.6021 -1.18246 1.0419 0
M  V30 660 C 61.8511 -1.87588 0.741194 0
M  V30 661 C 62.1641 -1.81303 -0.734066 0
M  V30 662 O 63.3701 -2.46019 -1.14834 0
M  V30 663 C 61.8261 -3.36538 1.27555 0
M  V30 664 C 61.4341 -3.51349 2.77953 0
M  V30 665 C 63.1781 -4.11273 1.05143 0
M  V30 666 C 61.0851 -4.94265 3.2474 0
M  V30 667 H 60.0151 -0.702622 0.273565 0
M  V30 668 H 62.6661 -1.33601 1.25789 0
M  V30 669 H 61.0481 -3.9 0.686703 0
M  V30 670 H 62.2221 -3.08153 3.42605 0
M  V30 671 H 60.5371 -2.90022 2.98791 0
M  V30 672 H 63.1341 -5.16689 1.37611 0
M  V30 673 H 63.4771 -4.16298 -0.0112774 0
M  V30 674 H 64.0101 -3.63987 1.60495 0
M  V30 675 H 60.7491 -4.94408 4.30396 0
M  V30 676 H 60.2691 -5.38172 2.64823 0
M  V30 677 H 61.9481 -5.62987 3.18834 0
M  V30 678 N 62.0802 -0.821533 -1.34494 0
M  V30 679 C 63.3272 -0.408946 -1.98328 0
M  V30 680 C 63.6552 1.02764 -1.65136 0
M  V30 681 O 62.9102 1.73026 -0.914349 0
M  V30 682 C 63.2092 -0.556512 -3.53041 0
M  V30 683 C 62.8752 -1.95861 -4.0614 0
M  V30 684 C 61.5372 -2.34217 -4.20352 0
M  V30 685 C 63.8892 -2.87523 -4.34718 0
M  V30 686 C 61.2172 -3.63572 -4.6047 0
M  V30 687 C 63.5692 -4.1634 -4.76281 0
M  V30 688 C 62.2332 -4.54675 -4.88699 0
M  V30 689 H 61.5032 -0.149644 -0.725732 0
M  V30 690 H 64.1502 -1.04521 -1.6046 0
M  V30 691 H 62.4552 0.163148 -3.9146 0
M  V30 692 H 64.1522 -0.217826 -4.00408 0
M  V30 693 H 60.7422 -1.65066 -3.95539 0
M  V30 694 H 64.9262 -2.59133 -4.23277 0
M  V30 695 H 60.1822 -3.93101 -4.68275 0
M  V30 696 H 64.3562 -4.87455 -4.97354 0
M  V30 697 H 61.9832 -5.54959 -5.19542 0
M  V30 698 N 63.5583 1.46682 -0.576371 0
M  V30 699 C 64.5063 2.31953 0.17335 0
M  V30 700 C 65.5003 1.44098 0.89062 0
M  V30 701 O 66.7063 1.60759 0.809728 0
M  V30 702 H 63.0813 0.748273 0.0747727 0
M  V30 703 H 65.0523 2.93007 -0.564738 0
M  V30 704 C 63.8013 3.27142 1.17786 0
M  V30 705 H 63.1243 3.94719 0.635361 0
M  V30 706 H 64.5643 3.896 1.67296 0
M  V30 707 C 63.0233 2.52036 2.23561 0
M  V30 708 O 63.5533 2.27877 3.3081 0
M  V30 709 N 61.7593 2.12709 1.97998 0
M  V30 710 H 61.3063 2.32557 1.10792 0
M  V30 711 H 61.2643 1.62776 2.68982 0
M  V30 712 N 65.0364 0.313813 1.54444 0
M  V30 713 C 65.9694 -0.598866 2.20202 0
M  V30 714 C 66.9474 -1.12318 1.17573 0
M  V30 715 O 68.1314 -1.18899 1.46271 0
M  V30 716 C 65.2584 -1.82071 2.85601 0
M  V30 717 C 64.3044 -1.42851 4.01865 0
M  V30 718 S 65.1374 -0.473512 5.33402 0
M  V30 719 C 66.2934 -1.70286 6.0229 0
M  V30 720 H 66.5264 -0.0402532 2.97273 0
M  V30 721 H 64.0594 0.0979165 1.54089 0
M  V30 722 H 66.0174 -2.52184 3.23904 0
M  V30 723 H 64.6784 -2.3505 2.08351 0
M  V30 724 H 63.8714 -2.33871 4.46453 0
M  V30 725 H 63.4734 -0.807198 3.65185 0
M  V30 726 H 65.7654 -2.64168 6.23876 0
M  V30 727 H 66.7084 -1.29932 6.96077 0
M  V30 728 H 67.1164 -1.88541 5.32083 0
M  V30 729 N 66.5145 -1.57545 0.0417849 0
M  V30 730 C 67.7395 -1.97035 -0.647455 0
M  V30 731 C 68.1645 -0.918775 -1.64135 0
M  V30 732 O 67.5225 0.119006 -1.80909 0
M  V30 733 C 67.5705 -3.35609 -1.31905 0
M  V30 734 O 66.6745 -3.3287 -2.43457 0
M  V30 735 H 66.0155 -0.64211 -0.169086 0
M  V30 736 H 68.5455 -2.04318 0.107399 0
M  V30 737 H 68.5555 -3.72126 -1.67291 0
M  V30 738 H 67.2305 -4.11685 -0.590586 0
M  V30 739 H 65.8075 -3.08087 -2.10088 0
M  V30 740 N 67.9926 0.231505 -1.5589 0
M  V30 741 C 68.9406 1.30649 -1.92441 0
M  V30 742 C 69.9346 1.49037 -0.805254 0
M  V30 743 O 71.1406 1.50329 -0.990007 0
M  V30 744 H 67.5156 0.437812 -0.611412 0
M  V30 745 H 69.4866 0.970973 -2.82161 0
M  V30 746 C 68.2356 2.65179 -2.24889 0
M  V30 747 H 67.5586 2.51835 -3.10514 0
M  V30 748 H 68.9986 3.39234 -2.54355 0
M  V30 749 C 67.4576 3.19439 -1.07054 0
M  V30 750 O 67.9876 4.00371 -0.326499 0
M  V30 751 N 66.1936 2.77675 -0.85703 0
M  V30 752 H 65.7406 2.11969 -1.46379 0
M  V30 753 H 65.6986 3.14321 -0.0703223 0
M  V30 754 N 69.4707 1.49531 0.497807 0
M  V30 755 C 70.4027 1.62559 1.61578 0
M  V30 756 C 71.4157 0.508134 1.54667 0
M  V30 757 O 72.6047 0.780309 1.60541 0
M  V30 758 C 69.7047 1.56925 3.00379 0
M  V30 759 C 68.8777 2.84257 3.3244 0
M  V30 760 C 67.9367 2.71632 4.50669 0
M  V30 761 O 66.9627 3.4557 4.52294 0
M  V30 762 N 68.1647 1.83391 5.5077 0
M  V30 763 H 70.9297 2.58981 1.50828 0
M  V30 764 H 68.4907 1.4666 0.685743 0
M  V30 765 H 70.4827 1.46129 3.77397 0
M  V30 766 H 69.0527 0.683483 3.05037 0
M  V30 767 H 68.2727 3.09381 2.44289 0
M  V30 768 H 69.5607 3.68666 3.5066 0
M  V30 769 H 68.9587 1.22583 5.52259 0
M  V30 770 H 67.5157 1.78515 6.26878 0
M  V30 771 N 70.9488 -0.749086 1.3866 0
M  V30 772 C 72.3648 -1.05276 1.19955 0
M  V30 773 C 72.5648 -2.01435 0.05134 0
M  V30 774 O 71.6208 -2.45232 -0.60147 0
M  V30 775 C 72.9338 -1.62853 2.52783 0
M  V30 776 C 74.4818 -1.75002 2.59506 0
M  V30 777 C 74.9568 -2.35991 3.92521 0
M  V30 778 N 76.4478 -2.43416 3.94085 0
M  V30 779 C 77.1828 -2.91511 4.9377 0
M  V30 780 N 76.6788 -3.39608 6.03853 0
M  V30 781 N 78.4718 -2.90592 4.81157 0
M  V30 782 H 70.6228 -0.111066 2.12109 0
M  V30 783 H 72.8858 -0.111901 0.941373 0
M  V30 784 H 72.5918 -0.99664 3.37283 0
M  V30 785 H 72.4658 -2.61854 2.715 0
M  V30 786 H 74.8528 -2.37317 1.75398 0
M  V30 787 H 74.9338 -0.74693 2.44652 0
M  V30 788 H 74.5778 -1.74308 4.77053 0
M  V30 789 H 74.5078 -3.3695 4.04688 0
M  V30 790 H 76.9988 -2.09405 3.14576 0
M  V30 791 H 77.3118 -3.74775 6.75843 0
M  V30 792 H 75.6568 -3.37653 6.07466 0
M  V30 793 H 78.8478 -2.52332 3.94267 0
M  V30 794 H 79.0208 -3.27762 5.58996 0
M  V30 795 N 72.4269 -1.23603 -0.977757 0
M  V30 796 C 73.3749 -1.01704 -2.09187 0
M  V30 797 C 74.3689 0.0448214 -1.69341 0
M  V30 798 O 75.5749 -0.108902 -1.7967 0
M  V30 799 H 71.9499 -0.311803 -0.684312 0
M  V30 800 H 73.9209 -1.96207 -2.24823 0
M  V30 801 C 72.6699 -0.627746 -3.41986 0
M  V30 802 H 71.9929 -1.43656 -3.73099 0
M  V30 803 H 73.4329 -0.514053 -4.20872 0
M  V30 804 C 71.8919 0.664238 -3.30287 0
M  V30 805 O 72.4219 1.71268 -3.6336 0
M  V30 806 N 70.6279 0.641156 -2.83439 0
M  V30 807 H 70.1749 -0.212376 -2.56723 0
M  V30 808 H 70.1329 1.50583 -2.75993 0
M  V30 809 N 73.905 1.17692 -1.04816 0
M  V30 810 C 75.153 1.87488 -0.754497 0
M  V30 811 C 75.474 1.81205 0.720407 0
M  V30 812 O 74.744 1.23544 1.52032 0
M  V30 813 H 73.324 0.694101 -0.276102 0
M  V30 814 H 75.986 1.42793 -1.32651 0
M  V30 815 H 75.082 2.93328 -1.06606 0
M  V30 816 N 75.3831 0.828654 1.34056 0
M  V30 817 C 76.6601 0.341809 1.9259 0
M  V30 818 C 77.0401 -1.17158 1.75605 0
M  V30 819 O 76.3881 -1.98132 1.13824 0
M  V30 820 C 76.5981 0.777453 3.4023 0
M  V30 821 C 77.9461 0.779579 4.17382 0
M  V30 822 O 78.9701 0.7204 3.48839 0
M  V30 823 O 77.8291 0.857996 5.39723 0
M  V30 824 H 74.9231 0.0946085 0.821571 0
M  V30 825 H 77.4691 0.913827 1.42994 0
M  V30 826 H 76.2411 1.8196 3.46419 0
M  V30 827 H 75.8641 0.181444 3.97186 0
M  V30 828 N 76.8612 -1.46375 0.584142 0
M  V30 829 C 77.7932 -2.28443 -0.186119 0
M  V30 830 C 78.8062 -1.38596 -0.854115 0
M  V30 831 O 79.9952 -1.63183 -0.723438 0
M  V30 832 C 77.0952 -3.13671 -1.28311 0
M  V30 833 C 76.2682 -4.31652 -0.706758 0
M  V30 834 C 75.3272 -4.98267 -1.69163 0
M  V30 835 O 74.3532 -5.55815 -1.22712 0
M  V30 836 N 75.5552 -4.95408 -3.02575 0
M  V30 837 H 78.3202 -2.9519 0.517986 0
M  V30 838 H 75.8812 -1.56303 0.42201 0
M  V30 839 H 77.8732 -3.55101 -1.94128 0
M  V30 840 H 76.4432 -2.48989 -1.89005 0
M  V30 841 H 75.6632 -3.93989 0.128908 0
M  V30 842 H 76.9512 -5.07906 -0.301506 0
M  V30 843 H 76.3492 -4.49902 -3.42936 0
M  V30 844 H 74.9062 -5.40774 -3.63877 0
M  V30 845 N 78.3393 -0.321999 -1.54275 0
M  V30 846 C 79.7553 0.0306999 -1.5957 0
M  V30 847 C 79.9553 1.50614 -1.33857 0
M  V30 848 O 79.0113 2.2619 -1.12223 0
M  V30 849 C 80.3243 -0.386122 -2.98211 0
M  V30 850 C 81.8723 -0.336647 -3.11184 0
M  V30 851 C 82.3473 -0.728607 -4.52167 0
M  V30 852 N 83.8383 -0.681952 -4.58152 0
M  V30 853 C 84.5733 -0.957449 -5.6535 0
M  V30 854 N 84.0693 -1.3 -6.80494 0
M  V30 855 N 85.8623 -0.883113 -5.55119 0
M  V30 856 H 78.0133 -1.28332 -1.69247 0
M  V30 857 H 80.2763 -0.521716 -0.791528 0
M  V30 858 H 79.9823 -1.41404 -3.22022 0
M  V30 859 H 79.8563 0.249662 -3.76373 0
M  V30 860 H 82.2433 0.682058 -2.8711 0
M  V30 861 H 82.3243 -1.00734 -2.3513 0
M  V30 862 H 81.9683 -1.74522 -4.76974 0
M  V30 863 H 81.8983 -0.0356152 -5.26588 0
M  V30 864 H 84.3893 -0.428985 -3.75457 0
M  V30 865 H 84.7023 -1.49563 -7.58189 0
M  V30 866 H 83.0473 -1.33824 -6.81994 0
M  V30 867 H 86.2383 -0.615001 -4.64042 0
M  V30 868 H 86.4113 -1.10118 -6.38575 0
M  V30 869 N 79.8174 1.5752 -0.0501392 0
M  V30 870 C 80.7274 2.14952 0.939827 0
M  V30 871 C 81.7434 1.10706 1.34239 0
M  V30 872 O 82.9194 1.42869 1.41952 0
M  V30 873 C 79.9844 2.68232 2.19665 0
M  V30 874 C 79.0454 3.87272 1.85253 0
M  V30 875 C 78.2784 4.38002 3.04943 0
M  V30 876 O 78.5014 3.87811 4.18281 0
M  V30 877 O 77.4354 5.29602 2.86017 0
M  V30 878 H 81.2614 2.9986 0.481392 0
M  V30 879 H 78.8464 1.4841 0.171699 0
M  V30 880 H 80.7284 3.02475 2.93406 0
M  V30 881 H 79.4034 1.86395 2.64648 0
M  V30 882 H 78.3104 3.5792 1.0883 0
M  V30 883 H 79.6434 4.70336 1.4507 0
M  V30 884 N 81.2955 -0.223234 1.56011 0
M  V30 885 C 82.2585 -1.26014 1.9145 0
M  V30 886 C 83.2585 -1.3989 0.792937 0
M  V30 887 O 84.4485 -1.38184 1.0607 0
M  V30 888 C 81.5805 -2.63422 2.16383 0
M  V30 889 H 82.7735 -0.95796 2.84189 0
M  V30 890 H 80.3265 -0.463576 1.49267 0
M  V30 891 H 81.0615 -2.98741 1.2619 0
M  V30 892 H 80.8465 -2.54728 2.98088 0
M  V30 893 H 82.3365 -3.38249 2.44903 0
M  V30 894 N 82.7736 -1.49793 -0.48987 0
M  V30 895 C 83.7036 -1.70201 -1.59856 0
M  V30 896 C 84.6846 -0.55076 -1.60937 0
M  V30 897 O 85.8696 -0.787841 -1.77501 0
M  V30 898 C 82.9996 -1.77882 -2.98287 0
M  V30 899 C 81.9536 -2.92907 -3.12073 0
M  V30 900 C 81.2796 -2.85712 -4.51965 0
M  V30 901 C 82.5796 -4.3369 -2.91051 0
M  V30 902 H 84.2736 -2.63025 -1.43032 0
M  V30 903 H 81.8196 -1.26574 -0.686664 0
M  V30 904 H 83.7726 -1.90744 -3.75759 0
M  V30 905 H 82.4966 -0.816653 -3.16225 0
M  V30 906 H 81.1556 -2.79665 -2.37029 0
M  V30 907 H 80.8036 -1.8738 -4.66795 0
M  V30 908 H 80.5036 -3.62921 -4.62128 0
M  V30 909 H 82.0276 -3.00598 -5.31482 0
M  V30 910 H 83.4416 -4.47555 -3.58284 0
M  V30 911 H 81.8386 -5.12205 -3.12675 0
M  V30 912 H 82.9086 -4.47362 -1.87071 0
M  V30 913 N 84.2517 0.741722 -1.39055 0
M  V30 914 C 85.4987 1.50114 -1.35912 0
M  V30 915 C 85.8267 1.94443 0.0470937 0
M  V30 916 O 85.0817 1.66612 1.02659 0
M  V30 917 C 85.3807 2.7592 -2.27163 0
M  V30 918 C 85.0467 2.50493 -3.74919 0
M  V30 919 C 83.7087 2.43267 -4.1518 0
M  V30 920 C 86.0607 2.28585 -4.684 0
M  V30 921 C 83.3887 2.12166 -5.46994 0
M  V30 922 C 85.7407 1.99002 -6.00484 0
M  V30 923 C 84.4047 1.90241 -6.39816 0
M  V30 924 H 83.6747 0.549306 -0.497336 0
M  V30 925 H 86.3217 0.851896 -1.71508 0
M  V30 926 H 84.6267 3.45553 -1.84663 0
M  V30 927 H 86.3237 3.33923 -2.22028 0
M  V30 928 H 82.9137 2.56992 -3.43006 0
M  V30 929 H 87.0977 2.33139 -4.38132 0
M  V30 930 H 82.3537 2.03901 -5.76398 0
M  V30 931 H 86.5277 1.81057 -6.72452 0
M  V30 932 H 84.1547 1.65907 -7.41875 0
M  V30 933 N 85.7298 1.2412 0.971189 0
M  V30 934 C 86.6778 1.02812 2.08644 0
M  V30 935 C 87.6718 -0.0358403 1.69362 0
M  V30 936 O 88.8778 0.118429 1.7961 0
M  V30 937 H 85.2528 0.315428 0.682649 0
M  V30 938 H 87.2238 1.97397 2.23779 0
M  V30 939 C 85.9728 0.645874 3.41649 0
M  V30 940 H 85.2958 1.45632 3.72332 0
M  V30 941 H 86.7358 0.536366 4.20594 0
M  V30 942 C 85.1948 -0.646713 3.30635 0
M  V30 943 O 85.7248 -1.69338 3.64263 0
M  V30 944 N 83.9308 -0.626115 2.83775 0
M  V30 945 H 83.4778 0.225988 2.56607 0
M  V30 946 H 83.4358 -1.49117 2.76788 0
M  V30 947 N 87.2079 -1.17134 1.05439 0
M  V30 948 C 88.1709 -2.19439 0.661764 0
M  V30 949 C 89.1709 -1.58199 -0.288042 0
M  V30 950 O 90.3609 -1.74053 -0.0715803 0
M  V30 951 C 87.4929 -3.40889 -0.0276209 0
M  V30 952 H 88.6859 -2.55688 1.56728 0
M  V30 953 H 86.2389 -1.31259 0.848567 0
M  V30 954 H 86.9739 -3.10187 -0.94629 0
M  V30 955 H 86.7589 -3.86586 0.655238 0
M  V30 956 H 88.2489 -4.16603 -0.288342 0
M  V30 957 N 88.686 -0.835752 -1.33615 0
M  V30 958 C 89.935 -0.426289 -1.97144 0
M  V30 959 C 90.248 1.01912 -1.66953 0
M  V30 960 O 91.454 1.53311 -2.24072 0
M  V30 961 C 89.91 -0.711321 -3.52801 0
M  V30 962 C 89.518 -2.1712 -3.91871 0
M  V30 963 C 91.262 -0.368654 -4.22896 0
M  V30 964 C 89.169 -2.40044 -5.40493 0
M  V30 965 H 88.099 -0.15567 -0.737755 0
M  V30 966 H 90.75 -1.0239 -1.52278 0
M  V30 967 H 89.132 -0.0433766 -3.95976 0
M  V30 968 H 90.306 -2.87936 -3.59763 0
M  V30 969 H 88.621 -2.47654 -3.34749 0
M  V30 970 H 91.218 -0.517601 -5.32189 0
M  V30 971 H 91.561 0.688078 -4.10574 0
M  V30 972 H 92.094 -0.991702 -3.8524 0
M  V30 973 H 88.833 -3.44271 -5.57815 0
M  V30 974 H 88.353 -1.73785 -5.74072 0
M  V30 975 H 90.032 -2.23042 -6.0734 0
M  V30 976 N 90.1641 1.46063 -0.591896 0
M  V30 977 C 91.1271 2.28854 0.125973 0
M  V30 978 C 92.1271 1.38903 0.810107 0
M  V30 979 O 93.3171 1.61186 0.66066 0
M  V30 980 C 90.4491 3.19526 1.1881 0
M  V30 981 H 91.6421 2.93802 -0.601717 0
M  V30 982 H 89.1951 1.52325 -0.350254 0
M  V30 983 H 89.9301 2.59345 1.94707 0
M  V30 984 H 89.7151 3.85766 0.701936 0
M  V30 985 H 91.2051 3.81817 1.69132 0
M  V30 986 N 91.6422 0.330177 1.54103 0
M  V30 987 C 92.6052 -0.520144 2.2322 0
M  V30 988 C 93.6052 -1.03828 1.22786 0
M  V30 989 O 94.7952 -0.929652 1.4732 0
M  V30 990 C 91.9272 -1.72317 2.94142 0
M  V30 991 H 93.1202 0.0841605 2.99782 0
M  V30 992 H 90.6732 0.0813433 1.56088 0
M  V30 993 H 91.4082 -2.36653 2.21734 0
M  V30 994 H 91.1932 -1.35898 3.67796 0
M  V30 995 H 92.6832 -2.3266 3.46784 0
M  V30 996 N 93.1203 -1.57491 0.0584922 0
M  V30 997 C 94.3503 -1.9701 -0.622134 0
M  V30 998 C 94.7583 -0.935034 -1.6448 0
M  V30 999 O 94.1013 0.0882904 -1.83488 0
M  V30 1000 C 94.1633 -3.32794 -1.35972 0
M  V30 1001 C 93.8273 -4.54343 -0.492043 0
M  V30 1002 C 94.8243 -5.19323 0.244901 0
M  V30 1003 C 92.5093 -5.00534 -0.420821 0
M  V30 1004 C 94.5033 -6.28835 1.04143 0
M  V30 1005 C 92.1903 -6.09921 0.379389 0
M  V30 1006 C 93.1883 -6.73933 1.10919 0
M  V30 1007 O 92.8763 -7.81216 1.89623 0
M  V30 1008 H 92.6083 -0.653127 -0.174359 0
M  V30 1009 H 95.1623 -2.05029 0.123418 0
M  V30 1010 H 93.3923 -3.21351 -2.15105 0
M  V30 1011 H 95.0813 -3.5701 -1.93129 0
M  V30 1012 H 95.8473 -4.8459 0.19939 0
M  V30 1013 H 91.7263 -4.50496 -0.978474 0
M  V30 1014 H 95.2703 -6.7873 1.61157 0
M  V30 1015 H 91.1673 -6.44089 0.426512 0
M  V30 1016 H 91.9353 -7.98029 1.81913 0
M  V30 1017 N 94.5984 0.214957 -1.56127 0
M  V30 1018 C 95.5614 1.24997 -1.92116 0
M  V30 1019 C 96.5614 1.39467 -0.800344 0
M  V30 1020 O 97.7514 1.37619 -1.06802 0
M  V30 1021 C 94.8834 2.62271 -2.17777 0
M  V30 1022 H 96.0764 0.942875 -2.84693 0
M  V30 1023 H 93.6294 0.455654 -1.49511 0
M  V30 1024 H 94.3644 2.98068 -1.27773 0
M  V30 1025 H 94.1494 2.53143 -2.99434 0
M  V30 1026 H 95.6394 3.36946 -2.46693 0
M  V30 1027 N 96.0765 1.50051 0.48192 0
M  V30 1028 C 97.3015 1.64508 1.26301 0
M  V30 1029 C 97.7265 0.323851 1.85291 0
M  V30 1030 O 97.0845 -0.710969 1.66778 0
M  V30 1031 C 97.1325 2.7305 2.35533 0
M  V30 1032 O 96.2365 2.3355 3.39895 0
M  V30 1033 H 95.5775 0.549978 0.372048 0
M  V30 1034 H 98.1075 1.9636 0.574786 0
M  V30 1035 H 98.1175 2.95799 2.8101 0
M  V30 1036 H 96.7925 3.68946 1.91967 0
M  V30 1037 H 95.3695 2.21205 3.00204 0
M  V30 1038 N 97.5546 -0.734337 1.39446 0
M  V30 1039 C 98.5026 -1.86971 1.38364 0
M  V30 1040 C 99.4966 -1.67288 0.266687 0
M  V30 1041 O 100.703 -1.74621 0.436755 0
M  V30 1042 H 97.0776 -0.615474 0.432082 0
M  V30 1043 H 99.0486 -1.85 2.34132 0
M  V30 1044 C 97.7976 -3.2466 1.24465 0
M  V30 1045 H 97.1206 -3.40402 2.09682 0
M  V30 1046 H 98.5606 -4.04292 1.27764 0
M  V30 1047 C 97.0196 -3.36867 -0.0468674 0
M  V30 1048 O 97.5496 -3.88618 -1.01681 0
M  V30 1049 N 95.7556 -2.90391 -0.110145 0
M  V30 1050 H 95.3026 -2.48466 0.679868 0
M  V30 1051 H 95.2606 -2.98939 -0.973799 0
M  V30 1052 N 99.0327 -1.24633 -0.964593 0
M  V30 1053 C 100.282 -1.08188 -1.7023 0
M  V30 1054 C 100.595 0.37873 -1.91898 0
M  V30 1055 O 101.801 0.663427 -2.6327 0
M  V30 1056 C 100.257 -1.88773 -3.06419 0
M  V30 1057 C 99.8647 -3.39263 -2.92582 0
M  V30 1058 C 101.609 -1.80867 -3.84041 0
M  V30 1059 C 99.5157 -4.1218 -4.24101 0
M  V30 1060 H 98.4457 -0.401245 -0.638372 0
M  V30 1061 H 101.097 -1.48742 -1.07462 0
M  V30 1062 H 99.4787 -1.41035 -3.70034 0
M  V30 1063 H 100.653 -3.94603 -2.37961 0
M  V30 1064 H 98.9677 -3.48154 -2.28424 0
M  V30 1065 H 101.565 -2.32646 -4.81435 0
M  V30 1066 H 101.908 -0.774543 -4.09031 0
M  V30 1067 H 102.441 -2.26301 -3.27159 0
M  V30 1068 H 99.1797 -5.15965 -4.04303 0
M  V30 1069 H 98.6997 -3.61626 -4.78526 0
M  V30 1070 H 100.379 -4.19349 -4.92702 0
M  V30 1071 N 100.511 1.16574 -1.06058 0
M  V30 1072 C 101.421 2.2452 -0.680282 0
M  V30 1073 C 102.437 1.71348 0.302604 0
M  V30 1074 O 103.613 2.00822 0.152513 0
M  V30 1075 C 100.678 3.46629 -0.0700315 0
M  V30 1076 C 99.7388 4.14849 -1.10448 0
M  V30 1077 C 98.9718 5.31129 -0.523256 0
M  V30 1078 O 99.1948 5.66514 0.664709 0
M  V30 1079 O 98.1288 5.88526 -1.26179 0
M  V30 1080 H 101.955 2.59355 -1.58015 0
M  V30 1081 H 99.5398 1.24043 -0.832694 0
M  V30 1082 H 101.422 4.20543 0.268667 0
M  V30 1083 H 100.097 3.13573 0.803353 0
M  V30 1084 H 99.0038 3.42916 -1.49532 0
M  V30 1085 H 100.337 4.51954 -1.94931 0
M  V30 1086 N 101.989 0.842826 1.3317 0
M  V30 1087 C 102.937 0.267495 2.31057 0
M  V30 1088 C 103.931 -0.602682 1.58316 0
M  V30 1089 O 105.137 -0.491803 1.73151 0
M  V30 1090 H 101.512 0.0677813 0.748939 0
M  V30 1091 H 103.483 1.10754 2.77085 0
M  V30 1092 C 102.232 -0.539331 3.43492 0
M  V30 1093 H 101.555 0.12095 3.99617 0
M  V30 1094 H 102.995 -0.90767 4.14171 0
M  V30 1095 C 101.454 -1.71981 2.89697 0
M  V30 1096 O 101.984 -2.81862 2.86211 0
M  V30 1097 N 100.19 -1.54299 2.46252 0
M  V30 1098 H 99.7369 -0.649143 2.49287 0
M  V30 1099 H 99.6949 -2.33431 2.10612 0
M  V30 1100 N 103.467 -1.45747 0.599634 0
M  V30 1101 C 104.397 -2.33235 -0.111306 0
M  V30 1102 C 105.378 -1.46359 -0.866781 0
M  V30 1103 O 106.563 -1.75146 -0.838904 0
M  V30 1104 C 103.693 -3.28932 -1.11451 0
M  V30 1105 C 102.647 -4.25381 -0.472772 0
M  V30 1106 C 101.973 -5.1071 -1.58365 0
M  V30 1107 C 103.273 -5.18831 0.600948 0
M  V30 1108 H 104.967 -2.92927 0.61919 0
M  V30 1109 H 102.513 -1.40857 0.299215 0
M  V30 1110 H 104.466 -3.89002 -1.62036 0
M  V30 1111 H 103.19 -2.67381 -1.8755 0
M  V30 1112 H 101.849 -3.66598 0.0121472 0
M  V30 1113 H 101.497 -4.45533 -2.33473 0
M  V30 1114 H 101.197 -5.7604 -1.15982 0
M  V30 1115 H 102.721 -5.73647 -2.09194 0
M  V30 1116 H 104.135 -5.73019 0.179491 0
M  V30 1117 H 102.532 -5.92595 0.946076 0
M  V30 1118 H 103.602 -4.6174 1.48068 0
M  V30 1119 N 104.945 -0.338344 -1.53925 0
M  V30 1120 C 106.356 0.146651 -1.86123 0
M  V30 1121 C 106.707 1.5042 -1.2597 0
M  V30 1122 O 105.832 2.08723 -0.571294 0
M  V30 1123 C 106.427 0.272879 -3.37699 0
M  V30 1124 C 104.986 0.702103 -3.69794 0
M  V30 1125 C 104.133 -0.167304 -2.76795 0
M  V30 1126 H 107.084 -0.558123 -1.48562 0
M  V30 1127 H 107.105 1.10128 -3.64214 0
M  V30 1128 H 106.617 -0.715307 -3.81451 0
M  V30 1129 H 104.718 1.6995 -3.31584 0
M  V30 1130 H 104.831 0.495604 -4.7653 0
M  V30 1131 H 103.195 0.359527 -2.5215 0
M  V30 1132 H 103.978 -1.15253 -3.23375 0
M  V30 1133 N 106.423 1.57458 -0.0668435 0
M  V30 1134 C 107.386 2.11323 0.887422 0
M  V30 1135 C 108.386 1.03618 1.22964 0
M  V30 1136 O 109.576 1.29626 1.16373 0
M  V30 1137 C 106.708 2.61048 2.19242 0
M  V30 1138 H 107.901 2.96942 0.420194 0
M  V30 1139 H 105.454 1.55239 0.181793 0
M  V30 1140 H 106.189 1.78868 2.70512 0
M  V30 1141 H 105.974 3.39769 1.95702 0
M  V30 1142 H 107.464 3.02814 2.87565 0
M  V30 1143 N 107.901 -0.206675 1.56239 0
M  V30 1144 C 108.831 -1.25909 1.96645 0
M  V30 1145 C 109.812 -1.48097 0.836734 0
M  V30 1146 O 110.997 -1.6003 1.10019 0
M  V30 1147 C 108.127 -2.6058 2.29599 0
M  V30 1148 C 107.081 -2.53024 3.452 0
M  V30 1149 C 106.407 -3.91861 3.63798 0
M  V30 1150 C 107.707 -2.06524 4.79734 0
M  V30 1151 H 109.401 -0.923369 2.84806 0
M  V30 1152 H 106.947 -0.442735 1.37025 0
M  V30 1153 H 108.9 -3.34375 2.56459 0
M  V30 1154 H 107.624 -2.95869 1.38307 0
M  V30 1155 H 106.283 -1.81684 3.18412 0
M  V30 1156 H 105.931 -4.24483 2.69857 0
M  V30 1157 H 105.631 -3.87683 4.4156 0
M  V30 1158 H 107.155 -4.67296 3.93022 0
M  V30 1159 H 108.569 -2.70072 5.05702 0
M  V30 1160 H 106.966 -2.13374 5.60885 0
M  V30 1161 H 108.036 -1.01802 4.74093 0
M  V30 1162 N 109.379 -1.50304 -0.473955 0
M  V30 1163 C 110.309 -1.71886 -1.58042 0
M  V30 1164 C 111.29 -0.567799 -1.60344 0
M  V30 1165 O 112.475 -0.806623 -1.76656 0
M  V30 1166 C 109.605 -1.81036 -2.96384 0
M  V30 1167 C 108.559 -2.962 -3.08949 0
M  V30 1168 C 107.885 -2.9049 -4.48909 0
M  V30 1169 C 109.185 -4.36752 -2.86434 0
M  V30 1170 H 110.879 -2.64527 -1.40234 0
M  V30 1171 H 108.425 -1.27295 -0.673201 0
M  V30 1172 H 110.378 -1.94719 -3.73714 0
M  V30 1173 H 109.102 -0.850147 -3.15341 0
M  V30 1174 H 107.761 -2.82164 -2.3405 0
M  V30 1175 H 107.409 -1.92321 -4.64781 0
M  V30 1176 H 107.109 -3.67802 -4.58253 0
M  V30 1177 H 108.633 -3.06218 -5.28264 0
M  V30 1178 H 110.047 -4.5133 -3.53517 0
M  V30 1179 H 108.444 -5.15493 -3.07225 0
M  V30 1180 H 109.514 -4.49321 -1.82316 0
M  V30 1181 N 110.857 0.726932 -1.39834 0
M  V30 1182 C 112.268 1.30558 -1.3346 0
M  V30 1183 C 112.619 1.962 -0.00273003 0
M  V30 1184 O 111.744 1.96826 0.899371 0
M  V30 1185 C 112.339 2.37404 -2.41713 0
M  V30 1186 C 110.898 2.90921 -2.38835 0
M  V30 1187 C 110.045 1.64578 -2.2318 0
M  V30 1188 H 112.996 0.523862 -1.49804 0
M  V30 1189 H 113.017 3.17984 -2.08966 0
M  V30 1190 H 112.529 1.89599 -3.38635 0
M  V30 1191 H 110.63 3.42985 -1.45575 0
M  V30 1192 H 110.743 3.43487 -3.33997 0
M  V30 1193 H 109.107 1.89219 -1.70494 0
M  V30 1194 H 109.89 1.18814 -3.22084 0
M  V30 1195 N 112.336 1.25143 0.95797 0
M  V30 1196 C 113.299 1.05321 2.03569 0
M  V30 1197 C 114.299 0.007152 1.60798 0
M  V30 1198 O 115.489 0.24903 1.72411 0
M  V30 1199 C 112.621 0.598394 3.35607 0
M  V30 1200 H 113.814 2.00986 2.22586 0
M  V30 1201 H 111.367 1.07502 1.13459 0
M  V30 1202 H 112.102 -0.361014 3.22284 0
M  V30 1203 H 111.887 1.35351 3.67998 0
M  V30 1204 H 113.377 0.48104 4.1482 0
M  V30 1205 N 113.814 -1.1601 1.06675 0
M  V30 1206 C 115.06 -1.86909 0.786945 0
M  V30 1207 C 115.393 -1.81717 -0.685018 0
M  V30 1208 O 114.668 -1.23551 -1.50218 0
M  V30 1209 C 114.951 -3.36313 1.28707 0
M  V30 1210 C 114.804 -3.50175 2.82308 0
M  V30 1211 C 116.123 -4.3084 0.898071 0
M  V30 1212 H 113.242 -0.678677 0.287343 0
M  V30 1213 H 115.884 -1.36336 1.32334 0
M  V30 1214 H 114.034 -3.79513 0.830768 0
M  V30 1215 H 115.706 -3.15886 3.36175 0
M  V30 1216 H 113.949 -2.91959 3.20847 0
M  V30 1217 H 114.62 -4.55116 3.12368 0
M  V30 1218 H 117.096 -3.95561 1.29114 0
M  V30 1219 H 115.972 -5.33876 1.27543 0
M  V30 1220 H 116.233 -4.41662 -0.196651 0
M  V30 1221 N 115.292 -0.849877 -1.32721 0
M  V30 1222 C 116.202 -0.293791 -2.32753 0
M  V30 1223 C 117.218 0.585906 -1.63839 0
M  V30 1224 O 118.394 0.487413 -1.95413 0
M  V30 1225 C 115.459 0.512752 -3.42887 0
M  V30 1226 C 114.52 -0.39252 -4.27502 0
M  V30 1227 C 113.753 0.375625 -5.32377 0
M  V30 1228 O 113.976 1.60613 -5.4732 0
M  V30 1229 O 112.91 -0.256094 -6.01355 0
M  V30 1230 H 116.736 -1.12242 -2.82197 0
M  V30 1231 H 114.321 -0.612685 -1.36259 0
M  V30 1232 H 116.203 0.970704 -4.10067 0
M  V30 1233 H 114.878 1.31826 -2.95641 0
M  V30 1234 H 113.785 -0.898547 -3.63149 0
M  V30 1235 H 115.118 -1.16309 -4.7826 0
M  V30 1236 N 116.77 1.45427 -0.607355 0
M  V30 1237 C 117.717 2.3053 0.111625 0
M  V30 1238 C 118.687 1.4209 0.860216 0
M  V30 1239 O 119.872 1.71019 0.845998 0
M  V30 1240 C 117.012 3.26992 1.10319 0
M  V30 1241 C 116.125 4.30535 0.355493 0
M  V30 1242 C 115.26 5.14105 1.33676 0
M  V30 1243 C 114.299 6.09376 0.576862 0
M  V30 1244 N 113.436 6.85727 1.5074 0
M  V30 1245 H 118.276 2.91477 -0.620093 0
M  V30 1246 H 115.813 1.43631 -0.317594 0
M  V30 1247 H 117.771 3.81385 1.6912 0
M  V30 1248 H 116.401 2.67799 1.80232 0
M  V30 1249 H 115.453 3.78805 -0.348023 0
M  V30 1250 H 116.765 4.98235 -0.237423 0
M  V30 1251 H 115.919 5.72897 1.99684 0
M  V30 1252 H 114.658 4.46423 1.9636 0
M  V30 1253 H 113.663 5.49715 -0.0968519 0
M  V30 1254 H 114.888 6.79085 -0.0449341 0
M  V30 1255 H 112.834 6.20735 2.12189 0
M  V30 1256 H 112.751 7.49778 0.967913 0
M  V30 1257 H 114.019 7.4906 2.15706 0
M  V30 1258 N 118.248 0.346503 1.53744 0
M  V30 1259 C 119.497 -0.250122 2.00143 0
M  V30 1260 C 119.81 -1.51418 1.23822 0
M  V30 1261 O 121.016 -2.18823 1.60713 0
M  V30 1262 C 119.472 -0.496252 3.56462 0
M  V30 1263 C 119.08 0.752077 4.41642 0
M  V30 1264 C 120.824 -1.05157 4.11269 0
M  V30 1265 C 118.731 0.476583 5.89477 0
M  V30 1266 H 117.661 -0.0972409 0.747703 0
M  V30 1267 H 120.312 0.46229 1.77581 0
M  V30 1268 H 118.694 -1.26944 3.75102 0
M  V30 1269 H 119.868 1.5266 4.34778 0
M  V30 1270 H 118.183 1.22925 3.97842 0
M  V30 1271 H 120.78 -1.27269 5.19333 0
M  V30 1272 H 121.123 -2.00799 3.64672 0
M  V30 1273 H 121.656 -0.339019 3.96353 0
M  V30 1274 H 118.395 1.4028 6.40314 0
M  V30 1275 H 117.915 -0.259794 5.99237 0
M  V30 1276 H 119.594 0.0949315 6.4693 0
M  V30 1277 N 119.726 -1.57421 0.075193 0
M  V30 1278 C 120.689 -2.11791 -0.876203 0
M  V30 1279 C 121.689 -1.04268 -1.22412 0
M  V30 1280 O 122.879 -1.30242 -1.15684 0
M  V30 1281 C 120.011 -2.62207 -2.17854 0
M  V30 1282 H 121.204 -2.9716 -0.40444 0
M  V30 1283 H 118.757 -1.55333 -0.173557 0
M  V30 1284 H 119.492 -1.803 -2.6956 0
M  V30 1285 H 119.277 -3.40802 -1.93897 0
M  V30 1286 H 120.767 -3.04335 -2.85955 0
M  V30 1287 N 121.204 0.198386 -1.56346 0
M  V30 1288 C 122.136 1.26987 -1.90806 0
M  V30 1289 C 123.149 1.41877 -0.798419 0
M  V30 1290 O 124.338 1.42362 -1.07682 0
M  V30 1291 C 121.438 2.64246 -2.12196 0
M  V30 1292 C 120.611 2.71007 -3.43328 0
M  V30 1293 C 119.67 3.89439 -3.5387 0
M  V30 1294 O 118.696 3.76695 -4.26719 0
M  V30 1295 N 119.898 5.04752 -2.86715 0
M  V30 1296 H 122.663 0.977433 -2.83313 0
M  V30 1297 H 120.224 0.388322 -1.57174 0
M  V30 1298 H 122.216 3.41896 -2.1654 0
M  V30 1299 H 120.786 2.85992 -1.26204 0
M  V30 1300 H 120.006 1.79657 -3.50881 0
M  V30 1301 H 121.294 2.72512 -4.29668 0
M  V30 1302 H 120.692 5.18004 -2.2735 0
M  V30 1303 H 119.249 5.8036 -2.96691 0
M  V30 1304 N 122.682 1.50554 0.465978 0
M  V30 1305 C 123.629 1.6979 1.56333 0
M  V30 1306 C 124.599 0.539239 1.57103 0
M  V30 1307 O 125.784 0.770401 1.74555 0
M  V30 1308 C 122.924 1.80273 2.94271 0
M  V30 1309 C 122.037 3.07674 3.0325 0
M  V30 1310 C 121.172 3.08922 4.32135 0
M  V30 1311 C 120.211 4.30755 4.34875 0
M  V30 1312 N 119.348 4.29714 5.55239 0
M  V30 1313 H 124.188 2.63472 1.39235 0
M  V30 1314 H 121.725 1.30602 0.676873 0
M  V30 1315 H 123.683 1.84332 3.74269 0
M  V30 1316 H 122.313 0.900258 3.09992 0
M  V30 1317 H 121.365 3.13062 2.16094 0
M  V30 1318 H 122.677 3.97642 3.01135 0
M  V30 1319 H 121.831 3.11738 5.20485 0
M  V30 1320 H 120.57 2.16792 4.36866 0
M  V30 1321 H 119.575 4.28146 3.44922 0
M  V30 1322 H 120.8 5.24117 4.31831 0
M  V30 1323 H 118.746 3.4044 5.60746 0
M  V30 1324 H 118.663 5.13456 5.54886 0
M  V30 1325 H 119.931 4.36683 6.457 0
M  V30 1326 N 124.16 -0.719506 1.40217 0
M  V30 1327 C 125.11 -1.8251 1.36653 0
M  V30 1328 C 126.094 -1.59028 0.244732 0
M  V30 1329 O 127.286 -1.70268 0.483524 0
M  V30 1330 C 124.415 -3.20599 1.22763 0
M  V30 1331 C 123.501 -3.49858 2.39708 0
M  V30 1332 N 123.892 -3.49957 3.6519 0
M  V30 1333 C 122.19 -3.80297 2.33002 0
M  V30 1334 C 122.891 -3.77449 4.42614 0
M  V30 1335 N 121.867 -3.96002 3.72402 0
M  V30 1336 H 125.669 -1.80914 2.31619 0
M  V30 1337 H 123.183 -0.918455 1.33933 0
M  V30 1338 H 125.18 -3.99766 1.18292 0
M  V30 1339 H 123.84 -3.23424 0.287614 0
M  V30 1340 H 124.851 -3.309 3.98404 0
M  V30 1341 H 121.528 -3.90635 1.47346 0
M  V30 1342 H 122.918 -3.83863 5.51451 0
M  V30 1343 N 125.638 -1.25649 -0.95132 0
M  V30 1344 C 126.866 -1.13343 -1.73092 0
M  V30 1345 C 127.281 0.312434 -1.86197 0
M  V30 1346 O 126.638 1.21465 -1.36207 0
M  V30 1347 C 126.689 -1.78602 -3.14299 0
M  V30 1348 O 126.41 -3.17537 -3.01831 0
M  V30 1349 C 127.911 -1.72119 -4.08522 0
M  V30 1350 H 125.131 -0.395181 -0.542285 0
M  V30 1351 H 127.675 -1.66076 -1.19328 0
M  V30 1352 H 125.83 -1.29832 -3.64996 0
M  V30 1353 H 126.244 -3.49676 -3.90931 0
M  V30 1354 H 127.718 -2.22435 -5.052 0
M  V30 1355 H 128.195 -0.685635 -4.33815 0
M  V30 1356 H 128.801 -2.20393 -3.63741 0
M  V30 1357 N 127.117 1.15442 -1.07289 0
M  V30 1358 C 128.342 1.90638 -0.816828 0
M  V30 1359 C 128.767 1.77445 0.624083 0
M  V30 1360 O 128.125 1.10671 1.43602 0
M  V30 1361 C 128.173 3.39008 -1.22906 0
M  V30 1362 O 127.277 4.10701 -0.373975 0
M  V30 1363 H 126.618 0.593555 -0.297638 0
M  V30 1364 H 129.148 1.46198 -1.43134 0
M  V30 1365 H 129.158 3.89801 -1.20497 0
M  V30 1366 H 127.833 3.47929 -2.27856 0
M  V30 1367 H 126.41 3.70046 -0.460499 0
M  V30 1368 N 128.595 0.856903 1.32268 0
M  V30 1369 C 129.842 0.461386 1.97174 0
M  V30 1370 C 130.17 -0.983491 1.67803 0
M  V30 1371 O 129.425 -1.70541 0.959903 0
M  V30 1372 C 129.724 0.649919 3.51441 0
M  V30 1373 C 129.39 2.0656 4.00804 0
M  V30 1374 C 128.052 2.45279 4.13995 0
M  V30 1375 C 130.404 2.98947 4.26943 0
M  V30 1376 C 127.732 3.75653 4.50668 0
M  V30 1377 C 130.084 4.28822 4.65075 0
M  V30 1378 C 128.748 4.67472 4.76472 0
M  V30 1379 H 128.018 0.168833 0.72151 0
M  V30 1380 H 130.665 1.08739 1.57633 0
M  V30 1381 H 128.97 -0.0593018 3.91755 0
M  V30 1382 H 130.667 0.32391 3.9969 0
M  V30 1383 H 127.257 1.75495 3.91024 0
M  V30 1384 H 131.441 2.70265 4.16258 0
M  V30 1385 H 126.697 4.05379 4.57688 0
M  V30 1386 H 130.871 5.0047 4.84255 0
M  V30 1387 H 128.498 5.68539 5.04646 0
M  V30 1388 N 130.073 -1.45103 0.615059 0
M  V30 1389 C 131.005 -2.28786 -0.13762 0
M  V30 1390 C 132.018 -1.40376 -0.824525 0
M  V30 1391 O 133.207 -1.64681 -0.688662 0
M  V30 1392 C 130.307 -3.16322 -1.21628 0
M  V30 1393 C 129.48 -4.33054 -0.615039 0
M  V30 1394 C 128.539 -5.01743 -1.58556 0
M  V30 1395 O 127.565 -5.58293 -1.10895 0
M  V30 1396 N 128.767 -5.01714 -2.91998 0
M  V30 1397 H 131.532 -2.94025 0.580483 0
M  V30 1398 H 129.093 -1.55373 0.45507 0
M  V30 1399 H 131.085 -3.59139 -1.86552 0
M  V30 1400 H 129.655 -2.52943 -1.83681 0
M  V30 1401 H 128.875 -3.93627 0.21245 0
M  V30 1402 H 130.163 -5.08431 -0.193704 0
M  V30 1403 H 129.561 -4.57075 -3.33316 0
M  V30 1404 H 128.118 -5.48371 -3.52325 0
M  V30 1405 N 131.551 -0.354651 -1.53558 0
M  V30 1406 C 132.8 0.239504 -2.00273 0
M  V30 1407 C 133.113 1.50759 -1.24623 0
M  V30 1408 O 134.319 2.17968 -1.61871 0
M  V30 1409 C 132.775 0.477341 -3.5672 0
M  V30 1410 C 132.383 -0.775488 -4.41237 0
M  V30 1411 C 134.127 1.02975 -4.11821 0
M  V30 1412 C 132.034 -0.507838 -5.89216 0
M  V30 1413 H 130.964 0.0932743 -0.748208 0
M  V30 1414 H 133.615 -0.471701 -1.77334 0
M  V30 1415 H 131.997 1.24953 -3.7577 0
M  V30 1416 H 133.171 -1.54963 -4.33962 0
M  V30 1417 H 131.486 -1.25033 -3.97185 0
M  V30 1418 H 134.083 1.24513 -5.2 0
M  V30 1419 H 134.426 1.98862 -3.65731 0
M  V30 1420 H 134.959 0.317994 -3.96527 0
M  V30 1421 H 131.698 -1.43674 -6.39561 0
M  V30 1422 H 131.218 0.228011 -5.99366 0
M  V30 1423 H 132.897 -0.129238 -6.46871 0
M  V30 1424 N 133.029 1.57378 -0.0835403 0
M  V30 1425 C 133.976 2.13384 0.879539 0
M  V30 1426 C 134.946 1.04936 1.28754 0
M  V30 1427 O 136.131 1.32662 1.37133 0
M  V30 1428 C 133.271 2.70932 2.13752 0
M  V30 1429 C 132.384 3.93575 1.7811 0
M  V30 1430 C 131.519 4.39326 2.98607 0
M  V30 1431 C 130.558 5.54587 2.59037 0
M  V30 1432 N 129.695 5.95243 3.72331 0
M  V30 1433 H 134.535 2.9537 0.395076 0
M  V30 1434 H 132.072 1.45953 0.183349 0
M  V30 1435 H 134.03 3.02411 2.87408 0
M  V30 1436 H 132.66 1.91693 2.59718 0
M  V30 1437 H 131.712 3.68483 0.94469 0
M  V30 1438 H 133.024 4.77258 1.45005 0
M  V30 1439 H 132.178 4.72528 3.80529 0
M  V30 1440 H 130.917 3.5452 3.34913 0
M  V30 1441 H 129.922 5.21024 1.75539 0
M  V30 1442 H 131.147 6.41133 2.23887 0
M  V30 1443 H 129.093 5.13385 4.08378 0
M  V30 1444 H 129.01 6.73694 3.43034 0
M  V30 1445 H 130.278 6.33072 4.54797 0
M  V30 1446 N 134.507 -0.190092 1.56449 0
M  V30 1447 C 135.918 -0.754312 1.70784 0
M  V30 1448 C 136.269 -1.83631 0.690951 0
M  V30 1449 O 135.394 -2.15868 -0.151604 0
M  V30 1450 C 135.989 -1.37503 3.09642 0
M  V30 1451 C 134.548 -1.88628 3.25725 0
M  V30 1452 C 133.695 -0.758098 2.66736 0
M  V30 1453 H 136.646 0.0350524 1.58661 0
M  V30 1454 H 136.667 -2.2445 3.0725 0
M  V30 1455 H 136.179 -0.587302 3.83631 0
M  V30 1456 H 134.28 -2.70103 2.56661 0
M  V30 1457 H 134.393 -2.04462 4.3328 0
M  V30 1458 H 132.757 -1.17369 2.26046 0
M  V30 1459 H 133.54 0.0174705 3.43296 0
M  V30 1460 N 135.985 -1.50799 -0.457987 0
M  V30 1461 C 136.895 -1.73426 -1.57989 0
M  V30 1462 C 137.911 -0.617745 -1.62665 0
M  V30 1463 O 139.087 -0.897614 -1.80291 0
M  V30 1464 C 136.152 -1.83557 -2.94122 0
M  V30 1465 C 135.213 -3.07345 -2.99729 0
M  V30 1466 C 134.446 -3.16983 -4.29368 0
M  V30 1467 O 134.669 -2.33077 -5.20607 0
M  V30 1468 O 133.603 -4.09812 -4.40837 0
M  V30 1469 H 137.429 -2.68555 -1.41817 0
M  V30 1470 H 135.014 -1.35052 -0.638859 0
M  V30 1471 H 136.896 -1.92326 -3.74952 0
M  V30 1472 H 135.571 -0.916137 -3.10465 0
M  V30 1473 H 134.478 -3.04068 -2.1793 0
M  V30 1474 H 135.811 -3.9891 -2.88326 0
M  V30 1475 N 137.463 0.71206 -1.40597 0
M  V30 1476 C 138.395 1.83704 -1.37061 0
M  V30 1477 C 139.408 1.60453 -0.275426 0
M  V30 1478 O 140.597 1.70262 -0.53602 0
M  V30 1479 C 137.697 3.20172 -1.11099 0
M  V30 1480 C 136.87 3.7059 -2.3234 0
M  V30 1481 C 135.929 4.85681 -2.02485 0
M  V30 1482 O 134.955 4.9815 -2.75382 0
M  V30 1483 N 136.157 5.71735 -1.00497 0
M  V30 1484 H 138.922 1.87235 -2.34016 0
M  V30 1485 H 136.483 0.893739 -1.34996 0
M  V30 1486 H 138.475 3.94768 -0.891064 0
M  V30 1487 H 137.045 3.11767 -0.227989 0
M  V30 1488 H 136.265 2.87085 -2.7014 0
M  V30 1489 H 137.553 4.01011 -3.13157 0
M  V30 1490 H 136.951 5.64275 -0.401298 0
M  V30 1491 H 135.508 6.463 -0.844942 0
M  V30 1492 N 138.941 1.26152 0.944643 0
M  V30 1493 C 140.171 1.14094 1.72239 0
M  V30 1494 C 140.579 -0.306931 1.86694 0
M  V30 1495 O 139.922 -1.22222 1.3714 0
M  V30 1496 C 139.984 1.73316 3.14963 0
M  V30 1497 C 139.648 3.2239 3.23904 0
M  V30 1498 C 140.645 4.19252 3.07447 0
M  V30 1499 C 138.33 3.62788 3.47405 0
M  V30 1500 C 140.324 5.54491 3.14353 0
M  V30 1501 C 138.011 4.98162 3.53947 0
M  V30 1502 C 139.009 5.93823 3.37436 0
M  V30 1503 O 138.697 7.26732 3.43679 0
M  V30 1504 H 138.429 0.398292 0.546205 0
M  V30 1505 H 140.983 1.67201 1.19301 0
M  V30 1506 H 139.213 1.14667 3.69308 0
M  V30 1507 H 140.902 1.56214 3.74636 0
M  V30 1508 H 141.668 3.8938 2.8915 0
M  V30 1509 H 137.547 2.88816 3.59313 0
M  V30 1510 H 141.091 6.29137 3.01384 0
M  V30 1511 H 136.988 5.27695 3.71763 0
M  V30 1512 H 137.756 7.3496 3.60245 0
M  V30 1513 N 140.419 -1.14872 1.07899 0
M  V30 1514 C 141.367 -2.21857 0.698727 0
M  V30 1515 C 142.361 -1.66845 -0.293086 0
M  V30 1516 O 143.567 -1.79321 -0.156204 0
M  V30 1517 H 139.942 -0.722691 0.207899 0
M  V30 1518 H 141.913 -2.51205 1.61054 0
M  V30 1519 C 140.662 -3.47498 0.11858 0
M  V30 1520 H 139.985 -3.90154 0.872914 0
M  V30 1521 H 141.425 -4.23858 -0.109759 0
M  V30 1522 C 139.884 -3.16947 -1.1422 0
M  V30 1523 O 140.414 -3.3426 -2.22785 0
M  V30 1524 N 138.62 -2.70946 -1.05055 0
M  V30 1525 H 138.167 -2.57058 -0.167038 0
M  V30 1526 H 138.125 -2.50879 -1.89491 0
M  V30 1527 N 141.898 -0.863906 -1.31812 0
M  V30 1528 C 143.147 -0.46801 -1.96195 0
M  V30 1529 C 143.46 0.983474 -1.69077 0
M  V30 1530 O 144.666 1.48523 -2.27273 0
M  V30 1531 C 143.122 -0.785995 -3.51212 0
M  V30 1532 C 142.73 -2.25383 -3.87178 0
M  V30 1533 C 144.474 -0.458274 -4.22019 0
M  V30 1534 C 142.381 -2.51455 -5.3528 0
M  V30 1535 H 141.311 -0.171283 -0.734287 0
M  V30 1536 H 143.962 -1.05597 -1.50072 0
M  V30 1537 H 142.344 -0.127359 -3.95795 0
M  V30 1538 H 143.518 -2.95502 -3.53575 0
M  V30 1539 H 141.833 -2.54698 -3.2942 0
M  V30 1540 H 144.43 -0.630369 -5.30971 0
M  V30 1541 H 144.773 0.600834 -4.11941 0
M  V30 1542 H 145.306 -1.07319 -3.8305 0
M  V30 1543 H 142.045 -3.56025 -5.50387 0
M  V30 1544 H 141.565 -1.85923 -5.70257 0
M  V30 1545 H 143.244 -2.35874 -6.02472 0
M  V30 1546 N 143.376 1.44774 -0.622745 0
M  V30 1547 C 144.622 2.0242 -0.124083 0
M  V30 1548 C 144.955 1.4881 1.24777 0
M  V30 1549 O 144.23 0.668799 1.8264 0
M  V30 1550 C 144.513 3.59957 -0.101619 0
M  V30 1551 C 144.366 4.23867 -1.50521 0
M  V30 1552 C 145.685 4.36284 0.578272 0
M  V30 1553 H 142.804 0.735528 -0.0465645 0
M  V30 1554 H 145.446 1.72447 -0.797617 0
M  V30 1555 H 143.596 3.85623 0.471934 0
M  V30 1556 H 145.268 4.09336 -2.12701 0
M  V30 1557 H 143.511 3.81684 -2.06154 0
M  V30 1558 H 144.182 5.32843 -1.4416 0
M  V30 1559 H 146.658 4.16001 0.0906057 0
M  V30 1560 H 145.534 5.46004 0.563149 0
M  V30 1561 H 145.795 4.10271 1.64713 0
M  V30 1562 N 144.854 0.36279 1.53368 0
M  V30 1563 C 146.102 -0.227326 2.00817 0
M  V30 1564 C 146.423 -1.49511 1.25186 0
M  V30 1565 O 145.693 -1.92482 0.364348 0
M  V30 1566 H 144.273 -0.0869923 0.741917 0
M  V30 1567 H 146.935 0.488381 1.88682 0
M  V30 1568 H 146.031 -0.456273 3.08747 0
M  V30 1569 N 146.332 -1.57332 0.0918853 0
M  V30 1570 C 147.242 -2.17368 -0.882505 0
M  V30 1571 C 148.258 -1.14226 -1.31257 0
M  V30 1572 O 149.434 -1.46582 -1.38115 0
M  V30 1573 C 146.499 -2.73962 -2.12476 0
M  V30 1574 C 145.56 -3.92048 -1.7492 0
M  V30 1575 C 144.793 -4.45933 -2.93223 0
M  V30 1576 O 145.016 -3.98764 -4.07852 0
M  V30 1577 O 143.95 -5.36999 -2.71875 0
M  V30 1578 H 147.776 -3.01031 -0.40172 0
M  V30 1579 H 145.361 -1.48813 -0.132291 0
M  V30 1580 H 147.243 -3.10147 -2.85283 0
M  V30 1581 H 145.918 -1.93347 -2.59613 0
M  V30 1582 H 144.825 -3.6068 -0.993025 0
M  V30 1583 H 146.158 -4.74017 -1.32548 0
M  V30 1584 N 147.81 0.181792 -1.56548 0
M  V30 1585 C 148.76 1.22961 -1.92002 0
M  V30 1586 C 149.744 1.40331 -0.787146 0
M  V30 1587 O 150.936 1.42478 -1.05019 0
M  V30 1588 C 148.065 2.57144 -2.27446 0
M  V30 1589 C 147.151 2.43512 -3.47222 0
M  V30 1590 N 147.542 1.99577 -4.64761 0
M  V30 1591 C 145.84 2.74368 -3.51622 0
M  V30 1592 C 146.541 1.98156 -5.46909 0
M  V30 1593 N 145.517 2.40164 -4.8767 0
M  V30 1594 H 149.319 0.881462 -2.8037 0
M  V30 1595 H 146.833 0.390141 -1.57644 0
M  V30 1596 H 148.83 3.32847 -2.51035 0
M  V30 1597 H 147.49 2.92771 -1.40411 0
M  V30 1598 H 148.501 1.70078 -4.89177 0
M  V30 1599 H 145.178 3.14102 -2.75038 0
M  V30 1600 H 146.568 1.65975 -6.51077 0
M  V30 1601 N 149.288 1.51039 0.449983 0
M  V30 1602 C 150.218 1.74379 1.55288 0
M  V30 1603 C 151.199 0.593236 1.5942 0
M  V30 1604 O 152.384 0.834625 1.7535 0
M  V30 1605 C 149.514 1.85728 2.93466 0
M  V30 1606 C 148.468 3.01078 3.04197 0
M  V30 1607 C 147.794 2.97595 4.44231 0
M  V30 1608 C 149.094 4.41254 2.7945 0
M  V30 1609 H 150.788 2.66725 1.36008 0
M  V30 1610 H 148.334 1.2835 0.652864 0
M  V30 1611 H 150.287 2.0064 3.70569 0
M  V30 1612 H 149.011 0.900207 3.13949 0
M  V30 1613 H 147.67 2.85851 2.29531 0
M  V30 1614 H 147.318 1.99691 4.61663 0
M  V30 1615 H 147.018 3.75046 4.52343 0
M  V30 1616 H 148.542 3.14583 5.23326 0
M  V30 1617 H 149.956 4.56897 3.46292 0
M  V30 1618 H 148.353 5.20315 2.98985 0
M  V30 1619 H 149.423 4.52164 1.75144 0
M  V30 1620 N 150.766 -0.704594 1.40972 0
M  V30 1621 C 151.696 -1.83124 1.44872 0
M  V30 1622 C 152.677 -1.67281 0.30838 0
M  V30 1623 O 153.862 -1.87149 0.518556 0
M  V30 1624 C 150.992 -3.21181 1.32136 0
M  V30 1625 C 149.946 -3.51714 2.43888 0
M  V30 1626 C 149.272 -4.89032 2.16222 0
M  V30 1627 C 150.572 -3.516 3.86232 0
M  V30 1628 H 152.266 -1.80117 2.39161 0
M  V30 1629 H 149.812 -0.865145 1.15114 0
M  V30 1630 H 151.765 -3.99702 1.33479 0
M  V30 1631 H 150.489 -3.24791 0.343279 0
M  V30 1632 H 149.148 -2.75539 2.41813 0
M  V30 1633 H 148.796 -4.89256 1.16778 0
M  V30 1634 H 148.496 -5.10426 2.911 0
M  V30 1635 H 150.02 -5.69873 2.19265 0
M  V30 1636 H 151.434 -4.2014 3.9007 0
M  V30 1637 H 149.831 -3.84523 4.60719 0
M  V30 1638 H 150.901 -2.50757 4.15029 0
M  V30 1639 N 152.244 -1.26651 -0.937939 0
M  V30 1640 C 153.207 -1.08546 -2.01867 0
M  V30 1641 C 154.207 -0.0327327 -1.60767 0
M  V30 1642 O 155.397 -0.276427 -1.71993 0
M  V30 1643 C 152.529 -0.651711 -3.34613 0
M  V30 1644 H 153.722 -2.04502 -2.1936 0
M  V30 1645 H 151.275 -1.09294 -1.11734 0
M  V30 1646 H 152.01 0.309696 -3.22818 0
M  V30 1647 H 151.795 -1.41189 -3.65798 0
M  V30 1648 H 153.285 -0.546973 -4.14002 0
M  V30 1649 N 153.722 1.14298 -1.08507 0
M  V30 1650 C 154.95 1.89219 -0.836876 0
M  V30 1651 C 155.365 1.78638 0.611054 0
M  V30 1652 O 154.722 1.14643 1.41998 0
M  V30 1653 C 154.773 3.39158 -1.25116 0
M  V30 1654 O 154.494 3.49449 -2.64229 0
M  V30 1655 C 155.995 4.31073 -1.03398 0
M  V30 1656 H 153.215 0.599328 -0.301739 0
M  V30 1657 H 155.759 1.44746 -1.44461 0
M  V30 1658 H 153.914 3.81251 -0.687514 0
M  V30 1659 H 154.328 4.42589 -2.81452 0
M  V30 1660 H 155.802 5.34646 -1.37323 0
M  V30 1661 H 156.279 4.3919 0.0289259 0
M  V30 1662 H 156.885 3.94738 -1.58311 0
M  V30 1663 N 155.201 0.870884 1.31352 0
M  V30 1664 C 156.131 0.343096 2.30966 0
M  V30 1665 C 157.112 -0.566507 1.60389 0
M  V30 1666 O 158.297 -0.483336 1.88089 0
M  V30 1667 C 155.427 -0.455487 3.443 0
M  V30 1668 C 154.381 0.361103 4.26474 0
M  V30 1669 C 153.707 -0.563221 5.31725 0
M  V30 1670 C 155.007 1.59566 4.97329 0
M  V30 1671 H 156.701 1.17548 2.75359 0
M  V30 1672 H 154.247 0.566686 1.32381 0
M  V30 1673 H 156.2 -0.83525 4.13039 0
M  V30 1674 H 154.924 -1.32139 2.98675 0
M  V30 1675 H 153.583 0.722825 3.59403 0
M  V30 1676 H 153.231 -1.42643 4.82351 0
M  V30 1677 H 152.931 -0.0207409 5.87596 0
M  V30 1678 H 154.455 -0.939808 6.03324 0
M  V30 1679 H 155.869 1.28728 5.58661 0
M  V30 1680 H 154.266 2.07728 5.63 0
M  V30 1681 H 155.336 2.34798 4.24262 0
M  V30 1682 N 156.679 -1.44442 0.630414 0
M  V30 1683 C 157.956 -1.9549 0.0655657 0
M  V30 1684 C 158.336 -1.5724 -1.40851 0
M  V30 1685 O 157.684 -0.846116 -2.12257 0
M  V30 1686 C 157.894 -3.47812 0.287691 0
M  V30 1687 C 159.242 -4.24216 0.180513 0
M  V30 1688 O 160.266 -3.55526 0.219019 0
M  V30 1689 O 159.125 -5.46434 0.0848493 0
M  V30 1690 H 156.219 -0.826688 -0.0227177 0
M  V30 1691 H 158.765 -1.54496 0.702068 0
M  V30 1692 H 157.537 -3.687 1.31056 0
M  V30 1693 H 157.16 -3.95751 -0.382984 0
M  V30 1694 N 158.157 -0.370918 -1.53173 0
M  V30 1695 C 159.067 0.480823 -2.2962 0
M  V30 1696 C 160.083 1.08789 -1.35798 0
M  V30 1697 O 161.259 1.09768 -1.68858 0
M  V30 1698 C 158.324 1.60227 -3.07454 0
M  V30 1699 C 157.385 1.0222 -4.16953 0
M  V30 1700 C 156.618 2.0902 -4.91066 0
M  V30 1701 O 156.841 3.30222 -4.65091 0
M  V30 1702 O 155.775 1.71778 -5.76867 0
M  V30 1703 H 159.601 -0.141421 -3.03371 0
M  V30 1704 H 157.186 -0.135146 -1.48787 0
M  V30 1705 H 159.068 2.25417 -3.56041 0
M  V30 1706 H 157.743 2.20982 -2.36535 0
M  V30 1707 H 156.65 0.334064 -3.72605 0
M  V30 1708 H 157.983 0.459131 -4.90054 0
M  V30 1709 N 159.635 1.57281 -0.100228 0
M  V30 1710 C 160.568 2.09976 0.893612 0
M  V30 1711 C 161.546 1.01155 1.27304 0
M  V30 1712 O 162.73 1.28687 1.37739 0
M  V30 1713 C 159.857 2.58098 2.19324 0
M  V30 1714 C 158.903 3.78626 1.96328 0
M  V30 1715 S 159.736 5.21959 1.19662 0
M  V30 1716 C 160.892 5.73435 2.50844 0
M  V30 1717 H 161.125 2.93946 0.44534 0
M  V30 1718 H 158.658 1.53985 0.113167 0
M  V30 1719 H 160.616 2.8648 2.94005 0
M  V30 1720 H 159.277 1.74344 2.61272 0
M  V30 1721 H 158.47 4.10382 2.92579 0
M  V30 1722 H 158.072 3.50763 1.29775 0
M  V30 1723 H 160.364 5.82015 3.46792 0
M  V30 1724 H 161.307 6.7185 2.23659 0
M  V30 1725 H 161.715 5.01395 2.59352 0
M  V30 1726 N 161.113 -0.173488 1.56642 0
M  V30 1727 C 162.36 -0.890465 1.81871 0
M  V30 1728 C 162.688 -1.82339 0.67696 0
M  V30 1729 O 161.943 -1.92795 -0.335926 0
M  V30 1730 C 162.242 -1.72069 3.13252 0
M  V30 1731 C 161.908 -0.936878 4.41059 0
M  V30 1732 C 160.57 -0.720545 4.75775 0
M  V30 1733 C 162.922 -0.386919 5.19762 0
M  V30 1734 C 160.25 0.0568829 5.86672 0
M  V30 1735 C 162.602 0.37741 6.31473 0
M  V30 1736 C 161.266 0.604563 6.64757 0
M  V30 1737 H 160.536 -0.325844 0.665512 0
M  V30 1738 H 163.183 -0.155527 1.90867 0
M  V30 1739 H 161.488 -2.52496 2.99588 0
M  V30 1740 H 163.185 -2.27844 3.29982 0
M  V30 1741 H 159.775 -1.11553 4.13828 0
M  V30 1742 H 163.959 -0.541398 4.93338 0
M  V30 1743 H 159.215 0.242635 6.10918 0
M  V30 1744 H 163.389 0.810825 6.91664 0
M  V30 1745 H 161.016 1.20885 7.50527 0
M  V30 1746 N 162.591 -1.51276 -0.441967 0
M  V30 1747 C 163.816 -1.67799 -1.21895 0
M  V30 1748 C 164.241 -0.372864 -1.84367 0
M  V30 1749 O 163.599 0.666501 -1.68604 0
M  V30 1750 C 163.647 -2.79199 -2.28211 0
M  V30 1751 O 162.751 -2.42479 -3.33583 0
M  V30 1752 H 162.092 -0.559649 -0.357336 0
M  V30 1753 H 164.622 -1.97815 -0.522522 0
M  V30 1754 H 164.632 -3.03146 -2.73069 0
M  V30 1755 H 163.307 -3.73906 -1.82118 0
M  V30 1756 H 161.884 -2.29087 -2.94234 0
M  V30 1757 N 164.069 0.697108 -1.41344 0
M  V30 1758 C 165.48 1.27697 -1.36199 0
M  V30 1759 C 165.831 1.9615 -0.0443463 0
M  V30 1760 O 164.956 1.98689 0.857419 0
M  V30 1761 C 165.551 2.32223 -2.46694 0
M  V30 1762 C 164.11 2.8579 -2.44952 0
M  V30 1763 C 163.257 1.59807 -2.26621 0
M  V30 1764 H 166.208 0.491968 -1.50882 0
M  V30 1765 H 166.229 3.1348 -2.15664 0
M  V30 1766 H 165.741 1.82373 -3.42581 0
M  V30 1767 H 163.842 3.3982 -1.52817 0
M  V30 1768 H 163.955 3.36325 -3.41207 0
M  V30 1769 H 162.319 1.8556 -1.7447 0
M  V30 1770 H 163.102 1.11956 -3.24532 0
M  V30 1771 N 165.547 1.27147 0.931209 0
M  V30 1772 C 166.795 1.13055 1.6752 0
M  V30 1773 C 167.116 -0.324791 1.92276 0
M  V30 1774 O 166.386 -1.22775 1.52654 0
M  V30 1775 H 164.966 0.415391 0.620854 0
M  V30 1776 H 167.628 1.59623 1.11833 0
M  V30 1777 H 166.724 1.65694 2.64485 0
M  V30 1778 N 167.025 -1.13721 1.09112 0
M  V30 1779 C 167.957 -2.1871 0.685467 0
M  V30 1780 C 168.97 -1.60527 -0.271068 0
M  V30 1781 O 170.159 -1.78407 -0.0576148 0
M  V30 1782 C 167.259 -3.38898 -0.0111255 0
M  V30 1783 C 166.432 -4.26597 0.966131 0
M  V30 1784 C 165.491 -5.25324 0.303539 0
M  V30 1785 O 164.517 -5.61213 0.950177 0
M  V30 1786 N 165.719 -5.72779 -0.943651 0
M  V30 1787 H 168.484 -2.54126 1.58871 0
M  V30 1788 H 166.045 -1.29012 0.978143 0
M  V30 1789 H 168.037 -4.02014 -0.465517 0
M  V30 1790 H 166.607 -3.01747 -0.816565 0
M  V30 1791 H 165.827 -3.60306 1.59917 0
M  V30 1792 H 167.115 -4.82048 1.6281 0
M  V30 1793 H 166.513 -5.45762 -1.48862 0
M  V30 1794 H 165.07 -6.37847 -1.34142 0
M  V30 1795 N 168.503 -0.877838 -1.30888 0
M  V30 1796 C 169.413 -0.343096 -2.32078 0
M  V30 1797 C 170.429 0.551022 -1.65045 0
M  V30 1798 O 171.605 0.445854 -1.96403 0
M  V30 1799 C 168.67 0.439905 -3.43898 0
M  V30 1800 C 167.731 -0.483111 -4.26573 0
M  V30 1801 C 166.964 0.262616 -5.33053 0
M  V30 1802 O 167.187 1.48967 -5.50604 0
M  V30 1803 O 166.121 -0.383593 -6.00676 0
M  V30 1804 H 169.947 -1.18203 -2.79753 0
M  V30 1805 H 167.532 -0.64145 -1.34929 0
M  V30 1806 H 169.414 0.883504 -4.12034 0
M  V30 1807 H 168.089 1.25526 -2.98371 0
M  V30 1808 H 166.996 -0.975374 -3.61161 0
M  V30 1809 H 168.329 -1.26427 -4.75686 0
M  V30 1810 N 169.982 1.44106 -0.638065 0
M  V30 1811 C 171.228 2.02277 -0.145546 0
M  V30 1812 C 171.561 1.50125 1.23191 0
M  V30 1813 O 170.836 0.688133 1.8192 0
M  V30 1814 C 171.119 3.59829 -0.139791 0
M  V30 1815 C 170.972 4.22247 -1.55008 0
M  V30 1816 C 172.291 4.36873 0.531966 0
M  V30 1817 H 169.41 0.734992 -0.0543632 0
M  V30 1818 H 172.052 1.71592 -0.815863 0
M  V30 1819 H 170.202 3.86102 0.431007 0
M  V30 1820 H 171.874 4.07057 -2.1703 0
M  V30 1821 H 170.117 3.79476 -2.10191 0
M  V30 1822 H 170.788 5.31284 -1.49804 0
M  V30 1823 H 173.264 4.16074 0.0464781 0
M  V30 1824 H 172.14 5.4657 0.505206 0
M  V30 1825 H 172.401 4.11995 1.60352 0
M  V30 1826 N 171.46 0.379036 1.52974 0
M  V30 1827 C 172.39 -0.452706 2.29069 0
M  V30 1828 C 173.371 -1.07237 1.32039 0
M  V30 1829 O 174.556 -1.08708 1.60923 0
M  V30 1830 C 171.686 -1.5856 3.08992 0
M  V30 1831 C 170.64 -1.0925 4.13822 0
M  V30 1832 C 169.966 -2.31668 4.81907 0
M  V30 1833 C 171.266 -0.167702 5.22031 0
M  V30 1834 H 172.96 0.182181 2.98845 0
M  V30 1835 H 170.506 0.0890592 1.43724 0
M  V30 1836 H 172.459 -2.1742 3.6098 0
M  V30 1837 H 171.183 -2.24792 2.36931 0
M  V30 1838 H 169.842 -0.526494 3.628 0
M  V30 1839 H 169.49 -2.96386 4.06404 0
M  V30 1840 H 169.19 -1.9934 5.52754 0
M  V30 1841 H 170.714 -2.91189 5.36695 0
M  V30 1842 H 172.128 -0.664186 5.6944 0
M  V30 1843 H 170.525 0.0653265 6.00064 0
M  V30 1844 H 171.595 0.786347 4.78482 0
M  V30 1845 N 172.938 -1.57226 0.108567 0
M  V30 1846 C 174.215 -1.86333 -0.594939 0
M  V30 1847 C 174.595 -1.00788 -1.85486 0
M  V30 1848 O 173.943 -0.0839293 -2.28346 0
M  V30 1849 C 174.153 -3.37265 -0.897405 0
M  V30 1850 C 175.501 -4.05629 -1.25501 0
M  V30 1851 O 176.525 -3.42224 -0.987998 0
M  V30 1852 O 175.384 -5.17531 -1.75567 0
M  V30 1853 H 172.478 -0.771018 -0.2991 0
M  V30 1854 H 175.024 -1.69102 0.142283 0
M  V30 1855 H 173.796 -3.913 -0.00413806 0
M  V30 1856 H 173.419 -3.59889 -1.69014 0
M  V30 1857 N 174.416 0.165178 -1.56732 0
M  V30 1858 C 175.379 1.18822 -1.95995 0
M  V30 1859 C 176.379 1.3685 -0.84431 0
M  V30 1860 O 177.569 1.34152 -1.11126 0
M  V30 1861 C 174.701 2.5521 -2.26011 0
M  V30 1862 H 175.894 0.851825 -2.87548 0
M  V30 1863 H 173.447 0.407857 -1.50885 0
M  V30 1864 H 174.182 2.93852 -1.37191 0
M  V30 1865 H 173.967 2.43489 -3.07336 0
M  V30 1866 H 175.457 3.28927 -2.57288 0
M  V30 1867 N 175.894 1.51508 0.433938 0
M  V30 1868 C 177.14 1.65549 1.18173 0
M  V30 1869 C 177.495 0.368751 1.88833 0
M  V30 1870 O 176.788 -0.635616 1.8075 0
M  V30 1871 C 176.982 2.79928 2.22205 0
M  V30 1872 C 176.811 4.19601 1.61756 0
M  V30 1873 C 175.581 4.85489 1.40101 0
M  V30 1874 C 177.779 5.02574 1.09194 0
M  V30 1875 N 175.761 6.09266 0.752859 0
M  V30 1876 C 177.132 6.17381 0.569255 0
M  V30 1877 C 179.187 4.88079 0.984025 0
M  V30 1878 C 177.89 7.19282 -0.0507472 0
M  V30 1879 C 179.916 5.90191 0.377912 0
M  V30 1880 C 179.278 7.04272 -0.134216 0
M  V30 1881 H 175.377 0.659653 0.419979 0
M  V30 1882 H 177.961 1.88746 0.477818 0
M  V30 1883 H 176.132 2.5839 2.89982 0
M  V30 1884 H 177.864 2.83132 2.89168 0
M  V30 1885 H 174.619 4.43417 1.66369 0
M  V30 1886 H 175.043 6.75528 0.446123 0
M  V30 1887 H 179.685 4.00131 1.36583 0
M  V30 1888 H 177.403 8.06876 -0.444676 0
M  V30 1889 H 180.989 5.81045 0.296269 0
M  V30 1890 H 179.869 7.81933 -0.59585 0
M  V30 1891 N 177.372 -0.689602 1.41712 0
M  V30 1892 C 178.62 -1.4468 1.4111 0
M  V30 1893 C 178.941 -1.94986 0.0232196 0
M  V30 1894 O 178.211 -1.72097 -0.935913 0
M  V30 1895 H 176.791 -0.536847 0.519427 0
M  V30 1896 H 179.453 -0.815825 1.77004 0
M  V30 1897 H 178.549 -2.30706 2.10193 0
M  V30 1898 N 178.85 -1.27639 -0.924453 0
M  V30 1899 C 179.797 -1.10644 -2.0255 0
M  V30 1900 C 180.767 -0.00658438 -1.66099 0
M  V30 1901 O 181.952 -0.16952 -1.90045 0
M  V30 1902 C 179.092 -0.76309 -3.36557 0
M  V30 1903 C 178.205 -1.94091 -3.85944 0
M  V30 1904 C 177.34 -1.53914 -5.08413 0
M  V30 1905 C 176.379 -2.68425 -5.50104 0
M  V30 1906 N 175.516 -2.28815 -6.63768 0
M  V30 1907 H 180.356 -2.04858 -2.16419 0
M  V30 1908 H 177.893 -1.01974 -1.06017 0
M  V30 1909 H 179.851 -0.544822 -4.13627 0
M  V30 1910 H 178.481 0.142102 -3.22487 0
M  V30 1911 H 177.533 -2.27162 -3.05125 0
M  V30 1912 H 178.845 -2.7998 -4.12811 0
M  V30 1913 H 177.999 -1.28231 -5.92994 0
M  V30 1914 H 176.738 -0.651391 -4.8333 0
M  V30 1915 H 175.743 -2.94819 -4.64071 0
M  V30 1916 H 176.968 -3.57826 -5.7718 0
M  V30 1917 H 174.914 -1.42495 -6.40337 0
M  V30 1918 H 174.831 -3.08242 -6.90306 0
M  V30 1919 H 176.099 -2.06387 -7.51681 0
M  V30 1920 N 180.328 1.1314 -1.09713 0
M  V30 1921 C 181.291 2.16831 -0.742751 0
M  V30 1922 C 182.291 1.59159 0.229129 0
M  V30 1923 O 183.481 1.74199 0.00693237 0
M  V30 1924 C 180.613 3.40756 -0.0989168 0
M  V30 1925 H 181.806 2.49695 -1.66109 0
M  V30 1926 H 179.359 1.2802 -0.896699 0
M  V30 1927 H 180.094 3.13485 0.830514 0
M  V30 1928 H 179.879 3.83888 -0.798265 0
M  V30 1929 H 181.369 4.17386 0.133524 0
M  V30 1930 N 181.806 0.884767 1.30421 0
M  V30 1931 C 183.036 0.517293 2.00019 0
M  V30 1932 C 183.444 -0.898632 1.66497 0
M  V30 1933 O 182.787 -1.60245 0.898181 0
M  V30 1934 C 182.849 0.612025 3.54252 0
M  V30 1935 C 182.513 1.99222 4.1129 0
M  V30 1936 C 183.51 2.9616 4.273 0
M  V30 1937 C 181.195 2.29755 4.46674 0
M  V30 1938 C 183.189 4.21764 4.77906 0
M  V30 1939 C 180.876 3.55606 4.96979 0
M  V30 1940 C 181.874 4.51425 5.12547 0
M  V30 1941 O 181.562 5.75043 5.61766 0
M  V30 1942 H 181.294 0.198529 0.64619 0
M  V30 1943 H 183.848 1.1919 1.67281 0
M  V30 1944 H 182.078 -0.119561 3.86515 0
M  V30 1945 H 183.767 0.255859 4.05093 0
M  V30 1946 H 184.533 2.73882 4.00267 0
M  V30 1947 H 180.412 1.55942 4.33824 0
M  V30 1948 H 183.956 4.96561 4.89972 0
M  V30 1949 H 179.853 3.7772 5.23448 0
M  V30 1950 H 180.621 5.77422 5.80109 0
M  V30 1951 N 183.284 -1.43765 0.645699 0
M  V30 1952 C 184.532 -2.01499 0.155731 0
M  V30 1953 C 184.853 -1.51151 -1.232 0
M  V30 1954 O 184.123 -0.721044 -1.82148 0
M  V30 1955 H 182.703 -0.745003 0.0545817 0
M  V30 1956 H 185.365 -1.76075 0.835677 0
M  V30 1957 H 184.461 -3.1181 0.134577 0
M  V30 1958 N 184.763 -0.387143 -1.52771 0
M  V30 1959 C 186.009 0.196025 -2.0185 0
M  V30 1960 C 186.342 1.46641 -1.27319 0
M  V30 1961 O 185.617 1.90889 -0.373032 0
M  V30 1962 C 185.9 0.466136 -3.5707 0
M  V30 1963 C 185.753 -0.819385 -4.42274 0
M  V30 1964 C 187.072 1.25768 -4.21747 0
M  V30 1965 H 184.191 0.0697708 -0.73369 0
M  V30 1966 H 186.833 -0.516286 -1.82851 0
M  V30 1967 H 184.983 1.07293 -3.7339 0
M  V30 1968 H 186.655 -1.4563 -4.37709 0
M  V30 1969 H 184.898 -1.43517 -4.09372 0
M  V30 1970 H 185.569 -0.585065 -5.48891 0
M  V30 1971 H 188.045 0.744167 -4.09391 0
M  V30 1972 H 186.921 1.41541 -5.30337 0
M  V30 1973 H 187.182 2.27228 -3.79236 0
M  V30 1974 N 186.241 1.57166 -0.116904 0
M  V30 1975 C 187.171 2.18222 0.830759 0
M  V30 1976 C 188.152 1.12167 1.27877 0
M  V30 1977 O 189.337 1.40394 1.34176 0
M  V30 1978 C 186.467 2.77996 2.08172 0
M  V30 1979 C 185.421 3.89614 1.77157 0
M  V30 1980 C 184.747 4.36187 3.09265 0
M  V30 1981 C 186.047 5.1181 1.04151 0
M  V30 1982 H 187.741 2.97664 0.321992 0
M  V30 1983 H 185.287 1.4318 0.153434 0
M  V30 1984 H 187.24 3.19366 2.74924 0
M  V30 1985 H 185.964 1.9584 2.6137 0
M  V30 1986 H 184.623 3.48816 1.12796 0
M  V30 1987 H 184.271 3.50893 3.60393 0
M  V30 1988 H 183.971 5.11455 2.89288 0
M  V30 1989 H 185.495 4.80207 3.77139 0
M  V30 1990 H 186.909 5.50214 1.61052 0
M  V30 1991 H 185.306 5.92648 0.942762 0
M  V30 1992 H 186.376 4.84892 0.0279022 0
M  V30 1993 N 187.719 -0.156864 1.56817 0
M  V30 1994 C 188.682 -1.17781 1.96622 0
M  V30 1995 C 189.682 -1.36401 0.851555 0
M  V30 1996 O 190.872 -1.33561 1.11836 0
M  V30 1997 C 188.004 -2.54008 2.27361 0
M  V30 1998 H 189.197 -0.836564 2.87996 0
M  V30 1999 H 186.75 -0.39985 1.51099 0
M  V30 2000 H 187.485 -2.9312 1.38748 0
M  V30 2001 H 187.27 -2.41856 3.08623 0
M  V30 2002 H 188.76 -3.27558 2.59029 0
M  V30 2003 N 189.197 -1.51736 -0.425897 0
M  V30 2004 C 190.145 -1.74464 -1.53834 0
M  V30 2005 C 191.139 -0.611241 -1.57988 0
M  V30 2006 O 192.345 -0.792899 -1.61596 0
M  V30 2007 H 188.72 -0.551437 -0.511293 0
M  V30 2008 H 190.691 -2.67694 -1.31843 0
M  V30 2009 C 189.44 -1.8972 -2.91379 0
M  V30 2010 H 188.763 -2.76344 -2.88919 0
M  V30 2011 H 190.203 -2.09629 -3.68553 0
M  V30 2012 C 188.662 -0.65992 -3.30374 0
M  V30 2013 O 189.192 0.180083 -4.01296 0
M  V30 2014 N 187.398 -0.500677 -2.86254 0
M  V30 2015 H 186.945 -1.18532 -2.28709 0
M  V30 2016 H 186.903 0.325903 -3.12706 0
M  V30 2017 N 190.675 0.682077 -1.42076 0
M  V30 2018 C 191.921 1.44428 -1.42367 0
M  V30 2019 C 192.254 1.94164 -0.0373056 0
M  V30 2020 O 191.529 1.70429 0.937239 0
M  V30 2021 C 191.812 2.64654 -2.44194 0
M  V30 2022 C 191.665 2.20596 -3.91991 0
M  V30 2023 C 192.984 3.66865 -2.431 0
M  V30 2024 H 190.103 0.523834 -0.518428 0
M  V30 2025 H 192.745 0.77576 -1.73442 0
M  V30 2026 H 190.895 3.2169 -2.17826 0
M  V30 2027 H 192.567 1.68783 -4.29313 0
M  V30 2028 H 190.81 1.52242 -4.06208 0
M  V30 2029 H 191.481 3.06921 -4.58807 0
M  V30 2030 H 193.957 3.19531 -2.66532 0
M  V30 2031 H 192.833 4.48577 -3.16339 0
M  V30 2032 H 193.094 4.17493 -1.45437 0
M  V30 2033 N 192.153 1.28127 0.917671 0
M  V30 2034 C 193.4 1.15052 1.66641 0
M  V30 2035 C 193.728 -0.301677 1.92146 0
M  V30 2036 O 192.983 -1.23622 1.51711 0
M  V30 2037 C 193.282 1.89018 3.03327 0
M  V30 2038 C 192.948 3.38832 2.97496 0
M  V30 2039 C 191.61 3.79693 2.95613 0
M  V30 2040 C 193.962 4.34378 2.88036 0
M  V30 2041 C 191.29 5.14447 2.82066 0
M  V30 2042 C 193.642 5.69201 2.7603 0
M  V30 2043 C 192.306 6.09343 2.72502 0
M  V30 2044 H 191.576 0.421006 0.609783 0
M  V30 2045 H 194.223 1.58855 1.06945 0
M  V30 2046 H 192.528 1.37752 3.66785 0
M  V30 2047 H 194.225 1.76321 3.60156 0
M  V30 2048 H 190.815 3.06342 2.99754 0
M  V30 2049 H 194.999 4.03775 2.88581 0
M  V30 2050 H 190.255 5.44681 2.77728 0
M  V30 2051 H 194.429 6.42901 2.67678 0
M  V30 2052 H 192.056 7.13712 2.61762 0
M  V30 2053 N 193.631 -1.12557 1.10312 0
M  V30 2054 C 194.88 -1.83395 0.839588 0
M  V30 2055 C 195.193 -1.84939 -0.636929 0
M  V30 2056 O 196.399 -2.51761 -1.01631 0
M  V30 2057 C 194.855 -3.29303 1.45215 0
M  V30 2058 C 194.463 -3.36122 2.96186 0
M  V30 2059 C 196.207 -4.05121 1.26796 0
M  V30 2060 C 194.114 -4.76357 3.50483 0
M  V30 2061 H 193.044 -0.687133 0.310425 0
M  V30 2062 H 195.695 -1.26746 1.32694 0
M  V30 2063 H 194.077 -3.85812 0.892469 0
M  V30 2064 H 195.251 -2.89559 3.58458 0
M  V30 2065 H 193.566 -2.73776 3.13745 0
M  V30 2066 H 196.163 -5.08668 1.64806 0
M  V30 2067 H 196.506 -4.15773 0.209409 0
M  V30 2068 H 197.039 -3.54967 1.79563 0
M  V30 2069 H 193.778 -4.70899 4.55998 0
M  V30 2070 H 193.298 -5.23377 2.92978 0
M  V30 2071 H 194.977 -5.45294 3.48228 0
M  V30 2072 N 195.109 -0.891671 -1.2995 0
M  V30 2073 C 196.057 -0.353066 -2.29905 0
M  V30 2074 C 197.051 0.543509 -1.60444 0
M  V30 2075 O 198.257 0.4272 -1.74857 0
M  V30 2076 H 194.632 -0.095531 -0.745907 0
M  V30 2077 H 196.603 -1.20961 -2.72784 0
M  V30 2078 C 195.352 0.411475 -3.45257 0
M  V30 2079 H 194.675 -0.269182 -3.98893 0
M  V30 2080 H 196.115 0.753328 -4.17254 0
M  V30 2081 C 194.574 1.6111 -2.9588 0
M  V30 2082 O 195.104 2.71045 -2.96475 0
M  V30 2083 N 193.31 1.45054 -2.51809 0
M  V30 2084 H 192.857 0.556175 -2.51524 0
M  V30 2085 H 192.815 2.25453 -2.1913 0
M  V30 2086 N 196.587 1.43421 -0.653314 0
M  V30 2087 C 198.003 1.56341 -0.320886 0
M  V30 2088 C 198.203 1.63696 1.17499 0
M  V30 2089 O 197.259 1.59208 1.95982 0
M  V30 2090 C 198.572 2.82424 -1.03233 0
M  V30 2091 C 200.12 2.96168 -1.01259 0
M  V30 2092 C 200.595 4.25084 -1.70492 0
M  V30 2093 N 202.086 4.31948 -1.67257 0
M  V30 2094 C 202.821 5.30466 -2.17701 0
M  V30 2095 N 202.317 6.35261 -2.76434 0
M  V30 2096 N 204.11 5.2212 -2.082 0
M  V30 2097 H 196.261 1.3689 -1.62403 0
M  V30 2098 H 198.524 0.657455 -0.682977 0
M  V30 2099 H 198.23 2.83053 -2.08744 0
M  V30 2100 H 198.104 3.72653 -0.583948 0
M  V30 2101 H 200.491 2.9508 0.0341235 0
M  V30 2102 H 200.572 2.07229 -1.49966 0
M  V30 2103 H 200.216 4.26932 -2.7512 0
M  V30 2104 H 200.146 5.1292 -1.19251 0
M  V30 2105 H 202.637 3.56838 -1.24398 0
M  V30 2106 H 202.95 7.06754 -3.12601 0
M  V30 2107 H 201.295 6.35884 -2.80495 0
M  V30 2108 H 204.486 4.39166 -1.62021 0
M  V30 2109 H 204.659 5.98739 -2.47822 0
M  V30 2110 N 198.065 0.39524 1.52563 0
M  V30 2111 C 198.975 -0.444232 2.30356 0
M  V30 2112 C 199.991 -1.06615 1.37511 0
M  V30 2113 O 201.167 -1.07067 1.70583 0
M  V30 2114 C 198.232 -1.55315 3.09964 0
M  V30 2115 C 197.293 -0.955734 4.18526 0
M  V30 2116 C 196.526 -2.01181 4.9433 0
M  V30 2117 O 196.749 -3.22781 4.70285 0
M  V30 2118 O 195.683 -1.62579 5.79527 0
M  V30 2119 H 199.509 0.189667 3.03107 0
M  V30 2120 H 197.094 0.1588 1.48554 0
M  V30 2121 H 198.976 -2.19724 3.59582 0
M  V30 2122 H 197.651 -2.17191 2.4002 0
M  V30 2123 H 196.558 -0.274743 3.7309 0
M  V30 2124 H 197.891 -0.381109 4.90722 0
M  V30 2125 N 199.544 -1.57102 0.125237 0
M  V30 2126 C 200.507 -2.14471 -0.80838 0
M  V30 2127 C 201.507 -1.0811 -1.19033 0
M  V30 2128 O 202.697 -1.33856 -1.11482 0
M  V30 2129 C 199.829 -2.69005 -2.09402 0
M  V30 2130 H 201.022 -2.98297 -0.309696 0
M  V30 2131 H 198.575 -1.55807 -0.124051 0
M  V30 2132 H 199.31 -1.88785 -2.63687 0
M  V30 2133 H 199.095 -3.46799 -1.82957 0
M  V30 2134 H 200.585 -3.13278 -2.76128 0
M  V30 2135 N 201.022 0.148545 -1.56898 0
M  V30 2136 C 201.932 1.20293 -2.01412 0
M  V30 2137 C 202.948 1.47107 -0.929273 0
M  V30 2138 O 204.124 1.58807 -1.23863 0
M  V30 2139 C 201.189 2.51682 -2.38447 0
M  V30 2140 C 200.25 2.32529 -3.60872 0
M  V30 2141 C 199.483 3.57653 -3.96132 0
M  V30 2142 O 199.706 4.63771 -3.32073 0
M  V30 2143 O 198.64 3.50408 -4.89385 0
M  V30 2144 H 202.466 0.855025 -2.91416 0
M  V30 2145 H 200.051 0.357151 -1.45068 0
M  V30 2146 H 201.933 3.29147 -2.63135 0
M  V30 2147 H 200.608 2.86006 -1.51599 0
M  V30 2148 H 199.515 1.53019 -3.41373 0
M  V30 2149 H 200.848 2.03121 -4.48333 0
M  V30 2150 N 202.5 1.5196 0.417844 0
M  V30 2151 C 203.749 1.6482 1.16264 0
M  V30 2152 C 204.062 0.379886 1.91876 0
M  V30 2153 O 205.268 0.388154 2.68711 0
M  V30 2154 C 203.724 2.91161 2.1155 0
M  V30 2155 C 203.332 4.25068 1.41495 0
M  V30 2156 C 205.076 3.13383 2.86341 0
M  V30 2157 C 202.983 5.42541 2.35379 0
M  V30 2158 H 201.913 0.613954 0.437694 0
M  V30 2159 H 204.564 1.78442 0.427871 0
M  V30 2160 H 202.946 2.71218 2.88543 0
M  V30 2161 H 204.12 4.55463 0.699263 0
M  V30 2162 H 202.435 4.0888 0.787792 0
M  V30 2163 H 205.032 3.98324 3.5671 0
M  V30 2164 H 205.375 2.27256 3.48798 0
M  V30 2165 H 205.908 3.33757 2.1645 0
M  V30 2166 H 202.647 6.30987 1.77582 0
M  V30 2167 H 202.167 5.16497 3.04945 0
M  V30 2168 H 203.846 5.75272 2.96093 0
M  V30 2169 N 203.978 -0.674533 1.42435 0
M  V30 2170 C 205.208 -1.46071 1.46105 0
M  V30 2171 C 205.616 -1.89067 0.0709605 0
M  V30 2172 O 204.959 -1.58731 -0.924677 0
M  V30 2173 C 205.021 -2.74145 2.32561 0
M  V30 2174 C 204.685 -2.53224 3.8043 0
M  V30 2175 C 205.682 -2.17809 4.72075 0
M  V30 2176 C 203.367 -2.6821 4.24698 0
M  V30 2177 C 205.361 -1.97648 6.05982 0
M  V30 2178 C 203.048 -2.47665 5.58664 0
M  V30 2179 C 204.046 -2.12437 6.49122 0
M  V30 2180 O 203.734 -1.9209 7.80613 0
M  V30 2181 H 203.466 -0.455959 0.499076 0
M  V30 2182 H 206.02 -0.836193 1.87609 0
M  V30 2183 H 204.25 -3.3908 1.85908 0
M  V30 2184 H 205.939 -3.36028 2.27683 0
M  V30 2185 H 206.705 -2.05826 4.39159 0
M  V30 2186 H 202.584 -2.94609 3.54579 0
M  V30 2187 H 206.128 -1.70075 6.7655 0
M  V30 2188 H 202.025 -2.59244 5.91154 0
M  V30 2189 H 202.793 -2.06686 7.91974 0
M  V30 2190 N 205.456 -1.28612 -0.910864 0
M  V30 2191 C 206.404 -1.1265 -2.03501 0
M  V30 2192 C 207.398 -0.0450054 -1.6934 0
M  V30 2193 O 208.604 -0.203988 -1.7884 0
M  V30 2194 H 204.979 -0.347639 -0.666822 0
M  V30 2195 H 206.95 -2.07849 -2.14106 0
M  V30 2196 C 205.699 -0.808143 -3.38178 0
M  V30 2197 H 205.022 -1.63231 -3.6496 0
M  V30 2198 H 206.462 -0.736426 -4.17556 0
M  V30 2199 C 204.921 0.488226 -3.33344 0
M  V30 2200 O 205.451 1.51766 -3.71927 0
M  V30 2201 N 203.657 0.490009 -2.86439 0
M  V30 2202 H 203.204 -0.348161 -2.55236 0
M  V30 2203 H 203.162 1.35741 -2.83587 0
M  V30 2204 N 206.934 1.1197 -1.10907 0
M  V30 2205 C 207.844 2.21433 -0.774896 0
M  V30 2206 C 208.86 1.72478 0.229657 0
M  V30 2207 O 210.036 2.01288 0.0672008 0
M  V30 2208 C 207.101 3.4602 -0.216986 0
M  V30 2209 C 206.162 4.09791 -1.27944 0
M  V30 2210 C 205.395 5.28431 -0.748055 0
M  V30 2211 O 205.618 5.68823 0.423833 0
M  V30 2212 O 204.552 5.82644 -1.51027 0
M  V30 2213 H 208.378 2.5242 -1.68873 0
M  V30 2214 H 205.963 1.20399 -0.884555 0
M  V30 2215 H 207.845 4.21304 0.090059 0
M  V30 2216 H 206.52 3.16698 0.669633 0
M  V30 2217 H 205.427 3.36265 -1.63941 0
M  V30 2218 H 206.76 4.4328 -2.13925 0
M  V30 2219 N 208.412 0.89855 1.29475 0
M  V30 2220 C 209.36 0.365253 2.29714 0
M  V30 2221 C 210.354 -0.534993 1.6073 0
M  V30 2222 O 211.56 -0.417921 1.75081 0
M  V30 2223 H 207.935 0.0994853 0.74539 0
M  V30 2224 H 209.906 1.22406 2.72138 0
M  V30 2225 C 208.655 -0.393159 3.4547 0
M  V30 2226 H 207.978 0.290332 3.98744 0
M  V30 2227 H 209.418 -0.731189 4.17648 0
M  V30 2228 C 207.877 -1.59539 2.9673 0
M  V30 2229 O 208.407 -2.69469 2.97908 0
M  V30 2230 N 206.613 -1.43716 2.52575 0
M  V30 2231 H 206.16 -0.542828 2.51816 0
M  V30 2232 H 206.118 -2.24288 2.20323 0
M  V30 2233 N 209.89 -1.43072 0.660911 0
M  V30 2234 C 210.853 -2.29194 -0.0166406 0
M  V30 2235 C 211.853 -1.42609 -0.742912 0
M  V30 2236 O 213.043 -1.64155 -0.583004 0
M  V30 2237 C 210.175 -3.24831 -1.0343 0
M  V30 2238 H 211.368 -2.90596 0.741208 0
M  V30 2239 H 208.921 -1.5048 0.422532 0
M  V30 2240 H 209.656 -2.68339 -1.82111 0
M  V30 2241 H 209.441 -3.88676 -0.517082 0
M  V30 2242 H 210.931 -3.89451 -1.50723 0
M  V30 2243 N 211.368 -0.403325 -1.52352 0
M  V30 2244 C 212.593 0.176499 -2.06648 0
M  V30 2245 C 213.018 1.38577 -1.27193 0
M  V30 2246 O 212.376 1.7879 -0.300637 0
M  V30 2247 C 212.424 0.511061 -3.5696 0
M  V30 2248 O 211.528 1.60294 -3.79973 0
M  V30 2249 H 210.869 0.0167337 -0.663789 0
M  V30 2250 H 213.399 -0.574848 -1.96359 0
M  V30 2251 H 213.409 0.771362 -4.00642 0
M  V30 2252 H 212.084 -0.37296 -4.14224 0
M  V30 2253 H 210.661 1.33526 -3.48174 0
M  V30 2254 N 212.846 1.57033 -0.133567 0
M  V30 2255 C 213.793 2.16074 0.811208 0
M  V30 2256 C 214.763 1.08979 1.2535 0
M  V30 2257 O 215.948 1.36958 1.32843 0
M  V30 2258 C 213.088 2.77595 2.05024 0
M  V30 2259 C 212.201 3.99042 1.65498 0
M  V30 2260 C 211.336 4.48603 2.84479 0
M  V30 2261 C 210.375 5.62547 2.41262 0
M  V30 2262 N 209.512 6.06787 3.53206 0
M  V30 2263 H 214.352 2.96477 0.300906 0
M  V30 2264 H 211.889 1.46462 0.136822 0
M  V30 2265 H 213.847 3.11402 2.77642 0
M  V30 2266 H 212.477 1.99859 2.53488 0
M  V30 2267 H 211.529 3.71302 0.826981 0
M  V30 2268 H 212.841 4.81629 1.29748 0
M  V30 2269 H 211.995 4.84395 3.65303 0
M  V30 2270 H 210.734 3.64995 3.23465 0
M  V30 2271 H 209.739 5.26345 1.58874 0
M  V30 2272 H 210.964 6.47931 2.03377 0
M  V30 2273 H 208.91 5.26117 3.91838 0
M  V30 2274 H 208.827 6.84266 3.21427 0
M  V30 2275 H 210.095 6.4722 4.34427 0
M  V30 2276 N 214.325 -0.140222 1.56975 0
M  V30 2277 C 215.288 -1.15689 1.97861 0
M  V30 2278 C 216.288 -1.3549 0.865974 0
M  V30 2279 O 217.478 -1.32367 1.13246 0
M  V30 2280 C 214.61 -2.51582 2.30042 0
M  V30 2281 H 215.803 -0.805971 2.88867 0
M  V30 2282 H 213.356 -0.383801 1.51515 0
M  V30 2283 H 214.091 -2.91632 1.41849 0
M  V30 2284 H 213.876 -2.38569 3.11171 0
M  V30 2285 H 215.366 -3.24792 2.62488 0
M  V30 2286 N 215.803 -1.52179 -0.40978 0
M  V30 2287 C 217.051 -1.65878 -1.15451 0
M  V30 2288 C 217.372 -0.390771 -1.91044 0
M  V30 2289 O 216.642 0.594323 -1.86667 0
M  V30 2290 H 215.222 -0.611405 -0.429177 0
M  V30 2291 H 217.884 -1.89219 -0.467134 0
M  V30 2292 H 216.98 -2.49954 -1.86894 0
M  V30 2293 N 217.281 0.66697 -1.42791 0
M  V30 2294 C 218.529 1.42417 -1.43394 0
M  V30 2295 C 218.85 1.94925 -0.0542373 0
M  V30 2296 O 218.12 1.73564 0.908415 0
M  V30 2297 H 216.7 0.528515 -0.527902 0
M  V30 2298 H 219.362 0.787562 -1.78279 0
M  V30 2299 H 218.458 2.27333 -2.13837 0
M  V30 2300 N 218.759 1.29093 0.90403 0
M  V30 2301 C 220.005 1.17996 1.65676 0
M  V30 2302 C 220.36 -0.266816 1.90541 0
M  V30 2303 O 219.653 -1.19 1.50165 0
M  V30 2304 C 219.847 1.92224 3.01305 0
M  V30 2305 C 219.676 3.43972 2.89678 0
M  V30 2306 C 218.446 4.1332 2.90679 0
M  V30 2307 C 220.644 4.39546 2.67028 0
M  V30 2308 N 218.626 5.51463 2.69743 0
M  V30 2309 C 219.997 5.65119 2.5503 0
M  V30 2310 C 222.052 4.29359 2.52101 0
M  V30 2311 C 220.755 6.81663 2.29626 0
M  V30 2312 C 222.781 5.4565 2.28079 0
M  V30 2313 C 222.143 6.70193 2.16843 0
M  V30 2314 H 218.242 0.486759 0.612037 0
M  V30 2315 H 220.826 1.62868 1.06688 0
M  V30 2316 H 218.997 1.49773 3.58361 0
M  V30 2317 H 220.729 1.73429 3.65656 0
M  V30 2318 H 217.484 3.64984 3.01801 0
M  V30 2319 H 217.908 6.24105 2.6234 0
M  V30 2320 H 222.55 3.33769 2.59534 0
M  V30 2321 H 220.268 7.77313 2.20932 0
M  V30 2322 H 223.854 5.39664 2.1738 0
M  V30 2323 H 222.734 7.58659 1.98511 0
M  V30 2324 N 220.237 -1.11381 1.11499 0
M  V30 2325 C 221.147 -2.21019 0.786628 0
M  V30 2326 C 222.163 -1.72597 -0.220507 0
M  V30 2327 O 223.339 -2.01321 -0.0565251 0
M  V30 2328 C 220.404 -3.459 0.235333 0
M  V30 2329 C 219.465 -4.09107 1.30115 0
M  V30 2330 C 218.698 -5.28027 0.776068 0
M  V30 2331 O 218.921 -5.6904 -0.393661 0
M  V30 2332 O 217.855 -5.81835 1.54114 0
M  V30 2333 H 221.681 -2.51521 1.70209 0
M  V30 2334 H 219.266 -1.19928 0.890928 0
M  V30 2335 H 221.148 -4.21346 -0.067715 0
M  V30 2336 H 219.823 -3.17049 -0.652828 0
M  V30 2337 H 218.73 -3.35391 1.65722 0
M  V30 2338 H 220.063 -4.42139 2.16273 0
M  V30 2339 N 221.715 -0.905404 -1.28997 0
M  V30 2340 C 222.963 -0.533192 -1.9494 0
M  V30 2341 C 223.284 0.924618 -1.71685 0
M  V30 2342 O 222.554 1.65268 -1.05183 0
M  V30 2343 H 221.134 -0.194194 -0.721317 0
M  V30 2344 H 223.796 -1.15294 -1.57141 0
M  V30 2345 H 222.892 -0.72059 -3.03667 0
M  V30 2346 N 223.193 1.4272 -0.668489 0
M  V30 2347 C 224.421 2.05966 -0.196348 0
M  V30 2348 C 224.836 1.50191 1.14403 0
M  V30 2349 O 224.193 0.639208 1.7094 0
M  V30 2350 C 224.244 3.61314 -0.115815 0
M  V30 2351 O 223.965 4.1502 -1.40322 0
M  V30 2352 C 225.466 4.41663 0.380579 0
M  V30 2353 H 222.686 0.663954 -0.0969829 0
M  V30 2354 H 225.23 1.82966 -0.913446 0
M  V30 2355 H 223.385 3.83448 0.551931 0
M  V30 2356 H 223.799 5.08832 -1.27243 0
M  V30 2357 H 225.273 5.5065 0.385848 0
M  V30 2358 H 225.75 4.15792 1.41471 0
M  V30 2359 H 226.356 4.24534 -0.255209 0
M  V30 2360 N 224.671 0.411399 1.52136 0
M  V30 2361 C 226.087 0.0623865 1.59478 0
M  V30 2362 C 226.287 -1.42554 1.4241 0
M  V30 2363 O 225.343 -2.19263 1.2522 0
M  V30 2364 C 226.656 0.559331 2.95452 0
M  V30 2365 C 228.204 0.517503 3.08692 0
M  V30 2366 C 228.679 0.990994 4.4715 0
M  V30 2367 N 230.17 0.947908 4.53397 0
M  V30 2368 C 230.905 1.28544 5.58806 0
M  V30 2369 N 230.401 1.69454 6.71757 0
M  V30 2370 N 232.194 1.20526 5.49026 0
M  V30 2371 H 224.345 1.37982 1.61477 0
M  V30 2372 H 226.608 0.566977 0.759764 0
M  V30 2373 H 226.314 1.59938 3.1323 0
M  V30 2374 H 226.188 -0.0298014 3.77188 0
M  V30 2375 H 228.575 -0.513505 2.90598 0
M  V30 2376 H 228.656 1.14272 2.28857 0
M  V30 2377 H 228.3 2.02034 4.65988 0
M  V30 2378 H 228.23 0.34257 5.25485 0
M  V30 2379 H 230.721 0.647157 3.72317 0
M  V30 2380 H 231.034 1.93513 7.48179 0
M  V30 2381 H 229.379 1.73359 6.73032 0
M  V30 2382 H 232.57 0.884505 4.59667 0
M  V30 2383 H 232.743 1.47161 6.31069 0
M  V30 2384 N 226.149 -1.5696 0.141893 0
M  V30 2385 C 227.426 -1.87553 -0.555281 0
M  V30 2386 C 227.806 -1.04699 -1.83306 0
M  V30 2387 O 227.154 -0.132346 -2.28116 0
M  V30 2388 C 227.364 -3.39093 -0.825664 0
M  V30 2389 C 228.712 -4.08199 -1.16869 0
M  V30 2390 O 229.736 -3.44242 -0.915185 0
M  V30 2391 O 228.595 -5.21139 -1.6455 0
M  V30 2392 H 225.689 -0.777188 -0.282679 0
M  V30 2393 H 228.235 -1.68763 0.17812 0
M  V30 2394 H 227.007 -3.91221 0.0788633 0
M  V30 2395 H 226.63 -3.63393 -1.61343 0
M  V30 2396 N 227.627 0.131896 -1.57047 0
M  V30 2397 C 228.874 0.841932 -1.84168 0
M  V30 2398 C 229.202 1.8048 -0.725066 0
M  V30 2399 O 228.457 1.93618 0.284692 0
M  V30 2400 C 228.756 1.63703 -3.17704 0
M  V30 2401 C 228.422 0.81961 -4.43388 0
M  V30 2402 C 227.084 0.594148 -4.77518 0
M  V30 2403 C 229.436 0.248977 -5.20605 0
M  V30 2404 C 226.764 -0.212409 -5.86315 0
M  V30 2405 C 229.116 -0.544701 -6.30251 0
M  V30 2406 C 227.78 -0.780599 -6.6292 0
M  V30 2407 H 227.05 0.308085 -0.673917 0
M  V30 2408 H 229.697 0.104867 -1.91213 0
M  V30 2409 H 228.002 2.44464 -3.06177 0
M  V30 2410 H 229.699 2.19015 -3.35907 0
M  V30 2411 H 226.289 1.00542 -4.16641 0
M  V30 2412 H 230.473 0.410408 -4.946 0
M  V30 2413 H 225.729 -0.404524 -6.1006 0
M  V30 2414 H 229.903 -0.993922 -6.89271 0
M  V30 2415 H 227.53 -1.40742 -7.47058 0
M  V30 2416 N 229.106 1.52395 0.401703 0
M  V30 2417 C 230.522 1.41363 0.740864 0
M  V30 2418 C 230.722 0.523982 1.94568 0
M  V30 2419 O 229.778 -0.00741204 2.52499 0
M  V30 2420 C 231.091 2.84011 0.987847 0
M  V30 2421 C 232.639 2.93404 1.09011 0
M  V30 2422 C 233.114 4.37036 1.3698 0
M  V30 2423 N 234.605 4.40304 1.43829 0
M  V30 2424 C 235.34 5.48508 1.67112 0
M  V30 2425 N 234.836 6.66819 1.87949 0
M  V30 2426 N 236.629 5.36034 1.69187 0
M  V30 2427 H 228.78 2.08765 -0.391262 0
M  V30 2428 H 231.043 0.941265 -0.112798 0
M  V30 2429 H 230.749 3.51265 0.174835 0
M  V30 2430 H 230.623 3.25502 1.906 0
M  V30 2431 H 233.01 2.26325 1.8937 0
M  V30 2432 H 233.091 2.55359 0.15015 0
M  V30 2433 H 232.735 5.04676 0.571353 0
M  V30 2434 H 232.665 4.72623 2.3224 0
M  V30 2435 H 235.156 3.55024 1.29486 0
M  V30 2436 H 235.469 7.45063 2.05185 0
M  V30 2437 H 233.814 6.6987 1.85199 0
M  V30 2438 H 237.005 4.42579 1.52451 0
M  V30 2439 H 237.178 6.20434 1.86993 0
M  V30 2440 N 230.584 -0.659388 1.43143 0
M  V30 2441 C 231.833 -1.41518 1.43721 0
M  V30 2442 C 232.146 -1.95499 0.0628176 0
M  V30 2443 O 233.352 -2.71446 -0.0539683 0
M  V30 2444 C 231.808 -2.5608 2.52885 0
M  V30 2445 C 231.416 -2.08733 3.96402 0
M  V30 2446 C 233.16 -3.3349 2.62649 0
M  V30 2447 C 231.067 -3.20469 4.97045 0
M  V30 2448 H 229.997 -0.531705 0.534608 0
M  V30 2449 H 232.648 -0.712343 1.69109 0
M  V30 2450 H 231.03 -3.28805 2.20688 0
M  V30 2451 H 232.204 -1.43059 4.3803 0
M  V30 2452 H 230.519 -1.44219 3.90627 0
M  V30 2453 H 233.116 -4.16734 3.35017 0
M  V30 2454 H 233.459 -3.8111 1.67513 0
M  V30 2455 H 233.992 -2.67842 2.94118 0
M  V30 2456 H 230.731 -2.77824 5.93712 0
M  V30 2457 H 230.251 -3.84874 4.60034 0
M  V30 2458 H 231.93 -3.85698 5.19467 0
M  V30 2459 N 232.062 -1.29571 -0.897171 0
M  V30 2460 C 233.308 -1.17863 -1.65034 0
M  V30 2461 C 233.641 0.268729 -1.92332 0
M  V30 2462 O 232.916 1.19378 -1.53555 0
M  V30 2463 C 233.199 -1.995 -2.99786 0
M  V30 2464 C 233.052 -3.5239 -2.79538 0
M  V30 2465 C 234.371 -1.82335 -4.00552 0
M  V30 2466 H 231.49 -0.429528 -0.598895 0
M  V30 2467 H 234.132 -1.59072 -1.03905 0
M  V30 2468 H 232.282 -1.64485 -3.51962 0
M  V30 2469 H 233.954 -3.97401 -2.34244 0
M  V30 2470 H 232.197 -3.77187 -2.14273 0
M  V30 2471 H 232.868 -4.04787 -3.75302 0
M  V30 2472 H 235.344 -2.12924 -3.57495 0
M  V30 2473 H 234.22 -2.41801 -4.92771 0
M  V30 2474 H 234.481 -0.779209 -4.35179 0
M  V30 2475 N 233.54 1.10788 -1.12088 0
M  V30 2476 C 234.503 2.15207 -0.788577 0
M  V30 2477 C 235.503 1.59609 0.195317 0
M  V30 2478 O 236.693 1.74174 -0.0300193 0
M  V30 2479 C 233.825 3.4047 -0.171174 0
M  V30 2480 H 235.018 2.46116 -1.71368 0
M  V30 2481 H 232.571 1.26089 -0.923652 0
M  V30 2482 H 233.306 3.15176 0.763832 0
M  V30 2483 H 233.091 3.82109 -0.879514 0
M  V30 2484 H 234.581 4.17576 0.04496 0
M  V30 2485 N 235.018 0.912232 1.28515 0
M  V30 2486 C 235.965 0.397954 2.27343 0
M  V30 2487 C 236.935 -0.526766 1.57526 0
M  V30 2488 O 238.12 -0.449292 1.85435 0
M  V30 2489 C 235.26 -0.357263 3.43246 0
M  V30 2490 C 234.373 0.599788 4.27816 0
M  V30 2491 C 233.508 -0.173725 5.30916 0
M  V30 2492 C 232.547 0.777039 6.07148 0
M  V30 2493 N 231.684 0.0371398 7.0209 0
M  V30 2494 H 236.524 1.24577 2.70711 0
M  V30 2495 H 234.061 0.625612 1.33133 0
M  V30 2496 H 236.019 -0.8113 4.09236 0
M  V30 2497 H 234.649 -1.16943 3.00872 0
M  V30 2498 H 233.701 1.17235 3.61884 0
M  V30 2499 H 235.013 1.32704 4.80823 0
M  V30 2500 H 234.167 -0.688394 6.02782 0
M  V30 2501 H 232.906 -0.934041 4.78672 0
M  V30 2502 H 231.911 1.3031 5.34134 0
M  V30 2503 H 233.136 1.53689 6.61481 0
M  V30 2504 H 231.082 -0.705213 6.52198 0
M  V30 2505 H 230.999 0.704249 7.52713 0
M  V30 2506 H 232.267 -0.457383 7.78157 0
M  V30 2507 N 236.496 -1.42363 0.676048 0
M  V30 2508 C 237.724 -2.05859 0.207268 0
M  V30 2509 C 238.139 -1.50796 -1.13605 0
M  V30 2510 O 237.496 -0.648265 -1.70598 0
M  V30 2511 C 237.547 -3.61248 0.134975 0
M  V30 2512 O 237.268 -4.1427 1.42521 0
M  V30 2513 C 238.769 -4.41859 -0.357151 0
M  V30 2514 H 235.989 -0.663431 0.100503 0
M  V30 2515 H 238.533 -1.82479 0.923136 0
M  V30 2516 H 236.688 -3.83735 -0.531588 0
M  V30 2517 H 237.102 -5.0815 1.29939 0
M  V30 2518 H 238.576 -5.50847 -0.356641 0
M  V30 2519 H 239.053 -4.16536 -1.39264 0
M  V30 2520 H 239.659 -4.24392 0.27772 0
M  V30 2521 N 237.974 -0.419461 -1.51915 0
M  V30 2522 C 239.385 0.0477853 -1.86639 0
M  V30 2523 C 239.736 1.43531 -1.33766 0
M  V30 2524 O 238.861 2.05401 -0.68113 0
M  V30 2525 C 239.456 0.0934885 -3.38671 0
M  V30 2526 C 238.015 0.505097 -3.72996 0
M  V30 2527 C 237.162 -0.313792 -2.75519 0
M  V30 2528 H 240.113 -0.636088 -1.45395 0
M  V30 2529 H 240.134 0.906667 -3.6954 0
M  V30 2530 H 239.646 -0.916501 -3.77123 0
M  V30 2531 H 237.747 1.52135 -3.40126 0
M  V30 2532 H 237.86 0.242309 -4.78487 0
M  V30 2533 H 236.224 0.225363 -2.53701 0
M  V30 2534 H 237.007 -1.32232 -3.16812 0
M  V30 2535 N 239.452 1.56882 -0.150215 0
M  V30 2536 C 240.868 1.58263 0.20617 0
M  V30 2537 C 241.068 1.16464 1.64434 0
M  V30 2538 O 240.124 0.866422 2.3717 0
M  V30 2539 C 241.437 3.00649 -0.0555025 0
M  V30 2540 C 242.985 3.12999 0.00795388 0
M  V30 2541 C 243.46 4.5744 -0.226429 0
M  V30 2542 N 244.951 4.62875 -0.173469 0
M  V30 2543 C 245.686 5.72454 -0.329288 0
M  V30 2544 N 245.182 6.90669 -0.543005 0
M  V30 2545 N 246.975 5.61467 -0.266666 0
M  V30 2546 H 239.126 1.82345 -1.08922 0
M  V30 2547 H 241.389 0.844149 -0.431413 0
M  V30 2548 H 241.095 3.3563 -1.05096 0
M  V30 2549 H 240.969 3.71337 0.66246 0
M  V30 2550 H 243.356 2.77857 0.993966 0
M  V30 2551 H 243.437 2.4479 -0.742388 0
M  V30 2552 H 243.081 4.93287 -1.20956 0
M  V30 2553 H 243.011 5.2378 0.544274 0
M  V30 2554 H 245.502 3.77898 -0.0130709 0
M  V30 2555 H 245.815 7.70045 -0.651922 0
M  V30 2556 H 244.16 6.92581 -0.579366 0
M  V30 2557 H 247.351 4.67992 -0.100441 0
M  V30 2558 H 247.524 6.46816 -0.391535 0
M  V30 2559 N 240.93 -0.123565 1.57115 0
M  V30 2560 C 242.155 -0.850398 1.89164 0
M  V30 2561 C 242.58 -1.7286 0.741688 0
M  V30 2562 O 241.938 -1.78665 -0.307958 0
M  V30 2563 C 241.986 -1.66353 3.19936 0
M  V30 2564 O 241.09 -2.77004 3.0552 0
M  V30 2565 H 240.431 -0.235454 0.620852 0
M  V30 2566 H 242.961 -0.107335 2.04318 0
M  V30 2567 H 242.971 -2.05372 3.52543 0
M  V30 2568 H 241.646 -1.01881 4.03228 0
M  V30 2569 H 240.223 -2.41221 2.84371 0
M  V30 2570 N 242.408 -1.52605 -0.393616 0
M  V30 2571 C 243.371 -1.76415 -1.46323 0
M  V30 2572 C 244.371 -0.634126 -1.47768 0
M  V30 2573 O 245.561 -0.902142 -1.4902 0
M  V30 2574 C 242.693 -1.8607 -2.85641 0
M  V30 2575 H 243.886 -2.71916 -1.26498 0
M  V30 2576 H 241.439 -1.43257 -0.625073 0
M  V30 2577 H 242.174 -0.925378 -3.10817 0
M  V30 2578 H 241.959 -2.68235 -2.85993 0
M  V30 2579 H 243.449 -2.06179 -3.63153 0
M  V30 2580 N 243.887 0.651787 -1.4349 0
M  V30 2581 C 244.817 1.77621 -1.51569 0
M  V30 2582 C 245.798 1.66022 -0.370253 0
M  V30 2583 O 246.983 1.85095 -0.587658 0
M  V30 2584 C 244.113 3.16056 -1.43966 0
M  V30 2585 C 243.067 3.4242 -2.56774 0
M  V30 2586 C 242.393 4.8067 -2.34223 0
M  V30 2587 C 243.693 3.37023 -3.99015 0
M  V30 2588 H 245.387 1.71117 -2.45681 0
M  V30 2589 H 242.933 0.821825 -1.18246 0
M  V30 2590 H 244.886 3.94472 -1.48221 0
M  V30 2591 H 243.61 3.23293 -0.463586 0
M  V30 2592 H 242.269 2.66375 -2.51873 0
M  V30 2593 H 241.917 4.84585 -1.34856 0
M  V30 2594 H 241.617 4.9927 -3.09844 0
M  V30 2595 H 243.141 5.61342 -2.40265 0
M  V30 2596 H 244.555 4.05374 -4.05395 0
M  V30 2597 H 242.952 3.67159 -4.74673 0
M  V30 2598 H 244.022 2.3518 -4.2405 0
M  V30 2599 N 245.365 1.30045 0.890287 0
M  V30 2600 C 246.614 1.17929 1.63633 0
M  V30 2601 C 246.927 -0.266204 1.9378 0
M  V30 2602 O 248.133 -0.508804 2.6669 0
M  V30 2603 C 246.589 2.06317 2.94892 0
M  V30 2604 C 246.197 3.55745 2.72305 0
M  V30 2605 C 247.941 2.0295 3.72843 0
M  V30 2606 C 245.848 4.36205 3.99348 0
M  V30 2607 H 244.778 0.437782 0.613892 0
M  V30 2608 H 247.429 1.54754 0.986075 0
M  V30 2609 H 245.811 1.6237 3.61182 0
M  V30 2610 H 246.985 4.07805 2.1455 0
M  V30 2611 H 245.3 3.6088 2.07737 0
M  V30 2612 H 247.897 2.60319 4.67053 0
M  V30 2613 H 248.24 1.0117 4.0382 0
M  V30 2614 H 248.773 2.4499 3.13408 0
M  V30 2615 H 245.512 5.38659 3.73533 0
M  V30 2616 H 245.032 3.8891 4.56628 0
M  V30 2617 H 246.711 4.47362 4.67415 0
M  V30 2618 N 246.843 -1.10192 1.12674 0
M  V30 2619 C 248.071 -1.85983 0.906527 0
M  V30 2620 C 248.486 -1.80783 -0.544333 0
M  V30 2621 O 247.843 -1.19834 -1.37645 0
M  V30 2622 C 247.894 -3.34281 1.37618 0
M  V30 2623 O 247.615 -3.39401 2.77017 0
M  V30 2624 C 249.116 -4.26938 1.19325 0
M  V30 2625 H 246.336 -0.587716 0.323775 0
M  V30 2626 H 248.88 -1.39284 1.49734 0
M  V30 2627 H 247.035 -3.78436 0.828539 0
M  V30 2628 H 247.449 -4.31838 2.97684 0
M  V30 2629 H 248.923 -5.29181 1.57071 0
M  V30 2630 H 249.4 -4.38995 0.134097 0
M  V30 2631 H 250.006 -3.8859 1.72852 0
M  V30 2632 N 248.321 -0.919034 -1.28029 0
M  V30 2633 C 249.546 -0.570357 -1.99403 0
M  V30 2634 C 249.971 0.842486 -1.68178 0
M  V30 2635 O 249.329 1.56391 -0.917141 0
M  V30 2636 C 249.377 -0.792541 -3.51783 0
M  V30 2637 O 248.481 0.145988 -4.12142 0
M  V30 2638 H 247.822 -0.220555 -0.6263 0
M  V30 2639 H 250.352 -1.23592 -1.63053 0
M  V30 2640 H 250.362 -0.704708 -4.01868 0
M  V30 2641 H 249.037 -1.82247 -3.73844 0
M  V30 2642 H 247.614 0.00897528 -3.72899 0
M  V30 2643 N 249.799 1.42003 -0.683588 0
M  V30 2644 C 251.046 2.01413 -0.209514 0
M  V30 2645 C 251.374 1.54088 1.1869 0
M  V30 2646 O 250.629 0.737591 1.81268 0
M  V30 2647 C 250.928 3.56827 -0.202357 0
M  V30 2648 C 250.594 4.23617 -1.54464 0
M  V30 2649 C 249.256 4.41577 -1.91215 0
M  V30 2650 C 251.608 4.61178 -2.42826 0
M  V30 2651 C 248.936 4.9437 -3.15935 0
M  V30 2652 C 251.288 5.15355 -3.66867 0
M  V30 2653 C 249.952 5.31528 -4.03776 0
M  V30 2654 H 249.222 0.737023 -0.0766668 0
M  V30 2655 H 251.869 1.70067 -0.880312 0
M  V30 2656 H 250.174 3.87892 0.551969 0
M  V30 2657 H 251.871 4.00588 0.181793 0
M  V30 2658 H 248.461 4.10004 -1.24877 0
M  V30 2659 H 252.645 4.46968 -2.15717 0
M  V30 2660 H 247.901 5.05076 -3.44541 0
M  V30 2661 H 252.075 5.43402 -4.35531 0
M  V30 2662 H 249.702 5.72199 -5.00492 0
M  V30 2663 N 251.277 0.427512 1.51691 0
M  V30 2664 C 252.187 -0.39527 2.31246 0
M  V30 2665 C 253.203 -1.03674 1.39742 0
M  V30 2666 O 254.379 -1.03425 1.72816 0
M  V30 2667 C 251.444 -1.48706 3.13189 0
M  V30 2668 C 250.505 -0.866743 4.20459 0
M  V30 2669 C 249.738 -1.90651 4.98486 0
M  V30 2670 O 249.961 -3.12733 4.77026 0
M  V30 2671 O 248.895 -1.5025 5.82845 0
M  V30 2672 H 252.721 0.253918 3.02637 0
M  V30 2673 H 250.306 0.190274 1.48183 0
M  V30 2674 H 252.188 -2.12047 3.64162 0
M  V30 2675 H 250.863 -2.12051 2.44573 0
M  V30 2676 H 249.77 -0.195544 3.73589 0
M  V30 2677 H 251.103 -0.276934 4.9142 0
M  V30 2678 N 252.755 -1.56801 0.158532 0
M  V30 2679 C 253.685 -2.20347 -0.772609 0
M  V30 2680 C 254.666 -1.15518 -1.24859 0
M  V30 2681 O 255.851 -1.43902 -1.30406 0
M  V30 2682 C 252.981 -2.83417 -2.00729 0
M  V30 2683 C 251.935 -3.94174 -1.66765 0
M  V30 2684 C 251.261 -4.44233 -2.97592 0
M  V30 2685 C 252.561 -5.14392 -0.905447 0
M  V30 2686 H 254.255 -2.98413 -0.242959 0
M  V30 2687 H 251.801 -1.43537 -0.115419 0
M  V30 2688 H 253.754 -3.26543 -2.6636 0
M  V30 2689 H 252.478 -2.02701 -2.56086 0
M  V30 2690 H 251.137 -3.51684 -1.03508 0
M  V30 2691 H 250.785 -3.60325 -3.50963 0
M  V30 2692 H 250.485 -5.18945 -2.75626 0
M  V30 2693 H 252.009 -4.90037 -3.64274 0
M  V30 2694 H 253.423 -5.5429 -1.46408 0
M  V30 2695 H 251.82 -5.9494 -0.7853 0
M  V30 2696 H 252.89 -4.84795 0.100668 0
M  V30 2697 N 254.233 0.115231 -1.57178 0
M  V30 2698 C 255.143 1.15994 -2.03918 0
M  V30 2699 C 256.159 1.45103 -0.960268 0
M  V30 2700 O 257.335 1.56144 -1.27204 0
M  V30 2701 C 254.4 2.46568 -2.43732 0
M  V30 2702 C 253.461 2.24822 -3.65723 0
M  V30 2703 C 252.694 3.4917 -4.03629 0
M  V30 2704 O 252.917 4.56623 -3.41835 0
M  V30 2705 O 251.851 3.39949 -4.96708 0
M  V30 2706 H 255.677 0.793019 -2.93164 0
M  V30 2707 H 253.262 0.3263 -1.45793 0
M  V30 2708 H 255.144 3.23492 -2.70057 0
M  V30 2709 H 253.819 2.82726 -1.57631 0
M  V30 2710 H 252.726 1.45744 -3.44542 0
M  V30 2711 H 254.059 1.93566 -4.52541 0
M  V30 2712 N 255.711 1.52812 0.385517 0
M  V30 2713 C 257.122 1.5993 0.963293 0
M  V30 2714 C 257.473 0.454302 1.90868 0
M  V30 2715 O 256.598 -0.422132 2.12243 0
M  V30 2716 C 257.193 2.89871 1.75387 0
M  V30 2717 C 255.752 2.99389 2.28129 0
M  V30 2718 C 254.899 2.55071 1.08783 0
M  V30 2719 H 257.85 1.5784 0.164948 0
M  V30 2720 H 257.871 2.76553 2.61341 0
M  V30 2721 H 257.383 3.73186 1.06554 0
M  V30 2722 H 255.484 2.20619 3.00263 0
M  V30 2723 H 255.597 4.04096 2.57377 0
M  V30 2724 H 253.961 2.09473 1.4489 0
M  V30 2725 H 254.744 3.40785 0.414807 0
M  V30 2726 N 257.189 -0.644168 1.43834 0
M  V30 2727 C 258.435 -1.40603 1.46146 0
M  V30 2728 C 258.768 -1.93997 0.0887717 0
M  V30 2729 O 258.043 -1.72854 -0.891724 0
M  V30 2730 C 258.326 -2.58086 2.51124 0
M  V30 2731 C 258.179 -2.10126 3.97702 0
M  V30 2732 C 259.498 -3.60291 2.52742 0
M  V30 2733 H 256.617 -0.509905 0.532134 0
M  V30 2734 H 259.259 -0.729502 1.75437 0
M  V30 2735 H 257.409 -3.15801 2.26278 0
M  V30 2736 H 259.081 -1.57342 4.33637 0
M  V30 2737 H 257.324 -1.41419 4.10101 0
M  V30 2738 H 257.995 -2.94649 4.66783 0
M  V30 2739 H 260.471 -3.12352 2.7491 0
M  V30 2740 H 259.347 -4.40032 3.28121 0
M  V30 2741 H 259.608 -4.1349 1.56455 0
M  V30 2742 N 258.668 -1.30515 -0.883378 0
M  V30 2743 C 259.945 -1.10086 -1.6168 0
M  V30 2744 C 260.325 0.349269 -2.08191 0
M  V30 2745 O 259.673 1.34105 -1.85008 0
M  V30 2746 C 259.883 -2.10315 -2.78511 0
M  V30 2747 C 261.231 -2.42119 -3.48803 0
M  V30 2748 O 262.255 -2.08638 -2.88702 0
M  V30 2749 O 261.114 -2.99396 -4.57192 0
M  V30 2750 H 258.208 -0.422907 -0.710689 0
M  V30 2751 H 260.754 -1.41947 -0.930015 0
M  V30 2752 H 259.526 -3.07917 -2.41459 0
M  V30 2753 H 259.149 -1.79282 -3.54886 0
M  V30 2754 N 260.146 1.09593 -1.13257 0
M  V30 2755 C 261.394 1.81375 -0.891492 0
M  V30 2756 C 261.715 1.86049 0.584009 0
M  V30 2757 O 260.985 1.34481 1.42449 0
M  V30 2758 H 259.565 0.671708 -0.326828 0
M  V30 2759 H 262.227 1.3256 -1.42877 0
M  V30 2760 H 261.323 2.84612 -1.28071 0
M  V30 2761 N 261.624 0.925811 1.2754 0
M  V30 2762 C 262.872 0.564138 1.94067 0
M  V30 2763 C 263.193 -0.897188 1.73134 0
M  V30 2764 O 262.463 -1.63573 1.07799 0
M  V30 2765 H 261.043 0.205645 0.718136 0
M  V30 2766 H 263.705 1.1778 1.55287 0
M  V30 2767 H 262.801 0.76881 3.02483 0
M  V30 2768 N 263.102 -1.41638 0.69111 0
M  V30 2769 C 264.065 -2.29178 0.0319786 0
M  V30 2770 C 265.065 -1.44153 -0.712496 0
M  V30 2771 O 266.255 -1.65354 -0.548053 0
M  V30 2772 C 263.387 -3.26952 -0.965161 0
M  V30 2773 H 264.58 -2.88959 0.802681 0
M  V30 2774 H 262.133 -1.4955 0.454356 0
M  V30 2775 H 262.868 -2.72142 -1.76378 0
M  V30 2776 H 262.653 -3.89685 -0.434522 0
M  V30 2777 H 264.143 -3.92561 -1.42428 0
M  V30 2778 N 264.58 -0.43555 -1.51462 0
M  V30 2779 C 265.826 0.131709 -2.02372 0
M  V30 2780 C 266.159 1.42516 -1.3192 0
M  V30 2781 O 265.434 1.89606 -0.433573 0
M  V30 2782 C 265.717 0.352301 -3.58373 0
M  V30 2783 C 265.57 -0.959676 -4.39443 0
M  V30 2784 C 266.889 1.12286 -4.25535 0
M  V30 2785 H 264.008 0.0463936 -0.735538 0
M  V30 2786 H 266.65 -0.574197 -1.81116 0
M  V30 2787 H 264.8 0.9536 -3.76615 0
M  V30 2788 H 266.472 -1.59482 -4.32855 0
M  V30 2789 H 264.715 -1.56468 -4.04599 0
M  V30 2790 H 265.386 -0.759394 -5.46752 0
M  V30 2791 H 267.862 0.613545 -4.11552 0
M  V30 2792 H 266.738 1.24598 -5.34571 0
M  V30 2793 H 266.999 2.15048 -3.86273 0
M  V30 2794 N 266.058 1.56714 -0.166846 0
M  V30 2795 C 267.021 2.16539 0.751232 0
M  V30 2796 C 268.021 1.11228 1.16125 0
M  V30 2797 O 269.211 1.36765 1.07894 0
M  V30 2798 C 266.343 2.74462 2.02196 0
M  V30 2799 H 267.536 2.99013 0.230499 0
M  V30 2800 H 265.089 1.56081 0.0826982 0
M  V30 2801 H 265.824 1.95709 2.58589 0
M  V30 2802 H 265.609 3.51527 1.73698 0
M  V30 2803 H 267.099 3.20489 2.67725 0
M  V30 2804 N 267.536 -0.106894 1.57237 0
M  V30 2805 C 268.446 -1.14911 2.0453 0
M  V30 2806 C 269.462 -1.44592 0.96795 0
M  V30 2807 O 270.638 -1.55468 1.2803 0
M  V30 2808 C 267.703 -2.45272 2.45036 0
M  V30 2809 C 266.764 -2.22879 3.66911 0
M  V30 2810 C 265.997 -3.47024 4.05475 0
M  V30 2811 O 266.22 -4.54804 3.44252 0
M  V30 2812 O 265.154 -3.3731 4.98504 0
M  V30 2813 H 268.98 -0.777461 2.9358 0
M  V30 2814 H 266.565 -0.318563 1.45964 0
M  V30 2815 H 268.447 -3.22055 2.71769 0
M  V30 2816 H 267.122 -2.81886 1.59129 0
M  V30 2817 H 266.029 -1.43915 3.45311 0
M  V30 2818 H 267.362 -1.91163 4.53561 0
M  V30 2819 N 269.014 -1.53014 -0.377408 0
M  V30 2820 C 270.244 -1.72265 -1.14054 0
M  V30 2821 C 270.652 -0.44601 -1.83868 0
M  V30 2822 O 269.995 0.590095 -1.73964 0
M  V30 2823 C 270.057 -2.82492 -2.22348 0
M  V30 2824 C 269.721 -4.23233 -1.72402 0
M  V30 2825 C 270.718 -5.05992 -1.19448 0
M  V30 2826 C 268.403 -4.696 -1.78273 0
M  V30 2827 C 270.397 -6.33203 -0.730268 0
M  V30 2828 C 268.084 -5.96792 -1.31464 0
M  V30 2829 C 269.082 -6.78424 -0.789297 0
M  V30 2830 O 268.77 -8.0323 -0.328077 0
M  V30 2831 H 268.502 -0.579873 -0.347453 0
M  V30 2832 H 271.056 -2.00502 -0.445882 0
M  V30 2833 H 269.286 -2.49702 -2.95272 0
M  V30 2834 H 270.975 -2.90034 -2.83963 0
M  V30 2835 H 271.741 -4.71349 -1.14259 0
M  V30 2836 H 267.62 -4.06142 -2.18106 0
M  V30 2837 H 271.164 -6.96868 -0.319542 0
M  V30 2838 H 267.061 -6.30937 -1.36342 0
M  V30 2839 H 267.829 -8.1727 -0.448493 0
M  V30 2840 N 270.492 0.636531 -1.44174 0
M  V30 2841 C 271.908 0.954104 -1.27941 0
M  V30 2842 C 272.108 2.0039 -0.211248 0
M  V30 2843 O 271.164 2.49236 0.404695 0
M  V30 2844 C 272.477 1.4225 -2.64925 0
M  V30 2845 C 274.025 1.53827 -2.72592 0
M  V30 2846 C 274.5 2.04053 -4.10032 0
M  V30 2847 N 275.991 2.11331 -4.12182 0
M  V30 2848 C 276.726 2.51352 -5.15374 0
M  V30 2849 N 276.222 2.90549 -6.2893 0
M  V30 2850 N 278.015 2.51438 -5.02728 0
M  V30 2851 H 270.166 -0.0578386 -2.12321 0
M  V30 2852 H 272.429 0.0367406 -0.947288 0
M  V30 2853 H 272.135 0.725466 -3.44136 0
M  V30 2854 H 272.009 2.39451 -2.9145 0
M  V30 2855 H 274.396 2.22628 -1.93702 0
M  V30 2856 H 274.477 0.550154 -2.49814 0
M  V30 2857 H 274.121 1.35848 -4.89395 0
M  V30 2858 H 274.051 3.03726 -4.30184 0
M  V30 2859 H 276.542 1.83745 -3.30222 0
M  V30 2860 H 276.855 3.19884 -7.03487 0
M  V30 2861 H 275.2 2.88313 -6.32377 0
M  V30 2862 H 278.391 2.20203 -4.13072 0
M  V30 2863 H 278.564 2.82304 -5.83274 0
M  V30 2864 N 271.97 1.30982 0.876444 0
M  V30 2865 C 273.381 1.18277 1.44456 0
M  V30 2866 C 273.732 -0.213265 1.95037 0
M  V30 2867 O 272.857 -1.11057 1.85729 0
M  V30 2868 C 273.452 2.1411 2.62569 0
M  V30 2869 C 272.011 2.05358 3.15444 0
M  V30 2870 C 271.158 2.03706 1.88146 0
M  V30 2871 H 274.109 1.43127 0.685584 0
M  V30 2872 H 274.13 1.72692 3.39054 0
M  V30 2873 H 273.642 3.15706 2.25724 0
M  V30 2874 H 271.743 1.06934 3.56926 0
M  V30 2875 H 271.856 2.94156 3.78166 0
M  V30 2876 H 270.22 1.48629 2.06837 0
M  V30 2877 H 271.003 3.07047 1.53547 0
M  V30 2878 N 273.449 -1.08991 1.13837 0
M  V30 2879 C 274.697 -1.80899 0.901098 0
M  V30 2880 C 275.018 -1.86356 -0.574134 0
M  V30 2881 O 274.288 -1.35235 -1.41733 0
M  V30 2882 H 272.868 -0.669966 0.330386 0
M  V30 2883 H 275.53 -1.318 1.43578 0
M  V30 2884 H 274.626 -2.83929 1.29578 0
M  V30 2885 N 274.927 -0.932562 -1.27047 0
M  V30 2886 C 275.859 -0.392734 -2.2581 0
M  V30 2887 C 276.872 0.479241 -1.55586 0
M  V30 2888 O 278.061 0.291078 -1.76111 0
M  V30 2889 C 275.161 0.455456 -3.35826 0
M  V30 2890 C 274.334 -0.398355 -4.35582 0
M  V30 2891 C 273.393 0.387985 -5.24768 0
M  V30 2892 O 272.419 -0.206003 -5.68827 0
M  V30 2893 N 273.621 1.68664 -5.55457 0
M  V30 2894 H 276.386 -1.24173 -2.72766 0
M  V30 2895 H 273.947 -0.800511 -1.40725 0
M  V30 2896 H 275.939 0.988692 -3.92437 0
M  V30 2897 H 274.509 1.20522 -2.88432 0
M  V30 2898 H 273.729 -1.11286 -3.78165 0
M  V30 2899 H 275.017 -0.981889 -4.99236 0
M  V30 2900 H 274.415 2.19147 -5.21528 0
M  V30 2901 H 272.972 2.1663 -6.14748 0
M  V30 2902 N 276.405 1.4127 -0.698611 0
M  V30 2903 C 277.635 2.05205 -0.239644 0
M  V30 2904 C 278.043 1.52684 1.11733 0
M  V30 2905 O 277.386 0.671222 1.70998 0
M  V30 2906 C 277.448 3.59289 -0.123126 0
M  V30 2907 C 277.112 4.34619 -1.41263 0
M  V30 2908 C 278.109 4.63701 -2.35111 0
M  V30 2909 C 275.794 4.73837 -1.66684 0
M  V30 2910 C 277.788 5.30966 -3.52639 0
M  V30 2911 C 275.475 5.40837 -2.84498 0
M  V30 2912 C 276.473 5.69329 -3.77298 0
M  V30 2913 O 276.161 6.34949 -4.93047 0
M  V30 2914 H 275.893 0.66723 -0.108537 0
M  V30 2915 H 278.447 1.81974 -0.952602 0
M  V30 2916 H 276.677 3.81272 0.645628 0
M  V30 2917 H 278.366 4.04797 0.299056 0
M  V30 2918 H 279.132 4.33882 -2.16729 0
M  V30 2919 H 275.011 4.51039 -0.953135 0
M  V30 2920 H 278.555 5.53121 -4.25091 0
M  V30 2921 H 274.452 5.70075 -3.02795 0
M  V30 2922 H 275.22 6.53445 -4.92902 0
M  V30 2923 N 277.883 0.443576 1.51229 0
M  V30 2924 C 278.813 -0.355142 2.30783 0
M  V30 2925 C 279.794 -1.0154 1.36468 0
M  V30 2926 O 280.979 -1.01785 1.65389 0
M  V30 2927 C 278.109 -1.45312 3.15439 0
M  V30 2928 C 277.063 -0.916002 4.18083 0
M  V30 2929 C 276.389 -2.1102 4.91299 0
M  V30 2930 C 277.689 0.0538602 5.22272 0
M  V30 2931 H 279.383 0.308767 2.97804 0
M  V30 2932 H 276.929 0.149937 1.43217 0
M  V30 2933 H 278.882 -2.01914 3.69876 0
M  V30 2934 H 277.606 -2.14541 2.46252 0
M  V30 2935 H 276.265 -0.372145 3.64706 0
M  V30 2936 H 275.913 -2.78882 4.18609 0
M  V30 2937 H 275.613 -1.75717 5.60712 0
M  V30 2938 H 277.137 -2.68164 5.48562 0
M  V30 2939 H 278.551 -0.422069 5.71744 0
M  V30 2940 H 276.948 0.319776 5.99247 0
M  V30 2941 H 278.018 0.98858 4.74716 0
M  V30 2942 N 279.361 -1.56624 0.175154 0
M  V30 2943 C 280.609 -1.96609 -0.467885 0
M  V30 2944 C 280.93 -1.06238 -1.63519 0
M  V30 2945 O 280.2 -0.129523 -1.95471 0
M  V30 2946 H 278.78 -0.726008 -0.175845 0
M  V30 2947 H 281.442 -1.93195 0.257234 0
M  V30 2948 H 280.538 -3.00989 -0.825342 0
M  V30 2949 N 280.839 0.0985539 -1.57292 0
M  V30 2950 C 282.085 0.803867 -1.86188 0
M  V30 2951 C 282.418 1.78549 -0.763794 0
M  V30 2952 O 281.693 1.93153 0.22855 0
M  V30 2953 C 281.976 1.53568 -3.25713 0
M  V30 2954 C 281.829 0.572277 -4.46145 0
M  V30 2955 C 283.148 2.48708 -3.63087 0
M  V30 2956 H 280.267 0.290781 -0.677211 0
M  V30 2957 H 282.909 0.0675783 -1.8988 0
M  V30 2958 H 281.059 2.16332 -3.22696 0
M  V30 2959 H 282.731 -0.0480894 -4.61275 0
M  V30 2960 H 280.974 -0.114618 -4.33649 0
M  V30 2961 H 281.645 1.12139 -5.40489 0
M  V30 2962 H 284.121 1.96039 -3.67026 0
M  V30 2963 H 282.997 2.96932 -4.61652 0
M  V30 2964 H 283.258 3.32309 -2.91588 0
M  V30 2965 N 282.317 1.53212 0.369288 0
M  V30 2966 C 283.563 1.70413 1.11046 0
M  V30 2967 C 283.918 0.448509 1.87099 0
M  V30 2968 O 283.211 -0.558382 1.83283 0
M  V30 2969 C 283.405 2.89101 2.10132 0
M  V30 2970 C 283.234 4.26084 1.43814 0
M  V30 2971 C 282.004 4.90994 1.19384 0
M  V30 2972 C 284.202 5.06754 0.877802 0
M  V30 2973 N 282.184 6.11911 0.49377 0
M  V30 2974 C 283.555 6.1924 0.306891 0
M  V30 2975 C 285.61 4.91814 0.776129 0
M  V30 2976 C 284.313 7.1842 -0.355774 0
M  V30 2977 C 286.339 5.91263 0.127252 0
M  V30 2978 C 285.701 7.03069 -0.432801 0
M  V30 2979 H 281.8 0.676872 0.391623 0
M  V30 2980 H 284.384 1.90603 0.397334 0
M  V30 2981 H 282.555 2.70456 2.78761 0
M  V30 2982 H 284.287 2.95142 2.76899 0
M  V30 2983 H 281.042 4.50074 1.47413 0
M  V30 2984 H 281.466 6.76813 0.159207 0
M  V30 2985 H 286.108 4.05564 1.19489 0
M  V30 2986 H 283.826 8.04264 -0.786499 0
M  V30 2987 H 287.412 5.81779 0.0495613 0
M  V30 2988 H 286.292 7.78702 -0.926958 0
M  V30 2989 N 283.795 -0.628877 1.44509 0
M  V30 2990 C 284.725 -1.75187 1.54376 0
M  V30 2991 C 285.706 -1.65411 0.396618 0
M  V30 2992 O 286.891 -1.84137 0.617031 0
M  V30 2993 C 284.021 -3.13725 1.48976 0
M  V30 2994 C 282.975 -3.38291 2.62189 0
M  V30 2995 C 282.301 -4.76883 2.41841 0
M  V30 2996 C 283.601 -3.30632 4.04326 0
M  V30 2997 H 285.295 -1.67187 2.48373 0
M  V30 2998 H 282.841 -0.802909 1.19538 0
M  V30 2999 H 284.794 -3.92064 1.54478 0
M  V30 3000 H 283.518 -3.22515 0.514961 0
M  V30 3001 H 282.177 -2.62334 2.56079 0
M  V30 3002 H 281.825 -4.82378 1.42548 0
M  V30 3003 H 281.525 -4.94278 3.17747 0
M  V30 3004 H 283.049 -5.57449 2.49165 0
M  V30 3005 H 284.463 -3.98873 4.11793 0
M  V30 3006 H 282.86 -3.59561 4.80454 0
M  V30 3007 H 283.93 -2.28404 4.27738 0
M  V30 3008 N 285.273 -1.31445 -0.869486 0
M  V30 3009 C 286.22 -1.19135 -1.97675 0
M  V30 3010 C 287.19 -0.0770266 -1.65921 0
M  V30 3011 O 288.375 -0.249972 -1.89155 0
M  V30 3012 C 285.515 -0.905149 -3.33018 0
M  V30 3013 C 284.628 -2.10285 -3.77365 0
M  V30 3014 C 283.763 -1.75339 -5.01427 0
M  V30 3015 C 282.802 -2.91515 -5.38224 0
M  V30 3016 N 281.939 -2.56762 -6.53466 0
M  V30 3017 H 286.779 -2.13853 -2.07535 0
M  V30 3018 H 284.316 -1.06379 -1.01597 0
M  V30 3019 H 286.274 -0.719765 -4.10944 0
M  V30 3020 H 284.904 0.00519624 -3.228 0
M  V30 3021 H 283.956 -2.39899 -2.95216 0
M  V30 3022 H 285.268 -2.97237 -4.00564 0
M  V30 3023 H 284.422 -1.53266 -5.87022 0
M  V30 3024 H 283.161 -0.855801 -4.80133 0
M  V30 3025 H 282.166 -3.14237 -4.51149 0
M  V30 3026 H 283.391 -3.81985 -5.61484 0
M  V30 3027 H 281.337 -1.69526 -6.33717 0
M  V30 3028 H 281.254 -3.37243 -6.76612 0
M  V30 3029 H 282.522 -2.38083 -7.42251 0
M  V30 3030 N 286.751 1.08385 -1.14413 0
M  V30 3031 C 288.162 1.62258 -0.923535 0
M  V30 3032 C 288.513 1.88691 0.537595 0
M  V30 3033 O 287.638 1.64454 1.40655 0
M  V30 3034 C 288.233 2.94781 -1.67002 0
M  V30 3035 C 286.792 3.45437 -1.495 0
M  V30 3036 C 285.939 2.19668 -1.69238 0
M  V30 3037 H 288.89 0.916086 -1.2959 0
M  V30 3038 H 288.911 3.63229 -1.13334 0
M  V30 3039 H 288.423 2.7551 -2.73342 0
M  V30 3040 H 286.524 3.6981 -0.455097 0
M  V30 3041 H 286.637 4.22173 -2.2651 0
M  V30 3042 H 285.001 2.28849 -1.11804 0
M  V30 3043 H 285.784 2.02905 -2.7692 0
M  V30 3044 N 288.23 0.939286 1.26551 0
M  V30 3045 C 289.14 0.453432 2.30176 0
M  V30 3046 C 290.156 -0.471649 1.67486 0
M  V30 3047 O 291.332 -0.35164 1.98306 0
M  V30 3048 C 288.397 -0.275326 3.45605 0
M  V30 3049 C 287.458 0.686084 4.23782 0
M  V30 3050 C 286.691 -0.00798994 5.33699 0
M  V30 3051 O 286.914 -1.22528 5.57085 0
M  V30 3052 O 285.848 0.669746 5.98162 0
M  V30 3053 H 289.674 1.31416 2.73795 0
M  V30 3054 H 287.259 0.705095 1.31715 0
M  V30 3055 H 289.141 -0.685911 4.1578 0
M  V30 3056 H 287.816 -1.11147 3.0402 0
M  V30 3057 H 286.723 1.14658 3.56096 0
M  V30 3058 H 288.056 1.48979 4.69112 0
M  V30 3059 N 289.708 -1.40897 0.706093 0
M  V30 3060 C 290.956 -2.00657 0.241054 0
M  V30 3061 C 291.277 -1.56241 -1.16678 0
M  V30 3062 O 290.547 -0.79765 -1.78926 0
M  V30 3063 H 289.127 -0.742018 0.0861308 0
M  V30 3064 H 291.789 -1.72372 0.909604 0
M  V30 3065 H 290.885 -3.10958 0.266705 0
M  V30 3066 N 291.186 -0.45159 -1.50991 0
M  V30 3067 C 292.433 0.110074 -2.02201 0
M  V30 3068 C 292.761 1.4146 -1.33489 0
M  V30 3069 O 292.016 1.90617 -0.443125 0
M  V30 3070 C 292.315 0.361728 -3.55565 0
M  V30 3071 C 291.981 -0.858717 -4.42648 0
M  V30 3072 C 290.643 -1.19338 -4.66167 0
M  V30 3073 C 292.995 -1.67221 -4.93646 0
M  V30 3074 C 290.323 -2.34195 -5.37931 0
M  V30 3075 C 292.675 -2.8119 -5.6667 0
M  V30 3076 C 291.339 -3.15094 -5.88449 0
M  V30 3077 H 290.609 0.040279 -0.739904 0
M  V30 3078 H 293.256 -0.601696 -1.81802 0
M  V30 3079 H 291.561 1.15554 -3.74372 0
M  V30 3080 H 293.258 0.80996 -3.92735 0
M  V30 3081 H 289.848 -0.58796 -4.24548 0
M  V30 3082 H 294.032 -1.42686 -4.75347 0
M  V30 3083 H 289.288 -2.6076 -5.53005 0
M  V30 3084 H 293.462 -3.44585 -6.05173 0
M  V30 3085 H 291.089 -4.04204 -6.43835 0
M  V30 3086 N 292.664 1.56529 -0.183458 0
M  V30 3087 C 294.075 1.83739 0.331177 0
M  V30 3088 C 294.426 1.10373 1.62211 0
M  V30 3089 O 293.551 0.36071 2.13373 0
M  V30 3090 C 294.146 3.33306 0.607646 0
M  V30 3091 C 292.705 3.60969 1.06668 0
M  V30 3092 C 291.852 2.77086 0.109029 0
M  V30 3093 H 294.803 1.53379 -0.407484 0
M  V30 3094 H 294.824 3.51444 1.45832 0
M  V30 3095 H 294.336 3.86677 -0.332086 0
M  V30 3096 H 292.437 3.13021 2.0211 0
M  V30 3097 H 292.55 4.69231 0.967447 0
M  V30 3098 H 290.914 2.47319 0.608714 0
M  V30 3099 H 291.697 3.33241 -0.82494 0
M  V30 3100 N 294.142 -0.090211 1.57342 0
M  V30 3101 C 295.092 -1.11557 1.98844 0
M  V30 3102 C 296.076 -1.35503 0.867624 0
M  V30 3103 O 297.268 -1.36113 1.13148 0
M  V30 3104 C 294.397 -2.43446 2.42051 0
M  V30 3105 C 293.483 -2.22853 3.60828 0
M  V30 3106 N 293.874 -1.72141 4.75606 0
M  V30 3107 C 292.172 -2.53401 3.67021 0
M  V30 3108 C 292.873 -1.65932 5.57531 0
M  V30 3109 N 291.849 -2.11323 5.00843 0
M  V30 3110 H 295.651 -0.716499 2.85032 0
M  V30 3111 H 293.165 -0.297567 1.59651 0
M  V30 3112 H 295.162 -3.17644 2.70014 0
M  V30 3113 H 293.822 -2.84087 1.57241 0
M  V30 3114 H 294.833 -1.41268 4.98261 0
M  V30 3115 H 291.51 -2.97532 2.92884 0
M  V30 3116 H 292.9 -1.27733 6.59647 0
M  V30 3117 N 295.62 -1.53406 -0.361157 0
M  V30 3118 C 296.552 -1.76446 -1.46286 0
M  V30 3119 C 297.565 -0.645322 -1.49464 0
M  V30 3120 O 298.754 -0.921681 -1.52864 0
M  V30 3121 C 295.854 -1.83332 -2.85031 0
M  V30 3122 C 295.027 -3.13033 -3.05498 0
M  V30 3123 C 294.086 -3.11104 -4.24383 0
M  V30 3124 O 293.112 -3.84888 -4.19344 0
M  V30 3125 N 294.314 -2.32234 -5.32022 0
M  V30 3126 H 297.079 -2.71508 -1.26899 0
M  V30 3127 H 294.64 -1.52238 -0.550915 0
M  V30 3128 H 296.632 -1.79514 -3.62708 0
M  V30 3129 H 295.202 -0.955342 -2.97644 0
M  V30 3130 H 294.422 -3.30119 -2.15442 0
M  V30 3131 H 295.71 -3.9874 -3.16044 0
M  V30 3132 H 295.108 -1.71807 -5.38979 0
M  V30 3133 H 293.665 -2.3423 -6.08259 0
M  V30 3134 N 297.098 0.621204 -1.44841 0
M  V30 3135 C 298.008 1.7612 -1.5498 0
M  V30 3136 C 299.024 1.68477 -0.434927 0
M  V30 3137 O 300.2 1.89076 -0.693693 0
M  V30 3138 C 297.265 3.1254 -1.50065 0
M  V30 3139 C 296.326 3.31741 -2.72482 0
M  V30 3140 C 295.559 4.61653 -2.67792 0
M  V30 3141 O 295.782 5.431 -1.74352 0
M  V30 3142 O 294.716 4.83271 -3.58794 0
M  V30 3143 H 298.542 1.70518 -2.51311 0
M  V30 3144 H 296.127 0.783643 -1.27198 0
M  V30 3145 H 298.009 3.93844 -1.49882 0
M  V30 3146 H 296.684 3.18663 -0.568806 0
M  V30 3147 H 295.591 2.50077 -2.7823 0
M  V30 3148 H 296.924 3.30486 -3.64746 0
M  V30 3149 N 298.576 1.31904 0.862503 0
M  V30 3150 C 299.825 1.21373 1.61094 0
M  V30 3151 C 300.138 -0.22504 1.94301 0
M  V30 3152 O 301.344 -0.452121 2.67709 0
M  V30 3153 C 299.8 2.12525 2.9045 0
M  V30 3154 C 299.408 3.61441 2.64697 0
M  V30 3155 C 301.152 2.10813 3.68454 0
M  V30 3156 C 299.059 4.44578 3.90006 0
M  V30 3157 H 297.989 0.450705 0.604468 0
M  V30 3158 H 300.64 1.56811 0.953027 0
M  V30 3159 H 299.022 1.69994 3.57656 0
M  V30 3160 H 300.196 4.12264 2.05851 0
M  V30 3161 H 298.511 3.65205 2.00036 0
M  V30 3162 H 301.108 2.70167 4.61426 0
M  V30 3163 H 301.451 1.09713 4.01583 0
M  V30 3164 H 301.984 2.51583 3.08141 0
M  V30 3165 H 298.723 5.46461 3.62023 0
M  V30 3166 H 298.243 3.98508 4.48276 0
M  V30 3167 H 299.922 4.57176 4.5782 0
M  V30 3168 N 300.054 -1.07777 1.14986 0
M  V30 3169 C 301.47 -1.32373 0.891596 0
M  V30 3170 C 301.67 -1.9609 -0.463788 0
M  V30 3171 O 300.726 -2.21801 -1.20667 0
M  V30 3172 C 302.039 -2.21905 2.02925 0
M  V30 3173 C 303.587 -2.35367 2.06329 0
M  V30 3174 C 304.062 -3.28245 3.19405 0
M  V30 3175 N 305.553 -3.35824 3.19024 0
M  V30 3176 C 306.288 -4.07739 4.03158 0
M  V30 3177 N 305.784 -4.82306 4.97346 0
M  V30 3178 N 307.577 -4.03635 3.91197 0
M  V30 3179 H 299.728 -0.648039 2.02273 0
M  V30 3180 H 301.991 -0.348149 0.881757 0
M  V30 3181 H 301.697 -1.82342 3.0074 0
M  V30 3182 H 301.571 -3.22407 1.95789 0
M  V30 3183 H 303.958 -2.74186 1.09116 0
M  V30 3184 H 304.039 -1.34585 2.17533 0
M  V30 3185 H 303.683 -2.90146 4.16867 0
M  V30 3186 H 303.613 -4.28971 3.05437 0
M  V30 3187 H 306.104 -2.8267 2.50811 0
M  V30 3188 H 306.417 -5.34661 5.57994 0
M  V30 3189 H 304.762 -4.81337 5.01338 0
M  V30 3190 H 307.953 -3.44491 3.16928 0
M  V30 3191 H 308.126 -4.59417 4.5699 0
M  V30 3192 N 301.532 -0.945985 -1.26051 0
M  V30 3193 C 302.464 -0.416662 -2.25381 0
M  V30 3194 C 303.477 0.462712 -1.56086 0
M  V30 3195 O 304.666 0.272383 -1.7641 0
M  V30 3196 C 301.766 0.419812 -3.3629 0
M  V30 3197 C 300.939 -0.444531 -4.35135 0
M  V30 3198 C 299.998 0.332305 -5.2515 0
M  V30 3199 O 299.024 -0.266324 -5.68577 0
M  V30 3200 N 300.226 1.62763 -5.57215 0
M  V30 3201 H 302.991 -1.27059 -2.71433 0
M  V30 3202 H 300.552 -0.815392 -1.39868 0
M  V30 3203 H 302.544 0.947013 -3.93464 0
M  V30 3204 H 301.114 1.17456 -2.89694 0
M  V30 3205 H 300.334 -1.15291 -3.76964 0
M  V30 3206 H 301.622 -1.03478 -4.98166 0
M  V30 3207 H 301.02 2.13603 -5.23823 0
M  V30 3208 H 299.577 2.10097 -6.17011 0
M  V30 3209 N 303.011 1.40521 -0.713556 0
M  V30 3210 C 304.241 2.0494 -0.261395 0
M  V30 3211 C 304.649 1.53861 1.10107 0
M  V30 3212 O 303.992 0.689321 1.70276 0
M  V30 3213 C 304.054 3.59138 -0.161227 0
M  V30 3214 C 303.718 4.33096 -1.45865 0
M  V30 3215 C 304.715 4.61182 -2.40016 0
M  V30 3216 C 302.4 4.72043 -1.71701 0
M  V30 3217 C 304.394 5.27196 -3.58251 0
M  V30 3218 C 302.081 5.37789 -2.90218 0
M  V30 3219 C 303.079 5.65295 -3.83315 0
M  V30 3220 O 302.767 6.29683 -4.99754 0
M  V30 3221 H 302.499 0.666041 -0.115608 0
M  V30 3222 H 305.053 1.80954 -0.971849 0
M  V30 3223 H 303.283 3.81936 0.605153 0
M  V30 3224 H 304.972 4.05091 0.256105 0
M  V30 3225 H 305.738 4.31559 -2.21318 0
M  V30 3226 H 301.617 4.50003 -1.00092 0
M  V30 3227 H 305.161 5.48582 -4.30934 0
M  V30 3228 H 301.058 5.66831 -3.08825 0
M  V30 3229 H 301.826 6.4818 -4.99805 0
M  V30 3230 N 304.489 0.459591 1.5075 0
M  V30 3231 C 305.714 -0.0996819 2.0716 0
M  V30 3232 C 306.139 -1.33761 1.32249 0
M  V30 3233 O 305.497 -1.77551 0.366786 0
M  V30 3234 C 305.545 -0.378226 3.58611 0
M  V30 3235 O 304.649 -1.46081 3.85661 0
M  V30 3236 H 303.99 0.00791392 0.663953 0
M  V30 3237 H 306.52 0.647329 1.9409 0
M  V30 3238 H 306.53 -0.622135 4.03229 0
M  V30 3239 H 305.205 0.526439 4.12555 0
M  V30 3240 H 303.782 -1.20511 3.5289 0
M  V30 3241 N 305.967 -1.56429 0.191757 0
M  V30 3242 C 306.897 -2.21937 -0.725696 0
M  V30 3243 C 307.878 -1.1814 -1.2238 0
M  V30 3244 O 309.063 -1.46636 -1.27325 0
M  V30 3245 C 306.193 -2.87611 -1.94672 0
M  V30 3246 C 305.147 -3.97623 -1.58366 0
M  V30 3247 C 304.473 -4.50446 -2.88102 0
M  V30 3248 C 305.773 -5.16197 -0.796133 0
M  V30 3249 H 307.467 -2.98861 -0.179606 0
M  V30 3250 H 305.013 -1.43749 -0.0849464 0
M  V30 3251 H 306.966 -3.3212 -2.59373 0
M  V30 3252 H 305.69 -2.08087 -2.51728 0
M  V30 3253 H 304.349 -3.53801 -0.960247 0
M  V30 3254 H 303.997 -3.67688 -3.43241 0
M  V30 3255 H 303.697 -5.24675 -2.64556 0
M  V30 3256 H 305.221 -4.97654 -3.53798 0
M  V30 3257 H 306.635 -5.57271 -1.34618 0
M  V30 3258 H 305.032 -5.96471 -0.658928 0
M  V30 3259 H 306.102 -4.84473 0.203478 0
M  V30 3260 N 307.445 0.0818655 -1.57387 0
M  V30 3261 C 308.673 0.796108 -1.9097 0
M  V30 3262 C 309.088 1.71626 -0.786757 0
M  V30 3263 O 308.445 1.80908 0.240513 0
M  V30 3264 C 308.496 1.59829 -3.24248 0
M  V30 3265 O 308.217 0.715131 -4.32224 0
M  V30 3266 C 309.718 2.41442 -3.7178 0
M  V30 3267 H 306.938 0.22691 -0.631469 0
M  V30 3268 H 309.482 0.0551439 -2.04426 0
M  V30 3269 H 307.637 2.29163 -3.12351 0
M  V30 3270 H 308.051 1.27205 -5.08841 0
M  V30 3271 H 309.525 2.932 -4.67694 0
M  V30 3272 H 310.002 3.2051 -3.00283 0
M  V30 3273 H 310.608 1.77283 -3.86589 0
M  V30 3274 N 308.923 1.53595 0.353017 0
M  V30 3275 C 310.339 1.43648 0.695516 0
M  V30 3276 C 310.539 0.585617 1.92802 0
M  V30 3277 O 309.595 0.0729223 2.52395 0
M  V30 3278 C 310.908 2.8701 0.896991 0
M  V30 3279 C 312.456 2.96723 0.996209 0
M  V30 3280 C 312.931 4.41173 1.23007 0
M  V30 3281 N 314.422 4.44657 1.29749 0
M  V30 3282 C 315.157 5.53547 1.49577 0
M  V30 3283 N 314.653 6.72461 1.66639 0
M  V30 3284 N 316.446 5.41145 1.52048 0
M  V30 3285 H 308.597 2.07415 -0.457481 0
M  V30 3286 H 310.86 0.9372 -0.142687 0
M  V30 3287 H 310.566 3.51644 0.0629938 0
M  V30 3288 H 310.44 3.31401 1.80148 0
M  V30 3289 H 312.827 2.32235 1.82074 0
M  V30 3290 H 312.908 2.55707 0.0688331 0
M  V30 3291 H 312.552 5.06238 0.410505 0
M  V30 3292 H 312.482 4.79772 2.17086 0
M  V30 3293 H 314.973 3.58963 1.18126 0
M  V30 3294 H 315.286 7.51214 1.81378 0
M  V30 3295 H 313.631 6.75423 1.63794 0
M  V30 3296 H 316.822 4.47205 1.38294 0
M  V30 3297 H 316.995 6.26068 1.67159 0
M  V30 3298 N 310.401 -0.613514 1.45168 0
M  V30 3299 C 311.348 -1.72456 1.53387 0
M  V30 3300 C 312.318 -1.6169 0.380191 0
M  V30 3301 O 313.503 -1.81356 0.592836 0
M  V30 3302 C 310.643 -3.10753 1.50088 0
M  V30 3303 C 309.756 -3.32368 2.75963 0
M  V30 3304 C 308.891 -4.60737 2.64376 0
M  V30 3305 C 307.93 -4.7559 3.85332 0
M  V30 3306 N 307.067 -5.95253 3.72315 0
M  V30 3307 H 311.907 -1.64768 2.48305 0
M  V30 3308 H 309.444 -0.803503 1.23216 0
M  V30 3309 H 311.402 -3.90758 1.46164 0
M  V30 3310 H 310.032 -3.17413 0.587243 0
M  V30 3311 H 309.084 -2.4618 2.89999 0
M  V30 3312 H 310.396 -3.39218 3.65695 0
M  V30 3313 H 309.55 -5.48928 2.58385 0
M  V30 3314 H 308.289 -4.56275 1.72233 0
M  V30 3315 H 307.294 -3.85824 3.91688 0
M  V30 3316 H 308.519 -4.81854 4.78533 0
M  V30 3317 H 306.465 -5.91847 2.82937 0
M  V30 3318 H 306.382 -6.03236 4.55677 0
M  V30 3319 H 307.65 -6.85958 3.70246 0
M  V30 3320 N 311.879 -1.3236 -0.855495 0
M  V30 3321 C 313.29 -1.2056 -1.42556 0
M  V30 3322 C 313.641 0.182209 -1.95352 0
M  V30 3323 O 312.766 1.08088 -1.87472 0
M  V30 3324 C 313.361 -2.1826 -2.59129 0
M  V30 3325 C 311.92 -2.10351 -3.12137 0
M  V30 3326 C 311.067 -2.06674 -1.84882 0
M  V30 3327 H 314.018 -1.442 -0.662727 0
M  V30 3328 H 314.039 -1.78064 -3.36264 0
M  V30 3329 H 313.551 -3.19257 -2.20673 0
M  V30 3330 H 311.652 -1.12599 -3.55179 0
M  V30 3331 H 311.765 -3.00135 -3.73438 0
M  V30 3332 H 310.129 -1.51901 -2.04446 0
M  V30 3333 H 310.912 -3.09451 -1.48643 0
M  V30 3334 N 313.357 1.07166 -1.15556 0
M  V30 3335 C 314.634 1.76546 -0.842069 0
M  V30 3336 C 315.014 2.00453 0.661939 0
M  V30 3337 O 314.362 1.62452 1.60691 0
M  V30 3338 C 314.572 3.07266 -1.65495 0
M  V30 3339 C 315.92 3.81578 -1.86234 0
M  V30 3340 O 316.944 3.17083 -1.62287 0
M  V30 3341 O 315.803 4.97419 -2.26355 0
M  V30 3342 H 312.897 0.766756 -0.309862 0
M  V30 3343 H 315.443 1.13514 -1.26145 0
M  V30 3344 H 314.215 2.85494 -2.67598 0
M  V30 3345 H 313.838 3.7803 -1.23203 0
M  V30 3346 N 314.835 0.952656 1.25548 0
M  V30 3347 C 316.083 0.605176 1.92826 0
M  V30 3348 C 316.404 -0.860261 1.74999 0
M  V30 3349 O 315.674 -1.6125 1.11244 0
M  V30 3350 H 314.254 0.220832 0.713612 0
M  V30 3351 H 316.916 1.21047 1.52754 0
M  V30 3352 H 316.012 0.832798 3.00784 0
M  V30 3353 N 316.313 -1.40141 0.720998 0
M  V30 3354 C 317.26 -2.30688 0.071919 0
M  V30 3355 C 318.23 -1.48476 -0.744584 0
M  V30 3356 O 319.415 -1.77201 -0.707423 0
M  V30 3357 C 316.555 -3.34724 -0.839855 0
M  V30 3358 C 315.668 -4.31998 -0.0122438 0
M  V30 3359 C 314.803 -5.23102 -0.923995 0
M  V30 3360 C 313.842 -6.12033 -0.0907969 0
M  V30 3361 N 312.979 -6.95537 -0.957718 0
M  V30 3362 H 317.819 -2.85628 0.849755 0
M  V30 3363 H 315.356 -1.40653 0.430726 0
M  V30 3364 H 317.314 -3.93618 -1.38279 0
M  V30 3365 H 315.944 -2.81274 -1.58381 0
M  V30 3366 H 314.996 -3.74841 0.64794 0
M  V30 3367 H 316.308 -4.94772 0.632595 0
M  V30 3368 H 315.462 -5.86953 -1.53527 0
M  V30 3369 H 314.201 -4.60615 -1.60264 0
M  V30 3370 H 313.206 -5.47207 0.533377 0
M  V30 3371 H 314.431 -6.76581 0.584428 0
M  V30 3372 H 312.377 -6.35633 -1.62192 0
M  V30 3373 H 312.294 -7.55099 -0.36904 0
M  V30 3374 H 313.562 -7.63832 -1.555 0
M  V30 3375 N 317.792 -0.46758 -1.50504 0
M  V30 3376 C 319.04 0.0884469 -2.01906 0
M  V30 3377 C 319.361 1.40532 -1.35188 0
M  V30 3378 O 318.631 1.89515 -0.496079 0
M  V30 3379 H 317.211 0.0356765 -0.746148 0
M  V30 3380 H 319.873 -0.6172 -1.84869 0
M  V30 3381 H 318.969 0.2425 -3.11156 0
M  V30 3382 N 319.27 1.56325 -0.20005 0
M  V30 3383 C 320.5 2.01811 0.442232 0
M  V30 3384 C 320.908 1.07932 1.55394 0
M  V30 3385 O 320.251 0.0772685 1.83537 0
M  V30 3386 C 320.313 3.43685 1.05457 0
M  V30 3387 C 319.977 4.56928 0.0809833 0
M  V30 3388 C 320.974 5.15009 -0.711471 0
M  V30 3389 C 318.659 5.0229 -0.0315364 0
M  V30 3390 C 320.653 6.16904 -1.60336 0
M  V30 3391 C 318.34 6.04028 -0.926981 0
M  V30 3392 C 319.338 6.6121 -1.71146 0
M  V30 3393 O 319.026 7.60971 -2.59189 0
M  V30 3394 H 318.758 0.666173 0.114848 0
M  V30 3395 H 321.312 2.03085 -0.307511 0
M  V30 3396 H 319.542 3.39413 1.85299 0
M  V30 3397 H 321.231 3.72948 1.60201 0
M  V30 3398 H 321.997 4.80827 -0.634873 0
M  V30 3399 H 317.876 4.57476 0.568902 0
M  V30 3400 H 321.42 6.61464 -2.21611 0
M  V30 3401 H 317.317 6.37634 -1.00468 0
M  V30 3402 H 318.085 7.7841 -2.53023 0
M  V30 3403 N 320.748 -0.0735177 1.57428 0
M  V30 3404 C 322.164 -0.428264 1.53747 0
M  V30 3405 C 322.364 -1.79272 0.91998 0
M  V30 3406 O 321.42 -2.47051 0.521745 0
M  V30 3407 C 322.733 -0.370914 2.98404 0
M  V30 3408 C 324.281 -0.451224 3.0973 0
M  V30 3409 C 324.756 -0.4238 4.56035 0
M  V30 3410 N 326.247 -0.483925 4.60665 0
M  V30 3411 C 326.982 -0.484891 5.71346 0
M  V30 3412 N 326.478 -0.440775 6.91396 0
M  V30 3413 N 328.271 -0.531319 5.59583 0
M  V30 3414 H 320.422 0.819949 1.95935 0
M  V30 3415 H 322.685 0.307493 0.896745 0
M  V30 3416 H 322.391 0.564956 3.47133 0
M  V30 3417 H 322.265 -1.18176 3.5821 0
M  V30 3418 H 324.652 -1.37752 2.60976 0
M  V30 3419 H 324.733 0.388167 2.52838 0
M  V30 3420 H 324.377 0.498638 5.05446 0
M  V30 3421 H 324.307 -1.2807 5.10789 0
M  V30 3422 H 326.798 -0.522338 3.74273 0
M  V30 3423 H 327.111 -0.44539 7.71515 0
M  V30 3424 H 325.456 -0.40749 6.93804 0
M  V30 3425 H 328.647 -0.563464 4.64696 0
M  V30 3426 H 328.82 -0.528603 6.4584 0
M  V30 3427 N 322.226 -1.5378 -0.344866 0
M  V30 3428 C 323.475 -1.7018 -1.08267 0
M  V30 3429 C 323.788 -0.471 -1.89845 0
M  V30 3430 O 324.994 -0.515917 -2.66553 0
M  V30 3431 C 323.45 -3.00923 -1.97417 0
M  V30 3432 C 323.058 -4.31335 -1.21053 0
M  V30 3433 C 324.802 -3.26688 -2.71063 0
M  V30 3434 C 322.709 -5.53153 -2.09225 0
M  V30 3435 H 321.639 -0.634138 -0.407903 0
M  V30 3436 H 324.29 -1.8028 -0.342246 0
M  V30 3437 H 322.672 -2.84676 -2.75274 0
M  V30 3438 H 323.846 -4.58281 -0.481159 0
M  V30 3439 H 322.161 -4.12173 -0.591813 0
M  V30 3440 H 324.758 -4.1489 -3.37299 0
M  V30 3441 H 325.101 -2.43639 -3.37558 0
M  V30 3442 H 325.634 -3.43705 -2.0028 0
M  V30 3443 H 322.373 -6.38741 -1.47274 0
M  V30 3444 H 321.893 -5.30458 -2.79955 0
M  V30 3445 H 323.572 -5.88744 -2.68308 0
M  V30 3446 N 323.704 0.605807 -1.45491 0
M  V30 3447 C 324.667 1.69836 -1.5391 0
M  V30 3448 C 325.667 1.55261 -0.418424 0
M  V30 3449 O 326.857 1.60296 -0.681965 0
M  V30 3450 C 323.989 3.09117 -1.43734 0
M  V30 3451 H 325.182 1.63738 -2.51257 0
M  V30 3452 H 322.735 0.821689 -1.32959 0
M  V30 3453 H 323.47 3.20791 -0.475788 0
M  V30 3454 H 323.255 3.21104 -2.25021 0
M  V30 3455 H 324.745 3.88696 -1.52661 0
M  V30 3456 N 325.182 1.32811 0.848464 0
M  V30 3457 C 326.428 1.23907 1.60546 0
M  V30 3458 C 326.761 -0.197161 1.93197 0
M  V30 3459 O 326.036 -1.13596 1.5788 0
M  V30 3460 C 326.319 2.10489 2.92175 0
M  V30 3461 C 326.172 3.62522 2.66266 0
M  V30 3462 C 327.491 1.97075 3.93509 0
M  V30 3463 H 324.61 0.451459 0.58254 0
M  V30 3464 H 327.252 1.62818 0.979296 0
M  V30 3465 H 325.402 1.77434 3.45614 0
M  V30 3466 H 327.074 4.05821 2.19334 0
M  V30 3467 H 325.317 3.84879 2.00126 0
M  V30 3468 H 325.988 4.18437 3.6002 0
M  V30 3469 H 328.464 2.26045 3.49346 0
M  V30 3470 H 327.34 2.59923 4.83457 0
M  V30 3471 H 327.601 0.940186 4.31987 0
M  V30 3472 N 326.66 -1.06551 1.16123 0
M  V30 3473 C 327.607 -2.13961 0.865414 0
M  V30 3474 C 328.577 -1.65066 -0.185055 0
M  V30 3475 O 329.762 -1.90732 -0.05083 0
M  V30 3476 C 326.902 -3.43113 0.369776 0
M  V30 3477 C 326.015 -4.05756 1.48276 0
M  V30 3478 C 325.15 -5.22773 0.942414 0
M  V30 3479 C 324.189 -5.77395 2.03179 0
M  V30 3480 N 323.326 -6.85731 1.50721 0
M  V30 3481 H 328.166 -2.38605 1.78527 0
M  V30 3482 H 325.703 -1.17072 0.890646 0
M  V30 3483 H 327.661 -4.17151 0.0640643 0
M  V30 3484 H 326.291 -3.18695 -0.513143 0
M  V30 3485 H 325.343 -3.29292 1.9045 0
M  V30 3486 H 326.655 -4.42351 2.30493 0
M  V30 3487 H 325.809 -6.03827 0.589729 0
M  V30 3488 H 324.548 -4.87618 0.0895191 0
M  V30 3489 H 323.553 -4.94981 2.3932 0
M  V30 3490 H 324.778 -6.14603 2.8886 0
M  V30 3491 H 322.724 -6.52499 0.676811 0
M  V30 3492 H 322.641 -7.21254 2.26557 0
M  V30 3493 H 323.909 -7.7047 1.18303 0
M  V30 3494 N 328.138 -0.959301 -1.25041 0
M  V30 3495 C 329.554 -0.664474 -1.4511 0
M  V30 3496 C 329.754 0.776481 -1.85938 0
M  V30 3497 O 328.81 1.55128 -1.99227 0
M  V30 3498 C 330.123 -1.64139 -2.5195 0
M  V30 3499 C 331.671 -1.65309 -2.65786 0
M  V30 3500 C 332.146 -2.61777 -3.75815 0
M  V30 3501 N 333.637 -2.60169 -3.83231 0
M  V30 3502 C 334.372 -3.31489 -4.6787 0
M  V30 3503 N 333.868 -4.12298 -5.56761 0
M  V30 3504 N 335.661 -3.20354 -4.61876 0
M  V30 3505 H 327.812 -1.89043 -0.968332 0
M  V30 3506 H 330.075 -0.813408 -0.4869 0
M  V30 3507 H 329.781 -2.67086 -2.28819 0
M  V30 3508 H 329.655 -1.40756 -3.49954 0
M  V30 3509 H 332.042 -0.630778 -2.8828 0
M  V30 3510 H 332.123 -1.92753 -1.68167 0
M  V30 3511 H 331.767 -3.64137 -3.54071 0
M  V30 3512 H 331.697 -2.31616 -4.72929 0
M  V30 3513 H 334.188 -2.01507 -3.19692 0
M  V30 3514 H 334.501 -4.63625 -6.18281 0
M  V30 3515 H 332.846 -4.16395 -5.56454 0
M  V30 3516 H 336.037 -2.56692 -3.91442 0
M  V30 3517 H 336.21 -3.76201 -5.27614 0
M  V30 3518 N 329.616 1.39756 -0.72842 0
M  V30 3519 C 330.526 2.34444 -0.0855374 0
M  V30 3520 C 331.542 1.57976 0.729356 0
M  V30 3521 O 332.718 1.90301 0.659346 0
M  V30 3522 C 329.783 3.36965 0.815798 0
M  V30 3523 C 328.844 4.29299 -0.0105996 0
M  V30 3524 C 328.077 5.26923 0.84781 0
M  V30 3525 O 328.3 5.30859 2.08673 0
M  V30 3526 O 327.234 6.01249 0.279969 0
M  V30 3527 H 331.06 2.91065 -0.866892 0
M  V30 3528 H 328.645 1.4117 -0.48902 0
M  V30 3529 H 330.527 3.99804 1.33171 0
M  V30 3530 H 329.202 2.82739 1.57608 0
M  V30 3531 H 328.109 3.69703 -0.571877 0
M  V30 3532 H 329.442 4.86712 -0.73295 0
M  V30 3533 N 331.094 0.475555 1.50254 0
M  V30 3534 C 332.004 -0.321501 2.32387 0
M  V30 3535 C 333.02 -0.991755 1.42969 0
M  V30 3536 O 334.196 -0.978747 1.76018 0
M  V30 3537 C 331.261 -1.38667 3.17762 0
M  V30 3538 C 330.322 -0.732538 4.23004 0
M  V30 3539 C 329.555 -1.74695 5.04299 0
M  V30 3540 O 329.778 -2.97399 4.86734 0
M  V30 3541 O 328.712 -1.31631 5.8733 0
M  V30 3542 H 332.538 0.350071 3.01676 0
M  V30 3543 H 330.123 0.237321 1.47503 0
M  V30 3544 H 332.005 -2.00354 3.70724 0
M  V30 3545 H 330.68 -2.04163 2.51196 0
M  V30 3546 H 329.587 -0.0765902 3.74022 0
M  V30 3547 H 330.92 -0.120452 4.92053 0
M  V30 3548 N 332.573 -1.56217 0.208337 0
M  V30 3549 C 333.821 -1.97558 -0.426076 0
M  V30 3550 C 334.142 -1.09683 -1.61229 0
M  V30 3551 O 333.412 -0.170956 -1.95153 0
M  V30 3552 H 331.992 -0.729575 -0.160405 0
M  V30 3553 H 334.654 -1.92606 0.298155 0
M  V30 3554 H 333.75 -3.02672 -0.761312 0
M  V30 3555 N 334.051 0.0651679 -1.57465 0
M  V30 3556 C 335.299 0.761555 -1.87202 0
M  V30 3557 C 335.62 1.77778 -0.801243 0
M  V30 3558 O 334.89 1.95166 0.16937 0
M  V30 3559 H 333.47 0.284251 -0.690804 0
M  V30 3560 H 336.132 0.0396827 -1.9486 0
M  V30 3561 H 335.228 1.27365 -2.84929 0
M  V30 3562 N 335.529 1.53961 0.336706 0
M  V30 3563 C 336.461 1.78751 1.4346 0
M  V30 3564 C 337.474 0.669019 1.48418 0
M  V30 3565 O 338.663 0.945884 1.51378 0
M  V30 3566 C 335.763 1.87844 2.82078 0
M  V30 3567 C 334.936 3.17854 3.00479 0
M  V30 3568 C 333.995 3.17816 4.19379 0
M  V30 3569 O 333.021 3.91511 4.13168 0
M  V30 3570 N 334.223 2.40669 5.2826 0
M  V30 3571 H 336.988 2.73493 1.22563 0
M  V30 3572 H 334.549 1.53096 0.526625 0
M  V30 3573 H 336.541 1.85261 3.59806 0
M  V30 3574 H 335.111 1.00257 2.96086 0
M  V30 3575 H 334.331 3.33504 2.10163 0
M  V30 3576 H 335.619 4.03718 3.0966 0
M  V30 3577 H 335.017 1.8036 5.36178 0
M  V30 3578 H 333.574 2.43877 6.04456 0
M  V30 3579 N 337.007 -0.598083 1.45811 0
M  V30 3580 C 338.253 -1.35882 1.50545 0
M  V30 3581 C 338.586 -1.93616 0.150445 0
M  V30 3582 O 337.861 -1.75604 -0.83628 0
M  V30 3583 C 338.144 -2.49966 2.59208 0
M  V30 3584 C 337.997 -1.97367 4.04186 0
M  V30 3585 C 339.316 -3.52068 2.64076 0
M  V30 3586 H 336.435 -0.492717 0.548087 0
M  V30 3587 H 339.077 -0.673319 1.77669 0
M  V30 3588 H 337.227 -3.08443 2.3621 0
M  V30 3589 H 338.899 -1.43466 4.38423 0
M  V30 3590 H 337.142 -1.283 4.14393 0
M  V30 3591 H 337.813 -2.79649 4.75921 0
M  V30 3592 H 340.289 -3.03448 2.84708 0
M  V30 3593 H 339.165 -4.2937 3.41954 0
M  V30 3594 H 339.426 -4.08304 1.69531 0
M  V30 3595 N 338.485 -1.33259 -0.841409 0
M  V30 3596 C 339.71 -1.2775 -1.63385 0
M  V30 3597 C 340.135 0.149188 -1.87507 0
M  V30 3598 O 339.493 1.10498 -1.43736 0
M  V30 3599 C 339.541 -2.05571 -2.96265 0
M  V30 3600 O 338.645 -1.41257 -3.87453 0
M  V30 3601 H 337.986 -0.439627 -0.497618 0
M  V30 3602 H 340.516 -1.75782 -1.04699 0
M  V30 3603 H 340.526 -2.16241 -3.45982 0
M  V30 3604 H 339.201 -3.09309 -2.7803 0
M  V30 3605 H 337.778 -1.39217 -3.45938 0
M  V30 3606 N 339.963 1.05934 -1.16686 0
M  V30 3607 C 340.911 2.15603 -0.872817 0
M  V30 3608 C 341.905 1.68647 0.159576 0
M  V30 3609 O 343.111 1.79995 0.0132125 0
M  V30 3610 H 339.486 0.703885 -0.264671 0
M  V30 3611 H 341.457 2.37613 -1.80507 0
M  V30 3612 C 340.206 3.45457 -0.394344 0
M  V30 3613 H 339.529 3.81984 -1.18019 0
M  V30 3614 H 340.969 4.2339 -0.227408 0
M  V30 3615 C 339.428 3.25021 0.88673 0
M  V30 3616 O 339.958 3.50906 1.95519 0
M  V30 3617 N 338.164 2.78437 0.831925 0
M  V30 3618 H 337.711 2.57572 -0.0377619 0
M  V30 3619 H 337.669 2.65144 1.68956 0
M  V30 3620 N 341.441 0.965919 1.2453 0
M  V30 3621 C 342.687 0.637349 1.93156 0
M  V30 3622 C 343.042 -0.818261 1.74133 0
M  V30 3623 O 342.335 -1.58079 1.08266 0
M  V30 3624 C 342.529 0.945428 3.44669 0
M  V30 3625 C 342.358 2.42944 3.78429 0
M  V30 3626 C 341.128 3.08895 3.9989 0
M  V30 3627 C 343.326 3.40941 3.8505 0
M  V30 3628 N 341.308 4.47052 4.20735 0
M  V30 3629 C 342.679 4.64448 4.10717 0
M  V30 3630 C 344.734 3.35624 3.67779 0
M  V30 3631 C 343.437 5.83292 4.20907 0
M  V30 3632 C 345.463 4.53818 3.79214 0
M  V30 3633 C 344.825 5.76114 4.05304 0
M  V30 3634 H 340.924 0.284034 0.728594 0
M  V30 3635 H 343.508 1.24041 1.50073 0
M  V30 3636 H 341.679 0.371193 3.86622 0
M  V30 3637 H 343.411 0.575613 4.00586 0
M  V30 3638 H 340.166 2.59432 3.96222 0
M  V30 3639 H 340.59 5.18634 4.35141 0
M  V30 3640 H 345.232 2.4211 3.46616 0
M  V30 3641 H 342.95 6.77236 4.40883 0
M  V30 3642 H 346.536 4.51263 3.67224 0
M  V30 3643 H 345.416 6.66045 4.13949 0
M  V30 3644 N 342.919 -1.39368 0.735821 0
M  V30 3645 C 343.849 -2.33234 0.111506 0
M  V30 3646 C 344.83 -1.53954 -0.723334 0
M  V30 3647 O 346.015 -1.82344 -0.668147 0
M  V30 3648 C 343.145 -3.38057 -0.795917 0
M  V30 3649 C 342.099 -4.2795 -0.065172 0
M  V30 3650 C 341.425 -5.23479 -1.08967 0
M  V30 3651 C 342.725 -5.10741 1.09273 0
M  V30 3652 H 344.419 -2.85692 0.895571 0
M  V30 3653 H 341.965 -1.37364 0.432109 0
M  V30 3654 H 343.918 -4.02675 -1.24221 0
M  V30 3655 H 342.642 -2.8404 -1.61211 0
M  V30 3656 H 341.301 -3.64813 0.361511 0
M  V30 3657 H 340.949 -4.65758 -1.89944 0
M  V30 3658 H 340.649 -5.84472 -0.605489 0
M  V30 3659 H 342.173 -5.90974 -1.53565 0
M  V30 3660 H 343.587 -5.68699 0.724841 0
M  V30 3661 H 341.984 -5.8088 1.50659 0
M  V30 3662 H 343.054 -4.45525 1.91404 0
M  V30 3663 N 344.397 -0.483516 -1.5 0
M  V30 3664 C 345.347 0.32306 -2.257 0
M  V30 3665 C 346.331 0.950755 -1.29805 0
M  V30 3666 O 347.523 0.861247 -1.54634 0
M  V30 3667 C 344.652 1.39724 -3.13579 0
M  V30 3668 C 343.738 0.776663 -4.16928 0
M  V30 3669 N 344.129 -0.1104 -5.0568 0
M  V30 3670 C 342.427 1.03922 -4.33724 0
M  V30 3671 C 343.128 -0.46387 -5.79848 0
M  V30 3672 N 342.104 0.163987 -5.43353 0
M  V30 3673 H 345.906 -0.360086 -2.91686 0
M  V30 3674 H 343.42 -0.298456 -1.59634 0
M  V30 3675 H 345.417 1.98837 -3.66428 0
M  V30 3676 H 344.077 2.08225 -2.49143 0
M  V30 3677 H 345.088 -0.480069 -5.1567 0
M  V30 3678 H 341.765 1.71829 -3.80501 0
M  V30 3679 H 343.155 -1.18854 -6.61304 0
M  V30 3680 N 345.875 1.56104 -0.216619 0
M  V30 3681 C 346.823 2.21434 0.712036 0
M  V30 3682 C 347.817 1.19218 1.20348 0
M  V30 3683 O 349.023 1.3731 1.16387 0
M  V30 3684 H 345.398 0.70992 0.248026 0
M  V30 3685 H 347.369 2.98083 0.137558 0
M  V30 3686 C 346.118 2.90434 1.91163 0
M  V30 3687 H 345.441 3.68842 1.54258 0
M  V30 3688 H 346.881 3.39552 2.5393 0
M  V30 3689 C 345.34 1.92635 2.76394 0
M  V30 3690 O 345.87 1.44017 3.74996 0
M  V30 3691 N 344.076 1.60392 2.42328 0
M  V30 3692 H 343.623 2.00122 1.622 0
M  V30 3693 H 343.581 0.952159 2.99635 0
M  V30 3694 N 347.353 -0.0568162 1.57498 0
M  V30 3695 C 348.303 -1.07315 2.01166 0
M  V30 3696 C 349.287 -1.33632 0.896171 0
M  V30 3697 O 350.479 -1.33682 1.16009 0
M  V30 3698 C 347.608 -2.38257 2.47161 0
M  V30 3699 C 346.694 -2.1515 3.65474 0
M  V30 3700 N 347.085 -1.62014 4.7915 0
M  V30 3701 C 345.383 -2.45559 3.72313 0
M  V30 3702 C 346.084 -1.54069 5.60926 0
M  V30 3703 N 345.06 -2.00652 5.05213 0
M  V30 3704 H 348.862 -0.655878 2.86488 0
M  V30 3705 H 346.376 -0.263635 1.60246 0
M  V30 3706 H 348.373 -3.11845 2.76691 0
M  V30 3707 H 347.033 -2.80687 1.63232 0
M  V30 3708 H 348.044 -1.30667 5.01145 0
M  V30 3709 H 344.721 -2.91253 2.99129 0
M  V30 3710 H 346.111 -1.13712 6.62208 0
M  V30 3711 N 348.832 -1.54138 -0.328536 0
M  V30 3712 C 349.795 -1.82462 -1.38709 0
M  V30 3713 C 350.795 -0.696229 -1.44946 0
M  V30 3714 O 351.985 -0.964535 -1.4506 0
M  V30 3715 C 349.117 -1.98018 -2.77492 0
M  V30 3716 H 350.31 -2.77037 -1.14851 0
M  V30 3717 H 347.863 -1.45779 -0.563751 0
M  V30 3718 H 348.598 -1.05637 -3.06613 0
M  V30 3719 H 348.383 -2.80124 -2.74359 0
M  V30 3720 H 349.873 -2.21396 -3.54081 0
M  V30 3721 N 350.31 0.590341 -1.46126 0
M  V30 3722 C 351.258 1.72105 -1.5647 0
M  V30 3723 C 352.252 1.63756 -0.433612 0
M  V30 3724 O 353.458 1.69342 -0.610194 0
M  V30 3725 H 349.833 0.568889 -0.491802 0
M  V30 3726 H 351.804 1.6051 -2.51553 0
M  V30 3727 C 350.553 3.10493 -1.56491 0
M  V30 3728 H 349.876 3.17583 -2.4286 0
M  V30 3729 H 351.316 3.8939 -1.67785 0
M  V30 3730 C 349.775 3.3563 -0.292231 0
M  V30 3731 O 350.305 3.96875 0.620739 0
M  V30 3732 N 348.511 2.90026 -0.182523 0
M  V30 3733 H 348.058 2.40367 -0.926356 0
M  V30 3734 H 348.016 3.07218 0.668152 0
M  V30 3735 N 351.788 1.33704 0.83433 0
M  V30 3736 C 353.034 1.25603 1.59222 0
M  V30 3737 C 353.367 -0.176659 1.93395 0
M  V30 3738 O 352.642 -1.11915 1.59076 0
M  V30 3739 C 352.925 2.13576 2.89926 0
M  V30 3740 C 352.778 3.65326 2.62406 0
M  V30 3741 C 354.097 2.01238 3.91397 0
M  V30 3742 H 351.216 0.457613 0.577719 0
M  V30 3743 H 353.858 1.63848 0.961972 0
M  V30 3744 H 352.008 1.8109 3.43713 0
M  V30 3745 H 353.68 4.08124 2.15017 0
M  V30 3746 H 351.923 3.8698 1.96033 0
M  V30 3747 H 352.594 4.22232 3.55562 0
M  V30 3748 H 355.07 2.29738 3.46929 0
M  V30 3749 H 353.946 2.65036 4.80673 0
M  V30 3750 H 354.207 0.985951 4.30966 0
M  V30 3751 N 353.266 -1.05314 1.17247 0
M  V30 3752 C 354.514 -1.77941 0.958194 0
M  V30 3753 C 354.835 -1.88089 -0.514556 0
M  V30 3754 O 354.105 -1.39676 -1.37359 0
M  V30 3755 H 352.685 -0.659116 0.351533 0
M  V30 3756 H 355.347 -1.27166 1.47699 0
M  V30 3757 H 354.443 -2.79663 1.38546 0
M  V30 3758 N 354.744 -0.972509 -1.24016 0
M  V30 3759 C 356.021 -0.553733 -1.87598 0
M  V30 3760 C 356.401 0.969158 -1.87538 0
M  V30 3761 O 355.749 1.84255 -1.35139 0
M  V30 3762 C 355.959 -1.15076 -3.29482 0
M  V30 3763 C 357.307 -1.23862 -4.06132 0
M  V30 3764 O 358.331 -1.10363 -3.38672 0
M  V30 3765 O 357.19 -1.45252 -5.26844 0
M  V30 3766 H 354.284 -0.185331 -0.805966 0
M  V30 3767 H 356.83 -1.06709 -1.31952 0
M  V30 3768 H 355.602 -2.19333 -3.2405 0
M  V30 3769 H 355.225 -0.621746 -3.92709 0
M  V30 3770 N 356.222 1.38976 -0.743202 0
M  V30 3771 C 357.468 2.0064 -0.295189 0
M  V30 3772 C 357.801 1.5885 1.11716 0
M  V30 3773 O 357.076 0.821181 1.76315 0
M  V30 3774 C 357.359 3.578 -0.406318 0
M  V30 3775 C 357.212 4.09586 -1.85903 0
M  V30 3776 C 358.531 4.39616 0.206439 0
M  V30 3777 H 355.65 0.728935 -0.108733 0
M  V30 3778 H 358.292 1.65067 -0.940897 0
M  V30 3779 H 356.442 3.88235 0.143419 0
M  V30 3780 H 358.114 3.89837 -2.46627 0
M  V30 3781 H 356.357 3.6284 -2.3776 0
M  V30 3782 H 357.028 5.18708 -1.888 0
M  V30 3783 H 359.504 4.15273 -0.262283 0
M  V30 3784 H 358.38 5.48812 0.0983819 0
M  V30 3785 H 358.641 4.22754 1.2935 0
M  V30 3786 N 357.7 0.491464 1.49741 0
M  V30 3787 C 358.946 -0.0565092 2.02721 0
M  V30 3788 C 359.279 -1.37522 1.37118 0
M  V30 3789 O 358.554 -1.87866 0.503645 0
M  V30 3790 C 358.837 -0.219051 3.59433 0
M  V30 3791 C 358.69 1.12211 4.35579 0
M  V30 3792 C 360.009 -0.964157 4.29409 0
M  V30 3793 H 357.128 -0.0190627 0.736753 0
M  V30 3794 H 359.77 0.641021 1.7886 0
M  V30 3795 H 357.92 -0.813165 3.79895 0
M  V30 3796 H 359.592 1.75437 4.26637 0
M  V30 3797 H 357.835 1.71377 3.98513 0
M  V30 3798 H 358.506 0.961794 5.43556 0
M  V30 3799 H 360.982 -0.460378 4.13545 0
M  V30 3800 H 359.858 -1.04671 5.38828 0
M  V30 3801 H 360.119 -2.00563 3.93988 0
M  V30 3802 N 359.178 -1.55987 0.224894 0
M  V30 3803 C 360.125 -2.20436 -0.68385 0
M  V30 3804 C 361.095 -1.16102 -1.18783 0
M  V30 3805 O 362.28 -1.4447 -1.24632 0
M  V30 3806 C 359.42 -2.89076 -1.88491 0
M  V30 3807 C 358.533 -4.08012 -1.41951 0
M  V30 3808 C 357.668 -4.64426 -2.5784 0
M  V30 3809 C 356.707 -5.75656 -2.08053 0
M  V30 3810 N 355.844 -6.26347 -3.17227 0
M  V30 3811 H 360.684 -2.97727 -0.12754 0
M  V30 3812 H 358.221 -1.47011 -0.0511978 0
M  V30 3813 H 360.179 -3.27059 -2.59014 0
M  V30 3814 H 358.809 -2.14298 -2.41405 0
M  V30 3815 H 357.861 -3.75492 -0.609095 0
M  V30 3816 H 359.173 -4.88375 -1.01447 0
M  V30 3817 H 358.327 -5.04869 -3.3644 0
M  V30 3818 H 357.066 -3.83233 -3.01635 0
M  V30 3819 H 356.071 -5.34712 -1.27916 0
M  V30 3820 H 357.296 -6.58686 -1.65255 0
M  V30 3821 H 355.242 -5.48067 -3.60497 0
M  V30 3822 H 355.159 -7.01843 -2.80986 0
M  V30 3823 H 356.427 -6.71447 -3.95953 0
M  V30 3824 N 360.656 0.0484629 -1.57525 0
M  V30 3825 C 361.586 1.0549 -2.08313 0
M  V30 3826 C 362.567 1.38929 -0.981463 0
M  V30 3827 O 363.752 1.48151 -1.25558 0
M  V30 3828 C 360.882 2.36162 -2.54646 0
M  V30 3829 C 359.836 2.17016 -3.68901 0
M  V30 3830 C 359.162 3.53278 -4.01371 0
M  V30 3831 C 360.462 1.57219 -4.98076 0
M  V30 3832 H 362.156 0.632195 -2.92649 0
M  V30 3833 H 359.702 0.302654 -1.40784 0
M  V30 3834 H 361.655 3.06882 -2.88793 0
M  V30 3835 H 360.379 2.80456 -1.67368 0
M  V30 3836 H 359.038 1.48733 -3.35073 0
M  V30 3837 H 358.686 3.95185 -3.11188 0
M  V30 3838 H 358.386 3.41299 -4.78318 0
M  V30 3839 H 359.91 4.25391 -4.38035 0
M  V30 3840 H 361.324 2.17832 -5.30304 0
M  V30 3841 H 359.721 1.55871 -5.79503 0
M  V30 3842 H 360.791 0.535956 -4.81929 0
M  V30 3843 N 362.134 1.5431 0.320358 0
M  V30 3844 C 363.38 1.72924 1.05949 0
M  V30 3845 C 363.713 0.503185 1.87568 0
M  V30 3846 O 362.988 -0.499839 1.87968 0
M  V30 3847 C 363.271 3.00676 1.98156 0
M  V30 3848 C 363.124 4.3354 1.19845 0
M  V30 3849 C 364.443 3.24198 2.9763 0
M  V30 3850 H 361.562 0.629195 0.383774 0
M  V30 3851 H 364.204 1.87008 0.335854 0
M  V30 3852 H 362.354 2.888 2.59859 0
M  V30 3853 H 364.026 4.57305 0.605773 0
M  V30 3854 H 362.269 4.309 0.500784 0
M  V30 3855 H 362.94 5.19156 1.87567 0
M  V30 3856 H 365.416 3.35557 2.4605 0
M  V30 3857 H 364.292 4.14938 3.59329 0
M  V30 3858 H 364.553 2.41577 3.7026 0
M  V30 3859 N 363.613 -0.582584 1.46437 0
M  V30 3860 C 364.576 -1.67366 1.56592 0
M  V30 3861 C 365.576 -1.54575 0.443072 0
M  V30 3862 O 366.766 -1.59191 0.707381 0
M  V30 3863 C 363.898 -3.06791 1.48634 0
M  V30 3864 H 365.091 -1.5972 2.5383 0
M  V30 3865 H 362.644 -0.800432 1.34249 0
M  V30 3866 H 363.379 -3.19993 0.526763 0
M  V30 3867 H 363.164 -3.17484 2.30101 0
M  V30 3868 H 364.654 -3.86218 1.58826 0
M  V30 3869 N 365.091 -1.34144 -0.827227 0
M  V30 3870 C 366.502 -1.23557 -1.39966 0
M  V30 3871 C 366.853 0.140731 -1.95695 0
M  V30 3872 O 365.978 1.04087 -1.89723 0
M  V30 3873 C 366.573 -2.23708 -2.54441 0
M  V30 3874 C 365.132 -2.16924 -3.07605 0
M  V30 3875 C 364.279 -2.10549 -1.80456 0
M  V30 3876 H 367.23 -1.45573 -0.631991 0
M  V30 3877 H 367.251 -1.85157 -3.32411 0
M  V30 3878 H 366.763 -3.23866 -2.13851 0
M  V30 3879 H 364.864 -1.20107 -3.52711 0
M  V30 3880 H 364.977 -3.07988 -3.66988 0
M  V30 3881 H 363.341 -1.56203 -2.01178 0
M  V30 3882 H 364.124 -3.12535 -1.42046 0
M  V30 3883 N 366.569 1.04691 -1.17803 0
M  V30 3884 C 367.532 2.10724 -0.901545 0
M  V30 3885 C 368.532 1.6042 0.110437 0
M  V30 3886 O 369.722 1.7377 -0.122303 0
M  V30 3887 C 366.854 3.39084 -0.351409 0
M  V30 3888 H 368.047 2.36686 -1.84174 0
M  V30 3889 H 365.6 1.21015 -0.98919 0
M  V30 3890 H 366.335 3.18782 0.59569 0
M  V30 3891 H 366.12 3.76909 -1.08083 0
M  V30 3892 H 367.61 4.17227 -0.176451 0
M  V30 3893 N 368.047 0.979072 1.23499 0
M  V30 3894 C 369.295 0.645941 1.91499 0
M  V30 3895 C 369.616 -0.822948 1.76784 0
M  V30 3896 O 368.886 -1.58854 1.14639 0
M  V30 3897 H 367.466 0.235919 0.708767 0
M  V30 3898 H 370.128 1.2426 1.50152 0
M  V30 3899 H 369.224 0.896411 2.9895 0
M  V30 3900 N 369.525 -1.3858 0.750561 0
M  V30 3901 C 370.802 -1.94231 0.231009 0
M  V30 3902 C 371.182 -1.68611 -1.27018 0
M  V30 3903 O 370.53 -1.02296 -2.04323 0
M  V30 3904 C 370.74 -3.44123 0.581428 0
M  V30 3905 C 372.088 -4.2116 0.539389 0
M  V30 3906 O 373.112 -3.52391 0.519541 0
M  V30 3907 O 371.971 -5.43749 0.54765 0
M  V30 3908 H 369.065 -0.825639 0.0474263 0
M  V30 3909 H 371.611 -1.4799 0.830478 0
M  V30 3910 H 370.383 -3.56267 1.61833 0
M  V30 3911 H 370.006 -3.97573 -0.0462047 0
M  V30 3912 N 371.003 -0.499398 -1.49478 0
M  V30 3913 C 372.25 0.0456899 -2.02448 0
M  V30 3914 C 372.578 1.37142 -1.37921 0
M  V30 3915 O 371.833 1.89111 -0.503544 0
M  V30 3916 C 372.132 0.248424 -3.56536 0
M  V30 3917 C 371.798 -0.999107 -4.39692 0
M  V30 3918 C 370.46 -1.34108 -4.62135 0
M  V30 3919 C 372.812 -1.82842 -4.88076 0
M  V30 3920 C 370.14 -2.51191 -5.30208 0
M  V30 3921 C 372.492 -2.99076 -5.57437 0
M  V30 3922 C 371.156 -3.33655 -5.78127 0
M  V30 3923 H 370.426 0.0167191 -0.740811 0
M  V30 3924 H 373.073 -0.65923 -1.79795 0
M  V30 3925 H 371.378 1.03586 -3.77859 0
M  V30 3926 H 373.075 0.684605 -3.95113 0
M  V30 3927 H 369.665 -0.722729 -4.22463 0
M  V30 3928 H 373.849 -1.57737 -4.70566 0
M  V30 3929 H 369.105 -2.78221 -5.44429 0
M  V30 3930 H 373.279 -3.63664 -5.93904 0
M  V30 3931 H 370.906 -4.24483 -6.30649 0
M  V30 3932 N 372.481 1.55866 -0.233164 0
M  V30 3933 C 373.728 1.98603 0.395374 0
M  V30 3934 C 374.056 1.12105 1.58942 0
M  V30 3935 O 373.311 0.168656 1.94972 0
M  V30 3936 C 373.61 3.46856 0.861724 0
M  V30 3937 C 373.276 4.50348 -0.223066 0
M  V30 3938 C 371.938 4.78371 -0.521038 0
M  V30 3939 C 374.29 5.12355 -0.956124 0
M  V30 3940 C 371.618 5.6568 -1.55638 0
M  V30 3941 C 373.97 6.00786 -1.98089 0
M  V30 3942 C 372.634 6.27148 -2.28565 0
M  V30 3943 H 371.904 0.726739 0.144677 0
M  V30 3944 H 374.551 1.88491 -0.338114 0
M  V30 3945 H 372.856 3.5423 1.67418 0
M  V30 3946 H 374.553 3.77302 1.35809 0
M  V30 3947 H 371.143 4.28596 0.0193234 0
M  V30 3948 H 375.327 4.90765 -0.739166 0
M  V30 3949 H 370.583 5.84365 -1.798 0
M  V30 3950 H 374.757 6.4788 -2.55391 0
M  V30 3951 H 372.384 6.94597 -3.08932 0
M  V30 3952 N 373.959 -0.0401083 1.57549 0
M  V30 3953 C 374.892 -1.07689 2.01192 0
M  V30 3954 C 375.87 -1.358 0.894273 0
M  V30 3955 O 377.054 -1.48642 1.15921 0
M  V30 3956 C 374.181 -2.41418 2.3756 0
M  V30 3957 C 373.227 -2.29237 3.59656 0
M  V30 3958 S 374.06 -1.65628 5.09242 0
M  V30 3959 C 375.216 -3.0087 5.48843 0
M  V30 3960 H 375.449 -0.705108 2.88817 0
M  V30 3961 H 372.982 -0.249724 1.52367 0
M  V30 3962 H 374.94 -3.18329 2.59186 0
M  V30 3963 H 373.601 -2.75747 1.50407 0
M  V30 3964 H 372.794 -3.27932 3.82722 0
M  V30 3965 H 372.396 -1.60469 3.37825 0
M  V30 3966 H 374.688 -3.97201 5.48851 0
M  V30 3967 H 375.631 -2.82549 6.49286 0
M  V30 3968 H 376.039 -3.02934 4.76331 0
M  V30 3969 N 375.437 -1.54477 -0.31217 0
M  V30 3970 C 376.4 -1.83923 -1.36766 0
M  V30 3971 C 377.4 -0.711563 -1.44199 0
M  V30 3972 O 378.59 -0.979866 -1.44029 0
M  V30 3973 C 375.722 -2.0095 -2.75376 0
M  V30 3974 H 376.915 -2.78239 -1.11906 0
M  V30 3975 H 374.468 -1.46369 -0.548257 0
M  V30 3976 H 375.203 -1.08883 -3.05475 0
M  V30 3977 H 374.988 -2.83018 -2.71373 0
M  V30 3978 H 376.478 -2.2514 -3.51713 0
M  V30 3979 N 376.915 0.57481 -1.46744 0
M  V30 3980 C 378.161 1.3347 -1.52688 0
M  V30 3981 C 378.494 1.93353 -0.181229 0
M  V30 3982 O 377.769 1.76912 0.808237 0
M  V30 3983 C 378.052 2.45811 -2.63152 0
M  V30 3984 C 377.905 1.90912 -4.07275 0
M  V30 3985 C 379.224 3.47822 -2.69644 0
M  V30 3986 H 376.343 0.483935 -0.555856 0
M  V30 3987 H 378.985 0.644968 -1.78718 0
M  V30 3988 H 377.135 3.04646 -2.41088 0
M  V30 3989 H 378.807 1.36473 -4.4065 0
M  V30 3990 H 377.05 1.21691 -4.16382 0
M  V30 3991 H 377.721 2.72042 -4.80309 0
M  V30 3992 H 380.197 2.9888 -2.895 0
M  V30 3993 H 379.073 4.23876 -3.48742 0
M  V30 3994 H 379.334 4.05555 -1.76005 0
M  V30 3995 N 378.394 1.34581 0.820102 0
M  V30 3996 C 379.357 1.2628 1.91275 0
M  V30 3997 C 380.357 0.177344 1.59819 0
M  V30 3998 O 381.547 0.430156 1.68806 0
M  V30 3999 C 378.679 0.950327 3.27386 0
M  V30 4000 H 379.872 2.23421 2.00057 0
M  V30 4001 H 377.425 1.1891 1.0144 0
M  V30 4002 H 378.16 -0.0177938 3.24295 0
M  V30 4003 H 377.945 1.73549 3.51601 0
M  V30 4004 H 379.435 0.917492 4.07396 0
M  V30 4005 N 379.872 -1.04064 1.18357 0
M  V30 4006 C 381.149 -1.74252 0.888581 0
M  V30 4007 C 381.529 -2.02138 -0.60856 0
M  V30 4008 O 380.877 -1.66656 -1.56327 0
M  V30 4009 C 381.087 -3.0277 1.73584 0
M  V30 4010 C 382.435 -3.76506 1.96286 0
M  V30 4011 O 383.459 -3.12668 1.70637 0
M  V30 4012 O 382.318 -4.91243 2.39464 0
M  V30 4013 H 379.412 -0.758271 0.330082 0
M  V30 4014 H 381.958 -1.1013 1.2911 0
M  V30 4015 H 380.73 -2.78299 2.75073 0
M  V30 4016 H 380.353 -3.74631 1.33183 0
M  V30 4017 N 381.35 -0.985608 -1.22978 0
M  V30 4018 C 382.627 -0.573599 -1.87001 0
M  V30 4019 C 383.007 0.949213 -1.88555 0
M  V30 4020 O 382.355 1.82811 -1.37086 0
M  V30 4021 C 382.565 -1.18564 -3.28243 0
M  V30 4022 C 383.913 -1.28163 -4.04796 0
M  V30 4023 O 384.937 -1.13949 -3.37482 0
M  V30 4024 O 383.796 -1.50832 -5.25273 0
M  V30 4025 H 380.89 -0.193868 -0.803955 0
M  V30 4026 H 383.436 -1.08102 -1.30813 0
M  V30 4027 H 382.208 -2.22758 -3.21706 0
M  V30 4028 H 381.831 -0.663363 -3.92027 0
M  V30 4029 N 382.828 1.3818 -0.7579 0
M  V30 4030 C 384.056 2.04301 -0.326937 0
M  V30 4031 C 384.471 1.57163 1.0462 0
M  V30 4032 O 383.828 0.746626 1.66529 0
M  V30 4033 C 383.879 3.59846 -0.345363 0
M  V30 4034 O 383.6 4.05256 -1.66432 0
M  V30 4035 C 385.101 4.4319 0.098927 0
M  V30 4036 H 382.321 0.656443 -0.139012 0
M  V30 4037 H 384.865 1.76786 -1.02796 0
M  V30 4038 H 383.02 3.86182 0.306955 0
M  V30 4039 H 383.434 4.99709 -1.59345 0
M  V30 4040 H 384.908 5.51989 0.0348745 0
M  V30 4041 H 385.385 4.23947 1.14741 0
M  V30 4042 H 385.991 4.22051 -0.52468 0
M  V30 4043 N 384.306 0.507319 1.49211 0
M  V30 4044 C 385.717 0.0611118 1.866 0
M  V30 4045 C 386.068 -1.35488 1.41907 0
M  V30 4046 O 385.193 -2.0108 0.799726 0
M  V30 4047 C 385.788 0.104125 3.3864 0
M  V30 4048 C 384.347 -0.28677 3.75306 0
M  V30 4049 C 383.494 0.473893 2.73221 0
M  V30 4050 H 386.445 0.719775 1.41439 0
M  V30 4051 H 386.466 -0.689672 3.74198 0
M  V30 4052 H 385.978 1.13482 3.71138 0
M  V30 4053 H 384.079 -1.32046 3.48417 0
M  V30 4054 H 384.192 0.0370745 4.79086 0
M  V30 4055 H 382.556 -0.0770644 2.54583 0
M  V30 4056 H 383.339 1.50478 3.08563 0
M  V30 4057 N 385.784 -1.5574 0.241426 0
M  V30 4058 C 387.03 -1.99104 -0.385406 0
M  V30 4059 C 387.363 -1.1293 -1.57988 0
M  V30 4060 O 386.638 -0.191449 -1.93555 0
M  V30 4061 C 386.921 -3.51087 -0.800616 0
M  V30 4062 C 386.774 -4.48028 0.398874 0
M  V30 4063 C 388.093 -4.08015 -1.64959 0
M  V30 4064 H 385.212 -0.723848 -0.138614 0
M  V30 4065 H 387.854 -1.86903 0.341642 0
M  V30 4066 H 386.004 -3.61615 -1.4201 0
M  V30 4067 H 387.676 -4.49487 1.03726 0
M  V30 4068 H 385.919 -4.21077 1.04293 0
M  V30 4069 H 386.59 -5.51962 0.0651056 0
M  V30 4070 H 389.066 -4.00555 -1.12672 0
M  V30 4071 H 387.942 -5.14635 -1.90898 0
M  V30 4072 H 388.203 -3.56131 -2.61961 0
M  V30 4073 N 387.262 0.0317525 -1.57568 0
M  V30 4074 C 388.49 0.734949 -1.93407 0
M  V30 4075 C 388.905 1.69036 -0.84096 0
M  V30 4076 O 388.262 1.81582 0.182836 0
M  V30 4077 C 388.313 1.49432 -3.29169 0
M  V30 4078 O 388.034 0.577261 -4.3428 0
M  V30 4079 C 389.535 2.29492 -3.79273 0
M  V30 4080 H 386.755 0.206706 -0.638368 0
M  V30 4081 H 389.299 -0.00992046 -2.04498 0
M  V30 4082 H 387.454 2.1911 -3.19483 0
M  V30 4083 H 387.868 1.10952 -5.1263 0
M  V30 4084 H 389.342 2.78172 -4.76785 0
M  V30 4085 H 389.819 3.10794 -3.10328 0
M  V30 4086 H 390.425 1.64894 -3.92033 0
M  V30 4087 N 388.74 1.54641 0.303973 0
M  V30 4088 C 389.67 1.88386 1.3796 0
M  V30 4089 C 390.651 0.742485 1.5304 0
M  V30 4090 O 391.836 0.997959 1.66597 0
M  V30 4091 C 388.966 2.12854 2.74427 0
M  V30 4092 C 387.92 3.28702 2.74115 0
M  V30 4093 C 387.246 3.38582 4.13844 0
M  V30 4094 C 388.546 4.65881 2.3612 0
M  V30 4095 H 390.24 2.78474 1.09966 0
M  V30 4096 H 387.786 1.33988 0.527556 0
M  V30 4097 H 389.739 2.35047 3.49758 0
M  V30 4098 H 388.463 1.19535 3.03939 0
M  V30 4099 H 387.122 3.06428 2.0124 0
M  V30 4100 H 386.77 2.42784 4.40528 0
M  V30 4101 H 386.47 4.16453 4.14537 0
M  V30 4102 H 387.994 3.63031 4.90959 0
M  V30 4103 H 389.408 4.87823 3.01167 0
M  V30 4104 H 387.805 5.46444 2.48031 0
M  V30 4105 H 388.875 4.66799 1.3125 0
M  V30 4106 N 390.218 -0.567019 1.47046 0
M  V30 4107 C 391.467 -1.32091 1.5243 0
M  V30 4108 C 391.78 -1.94704 0.187021 0
M  V30 4109 O 392.986 -2.7124 0.118771 0
M  V30 4110 C 391.442 -2.39479 2.68659 0
M  V30 4111 C 391.05 -1.831 4.08874 0
M  V30 4112 C 392.794 -3.16111 2.83327 0
M  V30 4113 C 390.701 -2.8821 5.16419 0
M  V30 4114 H 389.631 -0.496629 0.56734 0
M  V30 4115 H 392.282 -0.603354 1.73297 0
M  V30 4116 H 390.664 -3.14105 2.41152 0
M  V30 4117 H 391.838 -1.14913 4.46242 0
M  V30 4118 H 390.153 -1.19085 3.99008 0
M  V30 4119 H 392.75 -3.94585 3.60842 0
M  V30 4120 H 393.093 -3.69686 1.91411 0
M  V30 4121 H 393.626 -2.48595 3.10556 0
M  V30 4122 H 390.365 -2.39504 6.10179 0
M  V30 4123 H 389.885 -3.54839 4.8358 0
M  V30 4124 H 391.564 -3.51881 5.42945 0
M  V30 4125 N 391.696 -1.35014 -0.812953 0
M  V30 4126 C 392.921 -1.31187 -1.60639 0
M  V30 4127 C 393.346 0.109382 -1.87782 0
M  V30 4128 O 392.704 1.07424 -1.46047 0
M  V30 4129 C 392.752 -2.11809 -2.91838 0
M  V30 4130 O 391.856 -1.49444 -3.8437 0
M  V30 4131 H 391.197 -0.450084 -0.488181 0
M  V30 4132 H 393.727 -1.77963 -1.00947 0
M  V30 4133 H 393.737 -2.23531 -3.41318 0
M  V30 4134 H 392.412 -3.15137 -2.71407 0
M  V30 4135 H 390.989 -1.46524 -3.42907 0
M  V30 4136 N 393.175 1.03435 -1.18907 0
M  V30 4137 C 394.138 2.09756 -0.923844 0
M  V30 4138 C 395.138 1.60528 0.093416 0
M  V30 4139 O 396.328 1.73631 -0.140727 0
M  V30 4140 C 393.46 3.38692 -0.387354 0
M  V30 4141 H 394.653 2.34719 -1.86674 0
M  V30 4142 H 392.206 1.19959 -1.00197 0
M  V30 4143 H 392.941 3.19396 0.561845 0
M  V30 4144 H 392.726 3.75742 -1.12074 0
M  V30 4145 H 394.216 4.17016 -0.220694 0
M  V30 4146 N 394.653 0.992116 1.22453 0
M  V30 4147 C 395.901 0.666215 1.90804 0
M  V30 4148 C 396.222 -0.804152 1.77647 0
M  V30 4149 O 395.492 -1.57629 1.16318 0
M  V30 4150 H 394.072 0.243423 0.706225 0
M  V30 4151 H 396.734 1.25845 1.48825 0
M  V30 4152 H 395.83 0.928069 2.97982 0
M  V30 4153 N 396.131 -1.37776 0.765217 0
M  V30 4154 C 397.377 -2.00145 0.327072 0
M  V30 4155 C 397.71 -1.60607 -1.09175 0
M  V30 4156 O 396.985 -0.849127 -1.74986 0
M  V30 4157 C 397.268 -3.57109 0.46319 0
M  V30 4158 C 397.121 -4.06576 1.92395 0
M  V30 4159 C 398.44 -4.39888 -0.136473 0
M  V30 4160 H 395.559 -0.727113 0.120316 0
M  V30 4161 H 398.201 -1.63549 0.967039 0
M  V30 4162 H 396.351 -3.88414 -0.0816358 0
M  V30 4163 H 398.023 -3.85864 2.52798 0
M  V30 4164 H 396.266 -3.59011 2.43503 0
M  V30 4165 H 396.937 -5.15639 1.97028 0
M  V30 4166 H 399.413 -4.14803 0.328317 0
M  V30 4167 H 398.289 -5.48899 -0.0110582 0
M  V30 4168 H 398.55 -4.24758 -1.22608 0
M  V30 4169 N 397.609 -0.515225 -1.4894 0
M  V30 4170 C 398.857 0.0241671 -2.02086 0
M  V30 4171 C 399.178 1.3616 -1.3959 0
M  V30 4172 O 398.448 1.87841 -0.556121 0
M  V30 4173 H 397.028 0.0119203 -0.746905 0
M  V30 4174 H 399.69 -0.675702 -1.82812 0
M  V30 4175 H 398.786 0.143385 -3.1177 0
M  V30 4176 N 399.087 1.5561 -0.249682 0
M  V30 4177 C 400.019 2.18834 0.681496 0
M  V30 4178 C 401.032 1.16546 1.1367 0
M  V30 4179 O 402.221 1.43397 1.06299 0
M  V30 4180 C 399.321 2.77992 1.9384 0
M  V30 4181 C 398.494 4.05725 1.63419 0
M  V30 4182 C 397.553 4.49174 2.74096 0
M  V30 4183 O 396.579 5.15492 2.41364 0
M  V30 4184 N 397.781 4.17191 4.03649 0
M  V30 4185 H 400.546 2.9937 0.140514 0
M  V30 4186 H 398.107 1.6175 -0.0697541 0
M  V30 4187 H 400.099 3.04015 2.67127 0
M  V30 4188 H 398.669 2.01596 2.38909 0
M  V30 4189 H 397.889 3.87261 0.736358 0
M  V30 4190 H 399.177 4.88999 1.40562 0
M  V30 4191 H 398.575 3.63955 4.33074 0
M  V30 4192 H 397.132 4.48043 4.73393 0
M  V30 4193 N 400.565 -0.0233959 1.57583 0
M  V30 4194 C 401.793 -0.724682 1.93794 0
M  V30 4195 C 402.208 -1.68588 0.849912 0
M  V30 4196 O 401.565 -1.81676 -0.173204 0
M  V30 4197 C 401.616 -1.47684 3.29957 0
M  V30 4198 O 401.337 -0.554222 4.3458 0
M  V30 4199 C 402.838 -2.27477 3.80485 0
M  V30 4200 H 400.058 -0.203317 0.639455 0
M  V30 4201 H 402.602 0.0207653 2.04489 0
M  V30 4202 H 400.757 -2.17412 3.20641 0
M  V30 4203 H 401.171 -1.08232 5.13212 0
M  V30 4204 H 402.645 -2.7564 4.78254 0
M  V30 4205 H 403.122 -3.09144 3.11972 0
M  V30 4206 H 403.728 -1.62813 3.92902 0
M  V30 4207 N 402.043 -1.548 -0.295768 0
M  V30 4208 C 403.454 -1.65274 -0.868411 0
M  V30 4209 C 403.805 -0.56481 -1.87894 0
M  V30 4210 O 402.93 0.29767 -2.14343 0
M  V30 4211 C 403.525 -2.99603 -1.58188 0
M  V30 4212 C 402.084 -3.12181 -2.10286 0
M  V30 4213 C 401.231 -2.6098 -0.93727 0
M  V30 4214 H 404.182 -1.58534 -0.0726422 0
M  V30 4215 H 404.203 -2.91319 -2.44772 0
M  V30 4216 H 403.715 -3.78764 -0.846151 0
M  V30 4217 H 401.816 -2.3775 -2.8689 0
M  V30 4218 H 401.929 -4.18415 -2.33379 0
M  V30 4219 H 400.293 -2.17564 -1.32431 0
M  V30 4220 H 401.076 -3.42623 -0.215414 0
M  V30 4221 N 403.521 0.559213 -1.47345 0
M  V30 4222 C 404.454 1.68201 -1.5422 0
M  V30 4223 C 405.432 1.57742 -0.394497 0
M  V30 4224 O 406.616 1.78628 -0.60201 0
M  V30 4225 C 403.743 3.0643 -1.44285 0
M  V30 4226 C 402.789 3.3534 -2.63532 0
M  V30 4227 S 403.622 3.24816 -4.25741 0
M  V30 4228 C 404.778 4.65542 -4.18355 0
M  V30 4229 H 405.011 1.62114 -2.49211 0
M  V30 4230 H 402.544 0.739871 -1.35519 0
M  V30 4231 H 404.502 3.86164 -1.3924 0
M  V30 4232 H 403.163 3.09984 -0.506816 0
M  V30 4233 H 402.356 4.36107 -2.52639 0
M  V30 4234 H 401.958 2.63221 -2.65689 0
M  V30 4235 H 404.25 5.56449 -3.86485 0
M  V30 4236 H 405.193 4.81493 -5.19202 0
M  V30 4237 H 405.601 4.43495 -3.49246 0
M  V30 4238 N 404.999 1.35443 0.805782 0
M  V30 4239 C 405.929 1.31095 1.93226 0
M  V30 4240 C 406.91 0.185244 1.69088 0
M  V30 4241 O 408.095 0.380332 1.90439 0
M  V30 4242 C 405.225 1.08299 3.29983 0
M  V30 4243 C 404.179 2.17519 3.68605 0
M  V30 4244 C 403.505 1.79887 5.03532 0
M  V30 4245 C 404.805 3.5949 3.78898 0
M  V30 4246 H 406.499 2.25352 1.97122 0
M  V30 4247 H 404.045 1.0848 0.946996 0
M  V30 4248 H 405.998 1.03897 4.08391 0
M  V30 4249 H 404.722 0.104885 3.26432 0
M  V30 4250 H 403.381 2.2102 2.92482 0
M  V30 4251 H 403.029 0.80693 4.96485 0
M  V30 4252 H 402.729 2.53001 5.30344 0
M  V30 4253 H 404.253 1.77011 5.84379 0
M  V30 4254 H 405.667 3.58307 4.47536 0
M  V30 4255 H 404.064 4.31371 4.1718 0
M  V30 4256 H 405.134 3.95584 2.80431 0
M  V30 4257 N 406.477 -1.02803 1.19454 0
M  V30 4258 C 407.44 -2.09264 0.934955 0
M  V30 4259 C 408.44 -1.60576 -0.0849015 0
M  V30 4260 O 409.63 -1.73554 0.149933 0
M  V30 4261 C 406.762 -3.38482 0.40531 0
M  V30 4262 H 407.955 -2.33726 1.87916 0
M  V30 4263 H 405.508 -1.19426 1.00832 0
M  V30 4264 H 406.243 -3.19689 -0.544899 0
M  V30 4265 H 406.028 -3.75142 1.14065 0
M  V30 4266 H 407.518 -4.16894 0.242806 0
M  V30 4267 N 407.956 -0.998596 -1.21925 0
M  V30 4268 C 408.889 -0.498517 -2.22688 0
M  V30 4269 C 409.867 0.444301 -1.56412 0
M  V30 4270 O 411.051 0.368518 -1.84863 0
M  V30 4271 C 408.178 0.276639 -3.37568 0
M  V30 4272 C 407.224 -0.61302 -4.22071 0
M  V30 4273 S 408.057 -2.07168 -4.93803 0
M  V30 4274 C 409.213 -1.30617 -6.12119 0
M  V30 4275 H 409.446 -1.35234 -2.64762 0
M  V30 4276 H 406.979 -0.806018 -1.31692 0
M  V30 4277 H 408.937 0.717817 -4.04175 0
M  V30 4278 H 407.598 1.10581 -2.93991 0
M  V30 4279 H 406.791 -0.0162909 -5.03997 0
M  V30 4280 H 406.393 -0.991202 -3.60626 0
M  V30 4281 H 408.685 -0.57675 -6.75041 0
M  V30 4282 H 409.628 -2.10091 -6.76215 0
M  V30 4283 H 410.036 -0.816957 -5.58557 0
M  V30 4284 N 409.434 1.37368 -0.772513 0
M  V30 4285 C 410.364 2.32856 -0.173304 0
M  V30 4286 C 411.345 1.55818 0.682262 0
M  V30 4287 O 412.53 1.84052 0.619566 0
M  V30 4288 C 409.66 3.40048 0.706007 0
M  V30 4289 C 408.614 4.27973 -0.0483144 0
M  V30 4290 C 407.94 5.26184 0.950491 0
M  V30 4291 C 409.24 5.07665 -1.22776 0
M  V30 4292 H 410.934 2.83217 -0.971002 0
M  V30 4293 H 408.48 1.3617 -0.468377 0
M  V30 4294 H 410.433 4.05827 1.13501 0
M  V30 4295 H 409.157 2.88214 1.53623 0
M  V30 4296 H 407.816 3.63726 -0.458107 0
M  V30 4297 H 407.464 4.7063 1.77529 0
M  V30 4298 H 407.164 5.85872 0.450314 0
M  V30 4299 H 408.688 5.94838 1.37842 0
M  V30 4300 H 410.102 5.66578 -0.875366 0
M  V30 4301 H 408.499 5.76681 -1.66007 0
M  V30 4302 H 409.569 4.40294 -2.03149 0
M  V30 4303 N 410.912 0.523116 1.48665 0
M  V30 4304 C 412.189 -0.0775449 1.95446 0
M  V30 4305 C 412.569 -1.5197 1.4652 0
M  V30 4306 O 411.917 -2.17876 0.688657 0
M  V30 4307 C 412.127 0.0326135 3.48985 0
M  V30 4308 C 413.475 -0.130141 4.24401 0
M  V30 4309 O 414.499 -0.0415142 3.56176 0
M  V30 4310 O 413.358 -0.31491 5.45592 0
M  V30 4311 H 410.452 -0.0831012 0.822814 0
M  V30 4312 H 412.998 0.587227 1.59216 0
M  V30 4313 H 411.77 1.03748 3.77296 0
M  V30 4314 H 411.393 -0.671317 3.91892 0
M  V30 4315 N 412.39 -1.55475 0.257931 0
M  V30 4316 C 413.618 -2.03609 -0.367559 0
M  V30 4317 C 414.033 -1.13687 -1.50734 0
M  V30 4318 O 413.39 -0.153479 -1.81853 0
M  V30 4319 C 413.441 -3.51001 -0.864908 0
M  V30 4320 O 413.162 -4.37499 0.229465 0
M  V30 4321 C 414.663 -4.14946 -1.55997 0
M  V30 4322 H 411.883 -0.665459 -0.0860521 0
M  V30 4323 H 414.427 -2.00843 0.385014 0
M  V30 4324 H 412.582 -3.54266 -1.56762 0
M  V30 4325 H 412.996 -5.24286 -0.14998 0
M  V30 4326 H 414.47 -5.19735 -1.85956 0
M  V30 4327 H 414.947 -3.6209 -2.4857 0
M  V30 4328 H 415.553 -4.15635 -0.901543 0
M  V30 4329 N 413.868 0.0150385 -1.57593 0
M  V30 4330 C 414.798 1.01047 -2.10503 0
M  V30 4331 C 415.779 1.36816 -1.01071 0
M  V30 4332 O 416.964 1.45455 -1.28672 0
M  V30 4333 C 414.094 2.30708 -2.59598 0
M  V30 4334 C 413.048 2.09142 -3.73421 0
M  V30 4335 C 412.374 3.44685 -4.08774 0
M  V30 4336 C 413.674 1.46619 -5.01298 0
M  V30 4337 H 415.368 0.569978 -2.93925 0
M  V30 4338 H 412.914 0.272724 -1.41394 0
M  V30 4339 H 414.867 3.00687 -2.95238 0
M  V30 4340 H 413.591 2.76843 -1.73279 0
M  V30 4341 H 412.25 1.41592 -3.38153 0
M  V30 4342 H 411.898 3.88495 -3.195 0
M  V30 4343 H 411.598 3.31077 -4.8545 0
M  V30 4344 H 413.122 4.16004 -4.4696 0
M  V30 4345 H 414.536 2.06535 -5.34805 0
M  V30 4346 H 412.933 1.43544 -5.82679 0
M  V30 4347 H 414.003 0.433611 -4.82957 0
M  V30 4348 N 415.346 1.54954 0.287554 0
M  V30 4349 C 416.309 1.86076 1.33823 0
M  V30 4350 C 417.309 0.734414 1.43049 0
M  V30 4351 O 418.499 1.00266 1.42452 0
M  V30 4352 C 415.631 2.05305 2.72144 0
M  V30 4353 H 416.824 2.79984 1.07465 0
M  V30 4354 H 414.377 1.47223 0.524902 0
M  V30 4355 H 415.112 1.1373 3.03704 0
M  V30 4356 H 414.897 2.873 2.66836 0
M  V30 4357 H 416.387 2.30706 3.48087 0
M  V30 4358 N 416.824 -0.551391 1.4764 0
M  V30 4359 C 417.771 -1.65796 1.60563 0
M  V30 4360 C 418.741 -1.59932 0.448428 0
M  V30 4361 O 419.926 -1.78679 0.669222 0
M  V30 4362 C 417.066 -3.04108 1.63133 0
M  V30 4363 C 416.179 -3.20365 2.89811 0
M  V30 4364 C 415.314 -4.49109 2.8368 0
M  V30 4365 C 414.353 -4.58819 4.05156 0
M  V30 4366 N 413.49 -5.78926 3.97227 0
M  V30 4367 H 418.33 -1.54088 2.5507 0
M  V30 4368 H 415.867 -0.75052 1.26513 0
M  V30 4369 H 417.825 -3.84207 1.62606 0
M  V30 4370 H 416.455 -3.14637 0.721341 0
M  V30 4371 H 415.507 -2.33659 3.00179 0
M  V30 4372 H 416.819 -3.23402 3.79753 0
M  V30 4373 H 415.973 -5.37475 2.81434 0
M  V30 4374 H 414.712 -4.4856 1.91431 0
M  V30 4375 H 413.717 -3.68864 4.077 0
M  V30 4376 H 414.942 -4.61124 4.98539 0
M  V30 4377 H 412.888 -5.79314 3.07785 0
M  V30 4378 H 412.805 -5.83367 4.80853 0
M  V30 4379 H 414.073 -6.69637 3.99007 0
M  V30 4380 N 418.302 -1.35869 -0.798587 0
M  V30 4381 C 419.265 -1.29307 -1.89242 0
M  V30 4382 C 420.265 -0.202747 -1.59517 0
M  V30 4383 O 421.455 -0.456957 -1.681 0
M  V30 4384 C 418.587 -1.00229 -3.25833 0
M  V30 4385 H 419.78 -2.26576 -1.96478 0
M  V30 4386 H 417.333 -1.20509 -0.995358 0
M  V30 4387 H 418.068 -0.033801 -3.24282 0
M  V30 4388 H 417.853 -1.79121 -3.48795 0
M  V30 4389 H 419.343 -0.98219 -4.05885 0
M  V30 4390 N 419.78 1.02168 -1.19998 0
M  V30 4391 C 421.028 1.75338 -1.00504 0
M  V30 4392 C 421.349 1.89387 0.464506 0
M  V30 4393 O 420.619 1.43268 1.33608 0
M  V30 4394 H 419.199 0.649564 -0.368885 0
M  V30 4395 H 421.861 1.23205 -1.51018 0
M  V30 4396 H 420.957 2.75892 -1.45912 0
M  V30 4397 N 421.258 1.00505 1.21394 0
M  V30 4398 C 422.208 0.536503 2.21598 0
M  V30 4399 C 423.192 -0.401914 1.55799 0
M  V30 4400 O 424.384 -0.226757 1.75541 0
M  V30 4401 C 421.513 -0.135446 3.43033 0
M  V30 4402 C 420.599 0.823992 4.16018 0
M  V30 4403 N 420.99 1.97683 4.6557 0
M  V30 4404 C 419.288 0.642387 4.4135 0
M  V30 4405 C 419.989 2.58003 5.21354 0
M  V30 4406 N 418.965 1.86162 5.1073 0
M  V30 4407 H 422.767 1.41557 2.57563 0
M  V30 4408 H 420.281 0.868878 1.37202 0
M  V30 4409 H 422.278 -0.488584 4.14027 0
M  V30 4410 H 420.938 -1.01049 3.08576 0
M  V30 4411 H 421.949 2.3572 4.61147 0
M  V30 4412 H 418.626 -0.185578 4.17087 0
M  V30 4413 H 420.016 3.555 5.70149 0
M  V30 4414 N 422.737 -1.36956 0.779787 0
M  V30 4415 C 423.965 -2.03755 0.359398 0
M  V30 4416 C 424.38 -1.58807 -1.02106 0
M  V30 4417 O 423.737 -0.773024 -1.6532 0
M  V30 4418 C 423.788 -3.59251 0.402568 0
M  V30 4419 O 423.509 -4.02557 1.72858 0
M  V30 4420 C 425.01 -4.43291 -0.0284068 0
M  V30 4421 H 422.23 -0.654148 0.149437 0
M  V30 4422 H 424.774 -1.75128 1.05595 0
M  V30 4423 H 422.929 -3.86621 -0.245478 0
M  V30 4424 H 423.343 -4.97111 1.67275 0
M  V30 4425 H 424.817 -5.51975 0.0529466 0
M  V30 4426 H 425.294 -4.25719 -1.07982 0
M  V30 4427 H 425.9 -4.21163 0.591758 0
M  V30 4428 N 424.215 -0.530993 -1.48385 0
M  V30 4429 C 425.178 0.220497 -2.28137 0
M  V30 4430 C 426.178 0.866851 -1.35434 0
M  V30 4431 O 427.368 0.726746 -1.58316 0
M  V30 4432 C 424.5 1.31921 -3.1434 0
M  V30 4433 H 425.693 -0.479714 -2.96038 0
M  V30 4434 H 423.246 -0.286968 -1.53643 0
M  V30 4435 H 423.981 2.05264 -2.51072 0
M  V30 4436 H 423.766 0.86085 -3.82533 0
M  V30 4437 H 425.256 1.84776 -3.74497 0
M  V30 4438 N 425.693 1.55336 -0.266172 0
M  V30 4439 C 426.625 2.19544 0.658247 0
M  V30 4440 C 427.638 1.17746 1.12427 0
M  V30 4441 O 428.827 1.44517 1.04772 0
M  V30 4442 C 425.927 2.80032 1.9088 0
M  V30 4443 C 425.1 4.07436 1.59106 0
M  V30 4444 C 424.159 4.52056 2.69317 0
M  V30 4445 O 423.185 5.18023 2.35883 0
M  V30 4446 N 424.387 4.21448 3.99201 0
M  V30 4447 H 427.152 2.99503 0.108754 0
M  V30 4448 H 424.713 1.61667 -0.0869059 0
M  V30 4449 H 426.705 3.06831 2.63888 0
M  V30 4450 H 425.275 2.04119 2.36758 0
M  V30 4451 H 424.495 3.88021 0.695243 0
M  V30 4452 H 425.783 4.90462 1.35367 0
M  V30 4453 H 425.181 3.68528 4.29189 0
M  V30 4454 H 423.738 4.53039 4.68614 0
M  V30 4455 N 427.171 -0.0066808 1.57599 0
M  V30 4456 C 428.417 -0.693947 1.90558 0
M  V30 4457 C 428.75 -1.73792 0.866594 0
M  V30 4458 O 428.025 -1.94156 -0.115548 0
M  V30 4459 C 428.308 -1.34317 3.34112 0
M  V30 4460 C 428.161 -0.311189 4.48722 0
M  V30 4461 C 429.48 -2.27116 3.7697 0
M  V30 4462 H 426.599 -0.250803 0.693013 0
M  V30 4463 H 429.241 0.043242 1.89951 0
M  V30 4464 H 427.391 -1.9715 3.3476 0
M  V30 4465 H 429.063 0.316944 4.6021 0
M  V30 4466 H 427.306 0.367253 4.32243 0
M  V30 4467 H 427.977 -0.804366 5.46108 0
M  V30 4468 H 430.453 -1.74306 3.77831 0
M  V30 4469 H 429.329 -2.69511 4.78179 0
M  V30 4470 H 429.59 -3.14743 3.10466 0
M  V30 4471 N 428.649 -1.55105 -0.279332 0
M  V30 4472 C 429.597 -1.88333 -1.36505 0
M  V30 4473 C 430.591 -0.759043 -1.51443 0
M  V30 4474 O 431.797 -0.943312 -1.53302 0
M  V30 4475 H 428.172 -0.59766 -0.456406 0
M  V30 4476 H 430.143 -2.79041 -1.05728 0
M  V30 4477 C 428.892 -2.16628 -2.7197 0
M  V30 4478 H 428.215 -3.02624 -2.61264 0
M  V30 4479 H 429.655 -2.43803 -3.46895 0
M  V30 4480 C 428.114 -0.971807 -3.22579 0
M  V30 4481 O 428.644 -0.203228 -4.01186 0
M  V30 4482 N 426.85 -0.771238 -2.80179 0
M  V30 4483 H 426.397 -1.39792 -2.1637 0
M  V30 4484 H 426.355 0.0263667 -3.14389 0
M  V30 4485 N 430.127 0.543554 -1.4793 0
M  V30 4486 C 431.373 1.29961 -1.56466 0
M  V30 4487 C 431.728 1.91024 -0.229696 0
M  V30 4488 O 431.021 1.75619 0.766072 0
M  V30 4489 C 431.215 2.42078 -2.62932 0
M  V30 4490 C 431.044 1.92003 -4.06651 0
M  V30 4491 C 429.814 1.75223 -4.73946 0
M  V30 4492 C 432.012 1.45648 -4.93245 0
M  V30 4493 N 429.994 1.19632 -6.02131 0
M  V30 4494 C 431.365 1.01914 -6.11566 0
M  V30 4495 C 433.42 1.33826 -4.79578 0
M  V30 4496 C 432.123 0.475301 -7.17728 0
M  V30 4497 C 434.149 0.808427 -5.85848 0
M  V30 4498 C 433.511 0.381081 -7.03368 0
M  V30 4499 H 429.61 0.467086 -0.62718 0
M  V30 4500 H 432.194 0.614543 -1.84747 0
M  V30 4501 H 430.365 3.08098 -2.36496 0
M  V30 4502 H 432.097 3.09096 -2.61231 0
M  V30 4503 H 428.852 1.98345 -4.30065 0
M  V30 4504 H 429.276 0.93885 -6.70458 0
M  V30 4505 H 433.918 1.65474 -3.89074 0
M  V30 4506 H 431.636 0.146472 -8.07967 0
M  V30 4507 H 435.222 0.720315 -5.77324 0
M  V30 4508 H 434.102 -0.0225344 -7.84197 0
M  V30 4509 N 431.605 1.3629 0.791371 0
M  V30 4510 C 432.852 1.30412 1.54916 0
M  V30 4511 C 433.18 -0.117162 1.94147 0
M  V30 4512 O 432.435 -1.08599 1.62803 0
M  V30 4513 C 432.734 2.17068 2.8393 0
M  V30 4514 C 432.4 3.65645 2.63846 0
M  V30 4515 C 431.062 4.0614 2.58077 0
M  V30 4516 C 433.414 4.59855 2.45322 0
M  V30 4517 C 430.742 5.3899 2.31748 0
M  V30 4518 C 433.094 5.9292 2.2052 0
M  V30 4519 C 431.758 6.32542 2.13183 0
M  V30 4520 H 431.028 0.47721 0.566879 0
M  V30 4521 H 433.675 1.68325 0.913172 0
M  V30 4522 H 431.98 1.72085 3.51986 0
M  V30 4523 H 433.677 2.09846 3.4171 0
M  V30 4524 H 430.267 3.33518 2.69191 0
M  V30 4525 H 434.451 4.29443 2.48782 0
M  V30 4526 H 429.707 5.68672 2.24548 0
M  V30 4527 H 433.881 6.65487 2.05182 0
M  V30 4528 H 431.508 7.35412 1.92544 0
M  V30 4529 N 433.083 -1.0153 1.20538 0
M  V30 4530 C 434.033 -2.08482 0.922991 0
M  V30 4531 C 435.017 -1.60469 -0.117702 0
M  V30 4532 O 436.209 -1.76772 0.0898465 0
M  V30 4533 C 433.338 -3.39952 0.478312 0
M  V30 4534 C 432.424 -3.94662 1.5525 0
M  V30 4535 N 432.815 -4.22866 2.77521 0
M  V30 4536 C 431.113 -4.22825 1.41897 0
M  V30 4537 C 431.814 -4.67002 3.4682 0
M  V30 4538 N 430.79 -4.69356 2.74237 0
M  V30 4539 H 434.592 -2.28199 1.85209 0
M  V30 4540 H 432.106 -1.19512 1.09957 0
M  V30 4541 H 434.103 -4.16105 0.257408 0
M  V30 4542 H 432.763 -3.21648 -0.444148 0
M  V30 4543 H 433.774 -4.11732 3.1416 0
M  V30 4544 H 430.451 -4.13714 0.561015 0
M  V30 4545 H 431.841 -4.97632 4.51455 0
M  V30 4546 N 434.561 -1.01147 -1.20859 0
M  V30 4547 C 435.524 -0.582224 -2.21682 0
M  V30 4548 C 436.524 0.344887 -1.57058 0
M  V30 4549 O 437.714 0.134281 -1.73682 0
M  V30 4550 C 434.846 0.150496 -3.40568 0
M  V30 4551 H 436.039 -1.47408 -2.61172 0
M  V30 4552 H 433.592 -0.800695 -1.34233 0
M  V30 4553 H 434.327 1.0575 -3.06574 0
M  V30 4554 H 434.112 -0.515444 -3.88697 0
M  V30 4555 H 435.602 0.438344 -4.15293 0
M  V30 4556 N 436.039 1.36541 -0.78704 0
M  V30 4557 C 437.002 2.28413 -0.189778 0
M  V30 4558 C 438.002 1.48719 0.611499 0
M  V30 4559 O 439.192 1.68737 0.432842 0
M  V30 4560 C 436.324 3.32824 0.737638 0
M  V30 4561 H 437.517 2.82743 -0.999831 0
M  V30 4562 H 435.07 1.46065 -0.556298 0
M  V30 4563 H 435.805 2.83646 1.57212 0
M  V30 4564 H 435.59 3.91752 0.165044 0
M  V30 4565 H 437.08 4.0144 1.15047 0
M  V30 4566 N 437.518 0.538854 1.48102 0
M  V30 4567 C 438.428 -0.222648 2.33541 0
M  V30 4568 C 439.444 -0.930225 1.47047 0
M  V30 4569 O 440.62 -0.903211 1.80011 0
M  V30 4570 C 437.685 -1.25064 3.23357 0
M  V30 4571 C 436.746 -0.552469 4.2573 0
M  V30 4572 C 435.979 -1.53149 5.11254 0
M  V30 4573 O 436.202 -2.76487 4.9891 0
M  V30 4574 O 435.136 -1.06602 5.92385 0
M  V30 4575 H 438.962 0.477707 2.99919 0
M  V30 4576 H 436.547 0.299669 1.46364 0
M  V30 4577 H 438.429 -1.8445 3.78888 0
M  V30 4578 H 437.104 -1.93325 2.59629 0
M  V30 4579 H 436.011 0.082114 3.7401 0
M  V30 4580 H 437.344 0.0883526 4.92121 0
M  V30 4581 N 438.996 -1.55193 0.274407 0
M  V30 4582 C 439.944 -2.23924 -0.629362 0
M  V30 4583 C 440.938 -1.23602 -1.1584 0
M  V30 4584 O 442.144 -1.41535 -1.11211 0
M  V30 4585 H 438.519 -0.718637 -0.221507 0
M  V30 4586 H 440.49 -2.98388 -0.0268322 0
M  V30 4587 C 439.239 -2.97329 -1.80252 0
M  V30 4588 H 438.562 -3.74313 -1.40462 0
M  V30 4589 H 440.002 -3.48743 -2.41152 0
M  V30 4590 C 438.461 -2.0276 -2.69054 0
M  V30 4591 O 438.991 -1.57836 -3.69392 0
M  V30 4592 N 437.197 -1.69275 -2.36208 0
M  V30 4593 H 436.744 -2.06004 -1.54661 0
M  V30 4594 H 436.702 -1.06271 -2.95895 0
M  V30 4595 N 440.474 -0.00167713 -1.576 0
M  V30 4596 C 441.722 0.681471 -1.90264 0
M  V30 4597 C 442.043 1.7422 -0.875924 0
M  V30 4598 O 441.313 1.95709 0.0864412 0
M  V30 4599 H 439.893 0.254696 -0.702239 0
M  V30 4600 H 442.555 -0.0429996 -1.94853 0
M  V30 4601 H 441.651 1.15166 -2.90075 0
M  V30 4602 N 441.952 1.55251 0.271103 0
M  V30 4603 C 443.229 1.66664 1.02384 0
M  V30 4604 C 443.609 0.534363 2.04225 0
M  V30 4605 O 442.957 -0.465337 2.23712 0
M  V30 4606 C 443.167 3.05961 1.67895 0
M  V30 4607 C 444.515 3.63772 2.18986 0
M  V30 4608 O 445.539 3.08606 1.77878 0
M  V30 4609 O 444.398 4.60429 2.94393 0
M  V30 4610 H 441.492 0.676957 0.475035 0
M  V30 4611 H 444.038 1.67589 0.26681 0
M  V30 4612 H 442.81 3.79815 0.941071 0
M  V30 4613 H 442.433 3.08943 2.5028 0
M  V30 4614 N 443.43 -0.535701 1.48216 0
M  V30 4615 C 444.676 -1.29375 1.56173 0
M  V30 4616 C 445.009 -1.92804 0.232429 0
M  V30 4617 O 444.284 -1.78992 -0.761048 0
M  V30 4618 C 444.567 -2.38747 2.69577 0
M  V30 4619 C 444.42 -1.80046 4.12193 0
M  V30 4620 C 445.739 -3.40551 2.78771 0
M  V30 4621 H 442.858 -0.469027 0.568491 0
M  V30 4622 H 445.5 -0.597358 1.80365 0
M  V30 4623 H 443.65 -2.98147 2.4908 0
M  V30 4624 H 445.322 -1.24742 4.44114 0
M  V30 4625 H 443.565 -1.10609 4.19462 0
M  V30 4626 H 444.236 -2.59212 4.87353 0
M  V30 4627 H 446.712 -2.91099 2.97322 0
M  V30 4628 H 445.588 -4.1448 3.59857 0
M  V30 4629 H 445.849 -4.00746 1.86696 0
M  V30 4630 N 444.908 -1.36708 -0.784132 0
M  V30 4631 C 445.858 -1.2799 -1.88686 0
M  V30 4632 C 446.842 -0.170282 -1.59996 0
M  V30 4633 O 448.034 -0.403571 -1.72338 0
M  V30 4634 C 445.163 -1.07674 -3.25977 0
M  V30 4635 C 444.249 -2.23127 -3.60659 0
M  V30 4636 N 444.64 -3.48467 -3.66612 0
M  V30 4637 C 442.938 -2.15009 -3.90752 0
M  V30 4638 C 443.639 -4.24525 -3.97685 0
M  V30 4639 N 442.615 -3.53524 -4.12943 0
M  V30 4640 H 446.417 -2.22927 -1.91522 0
M  V30 4641 H 443.931 -1.29503 -0.979933 0
M  V30 4642 H 445.928 -0.995151 -4.04849 0
M  V30 4643 H 444.588 -0.13643 -3.24413 0
M  V30 4644 H 445.599 -3.82534 -3.49125 0
M  V30 4645 H 442.276 -1.28963 -3.97083 0
M  V30 4646 H 443.666 -5.32944 -4.0917 0
M  V30 4647 N 446.386 1.0089 -1.21074 0
M  V30 4648 C 447.349 2.0775 -0.968129 0
M  V30 4649 C 448.349 1.6069 0.0593445 0
M  V30 4650 O 449.539 1.73293 -0.177525 0
M  V30 4651 C 446.671 3.37794 -0.459108 0
M  V30 4652 H 447.864 2.30707 -1.9161 0
M  V30 4653 H 445.417 1.17807 -1.02719 0
M  V30 4654 H 446.152 3.20516 0.49397 0
M  V30 4655 H 445.937 3.7328 -1.20019 0
M  V30 4656 H 447.427 4.16454 -0.309099 0
M  V30 4657 N 447.864 1.01787 1.20321 0
M  V30 4658 C 449.111 0.707936 1.89722 0
M  V30 4659 C 449.439 -0.762535 1.78929 0
M  V30 4660 O 448.694 -1.56977 1.16861 0
M  V30 4661 C 448.993 1.09076 3.40349 0
M  V30 4662 C 448.659 2.55765 3.71342 0
M  V30 4663 C 447.321 2.95845 3.79511 0
M  V30 4664 C 449.673 3.50723 3.85542 0
M  V30 4665 C 447.001 4.2982 3.99339 0
M  V30 4666 C 449.353 4.84387 4.06881 0
M  V30 4667 C 448.017 5.24172 4.1328 0
M  V30 4668 H 447.287 0.259052 0.694243 0
M  V30 4669 H 449.934 1.27868 1.42555 0
M  V30 4670 H 448.239 0.438453 3.89339 0
M  V30 4671 H 449.936 0.828636 3.92345 0
M  V30 4672 H 446.526 2.2371 3.65584 0
M  V30 4673 H 450.71 3.20916 3.78585 0
M  V30 4674 H 445.966 4.60196 4.02529 0
M  V30 4675 H 450.14 5.57891 4.1681 0
M  V30 4676 H 447.767 6.27997 4.28396 0
M  V30 4677 N 449.342 -1.36122 0.79427 0
M  V30 4678 C 450.305 -2.28309 0.201889 0
M  V30 4679 C 451.305 -1.49041 -0.603603 0
M  V30 4680 O 452.495 -1.68964 -0.423888 0
M  V30 4681 C 449.627 -3.3321 -0.719978 0
M  V30 4682 H 450.82 -2.82208 1.01481 0
M  V30 4683 H 448.373 -1.45768 0.564037 0
M  V30 4684 H 449.108 -2.84475 -1.55706 0
M  V30 4685 H 448.893 -3.91835 -0.144266 0
M  V30 4686 H 450.383 -4.02044 -1.12916 0
M  V30 4687 N 450.82 -0.546701 -1.47814 0
M  V30 4688 C 452.097 0.0464413 -1.95545 0
M  V30 4689 C 452.477 1.4962 -1.48919 0
M  V30 4690 O 451.825 2.16752 -0.723232 0
M  V30 4691 C 452.035 -0.0881298 -3.48889 0
M  V30 4692 C 453.383 0.0626059 -4.24554 0
M  V30 4693 O 454.407 -0.0151555 -3.56197 0
M  V30 4694 O 453.266 0.228071 -5.46024 0
M  V30 4695 H 450.36 0.0700004 -0.824032 0
M  V30 4696 H 452.906 -0.612482 -1.58262 0
M  V30 4697 H 451.678 -1.09737 -3.75597 0
M  V30 4698 H 451.301 0.608886 -3.9291 0
M  V30 4699 N 452.299 1.55045 -0.282633 0
M  V30 4700 C 453.209 2.26491 0.61147 0
M  V30 4701 C 454.225 1.29348 1.16384 0
M  V30 4702 O 455.401 1.62298 1.19253 0
M  V30 4703 C 452.466 2.97779 1.77563 0
M  V30 4704 C 451.527 4.10418 1.25919 0
M  V30 4705 C 450.76 4.78297 2.36786 0
M  V30 4706 O 450.983 4.45426 3.56303 0
M  V30 4707 O 449.917 5.66089 2.04517 0
M  V30 4708 H 453.743 3.03683 0.0324615 0
M  V30 4709 H 451.328 1.49317 -0.0497576 0
M  V30 4710 H 453.21 3.42554 2.45427 0
M  V30 4711 H 451.885 2.23498 2.34159 0
M  V30 4712 H 450.792 3.70082 0.546797 0
M  V30 4713 H 452.125 4.86622 0.738887 0
M  V30 4714 N 453.777 0.010035 1.57597 0
M  V30 4715 C 455.023 -0.673697 1.91283 0
M  V30 4716 C 455.356 -1.72863 0.884979 0
M  V30 4717 O 454.631 -1.94268 -0.0949487 0
M  V30 4718 C 454.914 -1.30766 3.35518 0
M  V30 4719 C 454.767 -0.263578 4.49027 0
M  V30 4720 C 456.086 -2.23105 3.79358 0
M  V30 4721 H 453.205 -0.243439 0.695634 0
M  V30 4722 H 455.847 0.0633864 1.89894 0
M  V30 4723 H 453.997 -1.93588 3.36832 0
M  V30 4724 H 455.669 0.365738 4.59848 0
M  V30 4725 H 453.912 0.413077 4.31829 0
M  V30 4726 H 454.583 -0.746398 5.4693 0
M  V30 4727 H 457.059 -1.70289 3.79659 0
M  V30 4728 H 455.935 -2.64424 4.81011 0
M  V30 4729 H 456.196 -3.11433 3.13787 0
M  V30 4730 N 455.255 -1.55392 -0.262866 0
M  V30 4731 C 456.202 -1.88966 -1.32516 0
M  V30 4732 C 457.172 -0.742187 -1.48596 0
M  V30 4733 O 458.357 -0.99439 -1.62839 0
M  V30 4734 C 455.497 -2.17592 -2.67858 0
M  V30 4735 C 454.61 -3.45061 -2.59917 0
M  V30 4736 C 453.745 -3.63336 -3.87505 0
M  V30 4737 C 452.784 -4.84462 -3.74116 0
M  V30 4738 N 451.921 -4.99342 -4.93561 0
M  V30 4739 H 456.761 -2.79566 -1.03184 0
M  V30 4740 H 454.298 -1.38404 -0.498285 0
M  V30 4741 H 456.256 -2.3219 -3.46617 0
M  V30 4742 H 454.886 -1.30215 -2.95371 0
M  V30 4743 H 453.938 -3.38881 -1.72812 0
M  V30 4744 H 455.25 -4.3396 -2.45926 0
M  V30 4745 H 454.404 -3.77807 -4.74707 0
M  V30 4746 H 453.143 -2.72641 -4.04374 0
M  V30 4747 H 452.148 -4.69985 -2.85297 0
M  V30 4748 H 453.373 -5.76603 -3.58757 0
M  V30 4749 H 451.319 -4.1158 -5.10821 0
M  V30 4750 H 451.236 -5.82303 -4.82141 0
M  V30 4751 H 452.504 -5.18208 -5.82306 0
M  V30 4752 N 456.733 0.527833 -1.48498 0
M  V30 4753 C 457.643 1.65907 -1.65867 0
M  V30 4754 C 458.659 1.6537 -0.541192 0
M  V30 4755 O 459.835 1.84282 -0.812534 0
M  V30 4756 C 456.9 3.02364 -1.69637 0
M  V30 4757 C 455.961 3.1374 -2.93028 0
M  V30 4758 C 455.194 4.43688 -2.96609 0
M  V30 4759 O 455.417 5.30913 -2.08538 0
M  V30 4760 O 454.351 4.59475 -3.88802 0
M  V30 4761 H 458.177 1.5419 -2.61647 0
M  V30 4762 H 455.762 0.701163 -1.31924 0
M  V30 4763 H 457.644 3.83515 -1.74625 0
M  V30 4764 H 456.319 3.14401 -0.770312 0
M  V30 4765 H 455.226 2.31877 -2.93571 0
M  V30 4766 H 456.559 3.06621 -3.85026 0
M  V30 4767 N 458.211 1.37122 0.776871 0
M  V30 4768 C 459.141 1.35164 1.90402 0
M  V30 4769 C 460.122 0.221069 1.68657 0
M  V30 4770 O 461.307 0.420642 1.8959 0
M  V30 4771 C 458.437 1.15274 3.27611 0
M  V30 4772 C 457.391 2.25289 3.63908 0
M  V30 4773 C 456.717 1.90527 4.99603 0
M  V30 4774 C 458.017 3.67446 3.71188 0
M  V30 4775 H 459.711 2.29482 1.92297 0
M  V30 4776 H 457.257 1.10465 0.923773 0
M  V30 4777 H 459.21 1.12536 4.06096 0
M  V30 4778 H 457.934 0.174102 3.26136 0
M  V30 4779 H 456.593 2.27174 2.87728 0
M  V30 4780 H 456.241 0.91206 4.94662 0
M  V30 4781 H 455.941 2.64193 5.24858 0
M  V30 4782 H 457.465 1.89367 5.80493 0
M  V30 4783 H 458.879 3.67719 4.39836 0
M  V30 4784 H 457.276 4.40123 4.07936 0
M  V30 4785 H 458.346 4.01443 2.71977 0
M  V30 4786 N 459.689 -1.00246 1.21608 0
M  V30 4787 C 460.937 -1.73717 1.0328 0
M  V30 4788 C 461.258 -1.90102 -0.434318 0
M  V30 4789 O 460.528 -1.45376 -1.31311 0
M  V30 4790 H 459.108 -0.643613 0.379172 0
M  V30 4791 H 461.77 -1.20787 1.52959 0
M  V30 4792 H 460.866 -2.73535 1.50283 0
M  V30 4793 N 461.167 -1.02423 -1.1978 0
M  V30 4794 C 462.099 -0.559152 -2.22275 0
M  V30 4795 C 463.112 0.36251 -1.58713 0
M  V30 4796 O 464.301 0.159641 -1.77785 0
M  V30 4797 C 461.401 0.205094 -3.38279 0
M  V30 4798 C 460.574 -0.720361 -4.31427 0
M  V30 4799 C 459.633 -0.00234368 -5.262 0
M  V30 4800 O 458.659 -0.627378 -5.65732 0
M  V30 4801 N 459.861 1.26996 -5.66438 0
M  V30 4802 H 462.626 -1.44064 -2.62804 0
M  V30 4803 H 460.187 -0.902692 -1.34399 0
M  V30 4804 H 462.179 0.694868 -3.9869 0
M  V30 4805 H 460.749 0.987947 -2.96578 0
M  V30 4806 H 459.969 -1.39031 -3.68869 0
M  V30 4807 H 461.257 -1.3495 -4.90577 0
M  V30 4808 H 460.655 1.79858 -5.36347 0
M  V30 4809 H 459.212 1.70432 -6.29123 0
M  V30 4810 N 462.645 1.35699 -0.801477 0
M  V30 4811 C 463.87 2.03687 -0.390678 0
M  V30 4812 C 464.295 1.60015 0.988778 0
M  V30 4813 O 463.653 0.774357 1.63931 0
M  V30 4814 C 463.701 3.57439 -0.476404 0
M  V30 4815 O 462.805 4.09208 0.512106 0
M  V30 4816 H 462.146 0.64344 -0.163956 0
M  V30 4817 H 464.676 1.73403 -1.08594 0
M  V30 4818 H 464.686 4.06544 -0.344357 0
M  V30 4819 H 463.361 3.88576 -1.48262 0
M  V30 4820 H 461.938 3.7134 0.340721 0
M  V30 4821 N 464.123 0.554532 1.47522 0
M  V30 4822 C 465.053 -0.182974 2.32782 0
M  V30 4823 C 466.034 -0.911377 1.43624 0
M  V30 4824 O 467.219 -0.892366 1.72483 0
M  V30 4825 C 464.349 -1.21513 3.25349 0
M  V30 4826 C 463.303 -0.603355 4.23726 0
M  V30 4827 C 462.629 -1.73995 5.05598 0
M  V30 4828 C 463.929 0.441121 5.20434 0
M  V30 4829 H 465.623 0.52882 2.94693 0
M  V30 4830 H 463.169 0.255759 1.41711 0
M  V30 4831 H 465.122 -1.73922 3.83835 0
M  V30 4832 H 463.846 -1.95683 2.61487 0
M  V30 4833 H 462.505 -0.10059 3.66462 0
M  V30 4834 H 462.153 -2.47063 4.38143 0
M  V30 4835 H 461.853 -1.3364 5.72201 0
M  V30 4836 H 463.377 -2.26735 5.66942 0
M  V30 4837 H 464.791 0.00319931 5.733 0
M  V30 4838 H 463.188 0.763402 5.95224 0
M  V30 4839 H 464.258 1.33799 4.66075 0
M  V30 4840 N 465.601 -1.54893 0.290851 0
M  V30 4841 C 467.012 -1.85584 -0.203816 0
M  V30 4842 C 467.363 -1.21285 -1.54222 0
M  V30 4843 O 466.488 -0.506841 -2.10381 0
M  V30 4844 C 467.083 -3.367 -0.376595 0
M  V30 4845 C 465.642 -3.6746 -0.815485 0
M  V30 4846 C 464.789 -2.77178 0.0821087 0
M  V30 4847 H 467.74 -1.50208 0.512175 0
M  V30 4848 H 467.761 -3.60656 -1.21275 0
M  V30 4849 H 467.273 -3.8347 0.59767 0
M  V30 4850 H 465.374 -3.26201 -1.80066 0
M  V30 4851 H 465.487 -4.7478 -0.641905 0
M  V30 4852 H 463.851 -2.50925 -0.436895 0
M  V30 4853 H 464.634 -3.26767 1.05254 0
M  V30 4854 N 467.08 -0.0183926 -1.57589 0
M  V30 4855 C 468.496 0.337897 -1.55982 0
M  V30 4856 C 468.696 1.73604 -1.02294 0
M  V30 4857 O 467.752 2.43589 -0.664895 0
M  V30 4858 C 469.065 0.196305 -3.00059 0
M  V30 4859 C 470.613 0.269875 -3.11834 0
M  V30 4860 C 471.088 0.157197 -4.5773 0
M  V30 4861 N 472.579 0.214521 -4.62703 0
M  V30 4862 C 473.314 0.150955 -5.73201 0
M  V30 4863 N 472.81 0.0369212 -6.9279 0
M  V30 4864 N 474.603 0.204162 -5.61729 0
M  V30 4865 H 466.754 -0.93279 -1.90821 0
M  V30 4866 H 469.017 -0.359253 -0.877292 0
M  V30 4867 H 468.723 -0.766383 -3.43248 0
M  V30 4868 H 468.597 0.970908 -3.6449 0
M  V30 4869 H 470.984 1.22302 -2.68563 0
M  V30 4870 H 471.065 -0.534918 -2.50144 0
M  V30 4871 H 470.709 -0.792479 -5.01679 0
M  V30 4872 H 470.639 0.980717 -5.17387 0
M  V30 4873 H 473.13 0.303238 -3.76681 0
M  V30 4874 H 473.443 -0.00518321 -7.728 0
M  V30 4875 H 471.788 0.0022886 -6.95 0
M  V30 4876 H 474.979 0.291575 -4.67191 0
M  V30 4877 H 475.152 0.15116 -6.47824 0
M  V30 4878 N 468.558 1.5553 0.254621 0
M  V30 4879 C 469.805 1.77 0.983736 0
M  V30 4880 C 470.133 0.58133 1.85609 0
M  V30 4881 O 469.388 -0.435621 1.9079 0
M  V30 4882 C 469.687 3.03891 1.88109 0
M  V30 4883 C 469.353 4.35597 1.16472 0
M  V30 4884 C 468.015 4.7139 0.966714 0
M  V30 4885 C 470.367 5.1705 0.656387 0
M  V30 4886 C 467.695 5.86176 0.247942 0
M  V30 4887 C 470.047 6.32581 -0.0488807 0
M  V30 4888 C 468.711 6.67 -0.258438 0
M  V30 4889 H 467.981 0.647688 0.359974 0
M  V30 4890 H 470.628 1.89802 0.254463 0
M  V30 4891 H 468.933 2.86068 2.67717 0
M  V30 4892 H 470.63 3.17701 2.44677 0
M  V30 4893 H 467.22 4.07475 1.32899 0
M  V30 4894 H 471.404 4.8986 0.796933 0
M  V30 4895 H 466.66 6.11354 0.075035 0
M  V30 4896 H 470.834 6.94942 -0.450444 0
M  V30 4897 H 468.461 7.55793 -0.817358 0
M  V30 4898 N 470.036 -0.519951 1.48776 0
M  V30 4899 C 471.264 -1.29971 1.60982 0
M  V30 4900 C 471.679 -1.86803 0.273885 0
M  V30 4901 O 471.036 -1.66904 -0.738193 0
M  V30 4902 C 471.087 -2.44346 2.66415 0
M  V30 4903 O 470.808 -1.89855 3.94825 0
M  V30 4904 C 472.309 -3.36014 2.89153 0
M  V30 4905 H 469.529 -0.394891 0.542496 0
M  V30 4906 H 472.073 -0.626214 1.94676 0
M  V30 4907 H 470.228 -3.07562 2.35552 0
M  V30 4908 H 470.642 -2.64798 4.5275 0
M  V30 4909 H 472.116 -4.12593 3.66703 0
M  V30 4910 H 472.593 -3.91859 1.98351 0
M  V30 4911 H 473.199 -2.78582 3.21359 0
M  V30 4912 N 471.514 -1.37532 -0.769588 0
M  V30 4913 C 472.477 -1.33292 -1.86456 0
M  V30 4914 C 473.477 -0.236537 -1.59051 0
M  V30 4915 O 474.667 -0.492511 -1.67093 0
M  V30 4916 C 471.799 -1.07118 -3.23633 0
M  V30 4917 H 472.992 -2.30692 -1.91628 0
M  V30 4918 H 470.545 -1.22593 -0.969572 0
M  V30 4919 H 471.28 -0.102578 -3.24138 0
M  V30 4920 H 471.065 -1.86479 -3.44917 0
M  V30 4921 H 472.555 -1.06806 -4.03711 0
M  V30 4922 N 472.992 0.995999 -1.22138 0
M  V30 4923 C 473.942 2.06988 -0.956042 0
M  V30 4924 C 474.926 1.60636 0.0921576 0
M  V30 4925 O 476.118 1.76607 -0.117958 0
M  V30 4926 C 473.247 3.39148 -0.532335 0
M  V30 4927 C 472.333 3.92142 -1.61509 0
M  V30 4928 N 472.724 4.18397 -2.84214 0
M  V30 4929 C 471.022 4.20514 -1.48606 0
M  V30 4930 C 471.723 4.61425 -3.54206 0
M  V30 4931 N 470.699 4.64934 -2.81669 0
M  V30 4932 H 474.501 2.25223 -1.88816 0
M  V30 4933 H 472.015 1.17748 -1.11845 0
M  V30 4934 H 474.012 4.15642 -0.323574 0
M  V30 4935 H 472.672 3.22314 0.392921 0
M  V30 4936 H 473.683 4.06682 -3.20671 0
M  V30 4937 H 470.36 4.12769 -0.626762 0
M  V30 4938 H 471.75 4.90387 -4.59315 0
M  V30 4939 N 474.47 1.03057 1.19235 0
M  V30 4940 C 475.698 0.747697 1.92917 0
M  V30 4941 C 476.113 -0.69372 1.75593 0
M  V30 4942 O 475.47 -1.47191 1.07894 0
M  V30 4943 C 475.521 1.09159 3.44625 0
M  V30 4944 O 475.242 2.47641 3.61394 0
M  V30 4945 C 476.743 0.831763 4.35427 0
M  V30 4946 H 473.963 0.273453 0.612751 0
M  V30 4947 H 476.507 1.37552 1.51327 0
M  V30 4948 H 474.662 0.508919 3.84043 0
M  V30 4949 H 475.076 2.60499 4.55237 0
M  V30 4950 H 476.55 1.12233 5.4047 0
M  V30 4951 H 477.027 -0.233769 4.38577 0
M  V30 4952 H 477.633 1.39725 4.01693 0
M  V30 4953 N 475.948 -1.35272 0.808662 0
M  V30 4954 C 477.194 -1.99434 0.399717 0
M  V30 4955 C 477.549 -1.62992 -1.02232 0
M  V30 4956 O 476.842 -0.884091 -1.69983 0
M  V30 4957 C 477.036 -3.53556 0.522798 0
M  V30 4958 C 476.865 -4.04969 1.95525 0
M  V30 4959 C 475.635 -4.34228 2.58407 0
M  V30 4960 C 477.833 -4.23362 2.92009 0
M  V30 4961 N 475.815 -4.71585 3.93041 0
M  V30 4962 C 477.186 -4.63739 4.11517 0
M  V30 4963 C 479.241 -4.05576 2.88813 0
M  V30 4964 C 477.944 -4.88189 5.28265 0
M  V30 4965 C 479.97 -4.31184 4.04765 0
M  V30 4966 C 479.332 -4.71834 5.23022 0
M  V30 4967 H 475.431 -0.757534 0.19408 0
M  V30 4968 H 478.015 -1.63939 1.05034 0
M  V30 4969 H 476.186 -3.88277 -0.0978471 0
M  V30 4970 H 477.918 -4.04604 0.0882378 0
M  V30 4971 H 474.673 -4.24621 2.09747 0
M  V30 4972 H 475.097 -4.9452 4.62363 0
M  V30 4973 H 479.739 -3.73288 1.98535 0
M  V30 4974 H 477.457 -5.1935 6.19113 0
M  V30 4975 H 481.043 -4.18972 4.03675 0
M  V30 4976 H 479.923 -4.91263 6.11253 0
M  V30 4977 N 477.426 -0.562348 -1.47226 0
M  V30 4978 C 478.656 -0.0451619 -2.06551 0
M  V30 4979 C 479.064 1.25626 -1.41473 0
M  V30 4980 O 478.407 1.76563 -0.507061 0
M  V30 4981 C 478.469 0.216068 -3.5885 0
M  V30 4982 C 478.133 -0.996691 -4.45999 0
M  V30 4983 C 479.13 -1.90358 -4.83797 0
M  V30 4984 C 476.815 -1.21281 -4.87438 0
M  V30 4985 C 478.809 -3.01023 -5.6184 0
M  V30 4986 C 476.496 -2.32255 -5.65244 0
M  V30 4987 C 477.494 -3.21956 -6.02356 0
M  V30 4988 O 477.182 -4.31005 -6.78594 0
M  V30 4989 H 476.914 -0.0451646 -0.67449 0
M  V30 4990 H 479.468 -0.776842 -1.90143 0
M  V30 4991 H 477.698 1.00212 -3.7349 0
M  V30 4992 H 479.387 0.679264 -4.00176 0
M  V30 4993 H 480.153 -1.74868 -4.52378 0
M  V30 4994 H 476.032 -0.523767 -4.58015 0
M  V30 4995 H 479.576 -3.71064 -5.90726 0
M  V30 4996 H 475.473 -2.47715 -5.96077 0
M  V30 4997 H 476.241 -4.29118 -6.96994 0
M  V30 4998 N 478.904 1.54736 -0.299062 0
M  V30 4999 C 480.32 1.59507 0.0543849 0
M  V30 5000 C 480.52 1.31606 1.52585 0
M  V30 5001 O 479.576 1.08853 2.27832 0
M  V30 5002 C 480.889 2.98751 -0.34181 0
M  V30 5003 C 482.437 3.1165 -0.290414 0
M  V30 5004 C 482.912 4.53199 -0.661402 0
M  V30 5005 N 484.403 4.59114 -0.613863 0
M  V30 5006 C 485.138 5.66709 -0.873417 0
M  V30 5007 N 484.634 6.82349 -1.19884 0
M  V30 5008 N 486.427 5.56369 -0.800608 0
M  V30 5009 H 478.578 1.71133 -1.25806 0
M  V30 5010 H 480.841 0.799186 -0.509908 0
M  V30 5011 H 480.547 3.24085 -1.36608 0
M  V30 5012 H 480.421 3.75961 0.305508 0
M  V30 5013 H 482.808 2.86066 0.724605 0
M  V30 5014 H 482.889 2.366 -0.972327 0
M  V30 5015 H 482.533 4.79513 -1.67422 0
M  V30 5016 H 482.463 5.26583 0.0425612 0
M  V30 5017 H 484.954 3.76053 -0.3732 0
M  V30 5018 H 485.267 7.60326 -1.38291 0
M  V30 5019 H 483.612 6.83906 -1.23685 0
M  V30 5020 H 486.803 4.64904 -0.546045 0
M  V30 5021 H 486.976 6.40139 -1.00626 0
M  V30 5022 N 480.382 0.0267497 1.57577 0
M  V30 5023 C 481.314 -0.984594 2.06974 0
M  V30 5024 C 482.327 -1.29032 0.992705 0
M  V30 5025 O 483.516 -1.25539 1.26895 0
M  V30 5026 C 480.616 -2.31262 2.47732 0
M  V30 5027 C 479.789 -2.1924 3.78487 0
M  V30 5028 C 478.848 -3.34956 4.05821 0
M  V30 5029 O 477.874 -3.11948 4.76106 0
M  V30 5030 N 479.076 -4.58672 3.55809 0
M  V30 5031 H 481.841 -0.563143 2.94362 0
M  V30 5032 H 479.402 -0.160061 1.61107 0
M  V30 5033 H 481.394 -3.07496 2.63112 0
M  V30 5034 H 479.964 -2.65056 1.65723 0
M  V30 5035 H 479.184 -1.27747 3.72927 0
M  V30 5036 H 480.472 -2.08409 4.64158 0
M  V30 5037 H 479.87 -4.8026 2.98942 0
M  V30 5038 H 478.427 -5.32083 3.76472 0
M  V30 5039 N 481.861 -1.55662 -0.24637 0
M  V30 5040 C 483.272 -1.67953 -0.81539 0
M  V30 5041 C 483.623 -0.624302 -1.86002 0
M  V30 5042 O 482.748 0.229328 -2.15181 0
M  V30 5043 C 483.343 -3.04484 -1.48576 0
M  V30 5044 C 481.902 -3.18713 -2.00248 0
M  V30 5045 C 481.049 -2.6383 -0.853766 0
M  V30 5046 H 484 -1.58685 -0.0221692 0
M  V30 5047 H 484.021 -2.98959 -2.3538 0
M  V30 5048 H 483.533 -3.81264 -0.725222 0
M  V30 5049 H 481.634 -2.46757 -2.79181 0
M  V30 5050 H 481.747 -4.25628 -2.1995 0
M  V30 5051 H 480.111 -2.21667 -1.25442 0
M  V30 5052 H 480.894 -3.43135 -0.106302 0
M  V30 5053 N 483.339 0.512053 -1.4905 0
M  V30 5054 C 484.564 1.2959 -1.6193 0
M  V30 5055 C 484.989 1.85906 -0.286454 0
M  V30 5056 O 484.347 1.65312 0.744426 0
M  V30 5057 C 484.395 2.40987 -2.68249 0
M  V30 5058 O 483.499 3.44531 -2.26654 0
M  V30 5059 H 482.84 0.383053 -0.542371 0
M  V30 5060 H 485.37 0.614231 -1.95162 0
M  V30 5061 H 485.38 2.86913 -2.90078 0
M  V30 5062 H 484.055 1.99361 -3.65004 0
M  V30 5063 H 482.632 3.046 -2.15112 0
M  V30 5064 N 484.817 1.37938 0.762283 0
M  V30 5065 C 485.727 1.36681 1.90671 0
M  V30 5066 C 486.743 0.265078 1.71969 0
M  V30 5067 O 487.919 0.502055 1.95042 0
M  V30 5068 C 484.984 1.18211 3.25925 0
M  V30 5069 C 484.045 2.3811 3.57214 0
M  V30 5070 C 483.278 2.20512 4.86014 0
M  V30 5071 O 483.501 1.19429 5.57757 0
M  V30 5072 O 482.435 3.08911 5.16583 0
M  V30 5073 H 486.261 2.33091 1.94685 0
M  V30 5074 H 483.846 1.18767 0.906356 0
M  V30 5075 H 485.728 1.09937 4.06807 0
M  V30 5076 H 484.403 0.248807 3.22742 0
M  V30 5077 H 483.31 2.51958 2.76529 0
M  V30 5078 H 484.643 3.30041 3.65149 0
M  V30 5079 N 486.295 -0.989507 1.22664 0
M  V30 5080 C 487.258 -2.06183 1.00106 0
M  V30 5081 C 488.258 -1.60765 -0.0337726 0
M  V30 5082 O 489.448 -1.72989 0.205072 0
M  V30 5083 C 486.58 -3.37021 0.51279 0
M  V30 5084 H 487.773 -2.27629 1.95256 0
M  V30 5085 H 485.326 -1.16158 1.0458 0
M  V30 5086 H 486.061 -3.21261 -0.442917 0
M  V30 5087 H 485.846 -3.71323 1.25942 0
M  V30 5088 H 487.336 -4.1591 0.375315 0
M  V30 5089 N 487.773 -1.03688 -1.18687 0
M  V30 5090 C 489.05 -0.652397 -1.84399 0
M  V30 5091 C 489.43 0.868386 -1.92412 0
M  V30 5092 O 488.778 1.76832 -1.44716 0
M  V30 5093 C 488.988 -1.3238 -3.22919 0
M  V30 5094 C 490.336 -1.45216 -3.98996 0
M  V30 5095 O 491.36 -1.2816 -3.32345 0
M  V30 5096 O 490.219 -1.72975 -5.18403 0
M  V30 5097 H 487.313 -0.227793 -0.795009 0
M  V30 5098 H 489.859 -1.13553 -1.2611 0
M  V30 5099 H 488.631 -2.36202 -3.11968 0
M  V30 5100 H 488.254 -0.829039 -3.88861 0
M  V30 5101 N 489.251 1.34841 -0.815825 0
M  V30 5102 C 490.667 1.51543 -0.500697 0
M  V30 5103 C 490.867 1.76261 0.976444 0
M  V30 5104 O 489.923 1.8094 1.76117 0
M  V30 5105 C 491.236 2.68487 -1.35407 0
M  V30 5106 C 492.784 2.82368 -1.35046 0
M  V30 5107 C 493.259 4.02347 -2.18816 0
M  V30 5108 N 494.75 4.09542 -2.16402 0
M  V30 5109 C 495.485 5.01517 -2.77971 0
M  V30 5110 N 494.981 5.98763 -3.48503 0
M  V30 5111 N 496.774 4.94334 -2.67563 0
M  V30 5112 H 488.925 1.17055 -1.77234 0
M  V30 5113 H 491.188 0.573481 -0.754866 0
M  V30 5114 H 490.894 2.56829 -2.40274 0
M  V30 5115 H 490.768 3.63321 -1.01377 0
M  V30 5116 H 493.155 2.93471 -0.309604 0
M  V30 5117 H 493.236 1.88363 -1.73069 0
M  V30 5118 H 492.88 3.92004 -3.22948 0
M  V30 5119 H 492.81 4.95551 -1.78148 0
M  V30 5120 H 495.301 3.39932 -1.65091 0
M  V30 5121 H 495.614 6.6556 -3.92747 0
M  V30 5122 H 493.959 5.98909 -3.52609 0
M  V30 5123 H 497.15 4.1732 -2.12041 0
M  V30 5124 H 497.323 5.6582 -3.15834 0
M  V30 5125 N 490.729 0.570148 1.46925 0
M  V30 5126 C 491.692 -0.159933 2.28641 0
M  V30 5127 C 492.692 -0.830638 1.37685 0
M  V30 5128 O 493.882 -0.684516 1.60187 0
M  V30 5129 C 491.014 -1.2354 3.17727 0
M  V30 5130 H 492.207 0.558035 2.94662 0
M  V30 5131 H 489.76 0.327603 1.52828 0
M  V30 5132 H 490.495 -1.98535 2.56426 0
M  V30 5133 H 490.28 -0.759125 3.84681 0
M  V30 5134 H 491.77 -1.74782 3.79264 0
M  V30 5135 N 492.207 -1.54576 0.307264 0
M  V30 5136 C 493.154 -2.23751 -0.56604 0
M  V30 5137 C 494.124 -1.22235 -1.12462 0
M  V30 5138 O 495.309 -1.50873 -1.16799 0
M  V30 5139 C 492.449 -2.98661 -1.72903 0
M  V30 5140 C 491.562 -4.14963 -1.20124 0
M  V30 5141 C 490.697 -4.77441 -2.3286 0
M  V30 5142 C 489.736 -5.85875 -1.77247 0
M  V30 5143 N 488.873 -6.42282 -2.8358 0
M  V30 5144 H 493.713 -2.97984 0.0304578 0
M  V30 5145 H 491.25 -1.47076 0.0268015 0
M  V30 5146 H 493.208 -3.40329 -2.41313 0
M  V30 5147 H 491.838 -2.26793 -2.29706 0
M  V30 5148 H 490.89 -3.78193 -0.409198 0
M  V30 5149 H 492.202 -4.93066 -0.754171 0
M  V30 5150 H 491.356 -5.21993 -3.09205 0
M  V30 5151 H 490.095 -3.98684 -2.80896 0
M  V30 5152 H 489.1 -5.40741 -0.993926 0
M  V30 5153 H 490.325 -6.6652 -1.30107 0
M  V30 5154 H 488.271 -5.66406 -3.30939 0
M  V30 5155 H 488.188 -7.1575 -2.43388 0
M  V30 5156 H 489.456 -6.91492 -3.59804 0
M  V30 5157 N 493.685 -0.035106 -1.57561 0
M  V30 5158 C 494.933 0.64096 -1.91667 0
M  V30 5159 C 495.254 1.72323 -0.912681 0
M  V30 5160 O 494.524 1.95849 0.0449089 0
M  V30 5161 H 493.104 0.239743 -0.707483 0
M  V30 5162 H 495.766 -0.084321 -1.94718 0
M  V30 5163 H 494.862 1.08987 -2.92452 0
M  V30 5164 N 495.163 1.55791 0.238111 0
M  V30 5165 C 496.095 1.87513 1.31802 0
M  V30 5166 C 497.108 0.762053 1.43863 0
M  V30 5167 O 498.297 1.04024 1.45056 0
M  V30 5168 C 495.397 2.05402 2.69561 0
M  V30 5169 C 494.57 3.3632 2.79656 0
M  V30 5170 C 493.629 3.43844 3.98319 0
M  V30 5171 O 492.655 4.16994 3.87433 0
M  V30 5172 N 493.857 2.73777 5.11885 0
M  V30 5173 H 496.622 2.80734 1.04922 0
M  V30 5174 H 494.183 1.56135 0.428196 0
M  V30 5175 H 496.175 2.07769 3.47296 0
M  V30 5176 H 494.745 1.18884 2.89111 0
M  V30 5177 H 493.965 3.46195 1.88528 0
M  V30 5178 H 495.253 4.22594 2.83358 0
M  V30 5179 H 494.651 2.14094 5.23622 0
M  V30 5180 H 493.208 2.81825 5.87723 0
M  V30 5181 N 496.642 -0.504142 1.49319 0
M  V30 5182 C 497.889 -1.25846 1.58647 0
M  V30 5183 C 498.217 -1.92592 0.27177 0
M  V30 5184 O 497.472 -1.81167 -0.74007 0
M  V30 5185 C 497.771 -2.35021 2.69258 0
M  V30 5186 C 497.437 -1.85755 4.1086 0
M  V30 5187 C 496.099 -1.72038 4.49395 0
M  V30 5188 C 498.451 -1.48844 4.99495 0
M  V30 5189 C 495.779 -1.19783 5.74342 0
M  V30 5190 C 498.131 -0.980422 6.24956 0
M  V30 5191 C 496.795 -0.829622 6.62324 0
M  V30 5192 H 496.065 -0.460505 0.580531 0
M  V30 5193 H 498.712 -0.559716 1.83138 0
M  V30 5194 H 497.017 -3.10672 2.38726 0
M  V30 5195 H 498.714 -2.93083 2.73685 0
M  V30 5196 H 495.304 -1.9739 3.80441 0
M  V30 5197 H 499.488 -1.5829 4.70381 0
M  V30 5198 H 494.744 -1.06817 6.01997 0
M  V30 5199 H 498.918 -0.685608 6.93017 0
M  V30 5200 H 496.545 -0.42253 7.59025 0
M  V30 5201 N 498.12 -1.38341 -0.754957 0
M  V30 5202 C 499.397 -1.24995 -1.50451 0
M  V30 5203 C 499.777 0.149244 -2.10572 0
M  V30 5204 O 499.125 1.15861 -1.96948 0
M  V30 5205 C 499.335 -2.35904 -2.57197 0
M  V30 5206 C 500.683 -2.74262 -3.24138 0
M  V30 5207 O 501.707 -2.35205 -2.67501 0
M  V30 5208 O 500.566 -3.4161 -4.26574 0
M  V30 5209 H 497.66 -0.48872 -0.667144 0
M  V30 5210 H 500.206 -1.50165 -0.790486 0
M  V30 5211 H 498.978 -3.2953 -2.11011 0
M  V30 5212 H 498.601 -2.12291 -3.36182 0
M  V30 5213 N 499.598 0.982988 -1.23187 0
M  V30 5214 C 500.823 1.76455 -1.08988 0
M  V30 5215 C 501.248 1.84726 0.354691 0
M  V30 5216 O 500.606 1.30699 1.25649 0
M  V30 5217 C 500.654 3.17094 -1.71708 0
M  V30 5218 O 499.758 4.00648 -0.977477 0
M  V30 5219 H 499.099 0.542988 -0.382177 0
M  V30 5220 H 501.629 1.23413 -1.63188 0
M  V30 5221 H 501.639 3.67684 -1.76841 0
M  V30 5222 H 500.314 3.10389 -2.76823 0
M  V30 5223 H 498.891 3.59161 -1.0029 0
M  V30 5224 N 501.076 1.04316 1.18135 0
M  V30 5225 C 501.986 0.646876 2.25505 0
M  V30 5226 C 503.002 -0.328008 1.7088 0
M  V30 5227 O 504.178 -0.182309 2.00573 0
M  V30 5228 C 501.243 0.0185664 3.46695 0
M  V30 5229 C 500.304 1.04277 4.16443 0
M  V30 5230 C 499.537 0.444352 5.31847 0
M  V30 5231 O 499.76 -0.748735 5.65465 0
M  V30 5232 O 498.694 1.17428 5.90334 0
M  V30 5233 H 502.52 1.54147 2.61672 0
M  V30 5234 H 500.105 0.814188 1.25265 0
M  V30 5235 H 501.987 -0.331068 4.20097 0
M  V30 5236 H 500.662 -0.849814 3.12346 0
M  V30 5237 H 499.569 1.44425 3.45098 0
M  V30 5238 H 500.902 1.882 4.54798 0
M  V30 5239 N 502.554 -1.34406 0.822964 0
M  V30 5240 C 503.802 -1.97892 0.410245 0
M  V30 5241 C 504.123 -1.65567 -1.03017 0
M  V30 5242 O 503.393 -0.94642 -1.71522 0
M  V30 5243 H 501.973 -0.732049 0.148707 0
M  V30 5244 H 504.635 -1.64043 1.05242 0
M  V30 5245 H 503.731 -3.07579 0.529284 0
M  V30 5246 N 504.032 -0.577932 -1.46621 0
M  V30 5247 C 504.962 0.145917 -2.33044 0
M  V30 5248 C 505.943 0.888412 -1.45056 0
M  V30 5249 O 507.128 0.864812 -1.73881 0
M  V30 5250 C 504.258 1.16322 -3.27241 0
M  V30 5251 C 503.212 0.535868 -4.24632 0
M  V30 5252 C 502.538 1.65929 -5.08303 0
M  V30 5253 C 503.838 -0.523861 -5.19666 0
M  V30 5254 H 505.532 -0.575636 -2.93814 0
M  V30 5255 H 503.078 -0.278272 -1.41286 0
M  V30 5256 H 505.031 1.67793 -3.86553 0
M  V30 5257 H 503.755 1.91498 -2.64567 0
M  V30 5258 H 502.414 0.0422759 -3.66576 0
M  V30 5259 H 502.062 2.40061 -4.42018 0
M  V30 5260 H 501.762 1.2452 -5.74255 0
M  V30 5261 H 503.286 2.17686 -5.70478 0
M  V30 5262 H 504.7 -0.0944059 -5.73222 0
M  V30 5263 H 503.097 -0.858 -5.93935 0
M  V30 5264 H 504.167 -1.41197 -4.63887 0
M  V30 5265 N 505.51 1.54411 -0.315457 0
M  V30 5266 C 506.443 2.20265 0.596522 0
M  V30 5267 C 507.421 1.17693 1.12192 0
M  V30 5268 O 508.605 1.46397 1.18744 0
M  V30 5269 C 505.732 2.85794 1.81767 0
M  V30 5270 C 504.778 4.02017 1.42424 0
M  V30 5271 S 505.611 5.33452 0.467836 0
M  V30 5272 C 506.767 6.02471 1.69645 0
M  V30 5273 H 507 2.97277 0.0370896 0
M  V30 5274 H 504.533 1.54079 -0.0995562 0
M  V30 5275 H 506.491 3.24172 2.51839 0
M  V30 5276 H 505.152 2.08601 2.34828 0
M  V30 5277 H 504.345 4.46701 2.33396 0
M  V30 5278 H 503.947 3.65271 0.803311 0
M  V30 5279 H 506.239 6.24157 2.63504 0
M  V30 5280 H 507.182 6.96215 1.29192 0
M  V30 5281 H 507.59 5.32284 1.87974 0
M  V30 5282 N 506.988 0.0434614 1.5754 0
M  V30 5283 C 508.265 -0.671479 1.83713 0
M  V30 5284 C 508.645 -1.89495 0.930315 0
M  V30 5285 O 507.993 -2.28498 -0.0105639 0
M  V30 5286 C 508.203 -1.0361 3.33266 0
M  V30 5287 C 509.551 -1.42167 4.00092 0
M  V30 5288 O 510.575 -1.12866 3.37846 0
M  V30 5289 O 509.434 -1.96817 5.09829 0
M  V30 5290 H 506.528 -0.330726 0.75799 0
M  V30 5291 H 509.074 0.0722373 1.69546 0
M  V30 5292 H 507.846 -0.165938 3.90948 0
M  V30 5293 H 507.469 -1.83751 3.52592 0
M  V30 5294 N 508.466 -1.55915 -0.229846 0
M  V30 5295 C 509.396 -1.94754 -1.28815 0
M  V30 5296 C 510.377 -0.814657 -1.49323 0
M  V30 5297 O 511.562 -1.07631 -1.61645 0
M  V30 5298 C 508.692 -2.25705 -2.63959 0
M  V30 5299 C 507.646 -3.41406 -2.5812 0
M  V30 5300 C 506.972 -3.57941 -3.97218 0
M  V30 5301 C 508.272 -4.76616 -2.13623 0
M  V30 5302 H 509.966 -2.83404 -0.965547 0
M  V30 5303 H 507.512 -1.36353 -0.463028 0
M  V30 5304 H 509.465 -2.51467 -3.38146 0
M  V30 5305 H 508.189 -1.339 -2.9789 0
M  V30 5306 H 506.848 -3.1568 -1.86391 0
M  V30 5307 H 506.496 -2.63526 -4.28443 0
M  V30 5308 H 506.196 -4.35757 -3.94195 0
M  V30 5309 H 507.72 -3.86042 -4.73079 0
M  V30 5310 H 509.134 -5.01637 -2.77549 0
M  V30 5311 H 507.531 -5.57655 -2.21677 0
M  V30 5312 H 508.601 -4.7253 -1.08829 0
M  V30 5313 N 509.944 0.496216 -1.49584 0
M  V30 5314 C 511.169 1.27865 -1.63295 0
M  V30 5315 C 511.594 1.85592 -0.306156 0
M  V30 5316 O 510.952 1.66092 0.726851 0
M  V30 5317 C 511 2.38128 -2.7079 0
M  V30 5318 O 510.104 3.42108 -2.30296 0
M  V30 5319 H 509.445 0.377279 -0.546403 0
M  V30 5320 H 511.975 0.593497 -1.95803 0
M  V30 5321 H 511.985 2.8382 -2.93104 0
M  V30 5322 H 510.66 1.95479 -3.67098 0
M  V30 5323 H 509.237 3.02301 -2.18331 0
M  V30 5324 N 511.423 1.38739 0.74761 0
M  V30 5325 C 512.37 1.36449 1.86146 0
M  V30 5326 C 513.34 0.226098 1.64554 0
M  V30 5327 O 514.525 0.41926 1.86137 0
M  V30 5328 C 511.665 1.2013 3.23516 0
M  V30 5329 C 510.778 2.43407 3.56899 0
M  V30 5330 C 509.913 2.19773 4.83605 0
M  V30 5331 C 508.952 3.3879 5.09792 0
M  V30 5332 N 508.089 3.14553 6.27695 0
M  V30 5333 H 512.929 2.3167 1.87438 0
M  V30 5334 H 510.466 1.15094 0.916063 0
M  V30 5335 H 512.424 1.08683 4.02795 0
M  V30 5336 H 511.054 0.285453 3.21535 0
M  V30 5337 H 510.106 2.65504 2.72418 0
M  V30 5338 H 511.418 3.32094 3.72176 0
M  V30 5339 H 510.572 2.05496 5.70838 0
M  V30 5340 H 509.311 1.28461 4.70478 0
M  V30 5341 H 508.316 3.53579 4.21025 0
M  V30 5342 H 509.541 4.30986 5.24812 0
M  V30 5343 H 507.487 2.25893 6.1588 0
M  V30 5344 H 507.404 3.96791 6.435 0
M  V30 5345 H 508.672 3.03943 7.17801 0
M  V30 5346 N 512.901 -0.976442 1.23707 0
M  V30 5347 C 513.831 -2.08749 1.04624 0
M  V30 5348 C 514.812 -1.70057 -0.0380956 0
M  V30 5349 O 515.997 -1.93782 0.127308 0
M  V30 5350 C 513.127 -3.41335 0.640902 0
M  V30 5351 C 512.081 -3.93947 1.67302 0
M  V30 5352 C 511.407 -5.22774 1.12301 0
M  V30 5353 C 512.707 -4.22769 3.06697 0
M  V30 5354 H 514.401 -2.24972 1.97555 0
M  V30 5355 H 511.947 -1.08108 0.951247 0
M  V30 5356 H 513.9 -4.18489 0.494434 0
M  V30 5357 H 512.624 -3.24988 -0.324099 0
M  V30 5358 H 511.283 -3.18941 1.80755 0
M  V30 5359 H 510.931 -5.0278 0.148877 0
M  V30 5360 H 510.631 -5.58942 1.81267 0
M  V30 5361 H 512.155 -6.02546 0.988479 0
M  V30 5362 H 513.569 -4.90659 2.96524 0
M  V30 5363 H 511.966 -4.70147 3.72937 0
M  V30 5364 H 513.036 -3.29885 3.55392 0
M  V30 5365 N 514.379 -1.04941 -1.1758 0
M  V30 5366 C 515.289 -0.658826 -2.25159 0
M  V30 5367 C 516.305 0.318941 -1.71052 0
M  V30 5368 O 517.481 0.171669 -2.00667 0
M  V30 5369 C 514.546 -0.0369522 -3.4668 0
M  V30 5370 C 513.607 -1.06484 -4.15884 0
M  V30 5371 C 512.84 -0.472551 -5.31604 0
M  V30 5372 O 513.063 0.718736 -5.65854 0
M  V30 5373 O 511.997 -1.20557 -5.89703 0
M  V30 5374 H 515.823 -1.55533 -2.60851 0
M  V30 5375 H 513.408 -0.820819 -1.24832 0
M  V30 5376 H 515.29 0.308784 -4.20267 0
M  V30 5377 H 513.965 0.833238 -3.12792 0
M  V30 5378 H 512.872 -1.46253 -3.44327 0
M  V30 5379 H 514.205 -1.9061 -4.53794 0
M  V30 5380 N 515.857 1.33968 -0.830081 0
M  V30 5381 C 517.105 1.97672 -0.420734 0
M  V30 5382 C 517.426 1.66111 1.02138 0
M  V30 5383 O 516.696 0.955503 1.71017 0
M  V30 5384 H 515.276 0.73125 -0.152587 0
M  V30 5385 H 517.938 1.63483 -1.0611 0
M  V30 5386 H 517.034 3.07294 -0.545588 0
M  V30 5387 N 517.335 0.585699 1.46312 0
M  V30 5388 C 518.298 -0.135673 2.28798 0
M  V30 5389 C 519.298 -0.815988 1.38558 0
M  V30 5390 O 520.488 -0.667487 1.60904 0
M  V30 5391 C 517.62 -1.20163 3.1902 0
M  V30 5392 H 518.813 0.589257 2.94054 0
M  V30 5393 H 516.366 0.343794 1.52472 0
M  V30 5394 H 517.101 -1.95804 2.58517 0
M  V30 5395 H 516.886 -0.718282 3.85465 0
M  V30 5396 H 518.376 -1.70749 3.81096 0
M  V30 5397 N 518.813 -1.54241 0.323641 0
M  V30 5398 C 520.06 -2.0057 -0.27891 0
M  V30 5399 C 520.388 -1.21181 -1.52136 0
M  V30 5400 O 519.643 -0.282043 -1.93657 0
M  V30 5401 C 519.942 -3.5129 -0.658031 0
M  V30 5402 C 519.608 -4.48281 0.485252 0
M  V30 5403 C 518.27 -4.74519 0.799055 0
M  V30 5404 C 520.622 -5.05909 1.25322 0
M  V30 5405 C 517.95 -5.55643 1.88354 0
M  V30 5406 C 520.302 -5.88215 2.32779 0
M  V30 5407 C 518.966 -6.12755 2.64741 0
M  V30 5408 H 518.236 -0.733938 -0.10206 0
M  V30 5409 H 520.883 -1.862 0.447435 0
M  V30 5410 H 519.188 -3.63388 -1.4648 0
M  V30 5411 H 520.885 -3.84578 -1.1358 0
M  V30 5412 H 517.475 -4.27979 0.230593 0
M  V30 5413 H 521.659 -4.8562 1.02404 0
M  V30 5414 H 516.915 -5.72888 2.13564 0
M  V30 5415 H 521.089 -6.31888 2.92729 0
M  V30 5416 H 518.716 -6.75404 3.48904 0
M  V30 5417 N 520.291 -0.0518155 -1.57515 0
M  V30 5418 C 521.516 0.634896 -1.97443 0
M  V30 5419 C 521.941 1.63546 -0.929207 0
M  V30 5420 O 521.299 1.80981 0.107484 0
M  V30 5421 C 521.347 1.29765 -3.36442 0
M  V30 5422 O 520.451 2.41333 -3.34413 0
M  V30 5423 H 519.792 0.164994 -0.643174 0
M  V30 5424 H 522.322 -0.120407 -2.04245 0
M  V30 5425 H 522.332 1.64918 -3.73184 0
M  V30 5426 H 521.007 0.564361 -4.12053 0
M  V30 5427 H 519.584 2.08122 -3.09418 0
M  V30 5428 N 521.769 1.56035 0.221574 0
M  V30 5429 C 523.046 1.69837 0.970301 0
M  V30 5430 C 523.426 0.599065 2.02421 0
M  V30 5431 O 522.774 -0.393929 2.25079 0
M  V30 5432 C 522.984 3.11148 1.58076 0
M  V30 5433 C 524.332 3.70555 2.07302 0
M  V30 5434 O 525.356 3.14109 1.6797 0
M  V30 5435 O 524.215 4.69562 2.79596 0
M  V30 5436 H 521.309 0.691727 0.453257 0
M  V30 5437 H 523.855 1.68353 0.213358 0
M  V30 5438 H 522.627 3.82617 0.819759 0
M  V30 5439 H 522.25 3.16749 2.40324 0
M  V30 5440 N 523.247 -0.488276 1.49845 0
M  V30 5441 C 524.658 -1.06955 1.53028 0
M  V30 5442 C 525.009 -1.9351 0.323797 0
M  V30 5443 O 524.134 -2.08891 -0.565116 0
M  V30 5444 C 524.729 -1.94643 2.77307 0
M  V30 5445 C 523.288 -2.4791 2.83227 0
M  V30 5446 C 522.435 -1.25833 2.47106 0
M  V30 5447 H 525.386 -0.271626 1.56358 0
M  V30 5448 H 525.407 -2.79496 2.5819 0
M  V30 5449 H 524.919 -1.31621 3.65099 0
M  V30 5450 H 523.02 -3.14535 1.99745 0
M  V30 5451 H 523.133 -2.84193 3.85709 0
M  V30 5452 H 521.497 -1.58764 1.99163 0
M  V30 5453 H 522.28 -0.644993 3.37186 0
M  V30 5454 N 524.725 -1.39134 -0.740242 0
M  V30 5455 C 525.953 -1.39334 -1.5295 0
M  V30 5456 C 526.368 0.0135008 -1.88795 0
M  V30 5457 O 525.725 0.983524 -1.5373 0
M  V30 5458 C 525.776 -2.2614 -2.82034 0
M  V30 5459 O 525.497 -3.61345 -2.47712 0
M  V30 5460 C 526.998 -2.34666 -3.76094 0
M  V30 5461 H 524.218 -0.476103 -0.472828 0
M  V30 5462 H 526.762 -1.82883 -0.9151 0
M  V30 5463 H 524.917 -1.86018 -3.39818 0
M  V30 5464 H 525.331 -4.07194 -3.30595 0
M  V30 5465 H 526.805 -2.99663 -4.63579 0
M  V30 5466 H 527.282 -1.36426 -4.17474 0
M  V30 5467 H 527.888 -2.75236 -3.2423 0
M  V30 5468 N 526.204 0.969867 -1.24223 0
M  V30 5469 C 527.137 2.06279 -0.975926 0
M  V30 5470 C 528.115 1.62353 0.0895385 0
M  V30 5471 O 529.299 1.88442 -0.0469418 0
M  V30 5472 C 526.426 3.35391 -0.472315 0
M  V30 5473 C 525.472 3.98266 -1.526 0
M  V30 5474 S 526.305 4.36172 -3.10667 0
M  V30 5475 C 527.461 5.68423 -2.62003 0
M  V30 5476 H 527.694 2.28551 -1.90137 0
M  V30 5477 H 525.227 1.10748 -1.07584 0
M  V30 5478 H 527.185 4.10068 -0.188376 0
M  V30 5479 H 525.846 3.1111 0.432378 0
M  V30 5480 H 525.039 4.91307 -1.12399 0
M  V30 5481 H 524.641 3.30009 -1.75983 0
M  V30 5482 H 526.933 6.45842 -2.0468 0
M  V30 5483 H 527.876 6.13478 -3.53625 0
M  V30 5484 H 528.284 5.26928 -2.02502 0
M  V30 5485 N 527.682 1.05563 1.17022 0
M  V30 5486 C 528.614 0.617888 2.20714 0
M  V30 5487 C 529.627 -0.320303 1.59618 0
M  V30 5488 O 530.816 -0.112449 1.78145 0
M  V30 5489 C 527.916 -0.115333 3.38704 0
M  V30 5490 C 527.089 0.834493 4.29366 0
M  V30 5491 C 526.148 0.141855 5.26009 0
M  V30 5492 O 525.174 0.777151 5.6387 0
M  V30 5493 N 526.376 -1.11934 5.69606 0
M  V30 5494 H 529.141 1.50981 2.58892 0
M  V30 5495 H 526.702 0.938008 1.31958 0
M  V30 5496 H 528.694 -0.588918 4.00392 0
M  V30 5497 H 527.264 -0.908967 2.99093 0
M  V30 5498 H 526.484 1.48762 3.65053 0
M  V30 5499 H 527.772 1.4791 4.86827 0
M  V30 5500 H 527.17 -1.65574 5.40927 0
M  V30 5501 H 525.727 -1.53692 6.33421 0
M  V30 5502 N 529.16 -1.33526 0.837174 0
M  V30 5503 C 530.407 -1.97837 0.432064 0
M  V30 5504 C 530.735 -1.66324 -1.00829 0
M  V30 5505 O 529.99 -0.93448 -1.71948 0
M  V30 5506 C 530.289 -3.52367 0.597675 0
M  V30 5507 C 529.955 -4.03826 2.00587 0
M  V30 5508 C 528.617 -4.1759 2.39106 0
M  V30 5509 C 530.969 -4.31333 2.92576 0
M  V30 5510 C 528.297 -4.56195 3.68921 0
M  V30 5511 C 530.649 -4.7139 4.2187 0
M  V30 5512 C 529.313 -4.8336 4.60347 0
M  V30 5513 H 528.583 -0.723937 0.158104 0
M  V30 5514 H 531.23 -1.5923 1.06387 0
M  V30 5515 H 529.535 -3.91624 -0.117452 0
M  V30 5516 H 531.232 -4.00126 0.26454 0
M  V30 5517 H 527.822 -3.93586 1.69671 0
M  V30 5518 H 532.006 -4.20224 2.64056 0
M  V30 5519 H 527.262 -4.63655 3.9854 0
M  V30 5520 H 531.436 -4.91631 4.93226 0
M  V30 5521 H 529.063 -5.1303 5.60985 0
M  V30 5522 N 530.638 -0.59345 -1.46 0
M  V30 5523 C 531.868 -0.0889642 -2.06408 0
M  V30 5524 C 532.276 1.22597 -1.44106 0
M  V30 5525 O 531.619 1.75448 -0.544398 0
M  V30 5526 C 531.681 0.139902 -3.59228 0
M  V30 5527 C 531.345 -1.09107 -4.43784 0
M  V30 5528 C 532.342 -2.00577 -4.79651 0
M  V30 5529 C 530.027 -1.31593 -4.84756 0
M  V30 5530 C 532.021 -3.12873 -5.55328 0
M  V30 5531 C 529.708 -2.44192 -5.60191 0
M  V30 5532 C 530.706 -3.34661 -5.95392 0
M  V30 5533 O 530.394 -4.45302 -6.69299 0
M  V30 5534 H 530.126 -0.0594613 -0.67338 0
M  V30 5535 H 532.68 -0.817 -1.88452 0
M  V30 5536 H 530.91 0.922672 -3.75531 0
M  V30 5537 H 532.599 0.594228 -4.01527 0
M  V30 5538 H 533.365 -1.84425 -4.48567 0
M  V30 5539 H 529.244 -0.620801 -4.56801 0
M  V30 5540 H 532.788 -3.83511 -5.82722 0
M  V30 5541 H 528.685 -2.60303 -5.90688 0
M  V30 5542 H 529.453 -4.43805 -6.87735 0
M  V30 5543 N 532.116 1.54067 -0.331816 0
M  V30 5544 C 533.046 2.27569 0.522932 0
M  V30 5545 C 534.027 1.28679 1.11247 0
M  V30 5546 O 535.212 1.57504 1.13605 0
M  V30 5547 C 532.342 3.0397 1.67987 0
M  V30 5548 C 531.296 4.10267 1.21924 0
M  V30 5549 C 530.622 4.74555 2.46377 0
M  V30 5550 C 531.922 5.21268 0.32815 0
M  V30 5551 H 533.616 2.99264 -0.0901977 0
M  V30 5552 H 531.162 1.4393 -0.044821 0
M  V30 5553 H 533.115 3.54123 2.28418 0
M  V30 5554 H 531.839 2.29906 2.31971 0
M  V30 5555 H 530.498 3.61009 0.637809 0
M  V30 5556 H 530.146 3.97098 3.08743 0
M  V30 5557 H 529.846 5.46363 2.16243 0
M  V30 5558 H 531.37 5.27487 3.07555 0
M  V30 5559 H 532.784 5.67128 0.838978 0
M  V30 5560 H 531.181 5.99982 0.119228 0
M  V30 5561 H 532.251 4.80673 -0.638839 0
M  V30 5562 N 533.594 0.0601682 1.57485 0
M  V30 5563 C 534.834 -0.615384 1.94916 0
M  V30 5564 C 535.198 -1.67475 0.938948 0
M  V30 5565 O 536.399 -2.40502 1.20051 0
M  V30 5566 C 534.67 -1.18788 3.37082 0
M  V30 5567 S 536.229 -1.88018 3.96478 0
M  V30 5568 H 533.047 -0.201821 0.681754 0
M  V30 5569 H 535.649 0.131252 1.95059 0
M  V30 5570 H 534.353 -0.404869 4.08398 0
M  V30 5571 H 533.884 -1.97114 3.40455 0
M  V30 5572 H 535.899 -3.16161 3.82435 0
M  V30 5573 N 535.072 -1.5615 -0.213296 0
M  V30 5574 C 536.32 -1.79191 -0.934612 0
M  V30 5575 C 536.641 -0.630112 -1.84539 0
M  V30 5576 O 535.911 0.35257 -1.92701 0
M  V30 5577 H 534.491 -0.660937 -0.348097 0
M  V30 5578 H 537.153 -1.93618 -0.22317 0
M  V30 5579 H 536.249 -2.71656 -1.53654 0
M  V30 5580 N 536.55 0.480323 -1.50102 0
M  V30 5581 C 537.961 1.06142 -1.53593 0
M  V30 5582 C 538.312 1.93335 -0.334055 0
M  V30 5583 O 537.437 2.09188 0.55403 0
M  V30 5584 C 538.032 1.9317 -2.78336 0
M  V30 5585 C 536.591 2.46405 -2.84538 0
M  V30 5586 C 535.738 1.24521 -2.4777 0
M  V30 5587 H 538.689 0.26333 -1.565 0
M  V30 5588 H 538.71 2.78123 -2.59669 0
M  V30 5589 H 538.222 1.29683 -3.65792 0
M  V30 5590 H 536.323 3.13472 -2.01411 0
M  V30 5591 H 536.436 2.82143 -3.87211 0
M  V30 5592 H 534.8 1.57706 -2.00003 0
M  V30 5593 H 535.583 0.627102 -3.37524 0
M  V30 5594 N 538.028 1.39524 0.732853 0
M  V30 5595 C 539.274 1.37068 1.49467 0
M  V30 5596 C 539.607 -0.0327166 1.94172 0
M  V30 5597 O 538.882 -0.998071 1.66939 0
M  V30 5598 C 539.165 2.34494 2.73285 0
M  V30 5599 C 539.018 3.83784 2.34585 0
M  V30 5600 C 540.337 2.29717 3.75391 0
M  V30 5601 H 537.456 0.499206 0.542183 0
M  V30 5602 H 540.098 1.70532 0.837783 0
M  V30 5603 H 538.248 2.06087 3.29333 0
M  V30 5604 H 539.92 4.22949 1.84151 0
M  V30 5605 H 538.163 4.00455 1.66787 0
M  V30 5606 H 538.834 4.47444 3.23262 0
M  V30 5607 H 541.31 2.54839 3.28932 0
M  V30 5608 H 540.186 2.99962 4.59689 0
M  V30 5609 H 540.447 1.30291 4.22465 0
M  V30 5610 N 539.506 -0.963266 1.24736 0
M  V30 5611 C 540.754 -1.70343 1.08755 0
M  V30 5612 C 541.075 -1.91387 -0.373619 0
M  V30 5613 O 540.345 -1.4948 -1.2662 0
M  V30 5614 H 538.925 -0.631224 0.399456 0
M  V30 5615 H 541.587 -1.15859 1.56725 0
M  V30 5616 H 540.683 -2.68616 1.58909 0
M  V30 5617 N 540.985 -1.06182 -1.16461 0
M  V30 5618 C 542.232 -0.777863 -1.86964 0
M  V30 5619 C 542.56 0.695602 -1.81636 0
M  V30 5620 O 541.815 1.52532 -1.22607 0
M  V30 5621 C 542.114 -1.21633 -3.36066 0
M  V30 5622 C 541.78 -2.69371 -3.61594 0
M  V30 5623 C 540.442 -3.09727 -3.6827 0
M  V30 5624 C 542.794 -3.64791 -3.7226 0
M  V30 5625 C 540.122 -4.44345 -3.83112 0
M  V30 5626 C 542.474 -4.99155 -3.88623 0
M  V30 5627 C 541.138 -5.39149 -3.93541 0
M  V30 5628 H 540.408 -0.28464 -0.68415 0
M  V30 5629 H 543.055 -1.33071 -1.37711 0
M  V30 5630 H 541.36 -0.582651 -3.87443 0
M  V30 5631 H 543.057 -0.973682 -3.88999 0
M  V30 5632 H 539.647 -2.37124 -3.57029 0
M  V30 5633 H 543.831 -3.34746 -3.66413 0
M  V30 5634 H 539.087 -4.74819 -3.85172 0
M  V30 5635 H 543.261 -5.72976 -3.95817 0
M  V30 5636 H 540.888 -6.43464 -4.04794 0
M  V30 5637 N 542.463 1.3308 -0.844243 0
M  V30 5638 C 543.396 2.27075 -0.226279 0
M  V30 5639 C 544.374 1.49911 0.629716 0
M  V30 5640 O 545.558 1.79068 0.588803 0
M  V30 5641 C 542.685 3.31767 0.681782 0
M  V30 5642 C 541.731 4.26384 -0.0994565 0
M  V30 5643 S 542.564 5.15186 -1.46094 0
M  V30 5644 C 543.72 6.23405 -0.558319 0
M  V30 5645 H 543.953 2.79141 -1.02312 0
M  V30 5646 H 541.486 1.40452 -0.641292 0
M  V30 5647 H 543.444 3.92566 1.20008 0
M  V30 5648 H 542.105 2.78507 1.45234 0
M  V30 5649 H 541.298 5.00514 0.591733 0
M  V30 5650 H 540.9 3.69949 -0.548991 0
M  V30 5651 H 543.192 6.77069 0.241672 0
M  V30 5652 H 544.135 6.96619 -1.26995 0
M  V30 5653 H 544.543 5.64333 -0.13728 0
M  V30 5654 N 543.941 0.601185 1.45683 0
M  V30 5655 C 544.873 -0.159446 2.28645 0
M  V30 5656 C 545.886 -0.837882 1.39583 0
M  V30 5657 O 547.075 -0.704344 1.64016 0
M  V30 5658 C 544.175 -1.24641 3.15147 0
M  V30 5659 C 543.348 -0.656334 4.32448 0
M  V30 5660 C 542.407 -1.63337 5.00208 0
M  V30 5661 O 541.433 -1.16217 5.57209 0
M  V30 5662 N 542.635 -2.96773 4.98905 0
M  V30 5663 H 545.4 0.5524 2.94565 0
M  V30 5664 H 542.961 0.440223 1.558 0
M  V30 5665 H 544.953 -1.8997 3.57342 0
M  V30 5666 H 543.523 -1.86087 2.51178 0
M  V30 5667 H 542.743 0.174879 3.93812 0
M  V30 5668 H 544.031 -0.242211 5.08223 0
M  V30 5669 H 543.429 -3.37662 4.53873 0
M  V30 5670 H 541.986 -3.57541 5.44984 0
M  V30 5671 N 545.419 -1.53889 0.339982 0
M  V30 5672 C 546.666 -2.00855 -0.257621 0
M  V30 5673 C 546.994 -1.22788 -1.50842 0
M  V30 5674 O 546.249 -0.302567 -1.93347 0
M  V30 5675 C 546.548 -3.51968 -0.620735 0
M  V30 5676 C 546.214 -4.47741 0.532771 0
M  V30 5677 C 544.876 -4.73645 0.849339 0
M  V30 5678 C 547.228 -5.04551 1.3068 0
M  V30 5679 C 544.556 -5.53614 1.94237 0
M  V30 5680 C 546.908 -5.85713 2.39005 0
M  V30 5681 C 545.572 -6.09912 2.71225 0
M  V30 5682 H 544.842 -0.734979 -0.0942703 0
M  V30 5683 H 547.489 -1.85714 0.467159 0
M  V30 5684 H 545.794 -3.64921 -1.42618 0
M  V30 5685 H 547.491 -3.85762 -1.09495 0
M  V30 5686 H 544.081 -4.27711 0.275973 0
M  V30 5687 H 548.265 -4.84507 1.07549 0
M  V30 5688 H 543.521 -5.7059 2.19628 0
M  V30 5689 H 547.695 -6.28748 2.99415 0
M  V30 5690 H 545.322 -6.71665 3.56047 0
M  V30 5691 N 546.897 -0.0685191 -1.57451 0
M  V30 5692 C 548.125 0.610462 -1.97689 0
M  V30 5693 C 548.54 1.63346 -0.946758 0
M  V30 5694 O 547.897 1.82377 0.0669868 0
M  V30 5695 C 547.948 1.28196 -3.38006 0
M  V30 5696 O 547.669 0.299906 -4.37072 0
M  V30 5697 C 549.17 2.04907 -3.931 0
M  V30 5698 H 546.39 0.165689 -0.650222 0
M  V30 5699 H 548.934 -0.139953 -2.04021 0
M  V30 5700 H 547.089 1.98348 -3.32771 0
M  V30 5701 H 547.503 0.78126 -5.18649 0
M  V30 5702 H 548.977 2.47287 -4.93511 0
M  V30 5703 H 549.454 2.9043 -3.29465 0
M  V30 5704 H 550.06 1.39629 -4.01726 0
M  V30 5705 N 548.375 1.56261 0.205012 0
M  V30 5706 C 549.338 1.92908 1.23771 0
M  V30 5707 C 550.338 0.809208 1.38955 0
M  V30 5708 O 551.528 1.07676 1.36936 0
M  V30 5709 C 548.66 2.19442 2.60879 0
M  V30 5710 H 549.853 2.85287 0.924728 0
M  V30 5711 H 547.406 1.49798 0.446125 0
M  V30 5712 H 548.141 1.29668 2.97248 0
M  V30 5713 H 547.926 3.0104 2.51232 0
M  V30 5714 H 549.416 2.48833 3.35368 0
M  V30 5715 N 549.853 -0.472356 1.50355 0
M  V30 5716 C 550.8 -1.57051 1.69126 0
M  V30 5717 C 551.77 -1.5733 0.532574 0
M  V30 5718 O 552.955 -1.7488 0.762994 0
M  V30 5719 C 550.095 -2.95033 1.79024 0
M  V30 5720 C 549.208 -3.04552 3.06386 0
M  V30 5721 C 548.343 -4.33441 3.07087 0
M  V30 5722 C 547.382 -4.36697 4.28908 0
M  V30 5723 N 546.519 -5.57056 4.27356 0
M  V30 5724 H 551.359 -1.40351 2.62879 0
M  V30 5725 H 548.896 -0.682403 1.30314 0
M  V30 5726 H 550.854 -3.75048 1.82744 0
M  V30 5727 H 549.484 -3.10371 0.887109 0
M  V30 5728 H 548.536 -2.17419 3.12143 0
M  V30 5729 H 549.848 -3.02818 3.96362 0
M  V30 5730 H 549.002 -5.21801 3.09529 0
M  V30 5731 H 547.741 -4.37782 2.14939 0
M  V30 5732 H 546.746 -3.46734 4.2668 0
M  V30 5733 H 547.971 -4.34049 5.22282 0
M  V30 5734 H 545.917 -5.62184 3.3806 0
M  V30 5735 H 545.834 -5.57058 5.111 0
M  V30 5736 H 547.102 -6.47545 4.33942 0
M  V30 5737 N 551.331 -1.39911 -0.725443 0
M  V30 5738 C 552.263 -1.35301 -1.85003 0
M  V30 5739 C 553.276 -0.260102 -1.60709 0
M  V30 5740 O 554.465 -0.519749 -1.70766 0
M  V30 5741 C 551.565 -1.08039 -3.21218 0
M  V30 5742 C 550.738 -2.28793 -3.7279 0
M  V30 5743 C 549.797 -1.97841 -4.87591 0
M  V30 5744 O 548.823 -2.70616 -5.00755 0
M  V30 5745 N 550.025 -0.950367 -5.72668 0
M  V30 5746 H 552.79 -2.32218 -1.89459 0
M  V30 5747 H 550.351 -1.34137 -0.90658 0
M  V30 5748 H 552.343 -0.853354 -3.95601 0
M  V30 5749 H 550.913 -0.198229 -3.11971 0
M  V30 5750 H 550.133 -2.67388 -2.8965 0
M  V30 5751 H 551.421 -3.09317 -4.03981 0
M  V30 5752 H 550.819 -0.347436 -5.64632 0
M  V30 5753 H 549.376 -0.783232 -6.47077 0
M  V30 5754 N 552.809 0.956637 -1.25245 0
M  V30 5755 C 553.739 2.07058 -1.07931 0
M  V30 5756 C 554.72 1.70096 0.0110361 0
M  V30 5757 O 555.905 1.93555 -0.158121 0
M  V30 5758 C 553.035 3.40272 -0.695124 0
M  V30 5759 C 551.989 3.91235 -1.73549 0
M  V30 5760 C 551.315 5.20921 -1.20604 0
M  V30 5761 C 552.615 4.17837 -3.13385 0
M  V30 5762 H 554.309 2.218 -2.01109 0
M  V30 5763 H 551.855 1.06581 -0.968326 0
M  V30 5764 H 553.808 4.1765 -0.560949 0
M  V30 5765 H 552.532 3.25462 0.272355 0
M  V30 5766 H 551.191 3.16025 -1.85807 0
M  V30 5767 H 550.839 5.02479 -0.228846 0
M  V30 5768 H 550.539 5.55987 -1.90136 0
M  V30 5769 H 552.063 6.00897 -1.08421 0
M  V30 5770 H 553.477 4.8588 -3.04292 0
M  V30 5771 H 551.874 4.64154 -3.80369 0
M  V30 5772 H 552.944 3.2419 -3.60595 0
M  V30 5773 N 554.287 1.06798 1.15896 0
M  V30 5774 C 555.533 0.788934 1.86825 0
M  V30 5775 C 555.866 -0.683084 1.8179 0
M  V30 5776 O 555.141 -1.50086 1.23711 0
M  V30 5777 C 555.424 1.29065 3.36176 0
M  V30 5778 C 555.277 2.8268 3.49874 0
M  V30 5779 C 556.596 0.902655 4.30744 0
M  V30 5780 H 553.715 0.288066 0.678371 0
M  V30 5781 H 556.357 1.32479 1.36195 0
M  V30 5782 H 554.507 0.834806 3.79425 0
M  V30 5783 H 556.179 3.36511 3.15528 0
M  V30 5784 H 554.422 3.21157 2.91617 0
M  V30 5785 H 555.093 3.12852 4.54783 0
M  V30 5786 H 557.569 1.29535 3.95424 0
M  V30 5787 H 556.445 1.28111 5.3374 0
M  V30 5788 H 556.706 -0.191951 4.41683 0
M  V30 5789 N 555.766 -1.3263 0.851289 0
M  V30 5790 C 557.043 -1.91982 0.374448 0
M  V30 5791 C 557.423 -1.77568 -1.14161 0
M  V30 5792 O 556.771 -1.1717 -1.96172 0
M  V30 5793 C 556.981 -3.38862 0.835088 0
M  V30 5794 C 558.329 -4.15999 0.850309 0
M  V30 5795 O 559.353 -3.47566 0.779505 0
M  V30 5796 O 558.212 -5.38189 0.949481 0
M  V30 5797 H 555.306 -0.819846 0.10854 0
M  V30 5798 H 557.852 -1.41422 0.937966 0
M  V30 5799 H 556.624 -3.43281 1.87814 0
M  V30 5800 H 556.247 -3.96821 0.248833 0
M  V30 5801 N 557.244 -0.608902 -1.45362 0
M  V30 5802 C 558.174 0.0964526 -2.33301 0
M  V30 5803 C 559.155 0.857444 -1.46908 0
M  V30 5804 O 560.34 0.827735 -1.75676 0
M  V30 5805 C 557.47 1.09354 -3.29635 0
M  V30 5806 C 556.424 0.445676 -4.25673 0
M  V30 5807 C 555.75 1.5511 -5.11708 0
M  V30 5808 C 557.05 -0.633972 -5.18438 0
M  V30 5809 H 558.744 -0.637829 -2.92527 0
M  V30 5810 H 556.29 -0.308178 -1.40664 0
M  V30 5811 H 558.243 1.59556 -3.90025 0
M  V30 5812 H 556.967 1.85843 -2.6857 0
M  V30 5813 H 555.626 -0.0354897 -3.66583 0
M  V30 5814 H 555.274 2.30631 -4.4701 0
M  V30 5815 H 554.974 1.12311 -5.76767 0
M  V30 5816 H 556.498 2.05537 -5.74967 0
M  V30 5817 H 557.912 -0.215974 -5.72893 0
M  V30 5818 H 556.309 -0.983789 -5.91981 0
M  V30 5819 H 557.379 -1.51005 -4.60788 0
M  V30 5820 N 558.722 1.53707 -0.348139 0
M  V30 5821 C 559.97 2.00591 0.246478 0
M  V30 5822 C 560.291 1.23753 1.50699 0
M  V30 5823 O 559.561 0.345964 1.92821 0
M  V30 5824 H 558.141 0.741053 0.0940679 0
M  V30 5825 H 560.803 1.89139 -0.470354 0
M  V30 5826 H 559.899 3.08297 0.485714 0
M  V30 5827 N 560.2 0.0768682 1.57412 0
M  V30 5828 C 561.446 -0.591961 1.93968 0
M  V30 5829 C 561.779 -1.68954 0.9575 0
M  V30 5830 O 561.054 -1.94496 -0.0124675 0
M  V30 5831 C 561.337 -1.16418 3.40762 0
M  V30 5832 C 561.19 -0.0728933 4.49741 0
M  V30 5833 C 562.509 -2.06814 3.88479 0
M  V30 5834 H 559.628 -0.213716 0.705333 0
M  V30 5835 H 562.27 0.14387 1.89455 0
M  V30 5836 H 560.42 -1.79128 3.4474 0
M  V30 5837 H 562.092 0.560446 4.57883 0
M  V30 5838 H 560.335 0.595859 4.29688 0
M  V30 5839 H 561.006 -0.513755 5.49604 0
M  V30 5840 H 563.482 -1.54033 3.8654 0
M  V30 5841 H 562.358 -2.43785 4.91793 0
M  V30 5842 H 562.619 -2.97844 3.26713 0
M  V30 5843 N 561.678 -1.56367 -0.196722 0
M  V30 5844 C 562.625 -1.94417 -1.24382 0
M  V30 5845 C 563.595 -0.804543 -1.45315 0
M  V30 5846 O 564.78 -1.06256 -1.58475 0
M  V30 5847 C 561.92 -2.28757 -2.58388 0
M  V30 5848 C 561.033 -3.55775 -2.45047 0
M  V30 5849 C 560.168 -3.79445 -3.71746 0
M  V30 5850 C 559.207 -4.99894 -3.53231 0
M  V30 5851 N 558.344 -5.19826 -4.71938 0
M  V30 5852 H 563.184 -2.83691 -0.912338 0
M  V30 5853 H 560.721 -1.40392 -0.439135 0
M  V30 5854 H 562.679 -2.46682 -3.36457 0
M  V30 5855 H 561.309 -1.42625 -2.89582 0
M  V30 5856 H 560.361 -3.45905 -1.58284 0
M  V30 5857 H 561.673 -4.44 -2.27299 0
M  V30 5858 H 560.827 -3.97601 -4.58256 0
M  V30 5859 H 559.566 -2.89546 -3.92446 0
M  V30 5860 H 558.571 -4.81662 -2.65107 0
M  V30 5861 H 559.796 -5.913 -3.33978 0
M  V30 5862 H 557.742 -4.32875 -4.92905 0
M  V30 5863 H 557.659 -6.02228 -4.57009 0
M  V30 5864 H 558.927 -5.42439 -5.59803 0
M  V30 5865 N 563.156 0.464375 -1.50603 0
M  V30 5866 C 564.088 1.57916 -1.66118 0
M  V30 5867 C 565.101 1.53497 -0.54246 0
M  V30 5868 O 566.29 1.58763 -0.815877 0
M  V30 5869 C 563.39 2.96809 -1.63577 0
M  V30 5870 C 562.563 3.26026 -2.91592 0
M  V30 5871 C 561.622 4.44506 -2.81604 0
M  V30 5872 O 560.648 4.44484 -3.55559 0
M  V30 5873 N 561.85 5.46549 -1.95614 0
M  V30 5874 H 564.615 1.45022 -2.62276 0
M  V30 5875 H 562.176 0.652903 -1.48151 0
M  V30 5876 H 564.168 3.74048 -1.54499 0
M  V30 5877 H 562.738 3.03438 -0.751262 0
M  V30 5878 H 561.958 2.37337 -3.14746 0
M  V30 5879 H 563.246 3.42361 -3.76386 0
M  V30 5880 H 562.644 5.49391 -1.34854 0
M  V30 5881 H 561.201 6.22746 -1.92435 0
M  V30 5882 N 564.634 1.40294 0.718013 0
M  V30 5883 C 565.544 1.42678 1.86226 0
M  V30 5884 C 566.56 0.319655 1.71039 0
M  V30 5885 O 567.736 0.563852 1.93346 0
M  V30 5886 C 564.801 1.2852 3.21999 0
M  V30 5887 C 563.862 2.49354 3.49458 0
M  V30 5888 C 563.095 2.35863 4.78753 0
M  V30 5889 O 563.318 1.37114 5.53675 0
M  V30 5890 O 562.252 3.25189 5.06494 0
M  V30 5891 H 566.078 2.39167 1.87171 0
M  V30 5892 H 563.663 1.2159 0.868112 0
M  V30 5893 H 565.545 1.22824 4.03103 0
M  V30 5894 H 564.22 0.351359 3.21787 0
M  V30 5895 H 563.127 2.60628 2.68373 0
M  V30 5896 H 564.46 3.41491 3.54464 0
M  V30 5897 N 566.112 -0.949982 1.2575 0
M  V30 5898 C 567.06 -2.06869 1.06339 0
M  V30 5899 C 568.054 -1.69399 -0.00708901 0
M  V30 5900 O 569.26 -1.79383 0.148897 0
M  V30 5901 H 565.635 -0.677197 0.326969 0
M  V30 5902 H 567.606 -2.20396 2.01167 0
M  V30 5903 C 566.355 -3.40503 0.703769 0
M  V30 5904 H 565.678 -3.69807 1.51931 0
M  V30 5905 H 567.118 -4.19623 0.607677 0
M  V30 5906 C 565.577 -3.31685 -0.5905 0
M  V30 5907 O 566.107 -3.67085 -1.63131 0
M  V30 5908 N 564.313 -2.84797 -0.577859 0
M  V30 5909 H 563.86 -2.56186 0.26951 0
M  V30 5910 H 563.818 -2.79279 -1.44398 0
M  V30 5911 N 567.59 -1.07411 -1.15328 0
M  V30 5912 C 568.839 -0.792643 -1.85473 0
M  V30 5913 C 569.152 0.683789 -1.83259 0
M  V30 5914 O 570.358 1.08005 -2.49093 0
M  V30 5915 C 568.814 -1.36787 -3.32892 0
M  V30 5916 C 568.422 -2.87536 -3.43551 0
M  V30 5917 C 570.166 -1.16444 -4.08217 0
M  V30 5918 C 568.073 -3.38247 -4.85122 0
M  V30 5919 H 567.003 -0.292838 -0.694811 0
M  V30 5920 H 569.654 -1.29426 -1.30082 0
M  V30 5921 H 568.036 -0.793993 -3.87958 0
M  V30 5922 H 569.21 -3.50973 -2.98588 0
M  V30 5923 H 567.525 -3.06676 -2.81672 0
M  V30 5924 H 570.122 -1.51808 -5.12697 0
M  V30 5925 H 570.465 -0.10353 -4.16171 0
M  V30 5926 H 570.998 -1.70472 -3.59422 0
M  V30 5927 H 567.737 -4.43866 -4.82351 0
M  V30 5928 H 567.257 -2.79564 -5.30664 0
M  V30 5929 H 568.936 -3.34238 -5.5398 0
M  V30 5930 N 569.068 1.32177 -0.85831 0
M  V30 5931 C 570.018 2.26307 -0.277307 0
M  V30 5932 C 571.002 1.50123 0.578946 0
M  V30 5933 O 572.194 1.71754 0.427731 0
M  V30 5934 C 569.323 3.39181 0.530232 0
M  V30 5935 C 568.409 4.22746 -0.338613 0
M  V30 5936 N 568.8 4.85265 -1.4266 0
M  V30 5937 C 567.098 4.45813 -0.129 0
M  V30 5938 C 567.799 5.47634 -1.96142 0
M  V30 5939 N 566.775 5.28794 -1.26007 0
M  V30 5940 H 570.577 2.72173 -1.10902 0
M  V30 5941 H 568.091 1.46308 -0.704816 0
M  V30 5942 H 570.088 4.05628 0.962904 0
M  V30 5943 H 568.748 2.9486 1.35969 0
M  V30 5944 H 569.759 4.85259 -1.80953 0
M  V30 5945 H 566.436 4.12163 0.665451 0
M  V30 5946 H 567.826 6.0735 -2.8736 0
M  V30 5947 N 570.547 0.616602 1.45037 0
M  V30 5948 C 571.777 0.121791 2.06241 0
M  V30 5949 C 572.185 -1.20289 1.46038 0
M  V30 5950 O 571.528 -1.7456 0.572242 0
M  V30 5951 C 571.59 -0.0827345 3.59405 0
M  V30 5952 C 571.254 1.16153 4.41993 0
M  V30 5953 C 572.251 2.08183 4.76399 0
M  V30 5954 C 569.936 1.39288 4.82601 0
M  V30 5955 C 571.93 3.21668 5.5028 0
M  V30 5956 C 569.617 2.53073 5.56235 0
M  V30 5957 C 570.615 3.44091 5.89992 0
M  V30 5958 O 570.303 4.55894 6.6213 0
M  V30 5959 H 570.035 0.0701667 0.672349 0
M  V30 5960 H 572.589 0.846877 1.87129 0
M  V30 5961 H 570.819 -0.862812 3.76952 0
M  V30 5962 H 572.508 -0.530273 4.02421 0
M  V30 5963 H 573.274 1.91538 4.45576 0
M  V30 5964 H 569.153 0.693396 4.55755 0
M  V30 5965 H 572.697 3.92733 5.76547 0
M  V30 5966 H 568.594 2.69667 5.86472 0
M  V30 5967 H 569.362 4.5469 6.80587 0
M  V30 5968 N 572.025 -1.5352 0.356285 0
M  V30 5969 C 572.935 -2.29151 -0.502712 0
M  V30 5970 C 573.951 -1.34753 -1.1008 0
M  V30 5971 O 575.127 -1.67803 -1.11374 0
M  V30 5972 C 572.192 -3.05911 -1.63154 0
M  V30 5973 C 571.253 -4.15958 -1.06194 0
M  V30 5974 C 570.486 -4.8905 -2.13696 0
M  V30 5975 O 570.709 -4.61919 -3.34645 0
M  V30 5976 O 569.643 -5.75202 -1.77275 0
M  V30 5977 H 573.469 -3.03492 0.112466 0
M  V30 5978 H 571.054 -1.4891 0.120942 0
M  V30 5979 H 572.936 -3.53874 -2.28804 0
M  V30 5980 H 571.611 -2.34415 -2.23229 0
M  V30 5981 H 570.518 -3.7227 -0.369603 0
M  V30 5982 H 571.851 -4.89593 -0.505872 0
M  V30 5983 N 573.503 -0.0852151 -1.57369 0
M  V30 5984 C 574.743 0.584297 -1.95871 0
M  V30 5985 C 575.107 1.6596 -0.965473 0
M  V30 5986 O 576.308 2.38561 -1.23862 0
M  V30 5987 C 574.579 1.13411 -3.38929 0
M  V30 5988 S 576.138 1.81687 -3.99419 0
M  V30 5989 H 572.956 0.19095 -0.684879 0
M  V30 5990 H 575.558 -0.162267 -1.94825 0
M  V30 5991 H 574.262 0.339845 -4.0899 0
M  V30 5992 H 573.793 1.91672 -3.43548 0
M  V30 5993 H 575.808 3.10037 -3.87417 0
M  V30 5994 N 574.981 1.5647 0.188427 0
M  V30 5995 C 576.228 1.81013 0.907779 0
M  V30 5996 C 576.556 0.65953 1.82977 0
M  V30 5997 O 575.811 -0.354308 1.92466 0
M  V30 5998 C 576.11 3.11596 1.7505 0
M  V30 5999 C 575.776 4.40145 0.978922 0
M  V30 6000 C 574.438 4.75066 0.765912 0
M  V30 6001 C 576.79 5.19369 0.436498 0
M  V30 6002 C 574.118 5.867 -0.00089868 0
M  V30 6003 C 576.47 6.31805 -0.317136 0
M  V30 6004 C 575.134 6.65303 -0.541103 0
M  V30 6005 H 574.404 0.662373 0.33218 0
M  V30 6006 H 577.051 1.9071 0.173732 0
M  V30 6007 H 575.356 2.97165 2.55343 0
M  V30 6008 H 577.053 3.27793 2.30983 0
M  V30 6009 H 573.643 4.12745 1.15497 0
M  V30 6010 H 577.827 4.92799 0.588449 0
M  V30 6011 H 573.083 6.11122 -0.184329 0
M  V30 6012 H 577.257 6.92406 -0.744788 0
M  V30 6013 H 574.884 7.51646 -1.13718 0
M  V30 6014 N 576.459 -0.456382 1.50847 0
M  V30 6015 C 577.707 -1.20497 1.62249 0
M  V30 6016 C 578.028 -1.92156 0.331839 0
M  V30 6017 O 577.298 -1.84751 -0.651443 0
M  V30 6018 H 575.878 -0.447775 0.597918 0
M  V30 6019 H 578.54 -0.525099 1.87693 0
M  V30 6020 H 577.636 -1.94492 2.44089 0
M  V30 6021 N 577.937 -1.40673 -0.710563 0
M  V30 6022 C 579.348 -1.34975 -1.28991 0
M  V30 6023 C 579.699 -0.0256272 -1.96183 0
M  V30 6024 O 578.824 0.876339 -1.97862 0
M  V30 6025 C 579.419 -2.44467 -2.34567 0
M  V30 6026 C 577.978 -2.42213 -2.88114 0
M  V30 6027 C 577.125 -2.25085 -1.61963 0
M  V30 6028 H 580.076 -1.50406 -0.506343 0
M  V30 6029 H 580.097 -2.12663 -3.15523 0
M  V30 6030 H 579.609 -3.40825 -1.85634 0
M  V30 6031 H 577.71 -1.49568 -3.41263 0
M  V30 6032 H 577.823 -3.37983 -3.39565 0
M  V30 6033 H 576.187 -1.72691 -1.87216 0
M  V30 6034 H 576.97 -3.23449 -1.15047 0
M  V30 6035 N 579.415 0.9433 -1.26252 0
M  V30 6036 C 580.365 2.02746 -1.04297 0
M  V30 6037 C 581.349 1.60882 0.0239435 0
M  V30 6038 O 582.541 1.75947 -0.192757 0
M  V30 6039 C 579.67 3.36585 -0.6757 0
M  V30 6040 C 578.756 3.84939 -1.77996 0
M  V30 6041 N 579.147 4.05966 -3.01704 0
M  V30 6042 C 577.445 4.13833 -1.66308 0
M  V30 6043 C 578.146 4.45987 -3.73458 0
M  V30 6044 N 577.122 4.52569 -3.01135 0
M  V30 6045 H 580.924 2.17012 -1.98199 0
M  V30 6046 H 578.438 1.12898 -1.16738 0
M  V30 6047 H 580.435 4.13896 -0.499571 0
M  V30 6048 H 579.095 3.2369 0.255863 0
M  V30 6049 H 580.106 3.92716 -3.37631 0
M  V30 6050 H 576.783 4.09739 -0.801267 0
M  V30 6051 H 578.173 4.70465 -4.79701 0
M  V30 6052 N 580.893 1.08022 1.14757 0
M  V30 6053 C 581.84 0.706657 2.19716 0
M  V30 6054 C 582.81 -0.30525 1.63271 0
M  V30 6055 O 583.995 -0.19015 1.8985 0
M  V30 6056 C 581.135 0.117914 3.44898 0
M  V30 6057 C 580.248 1.18212 4.15512 0
M  V30 6058 C 579.383 0.557659 5.28265 0
M  V30 6059 C 578.422 1.60418 5.90705 0
M  V30 6060 N 577.559 1.0018 6.94916 0
M  V30 6061 H 582.399 1.60603 2.51019 0
M  V30 6062 H 579.936 0.802664 1.23271 0
M  V30 6063 H 581.894 -0.241112 4.16503 0
M  V30 6064 H 580.524 -0.744788 3.1409 0
M  V30 6065 H 579.576 1.65863 3.42335 0
M  V30 6066 H 580.888 1.97533 4.5802 0
M  V30 6067 H 580.042 0.146654 6.06523 0
M  V30 6068 H 578.781 -0.267249 4.86967 0
M  V30 6069 H 577.786 2.02489 5.11154 0
M  V30 6070 H 579.011 2.43149 6.34078 0
M  V30 6071 H 576.957 0.197917 6.55701 0
M  V30 6072 H 576.874 1.73216 7.35889 0
M  V30 6073 H 578.142 0.616523 7.77058 0
M  V30 6074 N 582.371 -1.3172 0.865308 0
M  V30 6075 C 583.617 -1.97168 0.474633 0
M  V30 6076 C 583.95 -1.68263 -0.969604 0
M  V30 6077 O 583.225 -0.976588 -1.68205 0
M  V30 6078 C 583.508 -3.52689 0.726808 0
M  V30 6079 C 583.361 -3.91185 2.22024 0
M  V30 6080 C 584.68 -4.39689 0.190201 0
M  V30 6081 H 581.799 -0.716185 0.17392 0
M  V30 6082 H 584.441 -1.55925 1.08569 0
M  V30 6083 H 582.591 -3.8795 0.206705 0
M  V30 6084 H 584.263 -3.66049 2.80724 0
M  V30 6085 H 582.506 -3.3996 2.69462 0
M  V30 6086 H 583.177 -4.99604 2.34735 0
M  V30 6087 H 585.653 -4.11225 0.635103 0
M  V30 6088 H 584.529 -5.47469 0.396132 0
M  V30 6089 H 584.79 -4.32683 -0.907625 0
M  V30 6090 N 583.85 -0.624285 -1.44708 0
M  V30 6091 C 584.779 0.0717025 -2.3339 0
M  V30 6092 C 585.76 0.841814 -1.47809 0
M  V30 6093 O 586.946 0.809056 -1.76544 0
M  V30 6094 C 584.076 1.05852 -3.30776 0
M  V30 6095 C 583.029 0.400503 -4.26122 0
M  V30 6096 C 582.356 1.49674 -5.13324 0
M  V30 6097 C 583.656 -0.688924 -5.17737 0
M  V30 6098 H 585.35 -0.668819 -2.91834 0
M  V30 6099 H 582.896 -0.32308 -1.40329 0
M  V30 6100 H 584.849 1.5541 -3.91696 0
M  V30 6101 H 583.572 1.82984 -2.70526 0
M  V30 6102 H 582.231 -0.0743687 -3.66525 0
M  V30 6103 H 581.88 2.25877 -4.49431 0
M  V30 6104 H 581.58 1.06188 -5.77926 0
M  V30 6105 H 583.104 1.99427 -5.77115 0
M  V30 6106 H 584.518 -0.276724 -5.72632 0
M  V30 6107 H 582.915 -1.04652 -5.90904 0
M  V30 6108 H 583.985 -1.55884 -4.5916 0
M  V30 6109 O 585.367 1.53348 -0.50662 0
M  V30 6110 H 586.058 1.93698 0.00952266 0
M  V30 END ATOM
M  V30 BEGIN BOND
M  V30 END BOND
M  V30 END CTAB
M  END
$$$$
