drugbank_target|P24347 Stromelysin-3 (DB00786; DB04318)
 OpenBabel12092120363D

  0  0  0     0  0            999 V3000
M  V30 BEGIN CTAB
M  V30 COUNTS 7608 7752 0 0 0
M  V30 BEGIN ATOM
M  V30 1 H -0.908 1.98254 -0.117106 0
M  V30 2 N 0 1.576 0 0
M  V30 3 C 0.933 2.03868 1.02534 0
M  V30 4 C 1.911 0.928543 1.3348 0
M  V30 5 O 3.095 1.19667 1.45644 0
M  V30 6 C 0.222 2.43627 2.35294 0
M  V30 7 C -0.732 3.65373 2.2001 0
M  V30 8 S 0.101 5.13292 1.52614 0
M  V30 9 C 1.257 5.56322 2.86805 0
M  V30 10 H 1.49 2.90518 0.631377 0
M  V30 11 H -0.977 1.52953 0.210867 0
M  V30 12 H 0.981 2.67203 3.11629 0
M  V30 13 H -0.358 1.57376 2.7183 0
M  V30 14 H -1.165 3.90944 3.18086 0
M  V30 15 H -1.563 3.418 1.51819 0
M  V30 16 H 0.729 5.58782 3.83104 0
M  V30 17 H 1.672 6.56266 2.65933 0
M  V30 18 H 2.08 4.83886 2.90714 0
M  V30 19 N 1.4781 -0.272755 1.55222 0
M  V30 20 C 2.4411 -1.32041 1.87344 0
M  V30 21 C 3.4411 -1.42342 0.74803 0
M  V30 22 O 4.6311 -1.41488 1.0162 0
M  V30 23 C 1.7631 -2.70173 2.07893 0
M  V30 24 H 2.9561 -1.04789 2.80997 0
M  V30 25 H 0.5091 -0.51083 1.47717 0
M  V30 26 H 1.2441 -3.02605 1.16622 0
M  V30 27 H 1.0291 -2.64082 2.89833 0
M  V30 28 H 2.5191 -3.45869 2.34017 0
M  V30 29 N 2.9562 -1.48159 -0.537278 0
M  V30 30 C 4.3672 -1.49429 -1.11928 0
M  V30 31 C 4.7182 -0.26 -1.9447 0
M  V30 32 O 3.8432 0.633489 -2.0692 0
M  V30 33 C 4.4382 -2.70758 -2.03656 0
M  V30 34 C 2.9972 -2.74923 -2.57088 0
M  V30 35 C 2.1442 -2.42835 -1.3389 0
M  V30 36 H 5.0952 -1.55381 -0.322886 0
M  V30 37 H 5.1162 -2.48861 -2.87834 0
M  V30 38 H 4.6282 -3.60575 -1.43553 0
M  V30 39 H 2.7292 -1.89296 -3.20933 0
M  V30 40 H 2.8422 -3.76157 -2.9672 0
M  V30 41 H 1.2062 -1.93836 -1.65226 0
M  V30 42 H 1.9892 -3.34884 -0.755504 0
M  V30 43 N 4.4343 0.785586 -1.36625 0
M  V30 44 C 5.3973 1.87999 -1.31107 0
M  V30 45 C 6.3973 1.59316 -0.217959 0
M  V30 46 O 7.5873 1.67656 -0.472977 0
M  V30 47 C 4.7193 3.24861 -1.03334 0
M  V30 48 H 5.9123 1.94307 -2.2844 0
M  V30 49 H 3.4653 0.983813 -1.21453 0
M  V30 50 H 4.2003 3.24235 -0.0647432 0
M  V30 51 H 3.9853 3.4707 -1.82441 0
M  V30 52 H 5.4753 4.04929 -1.02088 0
M  V30 53 N 5.9124 1.20967 1.01018 0
M  V30 54 C 6.8754 0.965918 2.07853 0
M  V30 55 C 7.8754 -0.0610545 1.60684 0
M  V30 56 O 9.0654 0.175681 1.73312 0
M  V30 57 C 6.1974 0.455513 3.37843 0
M  V30 58 H 7.3904 1.91365 2.3091 0
M  V30 59 H 4.9434 1.02594 1.17916 0
M  V30 60 H 5.6784 -0.497381 3.20463 0
M  V30 61 H 5.4634 1.19622 3.73407 0
M  V30 62 H 6.9534 0.304667 4.16487 0
M  V30 63 N 7.3905 -1.2043 1.01659 0
M  V30 64 C 8.6365 -1.90356 0.716674 0
M  V30 65 C 8.9915 -1.77367 -0.745557 0
M  V30 66 O 8.2845 -1.1471 -1.53467 0
M  V30 67 C 8.4785 -3.40464 1.08714 0
M  V30 68 C 8.3075 -3.6806 2.58384 0
M  V30 69 C 7.0775 -3.86775 3.25167 0
M  V30 70 C 9.2755 -3.70623 3.56572 0
M  V30 71 N 7.2575 -4.01889 4.64067 0
M  V30 72 C 8.6285 -3.91161 4.81034 0
M  V30 73 C 10.6835 -3.53586 3.50544 0
M  V30 74 C 9.3865 -3.96428 6.00198 0
M  V30 75 C 11.4125 -3.60125 4.6911 0
M  V30 76 C 10.7745 -3.81135 5.92381 0
M  V30 77 H 6.8735 -0.716226 0.313918 0
M  V30 78 H 9.4575 -1.44815 1.30141 0
M  V30 79 H 7.6285 -3.84757 0.530745 0
M  V30 80 H 9.3605 -3.97863 0.740763 0
M  V30 81 H 6.1155 -3.85156 2.75594 0
M  V30 82 H 6.5395 -4.13323 5.36184 0
M  V30 83 H 11.1815 -3.36308 2.56235 0
M  V30 84 H 8.8995 -4.12502 6.94887 0
M  V30 85 H 12.4855 -3.4825 4.66062 0
M  V30 86 H 11.3655 -3.86054 6.82592 0
M  V30 87 N 8.8686 -0.792821 -1.36206 0
M  V30 88 C 9.7986 -0.207853 -2.32573 0
M  V30 89 C 10.7796 0.659055 -1.56813 0
M  V30 90 O 11.9646 0.592176 -1.84951 0
M  V30 91 C 9.0946 0.655449 -3.41059 0
M  V30 92 C 8.0486 -0.111842 -4.27854 0
M  V30 93 C 7.3746 0.872274 -5.27537 0
M  V30 94 C 8.6746 -1.30299 -5.05786 0
M  V30 95 H 10.3686 -1.01294 -2.81744 0
M  V30 96 H 7.9146 -0.48854 -1.3546 0
M  V30 97 H 9.8676 1.07464 -4.07467 0
M  V30 98 H 8.5916 1.49328 -2.90463 0
M  V30 99 H 7.2506 -0.512053 -3.63006 0
M  V30 100 H 6.8986 1.70523 -4.73214 0
M  V30 101 H 6.5986 0.363291 -5.86476 0
M  V30 102 H 8.1226 1.28996 -5.96818 0
M  V30 103 H 9.5366 -0.959379 -5.65216 0
M  V30 104 H 7.9336 -1.7455 -5.74154 0
M  V30 105 H 9.0036 -2.09663 -4.37229 0
M  V30 106 N 10.3467 1.47872 -0.545128 0
M  V30 107 C 11.7627 1.5829 -0.204032 0
M  V30 108 C 11.9627 1.54529 1.29317 0
M  V30 109 O 11.0187 1.44232 2.07252 0
M  V30 110 C 12.3317 2.89304 -0.819987 0
M  V30 111 C 13.8797 3.02864 -0.790105 0
M  V30 112 C 14.3547 4.3656 -1.38491 0
M  V30 113 N 15.8457 4.43165 -1.34755 0
M  V30 114 C 16.5807 5.45153 -1.77753 0
M  V30 115 N 16.0767 6.54016 -2.2855 0
M  V30 116 N 17.8697 5.36125 -1.68897 0
M  V30 117 H 10.0207 1.4856 -1.51802 0
M  V30 118 H 12.2837 0.706305 -0.632327 0
M  V30 119 H 11.9897 2.97757 -1.87173 0
M  V30 120 H 11.8637 3.75957 -0.305915 0
M  V30 121 H 14.2507 2.94014 0.252913 0
M  V30 122 H 14.3317 2.17782 -1.34181 0
M  V30 123 H 13.9757 4.46164 -2.42693 0
M  V30 124 H 13.9057 5.20353 -0.808754 0
M  V30 125 H 16.3967 3.65083 -0.975855 0
M  V30 126 H 16.7097 7.27994 -2.59314 0
M  V30 127 H 15.0547 6.54938 -2.32553 0
M  V30 128 H 18.2457 4.49975 -1.28998 0
M  V30 129 H 18.4187 6.15472 -2.02726 0
M  V30 130 N 11.8248 0.280983 1.55075 0
M  V30 131 C 13.0498 -0.340154 2.04592 0
M  V30 132 C 13.4748 -1.48246 1.15779 0
M  V30 133 O 12.8328 -1.80614 0.15761 0
M  V30 134 C 12.8808 -0.793104 3.5177 0
M  V30 135 O 11.9848 -1.89981 3.66034 0
M  V30 136 H 11.3258 -0.0694289 0.66036 0
M  V30 137 H 13.8558 0.416993 2.00306 0
M  V30 138 H 13.8658 -1.08729 3.93245 0
M  V30 139 H 12.5408 0.0426163 4.15878 0
M  V30 140 H 11.1178 -1.60771 3.36463 0
M  V30 141 N 13.3029 -1.57598 0.00835791 0
M  V30 142 C 14.2659 -2.07884 -0.965242 0
M  V30 143 C 15.2659 -0.989825 -1.26725 0
M  V30 144 O 16.4559 -1.25218 -1.21104 0
M  V30 145 C 13.5879 -2.52731 -2.28779 0
M  V30 146 H 14.7809 -2.95178 -0.530112 0
M  V30 147 H 12.3339 -1.54458 -0.239283 0
M  V30 148 H 13.0689 -1.68705 -2.76964 0
M  V30 149 H 12.8539 -3.32272 -2.08177 0
M  V30 150 H 14.3439 -2.91933 -2.98605 0
M  V30 151 N 14.781 0.264519 -1.55364 0
M  V30 152 C 15.744 1.31046 -1.88042 0
M  V30 153 C 16.744 1.41943 -0.755569 0
M  V30 154 O 17.934 1.40947 -1.02369 0
M  V30 155 C 15.066 2.69067 -2.09323 0
M  V30 156 H 16.259 1.03297 -2.81549 0
M  V30 157 H 13.812 0.502989 -1.47986 0
M  V30 158 H 14.547 3.01982 -1.18226 0
M  V30 159 H 14.332 2.62542 -2.91229 0
M  V30 160 H 15.822 3.44623 -2.35848 0
M  V30 161 N 16.2591 1.48442 0.529413 0
M  V30 162 C 17.2221 1.62524 1.61612 0
M  V30 163 C 18.2221 0.498509 1.52877 0
M  V30 164 O 19.4121 0.76431 1.56537 0
M  V30 165 C 16.5441 1.59597 3.01233 0
M  V30 166 H 17.7371 2.59423 1.50465 0
M  V30 167 H 15.2901 1.37047 0.751514 0
M  V30 168 H 16.0251 0.641781 3.17886 0
M  V30 169 H 15.8101 2.41397 3.08982 0
M  V30 170 H 17.3001 1.72646 3.80241 0
M  V30 171 N 17.7372 -0.778329 1.37039 0
M  V30 172 C 19.1532 -1.07796 1.17695 0
M  V30 173 C 19.3532 -2.01498 0.00860115 0
M  V30 174 O 18.4092 -2.43901 -0.653352 0
M  V30 175 C 19.7222 -1.68178 2.49272 0
M  V30 176 C 21.2702 -1.80467 2.55735 0
M  V30 177 C 21.7452 -2.44263 3.87427 0
M  V30 178 N 23.2362 -2.51721 3.88833 0
M  V30 179 C 23.9712 -3.01919 4.87476 0
M  V30 180 N 23.4672 -3.5234 5.96513 0
M  V30 181 N 25.2602 -3.00733 4.74885 0
M  V30 182 H 17.4112 -0.156032 2.11826 0
M  V30 183 H 19.6742 -0.131844 0.938787 0
M  V30 184 H 19.3802 -1.06796 3.35093 0
M  V30 185 H 19.2542 -2.67554 2.65885 0
M  V30 186 H 21.6412 -2.40984 1.70325 0
M  V30 187 H 21.7222 -0.798656 2.43013 0
M  V30 188 H 21.3662 -1.84388 4.73248 0
M  V30 189 H 21.2962 -3.45458 3.9745 0
M  V30 190 H 23.7872 -2.1603 3.10063 0
M  V30 191 H 24.1002 -3.89027 6.67741 0
M  V30 192 H 22.4452 -3.50462 6.00168 0
M  V30 193 H 25.6362 -2.60638 3.88826 0
M  V30 194 H 25.8092 -3.39545 5.51918 0
M  V30 195 N 19.2153 -1.21501 -1.00376 0
M  V30 196 C 20.1783 -0.976927 -2.07337 0
M  V30 197 C 21.1783 0.0525322 -1.60714 0
M  V30 198 O 22.3683 -0.184869 -1.73216 0
M  V30 199 C 19.5003 -0.473423 -3.37597 0
M  V30 200 H 20.6933 -1.92587 -2.29892 0
M  V30 201 H 18.2463 -1.03217 -1.17371 0
M  V30 202 H 18.9813 0.480379 -3.20722 0
M  V30 203 H 18.7663 -1.216 -3.72768 0
M  V30 204 H 20.2563 -0.32675 -4.1632 0
M  V30 205 N 20.6934 1.19889 -1.02296 0
M  V30 206 C 21.6234 2.25141 -0.619174 0
M  V30 207 C 22.6044 1.66051 0.368915 0
M  V30 208 O 23.7894 1.92546 0.252941 0
M  V30 209 C 20.9194 3.4728 0.0368783 0
M  V30 210 C 19.8734 4.19005 -0.872865 0
M  V30 211 C 19.1994 5.34637 -0.0822402 0
M  V30 212 C 20.4994 4.74452 -2.18387 0
M  V30 213 H 22.1934 2.59171 -1.49903 0
M  V30 214 H 19.7394 1.24579 -0.722222 0
M  V30 215 H 21.6924 4.20098 0.330958 0
M  V30 216 H 20.4164 3.12433 0.95149 0
M  V30 217 H 19.0754 3.48061 -1.15105 0
M  V30 218 H 18.7234 4.96034 0.83422 0
M  V30 219 H 18.4234 5.83557 -0.688149 0
M  V30 220 H 19.9474 6.10255 0.205238 0
M  V30 221 H 21.3614 5.39055 -1.95172 0
M  V30 222 H 19.7584 5.33834 -2.74119 0
M  V30 223 H 20.8284 3.92844 -2.84257 0
M  V30 224 N 22.1715 0.800033 1.35784 0
M  V30 225 C 23.1015 0.220184 2.3246 0
M  V30 226 C 24.0825 -0.65073 1.57161 0
M  V30 227 O 25.2675 -0.582359 1.85263 0
M  V30 228 C 22.3975 -0.637353 3.41402 0
M  V30 229 C 21.3515 0.134531 4.27789 0
M  V30 230 C 20.6775 -0.844285 5.27992 0
M  V30 231 C 21.9775 1.32979 5.05088 0
M  V30 232 H 23.6715 1.02787 2.81203 0
M  V30 233 H 21.2175 0.495717 1.35199 0
M  V30 234 H 23.1705 -1.05302 4.08031 0
M  V30 235 H 21.8945 -1.47785 2.91251 0
M  V30 236 H 20.5535 0.531296 3.6273 0
M  V30 237 H 20.2015 -1.68011 4.74111 0
M  V30 238 H 19.9015 -0.332184 5.8666 0
M  V30 239 H 21.4255 -1.2583 5.97494 0
M  V30 240 H 22.8395 0.98934 5.64699 0
M  V30 241 H 21.2365 1.77593 5.7322 0
M  V30 242 H 22.3065 2.11978 4.36111 0
M  V30 243 N 23.6496 -1.47581 0.552962 0
M  V30 244 C 25.0606 -1.86324 0.118463 0
M  V30 245 C 25.4116 -1.46006 -1.3106 0
M  V30 246 O 24.5366 -0.861182 -1.98526 0
M  V30 247 C 25.1316 -3.3816 0.20821 0
M  V30 248 C 23.6906 -3.7601 -0.171226 0
M  V30 249 C 22.8376 -2.71634 0.557686 0
M  V30 250 H 25.7886 -1.39159 0.762928 0
M  V30 251 H 25.8096 -3.76141 -0.574278 0
M  V30 252 H 25.3216 -3.67473 1.24841 0
M  V30 253 H 23.4226 -3.52313 -1.21269 0
M  V30 254 H 23.5356 -4.78745 0.184379 0
M  V30 255 H 21.8996 -2.547 0.00125792 0
M  V30 256 H 22.6826 -3.0379 1.59896 0
M  V30 257 N 25.1277 -0.289203 -1.54924 0
M  V30 258 C 26.5387 0.205791 -1.85562 0
M  V30 259 C 26.8897 1.54351 -1.2112 0
M  V30 260 O 26.0147 2.10435 -0.504601 0
M  V30 261 C 26.6097 0.380177 -3.3666 0
M  V30 262 C 25.1687 0.819395 -3.67373 0
M  V30 263 C 24.3157 -0.079159 -2.77187 0
M  V30 264 H 27.2667 -0.510577 -1.50262 0
M  V30 265 H 27.2877 1.21659 -3.60526 0
M  V30 266 H 26.7997 -0.593589 -3.83534 0
M  V30 267 H 24.9007 1.80413 -3.26009 0
M  V30 268 H 25.0137 0.646957 -4.74712 0
M  V30 269 H 23.3777 0.439565 -2.50878 0
M  V30 270 H 24.1607 -1.04906 -3.26878 0
M  V30 271 N 26.6058 1.57591 -0.0167156 0
M  V30 272 C 27.5388 2.04944 1.00366 0
M  V30 273 C 28.5168 0.942648 1.32487 0
M  V30 274 O 29.7008 1.21205 1.44367 0
M  V30 275 C 26.8278 2.46109 2.32697 0
M  V30 276 C 25.8738 3.67686 2.16123 0
M  V30 277 S 26.7068 5.14882 1.47161 0
M  V30 278 C 27.8628 5.59332 2.80888 0
M  V30 279 H 28.0958 2.91172 0.600528 0
M  V30 280 H 25.6288 1.53168 0.194632 0
M  V30 281 H 27.5868 2.70493 3.08778 0
M  V30 282 H 26.2478 1.6025 2.70146 0
M  V30 283 H 25.4408 3.94296 3.13922 0
M  V30 284 H 25.0428 3.43391 1.48185 0
M  V30 285 H 27.3348 5.62814 3.77156 0
M  V30 286 H 28.2778 6.5905 2.58958 0
M  V30 287 H 28.6858 4.86942 2.85565 0
M  V30 288 N 28.0839 -0.256276 1.55502 0
M  V30 289 C 29.0139 -1.32102 1.92539 0
M  V30 290 C 29.9949 -1.50684 0.789194 0
M  V30 291 O 31.1799 -1.63449 1.04872 0
M  V30 292 C 28.3099 -2.67752 2.21192 0
M  V30 293 C 27.2639 -2.63878 3.36975 0
M  V30 294 C 26.5899 -4.03236 3.51147 0
M  V30 295 C 27.8899 -2.21682 4.72921 0
M  V30 296 H 29.5839 -1.01351 2.81724 0
M  V30 297 H 27.1299 -0.486105 1.35547 0
M  V30 298 H 29.0829 -3.42365 2.45691 0
M  V30 299 H 27.8069 -3.0012 1.28824 0
M  V30 300 H 26.4659 -1.91722 3.12471 0
M  V30 301 H 26.1139 -4.32854 2.56216 0
M  V30 302 H 25.8139 -4.01535 4.29003 0
M  V30 303 H 27.3379 -4.79563 3.77957 0
M  V30 304 H 28.7519 -2.86023 4.96854 0
M  V30 305 H 27.1489 -2.3111 5.53812 0
M  V30 306 H 28.2189 -1.16833 4.70615 0
M  V30 307 N 29.562 -1.4872 -0.521534 0
M  V30 308 C 30.492 -1.66771 -1.63431 0
M  V30 309 C 31.473 -0.516499 -1.62069 0
M  V30 310 O 32.658 -0.750013 -1.79132 0
M  V30 311 C 29.788 -1.71515 -3.01993 0
M  V30 312 C 28.742 -2.86222 -3.18216 0
M  V30 313 C 28.068 -2.76061 -4.57924 0
M  V30 314 C 29.368 -4.27419 -3.00184 0
M  V30 315 H 31.062 -2.59932 -1.48579 0
M  V30 316 H 28.608 -1.25089 -0.713358 0
M  V30 317 H 30.561 -1.82731 -3.7972 0
M  V30 318 H 29.285 -0.749393 -3.17886 0
M  V30 319 H 27.944 -2.74575 -2.42908 0
M  V30 320 H 27.592 -1.77437 -4.70665 0
M  V30 321 H 27.292 -3.53037 -4.69722 0
M  V30 322 H 28.816 -2.89256 -5.37739 0
M  V30 323 H 30.23 -4.39855 -3.67697 0
M  V30 324 H 28.627 -5.05458 -3.2347 0
M  V30 325 H 29.697 -4.43293 -1.96518 0
M  V30 326 N 31.0401 0.771051 -1.3745 0
M  V30 327 C 31.9701 1.89827 -1.3597 0
M  V30 328 C 32.9511 1.68562 -0.228216 0
M  V30 329 O 34.1361 1.8941 -0.428675 0
M  V30 330 C 31.2661 3.2712 -1.16662 0
M  V30 331 C 30.2201 3.6295 -2.2683 0
M  V30 332 C 29.5461 4.98791 -1.92644 0
M  V30 333 C 30.8461 3.69627 -3.69017 0
M  V30 334 H 32.5401 1.91323 -2.30295 0
M  V30 335 H 30.0861 0.919082 -1.10855 0
M  V30 336 H 32.0391 4.05615 -1.14256 0
M  V30 337 H 30.7631 3.26059 -0.187926 0
M  V30 338 H 29.4221 2.86763 -2.28392 0
M  V30 339 H 29.0701 4.94271 -0.933021 0
M  V30 340 H 28.7701 5.23733 -2.66416 0
M  V30 341 H 30.2941 5.79685 -1.91826 0
M  V30 342 H 31.7081 4.38273 -3.69581 0
M  V30 343 H 30.1051 4.06067 -4.41848 0
M  V30 344 H 31.1751 2.70273 -4.02592 0
M  V30 345 N 32.5182 1.22032 0.997298 0
M  V30 346 C 33.4482 1.01065 2.10495 0
M  V30 347 C 34.4292 -0.0669542 1.69968 0
M  V30 348 O 35.6142 0.0943987 1.9397 0
M  V30 349 C 32.7442 0.582874 3.42374 0
M  V30 350 C 31.6982 1.60592 3.96729 0
M  V30 351 C 31.0242 1.03412 5.24605 0
M  V30 352 C 32.3242 2.99478 4.27914 0
M  V30 353 H 34.0182 1.93708 2.28292 0
M  V30 354 H 31.5642 0.932761 1.09707 0
M  V30 355 H 33.5172 0.423332 4.19268 0
M  V30 356 H 32.2412 -0.379213 3.24391 0
M  V30 357 H 30.9002 1.75316 3.21963 0
M  V30 358 H 30.5482 0.063518 5.0296 0
M  V30 359 H 30.2482 1.71754 5.61938 0
M  V30 360 H 31.7722 0.886066 6.04137 0
M  V30 361 H 33.1862 2.88153 4.95622 0
M  V30 362 H 31.5832 3.64903 4.76409 0
M  V30 363 H 32.6532 3.49742 3.3587 0
M  V30 364 N 33.9963 -1.19345 1.0293 0
M  V30 365 C 34.9263 -2.2481 0.631105 0
M  V30 366 C 35.9073 -1.66245 -0.360104 0
M  V30 367 O 37.0923 -1.92677 -0.242726 0
M  V30 368 C 34.2223 -3.47295 -0.0184607 0
M  V30 369 C 33.1763 -4.18536 0.895073 0
M  V30 370 C 32.5023 -5.34586 0.110592 0
M  V30 371 C 33.8023 -4.73287 2.209 0
M  V30 372 H 35.4963 -2.58372 1.51275 0
M  V30 373 H 33.0423 -1.24194 0.728818 0
M  V30 374 H 34.9953 -4.20268 -0.308675 0
M  V30 375 H 33.7193 -3.12933 -0.934907 0
M  V30 376 H 32.3783 -3.47446 1.16949 0
M  V30 377 H 32.0263 -4.96469 -0.807902 0
M  V30 378 H 31.7263 -5.83183 0.719087 0
M  V30 379 H 33.2503 -6.10355 -0.172871 0
M  V30 380 H 34.6643 -5.38013 1.98028 0
M  V30 381 H 33.0613 -5.32373 2.76946 0
M  V30 382 H 34.1313 -3.91331 2.86336 0
M  V30 383 N 35.4744 -0.807222 -1.35358 0
M  V30 384 C 36.4064 -0.175717 -2.28525 0
M  V30 385 C 37.4194 0.625354 -1.5031 0
M  V30 386 O 38.6084 0.457611 -1.72535 0
M  V30 387 C 35.7084 0.773471 -3.29956 0
M  V30 388 C 34.8814 0.0186296 -4.37396 0
M  V30 389 C 33.9404 0.886395 -5.18681 0
M  V30 390 O 32.9664 0.337106 -5.68201 0
M  V30 391 N 34.1684 2.20839 -5.36852 0
M  V30 392 H 36.9334 -0.976091 -2.83359 0
M  V30 393 H 34.4944 -0.662737 -1.47714 0
M  V30 394 H 36.4864 1.35824 -3.81227 0
M  V30 395 H 35.0564 1.47465 -2.75632 0
M  V30 396 H 34.2764 -0.747349 -3.87051 0
M  V30 397 H 35.5644 -0.501577 -5.06322 0
M  V30 398 H 34.9624 2.67858 -4.98265 0
M  V30 399 H 33.5194 2.74237 -5.91301 0
M  V30 400 N 36.9525 1.47285 -0.560781 0
M  V30 401 C 38.3635 1.86258 -0.128343 0
M  V30 402 C 38.7145 1.46699 1.30284 0
M  V30 403 O 37.8395 0.871698 1.98067 0
M  V30 404 C 38.4345 3.38044 -0.22614 0
M  V30 405 C 36.9935 3.76096 0.151283 0
M  V30 406 C 36.1405 2.71335 -0.572084 0
M  V30 407 H 39.0915 1.38752 -0.770297 0
M  V30 408 H 39.1125 3.76441 0.554322 0
M  V30 409 H 38.6245 3.66806 -1.26788 0
M  V30 410 H 36.7255 3.52951 1.19399 0
M  V30 411 H 36.8385 4.78641 -0.209765 0
M  V30 412 H 35.2025 2.54696 -0.0147653 0
M  V30 413 H 35.9855 3.02938 -1.61504 0
M  V30 414 N 38.4306 0.297415 1.54768 0
M  V30 415 C 39.8416 -0.195947 1.85669 0
M  V30 416 C 40.1926 -1.53707 1.21937 0
M  V30 417 O 39.3176 -2.10164 0.515754 0
M  V30 418 C 39.9126 -0.362318 3.36857 0
M  V30 419 C 38.4716 -0.799901 3.67802 0
M  V30 420 C 37.6186 0.0938578 2.77141 0
M  V30 421 H 40.5696 0.518538 1.4999 0
M  V30 422 H 40.5906 -1.19745 3.61167 0
M  V30 423 H 40.1026 0.613921 3.83214 0
M  V30 424 H 38.2036 -1.78682 3.26961 0
M  V30 425 H 38.3166 -0.621773 4.75048 0
M  V30 426 H 36.6806 -0.426254 2.51108 0
M  V30 427 H 37.4636 1.06639 3.26318 0
M  V30 428 N 39.9087 -1.5758 0.0250728 0
M  V30 429 C 41.3197 -1.79476 -0.514323 0
M  V30 430 C 41.6707 -0.934956 -1.72491 0
M  V30 431 O 40.7957 -0.144245 -2.15919 0
M  V30 432 C 41.3907 -3.25503 -0.939842 0
M  V30 433 C 39.9497 -3.48408 -1.42438 0
M  V30 434 C 39.0967 -2.74583 -0.387201 0
M  V30 435 H 42.0477 -1.567 0.25113 0
M  V30 436 H 42.0687 -3.34992 -1.80445 0
M  V30 437 H 41.5807 -3.88056 -0.0585628 0
M  V30 438 H 39.6817 -2.91103 -2.32572 0
M  V30 439 H 39.7947 -4.57119 -1.43455 0
M  V30 440 H 38.1587 -2.39942 -0.854409 0
M  V30 441 H 38.9417 -3.39849 0.485543 0
M  V30 442 N 41.3868 0.248026 -1.55636 0
M  V30 443 C 42.3168 1.31079 -1.93237 0
M  V30 444 C 43.2978 1.50264 -0.797174 0
M  V30 445 O 44.4828 1.62891 -1.05737 0
M  V30 446 C 41.6128 2.66575 -2.22609 0
M  V30 447 C 40.5668 2.62087 -3.3837 0
M  V30 448 C 39.8928 4.01369 -3.53281 0
M  V30 449 C 41.1928 2.19171 -4.7409 0
M  V30 450 H 42.8868 0.998556 -2.82257 0
M  V30 451 H 40.4328 0.47891 -1.35803 0
M  V30 452 H 42.3858 3.41057 -2.47503 0
M  V30 453 H 41.1098 2.99432 -1.30414 0
M  V30 454 H 39.7688 1.90063 -3.13483 0
M  V30 455 H 39.4168 4.31489 -2.58508 0
M  V30 456 H 39.1168 3.99254 -4.31127 0
M  V30 457 H 40.6408 4.77552 -3.80495 0
M  V30 458 H 42.0548 2.83384 -4.98363 0
M  V30 459 H 40.4518 2.2817 -5.5503 0
M  V30 460 H 41.5218 1.14336 -4.71227 0
M  V30 461 N 42.8649 1.48995 0.513639 0
M  V30 462 C 43.7949 1.67636 1.62544 0
M  V30 463 C 44.7759 0.525087 1.61793 0
M  V30 464 O 45.9609 0.759502 1.78732 0
M  V30 465 C 43.0909 1.73114 3.01079 0
M  V30 466 C 42.0449 2.87905 3.16693 0
M  V30 467 C 41.3709 2.78486 4.56453 0
M  V30 468 C 42.6709 4.29005 2.97913 0
M  V30 469 H 44.3649 2.60716 1.47198 0
M  V30 470 H 41.9109 1.25465 0.706714 0
M  V30 471 H 43.8639 1.84742 3.78746 0
M  V30 472 H 42.5879 0.766241 3.17484 0
M  V30 473 H 41.2469 2.75859 2.41448 0
M  V30 474 H 40.8949 1.7993 4.69717 0
M  V30 475 H 40.5949 3.55523 4.67843 0
M  V30 476 H 42.1189 2.92104 5.36197 0
M  V30 477 H 43.5329 4.41798 3.65359 0
M  V30 478 H 41.9299 5.07166 3.20785 0
M  V30 479 H 42.9999 4.44329 1.94165 0
M  V30 480 N 44.343 -0.763751 1.37857 0
M  V30 481 C 45.306 -1.85889 1.34081 0
M  V30 482 C 46.306 -1.58949 0.243277 0
M  V30 483 O 47.496 -1.66882 0.499589 0
M  V30 484 C 44.628 -3.23176 1.08489 0
M  V30 485 H 45.821 -1.90648 2.31502 0
M  V30 486 H 43.374 -0.964367 1.23003 0
M  V30 487 H 44.109 -3.24091 0.116318 0
M  V30 488 H 43.894 -3.44124 1.8794 0
M  V30 489 H 45.384 -4.03254 1.08517 0
M  V30 490 N 45.8211 -1.22559 -0.990812 0
M  V30 491 C 47.2371 -0.985996 -1.255 0
M  V30 492 C 47.4371 0.319173 -1.98956 0
M  V30 493 O 46.4931 1.04127 -2.3003 0
M  V30 494 C 47.8061 -2.18607 -2.06474 0
M  V30 495 C 49.3541 -2.22985 -2.19651 0
M  V30 496 C 49.8291 -3.4255 -3.04012 0
M  V30 497 N 51.3201 -3.42725 -3.11599 0
M  V30 498 C 52.0551 -4.31892 -3.7717 0
M  V30 499 N 51.5511 -5.31279 -4.44651 0
M  V30 500 N 53.3441 -4.19662 -3.73952 0
M  V30 501 H 45.4951 -2.06469 -0.49841 0
M  V30 502 H 47.7581 -0.904853 -0.282747 0
M  V30 503 H 47.4641 -3.13267 -1.59865 0
M  V30 504 H 47.3381 -2.18838 -3.07229 0
M  V30 505 H 49.7251 -1.28871 -2.65474 0
M  V30 506 H 49.8061 -2.26791 -1.18319 0
M  V30 507 H 49.4501 -4.36965 -2.58889 0
M  V30 508 H 49.3801 -3.35984 -4.0549 0
M  V30 509 H 51.8711 -2.70807 -2.63575 0
M  V30 510 H 52.1841 -5.95593 -4.92431 0
M  V30 511 H 50.5291 -5.3519 -4.43392 0
M  V30 512 H 53.7201 -3.41268 -3.20396 0
M  V30 513 H 53.8931 -4.89358 -4.24774 0
M  V30 514 N 47.2992 1.18797 -1.03562 0
M  V30 515 C 48.2622 2.20464 -0.626769 0
M  V30 516 C 49.2622 1.57721 0.313173 0
M  V30 517 O 50.4522 1.73917 0.0992615 0
M  V30 518 C 47.5842 3.40802 0.0818498 0
M  V30 519 H 48.7772 2.58149 -1.5264 0
M  V30 520 H 46.3302 1.32593 -0.827578 0
M  V30 521 H 47.0652 3.08642 0.995518 0
M  V30 522 H 46.8502 3.8758 -0.593652 0
M  V30 523 H 48.3402 4.16092 0.354584 0
M  V30 524 N 48.7773 0.814389 1.34928 0
M  V30 525 C 49.7073 0.244827 2.32213 0
M  V30 526 C 50.6883 -0.634024 1.57842 0
M  V30 527 O 51.8733 -0.562676 1.8587 0
M  V30 528 C 49.0033 -0.601106 3.42058 0
M  V30 529 C 47.9573 0.179896 4.27622 0
M  V30 530 C 47.2833 -0.788237 5.28858 0
M  V30 531 C 48.5833 1.38329 5.03649 0
M  V30 532 H 50.2773 1.05763 2.80097 0
M  V30 533 H 47.8233 0.510029 1.34665 0
M  V30 534 H 49.7763 -1.00968 4.09125 0
M  V30 535 H 48.5003 -1.44688 2.92802 0
M  V30 536 H 47.1593 0.569739 3.62146 0
M  V30 537 H 46.8073 -1.62973 4.75866 0
M  V30 538 H 46.5073 -0.269942 5.8698 0
M  V30 539 H 48.0313 -1.19485 5.98795 0
M  V30 540 H 49.4453 1.04918 5.63618 0
M  V30 541 H 47.8423 1.83662 5.71304 0
M  V30 542 H 48.9123 2.16592 4.33839 0
M  V30 543 N 50.2554 -1.46986 0.568584 0
M  V30 544 C 51.6664 -1.86188 0.138219 0
M  V30 545 C 52.0174 -1.47388 -1.29504 0
M  V30 546 O 51.1424 -0.88219 -1.97602 0
M  V30 547 C 51.7374 -3.3792 0.244065 0
M  V30 548 C 50.2964 -3.76171 -0.131335 0
M  V30 549 C 49.4434 -2.71027 0.586465 0
M  V30 550 H 52.3944 -1.38342 0.777645 0
M  V30 551 H 52.4154 -3.76729 -0.534351 0
M  V30 552 H 51.9274 -3.66128 1.28731 0
M  V30 553 H 50.0284 -3.5358 -1.17526 0
M  V30 554 H 50.1414 -4.78523 0.235146 0
M  V30 555 H 48.5054 -2.54684 0.0282722 0
M  V30 556 H 49.2884 -3.02077 1.63109 0
M  V30 557 N 51.7335 -0.305618 -1.54608 0
M  V30 558 C 53.1445 0.186098 -1.8577 0
M  V30 559 C 53.4955 1.53058 -1.22751 0
M  V30 560 O 52.6205 2.09888 -0.526893 0
M  V30 561 C 53.2155 0.344449 -3.37044 0
M  V30 562 C 51.7745 0.780384 -3.68221 0
M  V30 563 C 50.9215 -0.108554 -2.77087 0
M  V30 564 H 53.8725 -0.526485 -1.49712 0
M  V30 565 H 53.8935 1.17828 -3.61796 0
M  V30 566 H 53.4055 -0.634235 -3.82883 0
M  V30 567 H 51.5065 1.76945 -3.27904 0
M  V30 568 H 51.6195 0.596572 -4.75371 0
M  V30 569 H 49.9835 0.412931 -2.5133 0
M  V30 570 H 50.7665 -1.08368 -3.25747 0
M  V30 571 N 53.2116 1.57565 -0.0334293 0
M  V30 572 C 54.4886 1.83282 0.683163 0
M  V30 573 C 54.8686 0.91823 1.90084 0
M  V30 574 O 54.2166 -0.025113 2.28486 0
M  V30 575 C 54.4266 3.32599 1.0573 0
M  V30 576 C 55.7746 3.99179 1.44711 0
M  V30 577 O 56.7986 3.3712 1.15015 0
M  V30 578 O 55.6576 5.08565 2.0006 0
M  V30 579 H 52.7516 0.755869 0.335546 0
M  V30 580 H 55.2976 1.69589 -0.0614402 0
M  V30 581 H 54.0696 3.90834 0.190828 0
M  V30 582 H 53.6926 3.51415 1.85993 0
M  V30 583 N 54.6897 -0.239769 1.55765 0
M  V30 584 C 55.6527 -1.28038 1.90103 0
M  V30 585 C 56.6527 -1.40723 0.778055 0
M  V30 586 O 57.8427 -1.39301 1.04599 0
M  V30 587 C 54.9747 -2.65702 2.13577 0
M  V30 588 H 56.1677 -0.988048 2.83157 0
M  V30 589 H 53.7207 -0.479382 1.48767 0
M  V30 590 H 54.4557 -3.00063 1.23015 0
M  V30 591 H 54.2407 -2.57875 2.95369 0
M  V30 592 H 55.7307 -3.40828 2.41301 0
M  V30 593 N 56.1678 -1.49265 -0.50573 0
M  V30 594 C 57.1178 -1.6198 -1.60457 0
M  V30 595 C 58.1018 -0.47568 -1.53708 0
M  V30 596 O 59.2938 -0.728392 -1.61318 0
M  V30 597 C 56.4228 -1.68526 -2.99089 0
M  V30 598 C 55.5088 -2.885 -3.10852 0
M  V30 599 N 55.8998 -4.12635 -2.92517 0
M  V30 600 C 54.1978 -2.86338 -3.41945 0
M  V30 601 C 54.8988 -4.93258 -3.08337 0
M  V30 602 N 53.8748 -4.26533 -3.37003 0
M  V30 603 H 57.6768 -2.55681 -1.44928 0
M  V30 604 H 55.1908 -1.45972 -0.711752 0
M  V30 605 H 57.1878 -1.75732 -3.78053 0
M  V30 606 H 55.8478 -0.759584 -3.1569 0
M  V30 607 H 56.8588 -4.42689 -2.68787 0
M  V30 608 H 53.5358 -2.03129 -3.64753 0
M  V30 609 H 54.9258 -6.01856 -2.98695 0
M  V30 610 N 57.6459 0.756429 -1.3826 0
M  V30 611 C 58.5959 1.86069 -1.31766 0
M  V30 612 C 59.5799 1.59621 -0.202483 0
M  V30 613 O 60.7719 1.7149 -0.438211 0
M  V30 614 C 57.9009 3.23742 -1.1422 0
M  V30 615 C 56.9869 3.56091 -2.30348 0
M  V30 616 N 57.3779 3.59517 -3.55783 0
M  V30 617 C 55.6759 3.86341 -2.22838 0
M  V30 618 C 56.3769 3.89052 -4.32451 0
M  V30 619 N 55.3529 4.05736 -3.61772 0
M  V30 620 H 59.1549 1.86992 -2.26741 0
M  V30 621 H 56.6689 0.953643 -1.31451 0
M  V30 622 H 58.6659 4.02761 -1.07652 0
M  V30 623 H 57.3259 3.24073 -0.201763 0
M  V30 624 H 58.3369 3.41347 -3.89491 0
M  V30 625 H 55.0139 3.94404 -1.36937 0
M  V30 626 H 56.4039 3.98349 -5.4108 0
M  V30 627 N 59.124 1.23083 0.984299 0
M  V30 628 C 60.054 1.03292 2.09411 0
M  V30 629 C 61.035 -0.048923 1.7003 0
M  V30 630 O 62.22 0.114967 1.93859 0
M  V30 631 C 59.35 0.619155 3.41736 0
M  V30 632 C 58.304 1.64791 3.95004 0
M  V30 633 C 57.63 1.0897 5.23478 0
M  V30 634 C 58.93 3.03999 4.24714 0
M  V30 635 H 60.624 1.96119 2.26225 0
M  V30 636 H 58.17 0.944344 1.08711 0
M  V30 637 H 60.123 0.467777 4.18796 0
M  V30 638 H 58.847 -0.344786 3.24775 0
M  V30 639 H 57.506 1.78721 3.20085 0
M  V30 640 H 57.154 0.11686 5.02864 0
M  V30 641 H 56.854 1.77704 5.60085 0
M  V30 642 H 58.378 0.950093 6.03163 0
M  V30 643 H 59.792 2.93393 4.92538 0
M  V30 644 H 58.189 3.69936 4.72512 0
M  V30 645 H 59.259 3.53285 3.32142 0
M  V30 646 N 60.6021 -1.18246 1.0419 0
M  V30 647 C 61.5521 -2.19843 0.604392 0
M  V30 648 C 62.5361 -1.56962 -0.353814 0
M  V30 649 O 63.7281 -1.76156 -0.17267 0
M  V30 650 C 60.8571 -3.43287 -0.0298975 0
M  V30 651 C 59.9431 -4.13288 0.951531 0
M  V30 652 N 60.3341 -4.59271 2.11906 0
M  V30 653 C 58.6321 -4.39165 0.7778 0
M  V30 654 C 59.3331 -5.13173 2.73912 0
M  V30 655 N 58.3091 -5.04763 2.01779 0
M  V30 656 H 62.1111 -2.53089 1.4941 0
M  V30 657 H 59.6251 -1.34465 0.910658 0
M  V30 658 H 61.6221 -4.15334 -0.361037 0
M  V30 659 H 60.2821 -3.11537 -0.915127 0
M  V30 660 H 61.2931 -4.5368 2.49789 0
M  V30 661 H 57.9701 -4.17461 -0.0572331 0
M  V30 662 H 59.3601 -5.58947 3.72864 0
M  V30 663 N 62.0802 -0.821533 -1.34494 0
M  V30 664 C 63.0432 -0.247847 -2.27856 0
M  V30 665 C 64.0432 0.573453 -1.50227 0
M  V30 666 O 65.2332 0.389759 -1.69784 0
M  V30 667 C 62.3652 0.652698 -3.34593 0
M  V30 668 H 63.5582 -1.07146 -2.80107 0
M  V30 669 H 61.1112 -0.593291 -1.44602 0
M  V30 670 H 61.8462 1.49943 -2.87555 0
M  V30 671 H 61.6312 0.065292 -3.92046 0
M  V30 672 H 63.1212 1.04793 -4.04238 0
M  V30 673 N 63.5583 1.46682 -0.576371 0
M  V30 674 C 64.4683 2.34032 0.163141 0
M  V30 675 C 65.4843 1.49367 0.892501 0
M  V30 676 O 66.6603 1.82252 0.857106 0
M  V30 677 C 63.7253 3.26435 1.16795 0
M  V30 678 C 62.7863 4.26998 0.443944 0
M  V30 679 C 62.0193 5.14986 1.40088 0
M  V30 680 O 62.2423 5.05785 2.637 0
M  V30 681 O 61.1763 5.94906 0.914917 0
M  V30 682 H 65.0023 2.98607 -0.55388 0
M  V30 683 H 62.5873 1.45554 -0.336821 0
M  V30 684 H 64.4693 3.83459 1.74748 0
M  V30 685 H 63.1443 2.64465 1.86655 0
M  V30 686 H 62.0513 3.7368 -0.177271 0
M  V30 687 H 63.3843 4.91736 -0.213566 0
M  V30 688 N 65.0364 0.313813 1.54444 0
M  V30 689 C 66.4524 -0.0391619 1.59552 0
M  V30 690 C 66.6524 -1.51322 1.33056 0
M  V30 691 O 65.7084 -2.26782 1.11022 0
M  V30 692 C 67.0214 0.370302 2.98411 0
M  V30 693 C 68.5694 0.320139 3.11358 0
M  V30 694 C 69.0444 0.704617 4.52547 0
M  V30 695 N 70.5354 0.657645 4.58508 0
M  V30 696 C 71.2704 0.927453 5.6585 0
M  V30 697 N 70.7664 1.26389 6.81174 0
M  V30 698 N 72.5594 0.853662 5.5558 0
M  V30 699 H 64.7104 1.27433 1.69925 0
M  V30 700 H 66.9734 0.517511 0.794284 0
M  V30 701 H 66.6794 1.39694 3.22767 0
M  V30 702 H 66.5534 -0.269619 3.76235 0
M  V30 703 H 68.9404 -0.697275 2.86744 0
M  V30 704 H 69.0214 0.99486 2.35661 0
M  V30 705 H 68.6654 1.7199 4.77893 0
M  V30 706 H 68.5954 0.00768843 5.26599 0
M  V30 707 H 71.0864 0.409067 3.75679 0
M  V30 708 H 71.3994 1.4554 7.58972 0
M  V30 709 H 69.7444 1.30206 6.82694 0
M  V30 710 H 72.9354 0.590383 4.64362 0
M  V30 711 H 73.1084 1.0673 6.3915 0
M  V30 712 N 66.5145 -1.57545 0.0417849 0
M  V30 713 C 67.9305 -1.56467 -0.314704 0
M  V30 714 C 68.1305 -1.04859 -1.72066 0
M  V30 715 O 67.1865 -0.700983 -2.42575 0
M  V30 716 C 68.4995 -3.00317 -0.15174 0
M  V30 717 C 70.0475 -3.12201 -0.223553 0
M  V30 718 C 70.5225 -4.57913 -0.0892295 0
M  V30 719 N 72.0135 -4.6297 -0.145808 0
M  V30 720 C 72.7485 -5.73362 -0.0658459 0
M  V30 721 N 72.2445 -6.92769 0.0659282 0
M  V30 722 N 74.0375 -5.6197 -0.12075 0
M  V30 723 H 66.1885 -1.89416 0.961014 0
M  V30 724 H 68.4515 -0.871862 0.372237 0
M  V30 725 H 68.1575 -3.42073 0.817254 0
M  V30 726 H 68.0315 -3.65892 -0.916692 0
M  V30 727 H 70.4185 -2.70349 -1.18301 0
M  V30 728 H 70.4995 -2.49323 0.571994 0
M  V30 729 H 70.1435 -5.00448 0.866867 0
M  V30 730 H 70.0735 -5.18786 -0.903802 0
M  V30 731 H 72.5645 -3.7709 -0.247286 0
M  V30 732 H 72.8775 -7.72707 0.119905 0
M  V30 733 H 71.2225 -6.94927 0.100885 0
M  V30 734 H 74.4135 -4.67572 -0.222187 0
M  V30 735 H 74.5865 -6.47977 -0.0549735 0
M  V30 736 N 67.9926 0.231505 -1.5589 0
M  V30 737 C 69.2406 0.955461 -1.78088 0
M  V30 738 C 69.5616 1.85262 -0.608533 0
M  V30 739 O 68.8316 1.92277 0.375035 0
M  V30 740 H 67.4116 0.355787 -0.656829 0
M  V30 741 H 70.0736 0.245751 -1.93344 0
M  V30 742 H 69.1696 1.56814 -2.69844 0
M  V30 743 N 69.4707 1.49531 0.497807 0
M  V30 744 C 70.8817 1.52344 1.07927 0
M  V30 745 C 71.2327 0.311469 1.93712 0
M  V30 746 O 70.3577 -0.578405 2.08527 0
M  V30 747 C 70.9527 2.76062 1.96405 0
M  V30 748 C 69.5117 2.81643 2.49709 0
M  V30 749 C 68.6587 2.46299 1.27404 0
M  V30 750 H 71.6097 1.56182 0.281576 0
M  V30 751 H 71.6307 2.56405 2.81135 0
M  V30 752 H 71.1427 3.64254 1.33943 0
M  V30 753 H 69.2437 1.97739 3.15801 0
M  V30 754 H 69.3567 3.83891 2.86643 0
M  V30 755 H 67.7207 1.98148 1.60029 0
M  V30 756 H 68.5037 3.36769 0.66645 0
M  V30 757 N 70.9488 -0.749086 1.3866 0
M  V30 758 C 71.8808 -1.87273 1.32142 0
M  V30 759 C 72.8938 -1.61127 0.232787 0
M  V30 760 O 74.0828 -1.71623 0.49069 0
M  V30 761 C 71.1828 -3.23005 1.02571 0
M  V30 762 C 70.3558 -3.7662 2.22433 0
M  V30 763 C 69.4148 -4.90879 1.89537 0
M  V30 764 O 68.4408 -5.05276 2.62078 0
M  V30 765 N 69.6428 -5.74198 0.853031 0
M  V30 766 H 72.4078 -1.93373 2.28969 0
M  V30 767 H 69.9688 -0.929216 1.32579 0
M  V30 768 H 71.9608 -3.96992 0.786085 0
M  V30 769 H 70.5308 -3.12262 0.145249 0
M  V30 770 H 69.7508 -2.94147 2.62434 0
M  V30 771 H 71.0388 -4.09173 3.02415 0
M  V30 772 H 70.4368 -5.6514 0.25155 0
M  V30 773 H 68.9938 -6.48313 0.67329 0
M  V30 774 N 72.4269 -1.23603 -0.977757 0
M  V30 775 C 73.8379 -1.06424 -1.53398 0
M  V30 776 C 74.1889 0.367578 -1.92726 0
M  V30 777 O 73.3139 1.25465 -1.76316 0
M  V30 778 C 73.9089 -1.92568 -2.78753 0
M  V30 779 C 72.4679 -1.79642 -3.30765 0
M  V30 780 C 71.6149 -1.88111 -2.03739 0
M  V30 781 H 74.5659 -1.37227 -0.797152 0
M  V30 782 H 74.5869 -1.45203 -3.51705 0
M  V30 783 H 74.0989 -2.96771 -2.50098 0
M  V30 784 H 72.1999 -0.782325 -3.64294 0
M  V30 785 H 72.3129 -2.63174 -4.00345 0
M  V30 786 H 70.6769 -1.31723 -2.17994 0
M  V30 787 H 71.4599 -2.93875 -1.77461 0
M  V30 788 N 73.905 1.17692 -1.04816 0
M  V30 789 C 75.151 1.88389 -0.766892 0
M  V30 790 C 75.506 1.79282 0.698269 0
M  V30 791 O 74.799 1.18739 1.50372 0
M  V30 792 C 74.993 3.37462 -1.17703 0
M  V30 793 C 74.822 3.6108 -2.68051 0
M  V30 794 C 73.592 3.78018 -3.35307 0
M  V30 795 C 75.79 3.61039 -3.66273 0
M  V30 796 N 73.772 3.89444 -4.74559 0
M  V30 797 C 75.143 3.78269 -4.91235 0
M  V30 798 C 77.198 3.44168 -3.59796 0
M  V30 799 C 75.901 3.80376 -6.10497 0
M  V30 800 C 77.927 3.4756 -4.78493 0
M  V30 801 C 77.289 3.65295 -6.02278 0
M  V30 802 H 73.388 0.707651 -0.332798 0
M  V30 803 H 75.972 1.41314 -1.33934 0
M  V30 804 H 74.143 3.83214 -0.63257 0
M  V30 805 H 75.875 3.95759 -0.845989 0
M  V30 806 H 72.63 3.77714 -2.85708 0
M  V30 807 H 73.054 3.98962 -5.46954 0
M  V30 808 H 77.696 3.29396 -2.65062 0
M  V30 809 H 75.414 3.93933 -7.05579 0
M  V30 810 H 79 3.3577 -4.75131 0
M  V30 811 H 77.88 3.6782 -6.92588 0
M  V30 812 N 75.3831 0.828654 1.34056 0
M  V30 813 C 76.3331 0.226828 2.26869 0
M  V30 814 C 77.3171 -0.612243 1.48796 0
M  V30 815 O 78.5091 -0.465884 1.70759 0
M  V30 816 C 75.6381 -0.605654 3.37915 0
M  V30 817 C 74.7241 0.244361 4.23395 0
M  V30 818 N 75.1151 1.31815 4.88322 0
M  V30 819 C 73.4131 0.0296616 4.4599 0
M  V30 820 C 74.1141 1.83895 5.51867 0
M  V30 821 N 73.0901 1.14196 5.3147 0
M  V30 822 H 76.8921 1.04811 2.74576 0
M  V30 823 H 74.4061 0.67205 1.47842 0
M  V30 824 H 76.4031 -1.05302 4.03382 0
M  V30 825 H 75.0631 -1.42504 2.91758 0
M  V30 826 H 76.0741 1.70099 4.8917 0
M  V30 827 H 72.7511 -0.757097 4.10578 0
M  V30 828 H 74.1411 2.7376 6.136 0
M  V30 829 N 76.8612 -1.46375 0.584142 0
M  V30 830 C 77.8242 -2.28784 -0.138108 0
M  V30 831 C 78.8242 -1.38471 -0.817462 0
M  V30 832 O 80.0142 -1.60833 -0.669199 0
M  V30 833 C 77.1462 -3.18892 -1.20503 0
M  V30 834 H 78.3392 -2.94117 0.586127 0
M  V30 835 H 75.8922 -1.52509 0.342171 0
M  V30 836 H 76.6272 -2.58309 -1.96079 0
M  V30 837 H 76.4122 -3.85388 -0.722384 0
M  V30 838 H 77.9022 -3.80914 -1.71155 0
M  V30 839 N 78.3393 -0.321999 -1.54275 0
M  V30 840 C 79.3023 0.531975 -2.22941 0
M  V30 841 C 80.3023 1.04478 -1.22234 0
M  V30 842 O 81.4923 0.937452 -1.46825 0
M  V30 843 C 78.6243 1.73874 -2.93224 0
M  V30 844 H 79.8173 -0.0682612 -2.99822 0
M  V30 845 H 77.3703 -0.0730644 -1.56129 0
M  V30 846 H 78.1053 2.37825 -2.20476 0
M  V30 847 H 77.8903 1.37847 -3.6707 0
M  V30 848 H 79.3803 2.34496 -3.45545 0
M  V30 849 N 79.8174 1.5752 -0.0501392 0
M  V30 850 C 80.7474 2.14502 0.922566 0
M  V30 851 C 81.7284 1.06642 1.3252 0
M  V30 852 O 82.9134 1.34577 1.4001 0
M  V30 853 C 80.0434 2.68916 2.19776 0
M  V30 854 C 78.9974 3.8175 1.93523 0
M  V30 855 C 78.3234 4.22677 3.27487 0
M  V30 856 C 79.6234 5.06932 1.25765 0
M  V30 857 H 81.3174 2.9603 0.447952 0
M  V30 858 H 78.8634 1.42401 0.214024 0
M  V30 859 H 80.8164 3.07419 2.88222 0
M  V30 860 H 79.5404 1.84578 2.69441 0
M  V30 861 H 78.1994 3.43718 1.27489 0
M  V30 862 H 77.8474 3.35291 3.74952 0
M  V30 863 H 77.5474 4.98725 3.1072 0
M  V30 864 H 79.0714 4.63779 3.97166 0
M  V30 865 H 80.4854 5.42888 1.84244 0
M  V30 866 H 78.8824 5.88116 1.19328 0
M  V30 867 H 79.9524 4.84337 0.233536 0
M  V30 868 N 81.2955 -0.223234 1.56011 0
M  V30 869 C 82.7065 -0.790368 1.69145 0
M  V30 870 C 83.0575 -1.85055 0.651845 0
M  V30 871 O 82.1825 -2.15498 -0.197359 0
M  V30 872 C 82.7775 -1.4404 3.06656 0
M  V30 873 C 81.3365 -1.95494 3.2165 0
M  V30 874 C 80.4835 -0.814506 2.65068 0
M  V30 875 H 83.4345 0.00139011 1.587 0
M  V30 876 H 83.4555 -2.30916 3.0242 0
M  V30 877 H 82.9675 -0.668543 3.82298 0
M  V30 878 H 81.0685 -2.75487 2.50874 0
M  V30 879 H 81.1815 -2.13607 4.28846 0
M  V30 880 H 79.5455 -1.22137 2.23505 0
M  V30 881 H 80.3285 -0.0553515 3.43255 0
M  V30 882 N 82.7736 -1.49793 -0.48987 0
M  V30 883 C 83.9986 -1.63836 -1.27172 0
M  V30 884 C 84.4236 -0.31402 -1.8546 0
M  V30 885 O 83.7816 0.719803 -1.66399 0
M  V30 886 C 83.8296 -2.71797 -2.36978 0
M  V30 887 O 82.9336 -2.31744 -3.41128 0
M  V30 888 H 82.2746 -0.547997 -0.37496 0
M  V30 889 H 84.8046 -1.96053 -0.585191 0
M  V30 890 H 84.8146 -2.94305 -2.82575 0
M  V30 891 H 83.4896 -3.67923 -1.93921 0
M  V30 892 H 82.0666 -2.1961 -3.01373 0
M  V30 893 N 84.2517 0.741722 -1.39055 0
M  V30 894 C 85.4767 1.53607 -1.39354 0
M  V30 895 C 85.9017 1.88096 0.0116905 0
M  V30 896 O 85.2597 1.5143 0.996924 0
M  V30 897 C 85.3077 2.80441 -2.26682 0
M  V30 898 O 84.4117 3.76088 -1.69208 0
M  V30 899 H 83.7527 0.464142 -0.474835 0
M  V30 900 H 86.2827 0.915665 -1.82967 0
M  V30 901 H 86.2927 3.29246 -2.40959 0
M  V30 902 H 84.9677 2.5467 -3.2881 0
M  V30 903 H 83.5447 3.34833 -1.64138 0
M  V30 904 N 85.7298 1.2412 0.971189 0
M  V30 905 C 87.1408 1.07236 1.52831 0
M  V30 906 C 87.4918 -0.357352 1.92918 0
M  V30 907 O 86.6168 -1.24528 1.76979 0
M  V30 908 C 87.2118 1.94043 2.77728 0
M  V30 909 C 85.7708 1.81394 3.29808 0
M  V30 910 C 84.9178 1.89189 2.02738 0
M  V30 911 H 87.8688 1.37648 0.789864 0
M  V30 912 H 87.8898 1.47066 3.5093 0
M  V30 913 H 87.4018 2.98093 2.4852 0
M  V30 914 H 85.5028 0.801634 3.63874 0
M  V30 915 H 85.6158 2.65294 3.98944 0
M  V30 916 H 83.9798 1.32877 2.17292 0
M  V30 917 H 84.7628 2.94812 1.759 0
M  V30 918 N 87.2079 -1.17134 1.05439 0
M  V30 919 C 88.1709 -2.19439 0.661764 0
M  V30 920 C 89.1709 -1.58199 -0.288042 0
M  V30 921 O 90.3609 -1.74053 -0.0715803 0
M  V30 922 C 87.4929 -3.40889 -0.0276209 0
M  V30 923 H 88.6859 -2.55688 1.56728 0
M  V30 924 H 86.2389 -1.31259 0.848567 0
M  V30 925 H 86.9739 -3.10187 -0.94629 0
M  V30 926 H 86.7589 -3.86586 0.655238 0
M  V30 927 H 88.2489 -4.16603 -0.288342 0
M  V30 928 N 88.686 -0.835752 -1.33615 0
M  V30 929 C 90.097 -0.487099 -1.80234 0
M  V30 930 C 90.448 0.993627 -1.69179 0
M  V30 931 O 89.573 1.77403 -1.23924 0
M  V30 932 C 90.168 -0.877385 -3.27242 0
M  V30 933 C 88.727 -0.580915 -3.7189 0
M  V30 934 C 87.874 -1.0874 -2.5509 0
M  V30 935 H 90.825 -1.02474 -1.2118 0
M  V30 936 H 90.846 -0.186195 -3.80044 0
M  V30 937 H 90.358 -1.95512 -3.35256 0
M  V30 938 H 88.459 0.486881 -3.69405 0
M  V30 939 H 88.572 -1.13396 -4.65487 0
M  V30 940 H 86.936 -0.508392 -2.49575 0
M  V30 941 H 87.719 -2.17184 -2.65868 0
M  V30 942 N 90.1641 1.46063 -0.591896 0
M  V30 943 C 91.1271 2.28854 0.125973 0
M  V30 944 C 92.1271 1.38903 0.810107 0
M  V30 945 O 93.3171 1.61186 0.66066 0
M  V30 946 C 90.4491 3.19526 1.1881 0
M  V30 947 H 91.6421 2.93802 -0.601717 0
M  V30 948 H 89.1951 1.52325 -0.350254 0
M  V30 949 H 89.9301 2.59345 1.94707 0
M  V30 950 H 89.7151 3.85766 0.701936 0
M  V30 951 H 91.2051 3.81817 1.69132 0
M  V30 952 N 91.6422 0.330177 1.54103 0
M  V30 953 C 93.0532 -0.15652 1.86043 0
M  V30 954 C 93.4042 -1.51086 1.2517 0
M  V30 955 O 92.5292 -2.09023 0.560217 0
M  V30 956 C 93.1242 -0.290784 3.3755 0
M  V30 957 C 91.6832 -0.721705 3.69416 0
M  V30 958 C 90.8302 0.152622 2.7688 0
M  V30 959 H 93.7812 0.550237 1.48856 0
M  V30 960 H 93.8022 -1.12058 3.63625 0
M  V30 961 H 93.3142 0.695068 3.81825 0
M  V30 962 H 91.4152 -1.71706 3.30678 0
M  V30 963 H 91.5282 -0.520869 4.7626 0
M  V30 964 H 89.8922 -0.372894 2.51956 0
M  V30 965 H 90.6752 1.13536 3.23982 0
M  V30 966 N 93.1203 -1.57491 0.0584922 0
M  V30 967 C 94.0833 -2.1085 -0.898617 0
M  V30 968 C 95.0833 -1.02964 -1.23511 0
M  V30 969 O 96.2733 -1.29007 -1.17059 0
M  V30 970 C 93.4053 -2.59881 -2.20623 0
M  V30 971 H 94.5983 -2.96715 -0.435936 0
M  V30 972 H 92.1513 -1.55141 -0.190023 0
M  V30 973 H 92.8863 -1.77431 -2.71457 0
M  V30 974 H 92.6713 -3.38727 -1.97501 0
M  V30 975 H 94.1613 -3.01285 -2.89166 0
M  V30 976 N 94.5984 0.214957 -1.56127 0
M  V30 977 C 95.8264 0.955092 -1.83536 0
M  V30 978 C 96.2414 1.77677 -0.638472 0
M  V30 979 O 95.5984 1.78219 0.392968 0
M  V30 980 C 95.6494 1.86734 -3.09536 0
M  V30 981 O 95.3704 1.07887 -4.24608 0
M  V30 982 C 96.8714 2.72082 -3.4998 0
M  V30 983 H 94.0914 0.279611 -0.609966 0
M  V30 984 H 96.6354 0.228197 -2.03223 0
M  V30 985 H 94.7904 2.5481 -2.91806 0
M  V30 986 H 95.2044 1.69872 -4.9623 0
M  V30 987 H 96.6784 3.31782 -4.41163 0
M  V30 988 H 97.1554 3.44806 -2.7204 0
M  V30 989 H 97.7614 2.09409 -3.70173 0
M  V30 990 N 96.0765 1.50051 0.48192 0
M  V30 991 C 97.0085 1.64263 1.59844 0
M  V30 992 C 98.0215 0.52451 1.54119 0
M  V30 993 O 99.2105 0.797293 1.59704 0
M  V30 994 C 96.3105 1.60102 2.98698 0
M  V30 995 C 95.4835 2.87767 3.29407 0
M  V30 996 C 94.5425 2.76397 4.47762 0
M  V30 997 O 93.5685 3.50348 4.48603 0
M  V30 998 N 94.7705 1.89222 5.48794 0
M  V30 999 H 97.5355 2.60566 1.48073 0
M  V30 1000 H 95.0965 1.47379 0.670149 0
M  V30 1001 H 97.0885 1.50123 3.75826 0
M  V30 1002 H 95.6585 0.715798 3.04294 0
M  V30 1003 H 94.8785 3.11954 2.40994 0
M  V30 1004 H 96.1665 3.72365 3.4673 0
M  V30 1005 H 95.5645 1.28434 5.50928 0
M  V30 1006 H 94.1215 1.85154 6.24949 0
M  V30 1007 N 97.5546 -0.734337 1.39446 0
M  V30 1008 C 98.4646 -1.87879 1.40495 0
M  V30 1009 C 99.4806 -1.714 0.299672 0
M  V30 1010 O 100.657 -1.93991 0.541249 0
M  V30 1011 C 97.7216 -3.23477 1.24754 0
M  V30 1012 C 96.7826 -3.52344 2.45259 0
M  V30 1013 C 96.0156 -4.81473 2.30259 0
M  V30 1014 O 96.2386 -5.55237 1.30643 0
M  V30 1015 O 95.1726 -5.10254 3.19256 0
M  V30 1016 H 98.9986 -1.89949 2.36966 0
M  V30 1017 H 96.5836 -0.882243 1.20569 0
M  V30 1018 H 98.4656 -4.04509 1.18111 0
M  V30 1019 H 97.1406 -3.22176 0.313781 0
M  V30 1020 H 96.0476 -2.71396 2.57478 0
M  V30 1021 H 97.3806 -3.58426 3.37331 0
M  V30 1022 N 99.0327 -1.24633 -0.964593 0
M  V30 1023 C 99.9957 -1.0424 -2.04124 0
M  V30 1024 C 100.996 0.00137563 -1.608 0
M  V30 1025 O 102.186 -0.239883 -1.7254 0
M  V30 1026 C 99.3177 -0.580588 -3.3592 0
M  V30 1027 H 100.511 -1.99803 -2.23649 0
M  V30 1028 H 98.0637 -1.06899 -1.14027 0
M  V30 1029 H 98.7987 0.3781 -3.22088 0
M  V30 1030 H 98.5837 -1.33398 -3.6871 0
M  V30 1031 H 100.074 -0.459034 -4.15069 0
M  V30 1032 N 100.511 1.16574 -1.06058 0
M  V30 1033 C 101.922 1.68662 -0.800632 0
M  V30 1034 C 102.273 1.84184 0.67608 0
M  V30 1035 O 101.398 1.53568 1.52466 0
M  V30 1036 C 101.993 3.06356 -1.44676 0
M  V30 1037 C 100.552 3.55575 -1.23465 0
M  V30 1038 C 99.6988 2.31616 -1.52477 0
M  V30 1039 H 102.65 1.00969 -1.22438 0
M  V30 1040 H 102.671 3.70636 -0.860788 0
M  V30 1041 H 102.183 2.95027 -2.52152 0
M  V30 1042 H 100.284 3.72167 -0.179527 0
M  V30 1043 H 100.397 4.37812 -1.94571 0
M  V30 1044 H 98.7608 2.36512 -0.945209 0
M  V30 1045 H 99.5438 2.22887 -2.61106 0
M  V30 1046 N 101.989 0.842826 1.3317 0
M  V30 1047 C 103.405 0.531128 1.50503 0
M  V30 1048 C 103.605 -0.940734 1.78192 0
M  V30 1049 O 102.661 -1.72436 1.84451 0
M  V30 1050 C 103.974 1.40789 2.65705 0
M  V30 1051 C 105.522 1.40708 2.79589 0
M  V30 1052 C 105.997 2.26878 3.97857 0
M  V30 1053 N 107.488 2.24609 4.05099 0
M  V30 1054 C 108.223 2.88019 4.95815 0
M  V30 1055 N 107.719 3.60496 5.9162 0
M  V30 1056 N 109.512 2.77469 4.88843 0
M  V30 1057 H 101.663 1.79557 1.1346 0
M  V30 1058 H 103.926 0.766267 0.558156 0
M  V30 1059 H 103.632 2.454 2.51936 0
M  V30 1060 H 103.506 1.08677 3.61205 0
M  V30 1061 H 105.893 0.368668 2.92788 0
M  V30 1062 H 105.974 1.76829 1.84838 0
M  V30 1063 H 105.618 3.3078 3.85418 0
M  V30 1064 H 105.548 1.88096 4.91861 0
M  V30 1065 H 108.039 1.71906 3.36536 0
M  V30 1066 H 108.352 4.06076 6.57512 0
M  V30 1067 H 106.697 3.64604 5.91683 0
M  V30 1068 H 109.888 2.20406 4.12963 0
M  V30 1069 H 110.061 3.2717 5.59342 0
M  V30 1070 N 103.467 -1.45747 0.599634 0
M  V30 1071 C 104.878 -1.85853 0.177681 0
M  V30 1072 C 105.229 -1.50102 -1.26348 0
M  V30 1073 O 104.354 -0.923905 -1.95686 0
M  V30 1074 C 104.949 -3.37326 0.315688 0
M  V30 1075 C 103.508 -3.76365 -0.0515144 0
M  V30 1076 C 102.655 -2.69722 0.643822 0
M  V30 1077 H 105.606 -1.36661 0.806814 0
M  V30 1078 H 105.627 -3.77778 -0.454321 0
M  V30 1079 H 105.139 -3.63315 1.36468 0
M  V30 1080 H 103.24 -3.55993 -1.09999 0
M  V30 1081 H 103.353 -4.77916 0.336594 0
M  V30 1082 H 101.717 -2.54567 0.0822881 0
M  V30 1083 H 102.5 -2.98549 1.6948 0
M  V30 1084 N 104.945 -0.338344 -1.53925 0
M  V30 1085 C 105.908 0.508299 -2.23493 0
M  V30 1086 C 106.908 1.03175 -1.23335 0
M  V30 1087 O 108.098 0.921826 -1.47811 0
M  V30 1088 C 105.23 1.70754 -2.95052 0
M  V30 1089 H 106.423 -0.100058 -2.99733 0
M  V30 1090 H 103.976 -0.0896198 -1.56043 0
M  V30 1091 H 104.711 2.35474 -2.22986 0
M  V30 1092 H 104.496 1.33946 -3.68512 0
M  V30 1093 H 105.986 2.30818 -3.48013 0
M  V30 1094 N 106.423 1.57458 -0.0668435 0
M  V30 1095 C 107.648 1.9804 0.616027 0
M  V30 1096 C 108.073 0.944771 1.62652 0
M  V30 1097 O 107.431 -0.0902094 1.81075 0
M  V30 1098 C 107.479 3.37665 1.26549 0
M  V30 1099 O 106.583 3.36701 2.38131 0
M  V30 1100 H 105.924 0.644719 0.158849 0
M  V30 1101 H 108.454 2.04121 -0.139891 0
M  V30 1102 H 108.464 3.7474 1.6135 0
M  V30 1103 H 107.139 4.12573 0.525016 0
M  V30 1104 H 105.716 3.1139 2.0516 0
M  V30 1105 N 107.901 -0.206675 1.56239 0
M  V30 1106 C 109.126 -0.949474 1.8439 0
M  V30 1107 C 109.551 -1.76549 0.649016 0
M  V30 1108 O 108.909 -1.76782 -0.402231 0
M  V30 1109 C 108.957 -1.83078 3.10668 0
M  V30 1110 O 108.061 -2.9281 2.90407 0
M  V30 1111 H 107.402 -0.268033 0.607499 0
M  V30 1112 H 109.932 -0.215488 2.03462 0
M  V30 1113 H 109.942 -2.2377 3.41161 0
M  V30 1114 H 108.617 -1.23112 3.97261 0
M  V30 1115 H 107.194 -2.55956 2.71184 0
M  V30 1116 N 109.379 -1.50304 -0.473955 0
M  V30 1117 C 110.309 -1.71886 -1.58042 0
M  V30 1118 C 111.29 -0.567799 -1.60344 0
M  V30 1119 O 112.475 -0.806623 -1.76656 0
M  V30 1120 C 109.605 -1.81036 -2.96384 0
M  V30 1121 C 108.559 -2.962 -3.08949 0
M  V30 1122 C 107.885 -2.9049 -4.48909 0
M  V30 1123 C 109.185 -4.36752 -2.86434 0
M  V30 1124 H 110.879 -2.64527 -1.40234 0
M  V30 1125 H 108.425 -1.27295 -0.673201 0
M  V30 1126 H 110.378 -1.94719 -3.73714 0
M  V30 1127 H 109.102 -0.850147 -3.15341 0
M  V30 1128 H 107.761 -2.82164 -2.3405 0
M  V30 1129 H 107.409 -1.92321 -4.64781 0
M  V30 1130 H 107.109 -3.67802 -4.58253 0
M  V30 1131 H 108.633 -3.06218 -5.28264 0
M  V30 1132 H 110.047 -4.5133 -3.53517 0
M  V30 1133 H 108.444 -5.15493 -3.07225 0
M  V30 1134 H 109.514 -4.49321 -1.82316 0
M  V30 1135 N 110.857 0.726932 -1.39834 0
M  V30 1136 C 112.273 1.03354 -1.21615 0
M  V30 1137 C 112.473 2.01327 -0.08338 0
M  V30 1138 O 111.529 2.46158 0.56238 0
M  V30 1139 C 112.842 1.58811 -2.55342 0
M  V30 1140 C 114.39 1.70851 -2.62257 0
M  V30 1141 C 114.865 2.29716 -3.96225 0
M  V30 1142 N 116.356 2.37116 -3.97907 0
M  V30 1143 C 117.091 2.83619 -4.98345 0
M  V30 1144 N 116.587 3.29958 -6.09179 0
M  V30 1145 N 118.38 2.82901 -4.8572 0
M  V30 1146 H 110.531 0.0773069 -2.12259 0
M  V30 1147 H 112.794 0.0969102 -0.943034 0
M  V30 1148 H 112.5 0.942855 -3.38826 0
M  V30 1149 H 112.374 2.57502 -2.75632 0
M  V30 1150 H 114.761 2.34497 -1.79152 0
M  V30 1151 H 114.842 0.707913 -2.45809 0
M  V30 1152 H 114.486 1.66696 -4.79765 0
M  V30 1153 H 114.416 3.30469 -4.09997 0
M  V30 1154 H 116.907 2.04374 -3.17868 0
M  V30 1155 H 117.22 3.63976 -6.8172 0
M  V30 1156 H 115.565 3.27946 -6.12761 0
M  V30 1157 H 118.756 2.46027 -3.98231 0
M  V30 1158 H 118.929 3.18827 -5.6414 0
M  V30 1159 N 112.336 1.25143 0.95797 0
M  V30 1160 C 113.747 1.08851 1.51685 0
M  V30 1161 C 114.098 -0.33687 1.93286 0
M  V30 1162 O 113.223 -1.22644 1.7829 0
M  V30 1163 C 113.818 1.96978 2.75654 0
M  V30 1164 C 112.377 1.84881 3.27866 0
M  V30 1165 C 111.524 1.91329 2.0072 0
M  V30 1166 H 114.475 1.38478 0.77522 0
M  V30 1167 H 114.496 1.5078 3.4935 0
M  V30 1168 H 114.008 3.00712 2.45345 0
M  V30 1169 H 112.109 0.840182 3.63004 0
M  V30 1170 H 112.222 2.6951 3.96107 0
M  V30 1171 H 110.586 1.35174 2.15871 0
M  V30 1172 H 111.369 2.96661 1.72764 0
M  V30 1173 N 113.814 -1.1601 1.06675 0
M  V30 1174 C 115.225 -1.68235 0.809565 0
M  V30 1175 C 115.576 -1.8454 -0.666303 0
M  V30 1176 O 114.701 -1.54374 -1.5165 0
M  V30 1177 C 115.296 -3.05585 1.46299 0
M  V30 1178 C 113.855 -3.54915 1.25349 0
M  V30 1179 C 113.002 -2.30804 1.53703 0
M  V30 1180 H 115.953 -1.00318 1.22971 0
M  V30 1181 H 115.974 -3.70174 0.880431 0
M  V30 1182 H 115.486 -2.93686 2.53713 0
M  V30 1183 H 113.587 -3.72067 0.199261 0
M  V30 1184 H 113.7 -4.36774 1.9689 0
M  V30 1185 H 112.064 -2.36007 0.957739 0
M  V30 1186 H 112.847 -2.21499 2.62284 0
M  V30 1187 N 115.292 -0.849877 -1.32721 0
M  V30 1188 C 116.708 -0.539102 -1.50219 0
M  V30 1189 C 116.908 0.931271 -1.78689 0
M  V30 1190 O 115.964 1.71455 -1.85363 0
M  V30 1191 C 117.277 -1.42196 -2.64954 0
M  V30 1192 C 118.825 -1.42189 -2.78839 0
M  V30 1193 C 119.3 -2.28985 -3.96648 0
M  V30 1194 N 120.791 -2.26754 -4.03902 0
M  V30 1195 C 121.526 -2.90644 -4.94281 0
M  V30 1196 N 121.022 -3.63629 -5.897 0
M  V30 1197 N 122.815 -2.80057 -4.87365 0
M  V30 1198 H 114.966 -1.80156 -1.12506 0
M  V30 1199 H 117.229 -0.769217 -0.554085 0
M  V30 1200 H 116.935 -2.46733 -2.50631 0
M  V30 1201 H 116.809 -1.10591 -3.60624 0
M  V30 1202 H 119.196 -0.38419 -2.92588 0
M  V30 1203 H 119.277 -1.77807 -1.83898 0
M  V30 1204 H 118.921 -3.32819 -3.83658 0
M  V30 1205 H 118.851 -1.90702 -4.90857 0
M  V30 1206 H 121.342 -1.73688 -3.3562 0
M  V30 1207 H 121.655 -4.09558 -6.55349 0
M  V30 1208 H 120 -3.67737 -5.89741 0
M  V30 1209 H 123.191 -2.22593 -4.11789 0
M  V30 1210 H 123.364 -3.30132 -5.57599 0
M  V30 1211 N 116.77 1.45427 -0.607355 0
M  V30 1212 C 118.01 2.04128 -0.105458 0
M  V30 1213 C 118.374 1.46555 1.24039 0
M  V30 1214 O 119.575 1.96608 1.833 0
M  V30 1215 C 117.846 3.57338 -0.0665324 0
M  V30 1216 S 119.405 4.37201 0.374207 0
M  V30 1217 H 116.223 0.709278 -0.0494575 0
M  V30 1218 H 118.825 1.78139 -0.805404 0
M  V30 1219 H 117.529 3.96752 -1.04957 0
M  V30 1220 H 117.06 3.87902 0.655415 0
M  V30 1221 H 119.075 4.6888 1.62377 0
M  V30 1222 N 118.248 0.346503 1.53744 0
M  V30 1223 C 119.496 -0.248612 2.00565 0
M  V30 1224 C 119.817 -1.5083 1.23593 0
M  V30 1225 O 119.087 -1.92858 0.343912 0
M  V30 1226 H 117.667 -0.0948564 0.740953 0
M  V30 1227 H 120.329 0.468341 1.89189 0
M  V30 1228 H 119.425 -0.488994 3.08245 0
M  V30 1229 N 119.726 -1.57421 0.075193 0
M  V30 1230 C 120.972 -1.93905 -0.594025 0
M  V30 1231 C 121.305 -0.955701 -1.69056 0
M  V30 1232 O 120.58 0.0145373 -1.94495 0
M  V30 1233 C 120.863 -3.40638 -1.1678 0
M  V30 1234 C 120.716 -4.49733 -0.0776792 0
M  V30 1235 C 122.035 -3.88259 -2.07228 0
M  V30 1236 H 119.154 -0.705105 -0.214466 0
M  V30 1237 H 121.796 -1.8947 0.141854 0
M  V30 1238 H 119.946 -3.44549 -1.79494 0
M  V30 1239 H 121.618 -4.57942 0.555573 0
M  V30 1240 H 119.861 -4.29751 0.591286 0
M  V30 1241 H 120.532 -5.49549 -0.519603 0
M  V30 1242 H 123.008 -3.86376 -1.54445 0
M  V30 1243 H 121.884 -4.91533 -2.44308 0
M  V30 1244 H 122.145 -3.26396 -2.98191 0
M  V30 1245 N 121.204 0.198386 -1.56346 0
M  V30 1246 C 122.615 0.763358 -1.70381 0
M  V30 1247 C 122.966 1.83995 -0.681203 0
M  V30 1248 O 122.091 2.15785 0.16305 0
M  V30 1249 C 122.686 1.39143 -3.08909 0
M  V30 1250 C 121.245 1.90352 -3.2472 0
M  V30 1251 C 120.392 0.772233 -2.6633 0
M  V30 1252 H 123.343 -0.0266377 -1.58678 0
M  V30 1253 H 123.364 2.26076 -3.06055 0
M  V30 1254 H 122.876 0.607638 -3.83314 0
M  V30 1255 H 120.977 2.71461 -2.55225 0
M  V30 1256 H 121.09 2.06757 -4.3219 0
M  V30 1257 H 119.454 1.18566 -2.2542 0
M  V30 1258 H 120.237 0.00073556 -3.433 0
M  V30 1259 N 122.682 1.50554 0.465978 0
M  V30 1260 C 123.959 1.5232 1.22712 0
M  V30 1261 C 124.339 0.270807 2.09356 0
M  V30 1262 O 123.687 -0.745541 2.15995 0
M  V30 1263 C 123.897 2.82175 2.05374 0
M  V30 1264 C 125.245 3.33033 2.6339 0
M  V30 1265 O 126.269 2.83531 2.15612 0
M  V30 1266 O 125.128 4.19336 3.50456 0
M  V30 1267 H 122.222 0.611183 0.557122 0
M  V30 1268 H 124.768 1.62847 0.477381 0
M  V30 1269 H 123.54 3.64797 1.41558 0
M  V30 1270 H 123.163 2.74675 2.87471 0
M  V30 1271 N 124.16 -0.719506 1.40217 0
M  V30 1272 C 125.571 -1.29848 1.34151 0
M  V30 1273 C 125.922 -1.96196 0.0131349 0
M  V30 1274 O 125.047 -1.973 -0.88892 0
M  V30 1275 C 125.642 -2.36118 2.42968 0
M  V30 1276 C 124.201 -2.8965 2.40374 0
M  V30 1277 C 123.348 -1.63393 2.24049 0
M  V30 1278 H 126.299 -0.51591 1.5008 0
M  V30 1279 H 126.32 -3.16871 2.10649 0
M  V30 1280 H 125.832 -1.878 3.39636 0
M  V30 1281 H 123.933 -3.42208 1.47392 0
M  V30 1282 H 124.046 -3.4171 3.35814 0
M  V30 1283 H 122.41 -1.88312 1.71495 0
M  V30 1284 H 123.193 -1.17104 3.2271 0
M  V30 1285 N 125.638 -1.25649 -0.95132 0
M  V30 1286 C 126.863 -1.13443 -1.73624 0
M  V30 1287 C 127.288 0.307565 -1.85568 0
M  V30 1288 O 126.646 1.22282 -1.33854 0
M  V30 1289 C 126.694 -1.79723 -3.12621 0
M  V30 1290 O 125.798 -1.07912 -3.98031 0
M  V30 1291 H 125.139 -0.395872 -0.533086 0
M  V30 1292 H 127.669 -1.66276 -1.1922 0
M  V30 1293 H 127.679 -1.86141 -3.63064 0
M  V30 1294 H 126.354 -2.84633 -3.03244 0
M  V30 1295 H 124.931 -1.09398 -3.56492 0
M  V30 1296 N 127.117 1.15442 -1.07289 0
M  V30 1297 C 128.394 1.82306 -0.708792 0
M  V30 1298 C 128.774 1.94991 0.808807 0
M  V30 1299 O 128.122 1.50085 1.72298 0
M  V30 1300 C 128.332 3.18695 -1.42247 0
M  V30 1301 C 129.68 3.94341 -1.57417 0
M  V30 1302 O 130.704 3.28247 -1.38319 0
M  V30 1303 O 129.563 5.12839 -1.88834 0
M  V30 1304 H 126.657 0.787628 -0.252132 0
M  V30 1305 H 129.203 1.22559 -1.17377 0
M  V30 1306 H 127.975 3.04557 -2.45684 0
M  V30 1307 H 127.598 3.86128 -0.948223 0
M  V30 1308 N 128.595 0.856903 1.32268 0
M  V30 1309 C 129.843 0.460474 1.96784 0
M  V30 1310 C 130.164 -0.987701 1.68135 0
M  V30 1311 O 129.434 -1.69058 0.989765 0
M  V30 1312 H 128.014 0.167289 0.728027 0
M  V30 1313 H 130.676 1.09383 1.61312 0
M  V30 1314 H 129.772 0.60739 3.06133 0
M  V30 1315 N 130.073 -1.45103 0.615059 0
M  V30 1316 C 131.003 -2.33339 -0.0865619 0
M  V30 1317 C 131.984 -1.4727 -0.851209 0
M  V30 1318 O 133.169 -1.76026 -0.820281 0
M  V30 1319 C 130.299 -3.30095 -1.07956 0
M  V30 1320 C 129.253 -4.25858 -0.427628 0
M  V30 1321 C 128.579 -5.12361 -1.5294 0
M  V30 1322 C 129.879 -5.18165 0.655944 0
M  V30 1323 H 131.573 -2.92254 0.650224 0
M  V30 1324 H 129.119 -1.40532 0.314138 0
M  V30 1325 H 131.072 -3.90698 -1.57901 0
M  V30 1326 H 129.796 -2.69355 -1.84703 0
M  V30 1327 H 128.455 -3.66564 0.0510292 0
M  V30 1328 H 128.103 -4.47984 -2.28734 0
M  V30 1329 H 127.803 -5.77238 -1.09865 0
M  V30 1330 H 129.327 -5.75833 -2.03098 0
M  V30 1331 H 130.741 -5.72796 0.240257 0
M  V30 1332 H 129.138 -5.91559 1.00888 0
M  V30 1333 H 130.208 -4.60144 1.52957 0
M  V30 1334 N 131.551 -0.354651 -1.53558 0
M  V30 1335 C 132.776 0.242153 -2.05981 0
M  V30 1336 C 133.201 1.42553 -1.2272 0
M  V30 1337 O 132.559 1.79656 -0.243604 0
M  V30 1338 C 132.607 0.624367 -3.55154 0
M  V30 1339 O 131.711 1.72301 -3.74681 0
M  V30 1340 H 131.052 0.0378432 -0.662921 0
M  V30 1341 H 133.582 -0.512087 -1.98088 0
M  V30 1342 H 133.592 0.898433 -3.97985 0
M  V30 1343 H 132.267 -0.240989 -4.15201 0
M  V30 1344 H 130.844 1.44535 -3.4375 0
M  V30 1345 N 133.029 1.57378 -0.0835403 0
M  V30 1346 C 133.992 2.12252 0.864959 0
M  V30 1347 C 134.992 1.04916 1.21858 0
M  V30 1348 O 136.182 1.30853 1.14991 0
M  V30 1349 C 133.314 2.63358 2.16461 0
M  V30 1350 H 134.507 2.97371 0.388676 0
M  V30 1351 H 132.06 1.55423 0.165317 0
M  V30 1352 H 132.795 1.81727 2.686 0
M  V30 1353 H 132.58 3.41826 1.92087 0
M  V30 1354 H 134.07 3.05847 2.84337 0
M  V30 1355 N 134.507 -0.190092 1.56449 0
M  V30 1356 C 135.923 -0.54113 1.50146 0
M  V30 1357 C 136.123 -1.85603 0.784465 0
M  V30 1358 O 135.179 -2.5024 0.337051 0
M  V30 1359 C 136.492 -0.591241 2.9483 0
M  V30 1360 C 138.04 -0.679732 3.0553 0
M  V30 1361 C 138.515 -0.760908 4.51635 0
M  V30 1362 N 140.006 -0.824302 4.55806 0
M  V30 1363 C 140.741 -0.907365 5.66175 0
M  V30 1364 N 140.237 -0.952422 6.86222 0
M  V30 1365 N 142.03 -0.94494 5.541 0
M  V30 1366 H 134.181 0.67235 2.01478 0
M  V30 1367 H 136.444 0.240127 0.917084 0
M  V30 1368 H 136.15 0.305905 3.50367 0
M  V30 1369 H 136.024 -1.44422 3.48457 0
M  V30 1370 H 138.411 -1.56731 2.50039 0
M  V30 1371 H 138.492 0.199549 2.5502 0
M  V30 1372 H 138.136 0.122336 5.07753 0
M  V30 1373 H 138.066 -1.65606 4.99882 0
M  V30 1374 H 140.557 -0.798526 3.69367 0
M  V30 1375 H 140.87 -1.01645 7.66086 0
M  V30 1376 H 139.215 -0.921014 6.8887 0
M  V30 1377 H 142.406 -0.906612 4.59236 0
M  V30 1378 H 142.579 -1.00622 6.4014 0
M  V30 1379 N 135.985 -1.50799 -0.457987 0
M  V30 1380 C 136.933 -1.71162 -1.575 0
M  V30 1381 C 137.927 -0.577592 -1.59249 0
M  V30 1382 O 139.133 -0.758443 -1.63241 0
M  V30 1383 H 135.508 -0.540468 -0.522875 0
M  V30 1384 H 137.479 -2.64837 -1.37492 0
M  V30 1385 C 136.228 -1.83496 -2.95338 0
M  V30 1386 H 135.551 -2.70153 -2.94716 0
M  V30 1387 H 136.991 -2.01765 -3.72917 0
M  V30 1388 C 135.45 -0.589694 -3.31699 0
M  V30 1389 O 135.98 0.265163 -4.00824 0
M  V30 1390 N 134.186 -0.439845 -2.87252 0
M  V30 1391 H 133.733 -1.13655 -2.31172 0
M  V30 1392 H 133.691 0.392159 -3.11945 0
M  V30 1393 N 137.463 0.71206 -1.40597 0
M  V30 1394 C 138.879 1.02058 -1.22704 0
M  V30 1395 C 139.079 2.01228 -0.104729 0
M  V30 1396 O 138.135 2.4674 0.53624 0
M  V30 1397 C 139.448 1.56094 -2.57012 0
M  V30 1398 C 140.996 1.6806 -2.64054 0
M  V30 1399 C 141.471 2.25501 -3.9864 0
M  V30 1400 N 142.962 2.32882 -4.004 0
M  V30 1401 C 143.697 2.78317 -5.01325 0
M  V30 1402 N 143.193 3.23478 -6.12645 0
M  V30 1403 N 144.986 2.77733 -4.88693 0
M  V30 1404 H 137.137 0.0547896 -2.12329 0
M  V30 1405 H 139.4 0.0869027 -0.944008 0
M  V30 1406 H 139.106 0.906865 -3.39807 0
M  V30 1407 H 138.98 2.54564 -2.78347 0
M  V30 1408 H 141.367 2.32583 -1.81629 0
M  V30 1409 H 141.448 0.681802 -2.46546 0
M  V30 1410 H 141.092 1.61598 -4.81506 0
M  V30 1411 H 141.022 3.26102 -4.13479 0
M  V30 1412 H 143.513 2.00991 -3.20017 0
M  V30 1413 H 143.826 3.56725 -6.85542 0
M  V30 1414 H 142.171 3.21429 -6.16205 0
M  V30 1415 H 145.362 2.4179 -4.00818 0
M  V30 1416 H 145.535 3.12826 -5.67489 0
M  V30 1417 N 138.941 1.26152 0.944643 0
M  V30 1418 C 139.873 1.03199 2.04652 0
M  V30 1419 C 140.886 -0.00642356 1.62799 0
M  V30 1420 O 142.075 0.233263 1.76969 0
M  V30 1421 C 139.175 0.540111 3.34568 0
M  V30 1422 C 138.348 1.64697 4.05208 0
M  V30 1423 C 137.407 1.15374 5.13396 0
M  V30 1424 O 136.433 1.85013 5.38293 0
M  V30 1425 N 137.635 0.00031529 5.805 0
M  V30 1426 H 140.4 1.9808 2.2491 0
M  V30 1427 H 137.961 1.17491 1.11389 0
M  V30 1428 H 139.953 0.194401 4.04233 0
M  V30 1429 H 138.523 -0.315021 3.11009 0
M  V30 1430 H 137.743 2.16379 3.29506 0
M  V30 1431 H 139.031 2.3903 4.49157 0
M  V30 1432 H 138.429 -0.581336 5.62705 0
M  V30 1433 H 136.986 -0.286346 6.51171 0
M  V30 1434 N 140.419 -1.14872 1.07899 0
M  V30 1435 C 141.366 -2.19791 0.704319 0
M  V30 1436 C 142.336 -1.63238 -0.306987 0
M  V30 1437 O 143.521 -1.8983 -0.192171 0
M  V30 1438 C 140.661 -3.44911 0.114244 0
M  V30 1439 C 139.774 -4.15637 1.1777 0
M  V30 1440 C 138.909 -5.28324 0.552037 0
M  V30 1441 C 137.948 -5.90875 1.59789 0
M  V30 1442 N 137.085 -6.95022 0.994404 0
M  V30 1443 H 141.925 -2.5119 1.60336 0
M  V30 1444 H 139.462 -1.23356 0.801352 0
M  V30 1445 H 141.42 -4.16477 -0.245544 0
M  V30 1446 H 140.05 -3.14011 -0.74813 0
M  V30 1447 H 139.102 -3.42512 1.65499 0
M  V30 1448 H 140.414 -4.5823 1.97046 0
M  V30 1449 H 139.568 -6.06538 0.1402 0
M  V30 1450 H 138.307 -4.86939 -0.272431 0
M  V30 1451 H 137.312 -5.11369 2.01945 0
M  V30 1452 H 138.537 -6.34337 2.42474 0
M  V30 1453 H 136.483 -6.55722 0.190939 0
M  V30 1454 H 136.4 -7.36073 1.72432 0
M  V30 1455 H 137.668 -7.77123 0.608253 0
M  V30 1456 N 141.898 -0.863906 -1.31812 0
M  V30 1457 C 143.314 -0.555004 -1.49639 0
M  V30 1458 C 143.514 0.912266 -1.79666 0
M  V30 1459 O 142.57 1.69479 -1.87171 0
M  V30 1460 C 143.883 -1.44998 -2.63431 0
M  V30 1461 C 145.431 -1.45138 -2.77316 0
M  V30 1462 C 145.906 -2.33179 -3.94197 0
M  V30 1463 N 147.397 -2.31025 -4.01474 0
M  V30 1464 C 148.132 -2.95871 -4.9117 0
M  V30 1465 N 147.628 -3.69863 -5.8581 0
M  V30 1466 N 149.421 -2.85211 -4.84367 0
M  V30 1467 H 141.572 -1.81339 -1.10589 0
M  V30 1468 H 143.835 -0.77505 -0.545895 0
M  V30 1469 H 143.541 -2.49377 -2.48 0
M  V30 1470 H 143.415 -1.14409 -3.59431 0
M  V30 1471 H 145.802 -0.415201 -2.92164 0
M  V30 1472 H 145.883 -1.79747 -1.82001 0
M  V30 1473 H 145.527 -3.3687 -3.80107 0
M  V30 1474 H 145.457 -1.95897 -4.88807 0
M  V30 1475 H 147.948 -1.77238 -3.33759 0
M  V30 1476 H 148.261 -4.16486 -6.50968 0
M  V30 1477 H 146.606 -3.73971 -5.85808 0
M  V30 1478 H 149.797 -2.26948 -4.09405 0
M  V30 1479 H 149.97 -3.36027 -5.54066 0
M  V30 1480 N 143.376 1.44774 -0.622745 0
M  V30 1481 C 144.623 2.02121 -0.1239 0
M  V30 1482 C 144.951 1.48915 1.25118 0
M  V30 1483 O 144.206 0.660045 1.84233 0
M  V30 1484 C 144.505 3.57364 -0.0508323 0
M  V30 1485 C 144.171 4.29787 -1.36358 0
M  V30 1486 C 142.833 4.4929 -1.72314 0
M  V30 1487 C 145.185 4.71062 -2.23048 0
M  V30 1488 C 142.513 5.07325 -2.94682 0
M  V30 1489 C 144.865 5.30452 -3.44679 0
M  V30 1490 C 143.529 5.48175 -3.80868 0
M  V30 1491 H 142.799 0.739612 -0.0453381 0
M  V30 1492 H 145.446 1.73648 -0.807389 0
M  V30 1493 H 143.751 3.85202 0.715991 0
M  V30 1494 H 145.448 3.99456 0.351533 0
M  V30 1495 H 142.038 4.14932 -1.07375 0
M  V30 1496 H 146.222 4.55715 -1.96565 0
M  V30 1497 H 141.478 5.19235 -3.22809 0
M  V30 1498 H 145.652 5.61385 -4.12092 0
M  V30 1499 H 143.279 5.92912 -4.75773 0
M  V30 1500 N 144.854 0.36279 1.53368 0
M  V30 1501 C 146.1 -0.228113 2.01513 0
M  V30 1502 C 146.433 -1.48648 1.2497 0
M  V30 1503 O 145.708 -1.91459 0.342616 0
M  V30 1504 C 145.991 -0.522884 3.56284 0
M  V30 1505 C 145.844 0.74892 4.43521 0
M  V30 1506 C 147.163 -1.32461 4.19693 0
M  V30 1507 H 144.282 -0.0814343 0.732487 0
M  V30 1508 H 146.924 0.48713 1.83649 0
M  V30 1509 H 145.074 -1.1322 3.71636 0
M  V30 1510 H 146.746 1.38648 4.39971 0
M  V30 1511 H 144.989 1.36986 4.11603 0
M  V30 1512 H 145.66 0.497667 5.49752 0
M  V30 1513 H 148.136 -0.809203 4.08156 0
M  V30 1514 H 147.012 -1.49961 5.28018 0
M  V30 1515 H 147.273 -2.33232 3.75573 0
M  V30 1516 N 146.332 -1.57332 0.0918853 0
M  V30 1517 C 147.262 -2.16872 -0.865371 0
M  V30 1518 C 148.243 -1.10118 -1.29646 0
M  V30 1519 O 149.428 -1.38242 -1.36392 0
M  V30 1520 C 146.558 -2.74649 -2.12569 0
M  V30 1521 C 145.512 -3.86747 -1.83333 0
M  V30 1522 C 144.838 -4.31212 -3.16166 0
M  V30 1523 C 146.138 -5.10089 -1.1228 0
M  V30 1524 H 147.832 -2.97114 -0.369307 0
M  V30 1525 H 145.378 -1.42918 -0.176194 0
M  V30 1526 H 147.331 -3.14952 -2.7997 0
M  V30 1527 H 146.055 -1.91657 -2.64452 0
M  V30 1528 H 144.714 -3.46978 -1.18331 0
M  V30 1529 H 144.362 -3.45115 -3.6593 0
M  V30 1530 H 144.062 -5.06788 -2.97388 0
M  V30 1531 H 145.586 -4.74146 -3.84731 0
M  V30 1532 H 147 -5.47582 -1.69785 0
M  V30 1533 H 145.397 -5.91073 -1.03693 0
M  V30 1534 H 146.467 -4.84786 -0.105041 0
M  V30 1535 N 147.81 0.181792 -1.56548 0
M  V30 1536 C 149.035 0.920019 -1.85877 0
M  V30 1537 C 149.46 1.75494 -0.677021 0
M  V30 1538 O 148.818 1.77399 0.374056 0
M  V30 1539 C 148.866 1.78112 -3.13542 0
M  V30 1540 O 147.97 2.88152 -2.95029 0
M  V30 1541 H 147.311 0.258334 -0.611686 0
M  V30 1542 H 149.841 0.183092 -2.03779 0
M  V30 1543 H 149.851 2.18314 -3.44678 0
M  V30 1544 H 148.526 1.16777 -3.99169 0
M  V30 1545 H 147.103 2.51609 -2.75222 0
M  V30 1546 N 149.288 1.51039 0.449983 0
M  V30 1547 C 150.536 1.62759 1.19808 0
M  V30 1548 C 150.857 0.339981 1.92013 0
M  V30 1549 O 150.127 -0.643606 1.85026 0
M  V30 1550 H 148.707 0.599811 0.445237 0
M  V30 1551 H 151.369 1.87914 0.517138 0
M  V30 1552 H 150.465 2.44911 1.93455 0
M  V30 1553 N 150.766 -0.704594 1.40972 0
M  V30 1554 C 152.014 -1.46169 1.39568 0
M  V30 1555 C 152.335 -1.95 0.00253745 0
M  V30 1556 O 151.605 -1.71095 -0.954114 0
M  V30 1557 H 150.185 -0.542326 0.513704 0
M  V30 1558 H 152.847 -0.834553 1.76128 0
M  V30 1559 H 151.943 -2.32922 2.07735 0
M  V30 1560 N 152.244 -1.26651 -0.937939 0
M  V30 1561 C 153.66 -1.03834 -1.21205 0
M  V30 1562 C 153.86 0.234502 -2.00131 0
M  V30 1563 O 152.916 0.942767 -2.3424 0
M  V30 1564 C 154.229 -2.27167 -1.97017 0
M  V30 1565 C 155.777 -2.32101 -2.09996 0
M  V30 1566 C 156.252 -3.55136 -2.8921 0
M  V30 1567 N 157.743 -3.55632 -2.96783 0
M  V30 1568 C 158.478 -4.475 -3.58512 0
M  V30 1569 N 157.974 -5.4966 -4.21717 0
M  V30 1570 N 159.767 -4.35145 -3.55816 0
M  V30 1571 H 151.918 -2.08398 -0.410391 0
M  V30 1572 H 154.181 -0.916031 -0.244114 0
M  V30 1573 H 153.887 -3.19765 -1.46434 0
M  V30 1574 H 153.761 -2.31672 -2.97671 0
M  V30 1575 H 156.148 -1.40015 -2.59769 0
M  V30 1576 H 156.229 -2.31605 -1.08594 0
M  V30 1577 H 155.873 -4.47553 -2.40123 0
M  V30 1578 H 155.803 -3.5288 -3.90875 0
M  V30 1579 H 158.294 -2.81743 -2.51852 0
M  V30 1580 H 158.607 -6.15943 -4.66727 0
M  V30 1581 H 156.952 -5.53514 -4.20294 0
M  V30 1582 H 160.143 -3.5455 -3.05634 0
M  V30 1583 H 160.316 -5.06934 -4.03636 0
M  V30 1584 N 153.722 1.14298 -1.08507 0
M  V30 1585 C 154.968 1.85854 -0.826438 0
M  V30 1586 C 155.323 1.81413 0.640878 0
M  V30 1587 O 154.616 1.23463 1.46518 0
M  V30 1588 C 154.81 3.33547 -1.28379 0
M  V30 1589 C 154.639 3.52369 -2.79403 0
M  V30 1590 C 153.409 3.67159 -3.47164 0
M  V30 1591 C 155.607 3.49203 -3.77573 0
M  V30 1592 N 153.589 3.74149 -4.86709 0
M  V30 1593 C 154.96 3.6245 -5.03021 0
M  V30 1594 C 157.015 3.32547 -3.70563 0
M  V30 1595 C 155.718 3.60761 -6.2229 0
M  V30 1596 C 157.744 3.32162 -4.89308 0
M  V30 1597 C 157.106 3.45949 -6.13595 0
M  V30 1598 H 153.205 0.696705 -0.355143 0
M  V30 1599 H 155.789 1.36981 -1.38362 0
M  V30 1600 H 153.96 3.81008 -0.754166 0
M  V30 1601 H 155.692 3.92867 -0.971469 0
M  V30 1602 H 152.447 3.68433 -2.9758 0
M  V30 1603 H 152.871 3.81359 -5.5937 0
M  V30 1604 H 157.513 3.20797 -2.75407 0
M  V30 1605 H 155.231 3.71286 -7.17755 0
M  V30 1606 H 158.817 3.20485 -4.85573 0
M  V30 1607 H 157.697 3.456 -7.03939 0
M  V30 1608 N 155.201 0.870884 1.31352 0
M  V30 1609 C 156.111 0.330783 2.32256 0
M  V30 1610 C 157.127 -0.559767 1.6475 0
M  V30 1611 O 158.303 -0.456263 1.96164 0
M  V30 1612 C 155.368 -0.458137 3.4366 0
M  V30 1613 C 154.429 0.460482 4.26823 0
M  V30 1614 C 153.662 -0.290881 5.32907 0
M  V30 1615 O 153.885 -1.51885 5.49806 0
M  V30 1616 O 152.819 0.351732 6.00871 0
M  V30 1617 H 156.645 1.16718 2.80376 0
M  V30 1618 H 154.23 0.634285 1.35267 0
M  V30 1619 H 156.112 -0.905343 4.1156 0
M  V30 1620 H 154.787 -1.27106 2.97701 0
M  V30 1621 H 153.694 0.956207 3.61673 0
M  V30 1622 H 155.027 1.23903 4.7635 0
M  V30 1623 N 156.679 -1.44442 0.630414 0
M  V30 1624 C 157.626 -2.30678 -0.0749355 0
M  V30 1625 C 158.596 -1.4344 -0.837502 0
M  V30 1626 O 159.781 -1.72343 -0.818684 0
M  V30 1627 C 156.921 -3.28706 -1.05103 0
M  V30 1628 C 156.034 -4.31046 -0.286954 0
M  V30 1629 C 155.169 -5.16167 -1.2548 0
M  V30 1630 C 154.208 -6.10216 -0.479843 0
M  V30 1631 N 153.345 -6.88039 -1.39811 0
M  V30 1632 H 158.185 -2.90454 0.666386 0
M  V30 1633 H 155.722 -1.43107 0.340404 0
M  V30 1634 H 157.68 -3.84027 -1.63031 0
M  V30 1635 H 156.31 -2.70632 -1.75949 0
M  V30 1636 H 155.362 -3.78203 0.408243 0
M  V30 1637 H 156.674 -4.97794 0.316657 0
M  V30 1638 H 155.828 -5.76002 -1.90544 0
M  V30 1639 H 154.567 -4.49491 -1.89233 0
M  V30 1640 H 153.572 -5.49491 0.184295 0
M  V30 1641 H 154.797 -6.78928 0.152965 0
M  V30 1642 H 152.743 -6.24032 -2.02287 0
M  V30 1643 H 152.66 -7.51223 -0.848508 0
M  V30 1644 H 153.928 -7.52397 -2.03762 0
M  V30 1645 N 158.157 -0.370918 -1.53173 0
M  V30 1646 C 159.385 0.217704 -2.05751 0
M  V30 1647 C 159.8 1.42018 -1.24404 0
M  V30 1648 O 159.157 1.80245 -0.286033 0
M  V30 1649 C 159.208 0.605954 -3.56385 0
M  V30 1650 O 158.929 -0.548734 -4.3465 0
M  V30 1651 C 160.43 1.2524 -4.25241 0
M  V30 1652 H 157.65 0.0371659 -0.66997 0
M  V30 1653 H 160.194 -0.530832 -1.9749 0
M  V30 1654 H 158.349 1.3044 -3.6478 0
M  V30 1655 H 158.763 -0.23376 -5.23979 0
M  V30 1656 H 160.237 1.47458 -5.3194 0
M  V30 1657 H 160.714 2.2143 -3.79296 0
M  V30 1658 H 161.32 0.595233 -4.21114 0
M  V30 1659 N 159.635 1.57281 -0.100228 0
M  V30 1660 C 160.912 1.86014 0.604812 0
M  V30 1661 C 161.292 0.998025 1.86018 0
M  V30 1662 O 160.64 0.0718184 2.28387 0
M  V30 1663 C 160.85 3.36784 0.915278 0
M  V30 1664 C 162.198 4.04957 1.27651 0
M  V30 1665 O 163.222 3.41695 1.00613 0
M  V30 1666 O 162.081 5.16593 1.7831 0
M  V30 1667 H 159.175 0.76942 0.303185 0
M  V30 1668 H 161.721 1.69176 -0.133313 0
M  V30 1669 H 160.493 3.91292 0.0248896 0
M  V30 1670 H 160.116 3.58987 1.70921 0
M  V30 1671 N 161.113 -0.173488 1.56642 0
M  V30 1672 C 162.043 -1.2171 1.99271 0
M  V30 1673 C 163.024 -1.46289 0.867959 0
M  V30 1674 O 164.209 -1.5766 1.13388 0
M  V30 1675 C 161.339 -2.55651 2.35074 0
M  V30 1676 C 160.293 -2.45645 3.50489 0
M  V30 1677 C 159.619 -3.84056 3.72028 0
M  V30 1678 C 160.919 -1.96302 4.84007 0
M  V30 1679 H 162.613 -0.86275 2.867 0
M  V30 1680 H 160.159 -0.413571 1.37933 0
M  V30 1681 H 162.112 -3.2886 2.63494 0
M  V30 1682 H 160.836 -2.92869 1.44552 0
M  V30 1683 H 159.495 -1.7489 3.22194 0
M  V30 1684 H 159.143 -4.18664 2.788 0
M  V30 1685 H 158.843 -3.7823 4.49684 0
M  V30 1686 H 160.367 -4.58854 4.02846 0
M  V30 1687 H 161.781 -2.59284 5.11317 0
M  V30 1688 H 160.178 -2.01429 5.65284 0
M  V30 1689 H 161.248 -0.917226 4.76146 0
M  V30 1690 N 162.591 -1.51276 -0.441967 0
M  V30 1691 C 163.819 -1.67516 -1.21434 0
M  V30 1692 C 164.234 -0.37055 -1.85128 0
M  V30 1693 O 163.591 0.650498 -1.70513 0
M  V30 1694 C 163.642 -2.78748 -2.30177 0
M  V30 1695 O 163.363 -4.04154 -1.69089 0
M  V30 1696 C 164.864 -3.06217 -3.20541 0
M  V30 1697 H 162.084 -0.562276 -0.366178 0
M  V30 1698 H 164.628 -1.97666 -0.524244 0
M  V30 1699 H 162.783 -2.5121 -2.94911 0
M  V30 1700 H 163.197 -4.65894 -2.40922 0
M  V30 1701 H 164.671 -3.8764 -3.92987 0
M  V30 1702 H 165.148 -2.18439 -3.81026 0
M  V30 1703 H 165.754 -3.35397 -2.61513 0
M  V30 1704 N 164.069 0.697108 -1.41344 0
M  V30 1705 C 165.299 1.48377 -1.43763 0
M  V30 1706 C 165.707 1.89156 -0.0408726 0
M  V30 1707 O 165.05 1.57239 0.949812 0
M  V30 1708 C 165.112 2.7781 -2.2817 0
M  V30 1709 C 164.776 2.59244 -3.76353 0
M  V30 1710 C 165.773 2.25292 -4.68551 0
M  V30 1711 C 163.458 2.74933 -4.20378 0
M  V30 1712 C 165.452 2.07264 -6.02761 0
M  V30 1713 C 163.139 2.56521 -5.54653 0
M  V30 1714 C 164.137 2.22737 -6.4566 0
M  V30 1715 O 163.825 2.04485 -7.77458 0
M  V30 1716 H 163.557 0.463842 -0.491759 0
M  V30 1717 H 166.111 0.865934 -1.86255 0
M  V30 1718 H 164.341 3.41995 -1.8049 0
M  V30 1719 H 166.03 3.39608 -2.22309 0
M  V30 1720 H 166.796 2.12787 -4.35829 0
M  V30 1721 H 162.675 3.00213 -3.49848 0
M  V30 1722 H 166.219 1.80817 -6.73759 0
M  V30 1723 H 162.116 2.68616 -5.86955 0
M  V30 1724 H 162.884 2.1926 -7.88586 0
M  V30 1725 N 165.547 1.27147 0.931209 0
M  V30 1726 C 166.963 1.04475 1.20653 0
M  V30 1727 C 167.163 -0.223885 2.00252 0
M  V30 1728 O 166.219 -0.930332 2.34736 0
M  V30 1729 C 167.532 2.28209 1.95809 0
M  V30 1730 C 169.08 2.33211 2.08762 0
M  V30 1731 C 169.555 3.56665 2.87323 0
M  V30 1732 N 171.046 3.57201 2.94892 0
M  V30 1733 C 171.781 4.49395 3.56134 0
M  V30 1734 N 171.277 5.51889 4.18796 0
M  V30 1735 N 173.07 4.37026 3.53504 0
M  V30 1736 H 165.221 2.08612 0.399333 0
M  V30 1737 H 167.484 0.917312 0.239253 0
M  V30 1738 H 167.19 3.20538 1.44736 0
M  V30 1739 H 167.064 2.33247 2.96438 0
M  V30 1740 H 169.451 1.41391 2.59023 0
M  V30 1741 H 169.532 2.32178 1.07364 0
M  V30 1742 H 169.176 4.4882 2.37746 0
M  V30 1743 H 169.106 3.54948 3.88998 0
M  V30 1744 H 171.597 2.83074 2.50354 0
M  V30 1745 H 171.91 6.18409 4.63454 0
M  V30 1746 H 170.255 5.55735 4.17353 0
M  V30 1747 H 173.446 3.56166 3.03749 0
M  V30 1748 H 173.619 5.09067 4.00942 0
M  V30 1749 N 167.025 -1.13721 1.09112 0
M  V30 1750 C 168.274 -1.84275 0.82009 0
M  V30 1751 C 168.587 -1.84253 -0.656509 0
M  V30 1752 O 169.793 -2.50668 -1.04296 0
M  V30 1753 C 168.249 -3.30825 1.41714 0
M  V30 1754 C 167.857 -3.39244 2.92605 0
M  V30 1755 C 169.601 -4.06443 1.22492 0
M  V30 1756 C 167.508 -4.80047 3.45411 0
M  V30 1757 H 166.438 -0.690387 0.30312 0
M  V30 1758 H 169.089 -1.28146 1.31343 0
M  V30 1759 H 167.471 -3.86737 0.851498 0
M  V30 1760 H 168.645 -2.93344 3.55367 0
M  V30 1761 H 166.96 -2.77088 3.10823 0
M  V30 1762 H 169.557 -5.10387 1.59402 0
M  V30 1763 H 169.9 -4.15972 0.165299 0
M  V30 1764 H 170.433 -3.56852 1.75788 0
M  V30 1765 H 167.172 -4.75709 4.50978 0
M  V30 1766 H 166.692 -5.26455 2.87411 0
M  V30 1767 H 168.371 -5.48957 3.42425 0
M  V30 1768 N 168.503 -0.877838 -1.30888 0
M  V30 1769 C 169.433 -0.35534 -2.3078 0
M  V30 1770 C 170.414 0.557994 -1.60687 0
M  V30 1771 O 171.599 0.473355 -1.88343 0
M  V30 1772 C 168.729 0.437221 -3.44537 0
M  V30 1773 C 167.683 -0.383715 -4.26276 0
M  V30 1774 C 167.009 0.535014 -5.32017 0
M  V30 1775 C 168.309 -1.62201 -4.96476 0
M  V30 1776 H 170.003 -1.19007 -2.74732 0
M  V30 1777 H 167.549 -0.573698 -1.32078 0
M  V30 1778 H 169.502 0.813334 -4.13477 0
M  V30 1779 H 168.226 1.30553 -2.99372 0
M  V30 1780 H 166.885 -0.741874 -3.59015 0
M  V30 1781 H 166.533 1.40083 -4.831 0
M  V30 1782 H 166.233 -0.0104211 -5.87599 0
M  V30 1783 H 167.757 0.907799 -6.03814 0
M  V30 1784 H 169.171 -1.31689 -5.5797 0
M  V30 1785 H 167.568 -2.10711 -5.61891 0
M  V30 1786 H 168.638 -2.37044 -4.23011 0
M  V30 1787 N 169.982 1.44106 -0.638065 0
M  V30 1788 C 171.398 1.56672 -0.304286 0
M  V30 1789 C 171.598 1.6244 1.19228 0
M  V30 1790 O 170.654 1.57121 1.9766 0
M  V30 1791 C 171.967 2.83503 -1.00231 0
M  V30 1792 C 173.515 2.97226 -0.981116 0
M  V30 1793 C 173.99 4.26868 -1.65974 0
M  V30 1794 N 175.481 4.33698 -1.62666 0
M  V30 1795 C 176.216 5.32745 -2.12063 0
M  V30 1796 N 175.712 6.38157 -2.6968 0
M  V30 1797 N 177.505 5.24299 -2.02651 0
M  V30 1798 H 169.656 1.38605 -1.60942 0
M  V30 1799 H 171.919 0.664661 -0.675965 0
M  V30 1800 H 171.625 2.85251 -2.0573 0
M  V30 1801 H 171.499 3.73251 -0.54439 0
M  V30 1802 H 173.886 2.95027 0.0654188 0
M  V30 1803 H 173.967 2.08808 -1.47759 0
M  V30 1804 H 173.611 4.29826 -2.70576 0
M  V30 1805 H 173.541 5.14156 -1.13804 0
M  V30 1806 H 176.032 3.58138 -1.20606 0
M  V30 1807 H 176.345 7.10029 -3.05087 0
M  V30 1808 H 174.69 6.38823 -2.73734 0
M  V30 1809 H 177.881 4.4086 -1.57353 0
M  V30 1810 H 178.054 6.01334 -2.41457 0
M  V30 1811 N 171.46 0.379036 1.52974 0
M  V30 1812 C 172.707 -0.206421 2.01445 0
M  V30 1813 C 173.035 -1.47668 1.26587 0
M  V30 1814 O 172.29 -1.92514 0.351675 0
M  V30 1815 C 172.589 -0.53096 3.53434 0
M  V30 1816 C 172.255 0.646546 4.46241 0
M  V30 1817 C 170.917 0.969604 4.7133 0
M  V30 1818 C 173.269 1.43479 5.01062 0
M  V30 1819 C 170.597 2.08263 5.48492 0
M  V30 1820 C 172.949 2.53834 5.7944 0
M  V30 1821 C 171.613 2.86659 6.02812 0
M  V30 1822 H 170.883 -0.0755349 0.73714 0
M  V30 1823 H 173.53 0.514271 1.84465 0
M  V30 1824 H 171.835 -1.33285 3.68432 0
M  V30 1825 H 173.532 -0.996417 3.88423 0
M  V30 1826 H 170.122 0.384734 4.2687 0
M  V30 1827 H 174.306 1.19844 4.81613 0
M  V30 1828 H 169.562 2.34078 5.64816 0
M  V30 1829 H 173.736 3.15319 6.20924 0
M  V30 1830 H 171.363 3.73026 6.62387 0
M  V30 1831 N 172.938 -1.57226 0.108567 0
M  V30 1832 C 174.349 -1.8195 -0.418464 0
M  V30 1833 C 174.7 -1.02508 -1.67292 0
M  V30 1834 O 173.825 -0.258496 -2.14851 0
M  V30 1835 C 174.42 -3.30028 -0.765979 0
M  V30 1836 C 172.979 -3.55469 -1.23769 0
M  V30 1837 C 172.126 -2.7625 -0.241106 0
M  V30 1838 H 175.077 -1.55149 0.33384 0
M  V30 1839 H 175.098 -3.44086 -1.62434 0
M  V30 1840 H 174.61 -3.87821 0.147219 0
M  V30 1841 H 172.711 -3.03022 -2.16814 0
M  V30 1842 H 172.824 -4.6408 -1.19022 0
M  V30 1843 H 171.188 -2.44133 -0.72602 0
M  V30 1844 H 171.971 -3.36797 0.665007 0
M  V30 1845 N 174.416 0.165178 -1.56732 0
M  V30 1846 C 175.662 0.877389 -1.83503 0
M  V30 1847 C 176.017 1.79602 -0.689996 0
M  V30 1848 O 175.31 1.89023 0.313205 0
M  V30 1849 C 175.504 1.70405 -3.1416 0
M  V30 1850 C 175.333 0.866961 -4.41264 0
M  V30 1851 C 174.103 0.539646 -5.0241 0
M  V30 1852 C 176.301 0.205671 -5.13889 0
M  V30 1853 N 174.283 -0.312946 -6.13102 0
M  V30 1854 C 175.654 -0.507823 -6.17917 0
M  V30 1855 C 177.709 0.124468 -4.97744 0
M  V30 1856 C 176.412 -1.29483 -7.0755 0
M  V30 1857 C 178.438 -0.649222 -5.87826 0
M  V30 1858 C 177.8 -1.35106 -6.91322 0
M  V30 1859 H 173.899 0.299477 -0.722383 0
M  V30 1860 H 176.483 0.143949 -1.94167 0
M  V30 1861 H 174.654 2.40887 -3.04677 0
M  V30 1862 H 176.386 2.35804 -3.28905 0
M  V30 1863 H 173.141 0.871176 -4.65519 0
M  V30 1864 H 173.565 -0.729731 -6.73056 0
M  V30 1865 H 178.207 0.652724 -4.17731 0
M  V30 1866 H 175.925 -1.83441 -7.87004 0
M  V30 1867 H 179.511 -0.713804 -5.77405 0
M  V30 1868 H 178.391 -1.94013 -7.59821 0
M  V30 1869 N 175.894 1.51508 0.433938 0
M  V30 1870 C 176.826 1.69266 1.54537 0
M  V30 1871 C 177.839 0.573276 1.52373 0
M  V30 1872 O 179.028 0.847698 1.57087 0
M  V30 1873 C 176.128 1.69524 2.93453 0
M  V30 1874 C 175.301 2.98101 3.20085 0
M  V30 1875 C 174.36 2.90502 4.38742 0
M  V30 1876 O 173.386 3.64442 4.3723 0
M  V30 1877 N 174.588 2.06586 5.42496 0
M  V30 1878 H 177.353 2.65145 1.39708 0
M  V30 1879 H 174.914 1.49437 0.622922 0
M  V30 1880 H 176.906 1.62004 3.70859 0
M  V30 1881 H 175.476 0.812245 3.01863 0
M  V30 1882 H 174.696 3.19464 2.30947 0
M  V30 1883 H 175.984 3.83207 3.34708 0
M  V30 1884 H 175.382 1.45896 5.46563 0
M  V30 1885 H 173.939 2.04943 6.18742 0
M  V30 1886 N 177.372 -0.689602 1.41712 0
M  V30 1887 C 178.302 -1.81577 1.46806 0
M  V30 1888 C 179.283 -1.66945 0.326105 0
M  V30 1889 O 180.468 -1.86588 0.538377 0
M  V30 1890 C 177.598 -3.19762 1.35535 0
M  V30 1891 C 176.552 -3.49107 2.47605 0
M  V30 1892 C 175.878 -4.86711 2.21397 0
M  V30 1893 C 177.178 -3.47483 3.89939 0
M  V30 1894 H 178.872 -1.7757 2.41058 0
M  V30 1895 H 176.418 -0.852887 1.16025 0
M  V30 1896 H 178.371 -3.98263 1.3771 0
M  V30 1897 H 177.095 -3.24409 0.377708 0
M  V30 1898 H 175.754 -2.72959 2.44722 0
M  V30 1899 H 175.402 -4.8799 1.21961 0
M  V30 1900 H 175.102 -5.0731 2.96497 0
M  V30 1901 H 176.626 -5.67515 2.25297 0
M  V30 1902 H 178.04 -4.1598 3.94505 0
M  V30 1903 H 176.437 -3.79615 4.64771 0
M  V30 1904 H 177.507 -2.46341 4.17665 0
M  V30 1905 N 178.85 -1.27639 -0.924453 0
M  V30 1906 C 180.096 -1.14336 -1.67497 0
M  V30 1907 C 180.429 0.309465 -1.91718 0
M  V30 1908 O 179.704 1.22608 -1.50989 0
M  V30 1909 C 179.987 -1.93096 -3.0395 0
M  V30 1910 C 179.84 -3.46381 -2.8695 0
M  V30 1911 C 181.159 -1.73798 -4.0433 0
M  V30 1912 H 178.278 -0.416728 -0.607871 0
M  V30 1913 H 180.92 -1.56832 -1.07256 0
M  V30 1914 H 179.07 -1.56982 -3.55372 0
M  V30 1915 H 180.742 -3.92343 -2.42621 0
M  V30 1916 H 178.985 -3.72557 -2.22225 0
M  V30 1917 H 179.656 -3.96735 -3.83804 0
M  V30 1918 H 182.132 -2.05293 -3.61931 0
M  V30 1919 H 181.008 -2.31294 -4.97789 0
M  V30 1920 H 181.269 -0.686725 -4.36734 0
M  V30 1921 N 180.328 1.1314 -1.09713 0
M  V30 1922 C 181.26 2.18343 -0.697056 0
M  V30 1923 C 182.273 1.60669 0.262551 0
M  V30 1924 O 183.462 1.78435 0.0481527 0
M  V30 1925 C 180.562 3.38899 -0.00684728 0
M  V30 1926 C 179.735 4.26078 -0.988741 0
M  V30 1927 C 178.794 5.25155 -0.331394 0
M  V30 1928 O 177.82 5.60701 -0.979926 0
M  V30 1929 N 179.022 5.73271 0.913261 0
M  V30 1930 H 181.787 2.5328 -1.60216 0
M  V30 1931 H 179.348 1.28491 -0.984971 0
M  V30 1932 H 181.34 4.02255 0.444191 0
M  V30 1933 H 179.91 3.02175 0.800551 0
M  V30 1934 H 179.13 3.59453 -1.61826 0
M  V30 1935 H 180.418 4.81178 -1.65364 0
M  V30 1936 H 179.816 5.46544 1.45966 0
M  V30 1937 H 178.373 6.3855 1.30757 0
M  V30 1938 N 181.806 0.884767 1.30421 0
M  V30 1939 C 182.716 0.355398 2.31892 0
M  V30 1940 C 183.732 -0.542261 1.65335 0
M  V30 1941 O 184.908 -0.435432 1.96637 0
M  V30 1942 C 181.973 -0.421661 3.44126 0
M  V30 1943 C 181.034 0.505727 4.26311 0
M  V30 1944 C 180.267 -0.234343 5.33185 0
M  V30 1945 O 180.49 -1.46045 5.51386 0
M  V30 1946 O 179.424 0.415443 6.00465 0
M  V30 1947 H 183.25 1.19685 2.79122 0
M  V30 1948 H 180.835 0.648596 1.34587 0
M  V30 1949 H 182.717 -0.861641 4.12497 0
M  V30 1950 H 181.392 -1.23942 2.99032 0
M  V30 1951 H 180.299 0.994513 3.60639 0
M  V30 1952 H 181.632 1.28948 4.75009 0
M  V30 1953 N 183.284 -1.43765 0.645699 0
M  V30 1954 C 184.216 -2.29027 -0.0890605 0
M  V30 1955 C 185.229 -1.42093 -0.794563 0
M  V30 1956 O 186.418 -1.66104 -0.653575 0
M  V30 1957 C 183.518 -3.18831 -1.14891 0
M  V30 1958 C 182.691 -4.34261 -0.523043 0
M  V30 1959 C 181.75 -5.04994 -1.47878 0
M  V30 1960 O 180.776 -5.6052 -0.990277 0
M  V30 1961 N 181.978 -5.07795 -2.81291 0
M  V30 1962 H 184.743 -2.92727 0.64272 0
M  V30 1963 H 182.304 -1.54373 0.487924 0
M  V30 1964 H 184.296 -3.63015 -1.78892 0
M  V30 1965 H 182.866 -2.56782 -1.78275 0
M  V30 1966 H 182.086 -3.93088 0.295896 0
M  V30 1967 H 183.374 -5.08728 -0.0858147 0
M  V30 1968 H 182.772 -4.64042 -3.23546 0
M  V30 1969 H 181.329 -5.55721 -3.40614 0
M  V30 1970 N 184.763 -0.387143 -1.52771 0
M  V30 1971 C 186.009 0.196025 -2.0185 0
M  V30 1972 C 186.342 1.46641 -1.27319 0
M  V30 1973 O 185.617 1.90889 -0.373032 0
M  V30 1974 C 185.9 0.466136 -3.5707 0
M  V30 1975 C 185.753 -0.819385 -4.42274 0
M  V30 1976 C 187.072 1.25768 -4.21747 0
M  V30 1977 H 184.191 0.0697708 -0.73369 0
M  V30 1978 H 186.833 -0.516286 -1.82851 0
M  V30 1979 H 184.983 1.07293 -3.7339 0
M  V30 1980 H 186.655 -1.4563 -4.37709 0
M  V30 1981 H 184.898 -1.43517 -4.09372 0
M  V30 1982 H 185.569 -0.585065 -5.48891 0
M  V30 1983 H 188.045 0.744167 -4.09391 0
M  V30 1984 H 186.921 1.41541 -5.30337 0
M  V30 1985 H 187.182 2.27228 -3.79236 0
M  V30 1986 N 186.241 1.57166 -0.116904 0
M  V30 1987 C 187.657 1.5779 0.239693 0
M  V30 1988 C 187.857 1.1295 1.66867 0
M  V30 1989 O 186.913 0.81592 2.38954 0
M  V30 1990 C 188.226 3.00699 0.00828202 0
M  V30 1991 C 189.774 3.12912 0.0743438 0
M  V30 1992 C 190.249 4.57817 -0.129348 0
M  V30 1993 N 191.74 4.63139 -0.075247 0
M  V30 1994 C 192.475 5.73023 -0.207788 0
M  V30 1995 N 191.971 6.91665 -0.396382 0
M  V30 1996 N 193.764 5.61906 -0.14751 0
M  V30 1997 H 185.915 1.84615 -1.05029 0
M  V30 1998 H 188.178 0.85311 -0.41341 0
M  V30 1999 H 187.884 3.37784 -0.979531 0
M  V30 2000 H 187.758 3.69848 0.741077 0
M  V30 2001 H 190.145 2.75686 1.05268 0
M  V30 2002 H 190.226 2.4631 -0.690297 0
M  V30 2003 H 189.87 4.95742 -1.10465 0
M  V30 2004 H 189.8 5.22507 0.655253 0
M  V30 2005 H 192.291 3.7784 0.0670898 0
M  V30 2006 H 192.604 7.71255 -0.488437 0
M  V30 2007 H 190.949 6.93654 -0.432329 0
M  V30 2008 H 194.14 4.681 -0.00115036 0
M  V30 2009 H 194.313 6.47501 -0.254247 0
M  V30 2010 N 187.719 -0.156864 1.56817 0
M  V30 2011 C 188.651 -1.21883 1.94106 0
M  V30 2012 C 189.664 -1.3971 0.835754 0
M  V30 2013 O 190.853 -1.39457 1.11418 0
M  V30 2014 C 187.953 -2.58527 2.19127 0
M  V30 2015 C 187.126 -2.61809 3.50393 0
M  V30 2016 C 186.185 -3.7992 3.64071 0
M  V30 2017 O 185.211 -3.65249 4.36557 0
M  V30 2018 N 186.413 -4.96973 2.99997 0
M  V30 2019 H 189.178 -0.901974 2.85805 0
M  V30 2020 H 186.739 -0.346513 1.58148 0
M  V30 2021 H 188.731 -3.36034 2.25529 0
M  V30 2022 H 187.301 -2.82545 1.33742 0
M  V30 2023 H 186.521 -1.7029 3.5552 0
M  V30 2024 H 187.809 -2.61024 4.36742 0
M  V30 2025 H 187.207 -5.11794 2.41004 0
M  V30 2026 H 185.764 -5.7229 3.11974 0
M  V30 2027 N 189.197 -1.51736 -0.425897 0
M  V30 2028 C 190.425 -1.68794 -1.1965 0
M  V30 2029 C 190.84 -0.390164 -1.84725 0
M  V30 2030 O 190.197 0.632376 -1.71194 0
M  V30 2031 C 190.248 -2.81174 -2.27208 0
M  V30 2032 O 189.969 -4.05925 -1.64793 0
M  V30 2033 C 191.47 -3.09599 -3.17275 0
M  V30 2034 H 188.69 -0.566128 -0.360194 0
M  V30 2035 H 191.234 -1.98211 -0.503249 0
M  V30 2036 H 189.389 -2.54324 -2.9223 0
M  V30 2037 H 189.803 -4.68423 -2.35967 0
M  V30 2038 H 191.277 -3.91786 -3.88854 0
M  V30 2039 H 191.754 -2.22468 -3.78688 0
M  V30 2040 H 192.36 -3.38151 -2.57941 0
M  V30 2041 N 190.675 0.682077 -1.42076 0
M  V30 2042 C 191.608 1.80666 -1.3941 0
M  V30 2043 C 192.586 1.60518 -0.25939 0
M  V30 2044 O 193.77 1.83088 -0.448456 0
M  V30 2045 C 190.897 3.17556 -1.17796 0
M  V30 2046 C 189.943 3.56468 -2.34164 0
M  V30 2047 S 190.776 3.59729 -3.96681 0
M  V30 2048 C 191.932 4.99323 -3.77395 0
M  V30 2049 H 192.165 1.82652 -2.34575 0
M  V30 2050 H 189.698 0.852062 -1.2876 0
M  V30 2051 H 191.656 3.96575 -1.06012 0
M  V30 2052 H 190.317 3.13164 -0.242279 0
M  V30 2053 H 189.51 4.5595 -2.1477 0
M  V30 2054 H 189.112 2.84792 -2.42425 0
M  V30 2055 H 191.404 5.87202 -3.37935 0
M  V30 2056 H 192.347 5.23763 -4.76527 0
M  V30 2057 H 192.755 4.71498 -3.10403 0
M  V30 2058 N 192.153 1.28127 0.917671 0
M  V30 2059 C 193.116 1.11744 2.00115 0
M  V30 2060 C 194.116 0.0583052 1.60694 0
M  V30 2061 O 195.306 0.303755 1.71531 0
M  V30 2062 C 192.438 0.704862 3.33533 0
M  V30 2063 H 193.631 2.07966 2.16079 0
M  V30 2064 H 191.184 1.11058 1.09981 0
M  V30 2065 H 191.919 -0.258299 3.2327 0
M  V30 2066 H 191.704 1.4699 3.63505 0
M  V30 2067 H 193.194 0.612768 4.1308 0
M  V30 2068 N 193.631 -1.12557 1.10312 0
M  V30 2069 C 194.541 -2.21841 0.763142 0
M  V30 2070 C 195.557 -1.72354 -0.238801 0
M  V30 2071 O 196.733 -2.01249 -0.0778746 0
M  V30 2072 C 193.798 -3.46131 0.198632 0
M  V30 2073 C 192.859 -4.10464 1.25769 0
M  V30 2074 C 192.092 -5.28821 0.72002 0
M  V30 2075 O 192.315 -5.6859 -0.453993 0
M  V30 2076 O 191.249 -5.83437 1.47935 0
M  V30 2077 H 195.075 -2.53312 1.67532 0
M  V30 2078 H 192.66 -1.20867 0.878157 0
M  V30 2079 H 194.542 -4.2125 -0.112401 0
M  V30 2080 H 193.217 -3.16338 -0.686419 0
M  V30 2081 H 192.124 -3.3713 1.62156 0
M  V30 2082 H 193.457 -4.44408 2.11571 0
M  V30 2083 N 195.109 -0.891671 -1.2995 0
M  V30 2084 C 196.072 -0.36828 -2.26222 0
M  V30 2085 C 197.072 0.493014 -1.53056 0
M  V30 2086 O 198.262 0.299213 -1.71611 0
M  V30 2087 C 195.394 0.47442 -3.37583 0
M  V30 2088 H 196.587 -1.21844 -2.74033 0
M  V30 2089 H 194.14 -0.669107 -1.41254 0
M  V30 2090 H 194.875 1.34489 -2.95099 0
M  V30 2091 H 194.66 -0.142615 -3.91841 0
M  V30 2092 H 196.15 0.83218 -4.09224 0
M  V30 2093 N 196.587 1.43421 -0.653314 0
M  V30 2094 C 197.517 2.33487 0.0246656 0
M  V30 2095 C 198.498 1.49475 0.811863 0
M  V30 2096 O 199.683 1.78139 0.773322 0
M  V30 2097 C 196.813 3.32841 0.99166 0
M  V30 2098 C 195.767 4.26842 0.314568 0
M  V30 2099 C 195.093 5.16236 1.39302 0
M  V30 2100 C 196.393 5.16243 -0.793095 0
M  V30 2101 H 198.087 2.90427 -0.727481 0
M  V30 2102 H 195.633 1.39649 -0.351287 0
M  V30 2103 H 197.586 3.94747 1.47487 0
M  V30 2104 H 196.31 2.74158 1.77497 0
M  V30 2105 H 194.969 3.663 -0.148199 0
M  V30 2106 H 194.617 4.53891 2.16776 0
M  V30 2107 H 194.317 5.79948 0.945223 0
M  V30 2108 H 195.841 5.81015 1.87759 0
M  V30 2109 H 197.255 5.71958 -0.392039 0
M  V30 2110 H 195.652 5.88676 -1.16536 0
M  V30 2111 H 196.722 4.55927 -1.65103 0
M  V30 2112 N 198.065 0.39524 1.52563 0
M  V30 2113 C 199.012 -0.437036 2.26624 0
M  V30 2114 C 199.982 -1.05281 1.28472 0
M  V30 2115 O 201.167 -1.07971 1.57311 0
M  V30 2116 C 198.307 -1.55524 3.08069 0
M  V30 2117 C 197.42 -0.961745 4.21158 0
M  V30 2118 C 196.555 -2.05149 4.89987 0
M  V30 2119 C 195.594 -1.4342 5.95061 0
M  V30 2120 N 194.731 -2.46351 6.57462 0
M  V30 2121 H 199.571 0.200976 2.97322 0
M  V30 2122 H 197.108 0.110944 1.46681 0
M  V30 2123 H 199.066 -2.21437 3.53584 0
M  V30 2124 H 197.696 -2.16348 2.3957 0
M  V30 2125 H 196.748 -0.192048 3.79915 0
M  V30 2126 H 198.06 -0.470701 4.96574 0
M  V30 2127 H 197.214 -2.78819 5.38837 0
M  V30 2128 H 195.953 -2.57615 4.14109 0
M  V30 2129 H 194.958 -0.682774 5.45544 0
M  V30 2130 H 196.183 -0.917416 6.72875 0
M  V30 2131 H 194.129 -2.97975 5.8442 0
M  V30 2132 H 194.046 -2.02019 7.28508 0
M  V30 2133 H 195.314 -3.19633 7.10954 0
M  V30 2134 N 199.544 -1.57102 0.125237 0
M  V30 2135 C 200.79 -1.95697 -0.532035 0
M  V30 2136 C 201.123 -1.009 -1.6593 0
M  V30 2137 O 200.398 -0.047347 -1.94442 0
M  V30 2138 C 200.681 -3.44181 -1.05884 0
M  V30 2139 C 200.534 -4.49752 0.0654392 0
M  V30 2140 C 201.853 -3.94655 -1.9477 0
M  V30 2141 H 198.972 -0.711571 -0.191925 0
M  V30 2142 H 201.614 -1.88923 0.20206 0
M  V30 2143 H 199.764 -3.50085 -1.68442 0
M  V30 2144 H 201.436 -4.55943 0.700982 0
M  V30 2145 H 199.679 -4.27653 0.727709 0
M  V30 2146 H 200.35 -5.50924 -0.344505 0
M  V30 2147 H 202.826 -3.91094 -1.42074 0
M  V30 2148 H 201.702 -4.99057 -2.28546 0
M  V30 2149 H 201.963 -3.35718 -2.87656 0
M  V30 2150 N 201.022 0.148545 -1.56898 0
M  V30 2151 C 202.268 0.857877 -1.84424 0
M  V30 2152 C 202.623 1.7886 -0.709006 0
M  V30 2153 O 201.916 1.89344 0.293139 0
M  V30 2154 C 202.11 1.67064 -3.1595 0
M  V30 2155 C 201.939 0.82011 -4.42159 0
M  V30 2156 C 200.709 0.486328 -5.02954 0
M  V30 2157 C 202.907 0.151155 -5.14078 0
M  V30 2158 N 200.889 -0.377956 -6.12735 0
M  V30 2159 C 202.26 -0.573333 -6.17343 0
M  V30 2160 C 204.315 0.0716685 -4.97848 0
M  V30 2161 C 203.018 -1.3698 -7.06137 0
M  V30 2162 C 205.044 -0.711532 -5.87104 0
M  V30 2163 C 204.406 -1.42431 -6.8985 0
M  V30 2164 H 200.505 0.291798 -0.725519 0
M  V30 2165 H 203.089 0.123347 -1.94309 0
M  V30 2166 H 201.26 2.37642 -3.07215 0
M  V30 2167 H 202.992 2.32302 -3.31388 0
M  V30 2168 H 199.747 0.821753 -4.66416 0
M  V30 2169 H 200.171 -0.801077 -6.72244 0
M  V30 2170 H 204.813 0.608381 -4.184 0
M  V30 2171 H 202.531 -1.91778 -7.85014 0
M  V30 2172 H 206.117 -0.775005 -5.76615 0
M  V30 2173 H 204.997 -2.02061 -7.57721 0
M  V30 2174 N 202.5 1.5196 0.417844 0
M  V30 2175 C 203.725 1.69717 1.1921 0
M  V30 2176 C 204.15 0.402148 1.83751 0
M  V30 2177 O 203.508 -0.639593 1.69643 0
M  V30 2178 C 203.556 2.82794 2.2374 0
M  V30 2179 O 202.66 2.47756 3.29683 0
M  V30 2180 H 202.001 0.565263 0.348387 0
M  V30 2181 H 204.531 1.98621 0.490985 0
M  V30 2182 H 204.541 3.07452 2.68212 0
M  V30 2183 H 203.216 3.76756 1.76146 0
M  V30 2184 H 201.793 2.33739 2.90552 0
M  V30 2185 N 203.978 -0.674533 1.42435 0
M  V30 2186 C 205.255 -1.4305 1.33402 0
M  V30 2187 C 205.635 -2.11081 -0.0284674 0
M  V30 2188 O 204.983 -2.03257 -1.04397 0
M  V30 2189 C 205.193 -2.43272 2.50239 0
M  V30 2190 C 206.541 -3.07907 2.92367 0
M  V30 2191 O 207.565 -2.53599 2.50132 0
M  V30 2192 O 206.424 -4.0632 3.65467 0
M  V30 2193 H 203.518 -0.638076 0.526106 0
M  V30 2194 H 206.064 -0.703235 1.54443 0
M  V30 2195 H 204.836 -1.91803 3.41068 0
M  V30 2196 H 204.459 -3.23479 2.31186 0
M  V30 2197 N 205.456 -1.28612 -0.910864 0
M  V30 2198 C 206.702 -1.16106 -1.66274 0
M  V30 2199 C 207.035 0.289113 -1.92036 0
M  V30 2200 O 206.31 1.21 -1.52281 0
M  V30 2201 C 206.593 -1.96309 -3.01885 0
M  V30 2202 C 206.446 -3.49405 -2.8326 0
M  V30 2203 C 207.765 -1.78076 -4.02463 0
M  V30 2204 H 204.884 -0.423152 -0.603417 0
M  V30 2205 H 207.526 -1.57961 -1.05586 0
M  V30 2206 H 205.676 -1.60742 -3.53687 0
M  V30 2207 H 207.348 -3.94894 -2.38446 0
M  V30 2208 H 205.591 -3.74893 -2.18261 0
M  V30 2209 H 206.262 -4.00784 -3.79574 0
M  V30 2210 H 208.738 -2.0912 -3.59733 0
M  V30 2211 H 207.614 -2.36561 -4.95308 0
M  V30 2212 H 207.875 -0.733008 -4.35981 0
M  V30 2213 N 206.934 1.1197 -1.10907 0
M  V30 2214 C 208.162 1.87402 -0.876824 0
M  V30 2215 C 208.577 1.79894 0.573025 0
M  V30 2216 O 207.934 1.17629 1.39534 0
M  V30 2217 C 207.985 3.36428 -1.32282 0
M  V30 2218 O 207.706 3.43765 -2.71582 0
M  V30 2219 C 209.207 4.28783 -1.12518 0
M  V30 2220 H 206.427 0.592793 -0.314384 0
M  V30 2221 H 208.971 1.41649 -1.47499 0
M  V30 2222 H 207.126 3.79706 -0.768229 0
M  V30 2223 H 207.54 4.3652 -2.90776 0
M  V30 2224 H 209.014 5.31613 -1.48633 0
M  V30 2225 H 209.491 4.39153 -0.0642394 0
M  V30 2226 H 210.097 3.91291 -1.66648 0
M  V30 2227 N 208.412 0.89855 1.29475 0
M  V30 2228 C 209.823 0.572537 1.77705 0
M  V30 2229 C 210.174 -0.911778 1.73727 0
M  V30 2230 O 209.299 -1.71288 1.32247 0
M  V30 2231 C 209.894 1.03252 3.22683 0
M  V30 2232 C 208.453 0.757687 3.68695 0
M  V30 2233 C 207.6 1.20787 2.49612 0
M  V30 2234 H 210.551 1.08139 1.16153 0
M  V30 2235 H 210.572 0.367307 3.78723 0
M  V30 2236 H 210.084 2.11285 3.25546 0
M  V30 2237 H 208.185 -0.310079 3.71308 0
M  V30 2238 H 208.298 1.35476 4.59547 0
M  V30 2239 H 206.662 0.626888 2.46865 0
M  V30 2240 H 207.445 2.29622 2.55203 0
M  V30 2241 N 209.89 -1.43072 0.660911 0
M  V30 2242 C 210.82 -2.33497 -0.0122829 0
M  V30 2243 C 211.801 -1.49903 -0.803925 0
M  V30 2244 O 212.986 -1.78546 -0.763864 0
M  V30 2245 C 210.116 -3.33363 -0.973994 0
M  V30 2246 C 209.07 -4.27003 -0.291928 0
M  V30 2247 C 208.396 -5.16967 -1.36562 0
M  V30 2248 C 209.696 -5.15816 0.820462 0
M  V30 2249 H 211.39 -2.90038 0.742873 0
M  V30 2250 H 208.936 -1.39461 0.358688 0
M  V30 2251 H 210.889 -3.95524 -1.45392 0
M  V30 2252 H 209.613 -2.75095 -1.7604 0
M  V30 2253 H 208.272 -3.66217 0.167623 0
M  V30 2254 H 207.92 -4.55034 -2.14366 0
M  V30 2255 H 207.62 -5.80441 -0.914454 0
M  V30 2256 H 209.144 -5.82003 -1.84675 0
M  V30 2257 H 210.558 -5.71742 0.422366 0
M  V30 2258 H 208.955 -5.8805 1.19656 0
M  V30 2259 H 210.025 -4.55045 1.67518 0
M  V30 2260 N 211.368 -0.403325 -1.52352 0
M  V30 2261 C 212.596 0.174012 -2.06167 0
M  V30 2262 C 213.011 1.39347 -1.27388 0
M  V30 2263 O 212.368 1.79597 -0.324201 0
M  V30 2264 C 212.419 0.530223 -3.5759 0
M  V30 2265 O 212.14 -0.640806 -4.33388 0
M  V30 2266 C 213.641 1.16192 -4.27802 0
M  V30 2267 H 210.861 0.0229464 -0.670608 0
M  V30 2268 H 213.405 -0.572604 -1.9632 0
M  V30 2269 H 211.56 1.22673 -3.67464 0
M  V30 2270 H 211.974 -0.344851 -5.23365 0
M  V30 2271 H 213.448 1.36141 -5.34948 0
M  V30 2272 H 213.925 2.13335 -3.83907 0
M  V30 2273 H 214.531 0.505775 -4.22282 0
M  V30 2274 N 212.846 1.57033 -0.133567 0
M  V30 2275 C 214.093 1.95686 0.520877 0
M  V30 2276 C 214.421 1.0177 1.6575 0
M  V30 2277 O 213.676 0.0443195 1.9565 0
M  V30 2278 C 213.975 3.40674 1.08057 0
M  V30 2279 C 213.641 4.50855 0.0637899 0
M  V30 2280 C 212.303 4.80716 -0.215757 0
M  V30 2281 C 214.655 5.17398 -0.62835 0
M  V30 2282 C 211.983 5.74433 -1.19348 0
M  V30 2283 C 214.335 6.12167 -1.5948 0
M  V30 2284 C 212.999 6.40414 -1.88218 0
M  V30 2285 H 212.269 0.716067 0.190602 0
M  V30 2286 H 214.916 1.9026 -0.217556 0
M  V30 2287 H 213.221 3.42865 1.89606 0
M  V30 2288 H 214.918 3.67902 1.59529 0
M  V30 2289 H 211.508 4.27605 0.291855 0
M  V30 2290 H 215.692 4.94472 -0.425562 0
M  V30 2291 H 210.948 5.94616 -1.42272 0
M  V30 2292 H 215.122 6.6281 -2.13671 0
M  V30 2293 H 212.749 7.12838 -2.64133 0
M  V30 2294 N 214.325 -0.140222 1.56975 0
M  V30 2295 C 215.553 -0.866437 1.87884 0
M  V30 2296 C 215.968 -1.74428 0.722517 0
M  V30 2297 O 215.325 -1.79891 -0.30749 0
M  V30 2298 C 215.376 -1.71753 3.18093 0
M  V30 2299 O 215.097 -0.875056 4.29272 0
M  V30 2300 C 216.598 -2.55074 3.62563 0
M  V30 2301 H 213.818 -0.25019 0.622612 0
M  V30 2302 H 216.362 -0.130977 2.0408 0
M  V30 2303 H 214.517 -2.40598 3.03631 0
M  V30 2304 H 214.931 -1.46002 5.03769 0
M  V30 2305 H 216.405 -3.10356 4.5649 0
M  V30 2306 H 216.882 -3.31434 2.88181 0
M  V30 2307 H 217.488 -1.91509 3.79743 0
M  V30 2308 N 215.803 -1.52179 -0.40978 0
M  V30 2309 C 216.713 -1.78364 -1.52392 0
M  V30 2310 C 217.729 -0.669183 -1.60617 0
M  V30 2311 O 218.905 -0.954518 -1.77344 0
M  V30 2312 C 215.97 -1.92822 -2.88133 0
M  V30 2313 C 215.031 -3.16725 -2.898 0
M  V30 2314 C 214.264 -3.30483 -4.19067 0
M  V30 2315 O 214.487 -2.49522 -5.12928 0
M  V30 2316 O 213.421 -4.2363 -4.27576 0
M  V30 2317 H 217.247 -2.72931 -1.33201 0
M  V30 2318 H 214.832 -1.37016 -0.59557 0
M  V30 2319 H 216.714 -2.04157 -3.68643 0
M  V30 2320 H 215.389 -1.01444 -3.07393 0
M  V30 2321 H 214.296 -3.10848 -2.08146 0
M  V30 2322 H 215.629 -4.07881 -2.75489 0
M  V30 2323 N 217.281 0.66697 -1.42791 0
M  V30 2324 C 218.527 1.4291 -1.43891 0
M  V30 2325 C 218.86 1.94114 -0.0578972 0
M  V30 2326 O 218.135 1.71414 0.91911 0
M  V30 2327 C 218.418 2.62049 -2.46987 0
M  V30 2328 C 218.271 2.16426 -3.94309 0
M  V30 2329 C 219.59 3.64266 -2.46978 0
M  V30 2330 H 216.709 0.518306 -0.523954 0
M  V30 2331 H 219.351 0.757321 -1.74255 0
M  V30 2332 H 217.501 3.19361 -2.21225 0
M  V30 2333 H 219.173 1.64221 -4.31079 0
M  V30 2334 H 217.416 1.47925 -4.078 0
M  V30 2335 H 218.087 3.02038 -4.62036 0
M  V30 2336 H 220.563 3.16686 -2.69906 0
M  V30 2337 H 219.439 4.45196 -3.21079 0
M  V30 2338 H 219.7 4.15927 -1.49857 0
M  V30 2339 N 218.759 1.29093 0.90403 0
M  V30 2340 C 219.709 1.10482 1.99443 0
M  V30 2341 C 220.693 0.0255401 1.6088 0
M  V30 2342 O 221.885 0.24677 1.75271 0
M  V30 2343 C 219.014 0.778882 3.34348 0
M  V30 2344 C 218.1 1.89749 3.79284 0
M  V30 2345 N 218.491 3.14045 3.96497 0
M  V30 2346 C 216.789 1.78955 4.08523 0
M  V30 2347 C 217.49 3.86996 4.34292 0
M  V30 2348 N 216.466 3.14909 4.43095 0
M  V30 2349 H 220.268 2.04778 2.10815 0
M  V30 2350 H 217.782 1.20155 1.09255 0
M  V30 2351 H 219.779 0.62661 4.12164 0
M  V30 2352 H 218.439 -0.156205 3.24324 0
M  V30 2353 H 219.45 3.49548 3.82148 0
M  V30 2354 H 216.127 0.926886 4.07081 0
M  V30 2355 H 217.517 4.93941 4.55491 0
M  V30 2356 N 220.237 -1.11381 1.11499 0
M  V30 2357 C 221.147 -2.21019 0.786628 0
M  V30 2358 C 222.163 -1.72597 -0.220507 0
M  V30 2359 O 223.339 -2.01321 -0.0565251 0
M  V30 2360 C 220.404 -3.459 0.235333 0
M  V30 2361 C 219.465 -4.09107 1.30115 0
M  V30 2362 C 218.698 -5.28027 0.776068 0
M  V30 2363 O 218.921 -5.6904 -0.393661 0
M  V30 2364 O 217.855 -5.81835 1.54114 0
M  V30 2365 H 221.681 -2.51521 1.70209 0
M  V30 2366 H 219.266 -1.19928 0.890928 0
M  V30 2367 H 221.148 -4.21346 -0.067715 0
M  V30 2368 H 219.823 -3.17049 -0.652828 0
M  V30 2369 H 218.73 -3.35391 1.65722 0
M  V30 2370 H 220.063 -4.42139 2.16273 0
M  V30 2371 N 221.715 -0.905404 -1.28997 0
M  V30 2372 C 222.963 -0.533192 -1.9494 0
M  V30 2373 C 223.284 0.924618 -1.71685 0
M  V30 2374 O 222.554 1.65268 -1.05183 0
M  V30 2375 H 221.134 -0.194194 -0.721317 0
M  V30 2376 H 223.796 -1.15294 -1.57141 0
M  V30 2377 H 222.892 -0.72059 -3.03667 0
M  V30 2378 N 223.193 1.4272 -0.668489 0
M  V30 2379 C 224.609 1.55992 -0.33745 0
M  V30 2380 C 224.809 1.64933 1.15756 0
M  V30 2381 O 223.865 1.61278 1.94282 0
M  V30 2382 C 225.178 2.81314 -1.06222 0
M  V30 2383 C 226.726 2.95078 -1.04394 0
M  V30 2384 C 227.201 4.23252 -1.74991 0
M  V30 2385 N 228.692 4.3015 -1.71829 0
M  V30 2386 C 229.427 5.28127 -2.23315 0
M  V30 2387 N 228.923 6.32293 -2.83156 0
M  V30 2388 N 230.716 5.19882 -2.13726 0
M  V30 2389 H 222.867 1.3516 -1.63846 0
M  V30 2390 H 225.13 0.650174 -0.689912 0
M  V30 2391 H 224.836 2.80823 -2.11734 0
M  V30 2392 H 224.71 3.72012 -0.62344 0
M  V30 2393 H 227.097 2.951 0.0028244 0
M  V30 2394 H 227.178 2.05627 -1.52155 0
M  V30 2395 H 226.822 4.2399 -2.79633 0
M  V30 2396 H 226.752 5.11626 -1.24685 0
M  V30 2397 H 229.243 3.55499 -1.28175 0
M  V30 2398 H 229.556 7.03398 -3.20079 0
M  V30 2399 H 227.901 6.32873 -2.87223 0
M  V30 2400 H 231.092 4.37423 -1.66669 0
M  V30 2401 H 231.265 5.96077 -2.54158 0
M  V30 2402 N 224.671 0.411399 1.52136 0
M  V30 2403 C 225.634 -0.401089 2.25663 0
M  V30 2404 C 226.634 -0.971732 1.28117 0
M  V30 2405 O 227.824 -0.850254 1.52041 0
M  V30 2406 C 224.956 -1.56483 3.02863 0
M  V30 2407 H 226.149 0.24295 2.98914 0
M  V30 2408 H 223.702 0.163968 1.55438 0
M  V30 2409 H 224.437 -2.24567 2.33967 0
M  V30 2410 H 224.222 -1.16211 3.74483 0
M  V30 2411 H 225.712 -2.13951 3.58629 0
M  V30 2412 N 226.149 -1.5696 0.141893 0
M  V30 2413 C 227.426 -1.87553 -0.555281 0
M  V30 2414 C 227.806 -1.04699 -1.83306 0
M  V30 2415 O 227.154 -0.132346 -2.28116 0
M  V30 2416 C 227.364 -3.39093 -0.825664 0
M  V30 2417 C 228.712 -4.08199 -1.16869 0
M  V30 2418 O 229.736 -3.44242 -0.915185 0
M  V30 2419 O 228.595 -5.21139 -1.6455 0
M  V30 2420 H 225.689 -0.777188 -0.282679 0
M  V30 2421 H 228.235 -1.68763 0.17812 0
M  V30 2422 H 227.007 -3.91221 0.0788633 0
M  V30 2423 H 226.63 -3.63393 -1.61343 0
M  V30 2424 N 227.627 0.131896 -1.57047 0
M  V30 2425 C 228.876 0.84044 -1.83356 0
M  V30 2426 C 229.189 1.81646 -0.725535 0
M  V30 2427 O 230.395 2.57025 -0.874659 0
M  V30 2428 C 228.851 1.54528 -3.25037 0
M  V30 2429 C 228.459 0.610902 -4.43815 0
M  V30 2430 C 230.203 2.23972 -3.60606 0
M  V30 2431 C 228.11 1.31823 -5.76521 0
M  V30 2432 H 227.04 0.317599 -0.683847 0
M  V30 2433 H 229.691 0.0931561 -1.83263 0
M  V30 2434 H 228.073 2.33873 -3.19561 0
M  V30 2435 H 229.247 -0.148407 -4.60561 0
M  V30 2436 H 227.562 0.0241016 -4.16393 0
M  V30 2437 H 230.159 2.77558 -4.57018 0
M  V30 2438 H 230.502 3.01173 -2.87403 0
M  V30 2439 H 231.035 1.51529 -3.6781 0
M  V30 2440 H 227.774 0.587771 -6.52859 0
M  V30 2441 H 227.294 2.04987 -5.63685 0
M  V30 2442 H 228.973 1.855 -6.19838 0
M  V30 2443 N 229.106 1.52395 0.401703 0
M  V30 2444 C 230.039 1.70999 1.51111 0
M  V30 2445 C 231.017 0.55765 1.52738 0
M  V30 2446 O 232.201 0.785912 1.71335 0
M  V30 2447 C 229.328 1.75607 2.8962 0
M  V30 2448 C 228.374 2.97227 3.05873 0
M  V30 2449 S 229.207 4.57439 2.78405 0
M  V30 2450 C 230.363 4.64844 4.19131 0
M  V30 2451 H 230.596 2.6483 1.35102 0
M  V30 2452 H 228.129 1.42527 0.593762 0
M  V30 2453 H 230.087 1.78947 3.69443 0
M  V30 2454 H 228.748 0.828914 3.02965 0
M  V30 2455 H 227.941 2.96955 4.07227 0
M  V30 2456 H 227.543 2.91813 2.33925 0
M  V30 2457 H 229.835 4.42677 5.12877 0
M  V30 2458 H 230.778 5.66807 4.24424 0
M  V30 2459 H 231.186 3.93804 4.04448 0
M  V30 2460 N 230.584 -0.659388 1.43143 0
M  V30 2461 C 231.833 -1.41518 1.43721 0
M  V30 2462 C 232.146 -1.95499 0.0628176 0
M  V30 2463 O 233.352 -2.71446 -0.0539683 0
M  V30 2464 C 231.808 -2.5608 2.52885 0
M  V30 2465 C 231.416 -2.08733 3.96402 0
M  V30 2466 C 233.16 -3.3349 2.62649 0
M  V30 2467 C 231.067 -3.20469 4.97045 0
M  V30 2468 H 229.997 -0.531705 0.534608 0
M  V30 2469 H 232.648 -0.712343 1.69109 0
M  V30 2470 H 231.03 -3.28805 2.20688 0
M  V30 2471 H 232.204 -1.43059 4.3803 0
M  V30 2472 H 230.519 -1.44219 3.90627 0
M  V30 2473 H 233.116 -4.16734 3.35017 0
M  V30 2474 H 233.459 -3.8111 1.67513 0
M  V30 2475 H 233.992 -2.67842 2.94118 0
M  V30 2476 H 230.731 -2.77824 5.93712 0
M  V30 2477 H 230.251 -3.84874 4.60034 0
M  V30 2478 H 231.93 -3.85698 5.19467 0
M  V30 2479 N 232.062 -1.29571 -0.897171 0
M  V30 2480 C 233.339 -1.08365 -1.62839 0
M  V30 2481 C 233.719 0.371331 -2.07808 0
M  V30 2482 O 233.067 1.3606 -1.83576 0
M  V30 2483 C 233.277 -2.0735 -2.80726 0
M  V30 2484 C 234.625 -2.38406 -3.51351 0
M  V30 2485 O 235.649 -2.05564 -2.90898 0
M  V30 2486 O 234.508 -2.9453 -4.60341 0
M  V30 2487 H 231.602 -0.415345 -0.715134 0
M  V30 2488 H 234.148 -1.40952 -0.945018 0
M  V30 2489 H 232.92 -3.05339 -2.44711 0
M  V30 2490 H 232.543 -1.75507 -3.56767 0
M  V30 2491 N 233.54 1.10788 -1.12088 0
M  V30 2492 C 234.787 1.82671 -0.873931 0
M  V30 2493 C 235.115 1.85004 0.600311 0
M  V30 2494 O 234.37 1.30365 1.45957 0
M  V30 2495 C 234.669 3.29294 -1.38926 0
M  V30 2496 C 234.335 3.47113 -2.87791 0
M  V30 2497 C 232.997 3.51684 -3.28439 0
M  V30 2498 C 235.349 3.52808 -3.83635 0
M  V30 2499 C 232.677 3.59513 -4.63646 0
M  V30 2500 C 235.029 3.62169 -5.18668 0
M  V30 2501 C 233.693 3.65003 -5.58864 0
M  V30 2502 H 232.963 0.668441 -0.319794 0
M  V30 2503 H 235.61 1.30613 -1.40045 0
M  V30 2504 H 233.915 3.83894 -0.783122 0
M  V30 2505 H 235.612 3.83416 -1.17443 0
M  V30 2506 H 232.202 3.4423 -2.5535 0
M  V30 2507 H 236.386 3.4853 -3.53328 0
M  V30 2508 H 231.642 3.59987 -4.94185 0
M  V30 2509 H 235.816 3.6552 -5.92763 0
M  V30 2510 H 233.443 3.70822 -6.63623 0
M  V30 2511 N 235.018 0.912232 1.28515 0
M  V30 2512 C 235.981 0.404223 2.25607 0
M  V30 2513 C 236.981 -0.468602 1.53821 0
M  V30 2514 O 238.171 -0.271873 1.72065 0
M  V30 2515 C 235.303 -0.420653 3.38295 0
M  V30 2516 H 236.496 1.26188 2.7206 0
M  V30 2517 H 234.049 0.691495 1.40171 0
M  V30 2518 H 234.784 -1.29777 2.97201 0
M  V30 2519 H 234.569 0.204935 3.91564 0
M  V30 2520 H 236.059 -0.766971 4.10496 0
M  V30 2521 N 236.496 -1.42363 0.676048 0
M  V30 2522 C 237.912 -1.55811 0.345718 0
M  V30 2523 C 238.112 -1.65544 -1.14879 0
M  V30 2524 O 237.168 -1.62306 -1.93424 0
M  V30 2525 C 238.481 -2.80746 1.07713 0
M  V30 2526 C 240.029 -2.9452 1.05958 0
M  V30 2527 C 240.504 -4.22318 1.77233 0
M  V30 2528 N 241.995 -4.29233 1.74108 0
M  V30 2529 C 242.73 -5.26935 2.26113 0
M  V30 2530 N 242.226 -6.30783 2.86505 0
M  V30 2531 N 244.019 -5.18741 2.1648 0
M  V30 2532 H 236.17 -1.34289 1.6456 0
M  V30 2533 H 238.433 -0.646506 0.69335 0
M  V30 2534 H 238.139 -2.79696 2.13221 0
M  V30 2535 H 238.013 -3.71676 0.64316 0
M  V30 2536 H 240.4 -2.95097 0.0128255 0
M  V30 2537 H 240.481 -2.04817 1.53244 0
M  V30 2538 H 240.125 -4.22502 2.81877 0
M  V30 2539 H 240.055 -5.10958 1.27396 0
M  V30 2540 H 242.546 -3.54814 1.30059 0
M  V30 2541 H 242.859 -7.01691 3.23805 0
M  V30 2542 H 241.204 -6.31341 2.90575 0
M  V30 2543 H 244.395 -4.36533 1.68987 0
M  V30 2544 H 244.568 -5.94721 2.57316 0
M  V30 2545 N 237.974 -0.419461 -1.51915 0
M  V30 2546 C 239.204 0.151915 -2.06041 0
M  V30 2547 C 239.612 1.38539 -1.28855 0
M  V30 2548 O 238.955 1.80592 -0.336463 0
M  V30 2549 C 239.017 0.557119 -3.55157 0
M  V30 2550 C 238.681 -0.567054 -4.53468 0
M  V30 2551 C 239.678 -1.43379 -4.99738 0
M  V30 2552 C 237.363 -0.742693 -4.96779 0
M  V30 2553 C 239.357 -2.46102 -5.87973 0
M  V30 2554 C 237.044 -1.77322 -5.84808 0
M  V30 2555 C 238.042 -2.63078 -6.30301 0
M  V30 2556 O 237.73 -3.64364 -7.16585 0
M  V30 2557 H 237.462 0.0193293 -0.675724 0
M  V30 2558 H 240.016 -0.592073 -1.96682 0
M  V30 2559 H 238.246 1.35355 -3.62238 0
M  V30 2560 H 239.935 1.05759 -3.9188 0
M  V30 2561 H 240.701 -1.30954 -4.66986 0
M  V30 2562 H 236.58 -0.0848307 -4.60922 0
M  V30 2563 H 240.124 -3.13071 -6.23404 0
M  V30 2564 H 236.021 -1.89773 -6.16974 0
M  V30 2565 H 236.789 -3.60731 -7.34721 0
M  V30 2566 N 239.452 1.56882 -0.150215 0
M  V30 2567 C 240.698 1.97299 0.494427 0
M  V30 2568 C 241.053 1.0338 1.62266 0
M  V30 2569 O 240.346 0.0694497 1.91474 0
M  V30 2570 C 240.54 3.41801 1.04437 0
M  V30 2571 C 240.369 4.49691 -0.0290451 0
M  V30 2572 C 239.139 5.03095 -0.47156 0
M  V30 2573 C 241.337 5.07693 -0.821703 0
M  V30 2574 N 239.319 5.94593 -1.52749 0
M  V30 2575 C 240.69 5.95431 -1.72805 0
M  V30 2576 C 242.745 4.90256 -0.869134 0
M  V30 2577 C 241.448 6.67599 -2.67777 0
M  V30 2578 C 243.474 5.63127 -1.8067 0
M  V30 2579 C 242.836 6.50576 -2.70057 0
M  V30 2580 H 238.935 0.76755 0.149639 0
M  V30 2581 H 241.519 1.93145 -0.24556 0
M  V30 2582 H 239.69 3.46541 1.75396 0
M  V30 2583 H 241.422 3.69272 1.6559 0
M  V30 2584 H 238.177 4.73543 -0.0732101 0
M  V30 2585 H 238.601 6.45047 -2.05531 0
M  V30 2586 H 243.243 4.22363 -0.192134 0
M  V30 2587 H 240.961 7.34717 -3.36476 0
M  V30 2588 H 244.547 5.51629 -1.84924 0
M  V30 2589 H 243.427 7.05974 -3.41424 0
M  V30 2590 N 240.93 -0.123565 1.57115 0
M  V30 2591 C 241.88 -1.1575 1.96433 0
M  V30 2592 C 242.864 -1.37313 0.838686 0
M  V30 2593 O 244.056 -1.38482 1.10235 0
M  V30 2594 C 241.185 -2.48526 2.36833 0
M  V30 2595 C 240.271 -2.30457 3.5602 0
M  V30 2596 N 240.662 -1.8219 4.71848 0
M  V30 2597 C 238.96 -2.61129 3.61563 0
M  V30 2598 C 239.661 -1.77721 5.53886 0
M  V30 2599 N 238.637 -2.21899 4.96248 0
M  V30 2600 H 242.439 -0.776797 2.83449 0
M  V30 2601 H 239.953 -0.331364 1.58983 0
M  V30 2602 H 241.95 -3.233 2.63216 0
M  V30 2603 H 240.61 -2.87358 1.5118 0
M  V30 2604 H 241.621 -1.51805 4.95152 0
M  V30 2605 H 238.298 -3.03678 2.86507 0
M  V30 2606 H 239.688 -1.41697 6.56789 0
M  V30 2607 N 242.408 -1.52605 -0.393616 0
M  V30 2608 C 243.656 -1.67093 -1.13685 0
M  V30 2609 C 243.977 -0.411011 -1.90619 0
M  V30 2610 O 243.247 0.574491 -1.87287 0
M  V30 2611 H 241.827 -0.615923 -0.422668 0
M  V30 2612 H 244.489 -1.89704 -0.447039 0
M  V30 2613 H 243.585 -2.51922 -1.84232 0
M  V30 2614 N 243.887 0.651787 -1.4349 0
M  V30 2615 C 245.164 1.40909 -1.35661 0
M  V30 2616 C 245.544 2.11099 -0.00511733 0
M  V30 2617 O 244.892 2.04892 1.0115 0
M  V30 2618 C 245.102 2.3926 -2.54078 0
M  V30 2619 C 246.45 3.03217 -2.97228 0
M  V30 2620 O 247.474 2.49588 -2.54135 0
M  V30 2621 O 246.333 4.00455 -3.71885 0
M  V30 2622 H 243.427 0.629625 -0.536191 0
M  V30 2623 H 245.973 0.678575 -1.55542 0
M  V30 2624 H 244.745 1.86352 -3.44076 0
M  V30 2625 H 244.368 3.1976 -2.36303 0
M  V30 2626 N 245.365 1.30045 0.890287 0
M  V30 2627 C 246.642 1.09227 1.62262 0
M  V30 2628 C 247.022 -0.360305 2.08002 0
M  V30 2629 O 246.37 -1.35084 1.84295 0
M  V30 2630 C 246.58 2.08835 2.79623 0
M  V30 2631 C 247.928 2.40266 3.50082 0
M  V30 2632 O 248.952 2.07104 2.89804 0
M  V30 2633 O 247.811 2.96967 4.58773 0
M  V30 2634 H 244.905 0.419132 0.712922 0
M  V30 2635 H 247.451 1.41451 0.937529 0
M  V30 2636 H 246.223 3.06633 2.43089 0
M  V30 2637 H 245.846 1.77397 3.55832 0
M  V30 2638 N 246.843 -1.10192 1.12674 0
M  V30 2639 C 247.773 -2.18652 0.819362 0
M  V30 2640 C 248.754 -1.68698 -0.217915 0
M  V30 2641 O 249.939 -1.94041 -0.0785581 0
M  V30 2642 C 247.069 -3.46202 0.27594 0
M  V30 2643 C 246.023 -4.09444 1.24656 0
M  V30 2644 C 245.349 -5.31725 0.563258 0
M  V30 2645 C 246.649 -4.52863 2.60217 0
M  V30 2646 H 248.343 -2.44622 1.72628 0
M  V30 2647 H 245.889 -1.17571 0.831451 0
M  V30 2648 H 247.842 -4.21372 0.0486149 0
M  V30 2649 H 246.566 -3.1973 -0.666331 0
M  V30 2650 H 245.225 -3.36284 1.45974 0
M  V30 2651 H 244.873 -5.0153 -0.384235 0
M  V30 2652 H 244.573 -5.74991 1.21075 0
M  V30 2653 H 246.097 -6.09624 0.34503 0
M  V30 2654 H 247.511 -5.19294 2.42913 0
M  V30 2655 H 245.908 -5.06986 3.21068 0
M  V30 2656 H 246.978 -3.65656 3.18471 0
M  V30 2657 N 248.321 -0.919034 -1.28029 0
M  V30 2658 C 249.732 -0.600735 -1.76771 0
M  V30 2659 C 250.083 0.884024 -1.75156 0
M  V30 2660 O 249.208 1.69163 -1.34956 0
M  V30 2661 C 249.803 -1.08372 -3.21 0
M  V30 2662 C 248.362 -0.816248 -3.67443 0
M  V30 2663 C 247.509 -1.24742 -2.47658 0
M  V30 2664 H 250.46 -1.09974 -1.14418 0
M  V30 2665 H 250.481 -0.427512 -3.78091 0
M  V30 2666 H 249.993 -2.16437 -3.22144 0
M  V30 2667 H 248.094 0.250968 -3.71754 0
M  V30 2668 H 248.207 -1.4277 -4.57333 0
M  V30 2669 H 246.571 -0.666083 -2.45836 0
M  V30 2670 H 247.354 -2.33653 -2.51518 0
M  V30 2671 N 249.799 1.42003 -0.683588 0
M  V30 2672 C 251.046 2.01413 -0.209514 0
M  V30 2673 C 251.374 1.54088 1.1869 0
M  V30 2674 O 250.629 0.737591 1.81268 0
M  V30 2675 C 250.928 3.56827 -0.202357 0
M  V30 2676 C 250.594 4.23617 -1.54464 0
M  V30 2677 C 249.256 4.41577 -1.91215 0
M  V30 2678 C 251.608 4.61178 -2.42826 0
M  V30 2679 C 248.936 4.9437 -3.15935 0
M  V30 2680 C 251.288 5.15355 -3.66867 0
M  V30 2681 C 249.952 5.31528 -4.03776 0
M  V30 2682 H 249.222 0.737023 -0.0766668 0
M  V30 2683 H 251.869 1.70067 -0.880312 0
M  V30 2684 H 250.174 3.87892 0.551969 0
M  V30 2685 H 251.871 4.00588 0.181793 0
M  V30 2686 H 248.461 4.10004 -1.24877 0
M  V30 2687 H 252.645 4.46968 -2.15717 0
M  V30 2688 H 247.901 5.05076 -3.44541 0
M  V30 2689 H 252.075 5.43402 -4.35531 0
M  V30 2690 H 249.702 5.72199 -5.00492 0
M  V30 2691 N 251.277 0.427512 1.51691 0
M  V30 2692 C 252.554 -0.201684 1.94557 0
M  V30 2693 C 252.934 -1.60981 1.36559 0
M  V30 2694 O 252.282 -2.21814 0.548702 0
M  V30 2695 C 252.492 -0.189394 3.48486 0
M  V30 2696 C 253.84 -0.39978 4.22714 0
M  V30 2697 O 254.864 -0.267945 3.55191 0
M  V30 2698 O 253.723 -0.661249 5.42485 0
M  V30 2699 H 250.817 -0.135261 0.815864 0
M  V30 2700 H 253.363 0.484782 1.62628 0
M  V30 2701 H 252.135 0.795431 3.8313 0
M  V30 2702 H 251.758 -0.919187 3.86829 0
M  V30 2703 N 252.755 -1.56801 0.158532 0
M  V30 2704 C 254.003 -1.96102 -0.488712 0
M  V30 2705 C 254.324 -1.04498 -1.64636 0
M  V30 2706 O 253.594 -0.108783 -1.95598 0
M  V30 2707 H 252.174 -0.724102 -0.183535 0
M  V30 2708 H 254.836 -1.93457 0.236728 0
M  V30 2709 H 253.932 -3.00097 -0.857219 0
M  V30 2710 N 254.233 0.115231 -1.57178 0
M  V30 2711 C 255.644 0.67197 -1.74188 0
M  V30 2712 C 255.995 1.80125 -0.777777 0
M  V30 2713 O 255.12 2.16346 0.0484376 0
M  V30 2714 C 255.715 1.22573 -3.1585 0
M  V30 2715 C 254.274 1.72872 -3.34353 0
M  V30 2716 C 253.421 0.629972 -2.70049 0
M  V30 2717 H 256.372 -0.110712 -1.58313 0
M  V30 2718 H 256.393 2.09535 -3.17609 0
M  V30 2719 H 255.905 0.403598 -3.85996 0
M  V30 2720 H 254.006 2.5755 -2.69256 0
M  V30 2721 H 254.119 1.83557 -4.42542 0
M  V30 2722 H 252.483 1.0645 -2.31388 0
M  V30 2723 H 253.266 -0.181241 -3.42821 0
M  V30 2724 N 255.711 1.52812 0.385517 0
M  V30 2725 C 256.959 1.67694 1.12797 0
M  V30 2726 C 257.28 0.421115 1.90399 0
M  V30 2727 O 256.55 -0.564551 1.87589 0
M  V30 2728 H 255.13 0.618155 0.419396 0
M  V30 2729 H 257.792 1.89938 0.436972 0
M  V30 2730 H 256.888 2.52896 1.82894 0
M  V30 2731 N 257.189 -0.644168 1.43834 0
M  V30 2732 C 258.437 -1.40117 1.45642 0
M  V30 2733 C 258.758 -1.94814 0.0852413 0
M  V30 2734 O 258.028 -1.74988 -0.880688 0
M  V30 2735 H 256.608 -0.52005 0.536243 0
M  V30 2736 H 259.27 -0.7591 1.7951 0
M  V30 2737 H 258.366 -2.23902 2.17427 0
M  V30 2738 N 258.668 -1.30515 -0.883378 0
M  V30 2739 C 259.917 -1.18795 -1.63005 0
M  V30 2740 C 260.23 0.255923 -1.93919 0
M  V30 2741 O 261.436 0.494654 -2.66956 0
M  V30 2742 C 259.892 -2.07878 -2.93794 0
M  V30 2743 C 259.5 -3.57184 -2.70414 0
M  V30 2744 C 261.244 -2.04924 -3.71761 0
M  V30 2745 C 259.151 -4.38317 -3.97029 0
M  V30 2746 H 258.081 -0.441031 -0.611562 0
M  V30 2747 H 260.732 -1.55275 -0.977854 0
M  V30 2748 H 259.114 -1.64283 -3.60315 0
M  V30 2749 H 260.288 -4.08937 -2.12384 0
M  V30 2750 H 258.603 -3.61976 -2.0582 0
M  V30 2751 H 261.2 -2.62792 -4.65665 0
M  V30 2752 H 261.543 -1.0331 -4.03277 0
M  V30 2753 H 262.076 -2.46649 -3.12104 0
M  V30 2754 H 258.815 -5.40632 -3.70671 0
M  V30 2755 H 258.335 -3.91326 -4.54559 0
M  V30 2756 H 260.014 -4.49834 -4.65036 0
M  V30 2757 N 260.146 1.09593 -1.13257 0
M  V30 2758 C 261.076 2.18214 -0.830946 0
M  V30 2759 C 262.057 1.68812 0.208966 0
M  V30 2760 O 263.242 1.9408 0.0682666 0
M  V30 2761 C 260.372 3.46051 -0.294296 0
M  V30 2762 C 259.326 4.08778 -1.26826 0
M  V30 2763 C 258.652 5.31419 -0.591449 0
M  V30 2764 C 259.952 4.51476 -2.62615 0
M  V30 2765 H 261.646 2.43703 -1.73923 0
M  V30 2766 H 259.192 1.17128 -0.837675 0
M  V30 2767 H 261.145 4.2134 -0.0709606 0
M  V30 2768 H 259.869 3.20079 0.649366 0
M  V30 2769 H 258.528 3.35505 -1.47756 0
M  V30 2770 H 258.176 5.01727 0.357633 0
M  V30 2771 H 257.876 5.74341 -1.24123 0
M  V30 2772 H 259.4 6.09433 -0.377355 0
M  V30 2773 H 260.814 5.17999 -2.45663 0
M  V30 2774 H 259.211 5.05277 -3.23752 0
M  V30 2775 H 260.281 3.63962 -3.20406 0
M  V30 2776 N 261.624 0.925811 1.2754 0
M  V30 2777 C 262.587 0.428129 2.25166 0
M  V30 2778 C 263.587 -0.452261 1.54309 0
M  V30 2779 O 264.777 -0.253608 1.72344 0
M  V30 2780 C 261.909 -0.384749 3.38722 0
M  V30 2781 H 263.102 1.29066 2.70706 0
M  V30 2782 H 260.655 0.706323 1.3943 0
M  V30 2783 H 261.39 -1.26618 2.98561 0
M  V30 2784 H 261.175 0.246454 3.91325 0
M  V30 2785 H 262.665 -0.723389 4.11287 0
M  V30 2786 N 263.102 -1.41638 0.69111 0
M  V30 2787 C 264.052 -2.28 -0.000107832 0
M  V30 2788 C 265.036 -1.41964 -0.757304 0
M  V30 2789 O 266.228 -1.65274 -0.633532 0
M  V30 2790 C 263.357 -3.30209 -0.938983 0
M  V30 2791 C 262.443 -4.23725 -0.17827 0
M  V30 2792 N 262.834 -4.99017 0.825563 0
M  V30 2793 C 261.132 -4.44071 -0.414392 0
M  V30 2794 C 261.833 -5.67431 1.28052 0
M  V30 2795 N 260.809 -5.40197 0.607304 0
M  V30 2796 H 264.611 -2.83644 0.769617 0
M  V30 2797 H 262.125 -1.53797 0.521562 0
M  V30 2798 H 264.122 -3.90898 -1.44929 0
M  V30 2799 H 262.782 -2.76126 -1.70836 0
M  V30 2800 H 263.793 -5.03671 1.20566 0
M  V30 2801 H 260.47 -4.01004 -1.162 0
M  V30 2802 H 261.86 -6.37801 2.11327 0
M  V30 2803 N 264.58 -0.43555 -1.51462 0
M  V30 2804 C 265.543 0.365137 -2.26273 0
M  V30 2805 C 266.543 0.951227 -1.29647 0
M  V30 2806 O 267.733 0.825958 -1.53374 0
M  V30 2807 C 264.865 1.51645 -3.05314 0
M  V30 2808 H 266.058 -0.290474 -2.9849 0
M  V30 2809 H 263.611 -0.188676 -1.55157 0
M  V30 2810 H 264.346 2.20816 -2.3751 0
M  V30 2811 H 264.131 1.10238 -3.76284 0
M  V30 2812 H 265.621 2.08218 -3.61987 0
M  V30 2813 N 266.058 1.56714 -0.166846 0
M  V30 2814 C 267.305 1.96747 0.479252 0
M  V30 2815 C 267.633 1.05263 1.63554 0
M  V30 2816 O 266.888 0.0858098 1.95512 0
M  V30 2817 C 267.187 3.42889 1.00806 0
M  V30 2818 C 266.853 4.50889 -0.0318574 0
M  V30 2819 C 265.515 4.8015 -0.317675 0
M  V30 2820 C 267.867 5.15949 -0.737956 0
M  V30 2821 C 265.195 5.71772 -1.31506 0
M  V30 2822 C 267.547 6.08647 -1.72429 0
M  V30 2823 C 266.211 6.36277 -2.0176 0
M  V30 2824 H 265.481 0.719949 0.175371 0
M  V30 2825 H 268.128 1.89756 -0.257864 0
M  V30 2826 H 266.433 3.4681 1.82291 0
M  V30 2827 H 268.13 3.71203 1.51689 0
M  V30 2828 H 264.72 4.28128 0.201088 0
M  V30 2829 H 268.904 4.93458 -0.530351 0
M  V30 2830 H 264.16 5.91465 -1.54853 0
M  V30 2831 H 268.334 6.58129 -2.27682 0
M  V30 2832 H 265.961 7.07075 -2.79194 0
M  V30 2833 N 267.536 -0.106894 1.57237 0
M  V30 2834 C 268.783 -0.812526 1.85484 0
M  V30 2835 C 269.111 -1.79304 0.753687 0
M  V30 2836 O 268.366 -1.94047 -0.253853 0
M  V30 2837 C 268.665 -1.58628 3.20268 0
M  V30 2838 C 268.331 -0.748967 4.44636 0
M  V30 2839 C 266.993 -0.518104 4.78403 0
M  V30 2840 C 269.345 -0.166122 5.20935 0
M  V30 2841 C 266.673 0.305659 5.85903 0
M  V30 2842 C 269.025 0.644899 6.29304 0
M  V30 2843 C 267.689 0.885965 6.61594 0
M  V30 2844 H 266.959 -0.297324 0.678734 0
M  V30 2845 H 269.606 -0.0744332 1.91355 0
M  V30 2846 H 267.911 -2.39562 3.10028 0
M  V30 2847 H 269.608 -2.13643 3.39349 0
M  V30 2848 H 266.198 -0.939006 4.18187 0
M  V30 2849 H 270.382 -0.33167 4.95191 0
M  V30 2850 H 265.638 0.501528 6.0934 0
M  V30 2851 H 269.812 1.10345 6.87602 0
M  V30 2852 H 267.439 1.52609 7.44725 0
M  V30 2853 N 269.014 -1.53014 -0.377408 0
M  V30 2854 C 270.425 -1.60438 -0.954798 0
M  V30 2855 C 270.776 -0.464418 -1.90624 0
M  V30 2856 O 269.901 0.41087 -2.12464 0
M  V30 2857 C 270.496 -2.90797 -1.73847 0
M  V30 2858 C 269.055 -3.00595 -2.26538 0
M  V30 2859 C 268.202 -2.55645 -1.07429 0
M  V30 2860 H 271.153 -1.57926 -0.156575 0
M  V30 2861 H 271.174 -2.77935 -2.5987 0
M  V30 2862 H 270.686 -3.73746 -1.04574 0
M  V30 2863 H 268.787 -2.22208 -2.99089 0
M  V30 2864 H 268.9 -4.05456 -2.5523 0
M  V30 2865 H 267.264 -2.10239 -1.43777 0
M  V30 2866 H 268.047 -3.41 -0.396728 0
M  V30 2867 N 270.492 0.636531 -1.44174 0
M  V30 2868 C 271.439 1.74875 -1.50624 0
M  V30 2869 C 272.409 1.62275 -0.35442 0
M  V30 2870 O 273.594 1.82276 -0.563908 0
M  V30 2871 C 270.734 3.13102 -1.45125 0
M  V30 2872 C 269.847 3.36717 -2.7064 0
M  V30 2873 C 268.982 4.64885 -2.57013 0
M  V30 2874 C 268.021 4.8166 -3.77717 0
M  V30 2875 N 267.158 6.01101 -3.62798 0
M  V30 2876 H 271.998 1.68697 -2.45653 0
M  V30 2877 H 269.535 0.823004 -1.21922 0
M  V30 2878 H 271.493 3.93034 -1.39929 0
M  V30 2879 H 270.123 3.18308 -0.536671 0
M  V30 2880 H 269.175 2.50763 -2.86046 0
M  V30 2881 H 270.487 3.44993 -3.60252 0
M  V30 2882 H 269.641 5.52969 -2.49619 0
M  V30 2883 H 268.38 4.58957 -1.64953 0
M  V30 2884 H 267.385 3.92007 -3.85501 0
M  V30 2885 H 268.61 4.89406 -4.70807 0
M  V30 2886 H 266.556 5.96273 -2.73486 0
M  V30 2887 H 266.473 6.10409 -4.46023 0
M  V30 2888 H 267.741 6.91761 -3.59286 0
M  V30 2889 N 271.97 1.30982 0.876444 0
M  V30 2890 C 273.198 1.23242 1.6619 0
M  V30 2891 C 273.613 -0.203345 1.87702 0
M  V30 2892 O 272.97 -1.13317 1.43057 0
M  V30 2893 C 273.021 1.96623 3.03351 0
M  V30 2894 O 272.742 3.34594 2.82804 0
M  V30 2895 C 274.243 1.95644 3.97792 0
M  V30 2896 H 271.463 0.426126 0.518322 0
M  V30 2897 H 274.007 1.7275 1.09442 0
M  V30 2898 H 272.162 1.50892 3.56806 0
M  V30 2899 H 272.576 3.71873 3.69879 0
M  V30 2900 H 274.05 2.51511 4.91372 0
M  V30 2901 H 274.527 0.937395 4.2908 0
M  V30 2902 H 275.133 2.41225 3.50272 0
M  V30 2903 N 273.449 -1.08991 1.13837 0
M  V30 2904 C 274.399 -2.1393 0.788535 0
M  V30 2905 C 275.383 -1.59396 -0.219516 0
M  V30 2906 O 276.575 -1.76985 -0.0227557 0
M  V30 2907 C 273.704 -3.42305 0.261147 0
M  V30 2908 C 272.79 -4.03736 1.29837 0
M  V30 2909 N 273.181 -4.39659 2.50067 0
M  V30 2910 C 271.479 -4.30993 1.1472 0
M  V30 2911 C 272.18 -4.88113 3.16419 0
M  V30 2912 N 271.156 -4.85846 2.43832 0
M  V30 2913 H 274.958 -2.39516 1.70322 0
M  V30 2914 H 272.472 -1.26263 1.02134 0
M  V30 2915 H 274.469 -4.16899 -0.0077405 0
M  V30 2916 H 273.129 -3.18172 -0.647805 0
M  V30 2917 H 274.14 -4.30878 2.8734 0
M  V30 2918 H 270.817 -4.16444 0.296773 0
M  V30 2919 H 272.207 -5.25336 4.18894 0
M  V30 2920 N 274.927 -0.932562 -1.27047 0
M  V30 2921 C 276.343 -0.633544 -1.46487 0
M  V30 2922 C 276.543 0.815746 -1.84249 0
M  V30 2923 O 275.599 1.59319 -1.95892 0
M  V30 2924 C 276.912 -1.58758 -2.55375 0
M  V30 2925 C 278.46 -1.59634 -2.69232 0
M  V30 2926 C 278.935 -2.53747 -3.81283 0
M  V30 2927 N 280.426 -2.51982 -3.88664 0
M  V30 2928 C 281.161 -3.21491 -4.74796 0
M  V30 2929 N 280.657 -4.00395 -5.65381 0
M  V30 2930 N 282.45 -3.10485 -4.68568 0
M  V30 2931 H 274.601 -1.86946 -1.00821 0
M  V30 2932 H 276.864 -0.802897 -0.504044 0
M  V30 2933 H 276.57 -2.62172 -2.34432 0
M  V30 2934 H 276.444 -1.33301 -3.52861 0
M  V30 2935 H 278.831 -0.569488 -2.89553 0
M  V30 2936 H 278.912 -1.89142 -1.72218 0
M  V30 2937 H 278.556 -3.56545 -3.61715 0
M  V30 2938 H 278.486 -2.21532 -4.77735 0
M  V30 2939 H 280.977 -1.94681 -3.23895 0
M  V30 2940 H 281.29 -4.50406 -6.27976 0
M  V30 2941 H 279.635 -4.04498 -5.65161 0
M  V30 2942 H 282.826 -2.48331 -3.96799 0
M  V30 2943 H 282.999 -3.64925 -5.35475 0
M  V30 2944 N 276.405 1.4127 -0.698611 0
M  V30 2945 C 277.315 2.34573 -0.0357891 0
M  V30 2946 C 278.331 1.56393 0.762701 0
M  V30 2947 O 279.507 1.8886 0.699564 0
M  V30 2948 C 276.572 3.35159 0.887089 0
M  V30 2949 C 275.633 4.29225 0.0804634 0
M  V30 2950 C 274.866 5.25006 0.959387 0
M  V30 2951 O 275.089 5.26314 2.19886 0
M  V30 2952 O 274.023 6.00519 0.407439 0
M  V30 2953 H 277.849 2.92838 -0.804957 0
M  V30 2954 H 275.434 1.42175 -0.458966 0
M  V30 2955 H 277.316 3.9689 1.41621 0
M  V30 2956 H 275.991 2.79333 1.6357 0
M  V30 2957 H 274.898 3.70833 -0.493328 0
M  V30 2958 H 276.231 4.88157 -0.629547 0
M  V30 2959 N 277.883 0.443576 1.51229 0
M  V30 2960 C 279.131 -0.120557 2.0174 0
M  V30 2961 C 279.452 -1.42665 1.32935 0
M  V30 2962 O 278.722 -1.9028 0.465866 0
M  V30 2963 H 277.302 -0.0475426 0.745486 0
M  V30 2964 H 279.964 0.587711 1.85828 0
M  V30 2965 H 279.06 -0.291972 3.10731 0
M  V30 2966 N 279.361 -1.56624 0.175154 0
M  V30 2967 C 280.638 -1.88688 -0.515373 0
M  V30 2968 C 281.018 -1.08564 -1.81044 0
M  V30 2969 O 280.366 -0.180703 -2.27784 0
M  V30 2970 C 280.576 -3.40768 -0.753552 0
M  V30 2971 C 281.924 -4.10587 -1.08184 0
M  V30 2972 O 282.948 -3.46106 -0.841961 0
M  V30 2973 O 281.807 -5.24512 -1.53459 0
M  V30 2974 H 278.901 -0.78301 -0.26613 0
M  V30 2975 H 281.447 -1.68347 0.213877 0
M  V30 2976 H 280.219 -3.90965 0.161829 0
M  V30 2977 H 279.842 -3.66733 -1.53598 0
M  V30 2978 N 280.839 0.0985539 -1.57292 0
M  V30 2979 C 282.085 0.803867 -1.86188 0
M  V30 2980 C 282.418 1.78549 -0.763794 0
M  V30 2981 O 281.693 1.93153 0.22855 0
M  V30 2982 C 281.976 1.53568 -3.25713 0
M  V30 2983 C 281.829 0.572277 -4.46145 0
M  V30 2984 C 283.148 2.48708 -3.63087 0
M  V30 2985 H 280.267 0.290781 -0.677211 0
M  V30 2986 H 282.909 0.0675783 -1.8988 0
M  V30 2987 H 281.059 2.16332 -3.22696 0
M  V30 2988 H 282.731 -0.0480894 -4.61275 0
M  V30 2989 H 280.974 -0.114618 -4.33649 0
M  V30 2990 H 281.645 1.12139 -5.40489 0
M  V30 2991 H 284.121 1.96039 -3.67026 0
M  V30 2992 H 282.997 2.96932 -4.61652 0
M  V30 2993 H 283.258 3.32309 -2.91588 0
M  V30 2994 N 282.317 1.53212 0.369288 0
M  V30 2995 C 283.267 1.75769 1.45222 0
M  V30 2996 C 284.251 0.612136 1.48801 0
M  V30 2997 O 285.443 0.870674 1.54105 0
M  V30 2998 C 282.572 1.94769 2.82701 0
M  V30 2999 C 281.658 3.15315 2.83615 0
M  V30 3000 N 282.049 4.37295 2.54178 0
M  V30 3001 C 280.347 3.15962 3.14776 0
M  V30 3002 C 281.048 5.19015 2.62675 0
M  V30 3003 N 280.024 4.55142 2.97232 0
M  V30 3004 H 283.826 2.67691 1.2132 0
M  V30 3005 H 281.34 1.51787 0.577438 0
M  V30 3006 H 283.337 2.09056 3.60696 0
M  V30 3007 H 281.997 1.04073 3.07569 0
M  V30 3008 H 283.008 4.65091 2.27839 0
M  V30 3009 H 279.685 2.35144 3.44983 0
M  V30 3010 H 281.075 6.26305 2.43294 0
M  V30 3011 N 283.795 -0.628877 1.44509 0
M  V30 3012 C 285.042 -1.38839 1.47411 0
M  V30 3013 C 285.37 -1.94202 0.10757 0
M  V30 3014 O 284.625 -1.74243 -0.890947 0
M  V30 3015 C 284.924 -2.56995 2.48371 0
M  V30 3016 C 284.59 -2.19908 3.93639 0
M  V30 3017 C 283.252 -2.09506 4.33198 0
M  V30 3018 C 285.604 -1.9064 4.85083 0
M  V30 3019 C 282.932 -1.68028 5.62124 0
M  V30 3020 C 285.284 -1.50655 6.14399 0
M  V30 3021 C 283.948 -1.38796 6.5291 0
M  V30 3022 H 283.218 -0.508048 0.539414 0
M  V30 3023 H 285.865 -0.712913 1.77735 0
M  V30 3024 H 284.17 -3.29786 2.11538 0
M  V30 3025 H 285.867 -3.15223 2.47861 0
M  V30 3026 H 282.457 -2.28922 3.62343 0
M  V30 3027 H 286.641 -1.97585 4.55273 0
M  V30 3028 H 281.897 -1.57452 5.90778 0
M  V30 3029 H 286.071 -1.27048 6.84713 0
M  V30 3030 H 283.698 -1.06429 7.52713 0
M  V30 3031 N 285.273 -1.31445 -0.869486 0
M  V30 3032 C 286.55 -1.11795 -1.60503 0
M  V30 3033 C 286.93 0.327168 -2.08549 0
M  V30 3034 O 286.278 1.32135 -1.8642 0
M  V30 3035 C 286.488 -2.13258 -2.76265 0
M  V30 3036 C 287.836 -2.45805 -3.46215 0
M  V30 3037 O 288.86 -2.11688 -2.86473 0
M  V30 3038 O 287.719 -3.04228 -4.5399 0
M  V30 3039 H 284.813 -0.430421 -0.706163 0
M  V30 3040 H 287.359 -1.42925 -0.914907 0
M  V30 3041 H 286.131 -3.10461 -2.3818 0
M  V30 3042 H 285.754 -1.83035 -3.52964 0
M  V30 3043 N 286.751 1.08385 -1.14413 0
M  V30 3044 C 287.981 1.8425 -0.934644 0
M  V30 3045 C 288.389 1.81907 0.520234 0
M  V30 3046 O 287.732 1.22126 1.37226 0
M  V30 3047 C 287.794 3.32853 -1.35828 0
M  V30 3048 C 287.458 3.5893 -2.82875 0
M  V30 3049 C 288.455 3.53756 -3.80989 0
M  V30 3050 C 286.14 3.86934 -3.20293 0
M  V30 3051 C 288.134 3.76216 -5.14529 0
M  V30 3052 C 285.821 4.09047 -4.54008 0
M  V30 3053 C 286.819 4.03682 -5.50936 0
M  V30 3054 O 286.507 4.25214 -6.82238 0
M  V30 3055 H 286.239 0.588502 -0.332628 0
M  V30 3056 H 288.793 1.37792 -1.52324 0
M  V30 3057 H 287.023 3.8007 -0.713019 0
M  V30 3058 H 288.712 3.90154 -1.11957 0
M  V30 3059 H 289.478 3.32135 -3.53428 0
M  V30 3060 H 285.357 3.9023 -2.45442 0
M  V30 3061 H 288.901 3.71943 -5.90173 0
M  V30 3062 H 284.798 4.30151 -4.8129 0
M  V30 3063 H 285.566 4.42619 -6.88499 0
M  V30 3064 N 288.23 0.939286 1.26551 0
M  V30 3065 C 289.507 0.5038 1.89001 0
M  V30 3066 C 289.887 -1.01854 1.84903 0
M  V30 3067 O 289.235 -1.87773 1.30206 0
M  V30 3068 C 289.445 1.063 3.32417 0
M  V30 3069 C 290.793 1.13051 4.09273 0
M  V30 3070 O 291.817 1.01345 3.41479 0
M  V30 3071 O 290.676 1.31233 5.30509 0
M  V30 3072 H 287.77 0.163897 0.810597 0
M  V30 3073 H 290.316 1.03173 1.34735 0
M  V30 3074 H 289.088 2.10665 3.29752 0
M  V30 3075 H 288.711 0.517408 3.94219 0
M  V30 3076 N 289.708 -1.40897 0.706093 0
M  V30 3077 C 290.618 -2.3455 0.0482286 0
M  V30 3078 C 291.634 -1.56796 -0.754396 0
M  V30 3079 O 292.81 -1.89228 -0.689538 0
M  V30 3080 C 289.875 -3.35625 -0.869303 0
M  V30 3081 C 288.936 -4.29261 -0.0576994 0
M  V30 3082 C 288.169 -5.25508 -0.931531 0
M  V30 3083 O 288.392 -5.27472 -2.17092 0
M  V30 3084 O 287.326 -6.00727 -0.375587 0
M  V30 3085 H 291.152 -2.92407 0.820476 0
M  V30 3086 H 288.737 -1.4193 0.4665 0
M  V30 3087 H 290.619 -3.97635 -1.39514 0
M  V30 3088 H 289.294 -2.80196 -1.62086 0
M  V30 3089 H 288.201 -3.70566 0.512988 0
M  V30 3090 H 289.534 -4.87817 0.655426 0
M  V30 3091 N 291.186 -0.45159 -1.50991 0
M  V30 3092 C 292.414 0.108334 -2.06616 0
M  V30 3093 C 292.829 1.35224 -1.31757 0
M  V30 3094 O 292.186 1.78475 -0.381174 0
M  V30 3095 C 292.237 0.41619 -3.59096 0
M  V30 3096 O 291.958 -0.778361 -4.3113 0
M  V30 3097 C 293.459 1.02523 -4.31282 0
M  V30 3098 H 290.679 0.00159995 -0.670998 0
M  V30 3099 H 293.223 -0.634771 -1.94399 0
M  V30 3100 H 291.378 1.10921 -3.71181 0
M  V30 3101 H 291.792 -0.511181 -5.22003 0
M  V30 3102 H 293.266 1.19053 -5.39009 0
M  V30 3103 H 293.743 2.01013 -3.905 0
M  V30 3104 H 294.349 0.371173 -4.23677 0
M  V30 3105 N 292.664 1.56529 -0.183458 0
M  V30 3106 C 293.91 1.98304 0.452466 0
M  V30 3107 C 294.265 1.06799 1.60037 0
M  V30 3108 O 293.558 0.110049 1.91284 0
M  V30 3109 C 293.752 3.43939 0.971637 0
M  V30 3110 C 293.581 4.49528 -0.124425 0
M  V30 3111 C 292.351 5.01981 -0.578168 0
M  V30 3112 C 294.549 5.05836 -0.929207 0
M  V30 3113 N 292.531 5.91219 -1.65327 0
M  V30 3114 C 293.902 5.91632 -1.85396 0
M  V30 3115 C 295.957 4.88302 -0.972929 0
M  V30 3116 C 294.66 6.61768 -2.81878 0
M  V30 3117 C 296.686 5.59168 -1.92574 0
M  V30 3118 C 296.048 6.44701 -2.83795 0
M  V30 3119 H 292.147 0.770551 0.133324 0
M  V30 3120 H 294.731 1.92581 -0.286473 0
M  V30 3121 H 292.902 3.50184 1.68006 0
M  V30 3122 H 294.634 3.72702 1.5772 0
M  V30 3123 H 291.389 4.73282 -0.173639 0
M  V30 3124 H 291.813 6.40543 -2.19167 0
M  V30 3125 H 296.455 4.21861 -0.28168 0
M  V30 3126 H 294.173 7.27415 -3.51984 0
M  V30 3127 H 297.759 5.47582 -1.96583 0
M  V30 3128 H 296.639 6.98573 -3.56322 0
M  V30 3129 N 294.142 -0.090211 1.57342 0
M  V30 3130 C 295.37 -0.806224 1.90546 0
M  V30 3131 C 295.785 -1.72041 0.777644 0
M  V30 3132 O 295.142 -1.80778 -0.250103 0
M  V30 3133 C 295.193 -1.61546 3.23396 0
M  V30 3134 O 294.914 -0.738043 4.31839 0
M  V30 3135 C 296.415 -2.4341 3.70495 0
M  V30 3136 H 293.635 -0.230256 0.630257 0
M  V30 3137 H 296.179 -0.0659843 2.04394 0
M  V30 3138 H 294.334 -2.30816 3.11131 0
M  V30 3139 H 294.748 -1.29901 5.08159 0
M  V30 3140 H 296.222 -2.95676 4.66133 0
M  V30 3141 H 296.699 -3.22098 2.98579 0
M  V30 3142 H 297.305 -1.79331 3.85643 0
M  V30 3143 N 295.62 -1.53406 -0.361157 0
M  V30 3144 C 296.869 -1.69022 -1.10066 0
M  V30 3145 C 297.182 -0.450838 -1.90333 0
M  V30 3146 O 298.388 -0.487617 -2.67085 0
M  V30 3147 C 296.844 -2.98812 -2.00598 0
M  V30 3148 C 296.452 -4.30027 -1.25621 0
M  V30 3149 C 298.196 -3.23795 -2.74513 0
M  V30 3150 C 296.103 -5.50903 -2.1508 0
M  V30 3151 H 295.033 -0.629776 -0.414606 0
M  V30 3152 H 297.684 -1.79907 -0.361348 0
M  V30 3153 H 296.066 -2.8174 -2.78278 0
M  V30 3154 H 297.24 -4.57745 -0.529739 0
M  V30 3155 H 295.555 -4.11522 -0.635496 0
M  V30 3156 H 298.152 -4.11289 -3.41681 0
M  V30 3157 H 298.495 -2.40045 -3.40123 0
M  V30 3158 H 299.028 -3.41561 -2.03914 0
M  V30 3159 H 295.767 -6.37143 -1.54041 0
M  V30 3160 H 295.287 -5.27459 -2.85565 0
M  V30 3161 H 296.966 -5.85865 -2.74538 0
M  V30 3162 N 297.098 0.621204 -1.44841 0
M  V30 3163 C 298.346 1.37783 -1.47852 0
M  V30 3164 C 298.667 1.94653 -0.116224 0
M  V30 3165 O 297.937 1.76367 0.852737 0
M  V30 3166 H 296.517 0.511453 -0.544449 0
M  V30 3167 H 299.179 0.730446 -1.80694 0
M  V30 3168 H 298.275 2.20414 -2.20961 0
M  V30 3169 N 298.576 1.31904 0.862503 0
M  V30 3170 C 299.853 1.12644 1.59908 0
M  V30 3171 C 300.233 -0.316104 2.0872 0
M  V30 3172 O 299.581 -1.31145 1.87118 0
M  V30 3173 C 299.791 2.1472 2.7513 0
M  V30 3174 C 301.139 2.47637 3.44907 0
M  V30 3175 O 302.163 2.13205 2.85346 0
M  V30 3176 O 301.022 3.06632 4.52371 0
M  V30 3177 H 298.116 0.43416 0.703871 0
M  V30 3178 H 300.662 1.43408 0.907314 0
M  V30 3179 H 299.434 3.1172 2.3653 0
M  V30 3180 H 299.057 1.84905 3.51989 0
M  V30 3181 N 300.054 -1.07777 1.14986 0
M  V30 3182 C 301.331 -1.7699 0.832695 0
M  V30 3183 C 301.711 -2.001 -0.672561 0
M  V30 3184 O 301.059 -1.61598 -1.6155 0
M  V30 3185 C 301.269 -3.08139 1.63863 0
M  V30 3186 C 302.617 -3.8256 1.84208 0
M  V30 3187 O 303.641 -3.17939 1.60603 0
M  V30 3188 O 302.5 -4.98612 2.23714 0
M  V30 3189 H 299.594 -0.768389 0.305791 0
M  V30 3190 H 302.14 -1.14182 1.25541 0
M  V30 3191 H 300.912 -2.86909 2.6608 0
M  V30 3192 H 300.535 -3.78678 1.21197 0
M  V30 3193 N 301.532 -0.945985 -1.26051 0
M  V30 3194 C 302.464 -0.416662 -2.25381 0
M  V30 3195 C 303.477 0.462712 -1.56086 0
M  V30 3196 O 304.666 0.272383 -1.7641 0
M  V30 3197 C 301.766 0.419812 -3.3629 0
M  V30 3198 C 300.939 -0.444531 -4.35135 0
M  V30 3199 C 299.998 0.332305 -5.2515 0
M  V30 3200 O 299.024 -0.266324 -5.68577 0
M  V30 3201 N 300.226 1.62763 -5.57215 0
M  V30 3202 H 302.991 -1.27059 -2.71433 0
M  V30 3203 H 300.552 -0.815392 -1.39868 0
M  V30 3204 H 302.544 0.947013 -3.93464 0
M  V30 3205 H 301.114 1.17456 -2.89694 0
M  V30 3206 H 300.334 -1.15291 -3.76964 0
M  V30 3207 H 301.622 -1.03478 -4.98166 0
M  V30 3208 H 301.02 2.13603 -5.23823 0
M  V30 3209 H 299.577 2.10097 -6.17011 0
M  V30 3210 N 303.011 1.40521 -0.713556 0
M  V30 3211 C 304.259 2.00527 -0.251692 0
M  V30 3212 C 304.58 1.56857 1.15848 0
M  V30 3213 O 303.85 0.807127 1.785 0
M  V30 3214 H 302.43 0.741551 -0.0900646 0
M  V30 3215 H 305.092 1.71887 -0.918733 0
M  V30 3216 H 304.188 3.10813 -0.283192 0
M  V30 3217 N 304.489 0.459591 1.5075 0
M  V30 3218 C 305.717 -0.0973749 2.06671 0
M  V30 3219 C 306.132 -1.34524 1.32472 0
M  V30 3220 O 305.489 -1.7827 0.390634 0
M  V30 3221 C 305.54 -0.39714 3.59312 0
M  V30 3222 O 305.261 0.801214 4.30711 0
M  V30 3223 C 306.762 -1.00234 4.31819 0
M  V30 3224 H 303.982 0.00195854 0.670997 0
M  V30 3225 H 306.526 0.645072 1.94059 0
M  V30 3226 H 304.681 -1.08951 3.71764 0
M  V30 3227 H 305.095 0.538857 5.21725 0
M  V30 3228 H 306.569 -1.16193 5.39632 0
M  V30 3229 H 307.046 -1.98939 3.91561 0
M  V30 3230 H 307.652 -0.348699 4.23868 0
M  V30 3231 N 305.967 -1.56429 0.191757 0
M  V30 3232 C 307.244 -1.89224 -0.495332 0
M  V30 3233 C 307.624 -1.10478 -1.79883 0
M  V30 3234 O 306.972 -0.204852 -2.2758 0
M  V30 3235 C 307.182 -3.41548 -0.717367 0
M  V30 3236 C 308.53 -4.11711 -1.03823 0
M  V30 3237 O 309.554 -3.4698 -0.805204 0
M  V30 3238 O 308.413 -5.2611 -1.47887 0
M  V30 3239 H 305.507 -0.785788 -0.25781 0
M  V30 3240 H 308.053 -1.68111 0.231721 0
M  V30 3241 H 306.825 -3.90772 0.203287 0
M  V30 3242 H 306.448 -3.68342 -1.497 0
M  V30 3243 N 307.445 0.0818655 -1.57387 0
M  V30 3244 C 308.375 1.09885 -2.06028 0
M  V30 3245 C 309.356 1.4098 -0.951774 0
M  V30 3246 O 310.541 1.50781 -1.22387 0
M  V30 3247 C 307.671 2.4151 -2.4958 0
M  V30 3248 C 306.625 2.24792 -3.64215 0
M  V30 3249 C 305.951 3.61712 -3.93787 0
M  V30 3250 C 307.251 1.67749 -4.94629 0
M  V30 3251 H 308.945 0.694128 -2.91243 0
M  V30 3252 H 306.491 0.332448 -1.4011 0
M  V30 3253 H 308.444 3.12939 -2.82219 0
M  V30 3254 H 307.168 2.83943 -1.61381 0
M  V30 3255 H 305.827 1.55807 -3.31843 0
M  V30 3256 H 305.475 4.01697 -3.02735 0
M  V30 3257 H 305.175 3.51368 -4.70971 0
M  V30 3258 H 306.699 4.34587 -4.28913 0
M  V30 3259 H 308.113 2.29032 -5.25564 0
M  V30 3260 H 306.51 1.68128 -5.76067 0
M  V30 3261 H 307.58 0.638059 -4.80684 0
M  V30 3262 N 308.923 1.53595 0.353017 0
M  V30 3263 C 309.853 1.83902 1.43883 0
M  V30 3264 C 310.834 0.693421 1.55324 0
M  V30 3265 O 312.019 0.944452 1.69687 0
M  V30 3266 C 309.149 2.04016 2.8106 0
M  V30 3267 C 308.103 3.19814 2.84434 0
M  V30 3268 C 307.429 3.25244 4.24406 0
M  V30 3269 C 308.729 4.58133 2.50822 0
M  V30 3270 H 310.423 2.74835 1.1877 0
M  V30 3271 H 307.969 1.32242 0.569917 0
M  V30 3272 H 309.922 2.238 3.57059 0
M  V30 3273 H 308.646 1.09804 3.07588 0
M  V30 3274 H 307.305 2.9987 2.10887 0
M  V30 3275 H 306.953 2.28646 4.48029 0
M  V30 3276 H 306.653 4.03054 4.27576 0
M  V30 3277 H 308.177 3.47228 5.0226 0
M  V30 3278 H 309.591 4.77995 3.16534 0
M  V30 3279 H 307.988 5.38276 2.6529 0
M  V30 3280 H 309.058 4.62387 1.46034 0
M  V30 3281 N 310.401 -0.613514 1.45168 0
M  V30 3282 C 311.333 -1.73825 1.4939 0
M  V30 3283 C 312.346 -1.58175 0.385304 0
M  V30 3284 O 313.535 -1.66165 0.652036 0
M  V30 3285 C 310.635 -3.11758 1.32891 0
M  V30 3286 C 309.808 -3.53704 2.57317 0
M  V30 3287 C 308.867 -4.70579 2.35462 0
M  V30 3288 O 307.893 -4.77996 3.09044 0
M  V30 3289 N 309.095 -5.63454 1.39644 0
M  V30 3290 H 311.86 -1.70669 2.46358 0
M  V30 3291 H 309.421 -0.79862 1.40832 0
M  V30 3292 H 311.413 -3.87692 1.1609 0
M  V30 3293 H 309.983 -3.09456 0.442218 0
M  V30 3294 H 309.203 -2.67794 2.89275 0
M  V30 3295 H 310.491 -3.78486 3.40038 0
M  V30 3296 H 309.889 -5.6017 0.789062 0
M  V30 3297 H 308.446 -6.38944 1.28816 0
M  V30 3298 N 311.879 -1.3236 -0.855495 0
M  V30 3299 C 313.125 -1.23054 -1.612 0
M  V30 3300 C 313.458 0.207404 -1.93089 0
M  V30 3301 O 312.733 1.14432 -1.57275 0
M  V30 3302 C 313.016 -2.08937 -2.93287 0
M  V30 3303 C 312.869 -3.61105 -2.68185 0
M  V30 3304 C 314.188 -1.94986 -3.94549 0
M  V30 3305 H 311.307 -0.448364 -0.584926 0
M  V30 3306 H 313.949 -1.62297 -0.987917 0
M  V30 3307 H 312.099 -1.75599 -3.46551 0
M  V30 3308 H 313.771 -4.04652 -2.21483 0
M  V30 3309 H 312.014 -3.83813 -2.02164 0
M  V30 3310 H 312.685 -4.16522 -3.62234 0
M  V30 3311 H 315.161 -2.24189 -3.5054 0
M  V30 3312 H 314.037 -2.57356 -4.84829 0
M  V30 3313 H 314.298 -0.917263 -4.3248 0
M  V30 3314 N 313.357 1.07166 -1.15556 0
M  V30 3315 C 314.32 2.12589 -0.856644 0
M  V30 3316 C 315.32 1.6015 0.14444 0
M  V30 3317 O 316.51 1.7399 -0.0854163 0
M  V30 3318 C 313.642 3.39753 -0.279405 0
M  V30 3319 H 314.835 2.40539 -1.79112 0
M  V30 3320 H 312.388 1.23086 -0.963298 0
M  V30 3321 H 313.123 3.17447 0.663174 0
M  V30 3322 H 312.908 3.79117 -1.00063 0
M  V30 3323 H 314.398 4.17507 -0.0879113 0
M  V30 3324 N 314.835 0.952656 1.25548 0
M  V30 3325 C 315.798 0.475794 2.24207 0
M  V30 3326 C 316.798 -0.419428 1.55234 0
M  V30 3327 O 317.988 -0.216994 1.72843 0
M  V30 3328 C 315.12 -0.312814 3.39462 0
M  V30 3329 H 316.313 1.34779 2.67908 0
M  V30 3330 H 313.866 0.735739 1.37901 0
M  V30 3331 H 314.601 -1.20257 3.01179 0
M  V30 3332 H 314.386 0.329404 3.90714 0
M  V30 3333 H 315.876 -0.635986 4.12729 0
M  V30 3334 N 316.313 -1.40141 0.720998 0
M  V30 3335 C 317.263 -2.27949 0.0482544 0
M  V30 3336 C 318.247 -1.43538 -0.727021 0
M  V30 3337 O 319.439 -1.6658 -0.598332 0
M  V30 3338 C 316.568 -3.32126 -0.868729 0
M  V30 3339 C 315.654 -4.24008 -0.0883515 0
M  V30 3340 N 316.045 -4.97154 0.931226 0
M  V30 3341 C 314.343 -4.4485 -0.320105 0
M  V30 3342 C 315.044 -5.64587 1.4006 0
M  V30 3343 N 314.02 -5.38787 0.721752 0
M  V30 3344 H 317.822 -2.81948 0.829609 0
M  V30 3345 H 315.336 -1.52656 0.554067 0
M  V30 3346 H 317.333 -3.93884 -1.36605 0
M  V30 3347 H 315.993 -2.79687 -1.6494 0
M  V30 3348 H 317.004 -5.01 1.31222 0
M  V30 3349 H 313.681 -4.03378 -1.07668 0
M  V30 3350 H 315.071 -6.33175 2.24808 0
M  V30 3351 N 317.792 -0.46758 -1.50504 0
M  V30 3352 C 318.702 0.33382 -2.32213 0
M  V30 3353 C 319.718 0.999323 -1.42441 0
M  V30 3354 O 320.894 0.988068 -1.75497 0
M  V30 3355 C 317.959 1.4035 -3.17022 0
M  V30 3356 C 317.02 0.754961 -4.2261 0
M  V30 3357 C 316.253 1.77367 -5.03365 0
M  V30 3358 O 316.476 2.99976 -4.8515 0
M  V30 3359 O 315.41 1.34744 -5.86624 0
M  V30 3360 H 319.236 -0.334067 -3.01857 0
M  V30 3361 H 316.821 -0.229496 -1.47627 0
M  V30 3362 H 318.703 2.02318 -3.69656 0
M  V30 3363 H 317.378 2.05492 -2.5011 0
M  V30 3364 H 316.285 0.0964244 -3.73976 0
M  V30 3365 H 317.618 0.146545 -4.91982 0
M  V30 3366 N 319.27 1.56325 -0.20005 0
M  V30 3367 C 320.517 1.97719 0.437411 0
M  V30 3368 C 320.845 1.08709 1.61284 0
M  V30 3369 O 320.1 0.127261 1.95286 0
M  V30 3370 C 320.399 3.4495 0.935103 0
M  V30 3371 C 320.065 4.5072 -0.12749 0
M  V30 3372 C 318.727 4.79368 -0.419451 0
M  V30 3373 C 321.079 5.14268 -0.847231 0
M  V30 3374 C 318.407 5.68854 -1.43604 0
M  V30 3375 C 320.759 6.04852 -1.85301 0
M  V30 3376 C 319.423 6.31855 -2.15211 0
M  V30 3377 H 318.693 0.723507 0.16006 0
M  V30 3378 H 321.34 1.89166 -0.298056 0
M  V30 3379 H 319.645 3.50599 1.74894 0
M  V30 3380 H 321.342 3.74337 1.43781 0
M  V30 3381 H 317.932 4.28458 0.11023 0
M  V30 3382 H 322.116 4.92222 -0.634901 0
M  V30 3383 H 317.372 5.88047 -1.67364 0
M  V30 3384 H 321.546 6.53152 -2.41591 0
M  V30 3385 H 319.173 7.00994 -2.94129 0
M  V30 3386 N 320.748 -0.0735177 1.57428 0
M  V30 3387 C 321.996 -0.771472 1.86796 0
M  V30 3388 C 322.317 -1.78201 0.791804 0
M  V30 3389 O 321.587 -1.95074 -0.179718 0
M  V30 3390 H 320.167 -0.28791 0.689287 0
M  V30 3391 H 322.829 -0.0500161 1.94836 0
M  V30 3392 H 321.925 -1.28874 2.8425 0
M  V30 3393 N 322.226 -1.5378 -0.344866 0
M  V30 3394 C 323.176 -1.78057 -1.42407 0
M  V30 3395 C 324.16 -0.635732 -1.47808 0
M  V30 3396 O 325.352 -0.89508 -1.527 0
M  V30 3397 C 322.481 -1.99242 -2.79566 0
M  V30 3398 C 321.567 -3.19787 -2.78562 0
M  V30 3399 N 321.958 -4.41284 -2.47189 0
M  V30 3400 C 320.256 -3.2093 -3.0971 0
M  V30 3401 C 320.957 -5.23128 -2.54385 0
M  V30 3402 N 319.933 -4.59813 -2.89953 0
M  V30 3403 H 323.735 -2.69588 -1.17046 0
M  V30 3404 H 321.249 -1.52687 -0.553217 0
M  V30 3405 H 323.246 -2.14768 -3.57324 0
M  V30 3406 H 321.906 -1.08953 -3.05875 0
M  V30 3407 H 322.917 -4.68657 -2.20411 0
M  V30 3408 H 319.594 -2.40603 -3.41199 0
M  V30 3409 H 320.984 -6.30096 -2.333 0
M  V30 3410 N 323.704 0.605807 -1.45491 0
M  V30 3411 C 324.95 1.36679 -1.49823 0
M  V30 3412 C 325.283 1.93693 -0.140175 0
M  V30 3413 O 324.558 1.75158 0.845581 0
M  V30 3414 C 324.841 2.51337 -2.57879 0
M  V30 3415 C 324.694 1.99508 -4.03134 0
M  V30 3416 C 326.013 3.53463 -2.62205 0
M  V30 3417 H 323.132 0.495617 -0.545466 0
M  V30 3418 H 325.774 0.682732 -1.7731 0
M  V30 3419 H 323.924 3.09691 -2.34571 0
M  V30 3420 H 325.596 1.45789 -4.37656 0
M  V30 3421 H 323.839 1.30496 -4.13707 0
M  V30 3422 H 324.51 2.82169 -4.74431 0
M  V30 3423 H 326.986 3.04953 -2.83095 0
M  V30 3424 H 325.862 4.31178 -3.39672 0
M  V30 3425 H 326.123 4.09197 -1.67363 0
M  V30 3426 N 325.182 1.32811 0.848464 0
M  V30 3427 C 326.112 1.24882 1.97299 0
M  V30 3428 C 327.093 0.131357 1.69592 0
M  V30 3429 O 328.278 0.319553 1.91553 0
M  V30 3430 C 325.408 0.97746 3.33261 0
M  V30 3431 C 324.362 2.05682 3.75338 0
M  V30 3432 C 323.688 1.63777 5.09 0
M  V30 3433 C 324.988 3.47254 3.90144 0
M  V30 3434 H 326.682 2.18966 2.04191 0
M  V30 3435 H 324.228 1.05413 0.981029 0
M  V30 3436 H 326.181 0.908513 4.1149 0
M  V30 3437 H 324.905 0.000980011 3.266 0
M  V30 3438 H 323.564 2.11603 2.99366 0
M  V30 3439 H 323.212 0.648569 4.98801 0
M  V30 3440 H 322.912 2.36 5.38124 0
M  V30 3441 H 324.436 1.5833 5.89715 0
M  V30 3442 H 325.85 3.43888 4.58709 0
M  V30 3443 H 324.247 4.1788 4.30693 0
M  V30 3444 H 325.317 3.86462 2.92874 0
M  V30 3445 N 326.66 -1.06551 1.16123 0
M  V30 3446 C 327.908 -1.78947 0.939267 0
M  V30 3447 C 328.229 -1.87532 -0.534476 0
M  V30 3448 O 327.499 -1.38211 -1.38833 0
M  V30 3449 H 326.079 -0.662807 0.344523 0
M  V30 3450 H 328.741 -1.28725 1.46342 0
M  V30 3451 H 327.837 -2.81117 1.35572 0
M  V30 3452 N 328.138 -0.959301 -1.25041 0
M  V30 3453 C 329.068 -0.501388 -2.28053 0
M  V30 3454 C 330.049 0.454673 -1.63911 0
M  V30 3455 O 331.234 0.352618 -1.90972 0
M  V30 3456 C 328.364 0.217224 -3.4662 0
M  V30 3457 C 327.318 -0.654034 -4.22973 0
M  V30 3458 C 326.644 0.195589 -5.34342 0
M  V30 3459 C 327.944 -1.93447 -4.85155 0
M  V30 3460 H 329.638 -1.36238 -2.66608 0
M  V30 3461 H 327.184 -0.656534 -1.28163 0
M  V30 3462 H 329.137 0.548732 -4.17812 0
M  V30 3463 H 327.861 1.1125 -3.07068 0
M  V30 3464 H 326.52 -0.968693 -3.5357 0
M  V30 3465 H 326.168 1.09076 -4.91031 0
M  V30 3466 H 325.868 -0.384091 -5.86343 0
M  V30 3467 H 327.392 0.521958 -6.08365 0
M  V30 3468 H 328.806 -1.66908 -5.48466 0
M  V30 3469 H 327.203 -2.46018 -5.47353 0
M  V30 3470 H 328.273 -2.63466 -4.07079 0
M  V30 3471 N 329.616 1.39756 -0.72842 0
M  V30 3472 C 330.548 2.29157 -0.0446202 0
M  V30 3473 C 331.561 1.46484 0.710367 0
M  V30 3474 O 332.75 1.69632 0.55562 0
M  V30 3475 C 329.85 3.24987 0.961071 0
M  V30 3476 C 329.023 4.36572 0.268967 0
M  V30 3477 C 328.082 5.12756 1.18184 0
M  V30 3478 O 327.108 5.6534 0.661794 0
M  V30 3479 N 328.31 5.23331 2.51206 0
M  V30 3480 H 331.075 2.88482 -0.812295 0
M  V30 3481 H 328.636 1.51265 -0.577098 0
M  V30 3482 H 330.628 3.72827 1.57423 0
M  V30 3483 H 329.198 2.66739 1.63 0
M  V30 3484 H 328.418 3.90694 -0.524574 0
M  V30 3485 H 329.706 5.08363 -0.210934 0
M  V30 3486 H 329.104 4.82116 2.9594 0
M  V30 3487 H 327.661 5.74634 3.07634 0
M  V30 3488 N 331.094 0.475555 1.50254 0
M  V30 3489 C 332.044 -0.335025 2.25525 0
M  V30 3490 C 333.028 -0.957625 1.29299 0
M  V30 3491 O 334.22 -0.869436 1.54175 0
M  V30 3492 C 331.349 -1.41385 3.12834 0
M  V30 3493 C 330.435 -0.798762 4.1651 0
M  V30 3494 N 330.826 0.0835815 5.05731 0
M  V30 3495 C 329.124 -1.06221 4.33166 0
M  V30 3496 C 329.825 0.433113 5.80085 0
M  V30 3497 N 328.801 -0.1928 5.43258 0
M  V30 3498 H 332.603 0.344612 2.91873 0
M  V30 3499 H 330.117 0.289986 1.5979 0
M  V30 3500 H 332.114 -2.00777 3.65368 0
M  V30 3501 H 330.774 -2.09543 2.48036 0
M  V30 3502 H 331.785 0.452715 5.15918 0
M  V30 3503 H 328.462 -1.73844 3.79585 0
M  V30 3504 H 329.852 1.15346 6.61925 0
M  V30 3505 N 332.573 -1.56217 0.208337 0
M  V30 3506 C 333.801 -2.02337 -0.43215 0
M  V30 3507 C 334.216 -1.08834 -1.54275 0
M  V30 3508 O 333.573 -0.0955462 -1.8225 0
M  V30 3509 C 333.624 -3.48072 -0.976138 0
M  V30 3510 O 333.345 -4.38007 0.0901621 0
M  V30 3511 C 334.846 -4.09773 -1.69119 0
M  V30 3512 H 332.066 -0.662385 -0.10718 0
M  V30 3513 H 334.61 -2.01966 0.320923 0
M  V30 3514 H 332.765 -3.49099 -1.67954 0
M  V30 3515 H 333.179 -5.23543 -0.316701 0
M  V30 3516 H 334.653 -5.13556 -2.02397 0
M  V30 3517 H 335.13 -3.53999 -2.59964 0
M  V30 3518 H 335.736 -4.12556 -1.03332 0
M  V30 3519 N 334.051 0.0651679 -1.57465 0
M  V30 3520 C 335.279 0.775808 -1.91804 0
M  V30 3521 C 335.694 1.70782 -0.804916 0
M  V30 3522 O 335.051 1.81153 0.221311 0
M  V30 3523 C 335.102 1.56381 -3.25925 0
M  V30 3524 O 334.823 0.669248 -4.32958 0
M  V30 3525 C 336.324 2.37485 -3.7432 0
M  V30 3526 H 333.544 0.2202 -0.63384 0
M  V30 3527 H 336.088 0.0334587 -2.04473 0
M  V30 3528 H 334.243 2.25837 -3.14764 0
M  V30 3529 H 334.657 1.21801 -5.10162 0
M  V30 3530 H 336.131 2.88223 -4.70778 0
M  V30 3531 H 336.608 3.17307 -3.03666 0
M  V30 3532 H 337.214 1.73173 -3.88447 0
M  V30 3533 N 335.529 1.53961 0.336706 0
M  V30 3534 C 336.492 1.81724 1.39675 0
M  V30 3535 C 337.492 0.688532 1.45313 0
M  V30 3536 O 338.682 0.956829 1.45569 0
M  V30 3537 C 335.814 1.96543 2.78538 0
M  V30 3538 H 337.007 2.76424 1.16318 0
M  V30 3539 H 334.56 1.45478 0.571474 0
M  V30 3540 H 335.295 1.0401 3.07168 0
M  V30 3541 H 335.08 2.78665 2.75841 0
M  V30 3542 H 336.57 2.19516 3.5525 0
M  V30 3543 N 337.007 -0.598083 1.45811 0
M  V30 3544 C 337.97 -1.69018 1.54808 0
M  V30 3545 C 338.97 -1.55037 0.426652 0
M  V30 3546 O 340.16 -1.59932 0.690456 0
M  V30 3547 C 337.292 -3.0835 1.45371 0
M  V30 3548 H 338.485 -1.62403 2.52121 0
M  V30 3549 H 336.038 -0.814626 1.33392 0
M  V30 3550 H 336.773 -3.20534 0.492793 0
M  V30 3551 H 336.558 -3.19907 2.26721 0
M  V30 3552 H 338.048 -3.8788 1.54721 0
M  V30 3553 N 338.485 -1.33259 -0.841409 0
M  V30 3554 C 339.432 -1.23302 -1.95103 0
M  V30 3555 C 340.402 -0.112204 -1.65721 0
M  V30 3556 O 341.587 -0.290038 -1.88583 0
M  V30 3557 C 338.727 -0.975583 -3.31023 0
M  V30 3558 C 337.84 -2.18243 -3.72819 0
M  V30 3559 C 336.975 -1.85936 -4.97595 0
M  V30 3560 C 336.014 -3.02866 -5.3192 0
M  V30 3561 N 335.151 -2.70565 -6.47873 0
M  V30 3562 H 339.991 -2.18207 -2.02952 0
M  V30 3563 H 337.528 -1.0851 -0.993173 0
M  V30 3564 H 339.486 -0.80677 -4.09325 0
M  V30 3565 H 338.116 -0.0632755 -3.22738 0
M  V30 3566 H 337.168 -2.46107 -2.90061 0
M  V30 3567 H 338.48 -3.05666 -3.94169 0
M  V30 3568 H 337.634 -1.65684 -5.83638 0
M  V30 3569 H 336.373 -0.957452 -4.78209 0
M  V30 3570 H 335.378 -3.23736 -4.44382 0
M  V30 3571 H 336.603 -3.93809 -5.53255 0
M  V30 3572 H 334.549 -1.8293 -6.29978 0
M  V30 3573 H 334.466 -3.51519 -6.69306 0
M  V30 3574 H 335.734 -2.53774 -7.37034 0
M  V30 3575 N 339.963 1.05934 -1.16686 0
M  V30 3576 C 340.926 2.11669 -0.879144 0
M  V30 3577 C 341.926 1.60294 0.127445 0
M  V30 3578 O 343.116 1.7389 -0.103865 0
M  V30 3579 C 340.248 3.39438 -0.315425 0
M  V30 3580 H 341.441 2.38626 -1.81653 0
M  V30 3581 H 338.994 1.22058 -0.976299 0
M  V30 3582 H 339.729 3.18132 0.629468 0
M  V30 3583 H 339.514 3.78034 -1.04079 0
M  V30 3584 H 341.004 4.17391 -0.132189 0
M  V30 3585 N 341.441 0.965919 1.2453 0
M  V30 3586 C 342.371 0.513476 2.27784 0
M  V30 3587 C 343.352 -0.445974 1.6415 0
M  V30 3588 O 344.537 -0.342485 1.91156 0
M  V30 3589 C 341.667 -0.198839 3.4673 0
M  V30 3590 C 340.621 0.676456 4.2262 0
M  V30 3591 C 339.947 -0.167248 5.34438 0
M  V30 3592 C 341.247 1.96017 4.84123 0
M  V30 3593 H 342.941 1.3765 2.65881 0
M  V30 3594 H 340.487 0.663321 1.27813 0
M  V30 3595 H 342.44 -0.526567 4.18097 0
M  V30 3596 H 341.164 -1.0962 3.07654 0
M  V30 3597 H 339.823 0.98743 3.53052 0
M  V30 3598 H 339.471 -1.0647 4.91603 0
M  V30 3599 H 339.171 0.415181 5.86131 0
M  V30 3600 H 340.695 -0.489688 6.08633 0
M  V30 3601 H 342.109 1.69814 5.47573 0
M  V30 3602 H 340.506 2.48918 5.4604 0
M  V30 3603 H 341.576 2.65622 4.05676 0
M  V30 3604 N 342.919 -1.39368 0.735821 0
M  V30 3605 C 343.852 -2.28155 0.0451175 0
M  V30 3606 C 344.83 -1.44433 -0.746852 0
M  V30 3607 O 346.014 -1.73823 -0.729237 0
M  V30 3608 C 343.141 -3.253 -0.943266 0
M  V30 3609 C 342.187 -4.25826 -0.239685 0
M  V30 3610 S 343.02 -5.25166 1.04693 0
M  V30 3611 C 344.176 -6.2587 0.0611639 0
M  V30 3612 H 344.409 -2.86388 0.79807 0
M  V30 3613 H 341.942 -1.45104 0.527653 0
M  V30 3614 H 343.9 -3.81789 -1.50824 0
M  V30 3615 H 342.561 -2.66085 -1.66906 0
M  V30 3616 H 341.754 -4.94229 -0.987596 0
M  V30 3617 H 341.356 -3.73141 0.253274 0
M  V30 3618 H 343.648 -6.73007 -0.778941 0
M  V30 3619 H 344.591 -7.04508 0.712362 0
M  V30 3620 H 344.999 -5.63639 -0.311602 0
M  V30 3621 N 344.397 -0.483516 -1.5 0
M  V30 3622 C 345.622 0.0667119 -2.07293 0
M  V30 3623 C 346.047 1.3164 -1.3436 0
M  V30 3624 O 345.405 1.76945 -0.394987 0
M  V30 3625 C 345.453 0.321126 -3.59167 0
M  V30 3626 O 344.557 1.39927 -3.87936 0
M  V30 3627 H 343.898 -0.0184758 -0.663743 0
M  V30 3628 H 346.428 -0.678125 -1.93035 0
M  V30 3629 H 346.438 0.557906 -4.04168 0
M  V30 3630 H 345.113 -0.592007 -4.11665 0
M  V30 3631 H 343.69 1.14882 -3.54763 0
M  V30 3632 N 345.875 1.56104 -0.216619 0
M  V30 3633 C 346.838 2.18819 0.681962 0
M  V30 3634 C 347.838 1.14866 1.12528 0
M  V30 3635 O 349.028 1.40128 1.03488 0
M  V30 3636 C 346.16 2.80756 1.93362 0
M  V30 3637 H 347.353 2.99595 0.135254 0
M  V30 3638 H 344.906 1.56265 0.0330003 0
M  V30 3639 H 345.641 2.03837 2.52232 0
M  V30 3640 H 345.426 3.56876 1.62426 0
M  V30 3641 H 346.916 3.28844 2.57393 0
M  V30 3642 N 347.353 -0.0568162 1.57498 0
M  V30 3643 C 348.6 -0.753104 1.87975 0
M  V30 3644 C 348.928 -1.76815 0.81035 0
M  V30 3645 O 348.183 -1.94756 -0.19199 0
M  V30 3646 C 348.482 -1.48359 3.25153 0
M  V30 3647 C 348.148 -0.60713 4.46794 0
M  V30 3648 C 346.81 -0.365642 4.79809 0
M  V30 3649 C 349.162 -0.000305978 5.212 0
M  V30 3650 C 346.49 0.491905 5.84634 0
M  V30 3651 C 348.842 0.844781 6.26934 0
M  V30 3652 C 347.506 1.096 6.58441 0
M  V30 3653 H 346.776 -0.27558 0.687849 0
M  V30 3654 H 349.423 -0.0135173 1.91495 0
M  V30 3655 H 347.728 -2.29577 3.17492 0
M  V30 3656 H 349.425 -2.02739 3.45974 0
M  V30 3657 H 346.015 -0.805487 4.20963 0
M  V30 3658 H 350.199 -0.173961 4.95995 0
M  V30 3659 H 345.455 0.695131 6.07436 0
M  V30 3660 H 349.629 1.32165 6.83744 0
M  V30 3661 H 347.256 1.76224 7.39492 0
M  V30 3662 N 348.832 -1.54138 -0.328536 0
M  V30 3663 C 350.062 -1.75807 -1.08516 0
M  V30 3664 C 350.47 -0.50428 -1.82356 0
M  V30 3665 O 349.813 0.534451 -1.75754 0
M  V30 3666 C 349.875 -2.89423 -2.13248 0
M  V30 3667 C 349.539 -4.28504 -1.5885 0
M  V30 3668 C 350.536 -5.09536 -1.03289 0
M  V30 3669 C 348.221 -4.75034 -1.63243 0
M  V30 3670 C 350.215 -6.35206 -0.52845 0
M  V30 3671 C 347.902 -6.00672 -1.12411 0
M  V30 3672 C 348.9 -6.80592 -0.573062 0
M  V30 3673 O 348.588 -8.03867 -0.0723692 0
M  V30 3674 H 348.32 -0.590633 -0.328829 0
M  V30 3675 H 350.874 -2.01819 -0.381868 0
M  V30 3676 H 349.104 -2.5897 -2.87178 0
M  V30 3677 H 350.793 -2.98921 -2.74592 0
M  V30 3678 H 351.559 -4.74745 -0.99206 0
M  V30 3679 H 347.438 -4.12875 -2.05074 0
M  V30 3680 H 350.982 -6.97532 -0.0976774 0
M  V30 3681 H 346.879 -6.34955 -1.162 0
M  V30 3682 H 347.647 -8.18283 -0.188258 0
M  V30 3683 N 350.31 0.590341 -1.46126 0
M  V30 3684 C 351.538 1.37504 -1.54597 0
M  V30 3685 C 351.953 1.87897 -0.184447 0
M  V30 3686 O 351.31 1.63192 0.816984 0
M  V30 3687 C 351.361 2.56779 -2.54454 0
M  V30 3688 O 351.082 2.08476 -3.85317 0
M  V30 3689 C 352.583 3.49427 -2.72792 0
M  V30 3690 H 349.803 0.420325 -0.523037 0
M  V30 3691 H 352.347 0.718383 -1.91467 0
M  V30 3692 H 350.502 3.1845 -2.20609 0
M  V30 3693 H 350.916 2.86097 -4.396 0
M  V30 3694 H 352.39 4.29619 -3.466 0
M  V30 3695 H 352.867 4.00876 -1.79429 0
M  V30 3696 H 353.473 2.93598 -3.07702 0
M  V30 3697 N 351.788 1.33704 0.83433 0
M  V30 3698 C 353.035 1.25417 1.58987 0
M  V30 3699 C 353.363 -0.178869 1.93676 0
M  V30 3700 O 352.618 -1.13723 1.59265 0
M  V30 3701 C 352.917 2.07926 2.90692 0
M  V30 3702 C 352.583 3.57066 2.75345 0
M  V30 3703 C 351.245 3.97724 2.70867 0
M  V30 3704 C 353.597 4.51817 2.59828 0
M  V30 3705 C 350.925 5.31344 2.48778 0
M  V30 3706 C 353.277 5.85604 2.39272 0
M  V30 3707 C 351.941 6.25439 2.33199 0
M  V30 3708 H 351.211 0.458934 0.581774 0
M  V30 3709 H 353.858 1.65335 0.966261 0
M  V30 3710 H 352.163 1.608 3.57282 0
M  V30 3711 H 353.86 1.98868 3.48213 0
M  V30 3712 H 350.45 3.24785 2.79665 0
M  V30 3713 H 354.634 4.21311 2.62319 0
M  V30 3714 H 349.89 5.61241 2.42526 0
M  V30 3715 H 354.064 6.58623 2.2625 0
M  V30 3716 H 351.691 7.28914 2.15843 0
M  V30 3717 N 353.266 -1.05314 1.17247 0
M  V30 3718 C 354.682 -1.30452 0.919473 0
M  V30 3719 C 354.882 -1.9703 -0.42209 0
M  V30 3720 O 353.938 -2.24311 -1.15935 0
M  V30 3721 C 355.251 -2.17551 2.07586 0
M  V30 3722 C 356.799 -2.30937 2.11275 0
M  V30 3723 C 357.274 -3.21396 3.26296 0
M  V30 3724 N 358.765 -3.28981 3.26076 0
M  V30 3725 C 359.5 -3.99095 4.11716 0
M  V30 3726 N 358.996 -4.71648 5.07465 0
M  V30 3727 N 360.789 -3.95247 3.9967 0
M  V30 3728 H 352.94 -0.604988 2.03602 0
M  V30 3729 H 355.203 -0.329368 0.888944 0
M  V30 3730 H 354.909 -1.75921 3.0454 0
M  V30 3731 H 354.783 -3.18182 2.02584 0
M  V30 3732 H 357.17 -2.71809 1.14907 0
M  V30 3733 H 357.251 -1.2994 2.20339 0
M  V30 3734 H 356.895 -2.81238 4.22927 0
M  V30 3735 H 356.825 -4.22395 3.14467 0
M  V30 3736 H 359.316 -2.77286 2.5675 0
M  V30 3737 H 359.629 -5.22705 5.6921 0
M  V30 3738 H 357.974 -4.70594 5.11435 0
M  V30 3739 H 361.165 -3.37691 3.24164 0
M  V30 3740 H 361.338 -4.4962 4.66632 0
M  V30 3741 N 354.744 -0.972509 -1.24016 0
M  V30 3742 C 355.974 -0.653853 -1.9598 0
M  V30 3743 C 356.382 0.781801 -1.72292 0
M  V30 3744 O 355.725 1.53677 -1.00644 0
M  V30 3745 C 355.787 -0.854608 -3.49194 0
M  V30 3746 C 355.451 -2.27082 -3.96589 0
M  V30 3747 C 356.448 -3.24892 -4.05883 0
M  V30 3748 C 354.133 -2.5998 -4.29786 0
M  V30 3749 C 356.127 -4.53684 -4.47716 0
M  V30 3750 C 353.814 -3.88997 -4.71301 0
M  V30 3751 C 354.812 -4.85661 -4.80232 0
M  V30 3752 O 354.5 -6.12376 -5.20818 0
M  V30 3753 H 354.232 -0.242572 -0.630979 0
M  V30 3754 H 356.786 -1.30431 -1.58673 0
M  V30 3755 H 355.016 -0.146985 -3.86421 0
M  V30 3756 H 356.705 -0.534311 -4.02368 0
M  V30 3757 H 357.471 -3.00805 -3.80449 0
M  V30 3758 H 353.35 -1.85457 -4.22051 0
M  V30 3759 H 356.894 -5.29135 -4.54601 0
M  V30 3760 H 352.791 -4.12882 -4.96184 0
M  V30 3761 H 353.559 -6.16013 -5.38953 0
M  V30 3762 N 356.222 1.38976 -0.743202 0
M  V30 3763 C 357.633 1.83123 -0.363732 0
M  V30 3764 C 357.984 1.6205 1.10609 0
M  V30 3765 O 357.109 1.11606 1.854 0
M  V30 3766 C 357.704 3.32439 -0.653408 0
M  V30 3767 C 356.263 3.74974 -0.327338 0
M  V30 3768 C 355.41 2.61878 -0.911875 0
M  V30 3769 H 358.361 1.27852 -0.940191 0
M  V30 3770 H 358.382 3.80432 0.0720031 0
M  V30 3771 H 357.894 3.47745 -1.72323 0
M  V30 3772 H 355.995 3.65252 0.736314 0
M  V30 3773 H 356.108 4.72106 -0.815631 0
M  V30 3774 H 354.472 2.52448 -0.337944 0
M  V30 3775 H 355.255 2.79987 -1.98651 0
M  V30 3776 N 357.7 0.491464 1.49741 0
M  V30 3777 C 358.63 -0.28154 2.31796 0
M  V30 3778 C 359.611 -0.971473 1.3963 0
M  V30 3779 O 360.796 -0.964719 1.68543 0
M  V30 3780 C 357.926 -1.35203 3.19902 0
M  V30 3781 C 356.88 -0.782529 4.20786 0
M  V30 3782 C 356.206 -1.95283 4.97764 0
M  V30 3783 C 357.506 0.21999 5.21837 0
M  V30 3784 H 359.2 0.403355 2.96671 0
M  V30 3785 H 356.746 0.195425 1.42668 0
M  V30 3786 H 358.699 -1.90045 3.76113 0
M  V30 3787 H 357.423 -2.06598 2.52953 0
M  V30 3788 H 356.082 -0.255928 3.65706 0
M  V30 3789 H 355.73 -2.65423 4.2727 0
M  V30 3790 H 355.43 -1.57789 5.66018 0
M  V30 3791 H 356.954 -2.50577 5.56816 0
M  V30 3792 H 358.368 -0.23996 5.72798 0
M  V30 3793 H 356.765 0.51026 5.97927 0
M  V30 3794 H 357.835 1.13911 4.7133 0
M  V30 3795 N 359.178 -1.55987 0.224894 0
M  V30 3796 C 360.403 -2.03232 -0.41369 0
M  V30 3797 C 360.828 -1.10359 -1.52323 0
M  V30 3798 O 360.186 -0.092395 -1.81064 0
M  V30 3799 C 360.234 -3.48682 -0.919405 0
M  V30 3800 O 359.338 -3.58947 -2.03054 0
M  V30 3801 H 358.679 -0.657428 -0.0931903 0
M  V30 3802 H 361.209 -2.01679 0.34451 0
M  V30 3803 H 361.219 -3.8907 -1.22835 0
M  V30 3804 H 359.894 -4.15761 -0.107339 0
M  V30 3805 H 358.471 -3.30448 -1.72796 0
M  V30 3806 N 360.656 0.0484629 -1.57525 0
M  V30 3807 C 361.586 1.0549 -2.08313 0
M  V30 3808 C 362.567 1.38929 -0.981463 0
M  V30 3809 O 363.752 1.48151 -1.25558 0
M  V30 3810 C 360.882 2.36162 -2.54646 0
M  V30 3811 C 359.836 2.17016 -3.68901 0
M  V30 3812 C 359.162 3.53278 -4.01371 0
M  V30 3813 C 360.462 1.57219 -4.98076 0
M  V30 3814 H 362.156 0.632195 -2.92649 0
M  V30 3815 H 359.702 0.302654 -1.40784 0
M  V30 3816 H 361.655 3.06882 -2.88793 0
M  V30 3817 H 360.379 2.80456 -1.67368 0
M  V30 3818 H 359.038 1.48733 -3.35073 0
M  V30 3819 H 358.686 3.95185 -3.11188 0
M  V30 3820 H 358.386 3.41299 -4.78318 0
M  V30 3821 H 359.91 4.25391 -4.38035 0
M  V30 3822 H 361.324 2.17832 -5.30304 0
M  V30 3823 H 359.721 1.55871 -5.79503 0
M  V30 3824 H 360.791 0.535956 -4.81929 0
M  V30 3825 N 362.134 1.5431 0.320358 0
M  V30 3826 C 363.359 1.76954 1.08175 0
M  V30 3827 C 363.784 0.518193 1.80821 0
M  V30 3828 O 363.142 -0.530411 1.73368 0
M  V30 3829 C 363.19 2.96451 2.05303 0
M  V30 3830 O 362.294 2.68221 3.13259 0
M  V30 3831 H 361.635 0.586275 0.311733 0
M  V30 3832 H 364.165 2.01342 0.363676 0
M  V30 3833 H 364.175 3.23887 2.48116 0
M  V30 3834 H 362.85 3.87196 1.51829 0
M  V30 3835 H 361.427 2.51744 2.75099 0
M  V30 3836 N 363.613 -0.582584 1.46437 0
M  V30 3837 C 365.024 -1.1647 1.45916 0
M  V30 3838 C 365.375 -1.95177 0.200077 0
M  V30 3839 O 364.5 -2.04874 -0.696819 0
M  V30 3840 C 365.095 -2.11885 2.64367 0
M  V30 3841 C 363.654 -2.65421 2.66887 0
M  V30 3842 C 362.801 -1.41294 2.38603 0
M  V30 3843 H 365.752 -0.370514 1.54314 0
M  V30 3844 H 365.773 -2.9535 2.39892 0
M  V30 3845 H 365.285 -1.54573 3.5599 0
M  V30 3846 H 363.386 -3.26602 1.79338 0
M  V30 3847 H 363.499 -3.08147 3.66854 0
M  V30 3848 H 361.863 -1.71109 1.88663 0
M  V30 3849 H 362.646 -0.858125 3.32402 0
M  V30 3850 N 365.091 -1.34144 -0.827227 0
M  V30 3851 C 366.368 -1.16844 -1.56865 0
M  V30 3852 C 366.748 0.260654 -2.09485 0
M  V30 3853 O 366.096 1.26138 -1.9053 0
M  V30 3854 C 366.306 -2.21939 -2.6934 0
M  V30 3855 C 367.654 -2.56695 -3.3822 0
M  V30 3856 O 368.678 -2.20695 -2.79593 0
M  V30 3857 O 367.537 -3.18518 -4.44082 0
M  V30 3858 H 364.631 -0.452669 -0.692112 0
M  V30 3859 H 367.177 -1.45763 -0.868973 0
M  V30 3860 H 365.949 -3.17882 -2.28182 0
M  V30 3861 H 365.572 -1.94172 -3.46962 0
M  V30 3862 N 366.569 1.04691 -1.17803 0
M  V30 3863 C 367.846 1.7472 -0.879328 0
M  V30 3864 C 368.226 2.01812 0.619271 0
M  V30 3865 O 367.574 1.65824 1.57209 0
M  V30 3866 C 367.784 3.03686 -1.71976 0
M  V30 3867 C 369.132 3.77542 -1.94286 0
M  V30 3868 O 370.156 3.13569 -1.68976 0
M  V30 3869 O 369.015 4.92506 -2.36855 0
M  V30 3870 H 366.109 0.760011 -0.326056 0
M  V30 3871 H 368.655 1.10813 -1.28525 0
M  V30 3872 H 367.427 2.79754 -2.73594 0
M  V30 3873 H 367.05 3.75332 -1.31194 0
M  V30 3874 N 368.047 0.979072 1.23499 0
M  V30 3875 C 369.287 0.655228 1.93613 0
M  V30 3876 C 369.651 -0.796336 1.74707 0
M  V30 3877 O 370.852 -1.23094 2.38959 0
M  V30 3878 C 369.123 1.03337 3.42135 0
M  V30 3879 S 370.682 0.825793 4.3096 0
M  V30 3880 H 367.5 0.240004 0.669267 0
M  V30 3881 H 370.102 1.25843 1.49612 0
M  V30 3882 H 368.806 2.08646 3.53405 0
M  V30 3883 H 368.337 0.421397 3.91137 0
M  V30 3884 H 370.352 -0.290991 4.95346 0
M  V30 3885 N 369.525 -1.3858 0.750561 0
M  V30 3886 C 370.941 -1.53759 0.427824 0
M  V30 3887 C 371.141 -1.71401 -1.05943 0
M  V30 3888 O 370.197 -1.72331 -1.84549 0
M  V30 3889 C 371.51 -2.74642 1.22443 0
M  V30 3890 C 373.058 -2.88489 1.2142 0
M  V30 3891 C 373.533 -4.12329 1.9937 0
M  V30 3892 N 375.024 -4.194 1.96616 0
M  V30 3893 C 375.759 -5.14209 2.53727 0
M  V30 3894 N 375.255 -6.14709 3.19539 0
M  V30 3895 N 377.048 -5.06537 2.43673 0
M  V30 3896 H 369.199 -1.25377 1.71447 0
M  V30 3897 H 371.462 -0.608844 0.726645 0
M  V30 3898 H 371.168 -2.68 2.27747 0
M  V30 3899 H 371.042 -3.67745 0.839273 0
M  V30 3900 H 373.429 -2.94614 0.169232 0
M  V30 3901 H 373.51 -1.96406 1.63885 0
M  V30 3902 H 373.154 -4.06966 3.03877 0
M  V30 3903 H 373.084 -5.03486 1.54302 0
M  V30 3904 H 375.575 -3.47421 1.48684 0
M  V30 3905 H 375.888 -6.8354 3.60545 0
M  V30 3906 H 374.233 -6.1505 3.23633 0
M  V30 3907 H 377.424 -4.26962 1.91889 0
M  V30 3908 H 377.597 -5.80245 2.88479 0
M  V30 3909 N 371.003 -0.499398 -1.49478 0
M  V30 3910 C 372.251 0.0455996 -2.02049 0
M  V30 3911 C 372.572 1.37633 -1.38138 0
M  V30 3912 O 371.842 1.8842 -0.536166 0
M  V30 3913 H 370.422 0.0198416 -0.746736 0
M  V30 3914 H 373.084 -0.656274 -1.83519 0
M  V30 3915 H 372.18 0.176445 -3.11601 0
M  V30 3916 N 372.481 1.55866 -0.233164 0
M  V30 3917 C 373.727 1.98897 0.395959 0
M  V30 3918 C 374.06 1.12091 1.58585 0
M  V30 3919 O 373.335 0.181182 1.93654 0
M  V30 3920 C 373.618 3.50658 0.819224 0
M  V30 3921 C 373.471 4.48233 -0.375109 0
M  V30 3922 C 374.79 4.07135 1.67121 0
M  V30 3923 H 371.909 0.723102 0.142451 0
M  V30 3924 H 374.551 1.87082 -0.331725 0
M  V30 3925 H 372.701 3.60857 1.43925 0
M  V30 3926 H 374.373 4.50031 -1.01341 0
M  V30 3927 H 372.616 4.21624 -1.02058 0
M  V30 3928 H 373.287 5.51988 -0.0358328 0
M  V30 3929 H 375.763 3.99952 1.14795 0
M  V30 3930 H 374.639 5.13615 1.93625 0
M  V30 3931 H 374.9 3.54736 2.63846 0
M  V30 3932 N 373.959 -0.0401083 1.57549 0
M  V30 3933 C 374.891 -1.07149 2.02612 0
M  V30 3934 C 375.904 -1.33126 0.937085 0
M  V30 3935 O 377.093 -1.30808 1.21456 0
M  V30 3936 C 374.193 -2.41561 2.37701 0
M  V30 3937 C 373.366 -2.35096 3.68848 0
M  V30 3938 C 372.425 -3.51867 3.91249 0
M  V30 3939 O 371.451 -3.3186 4.62447 0
M  V30 3940 N 372.653 -4.73351 3.36035 0
M  V30 3941 H 375.418 -0.687485 2.91708 0
M  V30 3942 H 372.979 -0.228248 1.60283 0
M  V30 3943 H 374.971 -3.18379 2.49833 0
M  V30 3944 H 373.541 -2.71846 1.54332 0
M  V30 3945 H 372.761 -1.4345 3.67173 0
M  V30 3946 H 374.049 -2.27908 4.54901 0
M  V30 3947 H 373.447 -4.92507 2.78304 0
M  V30 3948 H 372.004 -5.47572 3.53565 0
M  V30 3949 N 375.437 -1.54477 -0.31217 0
M  V30 3950 C 376.387 -1.81037 -1.38598 0
M  V30 3951 C 377.371 -0.666941 -1.46426 0
M  V30 3952 O 378.563 -0.927269 -1.50767 0
M  V30 3953 C 375.692 -2.05127 -2.75277 0
M  V30 3954 C 374.778 -3.25624 -2.71716 0
M  V30 3955 N 375.169 -4.46428 -2.37773 0
M  V30 3956 C 373.467 -3.27427 -3.02833 0
M  V30 3957 C 374.168 -5.28406 -2.43232 0
M  V30 3958 N 373.144 -4.6586 -2.80135 0
M  V30 3959 H 376.946 -2.7201 -1.11301 0
M  V30 3960 H 374.46 -1.53826 -0.520705 0
M  V30 3961 H 376.457 -2.22299 -3.52688 0
M  V30 3962 H 375.117 -1.15416 -3.03495 0
M  V30 3963 H 376.128 -4.73227 -2.1042 0
M  V30 3964 H 372.805 -2.47786 -3.36018 0
M  V30 3965 H 374.195 -6.34903 -2.19882 0
M  V30 3966 N 376.915 0.57481 -1.46744 0
M  V30 3967 C 377.845 1.69337 -1.60771 0
M  V30 3968 C 378.826 1.63825 -0.457736 0
M  V30 3969 O 380.011 1.8172 -0.684947 0
M  V30 3970 C 377.141 3.0798 -1.60517 0
M  V30 3971 C 376.095 3.28327 -2.74564 0
M  V30 3972 C 375.421 4.67578 -2.59373 0
M  V30 3973 C 376.721 3.15398 -4.16319 0
M  V30 3974 H 378.415 1.57853 -2.54407 0
M  V30 3975 H 375.961 0.75799 -1.22436 0
M  V30 3976 H 377.914 3.86061 -1.68923 0
M  V30 3977 H 376.638 3.20381 -0.634305 0
M  V30 3978 H 375.297 2.52649 -2.65639 0
M  V30 3979 H 374.945 4.76755 -1.60353 0
M  V30 3980 H 374.645 4.82144 -3.35873 0
M  V30 3981 H 376.169 5.47817 -2.69682 0
M  V30 3982 H 377.583 3.83315 -4.26313 0
M  V30 3983 H 375.98 3.41482 -4.93468 0
M  V30 3984 H 377.05 2.12372 -4.3592 0
M  V30 3985 N 378.394 1.34581 0.820102 0
M  V30 3986 C 379.624 1.29991 1.6058 0
M  V30 3987 C 380.032 -0.127588 1.88769 0
M  V30 3988 O 379.375 -1.08595 1.48165 0
M  V30 3989 C 379.437 2.02548 2.9701 0
M  V30 3990 C 379.101 3.51794 2.91701 0
M  V30 3991 C 380.098 4.46647 2.66087 0
M  V30 3992 C 377.783 3.94249 3.11245 0
M  V30 3993 C 379.777 5.81929 2.60071 0
M  V30 3994 C 377.464 5.2963 3.04853 0
M  V30 3995 C 378.462 6.23282 2.793 0
M  V30 3996 O 378.15 7.56181 2.72847 0
M  V30 3997 H 377.882 0.448539 0.505756 0
M  V30 3998 H 380.436 1.77811 1.02822 0
M  V30 3999 H 378.666 1.49345 3.56697 0
M  V30 4000 H 380.355 1.91211 3.58041 0
M  V30 4001 H 381.121 4.15168 2.5072 0
M  V30 4002 H 377 3.21749 3.30149 0
M  V30 4003 H 380.544 6.54999 2.40046 0
M  V30 4004 H 376.441 5.60727 3.19774 0
M  V30 4005 H 377.209 7.6595 2.88553 0
M  V30 4006 N 379.872 -1.04064 1.18357 0
M  V30 4007 C 381.12 -1.76915 0.977013 0
M  V30 4008 C 381.441 -1.88624 -0.494577 0
M  V30 4009 O 380.711 -1.41125 -1.3587 0
M  V30 4010 H 379.291 -0.65535 0.358504 0
M  V30 4011 H 381.953 -1.25592 1.49039 0
M  V30 4012 H 381.049 -2.78178 1.41504 0
M  V30 4013 N 381.35 -0.985608 -1.22978 0
M  V30 4014 C 382.282 -0.488154 -2.23941 0
M  V30 4015 C 383.295 0.41282 -1.57479 0
M  V30 4016 O 384.484 0.216121 -1.77187 0
M  V30 4017 C 381.584 0.312611 -3.37455 0
M  V30 4018 C 380.757 -0.582741 -4.33501 0
M  V30 4019 C 379.816 0.165064 -5.25941 0
M  V30 4020 O 378.842 -0.447077 -5.67442 0
M  V30 4021 N 380.044 1.44953 -5.62111 0
M  V30 4022 H 382.809 -1.3563 -2.67254 0
M  V30 4023 H 380.37 -0.859477 -1.37203 0
M  V30 4024 H 382.362 0.821357 -3.96277 0
M  V30 4025 H 380.932 1.0818 -2.93285 0
M  V30 4026 H 380.152 -1.27225 -3.73105 0
M  V30 4027 H 381.44 -1.19275 -4.94622 0
M  V30 4028 H 380.838 1.9683 -5.30353 0
M  V30 4029 H 379.395 1.90361 -6.23383 0
M  V30 4030 N 382.828 1.3818 -0.7579 0
M  V30 4031 C 384.239 1.82726 -0.383134 0
M  V30 4032 C 384.59 1.63214 1.08884 0
M  V30 4033 O 383.715 1.13566 1.84205 0
M  V30 4034 C 384.31 3.31728 -0.688631 0
M  V30 4035 C 382.869 3.74606 -0.367091 0
M  V30 4036 C 382.016 2.60896 -0.939599 0
M  V30 4037 H 384.967 1.26847 -0.953699 0
M  V30 4038 H 384.988 3.80487 0.0316492 0
M  V30 4039 H 384.5 3.45898 -1.76001 0
M  V30 4040 H 382.601 3.66013 0.697532 0
M  V30 4041 H 382.714 4.71215 -0.865658 0
M  V30 4042 H 381.078 2.52075 -0.3647 0
M  V30 4043 H 381.861 2.77864 -2.0161 0
M  V30 4044 N 384.306 0.507319 1.49211 0
M  V30 4045 C 385.552 -0.0269732 2.03382 0
M  V30 4046 C 385.907 -1.34111 1.37957 0
M  V30 4047 O 385.2 -1.84733 0.508351 0
M  V30 4048 C 385.394 -0.229513 3.56662 0
M  V30 4049 C 385.223 1.06344 4.36945 0
M  V30 4050 C 383.993 1.617 4.78729 0
M  V30 4051 C 386.191 1.96833 4.75143 0
M  V30 4052 N 384.173 2.8552 5.43463 0
M  V30 4053 C 385.544 3.0523 5.39661 0
M  V30 4054 C 387.599 1.97434 4.57082 0
M  V30 4055 C 386.302 4.14265 5.88028 0
M  V30 4056 C 388.328 3.05448 5.06414 0
M  V30 4057 C 387.69 4.12564 5.70938 0
M  V30 4058 H 383.789 0.0310673 0.781383 0
M  V30 4059 H 386.373 0.683579 1.82305 0
M  V30 4060 H 384.544 -0.909127 3.7761 0
M  V30 4061 H 386.276 -0.761377 3.97473 0
M  V30 4062 H 383.031 1.16132 4.59141 0
M  V30 4063 H 383.455 3.48499 5.80412 0
M  V30 4064 H 388.097 1.15924 4.06597 0
M  V30 4065 H 385.815 4.96569 6.3753 0
M  V30 4066 H 389.401 3.06941 4.94246 0
M  V30 4067 H 388.281 4.94767 6.0842 0
M  V30 4068 N 385.784 -1.5574 0.241426 0
M  V30 4069 C 387.195 -1.84842 -0.262755 0
M  V30 4070 C 387.546 -1.16317 -1.58003 0
M  V30 4071 O 386.671 -0.439653 -2.11887 0
M  V30 4072 C 387.266 -3.35332 -0.483523 0
M  V30 4073 C 385.825 -3.6468 -0.931977 0
M  V30 4074 C 384.972 -2.77299 -0.0061151 0
M  V30 4075 H 387.923 -1.51761 0.464129 0
M  V30 4076 H 387.944 -3.56615 -1.32688 0
M  V30 4077 H 387.456 -3.85178 0.47537 0
M  V30 4078 H 385.557 -3.20307 -1.90353 0
M  V30 4079 H 385.67 -4.72498 -0.792628 0
M  V30 4080 H 384.034 -2.49408 -0.516503 0
M  V30 4081 H 384.817 -3.2995 0.948052 0
M  V30 4082 N 387.262 0.0317525 -1.57568 0
M  V30 4083 C 388.49 0.734949 -1.93407 0
M  V30 4084 C 388.905 1.69036 -0.84096 0
M  V30 4085 O 388.262 1.81582 0.182836 0
M  V30 4086 C 388.313 1.49432 -3.29169 0
M  V30 4087 O 388.034 0.577261 -4.3428 0
M  V30 4088 C 389.535 2.29492 -3.79273 0
M  V30 4089 H 386.755 0.206706 -0.638368 0
M  V30 4090 H 389.299 -0.00992046 -2.04498 0
M  V30 4091 H 387.454 2.1911 -3.19483 0
M  V30 4092 H 387.868 1.10952 -5.1263 0
M  V30 4093 H 389.342 2.78172 -4.76785 0
M  V30 4094 H 389.819 3.10794 -3.10328 0
M  V30 4095 H 390.425 1.64894 -3.92033 0
M  V30 4096 N 388.74 1.54641 0.303973 0
M  V30 4097 C 389.986 1.74038 1.04109 0
M  V30 4098 C 390.319 0.523051 1.87024 0
M  V30 4099 O 389.594 -0.479874 1.88487 0
M  V30 4100 C 389.877 3.02761 1.94955 0
M  V30 4101 C 389.73 4.34787 1.1524 0
M  V30 4102 C 391.049 3.27336 2.94175 0
M  V30 4103 H 388.168 0.63323 0.377079 0
M  V30 4104 H 390.81 1.87354 0.316001 0
M  V30 4105 H 388.96 2.9154 2.56782 0
M  V30 4106 H 390.632 4.57922 0.557236 0
M  V30 4107 H 388.875 4.31407 0.455053 0
M  V30 4108 H 389.546 5.21116 1.8205 0
M  V30 4109 H 392.022 3.38148 2.42477 0
M  V30 4110 H 390.898 4.18726 3.54908 0
M  V30 4111 H 391.159 2.45491 3.67677 0
M  V30 4112 N 390.218 -0.567019 1.47046 0
M  V30 4113 C 391.446 -1.35027 1.56765 0
M  V30 4114 C 391.861 -1.8758 0.214316 0
M  V30 4115 O 391.218 -1.64471 -0.790919 0
M  V30 4116 C 391.269 -2.52698 2.58507 0
M  V30 4117 O 390.99 -2.0232 3.88585 0
M  V30 4118 C 392.491 -3.45043 2.78316 0
M  V30 4119 H 389.711 -0.41195 0.529658 0
M  V30 4120 H 392.255 -0.687832 1.92585 0
M  V30 4121 H 390.41 -3.149 2.25648 0
M  V30 4122 H 390.824 -2.79068 4.44096 0
M  V30 4123 H 392.298 -4.2405 3.53391 0
M  V30 4124 H 392.775 -3.97971 1.85784 0
M  V30 4125 H 393.381 -2.88665 3.12334 0
M  V30 4126 N 391.696 -1.35014 -0.812953 0
M  V30 4127 C 392.921 -1.31187 -1.60639 0
M  V30 4128 C 393.346 0.109382 -1.87782 0
M  V30 4129 O 392.704 1.07424 -1.46047 0
M  V30 4130 C 392.752 -2.11809 -2.91838 0
M  V30 4131 O 391.856 -1.49444 -3.8437 0
M  V30 4132 H 391.197 -0.450084 -0.488181 0
M  V30 4133 H 393.727 -1.77963 -1.00947 0
M  V30 4134 H 393.737 -2.23531 -3.41318 0
M  V30 4135 H 392.412 -3.15137 -2.71407 0
M  V30 4136 H 390.989 -1.46524 -3.42907 0
M  V30 4137 N 393.175 1.03435 -1.18907 0
M  V30 4138 C 394.591 1.28973 -0.940111 0
M  V30 4139 C 394.791 1.97676 0.390691 0
M  V30 4140 O 393.847 2.26127 1.12352 0
M  V30 4141 C 395.16 2.14221 -2.11021 0
M  V30 4142 C 396.708 2.27547 -2.14922 0
M  V30 4143 C 397.183 3.16164 -3.31367 0
M  V30 4144 N 398.674 3.23752 -3.31269 0
M  V30 4145 C 399.409 3.92495 -4.18014 0
M  V30 4146 N 398.905 4.63515 -5.14904 0
M  V30 4147 N 400.698 3.88838 -4.05908 0
M  V30 4148 H 392.849 0.57252 -2.04538 0
M  V30 4149 H 395.112 0.315184 -0.894071 0
M  V30 4150 H 394.818 1.71054 -3.073 0
M  V30 4151 H 394.692 3.14919 -2.0762 0
M  V30 4152 H 397.079 2.69947 -1.19217 0
M  V30 4153 H 397.16 1.26418 -2.22378 0
M  V30 4154 H 396.804 2.74474 -4.27348 0
M  V30 4155 H 396.734 4.17339 -3.21148 0
M  V30 4156 H 399.225 2.73167 -2.61129 0
M  V30 4157 H 399.538 5.13583 -5.77453 0
M  V30 4158 H 397.883 4.62398 -5.18857 0
M  V30 4159 H 401.074 3.32491 -3.29495 0
M  V30 4160 H 401.247 4.4214 -4.73726 0
M  V30 4161 N 394.653 0.992116 1.22453 0
M  V30 4162 C 395.881 0.685944 1.95198 0
M  V30 4163 C 396.296 -0.749233 1.73297 0
M  V30 4164 O 395.653 -1.50549 1.03156 0
M  V30 4165 C 395.704 0.981395 3.47924 0
M  V30 4166 O 395.425 2.36018 3.6909 0
M  V30 4167 C 396.926 0.692815 4.37853 0
M  V30 4168 H 394.146 0.253821 0.621141 0
M  V30 4169 H 396.69 1.32668 1.55626 0
M  V30 4170 H 394.845 0.386481 3.85467 0
M  V30 4171 H 395.259 2.45884 4.63294 0
M  V30 4172 H 396.733 0.949818 5.43767 0
M  V30 4173 H 397.21 -0.373181 4.37612 0
M  V30 4174 H 397.816 1.26874 4.05935 0
M  V30 4175 N 396.131 -1.37776 0.765217 0
M  V30 4176 C 397.542 -1.82521 0.392819 0
M  V30 4177 C 397.893 -1.63789 -1.08017 0
M  V30 4178 O 397.018 -1.14542 -1.83601 0
M  V30 4179 C 397.613 -3.31358 0.706214 0
M  V30 4180 C 396.172 -3.74406 0.386952 0
M  V30 4181 C 395.319 -2.60394 0.953422 0
M  V30 4182 H 398.27 -1.2634 0.960412 0
M  V30 4183 H 398.291 -3.80498 -0.0114706 0
M  V30 4184 H 397.803 -3.44959 1.77833 0
M  V30 4185 H 395.904 -3.66377 -0.678112 0
M  V30 4186 H 396.017 -4.70749 0.890636 0
M  V30 4187 H 394.381 -2.51878 0.378064 0
M  V30 4188 H 395.164 -2.76791 2.03081 0
M  V30 4189 N 397.609 -0.515225 -1.4894 0
M  V30 4190 C 398.572 0.244681 -2.2789 0
M  V30 4191 C 399.572 0.881166 -1.34507 0
M  V30 4192 O 400.762 0.743497 -1.57537 0
M  V30 4193 C 397.894 1.35247 -3.12923 0
M  V30 4194 H 399.087 -0.448289 -2.96531 0
M  V30 4195 H 396.64 -0.270656 -1.53939 0
M  V30 4196 H 397.375 2.07916 -2.48881 0
M  V30 4197 H 397.16 0.901374 -3.81599 0
M  V30 4198 H 398.65 1.88737 -3.72516 0
M  V30 4199 N 399.087 1.5561 -0.249682 0
M  V30 4200 C 400.017 2.24477 0.642826 0
M  V30 4201 C 400.998 1.22601 1.17911 0
M  V30 4202 O 402.183 1.5126 1.21795 0
M  V30 4203 C 399.313 2.94638 1.83863 0
M  V30 4204 C 398.267 4.03227 1.435 0
M  V30 4205 C 397.593 4.60828 2.71186 0
M  V30 4206 C 398.893 5.18796 0.604002 0
M  V30 4207 H 400.587 2.99321 0.0685625 0
M  V30 4208 H 398.133 1.43965 0.0315363 0
M  V30 4209 H 400.086 3.41517 2.46868 0
M  V30 4210 H 398.81 2.17287 2.43832 0
M  V30 4211 H 397.469 3.57121 0.828275 0
M  V30 4212 H 397.117 3.80174 3.29358 0
M  V30 4213 H 396.817 5.34132 2.44901 0
M  V30 4214 H 398.341 5.10442 3.35084 0
M  V30 4215 H 399.755 5.61883 1.13842 0
M  V30 4216 H 398.152 5.98506 0.437097 0
M  V30 4217 H 399.222 4.83384 -0.383147 0
M  V30 4218 N 400.565 -0.0233959 1.57583 0
M  V30 4219 C 401.813 -0.711654 1.89156 0
M  V30 4220 C 402.134 -1.75591 0.848096 0
M  V30 4221 O 401.404 -1.95547 -0.117566 0
M  V30 4222 H 399.984 -0.265835 0.698098 0
M  V30 4223 H 402.646 0.0119948 1.94896 0
M  V30 4224 H 401.742 -1.19766 2.88206 0
M  V30 4225 N 402.043 -1.548 -0.295768 0
M  V30 4226 C 403.454 -1.65274 -0.868411 0
M  V30 4227 C 403.805 -0.56481 -1.87894 0
M  V30 4228 O 402.93 0.29767 -2.14343 0
M  V30 4229 C 403.525 -2.99603 -1.58188 0
M  V30 4230 C 402.084 -3.12181 -2.10286 0
M  V30 4231 C 401.231 -2.6098 -0.93727 0
M  V30 4232 H 404.182 -1.58534 -0.0726422 0
M  V30 4233 H 404.203 -2.91319 -2.44772 0
M  V30 4234 H 403.715 -3.78764 -0.846151 0
M  V30 4235 H 401.816 -2.3775 -2.8689 0
M  V30 4236 H 401.929 -4.18415 -2.33379 0
M  V30 4237 H 400.293 -2.17564 -1.32431 0
M  V30 4238 H 401.076 -3.42623 -0.215414 0
M  V30 4239 N 403.521 0.559213 -1.47345 0
M  V30 4240 C 404.453 1.68161 -1.55738 0
M  V30 4241 C 405.466 1.56636 -0.443744 0
M  V30 4242 O 406.655 1.6363 -0.713258 0
M  V30 4243 C 403.755 3.06611 -1.4437 0
M  V30 4244 C 402.928 3.4391 -2.70268 0
M  V30 4245 C 401.987 4.61515 -2.52765 0
M  V30 4246 O 401.013 4.66197 -3.26572 0
M  V30 4247 N 402.215 5.57883 -1.6046 0
M  V30 4248 H 404.98 1.61408 -2.52522 0
M  V30 4249 H 402.541 0.7458 -1.43699 0
M  V30 4250 H 404.533 3.83117 -1.30398 0
M  V30 4251 H 403.103 3.07602 -0.556766 0
M  V30 4252 H 402.323 2.56873 -2.99015 0
M  V30 4253 H 403.611 3.65605 -3.53851 0
M  V30 4254 H 403.009 5.56855 -0.996422 0
M  V30 4255 H 401.566 6.33723 -1.52441 0
M  V30 4256 N 404.999 1.35443 0.805782 0
M  V30 4257 C 405.962 1.28301 1.89925 0
M  V30 4258 C 406.962 0.194285 1.59622 0
M  V30 4259 O 408.152 0.448036 1.6834 0
M  V30 4260 C 405.284 0.984997 3.2636 0
M  V30 4261 H 406.477 2.2553 1.97677 0
M  V30 4262 H 404.03 1.19979 1.00173 0
M  V30 4263 H 404.765 0.016603 3.24296 0
M  V30 4264 H 404.55 1.77269 3.4974 0
M  V30 4265 H 406.04 0.960651 4.064 0
M  V30 4266 N 406.477 -1.02803 1.19454 0
M  V30 4267 C 407.725 -1.75869 0.995722 0
M  V30 4268 C 408.046 -1.89138 -0.474543 0
M  V30 4269 O 407.316 -1.42558 -1.34366 0
M  V30 4270 H 405.896 -0.651511 0.365435 0
M  V30 4271 H 408.558 -1.24004 1.50363 0
M  V30 4272 H 407.654 -2.76661 1.44447 0
M  V30 4273 N 407.956 -0.998596 -1.21925 0
M  V30 4274 C 409.205 -0.673085 -1.90138 0
M  V30 4275 C 409.518 0.79895 -1.78539 0
M  V30 4276 O 410.724 1.23628 -2.4172 0
M  V30 4277 C 409.18 -1.15339 -3.40918 0
M  V30 4278 C 408.788 -2.65106 -3.61141 0
M  V30 4279 C 410.532 -0.902476 -4.14796 0
M  V30 4280 C 408.439 -3.0671 -5.05651 0
M  V30 4281 H 407.369 -0.248057 -0.712028 0
M  V30 4282 H 410.02 -1.20891 -1.38049 0
M  V30 4283 H 408.402 -0.545658 -3.92223 0
M  V30 4284 H 409.576 -3.31274 -3.20304 0
M  V30 4285 H 407.891 -2.88142 -3.00605 0
M  V30 4286 H 410.488 -1.18895 -5.21314 0
M  V30 4287 H 410.831 0.161349 -4.15987 0
M  V30 4288 H 411.364 -1.47269 -3.69536 0
M  V30 4289 H 408.103 -4.12292 -5.09603 0
M  V30 4290 H 407.623 -2.45249 -5.47369 0
M  V30 4291 H 409.302 -2.9833 -5.74115 0
M  V30 4292 N 409.434 1.37368 -0.772513 0
M  V30 4293 C 410.711 1.93839 -0.26188 0
M  V30 4294 C 411.091 1.7061 1.24319 0
M  V30 4295 O 410.439 1.05534 2.02669 0
M  V30 4296 C 410.649 3.43154 -0.636102 0
M  V30 4297 C 411.997 4.20249 -0.606324 0
M  V30 4298 O 413.021 3.5152 -0.575538 0
M  V30 4299 O 411.88 5.42809 -0.634086 0
M  V30 4300 H 408.974 0.82478 -0.0605555 0
M  V30 4301 H 411.52 1.4665 -0.853917 0
M  V30 4302 H 410.292 3.53647 -1.6748 0
M  V30 4303 H 409.915 3.97596 -0.0170516 0
M  V30 4304 N 410.912 0.523116 1.48665 0
M  V30 4305 C 412.14 -0.0096312 2.06898 0
M  V30 4306 C 412.555 -1.28784 1.38059 0
M  V30 4307 O 411.912 -1.76453 0.465893 0
M  V30 4308 C 411.963 -0.244386 3.60673 0
M  V30 4309 O 411.684 0.983172 4.26925 0
M  V30 4310 C 413.185 -0.818289 4.35682 0
M  V30 4311 H 410.405 0.0304161 0.67031 0
M  V30 4312 H 412.949 0.726799 1.91149 0
M  V30 4313 H 411.104 -0.930847 3.76051 0
M  V30 4314 H 411.518 0.759653 5.1897 0
M  V30 4315 H 412.992 -0.93201 5.44075 0
M  V30 4316 H 413.469 -1.82153 3.99646 0
M  V30 4317 H 414.075 -0.168609 4.24966 0
M  V30 4318 N 412.39 -1.55475 0.257931 0
M  V30 4319 C 413.338 -2.23244 -0.653076 0
M  V30 4320 C 414.332 -1.22366 -1.17144 0
M  V30 4321 O 415.538 -1.40347 -1.12706 0
M  V30 4322 H 411.913 -0.716247 -0.229117 0
M  V30 4323 H 413.884 -2.98343 -0.0584788 0
M  V30 4324 C 412.633 -2.95401 -1.83395 0
M  V30 4325 H 411.956 -3.72802 -1.44424 0
M  V30 4326 H 413.396 -3.46165 -2.44838 0
M  V30 4327 C 411.855 -1.99895 -2.71189 0
M  V30 4328 O 412.385 -1.53909 -3.71046 0
M  V30 4329 N 410.591 -1.6676 -2.3799 0
M  V30 4330 H 410.138 -2.04352 -1.56837 0
M  V30 4331 H 410.096 -1.03127 -2.97005 0
M  V30 4332 N 413.868 0.0150385 -1.57593 0
M  V30 4333 C 414.778 1.02791 -2.10882 0
M  V30 4334 C 415.794 1.38702 -1.0506 0
M  V30 4335 O 416.97 1.47739 -1.36877 0
M  V30 4336 C 414.035 2.30568 -2.58919 0
M  V30 4337 C 413.096 2.01108 -3.79281 0
M  V30 4338 C 412.329 3.22794 -4.25018 0
M  V30 4339 O 412.552 4.33959 -3.70183 0
M  V30 4340 O 411.486 3.07672 -5.17322 0
M  V30 4341 H 415.312 0.604973 -2.97613 0
M  V30 4342 H 412.897 0.23292 -1.47573 0
M  V30 4343 H 414.779 3.05662 -2.90084 0
M  V30 4344 H 413.454 2.72129 -1.75293 0
M  V30 4345 H 412.361 1.23537 -3.53114 0
M  V30 4346 H 413.694 1.64394 -4.63935 0
M  V30 4347 N 415.346 1.54954 0.287554 0
M  V30 4348 C 416.595 1.74081 1.01877 0
M  V30 4349 C 416.908 0.541135 1.87966 0
M  V30 4350 O 418.114 0.614491 2.64455 0
M  V30 4351 C 416.57 3.08042 1.86113 0
M  V30 4352 C 416.178 4.35531 1.04961 0
M  V30 4353 C 417.922 3.36523 2.58752 0
M  V30 4354 C 415.829 5.60538 1.88551 0
M  V30 4355 H 414.759 0.64884 0.384087 0
M  V30 4356 H 417.41 1.81426 0.275101 0
M  V30 4357 H 415.792 2.94696 2.64519 0
M  V30 4358 H 416.966 4.59751 0.31074 0
M  V30 4359 H 415.281 4.14085 0.43843 0
M  V30 4360 H 417.878 4.27122 3.21668 0
M  V30 4361 H 418.221 2.56 3.28283 0
M  V30 4362 H 418.754 3.50901 1.87386 0
M  V30 4363 H 415.493 6.43767 1.23466 0
M  V30 4364 H 415.013 5.40483 2.60074 0
M  V30 4365 H 416.692 5.98297 2.46273 0
M  V30 4366 N 416.824 -0.551391 1.4764 0
M  V30 4367 C 417.787 -1.64007 1.60107 0
M  V30 4368 C 418.787 -1.53601 0.47576 0
M  V30 4369 O 419.977 -1.57655 0.740988 0
M  V30 4370 C 417.109 -3.03569 1.55108 0
M  V30 4371 H 418.302 -1.543 2.57161 0
M  V30 4372 H 415.855 -0.771776 1.35917 0
M  V30 4373 H 416.59 -3.18804 0.594519 0
M  V30 4374 H 416.375 -3.12532 2.36783 0
M  V30 4375 H 417.865 -3.82762 1.66982 0
M  V30 4376 N 418.302 -1.35869 -0.798587 0
M  V30 4377 C 419.713 -1.26498 -1.37314 0
M  V30 4378 C 420.064 0.0991899 -1.95949 0
M  V30 4379 O 419.189 1.0004 -1.91888 0
M  V30 4380 C 419.784 -2.29054 -2.49639 0
M  V30 4381 C 418.343 -2.234 -3.02935 0
M  V30 4382 C 417.49 -2.14329 -1.75949 0
M  V30 4383 H 420.441 -1.46881 -0.600971 0
M  V30 4384 H 420.462 -1.92166 -3.28409 0
M  V30 4385 H 419.974 -3.2833 -2.06933 0
M  V30 4386 H 418.075 -1.27562 -3.50084 0
M  V30 4387 H 418.188 -3.15703 -3.60372 0
M  V30 4388 H 416.552 -1.60435 -1.9782 0
M  V30 4389 H 417.335 -3.15477 -1.35384 0
M  V30 4390 N 419.78 1.02168 -1.19998 0
M  V30 4391 C 420.71 2.12488 -0.96804 0
M  V30 4392 C 421.691 1.69799 0.101185 0
M  V30 4393 O 422.876 1.94121 -0.0552993 0
M  V30 4394 C 420.006 3.43479 -0.513776 0
M  V30 4395 C 418.96 3.99884 -1.52566 0
M  V30 4396 C 418.286 5.26582 -0.928214 0
M  V30 4397 C 419.586 4.33861 -2.90795 0
M  V30 4398 H 421.28 2.32149 -1.89069 0
M  V30 4399 H 418.826 1.11564 -0.910468 0
M  V30 4400 H 420.779 4.20036 -0.338774 0
M  V30 4401 H 419.503 3.23561 0.444493 0
M  V30 4402 H 418.162 3.25429 -1.68794 0
M  V30 4403 H 417.81 5.02986 0.0378289 0
M  V30 4404 H 417.51 5.65284 -1.60397 0
M  V30 4405 H 419.034 6.05799 -0.764167 0
M  V30 4406 H 420.448 5.01327 -2.78109 0
M  V30 4407 H 418.845 4.83664 -3.55231 0
M  V30 4408 H 419.915 3.42848 -3.42904 0
M  V30 4409 N 421.258 1.00505 1.21394 0
M  V30 4410 C 422.168 0.574806 2.27449 0
M  V30 4411 C 423.184 -0.382206 1.6975 0
M  V30 4412 O 424.36 -0.246027 1.99892 0
M  V30 4413 C 421.425 -0.0917414 3.46579 0
M  V30 4414 C 420.486 0.909758 4.1955 0
M  V30 4415 C 419.719 0.274924 5.32991 0
M  V30 4416 O 419.942 -0.928254 5.62796 0
M  V30 4417 O 418.876 0.985877 5.93771 0
M  V30 4418 H 422.702 1.45744 2.66444 0
M  V30 4419 H 420.287 0.773923 1.27792 0
M  V30 4420 H 422.169 -0.464551 4.18832 0
M  V30 4421 H 420.844 -0.948755 3.09484 0
M  V30 4422 H 419.751 1.33372 3.49518 0
M  V30 4423 H 421.084 1.73636 4.60555 0
M  V30 4424 N 422.737 -1.36956 0.779787 0
M  V30 4425 C 424.148 -1.82094 0.412156 0
M  V30 4426 C 424.499 -1.64926 -1.06273 0
M  V30 4427 O 423.624 -1.16483 -1.82375 0
M  V30 4428 C 424.219 -3.3059 0.741319 0
M  V30 4429 C 422.778 -3.73974 0.426641 0
M  V30 4430 C 421.925 -2.59368 0.980987 0
M  V30 4431 H 424.876 -1.25314 0.973758 0
M  V30 4432 H 424.897 -3.80489 0.028887 0
M  V30 4433 H 424.409 -3.43054 1.81482 0
M  V30 4434 H 422.51 -3.67076 -0.639215 0
M  V30 4435 H 422.623 -4.69778 0.940515 0
M  V30 4436 H 420.987 -2.51463 0.404757 0
M  V30 4437 H 421.77 -2.74621 2.06005 0
M  V30 4438 N 424.215 -0.530993 -1.48385 0
M  V30 4439 C 425.492 0.0671788 -1.95485 0
M  V30 4440 C 425.872 1.51191 -1.47324 0
M  V30 4441 O 425.22 2.17507 -0.700202 0
M  V30 4442 C 425.43 -0.0511206 -3.48963 0
M  V30 4443 C 426.778 0.107632 -4.24464 0
M  V30 4444 O 427.802 0.0226248 -3.56193 0
M  V30 4445 O 426.661 0.285972 -5.45751 0
M  V30 4446 H 423.755 0.0787365 -0.823243 0
M  V30 4447 H 426.301 -0.595662 -1.58902 0
M  V30 4448 H 425.073 -1.05747 -3.7674 0
M  V30 4449 H 424.696 0.650525 -3.92242 0
M  V30 4450 N 425.693 1.55336 -0.266172 0
M  V30 4451 C 426.656 2.20878 0.612001 0
M  V30 4452 C 427.656 1.18388 1.08816 0
M  V30 4453 O 428.846 1.4335 0.989774 0
M  V30 4454 C 425.978 2.86765 1.84332 0
M  V30 4455 H 427.171 2.99873 0.0398718 0
M  V30 4456 H 424.724 1.56291 -0.0167309 0
M  V30 4457 H 425.459 2.11759 2.45619 0
M  V30 4458 H 425.244 3.61862 1.5099 0
M  V30 4459 H 426.734 3.36867 2.46801 0
M  V30 4460 N 427.171 -0.0066808 1.57599 0
M  V30 4461 C 428.582 -0.550379 1.78403 0
M  V30 4462 C 428.933 -1.74339 0.900014 0
M  V30 4463 O 428.058 -2.16166 0.100713 0
M  V30 4464 C 428.653 -1.00523 3.23544 0
M  V30 4465 C 427.212 -1.49428 3.45468 0
M  V30 4466 C 426.359 -0.442444 2.73748 0
M  V30 4467 H 429.31 0.219508 1.57175 0
M  V30 4468 H 429.331 -1.87157 3.31289 0
M  V30 4469 H 428.843 -0.136735 3.87859 0
M  V30 4470 H 426.944 -2.3839 2.86358 0
M  V30 4471 H 427.057 -1.52635 4.54136 0
M  V30 4472 H 425.421 -0.902578 2.38171 0
M  V30 4473 H 426.204 0.416973 3.40758 0
M  V30 4474 N 428.649 -1.55105 -0.279332 0
M  V30 4475 C 430.06 -1.66186 -0.850832 0
M  V30 4476 C 430.411 -0.584707 -1.87285 0
M  V30 4477 O 429.536 0.274919 -2.14647 0
M  V30 4478 C 430.131 -3.01264 -1.55001 0
M  V30 4479 C 428.69 -3.14394 -2.06963 0
M  V30 4480 C 427.837 -2.61959 -0.909536 0
M  V30 4481 H 430.788 -1.58602 -0.0558235 0
M  V30 4482 H 430.809 -2.93899 -2.41669 0
M  V30 4483 H 430.321 -3.7964 -0.805931 0
M  V30 4484 H 428.422 -2.4078 -2.84352 0
M  V30 4485 H 428.535 -4.20867 -2.28928 0
M  V30 4486 H 426.899 -2.18957 -1.30116 0
M  V30 4487 H 427.682 -3.42833 -0.179062 0
M  V30 4488 N 430.127 0.543554 -1.4793 0
M  V30 4489 C 431.404 1.30458 -1.4574 0
M  V30 4490 C 431.784 2.1048 -0.161692 0
M  V30 4491 O 431.132 2.11831 0.856734 0
M  V30 4492 C 431.342 2.19754 -2.71126 0
M  V30 4493 C 432.69 2.80334 -3.18901 0
M  V30 4494 O 433.714 2.30049 -2.71948 0
M  V30 4495 O 432.573 3.71766 -4.00565 0
M  V30 4496 H 429.667 0.588117 -0.581418 0
M  V30 4497 H 432.213 0.561328 -1.60147 0
M  V30 4498 H 430.985 1.60316 -3.56952 0
M  V30 4499 H 430.608 3.01351 -2.59371 0
M  V30 4500 N 431.605 1.3629 0.791371 0
M  V30 4501 C 432.568 1.30309 1.88553 0
M  V30 4502 C 433.568 0.211204 1.59407 0
M  V30 4503 O 434.758 0.465865 1.67855 0
M  V30 4504 C 431.89 1.01956 3.25297 0
M  V30 4505 H 433.083 2.27614 1.95273 0
M  V30 4506 H 430.636 1.21035 0.988953 0
M  V30 4507 H 431.371 0.050998 3.2426 0
M  V30 4508 H 431.156 1.80968 3.4784 0
M  V30 4509 H 432.646 1.0037 4.05359 0
M  V30 4510 N 433.083 -1.0153 1.20538 0
M  V30 4511 C 434.323 -1.76689 1.02763 0
M  V30 4512 C 434.687 -1.87065 -0.432513 0
M  V30 4513 O 435.888 -2.58684 -0.730481 0
M  V30 4514 C 434.159 -3.14707 1.69393 0
M  V30 4515 S 435.718 -4.05886 1.66738 0
M  V30 4516 H 432.536 -0.608076 0.368463 0
M  V30 4517 H 435.138 -1.21558 1.53114 0
M  V30 4518 H 433.842 -3.04782 2.74838 0
M  V30 4519 H 433.373 -3.74913 1.19179 0
M  V30 4520 H 435.388 -4.91221 0.70117 0
M  V30 4521 N 434.561 -1.01147 -1.20859 0
M  V30 4522 C 435.471 -0.58686 -2.27141 0
M  V30 4523 C 436.487 0.373198 -1.69951 0
M  V30 4524 O 437.663 0.235423 -2.00019 0
M  V30 4525 C 434.728 0.0733602 -3.46622 0
M  V30 4526 C 433.789 -0.931995 -4.19061 0
M  V30 4527 C 433.022 -0.303186 -5.32838 0
M  V30 4528 O 433.245 0.898395 -5.63281 0
M  V30 4529 O 432.179 -1.01735 -5.9324 0
M  V30 4530 H 436.005 -1.47155 -2.65667 0
M  V30 4531 H 433.59 -0.780689 -1.2738 0
M  V30 4532 H 435.472 0.442333 -4.19072 0
M  V30 4533 H 434.147 0.932329 -3.09983 0
M  V30 4534 H 433.054 -1.35224 -3.48805 0
M  V30 4535 H 434.387 -1.76076 -4.59628 0
M  V30 4536 N 436.039 1.36541 -0.78704 0
M  V30 4537 C 437.002 2.28413 -0.189778 0
M  V30 4538 C 438.002 1.48719 0.611499 0
M  V30 4539 O 439.192 1.68737 0.432842 0
M  V30 4540 C 436.324 3.32824 0.737638 0
M  V30 4541 H 437.517 2.82743 -0.999831 0
M  V30 4542 H 435.07 1.46065 -0.556298 0
M  V30 4543 H 435.805 2.83646 1.57212 0
M  V30 4544 H 435.59 3.91752 0.165044 0
M  V30 4545 H 437.08 4.0144 1.15047 0
M  V30 4546 N 437.518 0.538854 1.48102 0
M  V30 4547 C 438.743 0.0102694 2.07397 0
M  V30 4548 C 439.168 -1.26562 1.39153 0
M  V30 4549 O 438.526 -1.75357 0.460387 0
M  V30 4550 C 438.574 -0.187602 3.60112 0
M  V30 4551 O 437.678 -1.25432 3.92862 0
M  V30 4552 H 437.019 0.0430975 0.6626 0
M  V30 4553 H 439.549 0.749301 1.90385 0
M  V30 4554 H 439.559 -0.407517 4.0596 0
M  V30 4555 H 438.234 0.744386 4.09184 0
M  V30 4556 H 436.811 -1.01636 3.58782 0
M  V30 4557 N 438.996 -1.55193 0.274407 0
M  V30 4558 C 440.243 -1.99581 -0.342579 0
M  V30 4559 C 440.571 -1.1628 -1.55914 0
M  V30 4560 O 439.826 -0.22029 -1.94456 0
M  V30 4561 C 440.125 -3.49019 -0.769458 0
M  V30 4562 C 439.791 -4.49598 0.342389 0
M  V30 4563 C 438.453 -4.76821 0.647686 0
M  V30 4564 C 440.805 -5.0964 1.09163 0
M  V30 4565 C 438.133 -5.61354 1.70581 0
M  V30 4566 C 440.485 -5.95323 2.13948 0
M  V30 4567 C 439.149 -6.20867 2.45113 0
M  V30 4568 H 438.419 -0.730319 -0.125358 0
M  V30 4569 H 441.066 -1.87529 0.387971 0
M  V30 4570 H 439.371 -3.58544 -1.57967 0
M  V30 4571 H 441.068 -3.8077 -1.25757 0
M  V30 4572 H 437.658 -4.28496 0.094318 0
M  V30 4573 H 441.842 -4.88632 0.869024 0
M  V30 4574 H 437.098 -5.79392 1.9523 0
M  V30 4575 H 441.272 -6.40881 2.72478 0
M  V30 4576 H 438.899 -6.86162 3.27239 0
M  V30 4577 N 440.474 -0.00167713 -1.576 0
M  V30 4578 C 441.751 0.719951 -1.81868 0
M  V30 4579 C 442.131 1.91895 -0.879747 0
M  V30 4580 O 441.479 2.28389 0.0711423 0
M  V30 4581 C 441.689 1.12409 -3.30402 0
M  V30 4582 C 443.037 1.52724 -3.96182 0
M  V30 4583 O 444.061 1.21784 -3.34734 0
M  V30 4584 O 442.92 2.10265 -5.04431 0
M  V30 4585 H 440.014 0.350707 -0.748955 0
M  V30 4586 H 442.56 -0.0272597 -1.69678 0
M  V30 4587 H 441.332 0.269532 -3.90371 0
M  V30 4588 H 440.955 1.93035 -3.47596 0
M  V30 4589 N 441.952 1.55251 0.271103 0
M  V30 4590 C 442.915 1.87484 1.31842 0
M  V30 4591 C 443.915 0.749545 1.42262 0
M  V30 4592 O 445.105 1.01771 1.4138 0
M  V30 4593 C 442.237 2.0818 2.69951 0
M  V30 4594 H 443.43 2.81108 1.0449 0
M  V30 4595 H 440.983 1.47771 0.509258 0
M  V30 4596 H 441.718 1.16944 3.02481 0
M  V30 4597 H 441.503 2.90114 2.63774 0
M  V30 4598 H 442.993 2.34385 3.4562 0
M  V30 4599 N 443.43 -0.535701 1.48216 0
M  V30 4600 C 444.676 -1.29375 1.56173 0
M  V30 4601 C 445.009 -1.92804 0.232429 0
M  V30 4602 O 444.284 -1.78992 -0.761048 0
M  V30 4603 C 444.567 -2.38747 2.69577 0
M  V30 4604 C 444.42 -1.80046 4.12193 0
M  V30 4605 C 445.739 -3.40551 2.78771 0
M  V30 4606 H 442.858 -0.469027 0.568491 0
M  V30 4607 H 445.5 -0.597358 1.80365 0
M  V30 4608 H 443.65 -2.98147 2.4908 0
M  V30 4609 H 445.322 -1.24742 4.44114 0
M  V30 4610 H 443.565 -1.10609 4.19462 0
M  V30 4611 H 444.236 -2.59212 4.87353 0
M  V30 4612 H 446.712 -2.91099 2.97322 0
M  V30 4613 H 445.588 -4.1448 3.59857 0
M  V30 4614 H 445.849 -4.00746 1.86696 0
M  V30 4615 N 444.908 -1.36708 -0.784132 0
M  V30 4616 C 446.133 -1.34565 -1.5782 0
M  V30 4617 C 446.558 0.0695257 -1.87971 0
M  V30 4618 O 445.916 1.04302 -1.48293 0
M  V30 4619 C 445.964 -2.17952 -2.87279 0
M  V30 4620 O 445.068 -1.57563 -3.81114 0
M  V30 4621 H 444.409 -0.460337 -0.478524 0
M  V30 4622 H 446.939 -1.80064 -0.971495 0
M  V30 4623 H 446.949 -2.30721 -3.365 0
M  V30 4624 H 445.624 -3.20823 -2.64661 0
M  V30 4625 H 444.201 -1.53764 -3.39722 0
M  V30 4626 N 446.386 1.0089 -1.21074 0
M  V30 4627 C 447.614 1.78191 -1.05145 0
M  V30 4628 C 448.029 1.84537 0.398952 0
M  V30 4629 O 447.386 1.30393 1.27687 0
M  V30 4630 C 447.437 3.22288 -1.63746 0
M  V30 4631 O 447.158 3.16315 -3.03111 0
M  V30 4632 C 448.659 4.16106 -1.52875 0
M  V30 4633 H 445.879 0.560129 -0.369454 0
M  V30 4634 H 448.423 1.26945 -1.60328 0
M  V30 4635 H 446.578 3.70655 -1.12664 0
M  V30 4636 H 446.992 4.06817 -3.31059 0
M  V30 4637 H 448.466 5.15026 -1.98626 0
M  V30 4638 H 448.943 4.36541 -0.482521 0
M  V30 4639 H 449.549 3.73625 -2.03185 0
M  V30 4640 N 447.864 1.01787 1.20321 0
M  V30 4641 C 449.113 0.703249 1.89043 0
M  V30 4642 C 449.426 -0.770445 1.79787 0
M  V30 4643 O 450.632 -1.19767 2.43656 0
M  V30 4644 C 449.088 1.20749 3.3904 0
M  V30 4645 C 448.696 2.70817 3.56878 0
M  V30 4646 C 450.44 0.968352 4.13308 0
M  V30 4647 C 448.347 3.14716 5.00708 0
M  V30 4648 H 447.277 0.259354 0.707991 0
M  V30 4649 H 449.928 1.23072 1.36108 0
M  V30 4650 H 448.31 0.607989 3.91305 0
M  V30 4651 H 449.484 3.36327 3.14993 0
M  V30 4652 H 447.799 2.92888 2.95983 0
M  V30 4653 H 450.396 1.27173 5.19356 0
M  V30 4654 H 450.739 -0.095149 4.16191 0
M  V30 4655 H 451.272 1.53129 3.67146 0
M  V30 4656 H 448.011 4.20347 5.02979 0
M  V30 4657 H 447.531 2.53927 5.43398 0
M  V30 4658 H 449.21 3.07426 5.69296 0
M  V30 4659 N 449.342 -1.36122 0.79427 0
M  V30 4660 C 450.758 -1.5232 0.476525 0
M  V30 4661 C 450.958 -1.74685 -1.00436 0
M  V30 4662 O 450.014 -1.78115 -1.78973 0
M  V30 4663 C 451.327 -2.70607 1.31119 0
M  V30 4664 C 452.875 -2.8448 1.30537 0
M  V30 4665 C 453.35 -4.05778 2.12387 0
M  V30 4666 N 454.841 -4.12933 2.09859 0
M  V30 4667 C 455.576 -5.05876 2.69957 0
M  V30 4668 N 455.072 -6.04232 3.38934 0
M  V30 4669 N 456.865 -4.98528 2.59665 0
M  V30 4670 H 449.016 -1.1986 1.75349 0
M  V30 4671 H 451.279 -0.585418 0.745647 0
M  V30 4672 H 450.985 -2.60619 2.36158 0
M  V30 4673 H 450.859 -3.64888 0.955843 0
M  V30 4674 H 453.246 -2.93927 0.262876 0
M  V30 4675 H 453.327 -1.91093 1.70051 0
M  V30 4676 H 452.971 -3.97092 3.1667 0
M  V30 4677 H 452.901 -4.98323 1.70242 0
M  V30 4678 H 455.392 -3.42515 1.59662 0
M  V30 4679 H 455.705 -6.71724 3.82109 0
M  V30 4680 H 454.05 -6.04443 3.43036 0
M  V30 4681 H 457.241 -4.20641 2.05375 0
M  V30 4682 H 457.414 -5.70773 3.06793 0
M  V30 4683 N 450.82 -0.546701 -1.47814 0
M  V30 4684 C 452.068 -0.0187037 -2.02091 0
M  V30 4685 C 452.389 1.33168 -1.42447 0
M  V30 4686 O 451.659 1.86619 -0.595839 0
M  V30 4687 H 450.239 -0.00392531 -0.74699 0
M  V30 4688 H 452.901 -0.714327 -1.81338 0
M  V30 4689 H 451.997 0.0772219 -3.12004 0
M  V30 4690 N 452.299 1.55045 -0.282633 0
M  V30 4691 C 453.209 2.26491 0.61147 0
M  V30 4692 C 454.225 1.29348 1.16384 0
M  V30 4693 O 455.401 1.62298 1.19253 0
M  V30 4694 C 452.466 2.97779 1.77563 0
M  V30 4695 C 451.527 4.10418 1.25919 0
M  V30 4696 C 450.76 4.78297 2.36786 0
M  V30 4697 O 450.983 4.45426 3.56303 0
M  V30 4698 O 449.917 5.66089 2.04517 0
M  V30 4699 H 453.743 3.03683 0.0324615 0
M  V30 4700 H 451.328 1.49317 -0.0497576 0
M  V30 4701 H 453.21 3.42554 2.45427 0
M  V30 4702 H 451.885 2.23498 2.34159 0
M  V30 4703 H 450.792 3.70082 0.546797 0
M  V30 4704 H 452.125 4.86622 0.738887 0
M  V30 4705 N 453.777 0.010035 1.57597 0
M  V30 4706 C 454.707 -0.976857 2.12084 0
M  V30 4707 C 455.688 -1.35191 1.03235 0
M  V30 4708 O 456.873 -1.43389 1.3097 0
M  V30 4709 C 454.003 -2.26548 2.63236 0
M  V30 4710 C 452.957 -2.03175 3.76701 0
M  V30 4711 C 452.283 -3.38138 4.14206 0
M  V30 4712 C 453.583 -1.38625 5.03568 0
M  V30 4713 H 455.277 -0.523145 2.94794 0
M  V30 4714 H 452.823 -0.250195 1.4181 0
M  V30 4715 H 454.776 -2.95952 2.99984 0
M  V30 4716 H 453.5 -2.74051 1.77661 0
M  V30 4717 H 452.159 -1.36195 3.40362 0
M  V30 4718 H 451.807 -3.83363 3.25641 0
M  V30 4719 H 451.507 -3.23312 4.90656 0
M  V30 4720 H 453.031 -4.08841 4.53521 0
M  V30 4721 H 454.445 -1.98 5.38023 0
M  V30 4722 H 452.842 -1.34256 5.84889 0
M  V30 4723 H 453.912 -0.356722 4.83586 0
M  V30 4724 N 455.255 -1.55392 -0.262866 0
M  V30 4725 C 456.502 -1.76476 -0.993109 0
M  V30 4726 C 456.83 -0.571479 -1.85915 0
M  V30 4727 O 456.085 0.445733 -1.90556 0
M  V30 4728 C 456.384 -3.02889 -1.89718 0
M  V30 4729 C 456.05 -4.34974 -1.18781 0
M  V30 4730 C 454.712 -4.7087 -0.991699 0
M  V30 4731 C 457.064 -5.16695 -0.683798 0
M  V30 4732 C 454.392 -5.86036 -0.279024 0
M  V30 4733 C 456.744 -6.32598 0.0153327 0
M  V30 4734 C 455.408 -6.67127 0.223062 0
M  V30 4735 H 454.678 -0.64577 -0.363404 0
M  V30 4736 H 457.325 -1.89664 -0.264525 0
M  V30 4737 H 455.63 -2.84644 -2.6923 0
M  V30 4738 H 457.327 -3.16399 -2.46359 0
M  V30 4739 H 453.917 -4.06765 -1.35058 0
M  V30 4740 H 458.101 -4.8943 -0.8229 0
M  V30 4741 H 453.357 -6.11306 -0.107456 0
M  V30 4742 H 457.531 -6.95171 0.413584 0
M  V30 4743 H 455.158 -7.56216 0.777265 0
M  V30 4744 N 456.733 0.527833 -1.48498 0
M  V30 4745 C 457.98 1.28354 -1.56625 0
M  V30 4746 C 458.308 1.93 -0.241096 0
M  V30 4747 O 457.563 1.79967 0.768798 0
M  V30 4748 C 457.862 2.39275 -2.65485 0
M  V30 4749 C 457.528 1.92268 -4.07853 0
M  V30 4750 C 456.19 1.79166 -4.46602 0
M  V30 4751 C 458.542 1.56771 -4.97064 0
M  V30 4752 C 455.87 1.28905 -5.72364 0
M  V30 4753 C 458.222 1.07972 -6.23318 0
M  V30 4754 C 456.886 0.934887 -6.60921 0
M  V30 4755 H 456.156 0.469682 -0.573131 0
M  V30 4756 H 458.803 0.588781 -1.82224 0
M  V30 4757 H 457.108 3.1443 -2.33754 0
M  V30 4758 H 458.805 2.974 -2.68988 0
M  V30 4759 H 455.395 2.03417 -3.77252 0
M  V30 4760 H 459.579 1.65753 -4.67803 0
M  V30 4761 H 454.835 1.16381 -6.00221 0
M  V30 4762 H 459.009 0.795775 -6.91838 0
M  V30 4763 H 456.636 0.543231 -7.58257 0
M  V30 4764 N 458.211 1.37122 0.776871 0
M  V30 4765 C 459.458 1.32047 1.53524 0
M  V30 4766 C 459.786 -0.0965631 1.9426 0
M  V30 4767 O 459.041 -1.06866 1.63945 0
M  V30 4768 C 459.34 2.20068 2.81611 0
M  V30 4769 C 459.006 3.68423 2.59953 0
M  V30 4770 C 457.668 4.08854 2.53755 0
M  V30 4771 C 460.02 4.62431 2.40431 0
M  V30 4772 C 457.348 5.41417 2.26018 0
M  V30 4773 C 459.7 5.95225 2.14219 0
M  V30 4774 C 458.364 6.34767 2.06462 0
M  V30 4775 H 457.634 0.483196 0.561785 0
M  V30 4776 H 460.281 1.69284 0.895268 0
M  V30 4777 H 458.586 1.75809 3.50141 0
M  V30 4778 H 460.283 2.13458 3.39465 0
M  V30 4779 H 456.873 3.36354 2.65638 0
M  V30 4780 H 461.057 4.32057 2.44213 0
M  V30 4781 H 456.313 5.71022 2.18504 0
M  V30 4782 H 460.487 6.67626 1.98112 0
M  V30 4783 H 458.114 7.37413 1.84733 0
M  V30 4784 N 459.689 -1.00246 1.21608 0
M  V30 4785 C 460.636 -2.09073 0.977613 0
M  V30 4786 C 461.606 -1.65815 -0.097297 0
M  V30 4787 O 462.791 -1.90734 0.0503445 0
M  V30 4788 C 459.931 -3.40671 0.551133 0
M  V30 4789 C 459.044 -3.97326 1.69576 0
M  V30 4790 C 458.179 -5.17043 1.2182 0
M  V30 4791 C 457.218 -5.65813 2.335 0
M  V30 4792 N 456.355 -6.76778 1.86859 0
M  V30 4793 H 461.195 -2.28806 1.90924 0
M  V30 4794 H 458.732 -1.12186 0.951452 0
M  V30 4795 H 460.69 -4.16225 0.285097 0
M  V30 4796 H 459.32 -3.20967 -0.343489 0
M  V30 4797 H 458.372 -3.18734 2.07637 0
M  V30 4798 H 459.684 -4.29511 2.53617 0
M  V30 4799 H 458.838 -5.99852 0.908975 0
M  V30 4800 H 457.577 -4.86458 0.347869 0
M  V30 4801 H 456.582 -4.81599 2.65222 0
M  V30 4802 H 457.807 -5.98427 3.21033 0
M  V30 4803 H 455.753 -6.47994 1.02174 0
M  V30 4804 H 455.67 -7.08231 2.64471 0
M  V30 4805 H 456.938 -7.63116 1.58978 0
M  V30 4806 N 461.167 -1.02423 -1.1978 0
M  V30 4807 C 462.13 -0.605703 -2.21052 0
M  V30 4808 C 463.13 0.328209 -1.57415 0
M  V30 4809 O 464.32 0.115853 -1.73814 0
M  V30 4810 C 461.452 0.114366 -3.40708 0
M  V30 4811 H 462.645 -1.5017 -2.59594 0
M  V30 4812 H 460.198 -0.814888 -1.33376 0
M  V30 4813 H 460.933 1.02492 -3.07678 0
M  V30 4814 H 460.718 -0.556641 -3.88129 0
M  V30 4815 H 462.208 0.394272 -4.15735 0
M  V30 4816 N 462.645 1.35699 -0.801477 0
M  V30 4817 C 463.893 1.9852 -0.37871 0
M  V30 4818 C 464.214 1.63907 1.05638 0
M  V30 4819 O 463.484 0.919013 1.73006 0
M  V30 4820 H 462.064 0.734322 -0.137042 0
M  V30 4821 H 464.726 1.65697 -1.02619 0
M  V30 4822 H 463.822 3.08382 -0.480284 0
M  V30 4823 N 464.123 0.554532 1.47522 0
M  V30 4824 C 465.37 0.029479 2.02479 0
M  V30 4825 C 465.698 -1.31929 1.42916 0
M  V30 4826 O 464.953 -1.87112 0.573385 0
M  V30 4827 C 465.252 -0.115927 3.57212 0
M  V30 4828 C 464.918 1.16161 4.3568 0
M  V30 4829 C 463.58 1.51168 4.56839 0
M  V30 4830 C 465.932 2.0083 4.80954 0
M  V30 4831 C 463.26 2.70696 5.2052 0
M  V30 4832 C 465.612 3.19559 5.45953 0
M  V30 4833 C 464.276 3.54882 5.65345 0
M  V30 4834 H 463.546 0.0107871 0.740921 0
M  V30 4835 H 466.193 0.725506 1.77225 0
M  V30 4836 H 464.498 -0.894902 3.81443 0
M  V30 4837 H 466.195 -0.53749 3.97381 0
M  V30 4838 H 462.785 0.879026 4.19489 0
M  V30 4839 H 466.969 1.75093 4.64388 0
M  V30 4840 H 462.225 2.98236 5.33728 0
M  V30 4841 H 466.399 3.85456 5.79997 0
M  V30 4842 H 464.026 4.47596 6.1446 0
M  V30 4843 N 465.601 -1.54893 0.290851 0
M  V30 4844 C 466.847 -2.0023 -0.321867 0
M  V30 4845 C 467.18 -1.179 -1.54316 0
M  V30 4846 O 466.455 -0.25293 -1.92848 0
M  V30 4847 C 466.738 -3.53456 -0.688515 0
M  V30 4848 C 466.591 -4.46532 0.541209 0
M  V30 4849 C 467.91 -4.13057 -1.51895 0
M  V30 4850 H 465.029 -0.727891 -0.115515 0
M  V30 4851 H 467.671 -1.85722 0.400931 0
M  V30 4852 H 465.821 -3.6595 -1.30433 0
M  V30 4853 H 467.493 -4.4596 1.17973 0
M  V30 4854 H 465.736 -4.17545 1.17636 0
M  V30 4855 H 466.407 -5.51475 0.240675 0
M  V30 4856 H 468.883 -4.03937 -0.99872 0
M  V30 4857 H 467.759 -5.20448 -1.74429 0
M  V30 4858 H 468.02 -3.64284 -2.50498 0
M  V30 4859 N 467.08 -0.0183926 -1.57589 0
M  V30 4860 C 468.326 0.657813 -1.92469 0
M  V30 4861 C 468.681 1.70349 -0.894375 0
M  V30 4862 O 467.974 1.91384 0.0910389 0
M  V30 4863 C 468.168 1.32676 -3.31861 0
M  V30 4864 C 467.997 0.347403 -4.48356 0
M  V30 4865 C 466.767 -0.0488653 -5.05276 0
M  V30 4866 C 468.965 -0.393931 -5.12789 0
M  V30 4867 N 466.947 -1.02451 -6.05291 0
M  V30 4868 C 468.318 -1.22367 -6.07804 0
M  V30 4869 C 470.373 -0.455789 -4.95809 0
M  V30 4870 C 469.076 -2.10966 -6.87667 0
M  V30 4871 C 471.102 -1.32908 -5.76272 0
M  V30 4872 C 470.464 -2.14662 -6.70894 0
M  V30 4873 H 466.563 0.21335 -0.752334 0
M  V30 4874 H 469.147 -0.0830547 -1.94523 0
M  V30 4875 H 467.318 2.03782 -3.30647 0
M  V30 4876 H 469.05 1.95913 -3.54119 0
M  V30 4877 H 465.805 0.323356 -4.72495 0
M  V30 4878 H 466.229 -1.50826 -6.59985 0
M  V30 4879 H 470.871 0.162017 -4.22489 0
M  V30 4880 H 468.589 -2.73807 -7.603 0
M  V30 4881 H 472.175 -1.38109 -5.6517 0
M  V30 4882 H 471.055 -2.81143 -7.32071 0
M  V30 4883 N 468.558 1.5553 0.254621 0
M  V30 4884 C 469.974 1.4778 0.602753 0
M  V30 4885 C 470.174 0.707047 1.88688 0
M  V30 4886 O 469.23 0.233288 2.5142 0
M  V30 4887 C 470.543 2.92133 0.712648 0
M  V30 4888 C 472.091 3.02458 0.805488 0
M  V30 4889 C 472.566 4.48102 0.947009 0
M  V30 4890 N 474.057 4.52008 1.01207 0
M  V30 4891 C 474.792 5.61939 1.1407 0
M  V30 4892 N 474.288 6.81697 1.23536 0
M  V30 4893 N 476.081 5.49719 1.17325 0
M  V30 4894 H 468.232 2.04085 -0.588463 0
M  V30 4895 H 470.495 0.926229 -0.202001 0
M  V30 4896 H 470.201 3.51332 -0.160766 0
M  V30 4897 H 470.075 3.42187 1.58707 0
M  V30 4898 H 472.462 2.43344 1.66936 0
M  V30 4899 H 472.543 2.55627 -0.0939266 0
M  V30 4900 H 472.187 5.07824 0.087725 0
M  V30 4901 H 472.117 4.92607 1.86135 0
M  V30 4902 H 474.608 3.65749 0.950577 0
M  V30 4903 H 474.921 7.61228 1.33236 0
M  V30 4904 H 473.266 6.84473 1.20508 0
M  V30 4905 H 476.457 4.55095 1.09573 0
M  V30 4906 H 476.63 6.35432 1.27005 0
M  V30 4907 N 470.036 -0.519951 1.48776 0
M  V30 4908 C 470.966 -1.63253 1.66945 0
M  V30 4909 C 471.947 -1.62014 0.518224 0
M  V30 4910 O 473.132 -1.79053 0.751919 0
M  V30 4911 C 470.262 -3.0181 1.71836 0
M  V30 4912 C 469.216 -3.17911 2.8656 0
M  V30 4913 C 468.542 -4.5763 2.76548 0
M  V30 4914 C 469.842 -2.99729 4.27738 0
M  V30 4915 H 471.536 -1.48302 2.6009 0
M  V30 4916 H 469.082 -0.712026 1.25165 0
M  V30 4917 H 471.035 -3.79525 1.83135 0
M  V30 4918 H 469.759 -3.17806 0.752775 0
M  V30 4919 H 468.418 -2.42616 2.74833 0
M  V30 4920 H 468.066 -4.70476 1.77937 0
M  V30 4921 H 467.766 -4.69346 3.53536 0
M  V30 4922 H 469.29 -5.37431 2.89828 0
M  V30 4923 H 470.704 -3.67228 4.40246 0
M  V30 4924 H 469.101 -3.22932 5.05801 0
M  V30 4925 H 470.171 -1.96047 4.43502 0
M  V30 4926 N 471.514 -1.37532 -0.769588 0
M  V30 4927 C 472.93 -1.18379 -1.07045 0
M  V30 4928 C 473.13 -0.0214312 -2.01489 0
M  V30 4929 O 472.186 0.637809 -2.44312 0
M  V30 4930 C 473.499 -2.50338 -1.66588 0
M  V30 4931 C 475.047 -2.56879 -1.78835 0
M  V30 4932 C 475.522 -3.88974 -2.41792 0
M  V30 4933 N 477.013 -3.90428 -2.4924 0
M  V30 4934 C 477.748 -4.89388 -2.98809 0
M  V30 4935 N 477.244 -5.98745 -3.48535 0
M  V30 4936 N 479.037 -4.76791 -2.97703 0
M  V30 4937 H 471.188 -2.11921 -0.142541 0
M  V30 4938 H 473.451 -0.939608 -0.125863 0
M  V30 4939 H 473.157 -3.35767 -1.0466 0
M  V30 4940 H 473.031 -2.67583 -2.65856 0
M  V30 4941 H 475.418 -1.71856 -2.39895 0
M  V30 4942 H 475.499 -2.43516 -0.783166 0
M  V30 4943 H 475.143 -4.74412 -1.81371 0
M  V30 4944 H 475.073 -3.99641 -3.4292 0
M  V30 4945 H 477.564 -3.11433 -2.14052 0
M  V30 4946 H 477.877 -6.70205 -3.84767 0
M  V30 4947 H 476.222 -6.02387 -3.46634 0
M  V30 4948 H 479.413 -3.90478 -2.58157 0
M  V30 4949 H 479.586 -5.54069 -3.36024 0
M  V30 4950 N 472.992 0.995999 -1.22138 0
M  V30 4951 C 474.24 1.73167 -1.042 0
M  V30 4952 C 474.561 1.90329 0.42423 0
M  V30 4953 O 473.831 1.4607 1.30539 0
M  V30 4954 H 472.411 0.641593 -0.38258 0
M  V30 4955 H 475.073 1.19974 -1.53598 0
M  V30 4956 H 474.169 2.72734 -1.51731 0
M  V30 4957 N 474.47 1.03057 1.19235 0
M  V30 4958 C 475.718 0.726581 1.88587 0
M  V30 4959 C 476.039 -0.747227 1.80115 0
M  V30 4960 O 475.309 -1.53849 1.21274 0
M  V30 4961 H 473.889 0.265768 0.698124 0
M  V30 4962 H 476.551 1.30516 1.44746 0
M  V30 4963 H 475.647 1.0224 2.94879 0
M  V30 4964 N 475.948 -1.35272 0.808662 0
M  V30 4965 C 476.88 -2.28507 0.178149 0
M  V30 4966 C 477.893 -1.50377 -0.623754 0
M  V30 4967 O 479.082 -1.72583 -0.455774 0
M  V30 4968 C 476.182 -3.30038 -0.769959 0
M  V30 4969 C 475.355 -4.37398 -0.0139749 0
M  V30 4970 C 474.414 -5.18775 -0.880875 0
M  V30 4971 O 473.44 -5.68236 -0.331059 0
M  V30 4972 N 474.642 -5.37087 -2.20267 0
M  V30 4973 H 477.407 -2.83255 0.979106 0
M  V30 4974 H 474.968 -1.47643 0.664308 0
M  V30 4975 H 476.96 -3.81371 -1.35418 0
M  V30 4976 H 475.53 -2.75789 -1.47171 0
M  V30 4977 H 474.75 -3.86971 0.751468 0
M  V30 4978 H 476.038 -5.06268 0.506965 0
M  V30 4979 H 475.436 -4.9855 -2.67328 0
M  V30 4980 H 473.993 -5.91593 -2.73608 0
M  V30 4981 N 477.426 -0.562348 -1.47226 0
M  V30 4982 C 478.356 0.170627 -2.32876 0
M  V30 4983 C 479.337 0.903748 -1.44106 0
M  V30 4984 O 480.522 0.883206 -1.72954 0
M  V30 4985 C 477.652 1.19786 -3.25989 0
M  V30 4986 C 476.606 0.580875 -4.2404 0
M  V30 4987 C 475.932 1.71311 -5.06514 0
M  V30 4988 C 477.232 -0.468714 -5.20193 0
M  V30 4989 H 478.926 -0.544441 -2.94408 0
M  V30 4990 H 476.472 -0.263271 -1.41573 0
M  V30 4991 H 478.425 1.71884 -3.84752 0
M  V30 4992 H 477.149 1.94294 -2.62521 0
M  V30 4993 H 475.808 0.0811538 -3.6651 0
M  V30 4994 H 475.456 2.44736 -4.39447 0
M  V30 4995 H 475.156 1.30604 -5.72902 0
M  V30 4996 H 476.68 2.23725 -5.68137 0
M  V30 4997 H 478.094 -0.0336028 -5.7329 0
M  V30 4998 H 476.491 -0.794957 -5.94811 0
M  V30 4999 H 477.561 -1.36269 -4.65359 0
M  V30 5000 N 478.904 1.54736 -0.299062 0
M  V30 5001 C 479.836 2.20891 0.61153 0
M  V30 5002 C 480.849 1.20104 1.09904 0
M  V30 5003 O 482.038 1.46707 1.01683 0
M  V30 5004 C 479.138 2.84018 1.84897 0
M  V30 5005 C 478.311 4.10719 1.50428 0
M  V30 5006 C 477.37 4.57667 2.59667 0
M  V30 5007 O 476.396 5.2291 2.24842 0
M  V30 5008 N 477.598 4.29821 3.90172 0
M  V30 5009 H 480.363 2.99666 0.0452001 0
M  V30 5010 H 477.924 1.61446 -0.121178 0
M  V30 5011 H 479.916 3.1236 2.5732 0
M  V30 5012 H 478.486 2.09095 2.32375 0
M  V30 5013 H 477.706 3.89408 0.612781 0
M  V30 5014 H 478.994 4.93223 1.24934 0
M  V30 5015 H 478.392 3.77549 4.21276 0
M  V30 5016 H 476.949 4.62877 4.58899 0
M  V30 5017 N 480.382 0.0267497 1.57577 0
M  V30 5018 C 481.793 -0.512413 1.79531 0
M  V30 5019 C 482.144 -1.72391 0.936791 0
M  V30 5020 O 481.269 -2.15903 0.146543 0
M  V30 5021 C 481.864 -0.936378 3.25603 0
M  V30 5022 C 480.423 -1.42067 3.4856 0
M  V30 5023 C 479.57 -0.384278 2.74624 0
M  V30 5024 H 482.521 0.252797 1.56674 0
M  V30 5025 H 482.542 -1.80088 3.35184 0
M  V30 5026 H 482.054 -0.0544332 3.88062 0
M  V30 5027 H 480.155 -2.32262 2.9135 0
M  V30 5028 H 480.268 -1.42968 4.57271 0
M  V30 5029 H 478.632 -0.851855 2.40032 0
M  V30 5030 H 479.415 0.489159 3.39797 0
M  V30 5031 N 481.861 -1.55662 -0.24637 0
M  V30 5032 C 483.109 -1.77168 -0.972411 0
M  V30 5033 C 483.43 -0.590827 -1.85834 0
M  V30 5034 O 482.7 0.393365 -1.9191 0
M  V30 5035 H 481.28 -0.653405 -0.362038 0
M  V30 5036 H 483.942 -1.93101 -0.264189 0
M  V30 5037 H 483.038 -2.68335 -1.59382 0
M  V30 5038 N 483.339 0.512053 -1.4905 0
M  V30 5039 C 484.569 1.28928 -1.61434 0
M  V30 5040 C 484.977 1.87107 -0.280647 0
M  V30 5041 O 484.32 1.68024 0.742537 0
M  V30 5042 C 484.382 2.466 -2.61588 0
M  V30 5043 C 484.046 2.09375 -4.06216 0
M  V30 5044 C 485.043 1.63994 -4.93358 0
M  V30 5045 C 482.728 2.19348 -4.51876 0
M  V30 5046 C 484.722 1.29076 -6.24194 0
M  V30 5047 C 482.409 1.84041 -5.82728 0
M  V30 5048 C 483.407 1.38978 -6.68711 0
M  V30 5049 O 483.095 1.04144 -7.97126 0
M  V30 5050 H 482.827 0.397668 -0.546659 0
M  V30 5051 H 485.381 0.622507 -1.9574 0
M  V30 5052 H 483.611 3.16318 -2.22441 0
M  V30 5053 H 485.3 3.08642 -2.63619 0
M  V30 5054 H 486.066 1.55744 -4.59313 0
M  V30 5055 H 481.945 2.53376 -3.85125 0
M  V30 5056 H 485.489 0.938303 -6.91261 0
M  V30 5057 H 481.386 1.91938 -6.16304 0
M  V30 5058 H 482.154 1.17387 -8.10039 0
M  V30 5059 N 484.817 1.37938 0.762283 0
M  V30 5060 C 486.228 1.30094 1.33912 0
M  V30 5061 C 486.579 -0.0472026 1.96143 0
M  V30 5062 O 485.704 -0.94917 1.94473 0
M  V30 5063 C 486.299 2.35592 2.43478 0
M  V30 5064 C 484.858 2.31353 2.96905 0
M  V30 5065 C 484.005 2.18919 1.70205 0
M  V30 5066 H 486.956 1.48423 0.561816 0
M  V30 5067 H 486.977 2.00806 3.23199 0
M  V30 5068 H 486.489 3.33701 1.98155 0
M  V30 5069 H 484.59 1.36799 3.46579 0
M  V30 5070 H 484.703 3.25147 3.51875 0
M  V30 5071 H 483.067 1.65624 1.93496 0
M  V30 5072 H 483.85 3.18956 1.26973 0
M  V30 5073 N 486.295 -0.989507 1.22664 0
M  V30 5074 C 487.258 -2.06183 1.00106 0
M  V30 5075 C 488.258 -1.60765 -0.0337726 0
M  V30 5076 O 489.448 -1.72989 0.205072 0
M  V30 5077 C 486.58 -3.37021 0.51279 0
M  V30 5078 H 487.773 -2.27629 1.95256 0
M  V30 5079 H 485.326 -1.16158 1.0458 0
M  V30 5080 H 486.061 -3.21261 -0.442917 0
M  V30 5081 H 485.846 -3.71323 1.25942 0
M  V30 5082 H 487.336 -4.1591 0.375315 0
M  V30 5083 N 487.773 -1.03688 -1.18687 0
M  V30 5084 C 488.703 -0.645407 -2.24403 0
M  V30 5085 C 489.684 0.349511 -1.66471 0
M  V30 5086 O 490.869 0.230453 -1.92828 0
M  V30 5087 C 487.999 -0.00365337 -3.473 0
M  V30 5088 C 486.953 -0.921705 -4.17958 0
M  V30 5089 C 486.279 -0.144629 -5.34504 0
M  V30 5090 C 487.579 -2.23909 -4.71871 0
M  V30 5091 H 489.273 -1.52917 -2.57404 0
M  V30 5092 H 486.819 -0.736711 -1.23728 0
M  V30 5093 H 488.772 0.281908 -4.20456 0
M  V30 5094 H 487.496 0.914963 -3.13522 0
M  V30 5095 H 486.155 -1.19159 -3.46694 0
M  V30 5096 H 485.803 0.776274 -4.96974 0
M  V30 5097 H 485.503 -0.756206 -5.82714 0
M  V30 5098 H 487.027 0.134004 -6.10453 0
M  V30 5099 H 488.441 -2.0145 -5.36741 0
M  V30 5100 H 486.838 -2.8033 -5.30599 0
M  V30 5101 H 487.908 -2.88822 -3.895 0
M  V30 5102 N 489.251 1.34841 -0.815825 0
M  V30 5103 C 490.214 2.27959 -0.238185 0
M  V30 5104 C 491.214 1.49983 0.579816 0
M  V30 5105 O 492.404 1.69617 0.396953 0
M  V30 5106 C 489.536 3.34314 0.666876 0
M  V30 5107 H 490.729 2.80558 -1.05958 0
M  V30 5108 H 488.282 1.44852 -0.587156 0
M  V30 5109 H 489.017 2.86916 1.5116 0
M  V30 5110 H 488.802 3.92014 0.0819106 0
M  V30 5111 H 490.292 4.0379 1.06506 0
M  V30 5112 N 490.729 0.570148 1.46925 0
M  V30 5113 C 491.954 0.0542592 2.07329 0
M  V30 5114 C 492.379 -1.23582 1.41806 0
M  V30 5115 O 491.737 -1.74341 0.497479 0
M  V30 5116 C 491.785 -0.111175 3.60429 0
M  V30 5117 O 490.889 -1.17071 3.95434 0
M  V30 5118 H 490.23 0.0571425 0.661537 0
M  V30 5119 H 492.76 0.789516 1.88753 0
M  V30 5120 H 492.77 -0.321315 4.06733 0
M  V30 5121 H 491.445 0.831012 4.07513 0
M  V30 5122 H 490.022 -0.940029 3.60857 0
M  V30 5123 N 492.207 -1.54576 0.307264 0
M  V30 5124 C 493.623 -1.59534 -0.0459251 0
M  V30 5125 C 493.823 -1.32414 -1.51884 0
M  V30 5126 O 492.879 -1.1006 -2.27251 0
M  V30 5127 C 494.192 -2.98566 0.357649 0
M  V30 5128 C 495.74 -3.11491 0.306937 0
M  V30 5129 C 496.215 -4.52842 0.685427 0
M  V30 5130 N 497.706 -4.58782 0.638203 0
M  V30 5131 C 498.441 -5.66238 0.903458 0
M  V30 5132 N 497.937 -6.81703 1.23501 0
M  V30 5133 N 499.73 -5.55937 0.830102 0
M  V30 5134 H 491.881 -1.70464 1.26712 0
M  V30 5135 H 494.144 -0.79647 0.514139 0
M  V30 5136 H 493.85 -3.23356 1.38325 0
M  V30 5137 H 493.724 -3.76117 -0.285565 0
M  V30 5138 H 496.111 -2.86446 -0.709424 0
M  V30 5139 H 496.192 -2.36081 0.984861 0
M  V30 5140 H 495.836 -4.78618 1.69963 0
M  V30 5141 H 495.766 -5.26598 -0.0146346 0
M  V30 5142 H 498.257 -3.75849 0.393138 0
M  V30 5143 H 498.57 -7.59582 1.42322 0
M  V30 5144 H 496.915 -6.8324 1.27311 0
M  V30 5145 H 500.106 -4.64608 0.570693 0
M  V30 5146 H 500.279 -6.39597 1.04019 0
M  V30 5147 N 493.685 -0.035106 -1.57561 0
M  V30 5148 C 494.635 0.954034 -2.0708 0
M  V30 5149 C 495.619 1.2818 -0.972558 0
M  V30 5150 O 496.811 1.26691 -1.23606 0
M  V30 5151 C 493.94 2.23442 -2.60631 0
M  V30 5152 C 493.026 1.93475 -3.77396 0
M  V30 5153 N 493.417 1.33802 -4.87781 0
M  V30 5154 C 491.715 2.23434 -3.85996 0
M  V30 5155 C 492.416 1.21103 -5.68954 0
M  V30 5156 N 491.392 1.70855 -5.16052 0
M  V30 5157 H 495.194 0.487731 -2.89825 0
M  V30 5158 H 492.708 0.169759 -1.6151 0
M  V30 5159 H 494.705 2.95183 -2.94402 0
M  V30 5160 H 493.365 2.70693 -1.79319 0
M  V30 5161 H 494.376 1.01227 -5.07911 0
M  V30 5162 H 491.053 2.73317 -3.15601 0
M  V30 5163 H 492.443 0.749105 -6.67711 0
M  V30 5164 N 495.163 1.55791 0.238111 0
M  V30 5165 C 496.409 1.79211 0.962035 0
M  V30 5166 C 496.764 0.605463 1.82625 0
M  V30 5167 O 496.057 -0.40104 1.87356 0
M  V30 5168 C 496.251 3.05869 1.84875 0
M  V30 5169 C 496.08 4.36739 1.07186 0
M  V30 5170 C 494.85 4.99346 0.773424 0
M  V30 5171 C 497.048 5.1237 0.445168 0
M  V30 5172 N 495.03 6.13894 -0.0266037 0
M  V30 5173 C 496.401 6.19613 -0.219023 0
M  V30 5174 C 498.456 4.96622 0.356522 0
M  V30 5175 C 497.159 7.1282 -0.963358 0
M  V30 5176 C 499.185 5.90214 -0.374304 0
M  V30 5177 C 498.547 6.96872 -1.0271 0
M  V30 5178 H 494.646 0.707627 0.332849 0
M  V30 5179 H 497.23 1.93284 0.234368 0
M  V30 5180 H 495.401 2.93108 2.54837 0
M  V30 5181 H 497.133 3.17547 2.5089 0
M  V30 5182 H 493.888 4.60948 1.08738 0
M  V30 5183 H 494.312 6.75727 -0.414968 0
M  V30 5184 H 498.954 4.14232 0.846878 0
M  V30 5185 H 496.672 7.94704 -1.46529 0
M  V30 5186 H 500.258 5.80106 -0.443678 0
M  V30 5187 H 499.138 7.68045 -1.58358 0
M  V30 5188 N 496.642 -0.504142 1.49319 0
M  V30 5189 C 497.574 -1.62265 1.61872 0
M  V30 5190 C 498.587 -1.54881 0.501573 0
M  V30 5191 O 499.776 -1.6087 0.773497 0
M  V30 5192 C 496.876 -3.01042 1.55651 0
M  V30 5193 C 496.049 -3.33642 2.82845 0
M  V30 5194 C 495.108 -4.51816 2.69719 0
M  V30 5195 O 494.134 -4.53755 3.4365 0
M  V30 5196 N 495.336 -5.51543 1.81055 0
M  V30 5197 H 498.101 -1.51924 2.58339 0
M  V30 5198 H 495.662 -0.691954 1.46368 0
M  V30 5199 H 497.654 -3.78013 1.44528 0
M  V30 5200 H 496.224 -3.05323 0.670546 0
M  V30 5201 H 495.444 -2.45598 3.08343 0
M  V30 5202 H 496.732 -3.5222 3.67177 0
M  V30 5203 H 496.13 -5.52774 1.20241 0
M  V30 5204 H 494.687 -6.27629 1.75856 0
M  V30 5205 N 498.12 -1.38341 -0.754957 0
M  V30 5206 C 499.368 -1.34208 -1.51105 0
M  V30 5207 C 499.689 0.0677634 -1.94882 0
M  V30 5208 O 498.959 1.01517 -1.67544 0
M  V30 5209 H 497.539 -0.493819 -0.560493 0
M  V30 5210 H 500.201 -1.73005 -0.897507 0
M  V30 5211 H 499.297 -1.99203 -2.4026 0
M  V30 5212 N 499.598 0.982988 -1.23187 0
M  V30 5213 C 500.528 2.09301 -1.03515 0
M  V30 5214 C 501.509 1.70035 0.0471136 0
M  V30 5215 O 502.694 1.93847 -0.117029 0
M  V30 5216 C 499.824 3.4167 -0.622791 0
M  V30 5217 C 498.778 3.94828 -1.65211 0
M  V30 5218 C 498.104 5.23362 -1.09527 0
M  V30 5219 C 499.404 4.2439 -3.04451 0
M  V30 5220 H 501.098 2.26016 -1.96359 0
M  V30 5221 H 498.644 1.08611 -0.945501 0
M  V30 5222 H 500.597 4.18746 -0.472233 0
M  V30 5223 H 499.321 3.24811 0.341329 0
M  V30 5224 H 497.98 3.19895 -1.79061 0
M  V30 5225 H 497.628 5.02852 -0.122211 0
M  V30 5226 H 497.328 5.59895 -1.783 0
M  V30 5227 H 498.852 6.03062 -0.956511 0
M  V30 5228 H 500.266 4.92225 -2.93917 0
M  V30 5229 H 498.663 4.72118 -3.70438 0
M  V30 5230 H 499.733 3.31765 -3.53638 0
M  V30 5231 N 501.076 1.04316 1.18135 0
M  V30 5232 C 502.487 0.775505 1.69832 0
M  V30 5233 C 502.838 -0.703348 1.8316 0
M  V30 5234 O 501.963 -1.54729 1.51287 0
M  V30 5235 C 502.558 1.40112 3.0847 0
M  V30 5236 C 501.117 1.18172 3.57368 0
M  V30 5237 C 500.264 1.49022 2.33854 0
M  V30 5238 H 503.215 1.20925 1.02775 0
M  V30 5239 H 503.236 0.805672 3.71873 0
M  V30 5240 H 502.748 2.47744 2.98738 0
M  V30 5241 H 500.849 0.124258 3.72393 0
M  V30 5242 H 500.962 1.8805 4.40652 0
M  V30 5243 H 499.326 0.909995 2.37889 0
M  V30 5244 H 500.109 2.57768 2.26738 0
M  V30 5245 N 502.554 -1.34406 0.822964 0
M  V30 5246 C 503.779 -2.0304 0.423034 0
M  V30 5247 C 504.204 -1.61568 -0.963196 0
M  V30 5248 O 503.562 -0.800339 -1.62678 0
M  V30 5249 C 503.61 -3.56636 0.53321 0
M  V30 5250 O 502.714 -4.09971 -0.446939 0
M  V30 5251 H 502.055 -0.64075 0.174171 0
M  V30 5252 H 504.585 -1.71653 1.11339 0
M  V30 5253 H 504.595 -4.05945 0.408991 0
M  V30 5254 H 503.27 -3.86168 1.54425 0
M  V30 5255 H 501.847 -3.71835 -0.281601 0
M  V30 5256 N 504.032 -0.577932 -1.46621 0
M  V30 5257 C 505.443 -0.150071 -1.86096 0
M  V30 5258 C 505.794 1.28563 -1.48209 0
M  V30 5259 O 504.919 1.97036 -0.894754 0
M  V30 5260 C 505.514 -0.265576 -3.37758 0
M  V30 5261 C 504.073 0.10738 -3.76247 0
M  V30 5262 C 503.22 -0.603711 -2.70649 0
M  V30 5263 H 506.171 -0.786438 -1.37844 0
M  V30 5264 H 506.192 0.510352 -3.77062 0
M  V30 5265 H 505.704 -1.3106 -3.65301 0
M  V30 5266 H 503.805 1.15272 -3.54321 0
M  V30 5267 H 503.918 -0.26561 -4.78363 0
M  V30 5268 H 502.282 -0.0444884 -2.54661 0
M  V30 5269 H 503.065 -1.65029 -3.01032 0
M  V30 5270 N 505.51 1.54411 -0.315457 0
M  V30 5271 C 506.756 2.00716 0.289972 0
M  V30 5272 C 507.089 1.2034 1.5242 0
M  V30 5273 O 506.364 0.283579 1.92422 0
M  V30 5274 C 506.647 3.54507 0.632196 0
M  V30 5275 C 506.5 4.45615 -0.61218 0
M  V30 5276 C 507.819 4.15421 1.45305 0
M  V30 5277 H 504.938 0.729637 0.10392 0
M  V30 5278 H 507.58 1.8506 -0.430427 0
M  V30 5279 H 505.73 3.67979 1.24595 0
M  V30 5280 H 507.402 4.44026 -1.25053 0
M  V30 5281 H 505.645 4.15621 -1.24264 0
M  V30 5282 H 506.316 5.51022 -0.328379 0
M  V30 5283 H 508.792 4.05474 0.934331 0
M  V30 5284 H 507.668 5.23157 1.66127 0
M  V30 5285 H 507.929 3.68223 2.44671 0
M  V30 5286 N 506.988 0.0434614 1.5754 0
M  V30 5287 C 508.265 -0.671479 1.83713 0
M  V30 5288 C 508.645 -1.89495 0.930315 0
M  V30 5289 O 507.993 -2.28498 -0.0105639 0
M  V30 5290 C 508.203 -1.0361 3.33266 0
M  V30 5291 C 509.551 -1.42167 4.00092 0
M  V30 5292 O 510.575 -1.12866 3.37846 0
M  V30 5293 O 509.434 -1.96817 5.09829 0
M  V30 5294 H 506.528 -0.330726 0.75799 0
M  V30 5295 H 509.074 0.0722373 1.69546 0
M  V30 5296 H 507.846 -0.165938 3.90948 0
M  V30 5297 H 507.469 -1.83751 3.52592 0
M  V30 5298 N 508.466 -1.55915 -0.229846 0
M  V30 5299 C 509.429 -1.90914 -1.26824 0
M  V30 5300 C 510.429 -0.786999 -1.40225 0
M  V30 5301 O 511.619 -1.05484 -1.38632 0
M  V30 5302 C 508.751 -2.15264 -2.64337 0
M  V30 5303 H 509.944 -2.8378 -0.969998 0
M  V30 5304 H 507.497 -1.49069 -0.4699 0
M  V30 5305 H 508.232 -1.24923 -2.99274 0
M  V30 5306 H 508.017 -2.97005 -2.55989 0
M  V30 5307 H 509.507 -2.43467 -3.39284 0
M  V30 5308 N 509.944 0.496216 -1.49584 0
M  V30 5309 C 510.907 1.57952 -1.66084 0
M  V30 5310 C 511.907 1.51729 -0.53244 0
M  V30 5311 O 513.097 1.54796 -0.79899 0
M  V30 5312 C 510.229 2.97604 -1.66268 0
M  V30 5313 H 511.422 1.44649 -2.6271 0
M  V30 5314 H 508.975 0.7208 -1.38687 0
M  V30 5315 H 509.71 3.16378 -0.712432 0
M  V30 5316 H 509.495 3.03528 -2.4822 0
M  V30 5317 H 510.985 3.76301 -1.81073 0
M  V30 5318 N 511.423 1.38739 0.74761 0
M  V30 5319 C 512.67 1.35274 1.50689 0
M  V30 5320 C 512.998 -0.0553359 1.94421 0
M  V30 5321 O 512.253 -1.03365 1.66175 0
M  V30 5322 C 512.552 2.25992 2.7688 0
M  V30 5323 C 512.218 3.73854 2.5208 0
M  V30 5324 C 510.88 4.14145 2.45025 0
M  V30 5325 C 513.232 4.67427 2.30568 0
M  V30 5326 C 510.56 5.4609 2.14483 0
M  V30 5327 C 512.912 5.99635 2.01545 0
M  V30 5328 C 511.576 6.39004 1.92951 0
M  V30 5329 H 510.846 0.495003 0.55141 0
M  V30 5330 H 513.493 1.71145 0.859158 0
M  V30 5331 H 511.798 1.83196 3.46333 0
M  V30 5332 H 513.495 2.20611 3.34861 0
M  V30 5333 H 510.085 3.41913 2.58444 0
M  V30 5334 H 514.269 4.3714 2.34994 0
M  V30 5335 H 509.525 5.75528 2.06342 0
M  V30 5336 H 513.699 6.71678 1.83906 0
M  V30 5337 H 511.326 7.41165 1.6905 0
M  V30 5338 N 512.901 -0.976442 1.23707 0
M  V30 5339 C 513.811 -2.10359 1.03856 0
M  V30 5340 C 514.827 -1.73991 -0.0180919 0
M  V30 5341 O 516.003 -2.0061 0.178211 0
M  V30 5342 C 513.068 -3.40809 0.636387 0
M  V30 5343 C 512.129 -3.91179 1.76854 0
M  V30 5344 C 511.362 -5.15404 1.38546 0
M  V30 5345 O 511.585 -5.69754 0.27142 0
M  V30 5346 O 510.519 -5.5994 2.20797 0
M  V30 5347 H 514.345 -2.29997 1.98331 0
M  V30 5348 H 511.93 -1.08742 1.02448 0
M  V30 5349 H 513.812 -4.19269 0.423223 0
M  V30 5350 H 512.487 -3.22493 -0.279322 0
M  V30 5351 H 511.394 -3.13819 2.03638 0
M  V30 5352 H 512.727 -4.13958 2.6627 0
M  V30 5353 N 514.379 -1.04941 -1.1758 0
M  V30 5354 C 515.656 -0.671918 -1.83697 0
M  V30 5355 C 516.036 0.847929 -1.93322 0
M  V30 5356 O 515.384 1.75287 -1.46583 0
M  V30 5357 C 515.594 -1.35797 -3.21497 0
M  V30 5358 C 516.942 -1.4944 -3.97433 0
M  V30 5359 O 517.966 -1.31678 -3.30967 0
M  V30 5360 O 516.825 -1.78463 -5.1654 0
M  V30 5361 H 513.919 -0.236212 -0.792548 0
M  V30 5362 H 516.465 -1.14884 -1.24899 0
M  V30 5363 H 515.237 -2.39498 -3.09446 0
M  V30 5364 H 514.86 -0.870236 -3.8796 0
M  V30 5365 N 515.857 1.33968 -0.830081 0
M  V30 5366 C 516.82 2.27694 -0.26235 0
M  V30 5367 C 517.82 1.50589 0.563876 0
M  V30 5368 O 519.01 1.70028 0.378941 0
M  V30 5369 C 516.142 3.35002 0.63138 0
M  V30 5370 H 517.335 2.79419 -1.08928 0
M  V30 5371 H 514.888 1.44221 -0.602486 0
M  V30 5372 H 515.623 2.88504 1.48109 0
M  V30 5373 H 515.408 3.92079 0.0403276 0
M  V30 5374 H 516.898 4.04897 1.02217 0
M  V30 5375 N 517.335 0.585699 1.46312 0
M  V30 5376 C 518.267 -0.183687 2.28463 0
M  V30 5377 C 519.28 -0.85264 1.38686 0
M  V30 5378 O 520.469 -0.721701 1.6326 0
M  V30 5379 C 517.569 -1.27977 3.13808 0
M  V30 5380 C 516.742 -0.702164 4.31727 0
M  V30 5381 C 515.801 -1.68633 4.98447 0
M  V30 5382 O 514.827 -1.22121 5.55945 0
M  V30 5383 N 516.029 -3.02047 4.95729 0
M  V30 5384 H 518.794 0.521127 2.95134 0
M  V30 5385 H 516.355 0.423673 1.56258 0
M  V30 5386 H 518.347 -1.9375 3.55307 0
M  V30 5387 H 516.917 -1.8874 2.4919 0
M  V30 5388 H 516.137 0.1331 3.93975 0
M  V30 5389 H 517.425 -0.296101 5.07938 0
M  V30 5390 H 516.823 -3.42457 4.50266 0
M  V30 5391 H 515.38 -3.63301 5.41161 0
M  V30 5392 N 518.813 -1.54241 0.323641 0
M  V30 5393 C 520.061 -2.00174 -0.278359 0
M  V30 5394 C 520.382 -1.2134 -1.52648 0
M  V30 5395 O 519.652 -0.315244 -1.93347 0
M  V30 5396 H 518.232 -0.739463 -0.105845 0
M  V30 5397 H 520.894 -1.89864 0.440204 0
M  V30 5398 H 519.99 -3.07486 -0.5347 0
M  V30 5399 N 520.291 -0.0518155 -1.57515 0
M  V30 5400 C 521.241 0.932017 -2.0808 0
M  V30 5401 C 522.225 1.27141 -0.986098 0
M  V30 5402 O 523.417 1.25373 -1.24943 0
M  V30 5403 C 520.546 2.20665 -2.62986 0
M  V30 5404 C 519.632 1.89462 -3.79427 0
M  V30 5405 N 520.023 1.28621 -4.89173 0
M  V30 5406 C 518.321 2.19327 -3.88345 0
M  V30 5407 C 519.022 1.15062 -5.70207 0
M  V30 5408 N 517.998 1.65372 -5.17835 0
M  V30 5409 H 521.8 0.456964 -2.90326 0
M  V30 5410 H 519.314 0.152619 -1.61681 0
M  V30 5411 H 521.311 2.92044 -2.97516 0
M  V30 5412 H 519.971 2.68776 -1.8218 0
M  V30 5413 H 520.982 0.958341 -5.08956 0
M  V30 5414 H 517.659 2.69955 -3.18482 0
M  V30 5415 H 519.049 0.678243 -6.68468 0
M  V30 5416 N 521.769 1.56035 0.221574 0
M  V30 5417 C 523.018 1.78245 0.944016 0
M  V30 5418 C 523.331 0.620371 1.85501 0
M  V30 5419 O 524.537 0.726103 2.6161 0
M  V30 5420 C 522.993 3.15659 1.7288 0
M  V30 5421 C 522.601 4.39591 0.863942 0
M  V30 5422 C 524.345 3.47195 2.44246 0
M  V30 5423 C 522.252 5.6803 1.64607 0
M  V30 5424 H 521.182 0.664547 0.356222 0
M  V30 5425 H 523.833 1.8243 0.197904 0
M  V30 5426 H 522.215 3.0565 2.51781 0
M  V30 5427 H 523.389 4.60655 0.115464 0
M  V30 5428 H 521.704 4.15572 0.262407 0
M  V30 5429 H 524.301 4.40381 3.03263 0
M  V30 5430 H 524.644 2.69693 3.1713 0
M  V30 5431 H 525.177 3.58533 1.72334 0
M  V30 5432 H 521.916 6.48425 0.960507 0
M  V30 5433 H 521.436 5.51027 2.36917 0
M  V30 5434 H 523.115 6.08203 2.20675 0
M  V30 5435 N 523.247 -0.488276 1.49845 0
M  V30 5436 C 524.493 -1.24065 1.61182 0
M  V30 5437 C 524.848 -1.9004 0.300435 0
M  V30 5438 O 524.141 -1.78341 -0.700365 0
M  V30 5439 C 524.335 -2.32152 2.71735 0
M  V30 5440 C 524.164 -1.76778 4.13497 0
M  V30 5441 C 522.934 -1.57513 4.80123 0
M  V30 5442 C 525.132 -1.27242 4.98311 0
M  V30 5443 N 523.114 -0.972015 6.06156 0
M  V30 5444 C 524.485 -0.791457 6.14928 0
M  V30 5445 C 526.54 -1.15934 4.84214 0
M  V30 5446 C 525.243 -0.208593 7.18997 0
M  V30 5447 C 527.269 -0.590436 5.88445 0
M  V30 5448 C 526.631 -0.119767 7.04298 0
M  V30 5449 H 522.73 -0.443487 0.644083 0
M  V30 5450 H 525.314 -0.545551 1.86901 0
M  V30 5451 H 523.485 -2.99108 2.47768 0
M  V30 5452 H 525.217 -2.99187 2.72523 0
M  V30 5453 H 521.972 -1.82247 4.37131 0
M  V30 5454 H 522.396 -0.689367 6.73481 0
M  V30 5455 H 527.038 -1.5092 3.94947 0
M  V30 5456 H 524.756 0.153501 8.07954 0
M  V30 5457 H 528.342 -0.505548 5.79599 0
M  V30 5458 H 527.222 0.313568 7.83573 0
M  V30 5459 N 524.725 -1.39134 -0.740242 0
M  V30 5460 C 525.972 -1.36071 -1.49969 0
M  V30 5461 C 526.3 0.0450245 -1.94448 0
M  V30 5462 O 525.555 1.02482 -1.66721 0
M  V30 5463 C 525.854 -2.27457 -2.75678 0
M  V30 5464 C 525.52 -3.75185 -2.50094 0
M  V30 5465 C 524.182 -4.15439 -2.42825 0
M  V30 5466 C 526.534 -4.68643 -2.28086 0
M  V30 5467 C 523.862 -5.4722 -2.11584 0
M  V30 5468 C 526.214 -6.00695 -1.98363 0
M  V30 5469 C 524.878 -6.40018 -1.8956 0
M  V30 5470 H 524.148 -0.497921 -0.548777 0
M  V30 5471 H 526.795 -1.71599 -0.85007 0
M  V30 5472 H 525.1 -1.8503 -3.45356 0
M  V30 5473 H 526.797 -2.22384 -3.33686 0
M  V30 5474 H 523.387 -3.43279 -2.56627 0
M  V30 5475 H 527.571 -4.3838 -2.32672 0
M  V30 5476 H 522.827 -5.76615 -2.03287 0
M  V30 5477 H 527.001 -6.72644 -1.80341 0
M  V30 5478 H 524.628 -7.42051 -1.65117 0
M  V30 5479 N 526.204 0.969867 -1.24223 0
M  V30 5480 C 527.451 1.71256 -1.08063 0
M  V30 5481 C 527.779 1.90734 0.380872 0
M  V30 5482 O 527.034 1.46469 1.29789 0
M  V30 5483 C 527.333 3.10883 -1.76314 0
M  V30 5484 C 526.999 3.11252 -3.26241 0
M  V30 5485 C 525.661 3.1106 -3.67144 0
M  V30 5486 C 528.013 3.05751 -4.22097 0
M  V30 5487 C 525.341 3.03097 -5.02344 0
M  V30 5488 C 527.693 2.9933 -5.57301 0
M  V30 5489 C 526.357 2.97466 -5.97554 0
M  V30 5490 H 525.627 0.62667 -0.395431 0
M  V30 5491 H 528.274 1.13422 -1.54297 0
M  V30 5492 H 526.579 3.72168 -1.22468 0
M  V30 5493 H 528.276 3.67138 -1.61277 0
M  V30 5494 H 524.866 3.12165 -2.93685 0
M  V30 5495 H 529.05 3.05031 -3.91497 0
M  V30 5496 H 524.306 3.00013 -5.32731 0
M  V30 5497 H 528.48 2.94033 -6.31283 0
M  V30 5498 H 526.107 2.91051 -7.02277 0
M  V30 5499 N 527.682 1.05563 1.17022 0
M  V30 5500 C 528.614 0.617888 2.20714 0
M  V30 5501 C 529.627 -0.320303 1.59618 0
M  V30 5502 O 530.816 -0.112449 1.78145 0
M  V30 5503 C 527.916 -0.115333 3.38704 0
M  V30 5504 C 527.089 0.834493 4.29366 0
M  V30 5505 C 526.148 0.141855 5.26009 0
M  V30 5506 O 525.174 0.777151 5.6387 0
M  V30 5507 N 526.376 -1.11934 5.69606 0
M  V30 5508 H 529.141 1.50981 2.58892 0
M  V30 5509 H 526.702 0.938008 1.31958 0
M  V30 5510 H 528.694 -0.588918 4.00392 0
M  V30 5511 H 527.264 -0.908967 2.99093 0
M  V30 5512 H 526.484 1.48762 3.65053 0
M  V30 5513 H 527.772 1.4791 4.86827 0
M  V30 5514 H 527.17 -1.65574 5.40927 0
M  V30 5515 H 525.727 -1.53692 6.33421 0
M  V30 5516 N 529.16 -1.33526 0.837174 0
M  V30 5517 C 530.408 -1.97446 0.431211 0
M  V30 5518 C 530.729 -1.6665 -1.01255 0
M  V30 5519 O 529.999 -0.964559 -1.70508 0
M  V30 5520 H 528.579 -0.73043 0.156463 0
M  V30 5521 H 531.241 -1.62918 1.06976 0
M  V30 5522 H 530.337 -3.07001 0.561877 0
M  V30 5523 N 530.638 -0.59345 -1.46 0
M  V30 5524 C 531.601 0.123538 -2.28867 0
M  V30 5525 C 532.601 0.808628 -1.38989 0
M  V30 5526 O 533.791 0.658945 -1.61256 0
M  V30 5527 C 530.923 1.1847 -3.19653 0
M  V30 5528 H 532.116 -0.604843 -2.93737 0
M  V30 5529 H 529.669 -0.351875 -1.52288 0
M  V30 5530 H 530.404 1.94431 -2.59552 0
M  V30 5531 H 530.189 0.69783 -3.8584 0
M  V30 5532 H 531.679 1.68726 -3.81997 0
M  V30 5533 N 532.116 1.54067 -0.331816 0
M  V30 5534 C 533.048 2.22139 0.564538 0
M  V30 5535 C 534.061 1.22408 1.07332 0
M  V30 5536 O 535.25 1.4883 0.985481 0
M  V30 5537 C 532.35 2.87876 1.78831 0
M  V30 5538 C 531.523 4.13817 1.41682 0
M  V30 5539 C 530.582 4.63072 2.49901 0
M  V30 5540 O 529.608 5.27562 2.13699 0
M  V30 5541 N 530.81 4.38001 3.80967 0
M  V30 5542 H 533.575 2.99694 -0.0183736 0
M  V30 5543 H 531.136 1.61153 -0.155396 0
M  V30 5544 H 533.128 3.17747 2.50637 0
M  V30 5545 H 531.698 2.13977 2.27887 0
M  V30 5546 H 530.918 3.9062 0.530044 0
M  V30 5547 H 532.206 4.95762 1.14443 0
M  V30 5548 H 531.604 3.864 4.13173 0
M  V30 5549 H 530.161 4.72507 4.48977 0
M  V30 5550 N 533.594 0.0601682 1.57485 0
M  V30 5551 C 534.824 -0.620037 1.97076 0
M  V30 5552 C 535.232 -1.64381 0.936784 0
M  V30 5553 O 534.575 -1.83497 -0.0863377 0
M  V30 5554 C 534.637 -1.35617 3.32939 0
M  V30 5555 C 534.301 -0.487208 4.54396 0
M  V30 5556 C 535.298 0.250428 5.19297 0
M  V30 5557 C 532.983 -0.415494 5.00579 0
M  V30 5558 C 534.977 1.04812 6.28723 0
M  V30 5559 C 532.664 0.385879 6.0988 0
M  V30 5560 C 533.662 1.11637 6.73815 0
M  V30 5561 O 533.35 1.90454 7.81014 0
M  V30 5562 H 533.082 -0.173664 0.653312 0
M  V30 5563 H 535.636 0.1256 2.05016 0
M  V30 5564 H 533.866 -2.14763 3.2158 0
M  V30 5565 H 535.555 -1.92749 3.57215 0
M  V30 5566 H 536.321 0.204546 4.84568 0
M  V30 5567 H 532.2 -0.973679 4.506 0
M  V30 5568 H 535.744 1.6188 6.78558 0
M  V30 5569 H 531.641 0.433366 6.44044 0
M  V30 5570 H 532.409 1.82762 7.97835 0
M  V30 5571 N 535.072 -1.5615 -0.213296 0
M  V30 5572 C 536.318 -1.80718 -0.933402 0
M  V30 5573 C 536.673 -0.634441 -1.81639 0
M  V30 5574 O 535.966 0.371182 -1.8797 0
M  V30 5575 C 536.16 -3.08772 -1.79985 0
M  V30 5576 C 535.989 -4.38389 -1.00224 0
M  V30 5577 C 534.759 -5.00513 -0.693885 0
M  V30 5578 C 536.957 -5.13013 -0.363598 0
M  V30 5579 N 534.939 -6.13774 0.124266 0
M  V30 5580 C 536.31 -6.19186 0.31757 0
M  V30 5581 C 538.365 -4.97126 -0.277468 0
M  V30 5582 C 537.068 -7.11197 1.07664 0
M  V30 5583 C 539.094 -5.89544 0.468155 0
M  V30 5584 C 538.456 -6.95149 1.13784 0
M  V30 5585 H 534.555 -0.712833 -0.321549 0
M  V30 5586 H 537.139 -1.93633 -0.203588 0
M  V30 5587 H 535.31 -2.97126 -2.50142 0
M  V30 5588 H 537.042 -3.21499 -2.45806 0
M  V30 5589 H 533.797 -4.62619 -1.01391 0
M  V30 5590 H 534.221 -6.74981 0.522418 0
M  V30 5591 H 538.863 -4.15526 -0.78087 0
M  V30 5592 H 536.581 -7.92273 1.59153 0
M  V30 5593 H 540.167 -5.79327 0.535911 0
M  V30 5594 H 539.047 -7.65428 1.70557 0
M  V30 5595 N 536.55 0.480323 -1.50102 0
M  V30 5596 C 537.796 1.23489 -1.60867 0
M  V30 5597 C 538.129 1.91809 -0.303827 0
M  V30 5598 O 537.404 1.81694 0.694092 0
M  V30 5599 C 537.687 2.28578 -2.78252 0
M  V30 5600 C 537.54 1.64624 -4.18592 0
M  V30 5601 C 538.859 3.2997 -2.91218 0
M  V30 5602 H 535.978 0.447605 -0.585507 0
M  V30 5603 H 538.62 0.530005 -1.82458 0
M  V30 5604 H 536.77 2.88697 -2.59974 0
M  V30 5605 H 538.442 1.08173 -4.48438 0
M  V30 5606 H 536.685 0.949645 -4.23278 0
M  V30 5607 H 537.356 2.40946 -4.96638 0
M  V30 5608 H 539.832 2.79864 -3.07921 0
M  V30 5609 H 538.708 4.00839 -3.74993 0
M  V30 5610 H 538.969 3.93541 -2.0144 0
M  V30 5611 N 538.028 1.39524 0.732853 0
M  V30 5612 C 539.258 1.3994 1.51988 0
M  V30 5613 C 539.666 -0.00727973 1.89199 0
M  V30 5614 O 539.009 -0.989521 1.54771 0
M  V30 5615 C 539.071 2.21026 2.83527 0
M  V30 5616 C 538.735 3.69633 2.68738 0
M  V30 5617 C 539.732 4.62665 2.37143 0
M  V30 5618 C 537.417 4.13244 2.85542 0
M  V30 5619 C 539.411 5.97291 2.22536 0
M  V30 5620 C 537.098 5.47945 2.70554 0
M  V30 5621 C 538.096 6.39783 2.39097 0
M  V30 5622 O 537.784 7.72002 2.24204 0
M  V30 5623 H 537.516 0.479795 0.476206 0
M  V30 5624 H 540.07 1.8399 0.913054 0
M  V30 5625 H 538.3 1.71728 3.46477 0
M  V30 5626 H 539.989 2.13594 3.45156 0
M  V30 5627 H 540.755 4.30272 2.2381 0
M  V30 5628 H 536.634 3.42094 3.09019 0
M  V30 5629 H 540.178 6.68939 1.97905 0
M  V30 5630 H 536.075 5.79928 2.83466 0
M  V30 5631 H 536.843 7.8275 2.39258 0
M  V30 5632 N 539.506 -0.963266 1.24736 0
M  V30 5633 C 540.783 -1.68248 0.9976 0
M  V30 5634 C 541.163 -2.05599 -0.478776 0
M  V30 5635 O 540.511 -1.7626 -1.45412 0
M  V30 5636 C 540.721 -2.91118 1.92487 0
M  V30 5637 C 542.069 -3.63261 2.19833 0
M  V30 5638 O 543.093 -3.01184 1.90176 0
M  V30 5639 O 541.952 -4.75019 2.7022 0
M  V30 5640 H 539.046 -0.735744 0.377637 0
M  V30 5641 H 541.592 -1.01696 1.35853 0
M  V30 5642 H 540.364 -2.60242 2.92215 0
M  V30 5643 H 539.987 -3.65402 1.56738 0
M  V30 5644 N 540.985 -1.06182 -1.16461 0
M  V30 5645 C 542.233 -0.776326 -1.86595 0
M  V30 5646 C 542.554 0.69921 -1.82033 0
M  V30 5647 O 541.824 1.50579 -1.2531 0
M  V30 5648 H 540.404 -0.284184 -0.690832 0
M  V30 5649 H 543.066 -1.34308 -1.41235 0
M  V30 5650 H 542.162 -1.10022 -2.92064 0
M  V30 5651 N 542.463 1.3308 -0.844243 0
M  V30 5652 C 543.373 2.32876 -0.283922 0
M  V30 5653 C 544.389 1.63589 0.592846 0
M  V30 5654 O 545.565 1.95205 0.495693 0
M  V30 5655 C 542.63 3.42667 0.527283 0
M  V30 5656 C 541.691 4.27664 -0.374394 0
M  V30 5657 C 540.924 5.32212 0.39819 0
M  V30 5658 O 541.147 5.46635 1.62932 0
M  V30 5659 O 540.081 6.01458 -0.2306 0
M  V30 5660 H 543.907 2.82671 -1.11045 0
M  V30 5661 H 541.492 1.36518 -0.606903 0
M  V30 5662 H 543.374 4.09652 0.988078 0
M  V30 5663 H 542.049 2.95079 1.33078 0
M  V30 5664 H 540.956 3.63526 -0.883144 0
M  V30 5665 H 542.289 4.78749 -1.1428 0
M  V30 5666 N 543.941 0.601185 1.45683 0
M  V30 5667 C 544.888 -0.121396 2.30481 0
M  V30 5668 C 545.858 -0.866232 1.41724 0
M  V30 5669 O 547.043 -0.85324 1.70659 0
M  V30 5670 C 544.183 -1.11704 3.26521 0
M  V30 5671 C 543.296 -0.373741 4.3038 0
M  V30 5672 C 542.431 -1.35854 5.13534 0
M  V30 5673 C 541.47 -0.602689 6.09126 0
M  V30 5674 N 540.607 -1.53645 6.85082 0
M  V30 5675 H 545.447 0.607732 2.91737 0
M  V30 5676 H 542.984 0.311502 1.43764 0
M  V30 5677 H 544.942 -1.70735 3.80664 0
M  V30 5678 H 543.572 -1.81366 2.67032 0
M  V30 5679 H 542.624 0.331962 3.78949 0
M  V30 5680 H 543.936 0.2163 4.98331 0
M  V30 5681 H 543.09 -2.02111 5.72046 0
M  V30 5682 H 541.829 -1.98251 4.45587 0
M  V30 5683 H 540.834 0.0735482 5.49751 0
M  V30 5684 H 542.059 0.0161467 6.79098 0
M  V30 5685 H 540.005 -2.14819 6.1983 0
M  V30 5686 H 539.922 -0.999688 7.49361 0
M  V30 5687 H 541.19 -2.1888 7.48139 0
M  V30 5688 N 545.419 -1.53889 0.339982 0
M  V30 5689 C 546.83 -1.86139 -0.144671 0
M  V30 5690 C 547.181 -1.2613 -1.50285 0
M  V30 5691 O 546.306 -0.573515 -2.08662 0
M  V30 5692 C 546.901 -3.37728 -0.269285 0
M  V30 5693 C 545.46 -3.69868 -0.698168 0
M  V30 5694 C 544.607 -2.76777 0.170249 0
M  V30 5695 H 547.558 -1.48503 0.559704 0
M  V30 5696 H 547.579 -3.64331 -1.0974 0
M  V30 5697 H 547.091 -3.81375 0.719366 0
M  V30 5698 H 545.192 -3.31764 -1.69597 0
M  V30 5699 H 545.305 -4.76582 -0.490533 0
M  V30 5700 H 543.669 -2.52188 -0.356844 0
M  V30 5701 H 544.452 -3.23253 1.15597 0
M  V30 5702 N 546.897 -0.0685191 -1.57451 0
M  V30 5703 C 548.143 0.602239 -1.93652 0
M  V30 5704 C 548.476 1.6946 -0.948526 0
M  V30 5705 O 547.751 1.94487 0.022782 0
M  V30 5706 C 548.034 1.18223 -3.4014 0
M  V30 5707 C 547.887 0.0967431 -4.49696 0
M  V30 5708 C 549.206 2.08872 -3.87377 0
M  V30 5709 H 546.325 0.217453 -0.70419 0
M  V30 5710 H 548.967 -0.133821 -1.89528 0
M  V30 5711 H 547.117 1.80953 -3.43785 0
M  V30 5712 H 548.789 -0.536155 -4.58174 0
M  V30 5713 H 547.032 -0.573063 -4.29998 0
M  V30 5714 H 547.703 0.542894 -5.49324 0
M  V30 5715 H 550.179 1.56081 -3.85717 0
M  V30 5716 H 549.055 2.46389 -4.90493 0
M  V30 5717 H 549.316 2.99572 -3.25129 0
M  V30 5718 N 548.375 1.56261 0.205012 0
M  V30 5719 C 549.305 1.96779 1.257 0
M  V30 5720 C 550.286 0.838309 1.48008 0
M  V30 5721 O 551.471 1.10189 1.59913 0
M  V30 5722 C 548.601 2.29876 2.60335 0
M  V30 5723 C 547.555 3.45469 2.52656 0
M  V30 5724 C 546.881 3.64215 3.91473 0
M  V30 5725 C 548.181 4.79954 2.06014 0
M  V30 5726 H 549.875 2.84904 0.920338 0
M  V30 5727 H 547.421 1.37072 0.441277 0
M  V30 5728 H 549.374 2.56814 3.34102 0
M  V30 5729 H 548.098 1.38622 2.95722 0
M  V30 5730 H 546.757 3.18605 1.81345 0
M  V30 5731 H 546.405 2.70309 4.24196 0
M  V30 5732 H 546.105 4.41973 3.87213 0
M  V30 5733 H 547.629 3.93519 4.66878 0
M  V30 5734 H 549.043 5.05989 2.69533 0
M  V30 5735 H 547.44 5.61111 2.12777 0
M  V30 5736 H 548.51 4.74201 1.01297 0
M  V30 5737 N 549.853 -0.472356 1.50355 0
M  V30 5738 C 551.101 -1.22211 1.60962 0
M  V30 5739 C 551.422 -1.92497 0.311439 0
M  V30 5740 O 550.692 -1.8405 -0.671002 0
M  V30 5741 H 549.272 -0.454092 0.593135 0
M  V30 5742 H 551.934 -0.544977 1.87126 0
M  V30 5743 H 551.03 -1.9707 2.42012 0
M  V30 5744 N 551.331 -1.39911 -0.725443 0
M  V30 5745 C 552.742 -1.33599 -1.30415 0
M  V30 5746 C 553.093 -0.00481792 -1.96199 0
M  V30 5747 O 552.218 0.897275 -1.96921 0
M  V30 5748 C 552.813 -2.41965 -2.37146 0
M  V30 5749 C 551.372 -2.39144 -2.90667 0
M  V30 5750 C 550.519 -2.23355 -1.64341 0
M  V30 5751 H 553.47 -1.4986 -0.522267 0
M  V30 5752 H 553.491 -2.09304 -3.17761 0
M  V30 5753 H 553.003 -3.38837 -1.89238 0
M  V30 5754 H 551.104 -1.4594 -3.4283 0
M  V30 5755 H 551.217 -3.34362 -3.43131 0
M  V30 5756 H 549.581 -1.70696 -1.89037 0
M  V30 5757 H 550.364 -3.2221 -1.18471 0
M  V30 5758 N 552.809 0.956637 -1.25245 0
M  V30 5759 C 553.772 2.03457 -1.05537 0
M  V30 5760 C 554.772 1.60798 -0.00886317 0
M  V30 5761 O 555.962 1.72384 -0.250865 0
M  V30 5762 C 553.094 3.35543 -0.601965 0
M  V30 5763 H 554.287 2.22372 -2.01223 0
M  V30 5764 H 551.84 1.13344 -1.07623 0
M  V30 5765 H 552.575 3.22323 0.357584 0
M  V30 5766 H 552.36 3.67854 -1.35743 0
M  V30 5767 H 553.85 4.14769 -0.485454 0
M  V30 5768 N 554.287 1.06798 1.15896 0
M  V30 5769 C 555.698 0.811355 1.68149 0
M  V30 5770 C 556.049 -0.664339 1.8461 0
M  V30 5771 O 555.174 -1.51485 1.54535 0
M  V30 5772 C 555.769 1.46624 3.05429 0
M  V30 5773 C 554.328 1.25726 3.54781 0
M  V30 5774 C 553.475 1.53949 2.3064 0
M  V30 5775 H 556.426 1.23078 1.00187 0
M  V30 5776 H 556.447 0.88437 3.7008 0
M  V30 5777 H 555.959 2.54025 2.93416 0
M  V30 5778 H 554.06 0.20322 3.72045 0
M  V30 5779 H 554.173 1.97354 4.36564 0
M  V30 5780 H 552.537 0.96025 2.35905 0
M  V30 5781 H 553.32 2.6252 2.2122 0
M  V30 5782 N 555.766 -1.3263 0.851289 0
M  V30 5783 C 556.696 -2.31449 0.308771 0
M  V30 5784 C 557.677 -1.59531 -0.590255 0
M  V30 5785 O 558.862 -1.87351 -0.511205 0
M  V30 5786 C 555.992 -3.43586 -0.506548 0
M  V30 5787 C 554.946 -4.26963 0.297753 0
M  V30 5788 C 554.272 -5.30831 -0.642094 0
M  V30 5789 C 555.572 -4.99643 1.52166 0
M  V30 5790 H 557.266 -2.77074 1.13447 0
M  V30 5791 H 554.812 -1.33207 0.546971 0
M  V30 5792 H 556.765 -4.11754 -0.896474 0
M  V30 5793 H 555.489 -2.96681 -1.36558 0
M  V30 5794 H 554.148 -3.60437 0.669391 0
M  V30 5795 H 553.796 -4.8018 -1.49788 0
M  V30 5796 H 553.496 -5.87501 -0.107968 0
M  V30 5797 H 555.02 -6.01862 -1.02927 0
M  V30 5798 H 556.434 -5.6051 1.20421 0
M  V30 5799 H 554.831 -5.66022 1.99347 0
M  V30 5800 H 555.901 -4.27701 2.28474 0
M  V30 5801 N 557.244 -0.608902 -1.45362 0
M  V30 5802 C 558.472 -0.111013 -2.06602 0
M  V30 5803 C 558.887 1.20516 -1.45332 0
M  V30 5804 O 558.244 1.73437 -0.567978 0
M  V30 5805 C 558.295 0.033688 -3.61484 0
M  V30 5806 O 558.016 -1.23041 -4.20467 0
M  V30 5807 C 559.517 0.562882 -4.39712 0
M  V30 5808 H 556.737 -0.0694453 -0.667397 0
M  V30 5809 H 559.281 -0.837008 -1.86586 0
M  V30 5810 H 557.436 0.710016 -3.80838 0
M  V30 5811 H 557.85 -1.06094 -5.13658 0
M  V30 5812 H 559.324 0.613213 -5.48583 0
M  V30 5813 H 559.801 1.58543 -4.09586 0
M  V30 5814 H 560.407 -0.0794454 -4.25226 0
M  V30 5815 N 558.722 1.53707 -0.348139 0
M  V30 5816 C 559.632 2.28881 0.514857 0
M  V30 5817 C 560.648 1.34168 1.10793 0
M  V30 5818 O 561.824 1.6721 1.12262 0
M  V30 5819 C 558.889 3.05042 1.64774 0
M  V30 5820 C 557.95 4.15389 1.08398 0
M  V30 5821 C 557.183 4.87909 2.16287 0
M  V30 5822 O 557.406 4.60137 3.3709 0
M  V30 5823 O 556.34 5.74254 1.80323 0
M  V30 5824 H 560.166 3.03547 -0.0963699 0
M  V30 5825 H 557.751 1.48972 -0.113043 0
M  V30 5826 H 559.633 3.52656 2.30677 0
M  V30 5827 H 558.308 2.33228 2.24469 0
M  V30 5828 H 557.215 3.72068 0.389341 0
M  V30 5829 H 558.548 4.89318 0.531829 0
M  V30 5830 N 560.2 0.0768682 1.57412 0
M  V30 5831 C 561.13 -0.886026 2.16037 0
M  V30 5832 C 562.111 -1.30691 1.08876 0
M  V30 5833 O 563.296 -1.37705 1.36934 0
M  V30 5834 C 560.426 -2.1518 2.72608 0
M  V30 5835 C 559.38 -1.87015 3.8498 0
M  V30 5836 C 558.706 -3.20266 4.28175 0
M  V30 5837 C 560.006 -1.17143 5.08994 0
M  V30 5838 H 561.7 -0.397642 2.96748 0
M  V30 5839 H 559.246 -0.189823 1.42743 0
M  V30 5840 H 561.199 -2.82962 3.12266 0
M  V30 5841 H 559.923 -2.66269 1.89125 0
M  V30 5842 H 558.582 -1.21636 3.45833 0
M  V30 5843 H 558.23 -3.69207 3.41607 0
M  V30 5844 H 557.93 -3.0221 5.03927 0
M  V30 5845 H 559.454 -3.89237 4.70454 0
M  V30 5846 H 560.868 -1.75003 5.45937 0
M  V30 5847 H 559.265 -1.09328 5.90057 0
M  V30 5848 H 560.335 -0.151295 4.84664 0
M  V30 5849 N 561.678 -1.56367 -0.196722 0
M  V30 5850 C 562.926 -1.80172 -0.915554 0
M  V30 5851 C 563.247 -0.649649 -1.8386 0
M  V30 5852 O 562.517 0.332111 -1.93064 0
M  V30 5853 H 561.097 -0.664592 -0.341067 0
M  V30 5854 H 563.759 -1.93844 -0.202622 0
M  V30 5855 H 562.855 -2.7327 -1.50764 0
M  V30 5856 N 563.156 0.464375 -1.50603 0
M  V30 5857 C 564.086 1.56944 -1.72889 0
M  V30 5858 C 565.067 1.59979 -0.577997 0
M  V30 5859 O 566.252 1.76138 -0.817855 0
M  V30 5860 C 563.382 2.95225 -1.8292 0
M  V30 5861 C 562.336 3.07056 -2.98162 0
M  V30 5862 C 561.662 4.47051 -2.93343 0
M  V30 5863 C 562.962 2.83648 -4.38567 0
M  V30 5864 H 564.656 1.38547 -2.65415 0
M  V30 5865 H 562.202 0.665082 -1.27721 0
M  V30 5866 H 564.155 3.72467 -1.97095 0
M  V30 5867 H 562.879 3.14793 -0.870209 0
M  V30 5868 H 561.538 2.32248 -2.83648 0
M  V30 5869 H 561.186 4.63547 -1.95276 0
M  V30 5870 H 560.886 4.55902 -3.70712 0
M  V30 5871 H 562.41 5.26304 -3.09575 0
M  V30 5872 H 563.824 3.50636 -4.53572 0
M  V30 5873 H 562.221 3.03937 -5.17438 0
M  V30 5874 H 563.291 1.79451 -4.50472 0
M  V30 5875 N 564.634 1.40294 0.718013 0
M  V30 5876 C 565.88 1.38645 1.48005 0
M  V30 5877 C 566.213 -0.0121202 1.94196 0
M  V30 5878 O 565.488 -0.980309 1.67989 0
M  V30 5879 C 565.771 2.37379 2.70782 0
M  V30 5880 C 565.624 3.8625 2.30501 0
M  V30 5881 C 566.943 2.33685 3.72933 0
M  V30 5882 H 564.062 0.504928 0.536858 0
M  V30 5883 H 566.704 1.71411 0.819649 0
M  V30 5884 H 564.854 2.09568 3.27129 0
M  V30 5885 H 566.526 4.24879 1.79655 0
M  V30 5886 H 564.769 4.02202 1.6253 0
M  V30 5887 H 565.44 4.50847 3.18498 0
M  V30 5888 H 567.916 2.58314 3.2621 0
M  V30 5889 H 566.792 3.0482 4.56482 0
M  V30 5890 H 567.053 1.34765 4.21059 0
M  V30 5891 N 566.112 -0.949982 1.2575 0
M  V30 5892 C 567.528 -1.22191 1.02672 0
M  V30 5893 C 567.728 -1.99898 -0.253588 0
M  V30 5894 O 566.784 -2.33329 -0.965076 0
M  V30 5895 C 568.097 -1.99175 2.25277 0
M  V30 5896 C 569.645 -2.12201 2.30087 0
M  V30 5897 C 570.12 -2.92586 3.5236 0
M  V30 5898 N 571.611 -3.00163 3.52784 0
M  V30 5899 C 572.346 -3.62766 4.44059 0
M  V30 5900 N 571.842 -4.26943 5.45611 0
M  V30 5901 N 573.635 -3.59953 4.3173 0
M  V30 5902 H 565.786 -0.430258 2.07996 0
M  V30 5903 H 568.049 -0.252844 0.91366 0
M  V30 5904 H 567.755 -1.49479 3.18354 0
M  V30 5905 H 567.629 -2.99868 2.28821 0
M  V30 5906 H 570.016 -2.61093 1.3753 0
M  V30 5907 H 570.097 -1.10799 2.30559 0
M  V30 5908 H 569.741 -2.44383 4.45241 0
M  V30 5909 H 569.671 -3.94224 3.49134 0
M  V30 5910 H 572.162 -2.54529 2.79327 0
M  V30 5911 H 572.475 -4.72583 6.11461 0
M  V30 5912 H 570.82 -4.25557 5.49478 0
M  V30 5913 H 574.011 -3.09003 3.51617 0
M  V30 5914 H 574.184 -4.08455 5.03059 0
M  V30 5915 N 567.59 -1.07411 -1.15328 0
M  V30 5916 C 568.837 -0.797649 -1.86128 0
M  V30 5917 C 569.165 0.676298 -1.82364 0
M  V30 5918 O 568.42 1.51223 -1.24218 0
M  V30 5919 C 568.719 -1.25191 -3.34757 0
M  V30 5920 C 568.385 -2.73191 -3.58716 0
M  V30 5921 C 567.047 -3.13616 -3.64964 0
M  V30 5922 C 569.399 -3.68718 -3.6837 0
M  V30 5923 C 566.727 -4.48383 -3.78377 0
M  V30 5924 C 569.079 -5.03248 -3.83306 0
M  V30 5925 C 567.743 -5.43293 -3.878 0
M  V30 5926 H 567.013 -0.29188 -0.681092 0
M  V30 5927 H 569.66 -1.34524 -1.36292 0
M  V30 5928 H 567.965 -0.623712 -3.86804 0
M  V30 5929 H 569.662 -1.01489 -3.87945 0
M  V30 5930 H 566.252 -2.40898 -3.54494 0
M  V30 5931 H 570.436 -3.38614 -3.62842 0
M  V30 5932 H 565.692 -4.78877 -3.80114 0
M  V30 5933 H 569.866 -5.77142 -3.89718 0
M  V30 5934 H 567.493 -6.47721 -3.97946 0
M  V30 5935 N 569.068 1.32177 -0.85831 0
M  V30 5936 C 570.479 1.79381 -0.517621 0
M  V30 5937 C 570.83 1.70841 0.964769 0
M  V30 5938 O 569.955 1.26917 1.75274 0
M  V30 5939 C 570.55 3.25706 -0.932801 0
M  V30 5940 C 569.109 3.70851 -0.643953 0
M  V30 5941 C 568.256 2.53208 -1.13054 0
M  V30 5942 H 571.207 1.19424 -1.04516 0
M  V30 5943 H 571.228 3.79673 -0.250674 0
M  V30 5944 H 570.74 3.31889 -2.01174 0
M  V30 5945 H 568.841 3.70178 0.424112 0
M  V30 5946 H 568.954 4.63495 -1.21281 0
M  V30 5947 H 567.318 2.48676 -0.550679 0
M  V30 5948 H 568.101 2.62143 -2.21666 0
M  V30 5949 N 570.547 0.616602 1.45037 0
M  V30 5950 C 571.793 0.115501 2.02471 0
M  V30 5951 C 572.126 -1.25406 1.4828 0
M  V30 5952 O 571.401 -1.82922 0.661051 0
M  V30 5953 C 571.684 0.0863588 3.59996 0
M  V30 5954 C 571.537 1.48723 4.24501 0
M  V30 5955 C 572.856 -0.596762 4.36035 0
M  V30 5956 H 569.975 0.0434461 0.735718 0
M  V30 5957 H 572.617 0.7903 1.72784 0
M  V30 5958 H 570.767 -0.488277 3.85419 0
M  V30 5959 H 572.439 2.10964 4.10234 0
M  V30 5960 H 570.682 2.04534 3.82555 0
M  V30 5961 H 571.353 1.419 5.3345 0
M  V30 5962 H 573.829 -0.10824 4.15959 0
M  V30 5963 H 572.705 -0.586289 5.4576 0
M  V30 5964 H 572.966 -1.66451 4.09569 0
M  V30 5965 N 572.025 -1.5352 0.356285 0
M  V30 5966 C 572.975 -2.22204 -0.510815 0
M  V30 5967 C 573.959 -1.21393 -1.05605 0
M  V30 5968 O 575.151 -1.46883 -0.987639 0
M  V30 5969 C 572.28 -3.00786 -1.65478 0
M  V30 5970 C 571.366 -4.08965 -1.12287 0
M  V30 5971 N 571.757 -5.04829 -0.313191 0
M  V30 5972 C 570.055 -4.23505 -1.39856 0
M  V30 5973 C 570.756 -5.81695 -0.0230322 0
M  V30 5974 N 569.732 -5.40074 -0.618144 0
M  V30 5975 H 573.534 -2.93676 0.114711 0
M  V30 5976 H 571.048 -1.61572 0.163811 0
M  V30 5977 H 573.045 -3.48502 -2.28806 0
M  V30 5978 H 571.705 -2.30843 -2.28345 0
M  V30 5979 H 572.716 -5.17879 0.0468202 0
M  V30 5980 H 569.393 -3.64786 -2.0307 0
M  V30 5981 H 570.783 -6.68931 0.630927 0
M  V30 5982 N 573.503 -0.0852151 -1.57369 0
M  V30 5983 C 574.466 0.8627 -2.12344 0
M  V30 5984 C 575.466 1.21746 -1.05046 0
M  V30 5985 O 576.656 1.14852 -1.30976 0
M  V30 5986 C 573.788 2.1618 -2.63589 0
M  V30 5987 H 574.981 0.385511 -2.97412 0
M  V30 5988 H 572.534 0.163663 -1.55441 0
M  V30 5989 H 573.269 2.68406 -1.82013 0
M  V30 5990 H 573.054 1.91723 -3.4203 0
M  V30 5991 H 574.544 2.84011 -3.06149 0
M  V30 5992 N 574.981 1.5647 0.188427 0
M  V30 5993 C 575.944 1.9421 1.21718 0
M  V30 5994 C 576.944 0.823901 1.38089 0
M  V30 5995 O 578.134 1.09122 1.35787 0
M  V30 5996 C 575.266 2.22197 2.58537 0
M  V30 5997 H 576.459 2.86252 0.894418 0
M  V30 5998 H 574.012 1.50263 0.430211 0
M  V30 5999 H 574.747 1.32814 2.95856 0
M  V30 6000 H 574.532 3.03688 2.48025 0
M  V30 6001 H 576.022 2.52376 3.3271 0
M  V30 6002 N 576.459 -0.456382 1.50847 0
M  V30 6003 C 577.389 -1.56025 1.73719 0
M  V30 6004 C 578.37 -1.5967 0.586473 0
M  V30 6005 O 579.555 -1.75702 0.827185 0
M  V30 6006 C 576.685 -2.94251 1.84483 0
M  V30 6007 C 575.639 -3.05471 2.99786 0
M  V30 6008 C 574.965 -4.45489 2.95709 0
M  V30 6009 C 576.265 -2.81318 4.40065 0
M  V30 6010 H 577.959 -1.37138 2.66146 0
M  V30 6011 H 575.505 -0.658299 1.28072 0
M  V30 6012 H 577.458 -3.71417 1.99067 0
M  V30 6013 H 576.182 -3.14328 0.886891 0
M  V30 6014 H 574.841 -2.30741 2.84876 0
M  V30 6015 H 574.489 -4.62505 1.97732 0
M  V30 6016 H 574.189 -4.53929 3.73125 0
M  V30 6017 H 575.713 -5.24655 3.12362 0
M  V30 6018 H 577.127 -3.48226 4.55425 0
M  V30 6019 H 575.524 -3.01188 5.19043 0
M  V30 6020 H 576.594 -1.7706 4.51418 0
M  V30 6021 N 577.937 -1.40673 -0.710563 0
M  V30 6022 C 579.183 -1.39428 -1.47267 0
M  V30 6023 C 579.516 0.00182129 -1.942 0
M  V30 6024 O 578.791 0.971387 -1.68506 0
M  V30 6025 C 579.074 -2.38812 -2.6952 0
M  V30 6026 C 578.927 -3.87467 -2.28449 0
M  V30 6027 C 580.246 -2.3566 -3.71689 0
M  V30 6028 H 577.365 -0.507768 -0.534173 0
M  V30 6029 H 580.007 -1.71843 -0.810547 0
M  V30 6030 H 578.157 -2.113 -3.26013 0
M  V30 6031 H 579.829 -4.25825 -1.77399 0
M  V30 6032 H 578.072 -4.03058 -1.60395 0
M  V30 6033 H 578.743 -4.5253 -3.16103 0
M  V30 6034 H 581.219 -2.6004 -3.24836 0
M  V30 6035 H 580.095 -3.07237 -4.54859 0
M  V30 6036 H 580.356 -1.36996 -4.20339 0
M  V30 6037 N 579.415 0.9433 -1.26252 0
M  V30 6038 C 580.661 1.69226 -1.12846 0
M  V30 6039 C 581.016 1.8963 0.325282 0
M  V30 6040 O 580.309 1.46435 1.23561 0
M  V30 6041 C 580.503 3.07073 -1.82868 0
M  V30 6042 C 580.332 3.00118 -3.34902 0
M  V30 6043 C 579.102 3.03251 -4.04186 0
M  V30 6044 C 581.3 2.80418 -4.31127 0
M  V30 6045 N 579.282 2.86573 -5.42908 0
M  V30 6046 C 580.653 2.72287 -5.5701 0
M  V30 6047 C 582.708 2.65185 -4.21404 0
M  V30 6048 C 581.411 2.50479 -6.74279 0
M  V30 6049 C 583.437 2.4475 -5.38378 0
M  V30 6050 C 582.799 2.37349 -6.63208 0
M  V30 6051 H 578.898 0.626716 -0.467708 0
M  V30 6052 H 581.482 1.11645 -1.5951 0
M  V30 6053 H 579.653 3.62797 -1.38682 0
M  V30 6054 H 581.385 3.70816 -1.62103 0
M  V30 6055 H 578.14 3.12882 -3.55531 0
M  V30 6056 H 578.564 2.81408 -6.15742 0
M  V30 6057 H 583.206 2.69675 -3.25631 0
M  V30 6058 H 580.924 2.4473 -7.70151 0
M  V30 6059 H 584.51 2.33872 -5.32724 0
M  V30 6060 H 583.39 2.21746 -7.52196 0
M  V30 6061 N 580.893 1.08022 1.14757 0
M  V30 6062 C 582.141 0.805913 1.85336 0
M  V30 6063 C 582.462 -0.670162 1.83122 0
M  V30 6064 O 581.732 -1.48567 1.2769 0
M  V30 6065 H 580.312 0.295138 0.686223 0
M  V30 6066 H 582.974 1.36538 1.3908 0
M  V30 6067 H 582.07 1.14655 2.90277 0
M  V30 6068 N 582.371 -1.3172 0.865308 0
M  V30 6069 C 583.782 -1.79104 0.527126 0
M  V30 6070 C 584.133 -1.7135 -0.955695 0
M  V30 6071 O 583.258 -1.27845 -1.74598 0
M  V30 6072 C 583.853 -3.25207 0.950061 0
M  V30 6073 C 582.412 -3.70504 0.663611 0
M  V30 6074 C 581.559 -2.52605 1.14395 0
M  V30 6075 H 584.51 -1.18868 1.05148 0
M  V30 6076 H 584.531 -3.79535 0.270805 0
M  V30 6077 H 584.043 -3.30818 2.02931 0
M  V30 6078 H 582.144 -3.70398 -0.404474 0
M  V30 6079 H 582.257 -4.62845 1.23737 0
M  V30 6080 H 580.621 -2.4838 0.563859 0
M  V30 6081 H 581.404 -2.60964 2.23053 0
M  V30 6082 N 583.85 -0.624285 -1.44708 0
M  V30 6083 C 584.76 0.0861083 -2.34442 0
M  V30 6084 C 585.776 0.84291 -1.5222 0
M  V30 6085 O 586.952 0.796723 -1.84971 0
M  V30 6086 C 584.017 1.05999 -3.30099 0
M  V30 6087 C 583.077 0.303316 -4.28227 0
M  V30 6088 C 582.311 1.23081 -5.19314 0
M  V30 6089 O 582.534 2.46929 -5.14181 0
M  V30 6090 O 581.468 0.71883 -5.97592 0
M  V30 6091 H 585.293 -0.651756 -2.96624 0
M  V30 6092 H 582.879 -0.384493 -1.44368 0
M  V30 6093 H 584.76 1.62046 -3.88997 0
M  V30 6094 H 583.436 1.77859 -2.70459 0
M  V30 6095 H 582.343 -0.300033 -3.72895 0
M  V30 6096 H 583.676 -0.375123 -4.90768 0
M  V30 6097 N 585.328 1.53329 -0.364422 0
M  V30 6098 C 586.275 2.25698 0.482607 0
M  V30 6099 C 587.245 1.26325 1.07848 0
M  V30 6100 O 588.43 1.55104 1.11119 0
M  V30 6101 C 585.57 3.04873 1.61699 0
M  V30 6102 C 584.683 4.19135 1.0464 0
M  V30 6103 C 583.818 4.85754 2.14979 0
M  V30 6104 C 582.857 5.9205 1.5538 0
M  V30 6105 N 581.994 6.52365 2.59547 0
M  V30 6106 H 586.834 2.97666 -0.141032 0
M  V30 6107 H 584.371 1.46875 -0.0813692 0
M  V30 6108 H 586.329 3.49051 2.28516 0
M  V30 6109 H 584.959 2.35162 2.2113 0
M  V30 6110 H 584.011 3.79451 0.268553 0
M  V30 6111 H 585.323 4.95525 0.570653 0
M  V30 6112 H 584.477 5.3311 2.89619 0
M  V30 6113 H 583.216 4.08834 2.65906 0
M  V30 6114 H 582.221 5.44058 0.792549 0
M  V30 6115 H 583.446 6.7089 1.0528 0
M  V30 6116 H 581.392 5.78298 3.09689 0
M  V30 6117 H 581.309 7.2429 2.16655 0
M  V30 6118 H 582.577 7.0437 3.33892 0
M  V30 6119 N 586.806 0.0935595 1.57322 0
M  V30 6120 C 587.754 -0.883457 2.15169 0
M  V30 6121 C 588.748 -1.29324 1.09415 0
M  V30 6122 O 589.954 -1.26795 1.27762 0
M  V30 6123 H 586.329 -0.302923 0.688289 0
M  V30 6124 H 588.3 -0.370845 2.96087 0
M  V30 6125 C 587.049 -2.13345 2.74552 0
M  V30 6126 H 586.372 -1.82702 3.55612 0
M  V30 6127 H 587.812 -2.7977 3.18598 0
M  V30 6128 C 586.271 -2.90646 1.70371 0
M  V30 6129 O 586.801 -3.85133 1.14173 0
M  V30 6130 N 585.007 -2.54157 1.40899 0
M  V30 6131 H 584.554 -1.77391 1.86789 0
M  V30 6132 H 584.512 -3.06178 0.714301 0
M  V30 6133 N 588.284 -1.56567 -0.180126 0
M  V30 6134 C 589.231 -1.95725 -1.22313 0
M  V30 6135 C 590.201 -0.819911 -1.44453 0
M  V30 6136 O 591.386 -1.07931 -1.57339 0
M  V30 6137 C 588.526 -2.31484 -2.55947 0
M  V30 6138 C 587.639 -3.58354 -2.4126 0
M  V30 6139 C 586.774 -3.83366 -3.67701 0
M  V30 6140 C 585.813 -5.03612 -3.47909 0
M  V30 6141 N 584.95 -5.24802 -4.66398 0
M  V30 6142 H 589.79 -2.84642 -0.882198 0
M  V30 6143 H 587.327 -1.4085 -0.42422 0
M  V30 6144 H 589.285 -2.50237 -3.33822 0
M  V30 6145 H 587.915 -1.45689 -2.88053 0
M  V30 6146 H 586.967 -3.47565 -1.54606 0
M  V30 6147 H 588.279 -4.46386 -2.22577 0
M  V30 6148 H 587.433 -4.02439 -4.54013 0
M  V30 6149 H 586.172 -2.93692 -3.89353 0
M  V30 6150 H 585.177 -4.84447 -2.59983 0
M  V30 6151 H 586.402 -5.94809 -3.27688 0
M  V30 6152 H 584.348 -4.38079 -4.88286 0
M  V30 6153 H 584.265 -6.07041 -4.50596 0
M  V30 6154 H 585.533 -5.48346 -5.54019 0
M  V30 6155 N 589.762 0.448376 -1.51087 0
M  V30 6156 C 591.011 1.19561 -1.62444 0
M  V30 6157 C 591.324 1.92602 -0.341151 0
M  V30 6158 O 592.53 2.69439 -0.333936 0
M  V30 6159 C 590.986 2.17373 -2.8684 0
M  V30 6160 C 590.594 1.5003 -4.22131 0
M  V30 6161 C 592.338 2.92597 -3.0755 0
M  V30 6162 C 590.245 2.46262 -5.37689 0
M  V30 6163 H 589.175 0.449975 -0.605011 0
M  V30 6164 H 591.826 0.463735 -1.77544 0
M  V30 6165 H 590.208 2.93948 -2.65349 0
M  V30 6166 H 591.382 0.790886 -4.53962 0
M  V30 6167 H 589.697 0.870011 -4.0721 0
M  V30 6168 H 592.294 3.64663 -3.91056 0
M  V30 6169 H 592.637 3.53306 -2.20183 0
M  V30 6170 H 593.17 2.23131 -3.29329 0
M  V30 6171 H 589.909 1.90258 -6.27281 0
M  V30 6172 H 589.429 3.15289 -5.10248 0
M  V30 6173 H 591.108 3.07623 -5.6919 0
M  V30 6174 N 591.24 1.41047 0.703093 0
M  V30 6175 C 592.47 1.43133 1.48985 0
M  V30 6176 C 592.878 0.0328537 1.89171 0
M  V30 6177 O 592.221 -0.956469 1.56835 0
M  V30 6178 C 592.283 2.26991 2.78775 0
M  V30 6179 C 591.947 3.7525 2.60837 0
M  V30 6180 C 592.944 4.67591 2.27276 0
M  V30 6181 C 590.629 4.19208 2.76712 0
M  V30 6182 C 592.623 6.01877 2.09817 0
M  V30 6183 C 590.31 5.53561 2.5887 0
M  V30 6184 C 591.308 6.4471 2.25472 0
M  V30 6185 O 590.996 7.76584 2.07778 0
M  V30 6186 H 590.728 0.489788 0.465922 0
M  V30 6187 H 593.282 1.85886 0.873822 0
M  V30 6188 H 591.512 1.79038 3.42757 0
M  V30 6189 H 593.201 2.20867 3.40547 0
M  V30 6190 H 593.967 4.34923 2.14633 0
M  V30 6191 H 589.846 3.48572 3.01693 0
M  V30 6192 H 593.39 6.72986 1.83671 0
M  V30 6193 H 589.287 5.85811 2.71102 0
M  V30 6194 H 590.055 7.87649 2.22601 0
M  V30 6195 N 592.718 -0.936591 1.26751 0
M  V30 6196 C 593.965 -1.68331 1.12566 0
M  V30 6197 C 594.293 -1.91677 -0.330168 0
M  V30 6198 O 593.548 -1.49859 -1.2586 0
M  V30 6199 C 593.847 -3.06099 1.84494 0
M  V30 6200 C 593.513 -3.02493 3.34378 0
M  V30 6201 C 592.175 -3.01217 3.75262 0
M  V30 6202 C 594.527 -2.94453 4.30055 0
M  V30 6203 C 591.855 -2.89672 5.10203 0
M  V30 6204 C 594.207 -2.84449 5.65041 0
M  V30 6205 C 592.871 -2.81518 6.0523 0
M  V30 6206 H 592.141 -0.615965 0.411907 0
M  V30 6207 H 594.788 -1.09292 1.5725 0
M  V30 6208 H 593.093 -3.6879 1.32292 0
M  V30 6209 H 594.79 -3.62733 1.70955 0
M  V30 6210 H 591.38 -3.04269 3.01858 0
M  V30 6211 H 595.564 -2.94544 3.99447 0
M  V30 6212 H 590.82 -2.85783 5.40498 0
M  V30 6213 H 594.994 -2.77192 6.38856 0
M  V30 6214 H 592.621 -2.72329 7.09747 0
M  V30 6215 N 594.196 -1.08629 -1.14182 0
M  V30 6216 C 595.443 -0.817345 -1.85272 0
M  V30 6217 C 595.771 0.656917 -1.83071 0
M  V30 6218 O 595.026 1.49897 -1.25815 0
M  V30 6219 C 595.325 -1.28734 -3.3341 0
M  V30 6220 C 594.991 -2.76981 -3.55798 0
M  V30 6221 C 593.653 -3.17469 -3.61617 0
M  V30 6222 C 596.005 -3.72605 -3.64438 0
M  V30 6223 C 593.333 -4.52371 -3.736 0
M  V30 6224 C 595.685 -5.07286 -3.77947 0
M  V30 6225 C 594.349 -5.47376 -3.82016 0
M  V30 6226 H 593.619 -0.299088 -0.677958 0
M  V30 6227 H 596.266 -1.35962 -1.34857 0
M  V30 6228 H 594.571 -0.664702 -3.8612 0
M  V30 6229 H 596.268 -1.05598 -3.86846 0
M  V30 6230 H 592.858 -2.44644 -3.51919 0
M  V30 6231 H 597.042 -3.42443 -3.5923 0
M  V30 6232 H 592.298 -4.82882 -3.75013 0
M  V30 6233 H 596.472 -5.81243 -3.83575 0
M  V30 6234 H 594.099 -6.51906 -3.91054 0
M  V30 6235 N 595.674 1.31259 -0.872281 0
M  V30 6236 C 597.09 1.49283 -0.564521 0
M  V30 6237 C 597.29 1.80243 0.900807 0
M  V30 6238 O 596.346 1.88246 1.68284 0
M  V30 6239 C 597.659 2.62503 -1.46673 0
M  V30 6240 C 599.207 2.76386 -1.46901 0
M  V30 6241 C 599.682 3.92705 -2.35684 0
M  V30 6242 N 601.173 3.99995 -2.33577 0
M  V30 6243 C 601.908 4.89276 -2.98992 0
M  V30 6244 N 601.404 5.83443 -3.73585 0
M  V30 6245 N 603.197 4.82541 -2.88289 0
M  V30 6246 H 595.348 1.09432 -1.82039 0
M  V30 6247 H 597.611 0.540949 -0.77851 0
M  V30 6248 H 597.317 2.46407 -2.50951 0
M  V30 6249 H 597.191 3.58695 -1.16696 0
M  V30 6250 H 599.578 2.91894 -0.433796 0
M  V30 6251 H 599.659 1.80853 -1.80903 0
M  V30 6252 H 599.303 3.77954 -3.39283 0
M  V30 6253 H 599.233 4.87549 -1.99006 0
M  V30 6254 H 601.724 3.32624 -1.7936 0
M  V30 6255 H 602.037 6.48303 -4.20622 0
M  V30 6256 H 600.382 5.83415 -3.77694 0
M  V30 6257 H 603.573 4.07951 -2.2955 0
M  V30 6258 H 603.746 5.51916 -3.39549 0
M  V30 6259 N 597.152 0.631951 1.44375 0
M  V30 6260 C 598.4 0.136497 2.01639 0
M  V30 6261 C 598.721 -1.24637 1.49969 0
M  V30 6262 O 597.991 -1.82827 0.70363 0
M  V30 6263 H 596.571 0.0474703 0.74549 0
M  V30 6264 H 599.233 0.818837 1.76865 0
M  V30 6265 H 598.329 0.104817 3.11924 0
M  V30 6266 N 598.631 -1.53133 0.372548 0
M  V30 6267 C 600.047 -1.59585 0.02178 0
M  V30 6268 C 600.247 -1.38736 -1.46132 0
M  V30 6269 O 599.303 -1.19599 -2.22379 0
M  V30 6270 C 600.616 -2.9678 0.483959 0
M  V30 6271 C 602.164 -3.09909 0.438775 0
M  V30 6272 C 602.639 -4.49527 0.876876 0
M  V30 6273 N 604.13 -4.55663 0.832214 0
M  V30 6274 C 604.865 -5.61896 1.14281 0
M  V30 6275 N 604.361 -6.75852 1.52303 0
M  V30 6276 N 606.154 -5.51916 1.06515 0
M  V30 6277 H 598.305 -1.64936 1.33827 0
M  V30 6278 H 600.568 -0.773947 0.547458 0
M  V30 6279 H 600.274 -3.17198 1.51915 0
M  V30 6280 H 600.148 -3.7699 -0.125784 0
M  V30 6281 H 602.535 -2.89197 -0.587294 0
M  V30 6282 H 602.616 -2.31691 1.0841 0
M  V30 6283 H 602.26 -4.70979 1.90109 0
M  V30 6284 H 602.19 -5.26186 0.208727 0
M  V30 6285 H 604.681 -3.73844 0.552195 0
M  V30 6286 H 604.994 -7.52862 1.7441 0
M  V30 6287 H 603.339 -6.77226 1.56175 0
M  V30 6288 H 606.53 -4.6177 0.767235 0
M  V30 6289 H 606.703 -6.34609 1.31053 0
M  V30 6290 N 600.109 -0.101901 -1.5727 0
M  V30 6291 C 601.386 0.602832 -1.86079 0
M  V30 6292 C 601.766 1.85912 -1 0
M  V30 6293 O 601.114 2.28379 -0.0742488 0
M  V30 6294 C 601.324 0.911694 -3.36881 0
M  V30 6295 C 602.672 1.2722 -4.05093 0
M  V30 6296 O 603.696 1.0025 -3.41802 0
M  V30 6297 O 602.555 1.7776 -5.16782 0
M  V30 6298 H 599.649 0.302366 -0.769743 0
M  V30 6299 H 602.195 -0.135113 -1.69161 0
M  V30 6300 H 600.967 0.0207256 -3.91295 0
M  V30 6301 H 600.59 1.70538 -3.59169 0
M  V30 6302 N 601.587 1.56661 0.17182 0
M  V30 6303 C 602.817 1.85831 0.902804 0
M  V30 6304 C 603.225 0.685157 1.76358 0
M  V30 6305 O 602.568 -0.354947 1.80238 0
M  V30 6306 C 602.63 3.09406 1.83053 0
M  V30 6307 C 602.294 4.4231 1.1494 0
M  V30 6308 C 603.291 5.17342 0.515104 0
M  V30 6309 C 600.976 4.89045 1.14631 0
M  V30 6310 C 602.97 6.37299 -0.113194 0
M  V30 6311 C 600.657 6.08933 0.514184 0
M  V30 6312 C 601.655 6.82904 -0.114463 0
M  V30 6313 O 601.343 8.00518 -0.736622 0
M  V30 6314 H 601.075 0.620715 0.267748 0
M  V30 6315 H 603.629 2.04637 0.176918 0
M  V30 6316 H 601.859 2.86544 2.59672 0
M  V30 6317 H 603.548 3.25027 2.4313 0
M  V30 6318 H 604.314 4.82317 0.509474 0
M  V30 6319 H 600.193 4.31409 1.62502 0
M  V30 6320 H 603.737 6.94976 -0.604477 0
M  V30 6321 H 599.634 6.43423 0.517395 0
M  V30 6322 H 600.402 8.16027 -0.635822 0
M  V30 6323 N 603.065 -0.440357 1.51323 0
M  V30 6324 C 604.311 -1.18874 1.65047 0
M  V30 6325 C 604.666 -1.88988 0.360742 0
M  V30 6326 O 603.959 -1.80479 -0.643272 0
M  V30 6327 C 604.153 -2.2339 2.78984 0
M  V30 6328 C 603.982 -1.63534 4.18911 0
M  V30 6329 C 602.752 -1.42158 4.84891 0
M  V30 6330 C 604.95 -1.11324 5.02107 0
M  V30 6331 N 602.932 -0.778679 6.08942 0
M  V30 6332 C 604.303 -0.595421 6.17134 0
M  V30 6333 C 606.358 -1.00471 4.87658 0
M  V30 6334 C 605.061 0.0202557 7.19297 0
M  V30 6335 C 607.087 -0.402928 5.90026 0
M  V30 6336 C 606.449 0.10436 7.04323 0
M  V30 6337 H 602.548 -0.422771 0.657866 0
M  V30 6338 H 605.132 -0.485814 1.88542 0
M  V30 6339 H 603.303 -2.91074 2.57158 0
M  V30 6340 H 605.035 -2.90366 2.81904 0
M  V30 6341 H 601.79 -1.68247 4.42707 0
M  V30 6342 H 602.214 -0.474755 6.75333 0
M  V30 6343 H 606.856 -1.38278 3.99548 0
M  V30 6344 H 604.574 0.410468 8.07057 0
M  V30 6345 H 608.16 -0.320897 5.80914 0
M  V30 6346 H 607.04 0.562697 7.82179 0
M  V30 6347 N 604.543 -1.41418 -0.695603 0
M  V30 6348 C 605.959 -1.23887 -1.00619 0
M  V30 6349 C 606.159 -0.128206 -2.01092 0
M  V30 6350 O 605.215 0.507408 -2.47349 0
M  V30 6351 C 606.528 -2.58816 -1.53083 0
M  V30 6352 C 608.076 -2.65998 -1.64967 0
M  V30 6353 C 608.551 -4.01244 -2.20833 0
M  V30 6354 N 610.042 -4.0309 -2.28194 0
M  V30 6355 C 610.777 -5.04539 -2.72448 0
M  V30 6356 N 610.273 -6.16378 -3.16306 0
M  V30 6357 N 612.066 -4.91901 -2.72011 0
M  V30 6358 H 604.217 -2.12379 -0.0300061 0
M  V30 6359 H 606.48 -0.944958 -0.0758797 0
M  V30 6360 H 606.186 -3.40842 -0.867147 0
M  V30 6361 H 606.06 -2.81299 -2.51298 0
M  V30 6362 H 608.447 -1.84331 -2.30448 0
M  V30 6363 H 608.528 -2.47325 -0.652982 0
M  V30 6364 H 608.172 -4.83359 -1.55968 0
M  V30 6365 H 608.102 -4.17257 -3.21254 0
M  V30 6366 H 610.593 -3.22341 -1.97242 0
M  V30 6367 H 610.906 -6.89658 -3.487 0
M  V30 6368 H 609.251 -6.19914 -3.14215 0
M  V30 6369 H 612.442 -4.03613 -2.37095 0
M  V30 6370 H 612.615 -5.71102 -3.06181 0
M  V30 6371 N 606.021 0.929856 -1.27246 0
M  V30 6372 C 607.268 1.67731 -1.13457 0
M  V30 6373 C 607.596 1.9185 0.319998 0
M  V30 6374 O 606.851 1.50524 1.25064 0
M  V30 6375 C 607.15 3.05116 -1.86115 0
M  V30 6376 C 606.816 3.00715 -3.35978 0
M  V30 6377 C 605.478 2.99222 -3.76855 0
M  V30 6378 C 607.83 2.92168 -4.3161 0
M  V30 6379 C 605.158 2.86962 -5.11732 0
M  V30 6380 C 607.51 2.81449 -5.66542 0
M  V30 6381 C 606.174 2.78305 -6.06715 0
M  V30 6382 H 605.444 0.613772 -0.415168 0
M  V30 6383 H 608.091 1.08456 -1.57827 0
M  V30 6384 H 606.396 3.68083 -1.34246 0
M  V30 6385 H 608.093 3.61822 -1.72876 0
M  V30 6386 H 604.683 3.02664 -3.03468 0
M  V30 6387 H 608.867 2.92421 -4.01003 0
M  V30 6388 H 604.123 2.82913 -5.42006 0
M  V30 6389 H 608.297 2.738 -6.40317 0
M  V30 6390 H 605.924 2.68561 -7.11181 0
M  V30 6391 N 607.499 1.09233 1.13605 0
M  V30 6392 C 608.449 0.6994 2.17008 0
M  V30 6393 C 609.433 -0.285238 1.58352 0
M  V30 6394 O 610.625 -0.09592 1.7674 0
M  V30 6395 C 607.754 0.11938 3.43092 0
M  V30 6396 C 606.84 1.13031 4.0876 0
M  V30 6397 N 607.231 2.31673 4.49623 0
M  V30 6398 C 605.529 0.967999 4.35369 0
M  V30 6399 C 606.23 2.95964 5.00779 0
M  V30 6400 N 605.206 2.23534 4.95513 0
M  V30 6401 H 609.008 1.60272 2.46354 0
M  V30 6402 H 606.522 0.968257 1.30378 0
M  V30 6403 H 608.519 -0.180122 4.16511 0
M  V30 6404 H 607.179 -0.778816 3.15221 0
M  V30 6405 H 608.19 2.69277 4.42391 0
M  V30 6406 H 604.867 0.124319 4.17315 0
M  V30 6407 H 606.257 3.96813 5.42208 0
M  V30 6408 N 608.977 -1.30795 0.87923 0
M  V30 6409 C 610.388 -1.78535 0.546093 0
M  V30 6410 C 610.739 -1.72354 -0.937467 0
M  V30 6411 O 609.864 -1.2969 -1.73233 0
M  V30 6412 C 610.459 -3.24181 0.9845 0
M  V30 6413 C 609.018 -3.69779 0.702871 0
M  V30 6414 C 608.165 -2.51377 1.17068 0
M  V30 6415 H 611.116 -1.17746 1.06403 0
M  V30 6416 H 611.137 -3.79227 0.311045 0
M  V30 6417 H 610.649 -3.28647 2.06429 0
M  V30 6418 H 608.75 -3.70806 -0.365166 0
M  V30 6419 H 608.863 -4.61507 1.28639 0
M  V30 6420 H 607.227 -2.47768 0.590172 0
M  V30 6421 H 608.01 -2.58584 2.25808 0
M  V30 6422 N 610.455 -0.639598 -1.44038 0
M  V30 6423 C 611.68 -0.153117 -2.06834 0
M  V30 6424 C 612.105 1.16676 -1.47541 0
M  V30 6425 O 611.463 1.71769 -0.580093 0
M  V30 6426 C 611.511 -0.0609169 -3.60549 0
M  V30 6427 O 610.615 0.98071 -4.00569 0
M  V30 6428 H 609.956 -0.0886402 -0.658057 0
M  V30 6429 H 612.486 -0.878674 -1.84771 0
M  V30 6430 H 612.496 0.126892 -4.07803 0
M  V30 6431 H 611.171 -1.0245 -4.03084 0
M  V30 6432 H 609.748 0.766789 -3.64931 0
M  V30 6433 N 611.933 1.52934 -0.380664 0
M  V30 6434 C 613.161 2.05886 0.204599 0
M  V30 6435 C 613.576 1.25305 1.41223 0
M  V30 6436 O 612.933 0.297504 1.80059 0
M  V30 6437 C 612.984 3.56764 0.583249 0
M  V30 6438 O 612.705 4.34292 -0.576398 0
M  V30 6439 C 614.206 4.2603 1.2253 0
M  V30 6440 H 611.426 0.670193 0.0328991 0
M  V30 6441 H 613.97 1.97148 -0.543397 0
M  V30 6442 H 612.125 3.65603 1.28115 0
M  V30 6443 H 612.539 5.23819 -0.267119 0
M  V30 6444 H 614.013 5.32868 1.44068 0
M  V30 6445 H 614.49 3.80698 2.19011 0
M  V30 6446 H 615.096 4.21485 0.568407 0
M  V30 6447 N 613.412 0.11024 1.57214 0
M  V30 6448 C 614.828 -0.24638 1.57687 0
M  V30 6449 C 615.028 -1.67344 1.12241 0
M  V30 6450 O 614.084 -2.39298 0.805783 0
M  V30 6451 C 615.397 -0.0210288 3.00693 0
M  V30 6452 C 616.945 -0.0876077 3.12877 0
M  V30 6453 C 617.42 0.10994 4.57868 0
M  V30 6454 N 618.911 0.0556135 4.63167 0
M  V30 6455 C 619.646 0.183495 5.73106 0
M  V30 6456 N 619.142 0.367058 6.91827 0
M  V30 6457 N 620.935 0.123689 5.61964 0
M  V30 6458 H 613.086 1.04246 1.85058 0
M  V30 6459 H 615.349 0.40979 0.854854 0
M  V30 6460 H 615.055 0.965203 3.38196 0
M  V30 6461 H 614.929 -0.756748 3.69531 0
M  V30 6462 H 617.316 -1.06436 2.75237 0
M  V30 6463 H 617.397 0.67985 2.466 0
M  V30 6464 H 617.041 1.08362 4.96206 0
M  V30 6465 H 616.971 -0.677397 5.22225 0
M  V30 6466 H 619.462 -0.0831062 3.77809 0
M  V30 6467 H 619.775 0.455739 7.71455 0
M  V30 6468 H 618.12 0.40292 6.93831 0
M  V30 6469 H 621.311 -0.0186928 4.68096 0
M  V30 6470 H 621.484 0.226797 6.47603 0
M  V30 6471 N 614.89 -1.56749 -0.16351 0
M  V30 6472 C 616.306 -1.51043 -0.515567 0
M  V30 6473 C 616.506 -0.815855 -1.84245 0
M  V30 6474 O 615.562 -0.379477 -2.49632 0
M  V30 6475 C 616.875 -2.95791 -0.541114 0
M  V30 6476 C 618.423 -3.0664 -0.627776 0
M  V30 6477 C 618.898 -4.52861 -0.684141 0
M  V30 6478 N 620.389 -4.5714 -0.746818 0
M  V30 6479 C 621.124 -5.67634 -0.811137 0
M  V30 6480 N 620.62 -6.8774 -0.835811 0
M  V30 6481 N 622.413 -5.55624 -0.850756 0
M  V30 6482 H 614.564 -2.00307 0.70645 0
M  V30 6483 H 616.827 -0.912876 0.255659 0
M  V30 6484 H 616.533 -3.49797 0.365329 0
M  V30 6485 H 616.407 -3.50858 -1.38487 0
M  V30 6486 H 618.794 -2.52663 -1.52464 0
M  V30 6487 H 618.875 -2.54645 0.242805 0
M  V30 6488 H 618.519 -5.07472 0.2085 0
M  V30 6489 H 618.449 -5.02621 -1.57098 0
M  V30 6490 H 620.94 -3.70669 -0.735717 0
M  V30 6491 H 621.253 -7.67701 -0.886279 0
M  V30 6492 H 619.598 -6.90334 -0.803958 0
M  V30 6493 H 622.789 -4.60709 -0.828535 0
M  V30 6494 H 622.962 -6.41756 -0.897418 0
M  V30 6495 N 616.368 0.432326 -1.51554 0
M  V30 6496 C 617.614 1.18309 -1.64714 0
M  V30 6497 C 617.947 1.90745 -0.364696 0
M  V30 6498 O 617.222 1.8381 0.635936 0
M  V30 6499 C 617.505 2.1961 -2.85383 0
M  V30 6500 C 617.358 1.51223 -4.23617 0
M  V30 6501 C 618.677 3.20538 -3.01569 0
M  V30 6502 H 615.796 0.428751 -0.599451 0
M  V30 6503 H 618.438 0.471689 -1.84052 0
M  V30 6504 H 616.588 2.8028 -2.69027 0
M  V30 6505 H 618.26 0.938516 -4.51652 0
M  V30 6506 H 616.503 0.814501 -4.26085 0
M  V30 6507 H 617.174 2.25024 -5.04052 0
M  V30 6508 H 619.65 2.69926 -3.16669 0
M  V30 6509 H 618.526 3.88706 -3.87555 0
M  V30 6510 H 618.787 3.86933 -2.13859 0
M  V30 6511 N 617.846 1.41785 0.688094 0
M  V30 6512 C 619.123 1.32031 1.44316 0
M  V30 6513 C 619.503 -0.0486079 2.11044 0
M  V30 6514 O 618.851 -1.06332 2.02252 0
M  V30 6515 C 619.061 2.47906 2.45649 0
M  V30 6516 C 620.409 2.89415 3.10683 0
M  V30 6517 O 621.433 2.477 2.55975 0
M  V30 6518 O 620.292 3.61573 4.09789 0
M  V30 6519 H 617.386 0.519994 0.643067 0
M  V30 6520 H 619.932 1.53765 0.71794 0
M  V30 6521 H 618.704 3.39222 1.95048 0
M  V30 6522 H 618.327 2.28089 3.25671 0
M  V30 6523 N 619.324 -0.923095 1.27737 0
M  V30 6524 C 620.549 -1.71054 1.17283 0
M  V30 6525 C 620.974 -1.86208 -0.266153 0
M  V30 6526 O 620.332 -1.36545 -1.1927 0
M  V30 6527 C 620.38 -3.0854 1.86642 0
M  V30 6528 O 619.484 -3.95528 1.16752 0
M  V30 6529 H 618.825 -0.524136 0.407649 0
M  V30 6530 H 621.355 -1.15487 1.6889 0
M  V30 6531 H 621.365 -3.58828 1.94182 0
M  V30 6532 H 620.04 -2.96828 2.91317 0
M  V30 6533 H 618.617 -3.53967 1.17312 0
M  V30 6534 N 620.802 -1.09834 -1.13024 0
M  V30 6535 C 622.213 -0.855651 -1.65938 0
M  V30 6536 C 622.564 0.615159 -1.86307 0
M  V30 6537 O 621.689 1.47335 -1.58497 0
M  V30 6538 C 622.284 -1.5467 -3.01434 0
M  V30 6539 C 620.843 -1.35088 -3.51323 0
M  V30 6540 C 619.99 -1.6001 -2.26478 0
M  V30 6541 H 622.941 -1.25691 -0.968889 0
M  V30 6542 H 622.962 -0.982179 -3.67605 0
M  V30 6543 H 622.474 -2.61715 -2.86578 0
M  V30 6544 H 620.575 -0.30179 -3.71376 0
M  V30 6545 H 620.688 -2.0886 -4.31178 0
M  V30 6546 H 619.052 -1.02246 -2.33276 0
M  V30 6547 H 619.835 -2.68293 -2.14182 0
M  V30 6548 N 622.28 1.30327 -0.886154 0
M  V30 6549 C 623.526 1.96388 -0.505941 0
M  V30 6550 C 623.859 1.69784 0.942712 0
M  V30 6551 O 623.134 1.00322 1.6663 0
M  V30 6552 C 623.417 3.51488 -0.782826 0
M  V30 6553 C 623.27 3.87603 -2.28219 0
M  V30 6554 C 624.589 4.39331 -0.260128 0
M  V30 6555 H 621.708 0.713327 -0.185292 0
M  V30 6556 H 624.35 1.54178 -1.11036 0
M  V30 6557 H 622.5 3.87572 -0.268399 0
M  V30 6558 H 624.172 3.61537 -2.86512 0
M  V30 6559 H 622.415 3.3563 -2.74837 0
M  V30 6560 H 623.086 4.95806 -2.42653 0
M  V30 6561 H 625.562 4.10162 -0.700444 0
M  V30 6562 H 624.438 5.46769 -0.483179 0
M  V30 6563 H 624.699 4.34072 0.838674 0
M  V30 6564 N 623.758 0.647228 1.43697 0
M  V30 6565 C 625.169 0.238689 1.85168 0
M  V30 6566 C 625.52 -1.21345 1.54175 0
M  V30 6567 O 624.645 -1.92542 0.987743 0
M  V30 6568 C 625.24 0.426422 3.36106 0
M  V30 6569 C 623.799 0.0722541 3.76331 0
M  V30 6570 C 622.946 0.732153 2.6746 0
M  V30 6571 H 625.897 0.851309 1.33934 0
M  V30 6572 H 625.918 -0.32987 3.79067 0
M  V30 6573 H 625.43 1.48339 3.58632 0
M  V30 6574 H 623.531 -0.982355 3.59417 0
M  V30 6575 H 623.644 0.493541 4.76551 0
M  V30 6576 H 622.008 0.16594 2.54159 0
M  V30 6577 H 622.791 1.79204 2.92816 0
M  V30 6578 N 625.236 -1.5273 0.388769 0
M  V30 6579 C 626.652 -1.59553 0.0387049 0
M  V30 6580 C 626.852 -1.40278 -1.44652 0
M  V30 6581 O 625.908 -1.21951 -2.21098 0
M  V30 6582 C 627.221 -2.9625 0.515409 0
M  V30 6583 C 628.769 -3.09426 0.471621 0
M  V30 6584 C 629.244 -4.48572 0.924505 0
M  V30 6585 N 630.735 -4.54754 0.880496 0
M  V30 6586 C 631.47 -5.60653 1.20234 0
M  V30 6587 N 630.966 -6.74198 1.59463 0
M  V30 6588 N 632.759 -5.50755 1.12363 0
M  V30 6589 H 624.91 -1.63508 1.35569 0
M  V30 6590 H 627.173 -0.768097 0.555636 0
M  V30 6591 H 626.879 -3.15569 1.5527 0
M  V30 6592 H 626.753 -3.77102 -0.085792 0
M  V30 6593 H 629.14 -2.89804 -0.556588 0
M  V30 6594 H 629.221 -2.30528 1.10862 0
M  V30 6595 H 628.865 -4.68936 1.95094 0
M  V30 6596 H 628.795 -5.25935 0.264524 0
M  V30 6597 H 631.286 -3.73237 0.591815 0
M  V30 6598 H 631.599 -7.5097 1.82385 0
M  V30 6599 H 629.944 -6.75531 1.63349 0
M  V30 6600 H 633.135 -4.6093 0.816169 0
M  V30 6601 H 633.308 -6.33184 1.37777 0
M  V30 6602 N 626.714 -0.118576 -1.57153 0
M  V30 6603 C 628.13 0.238014 -1.57815 0
M  V30 6604 C 628.33 1.66747 -1.13127 0
M  V30 6605 O 627.386 2.38867 -0.818462 0
M  V30 6606 C 628.699 0.00508207 -3.007 0
M  V30 6607 C 630.247 0.0710139 -3.12919 0
M  V30 6608 C 630.722 -0.13422 -4.57803 0
M  V30 6609 N 632.213 -0.0801755 -4.63131 0
M  V30 6610 C 632.948 -0.213885 -5.73001 0
M  V30 6611 N 632.444 -0.403742 -6.91623 0
M  V30 6612 N 634.237 -0.15349 -5.6189 0
M  V30 6613 H 626.388 -1.05226 -1.84503 0
M  V30 6614 H 628.651 -0.414318 -0.852669 0
M  V30 6615 H 628.357 -0.983125 -3.3768 0
M  V30 6616 H 628.231 0.73714 -3.69927 0
M  V30 6617 H 630.618 1.04975 -2.75798 0
M  V30 6618 H 630.699 -0.692918 -2.46236 0
M  V30 6619 H 630.343 -1.10992 -4.95624 0
M  V30 6620 H 630.273 0.649692 -5.22577 0
M  V30 6621 H 632.764 0.0630689 -3.77847 0
M  V30 6622 H 633.077 -0.496645 -7.71202 0
M  V30 6623 H 631.422 -0.43971 -6.93608 0
M  V30 6624 H 634.613 -0.00613174 -4.681 0
M  V30 6625 H 634.786 -0.261138 -6.47474 0
M  V30 6626 N 628.193 1.56834 0.155195 0
M  V30 6627 C 629.156 1.96748 1.17571 0
M  V30 6628 C 630.156 0.853006 1.3631 0
M  V30 6629 O 631.346 1.11978 1.33441 0
M  V30 6630 C 628.478 2.27631 2.53765 0
M  V30 6631 H 629.671 2.88085 0.833498 0
M  V30 6632 H 627.224 1.51141 0.398242 0
M  V30 6633 H 627.959 1.39059 2.92973 0
M  V30 6634 H 627.744 3.0888 2.41527 0
M  V30 6635 H 629.234 2.59377 3.27282 0
M  V30 6636 N 629.671 -0.424282 1.51781 0
M  V30 6637 C 630.899 -1.1947 1.68921 0
M  V30 6638 C 631.314 -1.84683 0.39213 0
M  V30 6639 O 630.671 -1.71261 -0.630554 0
M  V30 6640 C 630.722 -2.26909 2.81416 0
M  V30 6641 O 630.443 -1.64361 4.061 0
M  V30 6642 C 631.944 -3.16945 3.09937 0
M  V30 6643 H 629.164 -0.359591 0.566511 0
M  V30 6644 H 631.708 -0.501139 1.98265 0
M  V30 6645 H 629.863 -2.91959 2.54635 0
M  V30 6646 H 630.277 -2.35468 4.68674 0
M  V30 6647 H 631.751 -3.88437 3.922 0
M  V30 6648 H 632.228 -3.78451 2.22871 0
M  V30 6649 H 632.834 -2.57581 3.38426 0
M  V30 6650 N 631.149 -1.42148 -0.680565 0
M  V30 6651 C 632.426 -1.32795 -1.43614 0
M  V30 6652 C 632.806 0.037415 -2.11067 0
M  V30 6653 O 632.154 1.05258 -2.02813 0
M  V30 6654 C 632.364 -2.49206 -2.44331 0
M  V30 6655 C 633.712 -2.91059 -3.09144 0
M  V30 6656 O 634.736 -2.49054 -2.54657 0
M  V30 6657 O 633.595 -3.63741 -4.07866 0
M  V30 6658 H 630.689 -0.523397 -0.640301 0
M  V30 6659 H 633.235 -1.54144 -0.709775 0
M  V30 6660 H 632.007 -3.40252 -1.93247 0
M  V30 6661 H 631.63 -2.29813 -3.24456 0
M  V30 6662 N 632.627 0.916307 -1.28225 0
M  V30 6663 C 633.873 1.66794 -1.1641 0
M  V30 6664 C 634.228 1.90278 0.284986 0
M  V30 6665 O 633.521 1.49023 1.20427 0
M  V30 6666 C 633.715 3.03125 -1.8934 0
M  V30 6667 C 633.544 2.92947 -3.41192 0
M  V30 6668 C 632.314 2.9461 -4.10528 0
M  V30 6669 C 634.512 2.7121 -4.36978 0
M  V30 6670 N 632.494 2.74993 -5.48864 0
M  V30 6671 C 633.865 2.60411 -5.6266 0
M  V30 6672 C 635.92 2.56187 -4.26934 0
M  V30 6673 C 634.623 2.3612 -6.79441 0
M  V30 6674 C 636.649 2.33275 -5.43449 0
M  V30 6675 C 636.011 2.23228 -6.68093 0
M  V30 6676 H 632.11 0.616654 -0.480896 0
M  V30 6677 H 634.694 1.08237 -1.61842 0
M  V30 6678 H 632.865 3.59774 -1.46346 0
M  V30 6679 H 634.597 3.67294 -1.69932 0
M  V30 6680 H 631.352 3.0527 -3.62087 0
M  V30 6681 H 631.776 2.68284 -6.21573 0
M  V30 6682 H 636.418 2.62707 -3.31278 0
M  V30 6683 H 634.136 2.28339 -7.75169 0
M  V30 6684 H 637.722 2.22519 -5.37565 0
M  V30 6685 H 636.602 2.05741 -7.5673 0
M  V30 6686 N 634.105 1.10431 1.1244 0
M  V30 6687 C 635.521 0.836096 1.35947 0
M  V30 6688 C 635.721 -0.544475 1.94004 0
M  V30 6689 O 634.777 -1.29735 2.16622 0
M  V30 6690 C 636.09 1.93575 2.30107 0
M  V30 6691 C 637.638 1.9642 2.43697 0
M  V30 6692 C 638.113 3.05559 3.41171 0
M  V30 6693 N 639.604 3.04865 3.48728 0
M  V30 6694 C 640.339 3.85954 4.24061 0
M  V30 6695 N 639.835 4.76977 5.02458 0
M  V30 6696 N 641.628 3.74172 4.19466 0
M  V30 6697 H 633.779 1.9942 0.731124 0
M  V30 6698 H 636.042 0.866607 0.384312 0
M  V30 6699 H 635.748 2.92943 1.94621 0
M  V30 6700 H 635.622 1.8229 3.30227 0
M  V30 6701 H 638.009 0.97685 2.78463 0
M  V30 6702 H 638.09 2.11782 1.43465 0
M  V30 6703 H 637.734 4.04513 3.07135 0
M  V30 6704 H 637.664 2.87438 4.41234 0
M  V30 6705 H 640.155 2.38908 2.92799 0
M  V30 6706 H 640.468 5.35409 5.57277 0
M  V30 6707 H 638.813 4.81006 5.01655 0
M  V30 6708 H 642.004 3.02412 3.57302 0
M  V30 6709 H 642.177 4.37602 4.77921 0
M  V30 6710 N 635.583 -1.29855 0.893053 0
M  V30 6711 C 636.831 -1.9544 0.514566 0
M  V30 6712 C 637.152 -1.70795 -0.940959 0
M  V30 6713 O 636.422 -1.03601 -1.66264 0
M  V30 6714 H 635.002 -0.723137 0.187302 0
M  V30 6715 H 637.664 -1.58234 1.13789 0
M  V30 6716 H 636.76 -3.04341 0.691581 0
M  V30 6717 N 637.061 -0.65484 -1.43351 0
M  V30 6718 C 638.307 -0.169142 -2.02093 0
M  V30 6719 C 638.64 1.21431 -1.51553 0
M  V30 6720 O 637.915 1.81105 -0.709317 0
M  V30 6721 C 638.198 -0.181775 -3.59641 0
M  V30 6722 C 638.051 -1.59926 -4.20409 0
M  V30 6723 C 639.37 0.480945 -4.37464 0
M  V30 6724 H 636.489 -0.0629371 -0.734308 0
M  V30 6725 H 639.131 -0.835833 -1.70628 0
M  V30 6726 H 637.281 0.385918 -3.86578 0
M  V30 6727 H 638.953 -2.21766 -4.04497 0
M  V30 6728 H 637.196 -2.14605 -3.76998 0
M  V30 6729 H 637.867 -1.55994 -5.295 0
M  V30 6730 H 640.343 -0.00208273 -4.161 0
M  V30 6731 H 639.219 0.441384 -5.47122 0
M  V30 6732 H 639.48 1.55533 -4.13838 0
M  V30 6733 N 638.539 1.52521 -0.396863 0
M  V30 6734 C 639.95 1.86547 0.0754868 0
M  V30 6735 C 640.301 1.31621 1.45501 0
M  V30 6736 O 639.426 0.650563 2.0639 0
M  V30 6737 C 640.021 3.38495 0.143754 0
M  V30 6738 C 638.58 3.72205 0.560413 0
M  V30 6739 C 637.727 2.75954 -0.272856 0
M  V30 6740 H 640.678 1.46323 -0.614434 0
M  V30 6741 H 640.699 3.68153 0.961425 0
M  V30 6742 H 640.211 3.78442 -0.860415 0
M  V30 6743 H 638.312 3.3783 1.57167 0
M  V30 6744 H 638.425 4.78074 0.313314 0
M  V30 6745 H 636.789 2.53339 0.263 0
M  V30 6746 H 637.572 3.1874 -1.27515 0
M  V30 6747 N 640.017 0.126909 1.57088 0
M  V30 6748 C 641.242 -0.53997 2.00248 0
M  V30 6749 C 641.667 -1.58927 1.00618 0
M  V30 6750 O 641.025 -1.81288 -0.0210131 0
M  V30 6751 C 641.073 -1.13565 3.4225 0
M  V30 6752 O 640.177 -2.25103 3.45547 0
M  V30 6753 H 639.518 -0.13412 0.650314 0
M  V30 6754 H 642.048 0.217718 2.03438 0
M  V30 6755 H 642.058 -1.46925 3.80627 0
M  V30 6756 H 640.733 -0.367122 4.14277 0
M  V30 6757 H 639.31 -1.93123 3.18995 0
M  V30 6758 N 641.495 -1.56914 -0.146875 0
M  V30 6759 C 642.405 -2.0154 -1.20079 0
M  V30 6760 C 643.421 -0.930838 -1.47008 0
M  V30 6761 O 644.597 -1.24032 -1.58676 0
M  V30 6762 C 641.662 -2.38715 -2.51428 0
M  V30 6763 C 640.723 -3.6112 -2.32145 0
M  V30 6764 C 639.956 -3.96512 -3.57231 0
M  V30 6765 O 640.179 -3.32566 -4.63418 0
M  V30 6766 O 639.113 -4.89758 -3.49887 0
M  V30 6767 H 642.939 -2.91506 -0.851924 0
M  V30 6768 H 640.524 -1.45106 -0.355607 0
M  V30 6769 H 642.406 -2.63485 -3.28867 0
M  V30 6770 H 641.081 -1.51903 -2.85845 0
M  V30 6771 H 639.988 -3.41536 -1.52656 0
M  V30 6772 H 641.321 -4.48549 -2.02644 0
M  V30 6773 N 642.974 0.416227 -1.52004 0
M  V30 6774 C 644.223 1.16088 -1.64944 0
M  V30 6775 C 644.536 1.91835 -0.381928 0
M  V30 6776 O 645.742 2.6867 -0.391013 0
M  V30 6777 C 644.198 2.1124 -2.91386 0
M  V30 6778 C 643.806 1.41042 -4.25219 0
M  V30 6779 C 645.55 2.86008 -3.13688 0
M  V30 6780 C 643.457 2.34801 -5.42791 0
M  V30 6781 H 642.387 0.437041 -0.61442 0
M  V30 6782 H 645.038 0.425971 -1.78487 0
M  V30 6783 H 643.42 2.88254 -2.71525 0
M  V30 6784 H 644.594 0.694416 -4.55538 0
M  V30 6785 H 642.909 0.78344 -4.08964 0
M  V30 6786 H 645.506 3.56286 -3.98703 0
M  V30 6787 H 645.849 3.48556 -2.27628 0
M  V30 6788 H 646.382 2.16095 -3.33988 0
M  V30 6789 H 643.121 1.7691 -6.31176 0
M  V30 6790 H 642.641 3.04395 -5.16821 0
M  V30 6791 H 644.32 2.9548 -5.75587 0
M  V30 6792 N 644.452 1.42507 0.673017 0
M  V30 6793 C 645.729 1.33554 1.42908 0
M  V30 6794 C 646.109 -0.0262211 2.11084 0
M  V30 6795 O 645.457 -1.04181 2.03368 0
M  V30 6796 C 645.667 2.50498 2.43006 0
M  V30 6797 C 647.015 2.92694 3.07596 0
M  V30 6798 O 648.039 2.50401 2.53333 0
M  V30 6799 O 646.898 3.65899 4.05931 0
M  V30 6800 H 643.992 0.526785 0.637516 0
M  V30 6801 H 646.538 1.54518 0.701591 0
M  V30 6802 H 645.31 3.41272 1.9144 0
M  V30 6803 H 644.933 2.3153 3.23233 0
M  V30 6804 N 645.93 -0.909495 1.28709 0
M  V30 6805 C 646.893 -1.99399 1.13016 0
M  V30 6806 C 647.893 -1.60654 0.068536 0
M  V30 6807 O 649.083 -1.71334 0.314671 0
M  V30 6808 C 646.215 -3.33078 0.726085 0
M  V30 6809 H 647.408 -2.14751 2.09338 0
M  V30 6810 H 644.961 -1.09272 1.11756 0
M  V30 6811 H 645.696 -3.23428 -0.23771 0
M  V30 6812 H 645.481 -3.62562 1.49302 0
M  V30 6813 H 646.971 -4.12681 0.639058 0
M  V30 6814 N 647.408 -1.11026 -1.11852 0
M  V30 6815 C 648.371 -0.768006 -2.1595 0
M  V30 6816 C 649.371 0.210538 -1.59416 0
M  V30 6817 O 650.561 -0.0133978 -1.74195 0
M  V30 6818 C 647.693 -0.138678 -3.40618 0
M  V30 6819 H 648.886 -1.69012 -2.4774 0
M  V30 6820 H 646.439 -0.911578 -1.26964 0
M  V30 6821 H 647.174 0.793872 -3.14433 0
M  V30 6822 H 646.959 -0.843012 -3.8293 0
M  V30 6823 H 648.449 0.0848039 -4.17514 0
M  V30 6824 N 648.886 1.2938 -0.899927 0
M  V30 6825 C 650.133 1.9555 -0.525963 0
M  V30 6826 C 650.461 1.70945 0.927789 0
M  V30 6827 O 649.716 1.01545 1.67293 0
M  V30 6828 C 650.015 3.49114 -0.765113 0
M  V30 6829 C 649.681 3.93796 -2.19626 0
M  V30 6830 C 648.343 4.05707 -2.58758 0
M  V30 6831 C 650.695 4.16883 -3.12823 0
M  V30 6832 C 648.023 4.38074 -3.90267 0
M  V30 6833 C 650.375 4.50725 -4.4388 0
M  V30 6834 C 649.039 4.60845 -4.82885 0
M  V30 6835 H 648.309 0.715569 -0.192463 0
M  V30 6836 H 650.956 1.53972 -1.13863 0
M  V30 6837 H 649.261 3.91738 -0.069531 0
M  V30 6838 H 650.958 3.98409 -0.455144 0
M  V30 6839 H 647.548 3.85042 -1.88256 0
M  V30 6840 H 651.732 4.07147 -2.83804 0
M  V30 6841 H 646.988 4.44112 -4.20207 0
M  V30 6842 H 651.162 4.67538 -5.16121 0
M  V30 6843 H 648.789 4.85681 -5.84823 0
M  V30 6844 N 650.364 0.662433 1.43002 0
M  V30 6845 C 651.296 -0.062326 2.29115 0
M  V30 6846 C 652.309 -0.777926 1.43011 0
M  V30 6847 O 653.498 -0.634146 1.66856 0
M  V30 6848 C 650.598 -1.11163 3.2015 0
M  V30 6849 C 649.771 -0.472327 4.34842 0
M  V30 6850 C 648.83 -1.41974 5.06685 0
M  V30 6851 O 647.856 -0.924795 5.61637 0
M  V30 6852 N 649.058 -2.75345 5.11043 0
M  V30 6853 H 651.823 0.676838 2.91957 0
M  V30 6854 H 649.384 0.505907 1.53793 0
M  V30 6855 H 651.376 -1.74643 3.65078 0
M  V30 6856 H 649.946 -1.75266 2.58845 0
M  V30 6857 H 649.166 0.341751 3.92716 0
M  V30 6858 H 650.454 -0.0264381 5.08793 0
M  V30 6859 H 649.852 -3.18108 4.67786 0
M  V30 6860 H 648.409 -3.34105 5.59658 0
M  V30 6861 N 651.842 -1.52309 0.404946 0
M  V30 6862 C 653.119 -1.94237 -0.230544 0
M  V30 6863 C 653.499 -1.34154 -1.6299 0
M  V30 6864 O 652.847 -0.515713 -2.22604 0
M  V30 6865 C 653.057 -3.48166 -0.241106 0
M  V30 6866 C 654.405 -4.22074 -0.462488 0
M  V30 6867 O 655.429 -3.54754 -0.320644 0
M  V30 6868 O 654.288 -5.41443 -0.741708 0
M  V30 6869 H 651.382 -0.813766 -0.147358 0
M  V30 6870 H 653.928 -1.6333 0.460587 0
M  V30 6871 H 652.7 -3.84269 0.738467 0
M  V30 6872 H 652.323 -3.85422 -0.97651 0
M  V30 6873 N 653.32 -0.135238 -1.57019 0
M  V30 6874 C 654.283 0.794707 -2.14981 0
M  V30 6875 C 655.283 1.18342 -1.08866 0
M  V30 6876 O 656.473 1.10627 -1.34563 0
M  V30 6877 C 653.605 2.07685 -2.70333 0
M  V30 6878 H 654.798 0.290696 -2.98488 0
M  V30 6879 H 652.351 0.114128 -1.55883 0
M  V30 6880 H 653.086 2.6248 -1.9046 0
M  V30 6881 H 652.871 1.80745 -3.47957 0
M  V30 6882 H 654.361 2.74127 -3.1503 0
M  V30 6883 N 654.798 1.5699 0.138552 0
M  V30 6884 C 656.075 1.74741 0.87891 0
M  V30 6885 C 656.455 0.705522 1.98961 0
M  V30 6886 O 655.803 -0.274066 2.2685 0
M  V30 6887 C 656.013 3.1909 1.4136 0
M  V30 6888 C 657.361 3.81023 1.87368 0
M  V30 6889 O 658.385 3.22571 1.51084 0
M  V30 6890 O 657.244 4.83722 2.54312 0
M  V30 6891 H 654.338 0.714781 0.415953 0
M  V30 6892 H 656.884 1.69248 0.123817 0
M  V30 6893 H 655.656 3.86424 0.61579 0
M  V30 6894 H 655.279 3.29043 2.23196 0
M  V30 6895 N 656.276 -0.40816 1.52223 0
M  V30 6896 C 657.524 -1.15274 1.66001 0
M  V30 6897 C 657.845 -1.91003 0.392803 0
M  V30 6898 O 657.115 -1.8673 -0.592336 0
M  V30 6899 H 655.695 -0.428526 0.611861 0
M  V30 6900 H 658.357 -0.46512 1.89269 0
M  V30 6901 H 657.453 -1.86628 2.50153 0
M  V30 6902 N 657.755 -1.42862 -0.66545 0
M  V30 6903 C 658.985 -1.47032 -1.45138 0
M  V30 6904 C 659.393 -0.0829977 -1.89018 0
M  V30 6905 O 658.736 0.914551 -1.59316 0
M  V30 6906 C 658.798 -2.34302 -2.72659 0
M  V30 6907 C 658.462 -3.82034 -2.50796 0
M  V30 6908 C 659.459 -4.73453 -2.14799 0
M  V30 6909 C 657.144 -4.26397 -2.655 0
M  V30 6910 C 659.138 -6.07228 -1.93785 0
M  V30 6911 C 656.825 -5.6023 -2.44103 0
M  V30 6912 C 657.823 -6.50462 -2.08299 0
M  V30 6913 O 657.511 -7.8182 -1.87116 0
M  V30 6914 H 657.243 -0.501969 -0.452772 0
M  V30 6915 H 659.797 -1.88137 -0.82423 0
M  V30 6916 H 658.027 -1.88063 -3.37889 0
M  V30 6917 H 659.716 -2.29818 -3.34572 0
M  V30 6918 H 660.482 -4.4046 -2.03026 0
M  V30 6919 H 656.361 -3.56448 -2.92345 0
M  V30 6920 H 659.905 -6.7762 -1.65763 0
M  V30 6921 H 655.802 -5.92793 -2.55475 0
M  V30 6922 H 656.57 -7.93274 -2.01639 0
M  V30 6923 N 659.233 0.902656 -1.29189 0
M  V30 6924 C 660.196 1.98797 -1.14071 0
M  V30 6925 C 661.196 1.60615 -0.0770549 0
M  V30 6926 O 662.386 1.71165 -0.323753 0
M  V30 6927 C 659.518 3.32688 -0.743739 0
M  V30 6928 H 660.711 2.13637 -2.10473 0
M  V30 6929 H 658.264 1.08678 -1.12334 0
M  V30 6930 H 658.999 3.23549 0.220554 0
M  V30 6931 H 658.784 3.61765 -1.51223 0
M  V30 6932 H 660.274 4.12337 -0.660935 0
M  V30 6933 N 660.711 1.11618 1.11262 0
M  V30 6934 C 661.941 0.88745 1.86569 0
M  V30 6935 C 662.349 -0.56636 1.80524 0
M  V30 6936 O 661.692 -1.40289 1.18594 0
M  V30 6937 C 661.754 1.27313 3.36202 0
M  V30 6938 C 661.418 2.73649 3.66013 0
M  V30 6939 C 662.415 3.71863 3.63337 0
M  V30 6940 C 660.1 3.10342 3.9496 0
M  V30 6941 C 662.094 5.04788 3.89188 0
M  V30 6942 C 659.781 4.43451 4.20469 0
M  V30 6943 C 660.779 5.40484 4.17572 0
M  V30 6944 O 660.467 6.71195 4.42439 0
M  V30 6945 H 660.199 0.317543 0.596777 0
M  V30 6946 H 662.753 1.48768 1.41624 0
M  V30 6947 H 660.983 0.616062 3.81761 0
M  V30 6948 H 662.672 1.01991 3.92877 0
M  V30 6949 H 663.438 3.44861 3.41022 0
M  V30 6950 H 659.317 2.35431 3.9635 0
M  V30 6951 H 662.861 5.80516 3.86842 0
M  V30 6952 H 658.758 4.70187 4.42261 0
M  V30 6953 H 659.526 6.77012 4.59997 0
M  V30 6954 N 662.189 -1.289 0.906776 0
M  V30 6955 C 663.436 -1.95269 0.536326 0
M  V30 6956 C 663.764 -1.71435 -0.918711 0
M  V30 6957 O 663.019 -1.02431 -1.66752 0
M  V30 6958 C 663.318 -3.48704 0.783617 0
M  V30 6959 C 662.984 -3.92626 2.21711 0
M  V30 6960 C 661.646 -4.04329 2.60906 0
M  V30 6961 C 663.998 -4.15218 3.15029 0
M  V30 6962 C 661.326 -4.35998 3.92584 0
M  V30 6963 C 663.678 -4.48365 4.46264 0
M  V30 6964 C 662.342 -4.58278 4.85322 0
M  V30 6965 H 661.612 -0.714538 0.196256 0
M  V30 6966 H 664.259 -1.53366 1.14678 0
M  V30 6967 H 662.564 -3.91696 0.0903048 0
M  V30 6968 H 664.261 -3.98162 0.476267 0
M  V30 6969 H 660.851 -3.84038 1.90296 0
M  V30 6970 H 665.035 -4.05636 2.8596 0
M  V30 6971 H 660.291 -4.41878 4.22557 0
M  V30 6972 H 664.465 -4.64795 5.18593 0
M  V30 6973 H 662.092 -4.82573 5.87391 0
M  V30 6974 N 663.667 -0.670007 -1.42649 0
M  V30 6975 C 664.597 -0.00258501 -2.335 0
M  V30 6976 C 665.578 0.794364 -1.50412 0
M  V30 6977 O 666.763 0.75248 -1.79029 0
M  V30 6978 C 663.893 0.952748 -3.33976 0
M  V30 6979 C 662.847 0.264733 -4.2718 0
M  V30 6980 C 662.173 1.33267 -5.17826 0
M  V30 6981 C 663.473 -0.853289 -5.15283 0
M  V30 6982 H 665.167 -0.761326 -2.89559 0
M  V30 6983 H 662.713 -0.367561 -1.3923 0
M  V30 6984 H 664.666 1.4287 -3.96442 0
M  V30 6985 H 663.39 1.74285 -2.7621 0
M  V30 6986 H 662.049 -0.190938 -3.66102 0
M  V30 6987 H 661.697 2.11464 -4.5639 0
M  V30 6988 H 661.397 0.877476 -5.81011 0
M  V30 6989 H 662.921 1.80965 -5.83167 0
M  V30 6990 H 664.335 -0.458763 -5.71462 0
M  V30 6991 H 662.732 -1.23398 -5.87276 0
M  V30 6992 H 663.802 -1.70412 -4.53969 0
M  V30 6993 N 665.145 1.52092 -0.413018 0
M  V30 6994 C 666.561 1.59471 -0.0640836 0
M  V30 6995 C 666.761 1.42562 1.42402 0
M  V30 6996 O 665.817 1.25453 2.19129 0
M  V30 6997 C 667.13 2.95392 -0.562474 0
M  V30 6998 C 668.678 3.08637 -0.520788 0
M  V30 6999 C 669.153 4.47044 -0.995752 0
M  V30 7000 N 670.644 4.53296 -0.952732 0
M  V30 7001 C 671.379 5.58669 -1.29138 0
M  V30 7002 N 670.875 6.71576 -1.70168 0
M  V30 7003 N 672.668 5.48898 -1.2111 0
M  V30 7004 H 664.819 1.6133 -1.38153 0
M  V30 7005 H 667.082 0.75916 -0.567785 0
M  V30 7006 H 666.788 3.13059 -1.60271 0
M  V30 7007 H 666.662 3.77191 0.0257875 0
M  V30 7008 H 669.049 2.90652 0.510412 0
M  V30 7009 H 669.13 2.28735 -1.14515 0
M  V30 7010 H 668.774 4.65773 -2.0253 0
M  V30 7011 H 668.704 5.25448 -0.348162 0
M  V30 7012 H 671.195 3.72248 -0.651119 0
M  V30 7013 H 671.508 7.47973 -1.9431 0
M  V30 7014 H 669.853 6.72847 -1.74075 0
M  V30 7015 H 673.044 4.59573 -0.889396 0
M  V30 7016 H 673.217 6.30912 -1.47833 0
M  V30 7017 N 666.623 0.143563 1.56945 0
M  V30 7018 C 667.871 -0.507402 1.95627 0
M  V30 7019 C 668.192 -1.65626 1.02922 0
M  V30 7020 O 667.462 -1.95693 0.0901136 0
M  V30 7021 H 666.042 -0.190436 0.722318 0
M  V30 7022 H 668.704 0.218257 1.93674 0
M  V30 7023 H 667.8 -0.885816 2.99265 0
M  V30 7024 N 668.101 -1.57061 -0.130224 0
M  V30 7025 C 669.517 -1.52103 -0.483413 0
M  V30 7026 C 669.717 -0.854752 -1.82473 0
M  V30 7027 O 668.773 -0.432342 -2.48771 0
M  V30 7028 C 670.086 -2.96872 -0.47825 0
M  V30 7029 C 671.634 -3.07902 -0.562592 0
M  V30 7030 C 672.109 -4.54211 -0.587929 0
M  V30 7031 N 673.6 -4.58621 -0.649684 0
M  V30 7032 C 674.335 -5.69227 -0.690551 0
M  V30 7033 N 673.831 -6.89358 -0.689743 0
M  V30 7034 N 675.624 -5.57304 -0.732708 0
M  V30 7035 H 667.775 -1.98764 0.748779 0
M  V30 7036 H 670.038 -0.907248 0.274965 0
M  V30 7037 H 669.744 -3.48944 0.439444 0
M  V30 7038 H 669.618 -3.53716 -1.31013 0
M  V30 7039 H 672.005 -2.5584 -1.47071 0
M  V30 7040 H 672.086 -2.54073 0.296764 0
M  V30 7041 H 671.73 -5.06915 0.316096 0
M  V30 7042 H 671.66 -5.0584 -1.46401 0
M  V30 7043 H 674.151 -3.72146 -0.656927 0
M  V30 7044 H 674.464 -7.69408 -0.723239 0
M  V30 7045 H 672.809 -6.91884 -0.657347 0
M  V30 7046 H 676 -4.62363 -0.730625 0
M  V30 7047 H 676.173 -6.43515 -0.76109 0
M  V30 7048 N 669.579 0.400081 -1.52437 0
M  V30 7049 C 670.509 1.4947 -1.7939 0
M  V30 7050 C 671.49 1.57383 -0.645329 0
M  V30 7051 O 672.675 1.72511 -0.891826 0
M  V30 7052 C 669.805 2.87201 -1.95276 0
M  V30 7053 C 668.759 2.94134 -3.10917 0
M  V30 7054 C 668.085 4.34207 -3.1204 0
M  V30 7055 C 669.385 2.64791 -4.50203 0
M  V30 7056 H 671.079 1.27165 -2.71052 0
M  V30 7057 H 668.625 0.610312 -1.30427 0
M  V30 7058 H 670.578 3.63772 -2.12715 0
M  V30 7059 H 669.302 3.10819 -1.00294 0
M  V30 7060 H 667.961 2.20009 -2.93243 0
M  V30 7061 H 667.609 4.54848 -2.14761 0
M  V30 7062 H 667.309 4.39768 -3.89715 0
M  V30 7063 H 668.833 5.127 -3.31619 0
M  V30 7064 H 670.247 3.31083 -4.68035 0
M  V30 7065 H 668.644 2.81717 -5.29864 0
M  V30 7066 H 669.714 1.60184 -4.57678 0
M  V30 7067 N 671.057 1.43213 0.657864 0
M  V30 7068 C 672.287 1.478 1.44356 0
M  V30 7069 C 672.695 0.0930206 1.88971 0
M  V30 7070 O 672.038 -0.906089 1.59799 0
M  V30 7071 C 672.1 2.35745 2.71412 0
M  V30 7072 C 671.764 3.83359 2.48767 0
M  V30 7073 C 672.761 4.74585 2.12285 0
M  V30 7074 C 670.446 4.27799 2.63235 0
M  V30 7075 C 672.44 6.08247 1.90562 0
M  V30 7076 C 670.127 5.61516 2.41128 0
M  V30 7077 C 671.125 6.51557 2.04847 0
M  V30 7078 O 670.813 7.82802 1.82967 0
M  V30 7079 H 670.545 0.504363 0.450104 0
M  V30 7080 H 673.099 1.88572 0.814241 0
M  V30 7081 H 671.329 1.89852 3.36887 0
M  V30 7082 H 673.018 2.31589 3.33348 0
M  V30 7083 H 673.784 4.41531 2.00687 0
M  V30 7084 H 669.663 3.57993 2.90451 0
M  V30 7085 H 673.207 6.78489 1.62168 0
M  V30 7086 H 669.104 5.94139 2.52327 0
M  V30 7087 H 669.872 7.94332 1.97429 0
M  V30 7088 N 672.536 -0.895792 1.29666 0
M  V30 7089 C 673.782 -1.64921 1.19049 0
M  V30 7090 C 674.137 -1.90707 -0.254678 0
M  V30 7091 O 673.43 -1.5092 -1.18041 0
M  V30 7092 C 673.624 -3.00075 1.94139 0
M  V30 7093 C 673.453 -2.87482 3.4581 0
M  V30 7094 C 672.223 -2.88041 4.15163 0
M  V30 7095 C 674.421 -2.64224 4.41237 0
M  V30 7096 N 672.403 -2.66226 5.5317 0
M  V30 7097 C 673.774 -2.51427 5.66732 0
M  V30 7098 C 675.829 -2.49362 4.30956 0
M  V30 7099 C 674.532 -2.25281 6.83111 0
M  V30 7100 C 676.558 -2.246 5.47091 0
M  V30 7101 C 675.92 -2.12571 6.7156 0
M  V30 7102 H 672.019 -0.608926 0.490646 0
M  V30 7103 H 674.603 -1.05648 1.63544 0
M  V30 7104 H 672.774 -3.574 1.52052 0
M  V30 7105 H 674.506 -3.64544 1.75754 0
M  V30 7106 H 671.261 -2.99471 3.66898 0
M  V30 7107 H 671.685 -2.58361 6.25762 0
M  V30 7108 H 676.327 -2.57403 3.35415 0
M  V30 7109 H 674.045 -2.15978 7.78704 0
M  V30 7110 H 677.631 -2.13939 5.41037 0
M  V30 7111 H 676.511 -1.93676 7.59907 0
M  V30 7112 N 674.014 -1.12206 -1.10668 0
M  V30 7113 C 674.961 -0.787716 -2.16942 0
M  V30 7114 C 675.931 0.244442 -1.64291 0
M  V30 7115 O 677.116 0.119558 -1.90425 0
M  V30 7116 C 674.256 -0.24584 -3.44223 0
M  V30 7117 C 673.369 -1.33552 -4.10838 0
M  V30 7118 C 672.504 -0.753337 -5.25831 0
M  V30 7119 C 671.543 -1.82231 -5.84344 0
M  V30 7120 N 670.68 -1.25902 -6.90719 0
M  V30 7121 H 675.52 -1.69809 -2.44885 0
M  V30 7122 H 673.057 -0.847862 -1.20207 0
M  V30 7123 H 675.015 0.0863639 -4.17111 0
M  V30 7124 H 673.645 0.627702 -3.16638 0
M  V30 7125 H 672.697 -1.78454 -3.35944 0
M  V30 7126 H 674.009 -2.14396 -4.50373 0
M  V30 7127 H 673.163 -0.37166 -6.05561 0
M  V30 7128 H 671.902 0.0863297 -4.87624 0
M  V30 7129 H 670.907 -2.2132 -5.03287 0
M  V30 7130 H 672.132 -2.66515 -6.24617 0
M  V30 7131 H 670.078 -0.44114 -6.54515 0
M  V30 7132 H 669.995 -2.00408 -7.28953 0
M  V30 7133 H 671.263 -0.904498 -7.74235 0
M  V30 7134 N 675.492 1.28418 -0.913599 0
M  V30 7135 C 676.739 1.94981 -0.546674 0
M  V30 7136 C 677.067 1.7192 0.909606 0
M  V30 7137 O 676.322 1.03314 1.66207 0
M  V30 7138 C 676.621 3.48283 -0.802099 0
M  V30 7139 C 676.287 3.91444 -2.2379 0
M  V30 7140 C 674.949 4.02939 -2.63046 0
M  V30 7141 C 677.301 4.13542 -3.17227 0
M  V30 7142 C 674.629 4.3391 -3.94891 0
M  V30 7143 C 676.981 4.45992 -4.48636 0
M  V30 7144 C 675.645 4.55698 -4.87746 0
M  V30 7145 H 674.915 0.713487 -0.200042 0
M  V30 7146 H 677.562 1.52756 -1.15489 0
M  V30 7147 H 675.867 3.91643 -0.111076 0
M  V30 7148 H 677.564 3.97903 -0.497375 0
M  V30 7149 H 674.154 3.83024 -1.9233 0
M  V30 7150 H 678.338 4.04114 -2.88107 0
M  V30 7151 H 673.594 4.39631 -4.24894 0
M  V30 7152 H 677.768 4.62038 -5.21051 0
M  V30 7153 H 675.395 4.79451 -5.89942 0
M  V30 7154 N 676.97 0.677563 1.42291 0
M  V30 7155 C 678.247 0.129803 1.95169 0
M  V30 7156 C 678.627 -1.35605 1.61786 0
M  V30 7157 O 677.975 -2.09361 0.915444 0
M  V30 7158 C 678.185 0.401889 3.46678 0
M  V30 7159 C 679.533 0.319889 4.23393 0
M  V30 7160 O 680.557 0.33579 3.54614 0
M  V30 7161 O 679.416 0.264459 5.4586 0
M  V30 7162 H 676.51 0.00447433 0.826988 0
M  V30 7163 H 679.056 0.752483 1.52105 0
M  V30 7164 H 677.828 1.43108 3.64192 0
M  V30 7165 H 677.451 -0.252662 3.96796 0
M  V30 7166 N 678.448 -1.51871 0.421078 0
M  V30 7167 C 679.859 -1.86644 -0.0457991 0
M  V30 7168 C 680.21 -1.33919 -1.43388 0
M  V30 7169 O 679.335 -0.683316 -2.05328 0
M  V30 7170 C 679.93 -3.38681 -0.0898844 0
M  V30 7171 C 678.489 -3.73049 -0.501127 0
M  V30 7172 C 677.636 -2.75485 0.316723 0
M  V30 7173 H 680.587 -1.45327 0.637635 0
M  V30 7174 H 680.608 -3.69636 -0.902734 0
M  V30 7175 H 680.12 -3.77025 0.920513 0
M  V30 7176 H 678.221 -3.40288 -1.51773 0
M  V30 7177 H 678.334 -4.78512 -0.237217 0
M  V30 7178 H 676.698 -2.53725 -0.222663 0
M  V30 7179 H 677.481 -3.16671 1.32569 0
M  V30 7180 N 679.926 -0.151884 -1.56866 0
M  V30 7181 C 681.172 0.498742 -1.96572 0
M  V30 7182 C 681.505 1.64194 -1.03702 0
M  V30 7183 O 680.78 1.94334 -0.0803432 0
M  V30 7184 C 681.063 1.00027 -3.45929 0
M  V30 7185 C 680.916 -0.141767 -4.49577 0
M  V30 7186 C 682.235 1.88044 -3.97904 0
M  V30 7187 H 679.354 0.17982 -0.714726 0
M  V30 7188 H 681.996 -0.234097 -1.88552 0
M  V30 7189 H 680.146 1.62476 -3.52894 0
M  V30 7190 H 681.818 -0.778269 -4.54687 0
M  V30 7191 H 680.061 -0.80019 -4.26356 0
M  V30 7192 H 680.732 0.250947 -5.51429 0
M  V30 7193 H 683.208 1.35416 -3.93449 0
M  V30 7194 H 682.084 2.20043 -5.02864 0
M  V30 7195 H 682.345 2.81916 -3.40552 0
M  V30 7196 N 681.404 1.57128 0.121893 0
M  V30 7197 C 682.351 2.0013 1.14964 0
M  V30 7198 C 683.321 0.872959 1.4131 0
M  V30 7199 O 684.506 1.13696 1.53225 0
M  V30 7200 C 681.646 2.40824 2.4718 0
M  V30 7201 C 680.759 3.67061 2.27794 0
M  V30 7202 C 679.894 3.96749 3.53219 0
M  V30 7203 C 678.933 5.16178 3.28978 0
M  V30 7204 N 678.07 5.41751 4.46599 0
M  V30 7205 H 682.91 2.8772 0.775947 0
M  V30 7206 H 680.447 1.42328 0.371652 0
M  V30 7207 H 682.405 2.62454 3.24305 0
M  V30 7208 H 681.035 1.56279 2.82448 0
M  V30 7209 H 680.087 3.53063 1.416 0
M  V30 7210 H 681.399 4.5434 2.05857 0
M  V30 7211 H 680.553 4.19012 4.38764 0
M  V30 7212 H 679.292 3.07941 3.78185 0
M  V30 7213 H 678.297 4.93762 2.41824 0
M  V30 7214 H 679.522 6.06561 3.05386 0
M  V30 7215 H 677.468 4.55899 4.71691 0
M  V30 7216 H 677.385 6.23347 4.27756 0
M  V30 7217 H 678.653 5.68531 5.33285 0
M  V30 7218 N 682.882 -0.391992 1.52647 0
M  V30 7219 C 684.128 -1.139 1.67793 0
M  V30 7220 C 684.461 -1.89711 0.41514 0
M  V30 7221 O 683.736 -1.85431 -0.586979 0
M  V30 7222 C 684.019 -2.11966 2.91105 0
M  V30 7223 C 683.872 -1.39939 4.27478 0
M  V30 7224 C 685.191 -3.1243 3.09961 0
M  V30 7225 H 682.31 -0.412707 0.610608 0
M  V30 7226 H 684.952 -0.422725 1.85238 0
M  V30 7227 H 683.102 -2.73048 2.76364 0
M  V30 7228 H 684.774 -0.818439 4.53982 0
M  V30 7229 H 683.017 -0.701246 4.28095 0
M  V30 7230 H 683.688 -2.1158 5.09841 0
M  V30 7231 H 686.164 -2.61435 3.23714 0
M  V30 7232 H 685.04 -3.78294 3.97725 0
M  V30 7233 H 685.301 -3.81127 2.24042 0
M  V30 7234 N 684.36 -1.4356 -0.65026 0
M  V30 7235 C 685.307 -1.48948 -1.76304 0
M  V30 7236 C 686.277 -0.338919 -1.62605 0
M  V30 7237 O 687.462 -0.54649 -1.82806 0
M  V30 7238 C 684.602 -1.42131 -3.14472 0
M  V30 7239 C 683.715 -2.67415 -3.39284 0
M  V30 7240 C 682.85 -2.52565 -4.67316 0
M  V30 7241 C 681.889 -3.73103 -4.85243 0
M  V30 7242 N 681.026 -3.57046 -6.04535 0
M  V30 7243 H 685.866 -2.44032 -1.71034 0
M  V30 7244 H 683.403 -1.21131 -0.834601 0
M  V30 7245 H 685.361 -1.36172 -3.94351 0
M  V30 7246 H 683.991 -0.506273 -3.18805 0
M  V30 7247 H 683.043 -2.8364 -2.53481 0
M  V30 7248 H 684.355 -3.56943 -3.48415 0
M  V30 7249 H 683.509 -2.44331 -5.55326 0
M  V30 7250 H 682.248 -1.60566 -4.60511 0
M  V30 7251 H 681.253 -3.81743 -3.95667 0
M  V30 7252 H 682.478 -4.66115 -4.93876 0
M  V30 7253 H 680.424 -2.67783 -5.98856 0
M  V30 7254 H 680.341 -4.40178 -6.14638 0
M  V30 7255 H 681.609 -3.52669 -6.95158 0
M  V30 7256 N 685.838 0.888903 -1.30139 0
M  V30 7257 C 686.801 1.97576 -1.16174 0
M  V30 7258 C 687.801 1.60525 -0.094086 0
M  V30 7259 O 688.991 1.70812 -0.341889 0
M  V30 7260 C 686.123 3.3188 -0.778983 0
M  V30 7261 H 687.316 2.11393 -2.12728 0
M  V30 7262 H 684.869 1.0748 -1.1348 0
M  V30 7263 H 685.604 3.23765 0.186225 0
M  V30 7264 H 685.389 3.60141 -1.55051 0
M  V30 7265 H 686.879 4.11612 -0.704631 0
M  V30 7266 N 687.317 1.12792 1.10072 0
M  V30 7267 C 688.247 0.821688 2.18565 0
M  V30 7268 C 689.228 -0.21612 1.68721 0
M  V30 7269 O 690.413 -0.0764932 1.94049 0
M  V30 7270 C 687.543 0.279624 3.46172 0
M  V30 7271 C 686.497 1.25092 4.09312 0
M  V30 7272 C 685.823 0.568916 5.31665 0
M  V30 7273 C 687.123 2.60699 4.52585 0
M  V30 7274 H 688.817 1.72888 2.44438 0
M  V30 7275 H 686.363 0.832702 1.17482 0
M  V30 7276 H 688.316 0.053099 4.21367 0
M  V30 7277 H 687.04 -0.662929 3.19801 0
M  V30 7278 H 685.699 1.46332 3.36129 0
M  V30 7279 H 685.347 -0.378898 5.01571 0
M  V30 7280 H 685.047 1.21687 5.74862 0
M  V30 7281 H 686.571 0.351517 6.09587 0
M  V30 7282 H 687.985 2.43465 5.19035 0
M  V30 7283 H 686.382 3.21608 5.06644 0
M  V30 7284 H 687.452 3.1886 3.65317 0
M  V30 7285 N 688.795 -1.27931 0.920396 0
M  V30 7286 C 689.705 -2.30824 0.419212 0
M  V30 7287 C 690.721 -1.66767 -0.496461 0
M  V30 7288 O 691.897 -1.97763 -0.38104 0
M  V30 7289 C 688.962 -3.45158 -0.326601 0
M  V30 7290 C 688.023 -4.24754 0.623098 0
M  V30 7291 C 687.256 -5.33629 -0.0872172 0
M  V30 7292 O 687.479 -5.55204 -1.30784 0
M  V30 7293 O 686.413 -5.99091 0.580875 0
M  V30 7294 H 690.239 -2.75716 1.27337 0
M  V30 7295 H 687.824 -1.32747 0.685465 0
M  V30 7296 H 689.706 -4.14716 -0.747559 0
M  V30 7297 H 688.381 -3.02336 -1.15648 0
M  V30 7298 H 687.288 -3.57759 1.09359 0
M  V30 7299 H 688.621 -4.71272 1.41998 0
M  V30 7300 N 690.273 -0.685099 -1.4193 0
M  V30 7301 C 691.521 -0.21124 -2.00993 0
M  V30 7302 C 691.842 1.18985 -1.54491 0
M  V30 7303 O 691.112 1.8009 -0.771 0
M  V30 7304 H 689.692 -0.0751059 -0.743215 0
M  V30 7305 H 692.354 -0.883915 -1.73704 0
M  V30 7306 H 691.45 -0.220513 -3.1132 0
M  V30 7307 N 691.751 1.51645 -0.429126 0
M  V30 7308 C 692.998 2.02015 0.140079 0
M  V30 7309 C 693.326 1.31374 1.43427 0
M  V30 7310 O 692.581 0.414779 1.91254 0
M  V30 7311 C 692.88 3.54989 0.414472 0
M  V30 7312 C 692.546 4.43874 -0.792911 0
M  V30 7313 C 691.208 4.67887 -1.12404 0
M  V30 7314 C 693.56 4.96074 -1.59875 0
M  V30 7315 C 690.888 5.41348 -2.26184 0
M  V30 7316 C 693.24 5.70782 -2.72747 0
M  V30 7317 C 691.904 5.93062 -3.06324 0
M  V30 7318 H 691.174 0.739225 0.0512585 0
M  V30 7319 H 693.821 1.82675 -0.574641 0
M  V30 7320 H 692.126 3.72615 1.21099 0
M  V30 7321 H 693.823 3.91489 0.868173 0
M  V30 7322 H 690.413 4.25374 -0.524871 0
M  V30 7323 H 694.597 4.77412 -1.35614 0
M  V30 7324 H 689.853 5.56815 -2.52522 0
M  V30 7325 H 694.027 6.10221 -3.35564 0
M  V30 7326 H 691.654 6.49764 -3.94602 0
M  V30 7327 N 693.229 0.160201 1.56784 0
M  V30 7328 C 694.64 -0.358417 1.83227 0
M  V30 7329 C 694.991 -1.63831 1.07952 0
M  V30 7330 O 694.116 -2.13885 0.328995 0
M  V30 7331 C 694.711 -0.657058 3.32368 0
M  V30 7332 C 693.27 -1.12015 3.59346 0
M  V30 7333 C 692.417 -0.15015 2.76893 0
M  V30 7334 H 695.368 0.384669 1.53967 0
M  V30 7335 H 695.389 -1.51033 3.49241 0
M  V30 7336 H 694.901 0.274647 3.87127 0
M  V30 7337 H 693.002 -2.06734 3.09987 0
M  V30 7338 H 693.115 -1.037 4.67743 0
M  V30 7339 H 691.479 -0.645361 2.46388 0
M  V30 7340 H 692.262 0.775379 3.34429 0
M  V30 7341 N 694.707 -1.5719 -0.113559 0
M  V30 7342 C 696.123 -1.52607 -0.467253 0
M  V30 7343 C 696.323 -0.874058 -1.81556 0
M  V30 7344 O 695.379 -0.458703 -2.48299 0
M  V30 7345 C 696.692 -2.97363 -0.446736 0
M  V30 7346 C 698.24 -3.08482 -0.529903 0
M  V30 7347 C 698.715 -4.54809 -0.539721 0
M  V30 7348 N 700.206 -4.59284 -0.601005 0
M  V30 7349 C 700.941 -5.69927 -0.630138 0
M  V30 7350 N 700.437 -6.90051 -0.616589 0
M  V30 7351 N 702.23 -5.5805 -0.673558 0
M  V30 7352 H 694.381 -1.97958 0.769819 0
M  V30 7353 H 696.644 -0.90428 0.284572 0
M  V30 7354 H 696.35 -3.48458 0.47643 0
M  V30 7355 H 696.224 -3.55086 -1.27254 0
M  V30 7356 H 698.611 -2.57386 -1.44349 0
M  V30 7357 H 698.692 -2.53744 0.323695 0
M  V30 7358 H 698.336 -5.06552 0.369843 0
M  V30 7359 H 698.266 -5.07364 -1.41028 0
M  V30 7360 H 700.757 -3.72822 -0.617419 0
M  V30 7361 H 701.07 -7.70132 -0.641592 0
M  V30 7362 H 699.415 -6.92543 -0.583927 0
M  V30 7363 H 702.606 -4.63112 -0.681544 0
M  V30 7364 H 702.779 -6.44286 -0.692794 0
M  V30 7365 N 696.185 0.383891 -1.52853 0
M  V30 7366 C 697.115 1.47559 -1.80965 0
M  V30 7367 C 698.096 1.5669 -0.661986 0
M  V30 7368 O 699.281 1.71556 -0.910072 0
M  V30 7369 C 696.411 2.85114 -1.98312 0
M  V30 7370 C 695.365 2.9082 -3.14019 0
M  V30 7371 C 694.691 4.30873 -3.16627 0
M  V30 7372 C 695.991 2.60001 -4.52986 0
M  V30 7373 H 697.685 1.24283 -2.72386 0
M  V30 7374 H 695.231 0.596445 -1.31067 0
M  V30 7375 H 697.184 3.61496 -2.16561 0
M  V30 7376 H 695.908 3.09738 -1.03585 0
M  V30 7377 H 694.567 2.16886 -2.9556 0
M  V30 7378 H 694.215 4.52545 -2.19573 0
M  V30 7379 H 693.915 4.3561 -3.94357 0
M  V30 7380 H 695.439 5.09154 -3.37038 0
M  V30 7381 H 696.853 3.261 -4.71521 0
M  V30 7382 H 695.25 2.76081 -5.32822 0
M  V30 7383 H 696.32 1.5532 -4.59351 0
M  V30 7384 N 697.663 1.43903 0.642637 0
M  V30 7385 C 698.909 1.46296 1.40447 0
M  V30 7386 C 699.242 0.0908361 1.93987 0
M  V30 7387 O 698.517 -0.889884 1.72949 0
M  V30 7388 C 698.8 2.51399 2.57819 0
M  V30 7389 C 698.653 3.97926 2.09702 0
M  V30 7390 C 699.972 2.53125 3.60022 0
M  V30 7391 H 697.091 0.532676 0.509338 0
M  V30 7392 H 699.733 1.75515 0.727635 0
M  V30 7393 H 697.883 2.26614 3.1556 0
M  V30 7394 H 699.555 4.33804 1.5688 0
M  V30 7395 H 697.798 4.10252 1.40982 0
M  V30 7396 H 698.469 4.67096 2.94152 0
M  V30 7397 H 700.945 2.75242 3.12059 0
M  V30 7398 H 699.821 3.28589 4.39682 0
M  V30 7399 H 700.082 1.56895 4.13324 0
M  V30 7400 N 699.141 -0.881989 1.30609 0
M  V30 7401 C 700.389 -1.63082 1.19368 0
M  V30 7402 C 700.71 -1.93376 -0.251147 0
M  V30 7403 O 699.98 -1.5723 -1.16857 0
M  V30 7404 H 698.56 -0.604542 0.438791 0
M  V30 7405 H 701.222 -1.05658 1.63776 0
M  V30 7406 H 700.318 -2.57966 1.7567 0
M  V30 7407 N 700.619 -1.13374 -1.09472 0
M  V30 7408 C 702.03 -0.90801 -1.63132 0
M  V30 7409 C 702.381 0.555576 -1.8817 0
M  V30 7410 O 701.506 1.42218 -1.63104 0
M  V30 7411 C 702.101 -1.64182 -2.96361 0
M  V30 7412 C 700.66 -1.46197 -3.46848 0
M  V30 7413 C 699.807 -1.67134 -2.21273 0
M  V30 7414 H 702.758 -1.2871 -0.928411 0
M  V30 7415 H 702.779 -1.09863 -3.64294 0
M  V30 7416 H 702.291 -2.707 -2.78106 0
M  V30 7417 H 700.392 -0.419788 -3.70228 0
M  V30 7418 H 700.505 -2.22472 -4.24315 0
M  V30 7419 H 698.869 -1.09616 -2.29905 0
M  V30 7420 H 699.652 -2.74971 -2.05538 0
M  V30 7421 N 702.098 1.27442 -0.927168 0
M  V30 7422 C 703.375 1.89473 -0.485742 0
M  V30 7423 C 703.755 1.83922 1.03614 0
M  V30 7424 O 703.103 1.28409 1.89007 0
M  V30 7425 C 703.313 3.33417 -1.03123 0
M  V30 7426 C 704.661 4.10333 -1.0914 0
M  V30 7427 O 705.685 3.4243 -0.98082 0
M  V30 7428 O 704.544 5.31737 -1.26165 0
M  V30 7429 H 701.638 0.812124 -0.156154 0
M  V30 7430 H 704.184 1.35713 -1.01882 0
M  V30 7431 H 702.956 3.31747 -2.07508 0
M  V30 7432 H 702.579 3.94695 -0.479767 0
M  V30 7433 N 703.576 0.692616 1.41565 0
M  V30 7434 C 704.823 0.222335 2.01276 0
M  V30 7435 C 705.151 -1.17706 1.5484 0
M  V30 7436 O 704.406 -1.80795 0.749118 0
M  V30 7437 C 704.705 0.225073 3.56691 0
M  V30 7438 C 704.371 1.57158 4.22625 0
M  V30 7439 C 703.033 1.94022 4.40351 0
M  V30 7440 C 705.385 2.45758 4.59622 0
M  V30 7441 C 702.713 3.19076 4.92349 0
M  V30 7442 C 705.065 3.70141 5.13009 0
M  V30 7443 C 703.729 4.07152 5.28946 0
M  V30 7444 H 702.999 0.0813581 0.73652 0
M  V30 7445 H 705.646 0.891123 1.69503 0
M  V30 7446 H 703.951 -0.527259 3.88236 0
M  V30 7447 H 705.648 -0.156283 4.00695 0
M  V30 7448 H 702.238 1.27486 4.09201 0
M  V30 7449 H 706.422 2.18558 4.45585 0
M  V30 7450 H 701.678 3.4775 5.02872 0
M  V30 7451 H 705.852 4.38983 5.40617 0
M  V30 7452 H 703.479 5.04125 5.69001 0
M  V30 7453 N 705.054 -1.51416 0.437162 0
M  V30 7454 C 706.301 -2.02086 -0.129364 0
M  V30 7455 C 706.629 -1.32133 -1.42728 0
M  V30 7456 O 705.884 -0.424916 -1.91031 0
M  V30 7457 C 706.183 -3.55203 -0.39564 0
M  V30 7458 C 705.849 -4.43447 0.81644 0
M  V30 7459 C 704.511 -4.67285 1.14884 0
M  V30 7460 C 706.863 -4.95219 1.62503 0
M  V30 7461 C 704.191 -5.40141 2.29052 0
M  V30 7462 C 706.543 -5.69327 2.7577 0
M  V30 7463 C 705.207 -5.91429 3.09464 0
M  V30 7464 H 704.477 -0.739486 -0.0473375 0
M  V30 7465 H 707.124 -1.82368 0.584321 0
M  V30 7466 H 705.429 -3.73252 -1.19121 0
M  V30 7467 H 707.126 -3.91944 -0.847399 0
M  V30 7468 H 703.716 -4.2509 0.547422 0
M  V30 7469 H 707.9 -4.76686 1.38144 0
M  V30 7470 H 703.156 -5.55468 2.55471 0
M  V30 7471 H 707.33 -6.08433 3.38795 0
M  V30 7472 H 704.957 -6.47662 3.98042 0
M  V30 7473 N 706.532 -0.168513 -1.56696 0
M  V30 7474 C 707.78 0.476216 -1.96409 0
M  V30 7475 C 708.101 1.63968 -1.05544 0
M  V30 7476 O 707.371 1.95525 -0.121235 0
M  V30 7477 H 705.951 0.178921 -0.725256 0
M  V30 7478 H 708.613 -0.249042 -1.93302 0
M  V30 7479 H 707.709 0.838094 -3.00637 0
M  V30 7480 N 708.01 1.57248 0.105221 0
M  V30 7481 C 709.25 1.87393 0.816283 0
M  V30 7482 C 709.614 0.758249 1.76393 0
M  V30 7483 O 710.815 0.941835 2.5176 0
M  V30 7484 C 709.086 3.22775 1.53463 0
M  V30 7485 S 710.645 3.74588 2.28537 0
M  V30 7486 H 707.463 0.656847 0.272164 0
M  V30 7487 H 710.065 1.9536 0.073909 0
M  V30 7488 H 708.769 4.01905 0.830674 0
M  V30 7489 H 708.3 3.17921 2.3171 0
M  V30 7490 H 710.315 3.47193 3.54502 0
M  V30 7491 N 709.488 -0.375779 1.53054 0
M  V30 7492 C 710.451 -1.44254 1.7811 0
M  V30 7493 C 711.451 -1.47018 0.651328 0
M  V30 7494 O 712.641 -1.47957 0.919472 0
M  V30 7495 C 709.773 -2.8345 1.89391 0
M  V30 7496 H 710.966 -1.23316 2.73374 0
M  V30 7497 H 708.519 -0.608312 1.43977 0
M  V30 7498 H 709.254 -3.09716 0.961589 0
M  V30 7499 H 709.039 -2.82844 2.71555 0
M  V30 7500 H 710.529 -3.60722 2.10404 0
M  V30 7501 N 710.966 -1.44241 -0.634997 0
M  V30 7502 C 711.876 -1.53293 -1.77591 0
M  V30 7503 C 712.892 -0.418831 -1.68884 0
M  V30 7504 O 714.068 -0.675619 -1.8973 0
M  V30 7505 C 711.133 -1.47075 -3.13958 0
M  V30 7506 C 710.194 -2.69304 -3.34326 0
M  V30 7507 C 709.427 -2.63374 -4.64187 0
M  V30 7508 O 709.65 -1.69161 -5.44739 0
M  V30 7509 O 708.584 -3.54166 -4.86673 0
M  V30 7510 H 712.41 -2.49673 -1.72908 0
M  V30 7511 H 709.995 -1.26445 -0.795745 0
M  V30 7512 H 711.877 -1.46117 -3.95257 0
M  V30 7513 H 710.552 -0.538373 -3.19192 0
M  V30 7514 H 709.459 -2.75831 -2.52721 0
M  V30 7515 H 710.792 -3.61576 -3.33951 0
M  V30 7516 N 712.444 0.87505 -1.31075 0
M  V30 7517 C 713.855 1.4433 -1.18431 0
M  V30 7518 C 714.206 1.9506 0.211189 0
M  V30 7519 O 713.331 1.85847 1.10859 0
M  V30 7520 C 713.926 2.62341 -2.14389 0
M  V30 7521 C 712.485 3.15225 -2.05694 0
M  V30 7522 C 711.632 1.87929 -2.03907 0
M  V30 7523 H 714.583 0.684061 -1.432 0
M  V30 7524 H 714.604 3.3887 -1.73053 0
M  V30 7525 H 714.116 2.25388 -3.15946 0
M  V30 7526 H 712.217 3.56812 -1.07314 0
M  V30 7527 H 712.33 3.77853 -2.94558 0
M  V30 7528 H 710.694 2.06679 -1.48849 0
M  V30 7529 H 711.477 1.53221 -3.07211 0
M  V30 7530 N 713.922 1.13953 1.08869 0
M  V30 7531 C 714.885 0.824991 2.13838 0
M  V30 7532 C 715.885 -0.168198 1.59918 0
M  V30 7533 O 717.075 0.0595778 1.74098 0
M  V30 7534 C 714.207 0.228938 3.4013 0
M  V30 7535 H 715.4 1.75521 2.43171 0
M  V30 7536 H 712.953 0.94492 1.24503 0
M  V30 7537 H 713.688 -0.710227 3.16427 0
M  V30 7538 H 713.473 0.944243 3.80561 0
M  V30 7539 H 714.963 0.0259223 4.17592 0
M  V30 7540 N 715.4 -1.26948 0.933913 0
M  V30 7541 C 716.348 -2.2862 0.428463 0
M  V30 7542 C 717.342 -1.62144 -0.490464 0
M  V30 7543 O 718.548 -1.76167 -0.36948 0
M  V30 7544 H 714.923 -0.742363 0.120003 0
M  V30 7545 H 716.894 -2.68659 1.29865 0
M  V30 7546 C 715.643 -3.46423 -0.29774 0
M  V30 7547 H 714.966 -3.97792 0.400183 0
M  V30 7548 H 716.406 -4.19505 -0.615736 0
M  V30 7549 C 714.865 -3.01017 -1.51295 0
M  V30 7550 O 715.395 -3.05226 -2.61151 0
M  V30 7551 N 713.601 -2.56442 -1.36696 0
M  V30 7552 H 713.148 -2.53217 -0.473178 0
M  V30 7553 H 713.106 -2.26424 -2.18127 0
M  V30 7554 N 716.879 -0.700114 -1.41195 0
M  V30 7555 C 718.107 -0.242179 -2.05478 0
M  V30 7556 C 718.522 1.11029 -1.52702 0
M  V30 7557 O 717.879 1.69473 -0.677127 0
M  V30 7558 C 717.93 -0.196271 -3.60967 0
M  V30 7559 O 717.651 -1.49532 -4.11791 0
M  V30 7560 C 719.152 0.282102 -4.42401 0
M  V30 7561 H 716.372 -0.111749 -0.661629 0
M  V30 7562 H 718.916 -0.953975 -1.80885 0
M  V30 7563 H 717.071 0.46638 -3.84582 0
M  V30 7564 H 717.485 -1.38545 -5.05871 0
M  V30 7565 H 718.959 0.263093 -5.51373 0
M  V30 7566 H 719.436 1.32174 -4.1884 0
M  V30 7567 H 720.042 -0.349712 -4.2386 0
M  V30 7568 N 718.357 1.51182 -0.445186 0
M  V30 7569 C 719.604 2.02152 0.118645 0
M  V30 7570 C 719.932 1.32888 1.42025 0
M  V30 7571 O 719.187 0.435041 1.90803 0
M  V30 7572 C 719.486 3.55408 0.376797 0
M  V30 7573 C 719.152 4.43008 -0.839945 0
M  V30 7574 C 717.814 4.66669 -1.17361 0
M  V30 7575 C 720.166 4.9435 -1.65127 0
M  V30 7576 C 717.494 5.38919 -2.31913 0
M  V30 7577 C 719.846 5.67857 -2.78786 0
M  V30 7578 C 718.51 5.89779 -3.12597 0
M  V30 7579 H 717.78 0.739727 0.0434152 0
M  V30 7580 H 720.427 1.82055 -0.593984 0
M  V30 7581 H 718.732 3.73879 1.1714 0
M  V30 7582 H 720.429 3.92388 0.826602 0
M  V30 7583 H 717.019 4.24793 -0.569958 0
M  V30 7584 H 721.203 4.75947 -1.4067 0
M  V30 7585 H 716.459 5.54105 -2.58413 0
M  V30 7586 H 720.633 6.06628 -3.42017 0
M  V30 7587 H 718.26 6.45542 -4.01471 0
M  V30 7588 N 719.835 0.176821 1.56605 0
M  V30 7589 C 720.765 -0.746841 2.21234 0
M  V30 7590 C 721.746 -1.23502 1.16967 0
M  V30 7591 O 722.931 -1.28718 1.45414 0
M  V30 7592 C 720.061 -1.97407 2.8574 0
M  V30 7593 C 719.015 -1.62153 3.96094 0
M  V30 7594 C 718.341 -2.92387 4.47676 0
M  V30 7595 C 719.641 -0.845353 5.15413 0
M  V30 7596 H 721.335 -0.208116 2.98676 0
M  V30 7597 H 718.881 -0.0986594 1.43662 0
M  V30 7598 H 720.834 -2.62531 3.2963 0
M  V30 7599 H 719.558 -2.53703 2.05676 0
M  V30 7600 H 718.217 -0.993964 3.52868 0
M  V30 7601 H 717.865 -3.46734 3.64396 0
M  V30 7602 H 717.565 -2.69551 5.22127 0
M  V30 7603 H 719.089 -3.5853 4.94255 0
M  V30 7604 H 720.503 -1.39929 5.55961 0
M  V30 7605 H 718.9 -0.715814 5.95815 0
M  V30 7606 H 719.97 0.157239 4.84645 0
M  V30 7607 O 721.352 -1.61453 0.0391262 0
M  V30 7608 H 722.043 -1.85062 -0.571999 0
M  V30 END ATOM
M  V30 BEGIN BOND
M  V30 END BOND
M  V30 END CTAB
M  END
$$$$
