drugbank_target|P24300 Xylose isomerase (DB00126; DB01881; DB02379; DB03564; DB03911; DB03947; DB11195)
 OpenBabel12092119503D

  0  0  0     0  0            999 V3000
M  V30 BEGIN CTAB
M  V30 COUNTS 5980 6052 0 0 0
M  V30 BEGIN ATOM
M  V30 1 H -0.908 1.98254 -0.117106 0
M  V30 2 N 0 1.576 0 0
M  V30 3 C 0.933 2.03868 1.02534 0
M  V30 4 C 1.911 0.928543 1.3348 0
M  V30 5 O 3.095 1.19667 1.45644 0
M  V30 6 C 0.222 2.43627 2.35294 0
M  V30 7 C -0.732 3.65373 2.2001 0
M  V30 8 S 0.101 5.13292 1.52614 0
M  V30 9 C 1.257 5.56322 2.86805 0
M  V30 10 H 1.49 2.90518 0.631377 0
M  V30 11 H -0.977 1.52953 0.210867 0
M  V30 12 H 0.981 2.67203 3.11629 0
M  V30 13 H -0.358 1.57376 2.7183 0
M  V30 14 H -1.165 3.90944 3.18086 0
M  V30 15 H -1.563 3.418 1.51819 0
M  V30 16 H 0.729 5.58782 3.83104 0
M  V30 17 H 1.672 6.56266 2.65933 0
M  V30 18 H 2.08 4.83886 2.90714 0
M  V30 19 N 1.4781 -0.272755 1.55222 0
M  V30 20 C 2.4261 -1.35705 1.88909 0
M  V30 21 C 3.4201 -1.5112 0.765456 0
M  V30 22 O 4.6261 -1.52901 0.949802 0
M  V30 23 H 1.0011 -0.453868 0.59959 0
M  V30 24 H 2.9721 -1.04544 2.79487 0
M  V30 25 C 1.7211 -2.71049 2.17779 0
M  V30 26 H 1.0441 -2.59979 3.03728 0
M  V30 27 H 2.4841 -3.45858 2.45272 0
M  V30 28 C 0.9431 -3.22165 0.985473 0
M  V30 29 O 1.4731 -4.01096 0.220233 0
M  V30 30 N -0.3209 -2.7985 0.783108 0
M  V30 31 H -0.7739 -2.15775 1.40708 0
M  V30 32 H -0.8159 -3.14397 -0.0130392 0
M  V30 33 N 2.9562 -1.48159 -0.537278 0
M  V30 34 C 4.1862 -1.59223 -1.3165 0
M  V30 35 C 4.5942 -0.248849 -1.87556 0
M  V30 36 O 3.9372 0.770949 -1.6674 0
M  V30 37 C 3.9992 -2.57365 -2.51005 0
M  V30 38 C 3.6632 -4.02603 -2.16239 0
M  V30 39 C 4.6602 -4.90503 -1.72344 0
M  V30 40 C 2.3452 -4.48088 -2.26986 0
M  V30 41 C 4.3392 -6.21913 -1.39651 0
M  V30 42 C 2.0262 -5.7952 -1.93906 0
M  V30 43 C 3.0242 -6.66255 -1.50309 0
M  V30 44 O 2.7122 -7.95243 -1.17659 0
M  V30 45 H 2.4442 -0.539831 -0.406889 0
M  V30 46 H 4.9982 -1.94655 -0.655641 0
M  V30 47 H 3.2282 -2.1704 -3.20048 0
M  V30 48 H 4.9172 -2.58342 -3.13072 0
M  V30 49 H 5.6832 -4.56604 -1.63517 0
M  V30 50 H 1.5622 -3.80769 -2.59877 0
M  V30 51 H 5.1062 -6.89569 -1.0555 0
M  V30 52 H 1.0032 -6.12957 -2.02371 0
M  V30 53 H 1.7712 -8.0793 -1.31119 0
M  V30 54 N 4.4343 0.785586 -1.36625 0
M  V30 55 C 5.3663 1.90711 -1.2713 0
M  V30 56 C 6.3793 1.61688 -0.189986 0
M  V30 57 O 7.5683 1.72864 -0.445014 0
M  V30 58 C 4.6683 3.25611 -0.939713 0
M  V30 59 C 3.8413 3.82385 -2.12369 0
M  V30 60 C 2.9003 4.95732 -1.76456 0
M  V30 61 O 1.9263 5.12047 -2.48589 0
M  V30 62 N 3.1283 5.76258 -0.700492 0
M  V30 63 H 5.8933 1.99376 -2.23762 0
M  V30 64 H 3.4543 0.964041 -1.30069 0
M  V30 65 H 5.4463 3.98937 -0.680554 0
M  V30 66 H 4.0163 3.12538 -0.0624074 0
M  V30 67 H 3.2363 3.01001 -2.54543 0
M  V30 68 H 4.5243 4.17047 -2.9146 0
M  V30 69 H 3.9223 5.65609 -0.101624 0
M  V30 70 H 2.4793 6.4987 -0.501165 0
M  V30 71 N 5.9124 1.20967 1.01018 0
M  V30 72 C 7.3234 1.02319 1.56165 0
M  V30 73 C 7.6744 -0.418546 1.91684 0
M  V30 74 O 6.7994 -1.30096 1.72928 0
M  V30 75 C 7.3944 1.85109 2.8376 0
M  V30 76 C 5.9534 1.70809 3.35412 0
M  V30 77 C 5.1004 1.82643 2.08655 0
M  V30 78 H 8.0514 1.35065 0.833255 0
M  V30 79 H 8.0724 1.35827 3.55431 0
M  V30 80 H 7.5844 2.90035 2.57878 0
M  V30 81 H 5.6854 0.685464 3.66241 0
M  V30 82 H 5.7984 2.52467 4.07182 0
M  V30 83 H 4.1624 1.25896 2.21409 0
M  V30 84 H 4.9454 2.89066 1.85191 0
M  V30 85 N 7.3905 -1.2043 1.01659 0
M  V30 86 C 8.6185 -1.93777 0.725132 0
M  V30 87 C 9.0335 -1.74772 -0.714166 0
M  V30 88 O 8.3905 -1.06169 -1.4844 0
M  V30 89 C 8.4415 -3.45876 1.05129 0
M  V30 90 O 8.1625 -3.6426 2.43406 0
M  V30 91 C 9.6635 -4.36368 0.780891 0
M  V30 92 H 6.8835 -0.615901 0.266284 0
M  V30 93 H 9.4275 -1.52922 1.35776 0
M  V30 94 H 7.5825 -3.8461 0.464065 0
M  V30 95 H 7.9965 -4.58246 2.55169 0
M  V30 96 H 9.4705 -5.41743 1.05918 0
M  V30 97 H 9.9475 -4.38275 -0.284937 0
M  V30 98 H 10.5535 -4.03296 1.35027 0
M  V30 99 N 8.8686 -0.792821 -1.36206 0
M  V30 100 C 10.2796 -0.429513 -1.81692 0
M  V30 101 C 10.6306 1.04695 -1.65932 0
M  V30 102 O 9.7556 1.81256 -1.18218 0
M  V30 103 C 10.3506 -0.772831 -3.29868 0
M  V30 104 C 8.9096 -0.462307 -3.7355 0
M  V30 105 C 8.0566 -1.00569 -2.5842 0
M  V30 106 H 11.0076 -0.985672 -1.24379 0
M  V30 107 H 11.0286 -0.0651928 -3.80444 0
M  V30 108 H 10.5406 -1.84747 -3.41307 0
M  V30 109 H 8.6416 0.604158 -3.67669 0
M  V30 110 H 8.7546 -0.985299 -4.68859 0
M  V30 111 H 7.1186 -0.428734 -2.51066 0
M  V30 112 H 7.9016 -2.08616 -2.72643 0
M  V30 113 N 10.3467 1.47872 -0.545128 0
M  V30 114 C 11.2567 2.33633 0.212746 0
M  V30 115 C 12.2727 1.4744 0.923983 0
M  V30 116 O 13.4487 1.80393 0.895572 0
M  V30 117 C 10.5137 3.23884 1.23693 0
M  V30 118 C 9.5747 4.25961 0.534417 0
M  V30 119 C 8.8077 5.11899 1.5098 0
M  V30 120 O 9.0307 5.00077 2.7437 0
M  V30 121 O 7.9647 5.92831 1.0409 0
M  V30 122 H 11.7907 2.99714 -0.490416 0
M  V30 123 H 9.3757 1.46235 -0.305871 0
M  V30 124 H 11.2577 3.79666 1.82843 0
M  V30 125 H 9.9327 2.60446 1.92222 0
M  V30 126 H 8.8397 3.73972 -0.0979679 0
M  V30 127 H 10.1727 4.92079 -0.109213 0
M  V30 128 N 11.8248 0.280983 1.55075 0
M  V30 129 C 13.1018 -0.386207 1.91749 0
M  V30 130 C 13.4818 -1.73264 1.20594 0
M  V30 131 O 12.8298 -2.26034 0.334784 0
M  V30 132 C 13.0398 -0.520687 3.45094 0
M  V30 133 C 14.3878 -0.800865 4.16979 0
M  V30 134 O 15.4118 -0.605271 3.5102 0
M  V30 135 O 14.2708 -1.1753 5.33712 0
M  V30 136 H 11.3648 -0.212408 0.799257 0
M  V30 137 H 13.9108 0.327568 1.66509 0
M  V30 138 H 12.6828 0.426633 3.88967 0
M  V30 139 H 12.3058 -1.2837 3.76307 0
M  V30 140 N 13.3029 -1.57598 0.00835791 0
M  V30 141 C 14.7189 -1.55764 -0.347822 0
M  V30 142 C 14.9189 -1.01186 -1.74252 0
M  V30 143 O 13.9749 -0.649371 -2.44007 0
M  V30 144 C 15.2879 -2.99927 -0.215407 0
M  V30 145 C 16.8359 -3.11656 -0.289725 0
M  V30 146 C 17.3109 -4.57621 -0.18634 0
M  V30 147 N 18.8019 -4.62557 -0.243978 0
M  V30 148 C 19.5369 -5.73094 -0.18745 0
M  V30 149 N 19.0329 -6.92753 -0.0810331 0
M  V30 150 N 20.8259 -5.61588 -0.239925 0
M  V30 151 H 12.9769 -1.91411 0.92062 0
M  V30 152 H 15.2399 -0.879562 0.353659 0
M  V30 153 H 14.9459 -3.43729 0.744512 0
M  V30 154 H 14.8199 -3.63865 -0.994097 0
M  V30 155 H 17.2069 -2.67779 -1.24009 0
M  V30 156 H 17.2879 -2.5048 0.51898 0
M  V30 157 H 16.9319 -5.02174 0.760519 0
M  V30 158 H 16.8619 -5.16752 -1.01364 0
M  V30 159 H 19.3529 -3.76481 -0.327217 0
M  V30 160 H 19.6659 -7.72787 -0.0440241 0
M  V30 161 H 18.0109 -6.94984 -0.0465419 0
M  V30 162 H 21.2019 -4.66996 -0.321317 0
M  V30 163 H 21.3749 -6.47714 -0.192407 0
M  V30 164 N 14.781 0.264519 -1.55364 0
M  V30 165 C 16.028 0.994986 -1.7637 0
M  V30 166 C 16.356 1.85976 -0.5695 0
M  V30 167 O 15.611 1.90509 0.44776 0
M  V30 168 C 15.91 1.9004 -3.02687 0
M  V30 169 C 15.576 1.19243 -4.34847 0
M  V30 170 C 14.238 0.996709 -4.70764 0
M  V30 171 C 16.59 0.689296 -5.16622 0
M  V30 172 C 13.918 0.285261 -5.86006 0
M  V30 173 C 16.27 -0.00860079 -6.32599 0
M  V30 174 C 14.934 -0.215963 -6.67151 0
M  V30 175 H 14.204 0.364091 -0.645383 0
M  V30 176 H 16.851 0.266543 -1.89636 0
M  V30 177 H 15.156 2.69533 -2.84357 0
M  V30 178 H 16.853 2.46695 -3.16137 0
M  V30 179 H 13.443 1.3549 -4.06621 0
M  V30 180 H 17.627 0.828108 -4.89342 0
M  V30 181 H 12.883 0.113961 -6.11294 0
M  V30 182 H 17.057 -0.406186 -6.95214 0
M  V30 183 H 14.684 -0.769217 -7.56298 0
M  V30 184 N 16.2591 1.48442 0.529413 0
M  V30 185 C 17.4871 1.60151 1.30994 0
M  V30 186 C 17.9021 0.261985 1.86973 0
M  V30 187 O 17.2591 -0.748805 1.66431 0
M  V30 188 C 17.3101 2.64854 2.46038 0
M  V30 189 O 17.0311 3.93608 1.92365 0
M  V30 190 C 18.5321 2.87007 3.37849 0
M  V30 191 H 15.7521 0.539971 0.398338 0
M  V30 192 H 18.2961 1.94273 0.638597 0
M  V30 193 H 16.4511 2.33589 3.09055 0
M  V30 194 H 16.8651 4.51055 2.67675 0
M  V30 195 H 18.3391 3.64068 4.14919 0
M  V30 196 H 18.8161 1.95852 3.93114 0
M  V30 197 H 19.4221 3.19579 2.80623 0
M  V30 198 N 17.7372 -0.778329 1.37039 0
M  V30 199 C 18.9842 -1.53665 1.31884 0
M  V30 200 C 19.3122 -1.9425 -0.0986303 0
M  V30 201 O 18.5672 -1.63832 -1.07041 0
M  V30 202 C 18.8662 -2.81845 2.19768 0
M  V30 203 C 18.5322 -2.60345 3.68146 0
M  V30 204 C 17.1942 -2.5419 4.08584 0
M  V30 205 C 19.5462 -2.40923 4.62175 0
M  V30 206 C 16.8742 -2.26594 5.41177 0
M  V30 207 C 19.2262 -2.14852 5.94997 0
M  V30 208 C 17.8902 -2.07137 6.34547 0
M  V30 209 H 17.1602 -0.562299 0.482598 0
M  V30 210 H 19.8072 -0.897069 1.69189 0
M  V30 211 H 18.1122 -3.50328 1.75436 0
M  V30 212 H 19.8092 -3.39692 2.13097 0
M  V30 213 H 16.3992 -2.65996 3.36072 0
M  V30 214 H 20.5832 -2.44673 4.31797 0
M  V30 215 H 15.8392 -2.19111 5.70789 0
M  V30 216 H 20.0132 -1.98822 6.67415 0
M  V30 217 H 17.6402 -1.85518 7.37216 0
M  V30 218 N 19.2153 -1.21501 -1.00376 0
M  V30 219 C 20.4633 -1.03095 -1.73827 0
M  V30 220 C 20.7843 0.436341 -1.90055 0
M  V30 221 O 20.0543 1.31466 -1.45236 0
M  V30 222 H 18.6343 -0.378487 -0.644016 0
M  V30 223 H 21.2963 -1.52831 -1.20949 0
M  V30 224 H 20.3923 -1.49991 -2.73695 0
M  V30 225 N 20.6934 1.19889 -1.02296 0
M  V30 226 C 21.6234 2.25141 -0.619174 0
M  V30 227 C 22.6044 1.66051 0.368915 0
M  V30 228 O 23.7894 1.92546 0.252941 0
M  V30 229 C 20.9194 3.4728 0.0368783 0
M  V30 230 C 19.8734 4.19005 -0.872865 0
M  V30 231 C 19.1994 5.34637 -0.0822402 0
M  V30 232 C 20.4994 4.74452 -2.18387 0
M  V30 233 H 22.1934 2.59171 -1.49903 0
M  V30 234 H 19.7394 1.24579 -0.722222 0
M  V30 235 H 21.6924 4.20098 0.330958 0
M  V30 236 H 20.4164 3.12433 0.95149 0
M  V30 237 H 19.0754 3.48061 -1.15105 0
M  V30 238 H 18.7234 4.96034 0.83422 0
M  V30 239 H 18.4234 5.83557 -0.688149 0
M  V30 240 H 19.9474 6.10255 0.205238 0
M  V30 241 H 21.3614 5.39055 -1.95172 0
M  V30 242 H 19.7584 5.33834 -2.74119 0
M  V30 243 H 20.8284 3.92844 -2.84257 0
M  V30 244 N 22.1715 0.800033 1.35784 0
M  V30 245 C 23.4175 0.38701 1.99684 0
M  V30 246 C 23.7725 -1.03268 1.62338 0
M  V30 247 O 23.0655 -1.70543 0.87325 0
M  V30 248 C 23.2595 0.500276 3.53881 0
M  V30 249 C 23.0885 1.92942 4.06206 0
M  V30 250 C 21.8585 2.55637 4.35865 0
M  V30 251 C 24.0565 2.89307 4.25213 0
M  V30 252 N 22.0385 3.9003 4.74078 0
M  V30 253 C 23.4095 4.08556 4.66349 0
M  V30 254 C 25.4645 2.86225 4.07406 0
M  V30 255 C 24.1675 5.25146 4.91543 0
M  V30 256 C 26.1935 4.02011 4.33752 0
M  V30 257 C 25.5555 5.20007 4.75155 0
M  V30 258 H 21.6545 0.189252 0.758754 0
M  V30 259 H 24.2385 1.03988 1.64604 0
M  V30 260 H 22.4095 -0.122568 3.88207 0
M  V30 261 H 24.1415 0.0624733 4.04652 0
M  V30 262 H 20.8965 2.07039 4.25948 0
M  V30 263 H 21.3205 4.59205 4.97454 0
M  V30 264 H 25.9625 1.96154 3.74544 0
M  V30 265 H 23.6805 6.15794 5.23281 0
M  V30 266 H 27.2665 4.00999 4.21534 0
M  V30 267 H 26.1465 6.08113 4.95145 0
M  V30 268 N 23.6496 -1.47581 0.552962 0
M  V30 269 C 24.8776 -2.06875 0.0320556 0
M  V30 270 C 25.2926 -1.40625 -1.25976 0
M  V30 271 O 24.6496 -0.501349 -1.75479 0
M  V30 272 C 24.7006 -3.61092 -0.17167 0
M  V30 273 O 24.4216 -4.24858 1.06899 0
M  V30 274 C 25.9226 -4.37242 -0.730344 0
M  V30 275 H 23.1426 -0.669561 0.043915 0
M  V30 276 H 25.6866 -1.89646 0.765163 0
M  V30 277 H 23.8416 -3.7785 -0.854894 0
M  V30 278 H 24.2556 -5.17334 0.864059 0
M  V30 279 H 25.7296 -5.45842 -0.822203 0
M  V30 280 H 26.2066 -4.03235 -1.74064 0
M  V30 281 H 26.8126 -4.25219 -0.0829543 0
M  V30 282 N 25.1277 -0.289203 -1.54924 0
M  V30 283 C 26.3737 0.323998 -2.00195 0
M  V30 284 C 26.7067 1.54441 -1.17735 0
M  V30 285 O 25.9817 1.92875 -0.250878 0
M  V30 286 C 26.2647 0.692276 -3.53383 0
M  V30 287 C 26.1177 -0.536457 -4.46589 0
M  V30 288 C 27.4367 1.52335 -4.12895 0
M  V30 289 H 24.5557 0.116289 -0.727768 0
M  V30 290 H 27.1977 -0.398954 -1.85764 0
M  V30 291 H 25.3477 1.30822 -3.65811 0
M  V30 292 H 27.0197 -1.17499 -4.46085 0
M  V30 293 H 25.2627 -1.17192 -4.1767 0
M  V30 294 H 25.9337 -0.234806 -5.515 0
M  V30 295 H 28.4097 1.00302 -4.0383 0
M  V30 296 H 27.2857 1.74982 -5.20262 0
M  V30 297 H 27.5467 2.50886 -3.64018 0
M  V30 298 N 26.6058 1.57591 -0.0167156 0
M  V30 299 C 27.8538 1.90906 0.663285 0
M  V30 300 C 28.1748 0.892509 1.73376 0
M  V30 301 O 27.4448 -0.0677623 1.95783 0
M  V30 302 H 26.0248 0.704637 0.247983 0
M  V30 303 H 28.6868 1.94803 -0.0615909 0
M  V30 304 H 27.7828 2.9116 1.12393 0
M  V30 305 N 28.0839 -0.256276 1.55502 0
M  V30 306 C 29.3299 -0.982884 1.78076 0
M  V30 307 C 29.6849 -1.83319 0.584109 0
M  V30 308 O 28.9779 -1.86875 -0.422877 0
M  V30 309 C 29.1719 -1.88432 3.03691 0
M  V30 310 C 29.0009 -1.12276 4.35459 0
M  V30 311 C 27.7709 -0.831647 4.98409 0
M  V30 312 C 29.9689 -0.504933 5.11815 0
M  V30 313 N 27.9509 -0.0450423 6.13883 0
M  V30 314 C 29.3219 0.146696 6.19826 0
M  V30 315 C 31.3769 -0.414455 4.96172 0
M  V30 316 C 30.0799 0.880103 7.13895 0
M  V30 317 C 32.1059 0.305398 5.90611 0
M  V30 318 C 31.4679 0.945701 6.98023 0
M  V30 319 H 27.5669 -0.341084 0.703694 0
M  V30 320 H 30.1509 -0.256909 1.92998 0
M  V30 321 H 28.3219 -2.58241 2.90114 0
M  V30 322 H 30.0539 -2.54579 3.14598 0
M  V30 323 H 26.8089 -1.14111 4.59647 0
M  V30 324 H 27.2329 0.336079 6.76165 0
M  V30 325 H 31.8749 -0.895163 4.13215 0
M  V30 326 H 29.5929 1.37244 7.9636 0
M  V30 327 H 33.1789 0.375946 5.80584 0
M  V30 328 H 32.0589 1.49383 7.6984 0
M  V30 329 N 29.562 -1.4872 -0.521534 0
M  V30 330 C 30.494 -1.59968 -1.64143 0
M  V30 331 C 31.507 -0.483463 -1.55456 0
M  V30 332 O 32.696 -0.75467 -1.61762 0
M  V30 333 C 29.796 -1.52127 -3.02838 0
M  V30 334 C 28.969 -2.78932 -3.36921 0
M  V30 335 C 28.028 -2.64428 -4.54933 0
M  V30 336 O 27.054 -3.38331 -4.57735 0
M  V30 337 N 28.256 -1.74606 -5.53618 0
M  V30 338 H 31.021 -2.56548 -1.54929 0
M  V30 339 H 28.582 -1.45551 -0.708988 0
M  V30 340 H 30.574 -1.40106 -3.79674 0
M  V30 341 H 29.144 -0.634868 -3.06085 0
M  V30 342 H 28.364 -3.05455 -2.4918 0
M  V30 343 H 29.652 -3.63041 -3.56481 0
M  V30 344 H 29.05 -1.13782 -5.54139 0
M  V30 345 H 27.607 -1.6852 -6.29638 0
M  V30 346 N 31.0401 0.771051 -1.3745 0
M  V30 347 C 32.2881 1.52661 -1.32435 0
M  V30 348 C 32.6091 1.9479 0.0905024 0
M  V30 349 O 31.8791 1.66348 1.03466 0
M  V30 350 H 30.4591 0.566218 -0.487244 0
M  V30 351 H 33.1211 0.917636 -1.71946 0
M  V30 352 H 32.2171 2.42568 -1.96385 0
M  V30 353 N 32.5182 1.22032 0.997298 0
M  V30 354 C 33.9342 0.979326 1.26021 0
M  V30 355 C 34.1342 -0.32972 1.98784 0
M  V30 356 O 33.1902 -1.05345 2.29475 0
M  V30 357 C 34.5032 2.17509 2.07631 0
M  V30 358 C 36.0512 2.21817 2.2083 0
M  V30 359 C 36.5262 3.40933 3.05825 0
M  V30 360 N 38.0172 3.41067 3.13412 0
M  V30 361 C 38.7522 4.29885 3.79455 0
M  V30 362 N 38.2482 5.28914 4.47462 0
M  V30 363 N 40.0412 4.17673 3.76173 0
M  V30 364 H 32.1922 2.06202 0.509352 0
M  V30 365 H 34.4552 0.90334 0.287541 0
M  V30 366 H 34.1612 3.12415 1.61524 0
M  V30 367 H 34.0352 2.17206 3.08385 0
M  V30 368 H 36.4222 1.27462 2.66153 0
M  V30 369 H 36.5032 2.2616 1.1952 0
M  V30 370 H 36.1472 4.35586 2.61203 0
M  V30 371 H 36.0772 3.33829 4.07266 0
M  V30 372 H 38.5682 2.69406 2.65007 0
M  V30 373 H 38.8812 5.92973 4.95583 0
M  V30 374 H 37.2262 5.32831 4.46224 0
M  V30 375 H 40.4172 3.39564 3.22202 0
M  V30 376 H 40.5902 4.87098 4.27363 0
M  V30 377 N 33.9963 -1.19345 1.0293 0
M  V30 378 C 35.2733 -1.84811 0.640642 0
M  V30 379 C 35.6533 -1.91855 -0.88062 0
M  V30 380 O 35.0013 -1.43587 -1.7775 0
M  V30 381 C 35.2113 -3.23755 1.30321 0
M  V30 382 C 36.5593 -3.99912 1.42673 0
M  V30 383 O 37.5833 -3.33155 1.26041 0
M  V30 384 O 36.4423 -5.19494 1.6967 0
M  V30 385 H 33.5363 -0.796443 0.222726 0
M  V30 386 H 36.0823 -1.26831 1.12748 0
M  V30 387 H 34.8543 -3.13466 2.34211 0
M  V30 388 H 34.4773 -3.89381 0.804261 0
M  V30 389 N 35.4744 -0.807222 -1.35358 0
M  V30 390 C 36.8854 -0.44876 -1.81226 0
M  V30 391 C 37.2364 1.02929 -1.67033 0
M  V30 392 O 36.3614 1.79991 -1.20133 0
M  V30 393 C 36.9564 -0.807774 -3.2903 0
M  V30 394 C 35.5154 -0.501901 -3.73039 0
M  V30 395 C 34.6624 -1.03304 -2.57339 0
M  V30 396 H 37.6134 -0.998808 -1.23327 0
M  V30 397 H 37.6344 -0.10554 -3.80354 0
M  V30 398 H 37.1464 -1.88357 -3.39328 0
M  V30 399 H 35.2474 0.565128 -3.68289 0
M  V30 400 H 35.3604 -1.03497 -4.67787 0
M  V30 401 H 33.7244 -0.455339 -2.50597 0
M  V30 402 H 34.5074 -2.11496 -2.70415 0
M  V30 403 N 36.9525 1.47285 -0.560781 0
M  V30 404 C 38.1995 2.02464 -0.038062 0
M  V30 405 C 38.5275 1.43474 1.31322 0
M  V30 406 O 37.7825 0.581311 1.86867 0
M  V30 407 C 38.0815 3.57258 0.100784 0
M  V30 408 C 37.7475 4.35184 -1.18007 0
M  V30 409 C 36.4095 4.56194 -1.53103 0
M  V30 410 C 38.7615 4.80098 -2.02867 0
M  V30 411 C 36.0895 5.19367 -2.729 0
M  V30 412 C 38.4415 5.44593 -3.21871 0
M  V30 413 C 37.1055 5.63835 -3.57276 0
M  V30 414 H 36.3755 0.740869 -0.0139279 0
M  V30 415 H 39.0225 1.76916 -0.733012 0
M  V30 416 H 37.3275 3.81819 0.878724 0
M  V30 417 H 39.0245 3.97606 0.520639 0
M  V30 418 H 35.6145 4.19113 -0.8968 0
M  V30 419 H 39.7985 4.63642 -1.7706 0
M  V30 420 H 35.0545 5.32459 -3.00496 0
M  V30 421 H 39.2285 5.78358 -3.87911 0
M  V30 422 H 36.8555 6.12557 -4.50197 0
M  V30 423 N 38.4306 0.297415 1.54768 0
M  V30 424 C 39.6786 -0.312295 1.99673 0
M  V30 425 C 39.9996 -1.54686 1.18732 0
M  V30 426 O 39.2696 -1.93854 0.282382 0
M  V30 427 H 37.8496 -0.118381 0.73756 0
M  V30 428 H 40.5116 0.407915 1.90583 0
M  V30 429 H 39.6076 -0.586813 3.06534 0
M  V30 430 N 39.9087 -1.5758 0.0250728 0
M  V30 431 C 41.1857 -1.82917 -0.692873 0
M  V30 432 C 41.5657 -0.908137 -1.90568 0
M  V30 433 O 40.9137 0.0372298 -2.2847 0
M  V30 434 C 41.1237 -3.32034 -1.07492 0
M  V30 435 C 42.4717 -3.98406 -1.46826 0
M  V30 436 O 43.4957 -3.36505 -1.16801 0
M  V30 437 O 42.3547 -5.07497 -2.02754 0
M  V30 438 H 39.4487 -0.754079 -0.33955 0
M  V30 439 H 41.9947 -1.69619 0.0524456 0
M  V30 440 H 40.7667 -3.90728 -0.211552 0
M  V30 441 H 40.3897 -3.50424 -1.87854 0
M  V30 442 N 41.3868 0.248026 -1.55636 0
M  V30 443 C 42.3498 1.29044 -1.89421 0
M  V30 444 C 43.3498 1.41134 -0.770581 0
M  V30 445 O 44.5398 1.39854 -1.03858 0
M  V30 446 C 41.6718 2.66831 -2.12165 0
M  V30 447 H 42.8648 1.00305 -2.82629 0
M  V30 448 H 40.4178 0.487265 -1.48511 0
M  V30 449 H 41.1528 3.00711 -1.21422 0
M  V30 450 H 40.9378 2.59438 -2.93997 0
M  V30 451 H 42.4278 3.42103 -2.3949 0
M  V30 452 N 42.8649 1.48995 0.513639 0
M  V30 453 C 44.0929 1.61531 1.29288 0
M  V30 454 C 44.5079 0.281801 1.86685 0
M  V30 455 O 43.8649 -0.731111 1.67215 0
M  V30 456 C 43.9159 2.67449 2.43215 0
M  V30 457 O 43.6369 3.95626 1.88179 0
M  V30 458 C 45.1379 2.90575 3.34785 0
M  V30 459 H 42.3579 0.544165 0.392588 0
M  V30 460 H 44.9019 1.9494 0.617956 0
M  V30 461 H 43.0569 2.36853 3.0656 0
M  V30 462 H 43.4709 4.53868 2.62876 0
M  V30 463 H 44.9449 3.68449 4.11035 0
M  V30 464 H 45.4219 2.00011 3.91015 0
M  V30 465 H 46.0279 3.22538 2.77218 0
M  V30 466 N 44.343 -0.763751 1.37857 0
M  V30 467 C 45.759 -1.06542 1.18832 0
M  V30 468 C 45.959 -2.01478 0.0299722 0
M  V30 469 O 45.015 -2.4458 -0.627447 0
M  V30 470 C 46.328 -1.65525 2.51042 0
M  V30 471 C 47.876 -1.77745 2.57635 0
M  V30 472 C 48.351 -2.4014 3.89996 0
M  V30 473 N 49.842 -2.47582 3.91481 0
M  V30 474 C 50.577 -2.96732 4.9065 0
M  V30 475 N 50.073 -3.45993 6.00217 0
M  V30 476 N 51.866 -2.95679 4.78048 0
M  V30 477 H 44.017 -0.133556 2.1198 0
M  V30 478 H 46.28 -0.121879 0.940133 0
M  V30 479 H 45.986 -1.03236 3.36207 0
M  V30 480 H 45.86 -2.64719 2.68707 0
M  V30 481 H 48.247 -2.39164 1.72872 0
M  V30 482 H 48.328 -0.772836 2.43846 0
M  V30 483 H 47.972 -1.79358 4.75177 0
M  V30 484 H 47.902 -3.41223 4.01092 0
M  V30 485 H 50.393 -2.1273 3.12337 0
M  V30 486 H 50.706 -3.81922 6.7183 0
M  V30 487 H 49.051 -3.44077 6.03851 0
M  V30 488 H 52.242 -2.56499 3.91568 0
M  V30 489 H 52.415 -3.33672 5.55488 0
M  V30 490 N 45.8211 -1.22559 -0.990812 0
M  V30 491 C 47.2371 -0.985996 -1.255 0
M  V30 492 C 47.4371 0.319173 -1.98956 0
M  V30 493 O 46.4931 1.04127 -2.3003 0
M  V30 494 C 47.8061 -2.18607 -2.06474 0
M  V30 495 C 49.3541 -2.22985 -2.19651 0
M  V30 496 C 49.8291 -3.4255 -3.04012 0
M  V30 497 N 51.3201 -3.42725 -3.11599 0
M  V30 498 C 52.0551 -4.31892 -3.7717 0
M  V30 499 N 51.5511 -5.31279 -4.44651 0
M  V30 500 N 53.3441 -4.19662 -3.73952 0
M  V30 501 H 45.4951 -2.06469 -0.49841 0
M  V30 502 H 47.7581 -0.904853 -0.282747 0
M  V30 503 H 47.4641 -3.13267 -1.59865 0
M  V30 504 H 47.3381 -2.18838 -3.07229 0
M  V30 505 H 49.7251 -1.28871 -2.65474 0
M  V30 506 H 49.8061 -2.26791 -1.18319 0
M  V30 507 H 49.4501 -4.36965 -2.58889 0
M  V30 508 H 49.3801 -3.35984 -4.0549 0
M  V30 509 H 51.8711 -2.70807 -2.63575 0
M  V30 510 H 52.1841 -5.95593 -4.92431 0
M  V30 511 H 50.5291 -5.3519 -4.43392 0
M  V30 512 H 53.7201 -3.41268 -3.20396 0
M  V30 513 H 53.8931 -4.89358 -4.24774 0
M  V30 514 N 47.2992 1.18797 -1.03562 0
M  V30 515 C 48.2622 2.20464 -0.626769 0
M  V30 516 C 49.2622 1.57721 0.313173 0
M  V30 517 O 50.4522 1.73917 0.0992615 0
M  V30 518 C 47.5842 3.40802 0.0818498 0
M  V30 519 H 48.7772 2.58149 -1.5264 0
M  V30 520 H 46.3302 1.32593 -0.827578 0
M  V30 521 H 47.0652 3.08642 0.995518 0
M  V30 522 H 46.8502 3.8758 -0.593652 0
M  V30 523 H 48.3402 4.16092 0.354584 0
M  V30 524 N 48.7773 0.814389 1.34928 0
M  V30 525 C 49.7073 0.244827 2.32213 0
M  V30 526 C 50.6883 -0.634024 1.57842 0
M  V30 527 O 51.8733 -0.562676 1.8587 0
M  V30 528 C 49.0033 -0.601106 3.42058 0
M  V30 529 C 47.9573 0.179896 4.27622 0
M  V30 530 C 47.2833 -0.788237 5.28858 0
M  V30 531 C 48.5833 1.38329 5.03649 0
M  V30 532 H 50.2773 1.05763 2.80097 0
M  V30 533 H 47.8233 0.510029 1.34665 0
M  V30 534 H 49.7763 -1.00968 4.09125 0
M  V30 535 H 48.5003 -1.44688 2.92802 0
M  V30 536 H 47.1593 0.569739 3.62146 0
M  V30 537 H 46.8073 -1.62973 4.75866 0
M  V30 538 H 46.5073 -0.269942 5.8698 0
M  V30 539 H 48.0313 -1.19485 5.98795 0
M  V30 540 H 49.4453 1.04918 5.63618 0
M  V30 541 H 47.8423 1.83662 5.71304 0
M  V30 542 H 48.9123 2.16592 4.33839 0
M  V30 543 N 50.2554 -1.46986 0.568584 0
M  V30 544 C 51.5324 -1.95592 -0.0174074 0
M  V30 545 C 51.9124 -1.51124 -1.47393 0
M  V30 546 O 51.2604 -0.755329 -2.15655 0
M  V30 547 C 51.4704 -3.48719 0.139913 0
M  V30 548 C 52.8184 -4.246 0.000426376 0
M  V30 549 O 53.8424 -3.56135 0.0680316 0
M  V30 550 O 52.7014 -5.46302 -0.146988 0
M  V30 551 H 49.7954 -0.82498 -0.0577599 0
M  V30 552 H 52.3414 -1.57335 0.635909 0
M  V30 553 H 51.1134 -3.73927 1.15301 0
M  V30 554 H 50.7364 -3.93771 -0.550491 0
M  V30 555 N 51.7335 -0.305618 -1.54608 0
M  V30 556 C 53.1445 0.186098 -1.8577 0
M  V30 557 C 53.4955 1.53058 -1.22751 0
M  V30 558 O 52.6205 2.09888 -0.526893 0
M  V30 559 C 53.2155 0.344449 -3.37044 0
M  V30 560 C 51.7745 0.780384 -3.68221 0
M  V30 561 C 50.9215 -0.108554 -2.77087 0
M  V30 562 H 53.8725 -0.526485 -1.49712 0
M  V30 563 H 53.8935 1.17828 -3.61796 0
M  V30 564 H 53.4055 -0.634235 -3.82883 0
M  V30 565 H 51.5065 1.76945 -3.27904 0
M  V30 566 H 51.6195 0.596572 -4.75371 0
M  V30 567 H 49.9835 0.412931 -2.5133 0
M  V30 568 H 50.7665 -1.08368 -3.25747 0
M  V30 569 N 53.2116 1.57565 -0.0334293 0
M  V30 570 C 54.4576 1.92262 0.645226 0
M  V30 571 C 54.7906 0.910543 1.71531 0
M  V30 572 O 54.0656 -0.066099 1.94388 0
M  V30 573 C 54.3486 3.37422 1.2577 0
M  V30 574 C 54.2016 4.49369 0.196891 0
M  V30 575 C 55.5206 3.82628 2.17449 0
M  V30 576 H 52.6396 0.699171 0.233085 0
M  V30 577 H 55.2816 1.89779 -0.0915694 0
M  V30 578 H 53.4316 3.39669 1.88566 0
M  V30 579 H 55.1036 4.59254 -0.433962 0
M  V30 580 H 53.3466 4.31168 -0.477137 0
M  V30 581 H 54.0176 5.47978 0.665124 0
M  V30 582 H 56.4936 3.82145 1.64634 0
M  V30 583 H 55.3696 4.84883 2.57254 0
M  V30 584 H 55.6306 3.18376 3.0674 0
M  V30 585 N 54.6897 -0.239769 1.55765 0
M  V30 586 C 55.5997 -1.31831 1.94056 0
M  V30 587 C 56.6157 -1.52275 0.841925 0
M  V30 588 O 57.7917 -1.65759 1.14394 0
M  V30 589 C 54.8567 -2.65156 2.23368 0
M  V30 590 C 53.9177 -2.53173 3.46701 0
M  V30 591 C 53.1507 -3.8014 3.74606 0
M  V30 592 O 53.3737 -4.82343 3.04469 0
M  V30 593 O 52.3077 -3.78344 4.68123 0
M  V30 594 H 56.1337 -1.02347 2.85935 0
M  V30 595 H 53.7187 -0.441123 1.42739 0
M  V30 596 H 55.6007 -3.43929 2.43497 0
M  V30 597 H 54.2757 -2.94358 1.34666 0
M  V30 598 H 53.1827 -1.72662 3.31871 0
M  V30 599 H 54.5157 -2.28915 4.35728 0
M  V30 600 N 56.1678 -1.49265 -0.50573 0
M  V30 601 C 57.3928 -1.62478 -1.28902 0
M  V30 602 C 57.8178 -0.294332 -1.85783 0
M  V30 603 O 57.1758 0.737412 -1.65626 0
M  V30 604 C 57.2238 -2.69268 -2.39848 0
M  V30 605 O 56.3278 -2.28113 -3.43567 0
M  V30 606 H 55.6688 -0.54399 -0.380751 0
M  V30 607 H 58.1988 -1.95421 -0.605952 0
M  V30 608 H 58.2088 -2.91291 -2.85681 0
M  V30 609 H 56.8838 -3.65846 -1.97812 0
M  V30 610 H 55.4608 -2.16401 -3.03685 0
M  V30 611 N 57.6459 0.756429 -1.3826 0
M  V30 612 C 58.8919 1.51772 -1.34511 0
M  V30 613 C 59.2249 1.94089 0.0656691 0
M  V30 614 O 58.4999 1.65221 1.02626 0
M  V30 615 C 58.7829 2.77226 -2.29821 0
M  V30 616 C 58.6359 2.41065 -3.79747 0
M  V30 617 C 59.9549 3.79236 -2.23312 0
M  V30 618 H 57.0739 0.550578 -0.489931 0
M  V30 619 H 59.7159 0.866607 -1.69086 0
M  V30 620 H 57.8659 3.32784 -2.00467 0
M  V30 621 H 59.5379 1.91303 -4.19763 0
M  V30 622 H 57.7809 1.7356 -3.97567 0
M  V30 623 H 58.4519 3.3081 -4.41892 0
M  V30 624 H 60.9279 3.3321 -2.49219 0
M  V30 625 H 59.8039 4.64714 -2.92116 0
M  V30 626 H 60.0649 4.24615 -1.23102 0
M  V30 627 N 59.124 1.23083 0.984299 0
M  V30 628 C 60.54 0.992637 1.24975 0
M  V30 629 C 60.74 -0.308618 1.99123 0
M  V30 630 O 59.796 -1.02905 2.30579 0
M  V30 631 C 61.109 2.19698 2.05312 0
M  V30 632 C 62.657 2.24147 2.18465 0
M  V30 633 C 63.132 3.44157 3.02192 0
M  V30 634 N 64.623 3.44372 3.09777 0
M  V30 635 C 65.358 4.33886 3.74874 0
M  V30 636 N 64.854 5.3363 4.41827 0
M  V30 637 N 66.647 4.21639 3.71721 0
M  V30 638 H 58.798 2.06731 0.487453 0
M  V30 639 H 61.061 0.906339 0.277944 0
M  V30 640 H 60.767 3.1411 1.58201 0
M  V30 641 H 60.641 2.20465 3.06064 0
M  V30 642 H 63.028 1.30277 2.64786 0
M  V30 643 H 63.109 2.27415 1.17115 0
M  V30 644 H 62.753 4.38332 2.56568 0
M  V30 645 H 62.683 3.3813 4.03702 0
M  V30 646 H 65.174 2.72201 2.62135 0
M  V30 647 H 65.487 5.98196 4.89266 0
M  V30 648 H 63.832 5.37534 4.40548 0
M  V30 649 H 67.023 3.42962 3.18582 0
M  V30 650 H 67.196 4.91604 4.22173 0
M  V30 651 N 60.6021 -1.18246 1.0419 0
M  V30 652 C 62.0181 -1.40269 0.761366 0
M  V30 653 C 62.2181 -1.90777 -0.648578 0
M  V30 654 O 61.2741 -2.0929 -1.41258 0
M  V30 655 C 62.5871 -2.40237 1.8085 0
M  V30 656 C 64.1351 -2.53961 1.82955 0
M  V30 657 C 64.6101 -3.57194 2.86664 0
M  V30 658 N 66.1011 -3.64702 2.85563 0
M  V30 659 C 66.8361 -4.44309 3.6246 0
M  V30 660 N 66.3321 -5.27514 4.49111 0
M  V30 661 N 68.1251 -4.39084 3.50944 0
M  V30 662 H 60.2761 -0.837882 1.95175 0
M  V30 663 H 62.5391 -0.430608 0.84456 0
M  V30 664 H 62.2451 -2.10176 2.81991 0
M  V30 665 H 62.1191 -3.39601 1.64168 0
M  V30 666 H 64.5061 -2.83338 0.824855 0
M  V30 667 H 64.5871 -1.54706 2.03715 0
M  V30 668 H 64.2311 -3.28558 3.87314 0
M  V30 669 H 64.1611 -4.5613 2.6316 0
M  V30 670 H 66.6521 -3.05289 2.22727 0
M  V30 671 H 66.9651 -5.85411 5.04493 0
M  V30 672 H 65.3101 -5.2693 4.53178 0
M  V30 673 H 68.5011 -3.7313 2.82651 0
M  V30 674 H 68.6741 -5.00883 4.11121 0
M  V30 675 N 62.0802 -0.821533 -1.34494 0
M  V30 676 C 63.0102 -0.257138 -2.3208 0
M  V30 677 C 63.9912 0.625645 -1.58176 0
M  V30 678 O 65.1762 0.552811 -1.86166 0
M  V30 679 C 62.3062 0.582958 -3.42372 0
M  V30 680 C 61.2602 -0.202571 -4.2752 0
M  V30 681 C 60.5862 0.760179 -5.29269 0
M  V30 682 C 61.8862 -1.40998 -5.02908 0
M  V30 683 H 63.5802 -1.07247 -2.79532 0
M  V30 684 H 61.1262 -0.517163 -1.34393 0
M  V30 685 H 63.0792 0.987972 -4.09655 0
M  V30 686 H 61.8032 1.43133 -2.93565 0
M  V30 687 H 60.4622 -0.588936 -3.61838 0
M  V30 688 H 60.1102 1.60447 -4.76724 0
M  V30 689 H 59.8102 0.238809 -5.87115 0
M  V30 690 H 61.3342 1.16308 -5.9942 0
M  V30 691 H 62.7482 -1.07905 -5.63054 0
M  V30 692 H 61.1452 -1.86689 -5.70322 0
M  V30 693 H 62.2152 -2.1889 -4.32684 0
M  V30 694 N 63.5583 1.46682 -0.576371 0
M  V30 695 C 64.5213 2.28707 0.150239 0
M  V30 696 C 65.5213 1.38035 0.824794 0
M  V30 697 O 66.7113 1.60476 0.677719 0
M  V30 698 C 63.8433 3.18248 1.22192 0
M  V30 699 H 65.0363 2.94423 -0.570521 0
M  V30 700 H 62.5893 1.52688 -0.334078 0
M  V30 701 H 63.3243 2.57265 1.97447 0
M  V30 702 H 63.1093 3.85 0.742812 0
M  V30 703 H 64.5993 3.80001 1.73172 0
M  V30 704 N 65.0364 0.313813 1.54444 0
M  V30 705 C 65.9464 -0.565714 2.27677 0
M  V30 706 C 66.9624 -1.13754 1.31666 0
M  V30 707 O 68.1384 -1.15959 1.64668 0
M  V30 708 C 65.2034 -1.71528 3.01296 0
M  V30 709 C 64.2644 -1.17624 4.12872 0
M  V30 710 C 63.4974 -2.27102 4.8297 0
M  V30 711 O 63.7204 -3.47256 4.52514 0
M  V30 712 O 62.6544 -1.9307 5.70094 0
M  V30 713 H 66.4804 0.0287296 3.03686 0
M  V30 714 H 64.0654 0.0798312 1.49187 0
M  V30 715 H 65.9474 -2.38476 3.4743 0
M  V30 716 H 64.6224 -2.29608 2.2817 0
M  V30 717 H 63.5294 -0.472124 3.71109 0
M  V30 718 H 64.8624 -0.640695 4.88012 0
M  V30 719 N 66.5145 -1.57545 0.0417849 0
M  V30 720 C 67.4445 -2.14009 -0.933929 0
M  V30 721 C 68.4255 -1.05938 -1.33083 0
M  V30 722 O 69.6105 -1.33833 -1.40721 0
M  V30 723 C 66.7405 -2.67747 -2.21199 0
M  V30 724 C 65.6945 -3.80718 -1.95544 0
M  V30 725 C 65.0205 -4.20935 -3.29724 0
M  V30 726 C 66.3205 -5.06258 -1.28452 0
M  V30 727 H 68.0145 -2.95788 -0.463645 0
M  V30 728 H 65.5605 -1.42285 -0.221573 0
M  V30 729 H 67.5135 -3.05886 -2.89848 0
M  V30 730 H 66.2375 -1.83147 -2.70416 0
M  V30 731 H 64.8965 -3.43037 -1.2931 0
M  V30 732 H 64.5445 -3.33298 -3.76724 0
M  V30 733 H 64.2445 -4.9707 -3.13361 0
M  V30 734 H 65.7685 -4.61666 -3.9962 0
M  V30 735 H 67.1825 -5.41903 -1.8712 0
M  V30 736 H 65.5795 -5.87475 -1.22445 0
M  V30 737 H 66.6495 -4.84207 -0.259219 0
M  V30 738 N 67.9926 0.231505 -1.5589 0
M  V30 739 C 69.2406 0.955461 -1.78088 0
M  V30 740 C 69.5616 1.85262 -0.608533 0
M  V30 741 O 68.8316 1.92277 0.375035 0
M  V30 742 H 67.4116 0.355787 -0.656829 0
M  V30 743 H 70.0736 0.245751 -1.93344 0
M  V30 744 H 69.1696 1.56814 -2.69844 0
M  V30 745 N 69.4707 1.49531 0.497807 0
M  V30 746 C 70.4337 1.65916 1.58128 0
M  V30 747 C 71.4337 0.530825 1.51786 0
M  V30 748 O 72.6237 0.797342 1.54881 0
M  V30 749 C 69.7557 1.65951 2.9778 0
M  V30 750 H 70.9487 2.62556 1.44929 0
M  V30 751 H 68.5017 1.38611 0.722275 0
M  V30 752 H 69.2367 0.709065 3.16453 0
M  V30 753 H 69.0217 2.47897 3.03792 0
M  V30 754 H 70.5117 1.80673 3.76493 0
M  V30 755 N 70.9488 -0.749086 1.3866 0
M  V30 756 C 71.8988 -1.85368 1.32751 0
M  V30 757 C 72.8828 -1.59511 0.210945 0
M  V30 758 O 74.0748 -1.71255 0.447299 0
M  V30 759 C 71.2038 -3.23131 1.15935 0
M  V30 760 C 70.2898 -3.54864 2.32233 0
M  V30 761 N 70.6808 -3.57625 3.57684 0
M  V30 762 C 68.9788 -3.85154 2.24883 0
M  V30 763 C 69.6798 -3.86753 4.34508 0
M  V30 764 N 68.6558 -4.03812 3.63918 0
M  V30 765 H 72.4578 -1.85787 2.27729 0
M  V30 766 H 69.9718 -0.946658 1.31955 0
M  V30 767 H 71.9688 -4.02185 1.09786 0
M  V30 768 H 70.6288 -3.23961 0.218947 0
M  V30 769 H 71.6398 -3.39276 3.91295 0
M  V30 770 H 68.3168 -3.93672 1.39027 0
M  V30 771 H 69.7068 -3.95474 5.43185 0
M  V30 772 N 72.4269 -1.23603 -0.977757 0
M  V30 773 C 73.6749 -1.06759 -1.71601 0
M  V30 774 C 73.9959 0.395929 -1.90938 0
M  V30 775 O 73.2659 1.28356 -1.47992 0
M  V30 776 H 71.8459 -0.392062 -0.635843 0
M  V30 777 H 74.5079 -1.55362 -1.1768 0
M  V30 778 H 73.6039 -1.55763 -2.70452 0
M  V30 779 N 73.905 1.17692 -1.04816 0
M  V30 780 C 75.151 1.88137 -0.75711 0
M  V30 781 C 75.484 1.80604 0.713841 0
M  V30 782 O 74.759 1.21146 1.52164 0
M  V30 783 C 75.042 3.38318 -1.2334 0
M  V30 784 C 74.895 3.54622 -2.76701 0
M  V30 785 C 76.214 4.32214 -0.829415 0
M  V30 786 H 73.333 0.683163 -0.27651 0
M  V30 787 H 75.975 1.38424 -1.30149 0
M  V30 788 H 74.125 3.80787 -0.770286 0
M  V30 789 H 75.797 3.21194 -3.31107 0
M  V30 790 H 74.04 2.97026 -3.16161 0
M  V30 791 H 74.711 4.60028 -3.05088 0
M  V30 792 H 77.187 3.97565 -1.22805 0
M  V30 793 H 76.063 5.35838 -1.19033 0
M  V30 794 H 76.324 4.41294 0.266891 0
M  V30 795 N 75.3831 0.828654 1.34056 0
M  V30 796 C 76.6111 0.43262 2.02326 0
M  V30 797 C 77.0261 -0.963147 1.62385 0
M  V30 798 O 76.3831 -1.62425 0.832121 0
M  V30 799 C 76.4341 0.53182 3.57567 0
M  V30 800 O 76.1551 1.87258 3.96063 0
M  V30 801 C 77.6561 0.131422 4.43105 0
M  V30 802 H 74.8761 0.172923 0.648335 0
M  V30 803 H 77.4201 1.1184 1.71208 0
M  V30 804 H 75.5751 -0.105938 3.87255 0
M  V30 805 H 75.9891 1.85087 4.90758 0
M  V30 806 H 77.4631 0.251904 5.51425 0
M  V30 807 H 77.9401 -0.925645 4.29335 0
M  V30 808 H 78.5461 0.743207 4.18756 0
M  V30 809 N 76.8612 -1.46375 0.584142 0
M  V30 810 C 78.1082 -2.02378 0.0702675 0
M  V30 811 C 78.4362 -1.45545 -1.29023 0
M  V30 812 O 77.6912 -0.610967 -1.85918 0
M  V30 813 C 77.9902 -3.57373 -0.0439342 0
M  V30 814 C 77.6562 -4.33252 1.24915 0
M  V30 815 C 76.3182 -4.53701 1.60341 0
M  V30 816 C 78.6702 -4.7681 2.1048 0
M  V30 817 C 75.9982 -5.1496 2.81128 0
M  V30 818 C 78.3502 -5.39404 3.30494 0
M  V30 819 C 77.0142 -5.5808 3.66201 0
M  V30 820 H 76.2842 -0.740554 0.0257127 0
M  V30 821 H 78.9312 -1.75727 0.761065 0
M  V30 822 H 77.2362 -3.83169 -0.817869 0
M  V30 823 H 78.9332 -3.98384 -0.457318 0
M  V30 824 H 75.5232 -4.17633 0.963364 0
M  V30 825 H 79.7072 -4.60766 1.84414 0
M  V30 826 H 74.9632 -5.27611 3.08928 0
M  V30 827 H 79.1372 -5.72114 3.97063 0
M  V30 828 H 76.7642 -6.05318 4.59885 0
M  V30 829 N 78.3393 -0.321999 -1.54275 0
M  V30 830 C 79.2893 0.560185 -2.21011 0
M  V30 831 C 80.2733 1.08283 -1.19011 0
M  V30 832 O 81.4653 1.02011 -1.44647 0
M  V30 833 C 78.5943 1.72137 -2.97025 0
M  V30 834 C 77.6803 1.21369 -4.06363 0
M  V30 835 N 78.0713 0.425566 -5.04007 0
M  V30 836 C 76.3693 1.49255 -4.20284 0
M  V30 837 C 77.0703 0.152601 -5.815 0
M  V30 838 N 76.0463 0.738294 -5.38563 0
M  V30 839 H 79.8483 -0.049265 -2.93859 0
M  V30 840 H 77.3623 -0.127779 -1.61897 0
M  V30 841 H 79.3593 2.36512 -3.43319 0
M  V30 842 H 78.0193 2.33431 -2.25699 0
M  V30 843 H 79.0303 0.068551 -5.17855 0
M  V30 844 H 75.7073 2.11145 -3.60172 0
M  V30 845 H 77.0973 -0.481764 -6.70171 0
M  V30 846 N 79.8174 1.5752 -0.0501392 0
M  V30 847 C 81.0944 1.83996 0.663685 0
M  V30 848 C 81.4744 0.938339 1.89099 0
M  V30 849 O 80.8224 -0.00087759 2.285 0
M  V30 850 C 81.0324 3.33702 1.02196 0
M  V30 851 C 82.3804 4.00691 1.40469 0
M  V30 852 O 83.4044 3.38321 1.11433 0
M  V30 853 O 82.2634 5.10658 1.94654 0
M  V30 854 H 79.3574 0.759385 0.32751 0
M  V30 855 H 81.9034 1.69514 -0.0794238 0
M  V30 856 H 80.6754 3.91015 0.149364 0
M  V30 857 H 80.2984 3.53368 1.82255 0
M  V30 858 N 81.2955 -0.223234 1.56011 0
M  V30 859 C 82.5725 -0.972108 1.69733 0
M  V30 860 C 82.9525 -2.02485 0.59691 0
M  V30 861 O 82.3005 -2.25037 -0.396324 0
M  V30 862 C 82.5105 -1.58407 3.10979 0
M  V30 863 C 83.8585 -2.07696 3.70334 0
M  V30 864 O 84.8825 -1.68304 3.1393 0
M  V30 865 O 83.7415 -2.80096 4.69264 0
M  V30 866 H 80.8355 -0.453993 0.691245 0
M  V30 867 H 83.3815 -0.215149 1.68331 0
M  V30 868 H 82.1535 -0.823831 3.82529 0
M  V30 869 H 81.7765 -2.40661 3.16493 0
M  V30 870 N 82.7736 -1.49793 -0.48987 0
M  V30 871 C 84.0506 -1.50348 -1.25119 0
M  V30 872 C 84.4306 -0.237466 -2.0976 0
M  V30 873 O 83.7786 0.77981 -2.14782 0
M  V30 874 C 83.9886 -2.78872 -2.09837 0
M  V30 875 C 85.3366 -3.288 -2.68655 0
M  V30 876 O 86.3606 -2.80065 -2.20096 0
M  V30 877 O 85.2196 -4.13707 -3.57083 0
M  V30 878 H 82.3136 -0.602242 -0.566775 0
M  V30 879 H 84.8596 -1.62067 -0.503229 0
M  V30 880 H 83.6316 -3.62499 -1.47343 0
M  V30 881 H 83.2546 -2.70066 -2.91805 0
M  V30 882 N 84.2517 0.741722 -1.39055 0
M  V30 883 C 85.1817 1.869 -1.39966 0
M  V30 884 C 86.1627 1.6804 -0.26392 0
M  V30 885 O 87.3477 1.88458 -0.468755 0
M  V30 886 C 84.4777 3.24572 -1.23574 0
M  V30 887 C 83.4317 3.58056 -2.34477 0
M  V30 888 C 82.7577 4.94593 -2.0318 0
M  V30 889 C 84.0577 3.61716 -3.76774 0
M  V30 890 H 85.7517 1.86395 -2.34302 0
M  V30 891 H 83.2977 0.895361 -1.1278 0
M  V30 892 H 85.2507 4.031 -1.22834 0
M  V30 893 H 83.9747 3.25587 -0.257045 0
M  V30 894 H 82.6337 2.81854 -2.34423 0
M  V30 895 H 82.2817 4.92181 -1.03765 0
M  V30 896 H 81.9817 5.17964 -2.77465 0
M  V30 897 H 83.5057 5.75486 -2.04079 0
M  V30 898 H 84.9197 4.30335 -3.78794 0
M  V30 899 H 83.3167 3.96603 -4.50362 0
M  V30 900 H 84.3867 2.61672 -4.08235 0
M  V30 901 N 85.7298 1.2412 0.971189 0
M  V30 902 C 86.9788 1.07284 1.70801 0
M  V30 903 C 87.2918 -0.388902 1.91695 0
M  V30 904 O 88.4978 -0.677379 2.62914 0
M  V30 905 C 86.9538 1.87145 3.07416 0
M  V30 906 C 86.5618 3.37707 2.94377 0
M  V30 907 C 88.3058 1.78828 3.84995 0
M  V30 908 C 86.2128 4.09925 4.26281 0
M  V30 909 H 85.1428 0.397854 0.64049 0
M  V30 910 H 87.7938 1.4817 1.0825 0
M  V30 911 H 86.1758 1.39071 3.70777 0
M  V30 912 H 87.3498 3.93335 2.4005 0
M  V30 913 H 85.6648 3.46938 2.30267 0
M  V30 914 H 88.2618 2.30089 4.82662 0
M  V30 915 H 88.6048 0.75284 4.09436 0
M  V30 916 H 89.1378 2.24563 3.28354 0
M  V30 917 H 85.8768 5.13813 4.07033 0
M  V30 918 H 85.3968 3.59083 4.80437 0
M  V30 919 H 87.0758 4.1673 4.94919 0
M  V30 920 N 87.2079 -1.17134 1.05439 0
M  V30 921 C 88.6189 -1.69084 0.791676 0
M  V30 922 C 88.9699 -1.83822 -0.685839 0
M  V30 923 O 88.0949 -1.52757 -1.53278 0
M  V30 924 C 88.6899 -3.07119 1.4305 0
M  V30 925 C 87.2489 -3.56225 1.21577 0
M  V30 926 C 86.3959 -2.32421 1.51247 0
M  V30 927 H 89.3469 -1.01617 1.219 0
M  V30 928 H 89.3679 -3.71087 0.84112 0
M  V30 929 H 88.8799 -2.9636 2.50584 0
M  V30 930 H 86.9809 -3.72257 0.159787 0
M  V30 931 H 87.0939 -4.38837 1.92246 0
M  V30 932 H 85.4579 -2.3701 0.932653 0
M  V30 933 H 86.2409 -2.24268 2.5992 0
M  V30 934 N 88.686 -0.835752 -1.33615 0
M  V30 935 C 89.933 -0.429959 -1.97883 0
M  V30 936 C 90.261 1.01006 -1.66217 0
M  V30 937 O 89.516 1.72047 -0.93265 0
M  V30 938 C 89.815 -0.593925 -3.52431 0
M  V30 939 C 89.481 -2.00158 -4.04039 0
M  V30 940 C 88.143 -2.38662 -4.17844 0
M  V30 941 C 90.495 -2.92117 -4.31644 0
M  V30 942 C 87.823 -3.68435 -4.56588 0
M  V30 943 C 90.175 -4.21368 -4.71838 0
M  V30 944 C 88.839 -4.59833 -4.83849 0
M  V30 945 H 88.109 -0.157333 -0.724104 0
M  V30 946 H 90.756 -1.06217 -1.59343 0
M  V30 947 H 89.061 0.121619 -3.91611 0
M  V30 948 H 90.758 -0.260282 -4.00154 0
M  V30 949 H 87.348 -1.69252 -3.93766 0
M  V30 950 H 91.532 -2.63608 -4.20505 0
M  V30 951 H 86.788 -3.98046 -4.64079 0
M  V30 952 H 90.962 -4.92703 -4.92155 0
M  V30 953 H 88.589 -5.60438 -5.13627 0
M  V30 954 N 90.1641 1.46063 -0.591896 0
M  V30 955 C 91.4121 2.01938 -0.0808391 0
M  V30 956 C 91.7331 1.46475 1.28725 0
M  V30 957 O 91.0031 0.652944 1.84698 0
M  V30 958 H 89.5831 0.746516 -0.0268938 0
M  V30 959 H 92.2451 1.79055 -0.769752 0
M  V30 960 H 91.3411 3.12094 -0.0187578 0
M  V30 961 N 91.6422 0.330177 1.54103 0
M  V30 962 C 92.8672 -0.274893 2.0557 0
M  V30 963 C 93.2922 -1.44487 1.20437 0
M  V30 964 O 92.6502 -1.80021 0.214991 0
M  V30 965 C 92.6982 -0.68079 3.54115 0
M  V30 966 O 91.8022 -1.7824 3.71893 0
M  V30 967 H 91.1432 -0.0483849 0.662235 0
M  V30 968 H 93.6732 0.480508 1.98878 0
M  V30 969 H 93.6832 -0.961635 3.96505 0
M  V30 970 H 92.3582 0.174903 4.15532 0
M  V30 971 H 90.9352 -1.49985 3.41407 0
M  V30 972 N 93.1203 -1.57491 0.0584922 0
M  V30 973 C 94.3453 -1.97711 -0.62652 0
M  V30 974 C 94.7703 -0.936132 -1.63151 0
M  V30 975 O 94.1283 0.099811 -1.81025 0
M  V30 976 C 94.1763 -3.36989 -1.28338 0
M  V30 977 O 93.2803 -3.35433 -2.39913 0
M  V30 978 H 92.6213 -0.643868 -0.162266 0
M  V30 979 H 95.1513 -2.04193 0.129064 0
M  V30 980 H 95.1613 -3.73879 -1.63335 0
M  V30 981 H 93.8363 -4.12289 -0.546889 0
M  V30 982 H 92.4133 -3.10298 -2.06809 0
M  V30 983 N 94.5984 0.214957 -1.56127 0
M  V30 984 C 95.8754 0.963093 -1.70247 0
M  V30 985 C 96.2554 2.02166 -0.60764 0
M  V30 986 O 95.6034 2.25244 0.384385 0
M  V30 987 C 95.8134 1.56756 -3.11815 0
M  V30 988 C 97.1614 2.0573 -3.7143 0
M  V30 989 O 98.1854 1.66637 -3.14818 0
M  V30 990 O 97.0444 2.77603 -4.70743 0
M  V30 991 H 94.1384 0.450321 -0.693643 0
M  V30 992 H 96.6844 0.206219 -1.68442 0
M  V30 993 H 95.4564 0.803533 -3.82961 0
M  V30 994 H 95.0794 2.3898 -3.17765 0
M  V30 995 N 96.0765 1.50051 0.48192 0
M  V30 996 C 97.3015 1.64508 1.26301 0
M  V30 997 C 97.7265 0.323851 1.85291 0
M  V30 998 O 97.0845 -0.710969 1.66778 0
M  V30 999 C 97.1325 2.7305 2.35533 0
M  V30 1000 O 96.2365 2.3355 3.39895 0
M  V30 1001 H 95.5775 0.549978 0.372048 0
M  V30 1002 H 98.1075 1.9636 0.574786 0
M  V30 1003 H 98.1175 2.95799 2.8101 0
M  V30 1004 H 96.7925 3.68946 1.91967 0
M  V30 1005 H 95.3695 2.21205 3.00204 0
M  V30 1006 N 97.5546 -0.734337 1.39446 0
M  V30 1007 C 98.4646 -1.87879 1.40495 0
M  V30 1008 C 99.4806 -1.714 0.299672 0
M  V30 1009 O 100.657 -1.93991 0.541249 0
M  V30 1010 C 97.7216 -3.23477 1.24754 0
M  V30 1011 C 96.7826 -3.52344 2.45259 0
M  V30 1012 C 96.0156 -4.81473 2.30259 0
M  V30 1013 O 96.2386 -5.55237 1.30643 0
M  V30 1014 O 95.1726 -5.10254 3.19256 0
M  V30 1015 H 98.9986 -1.89949 2.36966 0
M  V30 1016 H 96.5836 -0.882243 1.20569 0
M  V30 1017 H 98.4656 -4.04509 1.18111 0
M  V30 1018 H 97.1406 -3.22176 0.313781 0
M  V30 1019 H 96.0476 -2.71396 2.57478 0
M  V30 1020 H 97.3806 -3.58426 3.37331 0
M  V30 1021 N 99.0327 -1.24633 -0.964593 0
M  V30 1022 C 100.449 -1.01239 -1.2338 0
M  V30 1023 C 100.649 0.2769 -1.99588 0
M  V30 1024 O 99.7047 0.992241 -2.32187 0
M  V30 1025 C 101.018 -2.22937 -2.01791 0
M  V30 1026 C 102.566 -2.27594 -2.14872 0
M  V30 1027 C 103.041 -3.48921 -2.96678 0
M  V30 1028 N 104.532 -3.49257 -3.04259 0
M  V30 1029 C 105.267 -4.39795 -3.67924 0
M  V30 1030 N 104.763 -5.40591 -4.33281 0
M  V30 1031 N 106.556 -4.275 -3.64966 0
M  V30 1032 H 98.7067 -2.0748 -0.454502 0
M  V30 1033 H 100.97 -0.910647 -0.26349 0
M  V30 1034 H 100.676 -3.16587 -1.53184 0
M  V30 1035 H 100.55 -2.25306 -3.02518 0
M  V30 1036 H 102.937 -1.34473 -2.6268 0
M  V30 1037 H 103.018 -2.2925 -1.13482 0
M  V30 1038 H 102.662 -4.42359 -2.49562 0
M  V30 1039 H 102.592 -3.4451 -3.98272 0
M  V30 1040 H 105.083 -2.76337 -2.57771 0
M  V30 1041 H 105.396 -6.05904 -4.79687 0
M  V30 1042 H 103.741 -5.44475 -4.3194 0
M  V30 1043 H 106.932 -3.47987 -3.13086 0
M  V30 1044 H 107.105 -4.98258 -4.14298 0
M  V30 1045 N 100.511 1.16574 -1.06058 0
M  V30 1046 C 101.421 2.2452 -0.680282 0
M  V30 1047 C 102.437 1.71348 0.302604 0
M  V30 1048 O 103.613 2.00822 0.152513 0
M  V30 1049 C 100.678 3.46629 -0.0700315 0
M  V30 1050 C 99.7388 4.14849 -1.10448 0
M  V30 1051 C 98.9718 5.31129 -0.523256 0
M  V30 1052 O 99.1948 5.66514 0.664709 0
M  V30 1053 O 98.1288 5.88526 -1.26179 0
M  V30 1054 H 101.955 2.59355 -1.58015 0
M  V30 1055 H 99.5398 1.24043 -0.832694 0
M  V30 1056 H 101.422 4.20543 0.268667 0
M  V30 1057 H 100.097 3.13573 0.803353 0
M  V30 1058 H 99.0038 3.42916 -1.49532 0
M  V30 1059 H 100.337 4.51954 -1.94931 0
M  V30 1060 N 101.989 0.842826 1.3317 0
M  V30 1061 C 102.899 0.281444 2.32906 0
M  V30 1062 C 103.915 -0.594587 1.63526 0
M  V30 1063 O 105.091 -0.49777 1.95152 0
M  V30 1064 C 102.156 -0.530929 3.42611 0
M  V30 1065 C 101.217 0.369843 4.27704 0
M  V30 1066 C 100.45 -0.403853 5.3217 0
M  V30 1067 O 100.673 -1.63513 5.46461 0
M  V30 1068 O 99.6069 0.224199 6.01482 0
M  V30 1069 H 103.433 1.10744 2.82789 0
M  V30 1070 H 101.018 0.60545 1.36582 0
M  V30 1071 H 102.9 -0.992437 4.09547 0
M  V30 1072 H 101.575 -1.33392 2.94938 0
M  V30 1073 H 100.482 0.879275 3.6362 0
M  V30 1074 H 101.815 1.13771 4.78871 0
M  V30 1075 N 103.467 -1.45747 0.599634 0
M  V30 1076 C 104.417 -2.27538 -0.145107 0
M  V30 1077 C 105.401 -1.3686 -0.846055 0
M  V30 1078 O 106.593 -1.6091 -0.737357 0
M  V30 1079 C 103.722 -3.23569 -1.14708 0
M  V30 1080 C 102.808 -4.21734 -0.447383 0
M  V30 1081 N 103.199 -5.03257 0.506535 0
M  V30 1082 C 101.497 -4.40536 -0.695966 0
M  V30 1083 C 102.198 -5.74426 0.917068 0
M  V30 1084 N 101.174 -5.42966 0.26253 0
M  V30 1085 H 104.976 -2.87965 0.587672 0
M  V30 1086 H 102.49 -1.56803 0.422697 0
M  V30 1087 H 104.487 -3.8089 -1.69495 0
M  V30 1088 H 103.147 -2.64702 -1.8805 0
M  V30 1089 H 104.158 -5.10319 0.882899 0
M  V30 1090 H 100.835 -3.92802 -1.41467 0
M  V30 1091 H 102.225 -6.4995 1.70338 0
M  V30 1092 N 104.945 -0.338344 -1.53925 0
M  V30 1093 C 106.191 0.260143 -2.01125 0
M  V30 1094 C 106.524 1.50617 -1.22589 0
M  V30 1095 O 105.799 1.91979 -0.312113 0
M  V30 1096 C 106.082 0.579499 -3.55407 0
M  V30 1097 C 105.935 -0.678264 -4.44657 0
M  V30 1098 C 107.254 1.39122 -4.17532 0
M  V30 1099 H 104.373 0.0930772 -0.731099 0
M  V30 1100 H 107.015 -0.457852 -1.84401 0
M  V30 1101 H 105.165 1.19118 -3.69788 0
M  V30 1102 H 106.837 -1.31631 -4.42121 0
M  V30 1103 H 105.08 -1.3042 -4.13731 0
M  V30 1104 H 105.751 -0.410143 -5.50474 0
M  V30 1105 H 108.227 0.874035 -4.06817 0
M  V30 1106 H 107.103 1.58342 -5.25565 0
M  V30 1107 H 107.364 2.39178 -3.71815 0
M  V30 1108 N 106.423 1.57458 -0.0668435 0
M  V30 1109 C 107.37 2.12439 0.902122 0
M  V30 1110 C 108.34 1.03565 1.2986 0
M  V30 1111 O 109.525 1.312 1.38532 0
M  V30 1112 C 106.665 2.6865 2.16614 0
M  V30 1113 C 105.778 3.91663 1.82274 0
M  V30 1114 C 104.913 4.36134 3.0325 0
M  V30 1115 C 103.952 5.51808 2.64904 0
M  V30 1116 N 103.089 5.9126 3.78624 0
M  V30 1117 H 107.929 2.94934 0.426382 0
M  V30 1118 H 105.466 1.4575 0.198819 0
M  V30 1119 H 107.424 2.99346 2.90599 0
M  V30 1120 H 106.054 1.88928 2.61737 0
M  V30 1121 H 105.106 3.6746 0.983719 0
M  V30 1122 H 106.418 4.75693 1.50059 0
M  V30 1123 H 105.572 4.68465 3.85519 0
M  V30 1124 H 104.311 3.50948 3.38655 0
M  V30 1125 H 103.316 5.19133 1.81055 0
M  V30 1126 H 104.541 6.38722 2.30675 0
M  V30 1127 H 102.487 5.09024 4.138 0
M  V30 1128 H 102.404 6.70018 3.5016 0
M  V30 1129 H 103.672 6.28212 4.61486 0
M  V30 1130 N 107.901 -0.206675 1.56239 0
M  V30 1131 C 109.317 -0.557025 1.49564 0
M  V30 1132 C 109.517 -1.86424 0.764735 0
M  V30 1133 O 108.573 -2.50584 0.310491 0
M  V30 1134 C 109.886 -0.622478 2.94186 0
M  V30 1135 C 111.434 -0.712099 3.04792 0
M  V30 1136 C 111.909 -0.808767 4.50803 0
M  V30 1137 N 113.4 -0.8726 4.54907 0
M  V30 1138 C 114.135 -0.967365 5.65181 0
M  V30 1139 N 113.631 -1.02515 6.85173 0
M  V30 1140 N 115.424 -1.00366 5.53067 0
M  V30 1141 H 107.575 0.650943 2.02179 0
M  V30 1142 H 109.838 0.230387 0.919579 0
M  V30 1143 H 109.544 0.268727 3.50672 0
M  V30 1144 H 109.418 -1.4811 3.46905 0
M  V30 1145 H 111.805 -1.59374 2.48363 0
M  V30 1146 H 111.886 0.172489 2.55218 0
M  V30 1147 H 111.53 0.0684754 5.07854 0
M  V30 1148 H 111.46 -1.70899 4.98098 0
M  V30 1149 H 113.951 -0.837657 3.68499 0
M  V30 1150 H 114.264 -1.09765 7.64965 0
M  V30 1151 H 112.609 -0.994026 6.87855 0
M  V30 1152 H 115.8 -0.95527 4.58249 0
M  V30 1153 H 115.973 -1.07405 6.39037 0
M  V30 1154 N 109.379 -1.50304 -0.473955 0
M  V30 1155 C 110.626 -1.6115 -1.22625 0
M  V30 1156 C 110.954 -0.310517 -1.92005 0
M  V30 1157 O 110.209 0.703419 -1.82621 0
M  V30 1158 C 110.508 -2.73938 -2.29549 0
M  V30 1159 C 110.174 -4.14519 -1.7744 0
M  V30 1160 C 108.836 -4.5277 -1.62949 0
M  V30 1161 C 111.188 -5.02392 -1.3875 0
M  V30 1162 C 108.516 -5.76639 -1.08187 0
M  V30 1163 C 110.868 -6.26805 -0.854309 0
M  V30 1164 C 109.532 -6.63861 -0.696011 0
M  V30 1165 H 108.802 -0.589691 -0.448715 0
M  V30 1166 H 111.449 -1.84228 -0.522705 0
M  V30 1167 H 109.754 -2.44937 -3.05799 0
M  V30 1168 H 111.451 -2.79534 -2.87509 0
M  V30 1169 H 108.041 -3.8434 -1.89685 0
M  V30 1170 H 112.225 -4.73474 -1.4878 0
M  V30 1171 H 107.481 -6.04027 -0.946666 0
M  V30 1172 H 111.655 -6.94258 -0.545843 0
M  V30 1173 H 109.282 -7.59722 -0.26952 0
M  V30 1174 N 110.857 0.726932 -1.39834 0
M  V30 1175 C 112.273 1.03354 -1.21615 0
M  V30 1176 C 112.473 2.01327 -0.08338 0
M  V30 1177 O 111.529 2.46158 0.56238 0
M  V30 1178 C 112.842 1.58811 -2.55342 0
M  V30 1179 C 114.39 1.70851 -2.62257 0
M  V30 1180 C 114.865 2.29716 -3.96225 0
M  V30 1181 N 116.356 2.37116 -3.97907 0
M  V30 1182 C 117.091 2.83619 -4.98345 0
M  V30 1183 N 116.587 3.29958 -6.09179 0
M  V30 1184 N 118.38 2.82901 -4.8572 0
M  V30 1185 H 110.531 0.0773069 -2.12259 0
M  V30 1186 H 112.794 0.0969102 -0.943034 0
M  V30 1187 H 112.5 0.942855 -3.38826 0
M  V30 1188 H 112.374 2.57502 -2.75632 0
M  V30 1189 H 114.761 2.34497 -1.79152 0
M  V30 1190 H 114.842 0.707913 -2.45809 0
M  V30 1191 H 114.486 1.66696 -4.79765 0
M  V30 1192 H 114.416 3.30469 -4.09997 0
M  V30 1193 H 116.907 2.04374 -3.17868 0
M  V30 1194 H 117.22 3.63976 -6.8172 0
M  V30 1195 H 115.565 3.27946 -6.12761 0
M  V30 1196 H 118.756 2.46027 -3.98231 0
M  V30 1197 H 118.929 3.18827 -5.6414 0
M  V30 1198 N 112.336 1.25143 0.95797 0
M  V30 1199 C 113.268 1.01023 2.05735 0
M  V30 1200 C 114.281 -0.0236902 1.62783 0
M  V30 1201 O 115.47 0.21448 1.77207 0
M  V30 1202 C 112.57 0.504595 3.35122 0
M  V30 1203 C 111.743 1.6039 4.06932 0
M  V30 1204 C 110.802 1.09922 5.14591 0
M  V30 1205 O 109.828 1.79293 5.40225 0
M  V30 1206 N 111.03 -0.0612545 5.80468 0
M  V30 1207 H 113.795 1.95683 2.26998 0
M  V30 1208 H 111.356 1.16303 1.12629 0
M  V30 1209 H 113.348 0.151516 4.04416 0
M  V30 1210 H 111.918 -0.347989 3.10657 0
M  V30 1211 H 111.138 2.12872 3.31782 0
M  V30 1212 H 112.426 2.34252 4.51667 0
M  V30 1213 H 111.824 -0.640985 5.62057 0
M  V30 1214 H 110.381 -0.355395 6.5083 0
M  V30 1215 N 113.814 -1.1601 1.06675 0
M  V30 1216 C 114.777 -2.18724 0.685001 0
M  V30 1217 C 115.777 -1.58496 -0.271246 0
M  V30 1218 O 116.967 -1.74119 -0.0531156 0
M  V30 1219 C 114.099 -3.40899 0.00853648 0
M  V30 1220 H 115.292 -2.54011 1.59431 0
M  V30 1221 H 112.845 -1.30352 0.862441 0
M  V30 1222 H 113.58 -3.11173 -0.913337 0
M  V30 1223 H 113.365 -3.8587 0.696204 0
M  V30 1224 H 114.855 -4.16886 -0.24414 0
M  V30 1225 N 115.292 -0.849877 -1.32721 0
M  V30 1226 C 116.222 -0.306308 -2.31482 0
M  V30 1227 C 117.203 0.591952 -1.59468 0
M  V30 1228 O 118.388 0.513199 -1.87296 0
M  V30 1229 C 115.518 0.510204 -3.43532 0
M  V30 1230 C 114.472 -0.293209 -4.26994 0
M  V30 1231 C 113.798 0.647743 -5.30762 0
M  V30 1232 C 115.098 -1.51634 -4.99804 0
M  V30 1233 H 116.792 -1.13153 -2.77195 0
M  V30 1234 H 114.338 -0.545553 -1.33266 0
M  V30 1235 H 116.291 0.900856 -4.11658 0
M  V30 1236 H 115.015 1.36874 -2.96535 0
M  V30 1237 H 113.674 -0.665555 -3.60508 0
M  V30 1238 H 113.322 1.50299 -4.8002 0
M  V30 1239 H 113.022 0.11422 -5.87489 0
M  V30 1240 H 114.546 1.03567 -6.01753 0
M  V30 1241 H 115.96 -1.19824 -5.60638 0
M  V30 1242 H 114.357 -1.98745 -5.66234 0
M  V30 1243 H 115.427 -2.28018 -4.27943 0
M  V30 1244 N 116.77 1.45427 -0.607355 0
M  V30 1245 C 118.047 1.9557 -0.0344566 0
M  V30 1246 C 118.427 1.54979 1.43334 0
M  V30 1247 O 117.775 0.812241 2.13576 0
M  V30 1248 C 117.985 3.48226 -0.232321 0
M  V30 1249 C 119.333 4.2445 -0.113001 0
M  V30 1250 O 120.357 3.55829 -0.162431 0
M  V30 1251 O 119.216 5.465 0.00209442 0
M  V30 1252 H 116.31 0.826222 0.0358667 0
M  V30 1253 H 118.856 1.55594 -0.6774 0
M  V30 1254 H 117.628 3.70739 -1.25174 0
M  V30 1255 H 117.251 3.95092 0.445896 0
M  V30 1256 N 118.248 0.346503 1.53744 0
M  V30 1257 C 119.525 -0.304532 1.93215 0
M  V30 1258 C 119.905 -1.67993 1.27834 0
M  V30 1259 O 119.253 -2.24411 0.430352 0
M  V30 1260 C 119.463 -0.373852 3.46992 0
M  V30 1261 C 120.811 -0.62329 4.2 0
M  V30 1262 O 121.835 -0.455847 3.53271 0
M  V30 1263 O 120.694 -0.947879 5.38217 0
M  V30 1264 H 117.788 -0.178318 0.807547 0
M  V30 1265 H 120.334 0.397895 1.64969 0
M  V30 1266 H 119.106 0.591224 3.86808 0
M  V30 1267 H 118.729 -1.12294 3.81413 0
M  V30 1268 N 119.726 -1.57421 0.075193 0
M  V30 1269 C 120.954 -1.97946 -0.602076 0
M  V30 1270 C 121.369 -0.953674 -1.62943 0
M  V30 1271 O 120.726 0.0592551 -1.82404 0
M  V30 1272 C 120.777 -3.38546 -1.26762 0
M  V30 1273 O 120.498 -4.37195 -0.281376 0
M  V30 1274 C 121.999 -3.93966 -2.03239 0
M  V30 1275 H 119.219 -0.650918 -0.162931 0
M  V30 1276 H 121.763 -2.03959 0.148601 0
M  V30 1277 H 119.918 -3.33609 -1.96936 0
M  V30 1278 H 120.332 -5.18975 -0.759267 0
M  V30 1279 H 121.806 -4.94555 -2.45193 0
M  V30 1280 H 122.283 -3.30693 -2.8903 0
M  V30 1281 H 122.889 -4.02315 -1.37924 0
M  V30 1282 N 121.204 0.198386 -1.56346 0
M  V30 1283 C 122.452 0.91747 -1.80075 0
M  V30 1284 C 122.773 1.83929 -0.647692 0
M  V30 1285 O 122.043 1.93029 0.334166 0
M  V30 1286 H 120.623 0.341774 -0.664228 0
M  V30 1287 H 123.285 0.204684 -1.93822 0
M  V30 1288 H 122.381 1.51055 -2.7311 0
M  V30 1289 N 122.682 1.50554 0.465978 0
M  V30 1290 C 123.615 1.64436 1.58227 0
M  V30 1291 C 124.593 0.492367 1.54966 0
M  V30 1292 O 125.777 0.712536 1.74514 0
M  V30 1293 C 122.904 1.63165 2.96808 0
M  V30 1294 C 121.95 2.83987 3.18204 0
M  V30 1295 S 122.783 4.45219 2.97557 0
M  V30 1296 C 123.939 4.46649 4.3847 0
M  V30 1297 H 124.172 2.58861 1.46213 0
M  V30 1298 H 121.705 1.3988 0.653678 0
M  V30 1299 H 123.663 1.63116 3.76701 0
M  V30 1300 H 122.324 0.69967 3.06208 0
M  V30 1301 H 121.517 2.79416 4.19455 0
M  V30 1302 H 121.119 2.81629 2.46092 0
M  V30 1303 H 123.411 4.20526 5.31191 0
M  V30 1304 H 124.354 5.48295 4.48082 0
M  V30 1305 H 124.762 3.76296 4.20787 0
M  V30 1306 N 124.16 -0.719506 1.40217 0
M  V30 1307 C 125.107 -1.83359 1.40172 0
M  V30 1308 C 126.077 -1.64065 0.259206 0
M  V30 1309 O 127.262 -1.85254 0.456677 0
M  V30 1310 C 124.402 -3.2103 1.26624 0
M  V30 1311 C 123.515 -3.51923 2.50548 0
M  V30 1312 C 122.65 -4.79079 2.29471 0
M  V30 1313 C 121.689 -5.02863 3.48992 0
M  V30 1314 N 120.826 -6.2123 3.27135 0
M  V30 1315 H 125.666 -1.82733 2.35399 0
M  V30 1316 H 123.203 -0.892688 1.16917 0
M  V30 1317 H 125.161 -4.00524 1.16776 0
M  V30 1318 H 123.791 -3.20895 0.350176 0
M  V30 1319 H 122.843 -2.67014 2.70939 0
M  V30 1320 H 124.155 -3.6541 3.39525 0
M  V30 1321 H 123.309 -5.66582 2.16955 0
M  V30 1322 H 122.048 -4.67794 1.37913 0
M  V30 1323 H 121.053 -4.13816 3.6199 0
M  V30 1324 H 122.278 -5.16023 4.41472 0
M  V30 1325 H 120.224 -6.11204 2.38256 0
M  V30 1326 H 120.141 -6.35375 4.09675 0
M  V30 1327 H 121.409 -7.11532 3.18344 0
M  V30 1328 N 125.638 -1.25649 -0.95132 0
M  V30 1329 C 126.884 -1.10757 -1.69884 0
M  V30 1330 C 127.217 0.350061 -1.91019 0
M  V30 1331 O 126.492 1.25783 -1.48354 0
M  V30 1332 C 126.775 -1.86606 -3.07978 0
M  V30 1333 C 126.628 -3.40217 -2.94232 0
M  V30 1334 C 127.947 -1.65182 -4.07925 0
M  V30 1335 H 125.066 -0.40374 -0.616574 0
M  V30 1336 H 127.708 -1.54521 -1.10558 0
M  V30 1337 H 125.858 -1.49409 -3.58621 0
M  V30 1338 H 127.53 -3.87108 -2.50889 0
M  V30 1339 H 125.773 -3.67759 -2.30078 0
M  V30 1340 H 126.444 -3.88505 -3.92133 0
M  V30 1341 H 128.92 -1.9757 -3.66204 0
M  V30 1342 H 127.796 -2.20683 -5.02583 0
M  V30 1343 H 128.057 -0.593933 -4.38092 0
M  V30 1344 N 127.117 1.15442 -1.07289 0
M  V30 1345 C 128.528 1.67803 -0.818475 0
M  V30 1346 C 128.879 1.8489 0.656507 0
M  V30 1347 O 128.004 1.55176 1.50829 0
M  V30 1348 C 128.599 3.04805 -1.47917 0
M  V30 1349 C 127.158 3.54245 -1.27229 0
M  V30 1350 C 126.305 2.29986 -1.54925 0
M  V30 1351 H 129.256 0.996646 -1.23502 0
M  V30 1352 H 129.277 3.69702 -0.90005 0
M  V30 1353 H 128.789 2.92336 -2.55267 0
M  V30 1354 H 126.89 3.71956 -0.21899 0
M  V30 1355 H 127.003 4.35723 -1.99203 0
M  V30 1356 H 125.367 2.35496 -0.970242 0
M  V30 1357 H 126.15 2.20105 -2.63455 0
M  V30 1358 N 128.595 0.856903 1.32268 0
M  V30 1359 C 129.528 0.247937 2.26849 0
M  V30 1360 C 130.506 -0.615382 1.50505 0
M  V30 1361 O 131.69 -0.571689 1.79622 0
M  V30 1362 C 128.817 -0.650093 3.32403 0
M  V30 1363 C 127.863 0.140138 4.2627 0
M  V30 1364 S 128.696 1.51004 5.13769 0
M  V30 1365 C 129.852 0.61778 6.22844 0
M  V30 1366 H 130.085 1.04971 2.78152 0
M  V30 1367 H 127.618 0.654665 1.39834 0
M  V30 1368 H 129.576 -1.16256 3.93694 0
M  V30 1369 H 128.237 -1.4257 2.7988 0
M  V30 1370 H 127.43 -0.543945 5.01056 0
M  V30 1371 H 127.032 0.584267 3.69408 0
M  V30 1372 H 129.324 -0.177053 6.77269 0
M  V30 1373 H 130.267 1.33636 6.95375 0
M  V30 1374 H 130.675 0.191124 5.64176 0
M  V30 1375 N 130.073 -1.45103 0.615059 0
M  V30 1376 C 131.036 -2.29025 -0.0895485 0
M  V30 1377 C 132.036 -1.40174 -0.787906 0
M  V30 1378 O 133.226 -1.62217 -0.634933 0
M  V30 1379 C 130.358 -3.21376 -1.13711 0
M  V30 1380 H 131.551 -2.92807 0.648382 0
M  V30 1381 H 129.104 -1.51749 0.374444 0
M  V30 1382 H 129.839 -2.6241 -1.90556 0
M  V30 1383 H 129.624 -3.86834 -0.640475 0
M  V30 1384 H 131.114 -3.84459 -1.63036 0
M  V30 1385 N 131.551 -0.354651 -1.53558 0
M  V30 1386 C 132.779 0.239515 -2.05509 0
M  V30 1387 C 133.194 1.4333 -1.2289 0
M  V30 1388 O 132.551 1.80538 -0.266899 0
M  V30 1389 C 132.602 0.643719 -3.55723 0
M  V30 1390 O 132.323 -0.502602 -4.35207 0
M  V30 1391 C 133.824 1.29743 -4.23889 0
M  V30 1392 H 131.044 0.0442697 -0.669538 0
M  V30 1393 H 133.588 -0.509856 -1.98042 0
M  V30 1394 H 131.743 1.34302 -3.63376 0
M  V30 1395 H 132.157 -0.178172 -5.24197 0
M  V30 1396 H 133.631 1.53091 -5.30346 0
M  V30 1397 H 134.108 2.25441 -3.76926 0
M  V30 1398 H 134.714 0.639865 -4.20459 0
M  V30 1399 N 133.029 1.57378 -0.0835403 0
M  V30 1400 C 134.257 1.98263 0.59157 0
M  V30 1401 C 134.672 0.962302 1.62435 0
M  V30 1402 O 134.029 -0.049581 1.82433 0
M  V30 1403 C 134.08 3.39214 1.24965 0
M  V30 1404 O 133.801 4.37339 0.258186 0
M  V30 1405 C 135.302 3.95038 2.01147 0
M  V30 1406 H 132.522 0.651773 0.159477 0
M  V30 1407 H 135.066 2.03878 -0.159415 0
M  V30 1408 H 133.221 3.34649 1.95164 0
M  V30 1409 H 133.635 5.19371 0.731734 0
M  V30 1410 H 135.109 4.95848 2.42567 0
M  V30 1411 H 135.586 3.32222 2.87272 0
M  V30 1412 H 136.192 4.0304 1.35789 0
M  V30 1413 N 134.507 -0.190092 1.56449 0
M  V30 1414 C 135.455 -1.25501 1.95837 0
M  V30 1415 C 136.449 -1.4685 0.844485 0
M  V30 1416 O 137.655 -1.47651 1.02952 0
M  V30 1417 H 134.03 -0.421447 0.622805 0
M  V30 1418 H 136.001 -0.895821 2.84636 0
M  V30 1419 C 134.75 -2.59124 2.31841 0
M  V30 1420 H 134.073 -2.43514 3.17082 0
M  V30 1421 H 135.513 -3.32371 2.6326 0
M  V30 1422 C 133.972 -3.16488 1.15486 0
M  V30 1423 O 134.502 -3.99365 0.432535 0
M  V30 1424 N 132.708 -2.75305 0.930349 0
M  V30 1425 H 132.255 -2.08013 1.51948 0
M  V30 1426 H 132.213 -3.14024 0.153634 0
M  V30 1427 N 135.985 -1.50799 -0.457987 0
M  V30 1428 C 136.915 -1.73553 -1.5621 0
M  V30 1429 C 137.896 -0.584774 -1.59732 0
M  V30 1430 O 139.081 -0.825314 -1.7579 0
M  V30 1431 C 136.211 -1.84169 -2.94447 0
M  V30 1432 C 135.165 -2.99461 -3.0579 0
M  V30 1433 C 134.491 -2.95235 -4.45803 0
M  V30 1434 C 135.791 -4.39766 -2.81786 0
M  V30 1435 H 137.485 -2.66 -1.37421 0
M  V30 1436 H 135.031 -1.28002 -0.659662 0
M  V30 1437 H 136.984 -1.98672 -3.71628 0
M  V30 1438 H 135.708 -0.883545 -3.14422 0
M  V30 1439 H 134.367 -2.8463 -2.31044 0
M  V30 1440 H 134.015 -1.97239 -4.62715 0
M  V30 1441 H 133.715 -3.72642 -4.54326 0
M  V30 1442 H 135.239 -3.11803 -5.24987 0
M  V30 1443 H 136.653 -4.55054 -3.4871 0
M  V30 1444 H 135.05 -5.18722 -3.0174 0
M  V30 1445 H 136.12 -4.51229 -1.7754 0
M  V30 1446 N 137.463 0.71206 -1.40597 0
M  V30 1447 C 138.71 1.47197 -1.39065 0
M  V30 1448 C 139.038 1.94499 0.00583891 0
M  V30 1449 O 138.293 1.68752 0.99102 0
M  V30 1450 C 138.592 2.71039 -2.32965 0
M  V30 1451 C 138.258 2.42484 -3.80148 0
M  V30 1452 C 136.92 2.34406 -4.20247 0
M  V30 1453 C 139.272 2.18598 -4.73143 0
M  V30 1454 C 136.6 2.00516 -5.51371 0
M  V30 1455 C 138.952 1.8622 -6.0457 0
M  V30 1456 C 137.616 1.76626 -6.43708 0
M  V30 1457 H 136.886 0.538634 -0.508876 0
M  V30 1458 H 139.533 0.815325 -1.73276 0
M  V30 1459 H 137.838 3.41558 -1.91951 0
M  V30 1460 H 139.535 3.29138 -2.29061 0
M  V30 1461 H 136.125 2.49659 -3.4838 0
M  V30 1462 H 140.309 2.23793 -4.42979 0
M  V30 1463 H 135.565 1.91628 -5.80593 0
M  V30 1464 H 139.739 1.66752 -6.76141 0
M  V30 1465 H 137.366 1.50133 -7.45228 0
M  V30 1466 N 138.941 1.26152 0.944643 0
M  V30 1467 C 140.169 1.14259 1.72489 0
M  V30 1468 C 140.584 -0.302555 1.8636 0
M  V30 1469 O 139.941 -1.20741 1.36849 0
M  V30 1470 C 139.992 1.80266 3.13347 0
M  V30 1471 O 139.713 3.19133 3.00143 0
M  V30 1472 C 141.214 1.74283 4.07603 0
M  V30 1473 H 138.434 0.398051 0.540181 0
M  V30 1474 H 140.978 1.66706 1.18446 0
M  V30 1475 H 139.133 1.31766 3.64303 0
M  V30 1476 H 139.547 3.51744 3.89071 0
M  V30 1477 H 141.021 2.25111 5.04013 0
M  V30 1478 H 141.498 0.708631 4.33446 0
M  V30 1479 H 142.104 2.22319 3.62567 0
M  V30 1480 N 140.419 -1.14872 1.07899 0
M  V30 1481 C 141.369 -2.17809 0.674027 0
M  V30 1482 C 142.353 -1.58008 -0.303699 0
M  V30 1483 O 143.545 -1.76616 -0.11654 0
M  V30 1484 C 140.674 -3.43208 0.0793318 0
M  V30 1485 C 139.76 -4.10051 1.08253 0
M  V30 1486 N 140.151 -4.52296 2.2641 0
M  V30 1487 C 138.449 -4.36469 0.917124 0
M  V30 1488 C 139.15 -5.04199 2.901 0
M  V30 1489 N 138.126 -4.98088 2.17736 0
M  V30 1490 H 141.928 -2.48207 1.57386 0
M  V30 1491 H 139.442 -1.315 0.952976 0
M  V30 1492 H 141.439 -4.16272 -0.228719 0
M  V30 1493 H 140.099 -3.14291 -0.815551 0
M  V30 1494 H 141.11 -4.45504 2.64096 0
M  V30 1495 H 137.787 -4.17432 0.0756078 0
M  V30 1496 H 139.177 -5.46802 3.90458 0
M  V30 1497 N 141.898 -0.863906 -1.31812 0
M  V30 1498 C 143.309 -0.52522 -1.7916 0
M  V30 1499 C 143.66 0.957518 -1.71248 0
M  V30 1500 O 142.785 1.74734 -1.27659 0
M  V30 1501 C 143.38 -0.9466 -3.25307 0
M  V30 1502 C 141.939 -0.659668 -3.70574 0
M  V30 1503 C 141.086 -1.14126 -2.52726 0
M  V30 1504 H 144.037 -1.05022 -1.1898 0
M  V30 1505 H 144.058 -0.266766 -3.79564 0
M  V30 1506 H 143.57 -2.02579 -3.31034 0
M  V30 1507 H 141.671 0.408416 -3.70355 0
M  V30 1508 H 141.784 -1.23245 -4.62977 0
M  V30 1509 H 140.148 -0.561216 -2.4844 0
M  V30 1510 H 140.931 -2.22775 -2.61201 0
M  V30 1511 N 143.376 1.44774 -0.622745 0
M  V30 1512 C 144.622 2.0242 -0.124083 0
M  V30 1513 C 144.955 1.4881 1.24777 0
M  V30 1514 O 144.23 0.668799 1.8264 0
M  V30 1515 C 144.513 3.59957 -0.101619 0
M  V30 1516 C 144.366 4.23867 -1.50521 0
M  V30 1517 C 145.685 4.36284 0.578272 0
M  V30 1518 H 142.804 0.735528 -0.0465645 0
M  V30 1519 H 145.446 1.72447 -0.797617 0
M  V30 1520 H 143.596 3.85623 0.471934 0
M  V30 1521 H 145.268 4.09336 -2.12701 0
M  V30 1522 H 143.511 3.81684 -2.06154 0
M  V30 1523 H 144.182 5.32843 -1.4416 0
M  V30 1524 H 146.658 4.16001 0.0906057 0
M  V30 1525 H 145.534 5.46004 0.563149 0
M  V30 1526 H 145.795 4.10271 1.64713 0
M  V30 1527 N 144.854 0.36279 1.53368 0
M  V30 1528 C 146.101 -0.227776 2.01215 0
M  V30 1529 C 146.429 -1.49003 1.25014 0
M  V30 1530 O 145.684 -1.92876 0.331236 0
M  V30 1531 C 145.983 -0.568417 3.52851 0
M  V30 1532 C 145.649 0.59918 4.46901 0
M  V30 1533 C 144.311 0.919559 4.72332 0
M  V30 1534 C 146.663 1.38156 5.02556 0
M  V30 1535 C 143.991 2.02434 5.5067 0
M  V30 1536 C 146.343 2.47674 5.821 0
M  V30 1537 C 145.007 2.8025 6.05819 0
M  V30 1538 H 144.277 -0.083349 0.736297 0
M  V30 1539 H 146.924 0.494677 1.85001 0
M  V30 1540 H 145.229 -1.37185 3.66998 0
M  V30 1541 H 146.926 -1.03756 3.87344 0
M  V30 1542 H 143.516 0.339437 4.27254 0
M  V30 1543 H 147.7 1.14729 4.82857 0
M  V30 1544 H 142.956 2.28075 5.67267 0
M  V30 1545 H 147.13 3.08716 6.24234 0
M  V30 1546 H 144.757 3.65979 6.66306 0
M  V30 1547 N 146.332 -1.57332 0.0918853 0
M  V30 1548 C 147.279 -2.13847 -0.868211 0
M  V30 1549 C 148.249 -1.05618 -1.28196 0
M  V30 1550 O 149.434 -1.33387 -1.36427 0
M  V30 1551 C 146.574 -2.72062 -2.12312 0
M  V30 1552 C 145.687 -3.94514 -1.7602 0
M  V30 1553 C 144.822 -4.40903 -2.96273 0
M  V30 1554 C 143.861 -5.55953 -2.56092 0
M  V30 1555 N 142.998 -5.97209 -3.69169 0
M  V30 1556 H 147.838 -2.95575 -0.379406 0
M  V30 1557 H 145.375 -1.46048 -0.175606 0
M  V30 1558 H 147.333 -3.03931 -2.858 0
M  V30 1559 H 145.963 -1.93068 -2.58698 0
M  V30 1560 H 145.015 -3.68979 -0.925135 0
M  V30 1561 H 146.327 -4.7802 -1.42472 0
M  V30 1562 H 145.481 -4.74539 -3.78018 0
M  V30 1563 H 144.22 -3.56291 -3.33029 0
M  V30 1564 H 143.225 -5.21948 -1.72773 0
M  V30 1565 H 144.45 -6.42311 -2.20484 0
M  V30 1566 H 142.396 -5.15543 -4.05649 0
M  V30 1567 H 142.313 -6.75504 -3.39456 0
M  V30 1568 H 143.581 -6.35475 -4.51434 0
M  V30 1569 N 147.81 0.181792 -1.56548 0
M  V30 1570 C 149.087 0.926765 -1.72251 0
M  V30 1571 C 149.467 2.00831 -0.650386 0
M  V30 1572 O 148.815 2.26008 0.336521 0
M  V30 1573 C 149.025 1.50106 -3.1507 0
M  V30 1574 C 150.373 1.97805 -3.75711 0
M  V30 1575 O 151.397 1.59922 -3.18282 0
M  V30 1576 O 150.256 2.67555 -4.76525 0
M  V30 1577 H 147.35 0.435506 -0.703039 0
M  V30 1578 H 149.896 0.170443 -1.68842 0
M  V30 1579 H 148.668 0.72212 -3.84579 0
M  V30 1580 H 148.291 2.32186 -3.22763 0
M  V30 1581 N 149.288 1.51039 0.449983 0
M  V30 1582 C 150.536 1.62759 1.19808 0
M  V30 1583 C 150.857 0.339981 1.92013 0
M  V30 1584 O 150.127 -0.643606 1.85026 0
M  V30 1585 H 148.707 0.599811 0.445237 0
M  V30 1586 H 151.369 1.87914 0.517138 0
M  V30 1587 H 150.465 2.44911 1.93455 0
M  V30 1588 N 150.766 -0.704594 1.40972 0
M  V30 1589 C 152.014 -1.46169 1.39568 0
M  V30 1590 C 152.335 -1.95 0.00253745 0
M  V30 1591 O 151.605 -1.71095 -0.954114 0
M  V30 1592 H 150.185 -0.542326 0.513704 0
M  V30 1593 H 152.847 -0.834553 1.76128 0
M  V30 1594 H 151.943 -2.32922 2.07735 0
M  V30 1595 N 152.244 -1.26651 -0.937939 0
M  V30 1596 C 153.491 -1.12387 -1.6845 0
M  V30 1597 C 153.819 0.332208 -1.91642 0
M  V30 1598 O 153.074 1.2602 -1.49725 0
M  V30 1599 C 153.373 -1.84168 -3.06295 0
M  V30 1600 C 153.039 -3.34056 -3.02849 0
M  V30 1601 C 151.701 -3.74942 -3.01616 0
M  V30 1602 C 154.053 -4.29741 -2.9491 0
M  V30 1603 C 151.381 -5.09894 -2.90215 0
M  V30 1604 C 153.733 -5.64738 -2.8505 0
M  V30 1605 C 152.397 -6.0493 -2.82162 0
M  V30 1606 H 151.667 -0.411252 -0.616403 0
M  V30 1607 H 154.314 -1.57134 -1.09459 0
M  V30 1608 H 152.619 -1.319 -3.6893 0
M  V30 1609 H 154.316 -1.70569 -3.62915 0
M  V30 1610 H 150.906 -3.01534 -3.0459 0
M  V30 1611 H 155.09 -3.99133 -2.94969 0
M  V30 1612 H 150.346 -5.40194 -2.86358 0
M  V30 1613 H 154.52 -6.38561 -2.77872 0
M  V30 1614 H 152.147 -7.09457 -2.73084 0
M  V30 1615 N 153.722 1.14298 -1.08507 0
M  V30 1616 C 154.95 1.89219 -0.836876 0
M  V30 1617 C 155.365 1.78638 0.611054 0
M  V30 1618 O 154.722 1.14643 1.41998 0
M  V30 1619 C 154.773 3.39158 -1.25116 0
M  V30 1620 O 154.494 3.49449 -2.64229 0
M  V30 1621 C 155.995 4.31073 -1.03398 0
M  V30 1622 H 153.215 0.599328 -0.301739 0
M  V30 1623 H 155.759 1.44746 -1.44461 0
M  V30 1624 H 153.914 3.81251 -0.687514 0
M  V30 1625 H 154.328 4.42589 -2.81452 0
M  V30 1626 H 155.802 5.34646 -1.37323 0
M  V30 1627 H 156.279 4.3919 0.0289259 0
M  V30 1628 H 156.885 3.94738 -1.58311 0
M  V30 1629 N 155.201 0.870884 1.31352 0
M  V30 1630 C 156.164 0.332243 2.26779 0
M  V30 1631 C 157.164 -0.517302 1.52252 0
M  V30 1632 O 158.354 -0.326477 1.71113 0
M  V30 1633 C 155.486 -0.528066 3.36785 0
M  V30 1634 H 156.679 1.17469 2.75937 0
M  V30 1635 H 154.232 0.64655 1.423 0
M  V30 1636 H 154.967 -1.39167 2.92922 0
M  V30 1637 H 154.752 0.0802582 3.92018 0
M  V30 1638 H 156.242 -0.897179 4.07849 0
M  V30 1639 N 156.679 -1.44442 0.630414 0
M  V30 1640 C 157.627 -2.32437 -0.0871428 0
M  V30 1641 C 158.621 -1.47304 -0.836525 0
M  V30 1642 O 159.827 -1.63653 -0.749506 0
M  V30 1643 H 156.202 -0.750533 -0.0469495 0
M  V30 1644 H 158.173 -2.90709 0.673096 0
M  V30 1645 C 156.922 -3.31288 -1.05563 0
M  V30 1646 H 156.245 -3.96805 -0.488426 0
M  V30 1647 H 157.685 -3.9554 -1.52721 0
M  V30 1648 C 156.144 -2.6016 -2.14052 0
M  V30 1649 O 156.674 -2.39997 -3.22124 0
M  V30 1650 N 154.88 -2.19911 -1.89967 0
M  V30 1651 H 154.427 -2.36509 -1.02085 0
M  V30 1652 H 154.385 -1.72646 -2.62756 0
M  V30 1653 N 158.157 -0.370918 -1.53173 0
M  V30 1654 C 159.434 0.273754 -1.93675 0
M  V30 1655 C 159.814 1.65938 -1.3049 0
M  V30 1656 O 159.162 2.23698 -0.465999 0
M  V30 1657 C 159.372 0.318602 -3.47543 0
M  V30 1658 C 160.72 0.556392 -4.20939 0
M  V30 1659 O 161.744 0.399587 -3.53952 0
M  V30 1660 O 160.603 0.862133 -5.39657 0
M  V30 1661 H 157.697 0.165448 -0.810281 0
M  V30 1662 H 160.243 -0.42409 -1.64315 0
M  V30 1663 H 159.015 -0.652687 -3.85818 0
M  V30 1664 H 158.638 1.06212 -3.83151 0
M  V30 1665 N 159.635 1.57281 -0.100228 0
M  V30 1666 C 161.051 1.57527 0.256416 0
M  V30 1667 C 161.251 1.11173 1.68056 0
M  V30 1668 O 160.307 0.79053 2.39806 0
M  V30 1669 C 161.62 3.00673 0.0401747 0
M  V30 1670 C 163.168 3.12815 0.107528 0
M  V30 1671 C 163.643 4.57929 -0.0807834 0
M  V30 1672 N 165.134 4.63193 -0.0261207 0
M  V30 1673 C 165.869 5.73212 -0.146999 0
M  V30 1674 N 165.365 6.92047 -0.322999 0
M  V30 1675 N 167.158 5.62031 -0.0879044 0
M  V30 1676 H 159.309 1.85718 -1.03065 0
M  V30 1677 H 161.572 0.857446 -0.404339 0
M  V30 1678 H 161.278 3.38804 -0.943649 0
M  V30 1679 H 161.152 3.69042 0.780262 0
M  V30 1680 H 163.539 2.74554 1.08186 0
M  V30 1681 H 163.62 2.47028 -0.664134 0
M  V30 1682 H 163.264 4.96886 -1.05201 0
M  V30 1683 H 163.194 5.21783 0.710635 0
M  V30 1684 H 165.685 3.77748 0.107161 0
M  V30 1685 H 165.998 7.7173 -0.406608 0
M  V30 1686 H 164.343 6.94074 -0.358733 0
M  V30 1687 H 167.534 4.68075 0.048498 0
M  V30 1688 H 167.707 6.47734 -0.185557 0
M  V30 1689 N 161.113 -0.173488 1.56642 0
M  V30 1690 C 162.39 -0.917617 1.7274 0
M  V30 1691 C 162.77 -2.00484 0.661027 0
M  V30 1692 O 162.118 -2.26184 -0.32453 0
M  V30 1693 C 162.328 -1.48433 3.15862 0
M  V30 1694 C 163.676 -1.95809 3.76754 0
M  V30 1695 O 164.7 -1.58231 3.19126 0
M  V30 1696 O 163.559 -2.65024 4.77938 0
M  V30 1697 H 160.653 -0.431772 0.705338 0
M  V30 1698 H 163.199 -0.161487 1.6893 0
M  V30 1699 H 161.971 -0.701715 3.84957 0
M  V30 1700 H 161.594 -2.30471 3.23989 0
M  V30 1701 N 162.591 -1.51276 -0.441967 0
M  V30 1702 C 163.837 -1.63958 -1.19355 0
M  V30 1703 C 164.17 -0.352543 -1.90973 0
M  V30 1704 O 163.445 0.647627 -1.83401 0
M  V30 1705 C 163.728 -2.83979 -2.21422 0
M  V30 1706 C 163.581 -4.22646 -1.53918 0
M  V30 1707 C 164.9 -2.99521 -3.22451 0
M  V30 1708 H 162.019 -0.596709 -0.432559 0
M  V30 1709 H 164.661 -1.83748 -0.483398 0
M  V30 1710 H 162.811 -2.67237 -2.81987 0
M  V30 1711 H 164.483 -4.51045 -0.967256 0
M  V30 1712 H 162.726 -4.25558 -0.841615 0
M  V30 1713 H 163.397 -5.02609 -2.28229 0
M  V30 1714 H 165.873 -3.14944 -2.71937 0
M  V30 1715 H 164.749 -3.85072 -3.91166 0
M  V30 1716 H 165.01 -2.11391 -3.88287 0
M  V30 1717 N 164.069 0.697108 -1.41344 0
M  V30 1718 C 165.485 1.00751 -1.2378 0
M  V30 1719 C 165.685 2.01105 -0.126066 0
M  V30 1720 O 164.741 2.47295 0.51004 0
M  V30 1721 C 166.054 1.53359 -2.58653 0
M  V30 1722 C 167.602 1.6525 -2.65822 0
M  V30 1723 C 168.077 2.2126 -4.01009 0
M  V30 1724 N 169.568 2.28622 -4.02847 0
M  V30 1725 C 170.303 2.72984 -5.04249 0
M  V30 1726 N 169.799 3.16962 -6.16041 0
M  V30 1727 N 171.592 2.72534 -4.91611 0
M  V30 1728 H 163.743 0.0322662 -2.12375 0
M  V30 1729 H 166.006 0.0768853 -0.944877 0
M  V30 1730 H 165.712 0.870773 -3.4075 0
M  V30 1731 H 165.586 2.51597 -2.81032 0
M  V30 1732 H 167.973 2.30644 -1.84086 0
M  V30 1733 H 168.054 0.655614 -2.47256 0
M  V30 1734 H 167.698 1.56482 -4.83193 0
M  V30 1735 H 167.628 3.21698 -4.16915 0
M  V30 1736 H 170.119 1.97585 -3.22131 0
M  V30 1737 H 170.432 3.49434 -6.89287 0
M  V30 1738 H 168.777 3.14875 -6.1958 0
M  V30 1739 H 171.968 2.37525 -4.0336 0
M  V30 1740 H 172.141 3.06789 -5.70775 0
M  V30 1741 N 165.547 1.27147 0.931209 0
M  V30 1742 C 166.963 1.04475 1.20653 0
M  V30 1743 C 167.163 -0.223885 2.00252 0
M  V30 1744 O 166.219 -0.930332 2.34736 0
M  V30 1745 C 167.532 2.28209 1.95809 0
M  V30 1746 C 169.08 2.33211 2.08762 0
M  V30 1747 C 169.555 3.56665 2.87323 0
M  V30 1748 N 171.046 3.57201 2.94892 0
M  V30 1749 C 171.781 4.49395 3.56134 0
M  V30 1750 N 171.277 5.51889 4.18796 0
M  V30 1751 N 173.07 4.37026 3.53504 0
M  V30 1752 H 165.221 2.08612 0.399333 0
M  V30 1753 H 167.484 0.917312 0.239253 0
M  V30 1754 H 167.19 3.20538 1.44736 0
M  V30 1755 H 167.064 2.33247 2.96438 0
M  V30 1756 H 169.451 1.41391 2.59023 0
M  V30 1757 H 169.532 2.32178 1.07364 0
M  V30 1758 H 169.176 4.4882 2.37746 0
M  V30 1759 H 169.106 3.54948 3.88998 0
M  V30 1760 H 171.597 2.83074 2.50354 0
M  V30 1761 H 171.91 6.18409 4.63454 0
M  V30 1762 H 170.255 5.55735 4.17353 0
M  V30 1763 H 173.446 3.56166 3.03749 0
M  V30 1764 H 173.619 5.09067 4.00942 0
M  V30 1765 N 167.025 -1.13721 1.09112 0
M  V30 1766 C 168.255 -1.88499 0.845671 0
M  V30 1767 C 168.663 -1.79218 -0.606432 0
M  V30 1768 O 168.006 -1.1544 -1.42896 0
M  V30 1769 C 168.068 -3.38954 1.19793 0
M  V30 1770 C 167.732 -3.72018 2.65428 0
M  V30 1771 C 168.729 -3.7153 3.63677 0
M  V30 1772 C 166.414 -4.01775 3.01467 0
M  V30 1773 C 168.408 -4.00336 4.95994 0
M  V30 1774 C 166.095 -4.30243 4.33975 0
M  V30 1775 C 167.093 -4.29508 5.31048 0
M  V30 1776 O 166.781 -4.5728 6.61173 0
M  V30 1777 H 166.513 -0.603702 0.304171 0
M  V30 1778 H 169.067 -1.44903 1.45576 0
M  V30 1779 H 167.297 -3.83039 0.530871 0
M  V30 1780 H 168.986 -3.95052 0.932146 0
M  V30 1781 H 169.752 -3.4862 3.37179 0
M  V30 1782 H 165.631 -4.01496 2.26544 0
M  V30 1783 H 169.175 -3.99678 5.71755 0
M  V30 1784 H 165.072 -4.52625 4.60219 0
M  V30 1785 H 165.84 -4.74964 6.66597 0
M  V30 1786 N 168.503 -0.877838 -1.30888 0
M  V30 1787 C 169.466 -0.344265 -2.266 0
M  V30 1788 C 170.466 0.50922 -1.52524 0
M  V30 1789 O 171.656 0.317398 -1.71284 0
M  V30 1790 C 168.788 0.510198 -3.37061 0
M  V30 1791 H 169.981 -1.1893 -2.7531 0
M  V30 1792 H 167.534 -0.654088 -1.41956 0
M  V30 1793 H 168.269 1.37612 -2.93655 0
M  V30 1794 H 168.054 -0.101047 -3.9197 0
M  V30 1795 H 169.544 0.875537 -4.08319 0
M  V30 1796 N 169.982 1.44106 -0.638065 0
M  V30 1797 C 170.912 2.33448 0.0494287 0
M  V30 1798 C 171.893 1.48606 0.827672 0
M  V30 1799 O 173.078 1.77308 0.792173 0
M  V30 1800 C 170.208 3.31771 1.02691 0
M  V30 1801 C 169.162 4.26485 0.359823 0
M  V30 1802 C 168.488 5.14729 1.44769 0
M  V30 1803 C 169.788 5.17056 -0.738296 0
M  V30 1804 H 171.482 2.91183 -0.696636 0
M  V30 1805 H 169.028 1.40014 -0.336456 0
M  V30 1806 H 170.981 3.93161 1.51666 0
M  V30 1807 H 169.705 2.7226 1.80395 0
M  V30 1808 H 168.364 3.66437 -0.10934 0
M  V30 1809 H 168.012 4.51566 2.21578 0
M  V30 1810 H 167.712 5.78913 1.00668 0
M  V30 1811 H 169.236 5.78991 1.93911 0
M  V30 1812 H 170.65 5.72342 -0.331354 0
M  V30 1813 H 169.047 5.89879 -1.10286 0
M  V30 1814 H 170.117 4.57652 -1.60258 0
M  V30 1815 N 171.46 0.379036 1.52974 0
M  V30 1816 C 172.876 0.0285448 1.59574 0
M  V30 1817 C 173.076 -1.45542 1.39355 0
M  V30 1818 O 172.132 -2.2187 1.20541 0
M  V30 1819 C 173.445 0.496535 2.96572 0
M  V30 1820 C 174.993 0.451909 3.0972 0
M  V30 1821 C 175.468 0.895924 4.49152 0
M  V30 1822 N 176.959 0.851522 4.55306 0
M  V30 1823 C 177.694 1.16661 5.61407 0
M  V30 1824 N 177.19 1.55166 6.752 0
M  V30 1825 N 178.983 1.08853 5.51459 0
M  V30 1826 H 171.134 1.34525 1.64367 0
M  V30 1827 H 173.397 0.550733 0.771619 0
M  V30 1828 H 173.103 1.53258 3.16552 0
M  V30 1829 H 172.977 -0.109802 3.7704 0
M  V30 1830 H 175.364 -0.575029 2.89443 0
M  V30 1831 H 175.445 1.09392 2.3123 0
M  V30 1832 H 175.089 1.92104 4.70168 0
M  V30 1833 H 175.019 0.23103 5.26093 0
M  V30 1834 H 177.51 0.568038 3.73606 0
M  V30 1835 H 177.823 1.776 7.52116 0
M  V30 1836 H 176.168 1.59044 6.76557 0
M  V30 1837 H 179.359 0.786803 4.6144 0
M  V30 1838 H 179.532 1.33742 6.34048 0
M  V30 1839 N 172.938 -1.57226 0.108567 0
M  V30 1840 C 173.885 -2.14756 -0.845481 0
M  V30 1841 C 174.855 -1.06971 -1.27068 0
M  V30 1842 O 176.04 -1.34827 -1.35005 0
M  V30 1843 C 173.18 -2.74298 -2.09415 0
M  V30 1844 C 172.293 -3.96358 -1.71826 0
M  V30 1845 C 171.428 -4.44021 -2.9158 0
M  V30 1846 C 170.467 -5.58637 -2.50181 0
M  V30 1847 N 169.604 -6.01091 -3.62814 0
M  V30 1848 H 174.444 -2.95961 -0.348035 0
M  V30 1849 H 171.981 -1.46226 -0.160106 0
M  V30 1850 H 173.939 -3.06945 -2.82561 0
M  V30 1851 H 172.569 -1.95801 -2.56636 0
M  V30 1852 H 171.621 -3.69939 -0.885947 0
M  V30 1853 H 172.933 -4.79504 -1.37394 0
M  V30 1854 H 172.087 -4.78522 -3.72963 0
M  V30 1855 H 170.826 -3.59803 -3.29231 0
M  V30 1856 H 169.831 -5.23751 -1.67228 0
M  V30 1857 H 171.056 -6.44613 -2.13659 0
M  V30 1858 H 169.002 -5.19817 -4.00158 0
M  V30 1859 H 168.919 -6.79066 -3.32273 0
M  V30 1860 H 170.187 -6.40227 -4.44668 0
M  V30 1861 N 174.416 0.165178 -1.56732 0
M  V30 1862 C 175.644 0.896218 -1.86482 0
M  V30 1863 C 176.059 1.75555 -0.694675 0
M  V30 1864 O 175.416 1.79379 0.33607 0
M  V30 1865 C 175.467 1.76792 -3.1532 0
M  V30 1866 O 175.188 0.943239 -4.27825 0
M  V30 1867 C 176.689 2.6081 -3.58459 0
M  V30 1868 H 173.909 0.260064 -0.618553 0
M  V30 1869 H 176.453 0.163428 -2.03846 0
M  V30 1870 H 174.608 2.45398 -2.99764 0
M  V30 1871 H 175.022 1.53998 -5.01383 0
M  V30 1872 H 176.496 3.17579 -4.51495 0
M  V30 1873 H 176.973 3.35977 -2.82872 0
M  V30 1874 H 177.579 1.97526 -3.76648 0
M  V30 1875 N 175.894 1.51508 0.433938 0
M  V30 1876 C 177.143 1.63578 1.18005 0
M  V30 1877 C 177.456 0.359514 1.92268 0
M  V30 1878 O 178.662 0.359632 2.69108 0
M  V30 1879 C 177.118 2.88901 2.14626 0
M  V30 1880 C 176.726 4.23544 1.45995 0
M  V30 1881 C 178.47 3.10328 2.89649 0
M  V30 1882 C 176.377 5.40014 2.4112 0
M  V30 1883 H 175.307 0.609277 0.444182 0
M  V30 1884 H 177.958 1.77978 0.446773 0
M  V30 1885 H 176.34 2.68142 2.91403 0
M  V30 1886 H 177.514 4.54696 0.747532 0
M  V30 1887 H 175.829 4.08021 0.831115 0
M  V30 1888 H 178.426 3.94518 3.60915 0
M  V30 1889 H 178.769 2.23544 3.51189 0
M  V30 1890 H 179.302 3.31443 2.19978 0
M  V30 1891 H 176.041 6.29068 1.84264 0
M  V30 1892 H 175.561 5.13233 3.10406 0
M  V30 1893 H 177.24 5.72099 3.02177 0
M  V30 1894 N 177.372 -0.689602 1.41712 0
M  V30 1895 C 178.788 -1.00093 1.24312 0
M  V30 1896 C 178.988 -2.01036 0.136729 0
M  V30 1897 O 178.044 -2.47562 -0.496918 0
M  V30 1898 C 179.357 -1.51985 2.59463 0
M  V30 1899 C 180.905 -1.63838 2.66695 0
M  V30 1900 C 181.38 -2.1913 4.02177 0
M  V30 1901 N 182.871 -2.26483 4.04054 0
M  V30 1902 C 183.606 -2.70306 5.0569 0
M  V30 1903 N 183.102 -3.13691 6.17713 0
M  V30 1904 N 184.895 -2.69923 4.9305 0
M  V30 1905 H 177.046 -0.0210029 2.1239 0
M  V30 1906 H 179.309 -0.0718733 0.945272 0
M  V30 1907 H 179.015 -0.85269 3.41207 0
M  V30 1908 H 178.889 -2.50103 2.82362 0
M  V30 1909 H 181.276 -2.29664 1.85306 0
M  V30 1910 H 181.357 -0.642492 2.476 0
M  V30 1911 H 181.001 -1.53918 4.84016 0
M  V30 1912 H 180.931 -3.19482 4.18615 0
M  V30 1913 H 183.422 -1.95874 3.23174 0
M  V30 1914 H 183.735 -3.45773 6.9113 0
M  V30 1915 H 182.08 -3.11585 6.21241 0
M  V30 1916 H 185.271 -2.35382 4.04614 0
M  V30 1917 H 185.444 -3.03758 5.72394 0
M  V30 1918 N 178.85 -1.27639 -0.924453 0
M  V30 1919 C 179.798 -1.10485 -2.04685 0
M  V30 1920 C 180.792 -0.0270421 -1.69378 0
M  V30 1921 O 181.998 -0.185008 -1.79047 0
M  V30 1922 H 178.373 -0.340546 -0.670472 0
M  V30 1923 H 180.344 -2.05566 -2.16298 0
M  V30 1924 C 179.093 -0.772229 -3.39016 0
M  V30 1925 H 178.416 -1.59351 -3.66671 0
M  V30 1926 H 179.856 -0.692097 -4.18313 0
M  V30 1927 C 178.315 0.523554 -3.32807 0
M  V30 1928 O 178.845 1.55702 -3.70297 0
M  V30 1929 N 177.051 0.520363 -2.85903 0
M  V30 1930 H 176.598 -0.32107 -2.55591 0
M  V30 1931 H 176.556 1.38742 -2.82131 0
M  V30 1932 N 180.328 1.1314 -1.09713 0
M  V30 1933 C 181.577 1.83838 -0.829851 0
M  V30 1934 C 181.89 1.84599 0.646728 0
M  V30 1935 O 183.096 2.51218 1.02965 0
M  V30 1936 C 181.552 3.30069 -1.43466 0
M  V30 1937 C 181.16 3.37688 -2.94399 0
M  V30 1938 C 182.904 4.05788 -1.24645 0
M  V30 1939 C 180.811 4.78209 -3.47952 0
M  V30 1940 H 179.741 0.68877 -0.306777 0
M  V30 1941 H 182.392 1.27448 -1.3202 0
M  V30 1942 H 180.774 3.8628 -0.871996 0
M  V30 1943 H 181.948 2.91456 -3.56918 0
M  V30 1944 H 180.263 2.75436 -3.12289 0
M  V30 1945 H 182.86 5.09535 -1.62107 0
M  V30 1946 H 183.203 4.15878 -0.187357 0
M  V30 1947 H 183.736 3.55915 -1.77678 0
M  V30 1948 H 180.475 4.73311 -4.53495 0
M  V30 1949 H 179.995 5.24924 -2.90198 0
M  V30 1950 H 181.674 5.47133 -3.45332 0
M  V30 1951 N 181.806 0.884767 1.30421 0
M  V30 1952 C 183.083 0.423185 1.90967 0
M  V30 1953 C 183.463 -1.09605 1.80416 0
M  V30 1954 O 182.811 -1.93126 1.22125 0
M  V30 1955 C 183.021 0.921056 3.36627 0
M  V30 1956 C 184.369 0.955903 4.137 0
M  V30 1957 O 185.393 0.867706 3.4547 0
M  V30 1958 O 184.252 1.08614 5.35598 0
M  V30 1959 H 181.346 0.129369 0.816819 0
M  V30 1960 H 183.892 0.973653 1.3899 0
M  V30 1961 H 182.664 1.96489 3.3839 0
M  V30 1962 H 182.287 0.349741 3.96059 0
M  V30 1963 N 183.284 -1.43765 0.645699 0
M  V30 1964 C 184.214 -2.33471 -0.0370477 0
M  V30 1965 C 185.195 -1.49042 -0.819779 0
M  V30 1966 O 186.38 -1.77726 -0.782758 0
M  V30 1967 C 183.51 -3.32311 -1.0093 0
M  V30 1968 C 182.464 -4.2667 -0.337201 0
M  V30 1969 C 181.79 -5.1549 -1.42037 0
M  V30 1970 C 183.09 -5.16657 0.765706 0
M  V30 1971 H 184.784 -2.90809 0.712069 0
M  V30 1972 H 182.33 -1.39834 0.343876 0
M  V30 1973 H 184.283 -3.9396 -1.49578 0
M  V30 1974 H 183.007 -2.73213 -1.78948 0
M  V30 1975 H 181.666 -3.66374 0.128771 0
M  V30 1976 H 181.314 -4.52735 -2.1918 0
M  V30 1977 H 181.014 -5.79438 -0.975966 0
M  V30 1978 H 182.538 -5.80012 -1.90838 0
M  V30 1979 H 183.952 -5.72158 0.361702 0
M  V30 1980 H 182.349 -5.89286 1.13413 0
M  V30 1981 H 183.419 -4.56796 1.62683 0
M  V30 1982 N 184.763 -0.387143 -1.52771 0
M  V30 1983 C 185.726 0.436939 -2.24997 0
M  V30 1984 C 186.726 0.991991 -1.26555 0
M  V30 1985 O 187.916 0.874335 -1.50669 0
M  V30 1986 C 185.048 1.61281 -3.00335 0
M  V30 1987 H 186.241 -0.195365 -2.99263 0
M  V30 1988 H 183.794 -0.139218 -1.55679 0
M  V30 1989 H 184.529 2.2826 -2.30364 0
M  V30 1990 H 184.314 1.22154 -3.72587 0
M  V30 1991 H 185.804 2.19629 -3.5518 0
M  V30 1992 N 186.241 1.57166 -0.116904 0
M  V30 1993 C 187.487 1.95412 0.542405 0
M  V30 1994 C 187.82 1.00019 1.66463 0
M  V30 1995 O 187.095 0.0370346 1.94465 0
M  V30 1996 C 187.378 3.43615 1.07708 0
M  V30 1997 C 187.231 4.49781 -0.0415868 0
M  V30 1998 C 188.55 3.93616 1.96861 0
M  V30 1999 H 185.669 0.710543 0.195696 0
M  V30 2000 H 188.311 1.89027 -0.192038 0
M  V30 2001 H 186.461 3.49187 1.70296 0
M  V30 2002 H 188.133 4.56308 -0.676793 0
M  V30 2003 H 186.376 4.28033 -0.705019 0
M  V30 2004 H 187.047 5.50733 0.373717 0
M  V30 2005 H 189.523 3.90335 1.44146 0
M  V30 2006 H 188.399 4.97838 2.3119 0
M  V30 2007 H 188.66 3.34188 2.89432 0
M  V30 2008 N 187.719 -0.156864 1.56817 0
M  V30 2009 C 188.629 -1.2136 2.00771 0
M  V30 2010 C 189.645 -1.47598 0.921459 0
M  V30 2011 O 190.821 -1.59462 1.2302 0
M  V30 2012 C 187.886 -2.52943 2.37109 0
M  V30 2013 C 186.947 -2.34439 3.59634 0
M  V30 2014 C 186.18 -3.59748 3.94229 0
M  V30 2015 O 186.403 -4.65526 3.29609 0
M  V30 2016 O 185.337 -3.52998 4.8752 0
M  V30 2017 H 189.163 -0.870468 2.90958 0
M  V30 2018 H 186.748 -0.36484 1.44877 0
M  V30 2019 H 188.63 -3.30538 2.61386 0
M  V30 2020 H 187.305 -2.86806 1.5008 0
M  V30 2021 H 186.212 -1.54828 3.40557 0
M  V30 2022 H 187.545 -2.05496 4.4725 0
M  V30 2023 N 189.197 -1.51736 -0.425897 0
M  V30 2024 C 190.127 -1.76827 -1.52494 0
M  V30 2025 C 191.108 -0.618524 -1.58456 0
M  V30 2026 O 192.293 -0.862416 -1.74 0
M  V30 2027 C 189.423 -1.90374 -2.90474 0
M  V30 2028 C 188.377 -3.0588 -2.99369 0
M  V30 2029 C 187.703 -3.04625 -4.3944 0
M  V30 2030 C 189.003 -4.45644 -2.72394 0
M  V30 2031 H 190.697 -2.68855 -1.31748 0
M  V30 2032 H 188.243 -1.29372 -0.632362 0
M  V30 2033 H 190.196 -2.0651 -3.6733 0
M  V30 2034 H 188.92 -0.95004 -3.12477 0
M  V30 2035 H 187.579 -2.89467 -2.24954 0
M  V30 2036 H 187.227 -2.0701 -4.58428 0
M  V30 2037 H 186.927 -3.82195 -4.46319 0
M  V30 2038 H 188.451 -3.22869 -5.18255 0
M  V30 2039 H 189.865 -4.62348 -3.38979 0
M  V30 2040 H 188.262 -5.25006 -2.9067 0
M  V30 2041 H 189.332 -4.54893 -1.67929 0
M  V30 2042 N 190.675 0.682077 -1.42076 0
M  V30 2043 C 191.923 1.4393 -1.41876 0
M  V30 2044 C 192.244 1.94971 -0.0335599 0
M  V30 2045 O 191.514 1.72591 0.926773 0
M  V30 2046 H 190.094 0.534085 -0.522267 0
M  V30 2047 H 192.756 0.806427 -1.77434 0
M  V30 2048 H 191.852 2.29588 -2.11414 0
M  V30 2049 N 192.153 1.28127 0.917671 0
M  V30 2050 C 193.116 1.11744 2.00115 0
M  V30 2051 C 194.116 0.0583052 1.60694 0
M  V30 2052 O 195.306 0.303755 1.71531 0
M  V30 2053 C 192.438 0.704862 3.33533 0
M  V30 2054 H 193.631 2.07966 2.16079 0
M  V30 2055 H 191.184 1.11058 1.09981 0
M  V30 2056 H 191.919 -0.258299 3.2327 0
M  V30 2057 H 191.704 1.4699 3.63505 0
M  V30 2058 H 193.194 0.612768 4.1308 0
M  V30 2059 N 193.631 -1.12557 1.10312 0
M  V30 2060 C 194.541 -2.21841 0.763142 0
M  V30 2061 C 195.557 -1.72354 -0.238801 0
M  V30 2062 O 196.733 -2.01249 -0.0778746 0
M  V30 2063 C 193.798 -3.46131 0.198632 0
M  V30 2064 C 192.859 -4.10464 1.25769 0
M  V30 2065 C 192.092 -5.28821 0.72002 0
M  V30 2066 O 192.315 -5.6859 -0.453993 0
M  V30 2067 O 191.249 -5.83437 1.47935 0
M  V30 2068 H 195.075 -2.53312 1.67532 0
M  V30 2069 H 192.66 -1.20867 0.878157 0
M  V30 2070 H 194.542 -4.2125 -0.112401 0
M  V30 2071 H 193.217 -3.16338 -0.686419 0
M  V30 2072 H 192.124 -3.3713 1.62156 0
M  V30 2073 H 193.457 -4.44408 2.11571 0
M  V30 2074 N 195.109 -0.891671 -1.2995 0
M  V30 2075 C 196.337 -0.52866 -2.00032 0
M  V30 2076 C 196.752 0.884574 -1.66795 0
M  V30 2077 O 196.109 1.5827 -0.908669 0
M  V30 2078 C 196.16 -0.701814 -3.54622 0
M  V30 2079 O 195.881 -2.05942 -3.86678 0
M  V30 2080 C 197.382 -0.342683 -4.41973 0
M  V30 2081 H 194.602 -0.203659 -0.639347 0
M  V30 2082 H 197.146 -1.19881 -1.65677 0
M  V30 2083 H 195.301 -0.0789468 -3.8732 0
M  V30 2084 H 195.715 -2.08291 -4.81368 0
M  V30 2085 H 197.189 -0.514709 -5.49595 0
M  V30 2086 H 197.666 0.71975 -4.33262 0
M  V30 2087 H 198.272 -0.942154 -4.14733 0
M  V30 2088 N 196.587 1.43421 -0.653314 0
M  V30 2089 C 197.817 2.05864 -0.174238 0
M  V30 2090 C 198.225 1.49052 1.16534 0
M  V30 2091 O 197.568 0.616481 1.73047 0
M  V30 2092 C 197.63 3.59499 -0.00875873 0
M  V30 2093 C 197.294 4.38893 -1.27364 0
M  V30 2094 C 198.291 4.70947 -2.20239 0
M  V30 2095 C 195.976 4.789 -1.51525 0
M  V30 2096 C 197.97 5.41916 -3.35568 0
M  V30 2097 C 195.657 5.49614 -2.67147 0
M  V30 2098 C 196.655 5.81044 -3.58994 0
M  V30 2099 O 196.343 6.50313 -4.72597 0
M  V30 2100 H 196.075 0.670345 -0.0872549 0
M  V30 2101 H 198.629 1.84913 -0.894226 0
M  V30 2102 H 196.859 3.79025 0.7666 0
M  V30 2103 H 198.548 4.0364 0.427687 0
M  V30 2104 H 199.314 4.40558 -2.02815 0
M  V30 2105 H 195.193 4.53843 -0.809158 0
M  V30 2106 H 198.737 5.66365 -4.07279 0
M  V30 2107 H 194.634 5.79419 -2.84505 0
M  V30 2108 H 195.402 6.68795 -4.71864 0
M  V30 2109 N 198.065 0.39524 1.52563 0
M  V30 2110 C 199.311 -0.185318 2.01952 0
M  V30 2111 C 199.644 -1.45964 1.28095 0
M  V30 2112 O 198.919 -1.90689 0.38315 0
M  V30 2113 C 199.202 -0.447193 3.57312 0
M  V30 2114 C 199.055 0.842828 4.41833 0
M  V30 2115 C 200.374 -1.23529 4.22408 0
M  V30 2116 H 197.493 -0.0658788 0.73405 0
M  V30 2117 H 200.135 0.525975 1.82575 0
M  V30 2118 H 198.285 -1.05312 3.73954 0
M  V30 2119 H 199.957 1.4795 4.36931 0
M  V30 2120 H 198.2 1.45686 4.08605 0
M  V30 2121 H 198.871 0.614165 5.48573 0
M  V30 2122 H 201.347 -0.722445 4.0978 0
M  V30 2123 H 200.223 -1.38727 5.3108 0
M  V30 2124 H 200.484 -2.25213 3.80436 0
M  V30 2125 N 199.544 -1.57102 0.125237 0
M  V30 2126 C 200.507 -2.14471 -0.80838 0
M  V30 2127 C 201.507 -1.0811 -1.19033 0
M  V30 2128 O 202.697 -1.33856 -1.11482 0
M  V30 2129 C 199.829 -2.69005 -2.09402 0
M  V30 2130 H 201.022 -2.98297 -0.309696 0
M  V30 2131 H 198.575 -1.55807 -0.124051 0
M  V30 2132 H 199.31 -1.88785 -2.63687 0
M  V30 2133 H 199.095 -3.46799 -1.82957 0
M  V30 2134 H 200.585 -3.13278 -2.76128 0
M  V30 2135 N 201.022 0.148545 -1.56898 0
M  V30 2136 C 202.268 0.857877 -1.84424 0
M  V30 2137 C 202.623 1.7886 -0.709006 0
M  V30 2138 O 201.916 1.89344 0.293139 0
M  V30 2139 C 202.11 1.67064 -3.1595 0
M  V30 2140 C 201.939 0.82011 -4.42159 0
M  V30 2141 C 200.709 0.486328 -5.02954 0
M  V30 2142 C 202.907 0.151155 -5.14078 0
M  V30 2143 N 200.889 -0.377956 -6.12735 0
M  V30 2144 C 202.26 -0.573333 -6.17343 0
M  V30 2145 C 204.315 0.0716685 -4.97848 0
M  V30 2146 C 203.018 -1.3698 -7.06137 0
M  V30 2147 C 205.044 -0.711532 -5.87104 0
M  V30 2148 C 204.406 -1.42431 -6.8985 0
M  V30 2149 H 200.505 0.291798 -0.725519 0
M  V30 2150 H 203.089 0.123347 -1.94309 0
M  V30 2151 H 201.26 2.37642 -3.07215 0
M  V30 2152 H 202.992 2.32302 -3.31388 0
M  V30 2153 H 199.747 0.821753 -4.66416 0
M  V30 2154 H 200.171 -0.801077 -6.72244 0
M  V30 2155 H 204.813 0.608381 -4.184 0
M  V30 2156 H 202.531 -1.91778 -7.85014 0
M  V30 2157 H 206.117 -0.775005 -5.76615 0
M  V30 2158 H 204.997 -2.02061 -7.57721 0
M  V30 2159 N 202.5 1.5196 0.417844 0
M  V30 2160 C 203.748 1.65263 1.16329 0
M  V30 2161 C 204.069 0.380634 1.91249 0
M  V30 2162 O 203.339 -0.604214 1.86349 0
M  V30 2163 H 201.919 0.60912 0.432414 0
M  V30 2164 H 204.581 1.88969 0.477162 0
M  V30 2165 H 203.677 2.4896 1.88217 0
M  V30 2166 N 203.978 -0.674533 1.42435 0
M  V30 2167 C 205.226 -1.43175 1.42637 0
M  V30 2168 C 205.547 -1.94951 0.0438992 0
M  V30 2169 O 204.817 -1.7308 -0.917607 0
M  V30 2170 H 203.397 -0.531307 0.525092 0
M  V30 2171 H 206.059 -0.797006 1.77859 0
M  V30 2172 H 205.155 -2.28463 2.12629 0
M  V30 2173 N 205.456 -1.28612 -0.910864 0
M  V30 2174 C 206.872 -1.06381 -1.18976 0
M  V30 2175 C 207.072 0.191998 -2.00583 0
M  V30 2176 O 206.128 0.892869 -2.36187 0
M  V30 2177 C 207.441 -2.31295 -1.92154 0
M  V30 2178 C 208.989 -2.36503 -2.05025 0
M  V30 2179 C 209.464 -3.61191 -2.81612 0
M  V30 2180 N 210.955 -3.61847 -2.89172 0
M  V30 2181 C 211.69 -4.55004 -3.4894 0
M  V30 2182 N 211.186 -5.58482 -4.09963 0
M  V30 2183 N 212.979 -4.42594 -3.46506 0
M  V30 2184 H 205.13 -2.09221 -0.366094 0
M  V30 2185 H 207.393 -0.921003 -0.224629 0
M  V30 2186 H 207.099 -3.228 -1.39618 0
M  V30 2187 H 206.973 -2.37934 -2.9269 0
M  V30 2188 H 209.36 -1.45494 -2.5674 0
M  V30 2189 H 209.441 -2.33857 -1.03657 0
M  V30 2190 H 209.085 -4.52545 -2.30576 0
M  V30 2191 H 209.015 -3.61092 -3.83302 0
M  V30 2192 H 211.506 -2.87022 -2.45819 0
M  V30 2193 H 211.819 -6.25704 -4.53557 0
M  V30 2194 H 210.164 -5.62305 -4.08459 0
M  V30 2195 H 213.355 -3.60953 -2.98045 0
M  V30 2196 H 213.528 -5.15381 -3.92793 0
M  V30 2197 N 206.934 1.1197 -1.10907 0
M  V30 2198 C 207.844 2.21433 -0.774896 0
M  V30 2199 C 208.86 1.72478 0.229657 0
M  V30 2200 O 210.036 2.01288 0.0672008 0
M  V30 2201 C 207.101 3.4602 -0.216986 0
M  V30 2202 C 206.162 4.09791 -1.27944 0
M  V30 2203 C 205.395 5.28431 -0.748055 0
M  V30 2204 O 205.618 5.68823 0.423833 0
M  V30 2205 O 204.552 5.82644 -1.51027 0
M  V30 2206 H 208.378 2.5242 -1.68873 0
M  V30 2207 H 205.963 1.20399 -0.884555 0
M  V30 2208 H 207.845 4.21304 0.090059 0
M  V30 2209 H 206.52 3.16698 0.669633 0
M  V30 2210 H 205.427 3.36265 -1.63941 0
M  V30 2211 H 206.76 4.4328 -2.13925 0
M  V30 2212 N 208.412 0.89855 1.29475 0
M  V30 2213 C 209.66 0.522847 1.9522 0
M  V30 2214 C 209.981 -0.93371 1.71192 0
M  V30 2215 O 209.251 -1.65823 1.04305 0
M  V30 2216 H 207.831 0.190366 0.722336 0
M  V30 2217 H 210.493 1.14459 1.5775 0
M  V30 2218 H 209.589 0.704476 3.04045 0
M  V30 2219 N 209.89 -1.43072 0.660911 0
M  V30 2220 C 210.853 -2.29194 -0.0166406 0
M  V30 2221 C 211.853 -1.42609 -0.742912 0
M  V30 2222 O 213.043 -1.64155 -0.583004 0
M  V30 2223 C 210.175 -3.24831 -1.0343 0
M  V30 2224 H 211.368 -2.90596 0.741208 0
M  V30 2225 H 208.921 -1.5048 0.422532 0
M  V30 2226 H 209.656 -2.68339 -1.82111 0
M  V30 2227 H 209.441 -3.88676 -0.517082 0
M  V30 2228 H 210.931 -3.89451 -1.50723 0
M  V30 2229 N 211.368 -0.403325 -1.52352 0
M  V30 2230 C 212.278 0.432009 -2.30588 0
M  V30 2231 C 213.294 1.05884 -1.38075 0
M  V30 2232 O 214.47 1.06161 -1.71148 0
M  V30 2233 C 211.535 1.53669 -3.10784 0
M  V30 2234 C 210.596 0.933525 -4.19027 0
M  V30 2235 C 209.829 1.98557 -4.9539 0
M  V30 2236 O 210.052 3.20283 -4.71991 0
M  V30 2237 O 208.986 1.59504 -5.80381 0
M  V30 2238 H 212.812 -0.205739 -3.03002 0
M  V30 2239 H 210.397 -0.166675 -1.48467 0
M  V30 2240 H 212.279 2.17814 -3.60742 0
M  V30 2241 H 210.954 2.15915 -2.41169 0
M  V30 2242 H 209.861 0.254954 -3.7323 0
M  V30 2243 H 211.194 0.35508 -4.90918 0
M  V30 2244 N 212.846 1.57033 -0.133567 0
M  V30 2245 C 214.071 2.00475 0.531477 0
M  V30 2246 C 214.496 1.01291 1.58499 0
M  V30 2247 O 213.854 -0.0133279 1.81295 0
M  V30 2248 C 213.902 3.42729 1.12113 0
M  V30 2249 O 213.006 3.46498 2.23636 0
M  V30 2250 H 212.347 0.650876 0.131362 0
M  V30 2251 H 214.877 2.03344 -0.22634 0
M  V30 2252 H 214.887 3.81246 1.4531 0
M  V30 2253 H 213.562 4.14428 0.349557 0
M  V30 2254 H 212.139 3.19811 1.91769 0
M  V30 2255 N 214.325 -0.140222 1.56975 0
M  V30 2256 C 215.573 -0.850005 1.83356 0
M  V30 2257 C 215.894 -1.81399 0.71551 0
M  V30 2258 O 215.164 -1.94136 -0.262294 0
M  V30 2259 H 213.744 -0.316886 0.676456 0
M  V30 2260 H 216.406 -0.132608 1.94448 0
M  V30 2261 H 215.502 -1.40814 2.78528 0
M  V30 2262 N 215.803 -1.52179 -0.40978 0
M  V30 2263 C 217.051 -1.65878 -1.15451 0
M  V30 2264 C 217.372 -0.390771 -1.91044 0
M  V30 2265 O 216.642 0.594323 -1.86667 0
M  V30 2266 H 215.222 -0.611405 -0.429177 0
M  V30 2267 H 217.884 -1.89219 -0.467134 0
M  V30 2268 H 216.98 -2.49954 -1.86894 0
M  V30 2269 N 217.281 0.66697 -1.42791 0
M  V30 2270 C 218.244 1.76211 -1.46568 0
M  V30 2271 C 219.244 1.56896 -0.352196 0
M  V30 2272 O 220.434 1.63044 -0.613364 0
M  V30 2273 C 217.566 3.14935 -1.30494 0
M  V30 2274 H 218.759 1.74247 -2.44086 0
M  V30 2275 H 216.312 0.877342 -1.29354 0
M  V30 2276 H 217.047 3.2252 -0.339301 0
M  V30 2277 H 216.832 3.30359 -2.11199 0
M  V30 2278 H 218.322 3.94821 -1.36038 0
M  V30 2279 N 218.759 1.29093 0.90403 0
M  V30 2280 C 219.706 1.13853 2.00764 0
M  V30 2281 C 220.676 0.0330084 1.66067 0
M  V30 2282 O 221.861 0.199733 1.89752 0
M  V30 2283 C 219.001 0.816537 3.35301 0
M  V30 2284 C 218.114 2.00206 3.82807 0
M  V30 2285 C 217.249 1.61983 5.059 0
M  V30 2286 C 216.288 2.77143 5.45764 0
M  V30 2287 N 215.425 2.39346 6.60044 0
M  V30 2288 H 220.265 2.08276 2.13132 0
M  V30 2289 H 217.802 1.03648 1.04381 0
M  V30 2290 H 219.76 0.610557 4.12708 0
M  V30 2291 H 218.39 -0.090779 3.22672 0
M  V30 2292 H 217.442 2.31988 3.01473 0
M  V30 2293 H 218.754 2.86512 4.08304 0
M  V30 2294 H 217.908 1.37649 5.90879 0
M  V30 2295 H 216.647 0.728202 4.82233 0
M  V30 2296 H 215.652 3.02165 4.59322 0
M  V30 2297 H 216.877 3.66964 5.71414 0
M  V30 2298 H 214.823 1.52665 6.37989 0
M  V30 2299 H 214.74 3.19185 6.85315 0
M  V30 2300 H 216.008 2.1832 7.48303 0
M  V30 2301 N 220.237 -1.11381 1.11499 0
M  V30 2302 C 221.514 -1.7955 0.775965 0
M  V30 2303 C 221.894 -1.97859 -0.73588 0
M  V30 2304 O 221.242 -1.56376 -1.66609 0
M  V30 2305 C 221.452 -3.13196 1.53977 0
M  V30 2306 C 222.8 -3.88227 1.71944 0
M  V30 2307 O 223.824 -3.22887 1.50407 0
M  V30 2308 O 222.683 -5.05477 2.07738 0
M  V30 2309 H 219.777 -0.777728 0.28119 0
M  V30 2310 H 222.323 -1.18118 1.21845 0
M  V30 2311 H 221.095 -2.95229 2.56818 0
M  V30 2312 H 220.718 -3.82342 1.09088 0
M  V30 2313 N 221.715 -0.905404 -1.28997 0
M  V30 2314 C 222.961 -0.535039 -1.95615 0
M  V30 2315 C 223.294 0.917404 -1.71165 0
M  V30 2316 O 222.569 1.65123 -1.02785 0
M  V30 2317 C 222.852 -0.834918 -3.50287 0
M  V30 2318 C 222.705 -2.33948 -3.84172 0
M  V30 2319 C 224.024 -0.325318 -4.38896 0
M  V30 2320 H 221.143 -0.195861 -0.710498 0
M  V30 2321 H 223.785 -1.13313 -1.52513 0
M  V30 2322 H 221.935 -0.325904 -3.87131 0
M  V30 2323 H 223.607 -2.91847 -3.57243 0
M  V30 2324 H 221.85 -2.79789 -3.31513 0
M  V30 2325 H 222.521 -2.49987 -4.92149 0
M  V30 2326 H 224.997 -0.761256 -4.09077 0
M  V30 2327 H 223.873 -0.564295 -5.45992 0
M  V30 2328 H 224.134 0.774144 -4.35269 0
M  V30 2329 N 223.193 1.4272 -0.668489 0
M  V30 2330 C 224.609 1.55992 -0.33745 0
M  V30 2331 C 224.809 1.64933 1.15756 0
M  V30 2332 O 223.865 1.61278 1.94282 0
M  V30 2333 C 225.178 2.81314 -1.06222 0
M  V30 2334 C 226.726 2.95078 -1.04394 0
M  V30 2335 C 227.201 4.23252 -1.74991 0
M  V30 2336 N 228.692 4.3015 -1.71829 0
M  V30 2337 C 229.427 5.28127 -2.23315 0
M  V30 2338 N 228.923 6.32293 -2.83156 0
M  V30 2339 N 230.716 5.19882 -2.13726 0
M  V30 2340 H 222.867 1.3516 -1.63846 0
M  V30 2341 H 225.13 0.650174 -0.689912 0
M  V30 2342 H 224.836 2.80823 -2.11734 0
M  V30 2343 H 224.71 3.72012 -0.62344 0
M  V30 2344 H 227.097 2.951 0.0028244 0
M  V30 2345 H 227.178 2.05627 -1.52155 0
M  V30 2346 H 226.822 4.2399 -2.79633 0
M  V30 2347 H 226.752 5.11626 -1.24685 0
M  V30 2348 H 229.243 3.55499 -1.28175 0
M  V30 2349 H 229.556 7.03398 -3.20079 0
M  V30 2350 H 227.901 6.32873 -2.87223 0
M  V30 2351 H 231.092 4.37423 -1.66669 0
M  V30 2352 H 231.265 5.96077 -2.54158 0
M  V30 2353 N 224.671 0.411399 1.52136 0
M  V30 2354 C 225.948 -0.222308 1.94333 0
M  V30 2355 C 226.328 -1.6242 1.34844 0
M  V30 2356 O 225.676 -2.22384 0.525145 0
M  V30 2357 C 225.886 -0.226345 3.48265 0
M  V30 2358 C 227.234 -0.444592 4.22266 0
M  V30 2359 O 228.258 -0.305602 3.54887 0
M  V30 2360 O 227.117 -0.718749 5.41753 0
M  V30 2361 H 224.211 -0.143907 0.814383 0
M  V30 2362 H 226.757 0.467506 1.63133 0
M  V30 2363 H 225.529 0.75475 3.83952 0
M  V30 2364 H 225.152 -0.960163 3.85832 0
M  V30 2365 N 226.149 -1.5696 0.141893 0
M  V30 2366 C 227.112 -2.15316 -0.785587 0
M  V30 2367 C 228.112 -1.09366 -1.1788 0
M  V30 2368 O 229.302 -1.35031 -1.10056 0
M  V30 2369 C 226.434 -2.71211 -2.06537 0
M  V30 2370 H 227.627 -2.98608 -0.278041 0
M  V30 2371 H 225.18 -1.5593 -0.107519 0
M  V30 2372 H 225.915 -1.91571 -2.6167 0
M  V30 2373 H 225.7 -3.4872 -1.79268 0
M  V30 2374 H 227.19 -3.16189 -2.72789 0
M  V30 2375 N 227.627 0.131896 -1.57047 0
M  V30 2376 C 228.557 1.16384 -2.02428 0
M  V30 2377 C 229.538 1.43936 -0.90644 0
M  V30 2378 O 230.723 1.54599 -1.17528 0
M  V30 2379 C 227.853 2.49328 -2.4177 0
M  V30 2380 C 226.807 2.36266 -3.56879 0
M  V30 2381 C 226.133 3.74057 -3.8208 0
M  V30 2382 C 227.433 1.834 -4.89042 0
M  V30 2383 H 229.127 0.786433 -2.88887 0
M  V30 2384 H 226.673 0.376855 -1.38981 0
M  V30 2385 H 228.626 3.21759 -2.7212 0
M  V30 2386 H 227.35 2.88934 -1.52266 0
M  V30 2387 H 226.009 1.66286 -3.26718 0
M  V30 2388 H 225.657 4.11125 -2.89803 0
M  V30 2389 H 225.357 3.66174 -4.59554 0
M  V30 2390 H 226.881 4.48012 -4.1487 0
M  V30 2391 H 228.295 2.45636 -5.18011 0
M  V30 2392 H 226.692 1.8637 -5.70426 0
M  V30 2393 H 227.762 0.790662 -4.7841 0
M  V30 2394 N 229.106 1.52395 0.401703 0
M  V30 2395 C 230.383 1.57387 1.16141 0
M  V30 2396 C 230.763 0.359359 2.08019 0
M  V30 2397 O 230.111 -0.65326 2.18963 0
M  V30 2398 C 230.321 2.90631 1.93221 0
M  V30 2399 C 231.669 3.43904 2.49028 0
M  V30 2400 O 232.693 2.92421 2.03393 0
M  V30 2401 O 231.552 4.33823 3.32356 0
M  V30 2402 H 228.646 0.634262 0.530698 0
M  V30 2403 H 231.192 1.64725 0.407883 0
M  V30 2404 H 229.964 3.70473 1.25958 0
M  V30 2405 H 229.587 2.8662 2.75563 0
M  V30 2406 N 230.584 -0.659388 1.43143 0
M  V30 2407 C 232 -0.974337 1.26407 0
M  V30 2408 C 232.2 -2.007 0.179341 0
M  V30 2409 O 231.256 -2.4856 -0.444295 0
M  V30 2410 C 232.569 -1.46447 2.62628 0
M  V30 2411 C 234.117 -1.58144 2.7011 0
M  V30 2412 C 234.592 -2.1055 4.06734 0
M  V30 2413 N 236.083 -2.17861 4.08767 0
M  V30 2414 C 236.818 -2.59519 5.1131 0
M  V30 2415 N 236.314 -3.00518 6.24228 0
M  V30 2416 N 238.107 -2.59404 4.98664 0
M  V30 2417 H 230.258 0.0240528 2.12386 0
M  V30 2418 H 232.521 -0.0518065 0.946583 0
M  V30 2419 H 232.227 -0.780123 3.42939 0
M  V30 2420 H 232.101 -2.44058 2.87603 0
M  V30 2421 H 234.488 -2.25682 1.90136 0
M  V30 2422 H 234.569 -0.589828 2.48907 0
M  V30 2423 H 234.213 -1.43616 4.87172 0
M  V30 2424 H 234.143 -3.10531 4.25298 0
M  V30 2425 H 236.634 -1.88975 3.27257 0
M  V30 2426 H 236.947 -3.31036 6.98309 0
M  V30 2427 H 235.292 -2.98337 6.2771 0
M  V30 2428 H 238.483 -2.26747 4.09516 0
M  V30 2429 H 238.656 -2.91548 5.78709 0
M  V30 2430 N 232.062 -1.29571 -0.897171 0
M  V30 2431 C 232.995 -1.0924 -2.00354 0
M  V30 2432 C 233.973 -0.00354011 -1.626 0
M  V30 2433 O 235.157 -0.15473 -1.87864 0
M  V30 2434 C 232.284 -0.66352 -3.32137 0
M  V30 2435 C 231.33 -1.75146 -3.88878 0
M  V30 2436 S 232.163 -3.35124 -4.17674 0
M  V30 2437 C 233.319 -2.9411 -5.52494 0
M  V30 2438 H 233.552 -2.02907 -2.17292 0
M  V30 2439 H 231.085 -1.13746 -1.04408 0
M  V30 2440 H 233.043 -0.422791 -4.08317 0
M  V30 2441 H 231.704 0.253588 -3.13075 0
M  V30 2442 H 230.897 -1.40337 -4.84068 0
M  V30 2443 H 230.499 -1.94584 -3.19395 0
M  V30 2444 H 232.791 -2.41312 -6.33068 0
M  V30 2445 H 233.734 -3.88161 -5.9223 0
M  V30 2446 H 234.142 -2.32332 -5.14473 0
M  V30 2447 N 233.54 1.10788 -1.12088 0
M  V30 2448 C 234.487 2.17025 -0.785407 0
M  V30 2449 C 235.457 1.64265 0.246191 0
M  V30 2450 O 236.642 1.90412 0.121584 0
M  V30 2451 C 233.782 3.44249 -0.242177 0
M  V30 2452 C 232.895 4.1098 -1.33115 0
M  V30 2453 C 232.03 5.25911 -0.747741 0
M  V30 2454 C 231.069 5.84538 -1.81609 0
M  V30 2455 N 230.206 6.90853 -1.25167 0
M  V30 2456 H 235.046 2.45066 -1.69548 0
M  V30 2457 H 232.583 1.20297 -0.846582 0
M  V30 2458 H 234.541 4.17101 0.0908026 0
M  V30 2459 H 233.171 3.16571 0.631072 0
M  V30 2460 H 232.223 3.36133 -1.78097 0
M  V30 2461 H 233.535 4.50601 -2.13917 0
M  V30 2462 H 232.689 6.056 -0.365216 0
M  V30 2463 H 231.428 4.87614 0.0915188 0
M  V30 2464 H 230.433 5.03522 -2.20785 0
M  V30 2465 H 231.658 6.249 -2.6585 0
M  V30 2466 H 229.604 6.54562 -0.434174 0
M  V30 2467 H 229.521 7.29166 -1.99633 0
M  V30 2468 H 230.789 7.7433 -0.896259 0
M  V30 2469 N 235.018 0.912232 1.28515 0
M  V30 2470 C 235.928 0.404506 2.31086 0
M  V30 2471 C 236.944 -0.50707 1.66448 0
M  V30 2472 O 238.12 -0.393624 1.97516 0
M  V30 2473 C 235.185 -0.348572 3.44943 0
M  V30 2474 C 234.246 0.59604 4.25142 0
M  V30 2475 C 233.479 -0.121194 5.33562 0
M  V30 2476 O 233.702 -1.34317 5.5436 0
M  V30 2477 O 232.636 0.542716 5.99448 0
M  V30 2478 H 236.462 1.25579 2.76521 0
M  V30 2479 H 234.047 0.676998 1.33181 0
M  V30 2480 H 235.929 -0.77395 4.14232 0
M  V30 2481 H 234.604 -1.17571 3.01594 0
M  V30 2482 H 233.511 1.07079 3.58448 0
M  V30 2483 H 234.844 1.38995 4.72167 0
M  V30 2484 N 236.496 -1.42363 0.676048 0
M  V30 2485 C 237.459 -2.29199 0.00766941 0
M  V30 2486 C 238.459 -1.43389 -0.727745 0
M  V30 2487 O 239.649 -1.64764 -0.56556 0
M  V30 2488 C 236.781 -3.2591 -0.999785 0
M  V30 2489 H 237.974 -2.89794 0.771988 0
M  V30 2490 H 235.527 -1.50024 0.438468 0
M  V30 2491 H 236.262 -2.70256 -1.79255 0
M  V30 2492 H 236.047 -3.89202 -0.475829 0
M  V30 2493 H 237.537 -3.91028 -1.46583 0
M  V30 2494 N 237.974 -0.419461 -1.51915 0
M  V30 2495 C 239.221 0.152939 -2.01922 0
M  V30 2496 C 239.549 1.4426 -1.30458 0
M  V30 2497 O 238.804 1.91514 -0.402593 0
M  V30 2498 C 239.103 0.437067 -3.54717 0
M  V30 2499 C 238.769 -0.764632 -4.44369 0
M  V30 2500 C 237.431 -1.09423 -4.68594 0
M  V30 2501 C 239.783 -1.56713 -4.97082 0
M  V30 2502 C 237.111 -2.22732 -5.42777 0
M  V30 2503 C 239.463 -2.69107 -5.72507 0
M  V30 2504 C 238.127 -3.02541 -5.95 0
M  V30 2505 H 237.397 0.0559644 -0.738884 0
M  V30 2506 H 240.044 -0.562998 -1.83037 0
M  V30 2507 H 238.349 1.23469 -3.71837 0
M  V30 2508 H 240.046 0.893083 -3.90928 0
M  V30 2509 H 236.636 -0.497775 -4.257 0
M  V30 2510 H 240.82 -1.32571 -4.78266 0
M  V30 2511 H 236.076 -2.48971 -5.58411 0
M  V30 2512 H 240.25 -3.31671 -6.12346 0
M  V30 2513 H 237.877 -3.90457 -6.52264 0
M  V30 2514 N 239.452 1.56882 -0.150215 0
M  V30 2515 C 240.729 1.87844 0.545327 0
M  V30 2516 C 241.109 1.0567 1.82749 0
M  V30 2517 O 240.457 0.144442 2.28043 0
M  V30 2518 C 240.667 3.39526 0.80767 0
M  V30 2519 C 242.015 4.08814 1.14703 0
M  V30 2520 O 243.039 3.44723 0.896917 0
M  V30 2521 O 241.898 5.22004 1.61784 0
M  V30 2522 H 238.992 0.778677 0.278553 0
M  V30 2523 H 241.538 1.68666 -0.187068 0
M  V30 2524 H 240.31 3.91173 -0.0996096 0
M  V30 2525 H 239.933 3.64243 1.59413 0
M  V30 2526 N 240.93 -0.123565 1.57115 0
M  V30 2527 C 241.86 -1.15309 2.03042 0
M  V30 2528 C 242.841 -1.43454 0.914061 0
M  V30 2529 O 244.026 -1.53973 1.18347 0
M  V30 2530 C 241.156 -2.48043 2.43089 0
M  V30 2531 C 240.11 -2.3437 3.58127 0
M  V30 2532 C 239.436 -3.72026 3.84059 0
M  V30 2533 C 240.736 -1.80804 4.90007 0
M  V30 2534 H 242.43 -0.771102 2.893 0
M  V30 2535 H 239.976 -0.369479 1.39179 0
M  V30 2536 H 241.929 -3.20311 2.73823 0
M  V30 2537 H 240.653 -2.88122 1.53796 0
M  V30 2538 H 239.312 -1.64551 3.27595 0
M  V30 2539 H 238.96 -4.09582 2.91979 0
M  V30 2540 H 238.66 -3.63732 4.6149 0
M  V30 2541 H 240.184 -4.45806 4.1724 0
M  V30 2542 H 241.598 -2.42886 5.19307 0
M  V30 2543 H 239.995 -1.83343 5.71407 0
M  V30 2544 H 241.065 -0.76528 4.78823 0
M  V30 2545 N 242.408 -1.52605 -0.393616 0
M  V30 2546 C 243.338 -1.80022 -1.48709 0
M  V30 2547 C 244.319 -0.651995 -1.57108 0
M  V30 2548 O 245.504 -0.89913 -1.72132 0
M  V30 2549 C 242.634 -1.96492 -2.86371 0
M  V30 2550 C 241.588 -3.12161 -2.92813 0
M  V30 2551 C 240.914 -3.13877 -4.3288 0
M  V30 2552 C 242.214 -4.51322 -2.6288 0
M  V30 2553 H 243.908 -2.71589 -1.26015 0
M  V30 2554 H 241.454 -1.30684 -0.604778 0
M  V30 2555 H 243.407 -2.14255 -3.62867 0
M  V30 2556 H 242.131 -1.01611 -3.10391 0
M  V30 2557 H 240.79 -2.94173 -2.18764 0
M  V30 2558 H 240.438 -2.16687 -4.53933 0
M  V30 2559 H 240.138 -3.91576 -4.38112 0
M  V30 2560 H 241.662 -3.33789 -5.1129 0
M  V30 2561 H 243.076 -4.69435 -3.29096 0
M  V30 2562 H 241.473 -5.31053 -2.79468 0
M  V30 2563 H 242.543 -4.58353 -1.58242 0
M  V30 2564 N 243.887 0.651787 -1.4349 0
M  V30 2565 C 245.135 1.40888 -1.44897 0
M  V30 2566 C 245.456 1.94856 -0.0749086 0
M  V30 2567 O 244.726 1.74518 0.889956 0
M  V30 2568 H 243.306 0.522887 -0.533478 0
M  V30 2569 H 245.968 0.768609 -1.79104 0
M  V30 2570 H 245.064 2.25052 -2.16236 0
M  V30 2571 N 245.365 1.30045 0.890287 0
M  V30 2572 C 246.275 1.17885 2.02831 0
M  V30 2573 C 247.291 0.0999609 1.73713 0
M  V30 2574 O 248.467 0.313867 1.98939 0
M  V30 2575 C 245.532 0.866079 3.35708 0
M  V30 2576 C 244.593 2.02979 3.78283 0
M  V30 2577 C 243.826 1.73184 5.0482 0
M  V30 2578 O 244.049 0.657237 5.66601 0
M  V30 2579 O 242.983 2.58267 5.43674 0
M  V30 2580 H 246.809 2.13474 2.16015 0
M  V30 2581 H 244.394 1.09587 1.01543 0
M  V30 2582 H 246.276 0.706623 4.15433 0
M  V30 2583 H 244.951 -0.0599443 3.23644 0
M  V30 2584 H 243.858 2.24454 2.99285 0
M  V30 2585 H 245.191 2.93734 3.94944 0
M  V30 2586 N 246.843 -1.10192 1.12674 0
M  V30 2587 C 248.073 -1.85713 0.905213 0
M  V30 2588 C 248.481 -1.81056 -0.549108 0
M  V30 2589 O 247.824 -1.19927 -1.39151 0
M  V30 2590 C 247.886 -3.34972 1.30516 0
M  V30 2591 C 247.55 -3.63385 2.77129 0
M  V30 2592 C 248.547 -3.59772 3.75313 0
M  V30 2593 C 246.232 -3.91981 3.14096 0
M  V30 2594 C 248.226 -3.84354 5.08479 0
M  V30 2595 C 245.913 -4.16218 4.47443 0
M  V30 2596 C 246.911 -4.12395 5.44444 0
M  V30 2597 O 246.599 -4.36014 6.75387 0
M  V30 2598 H 246.331 -0.593719 0.323223 0
M  V30 2599 H 248.885 -1.40198 1.50112 0
M  V30 2600 H 247.115 -3.81156 0.652463 0
M  V30 2601 H 248.804 -3.91886 1.05736 0
M  V30 2602 H 249.57 -3.37716 3.48099 0
M  V30 2603 H 245.449 -3.94085 2.39202 0
M  V30 2604 H 248.993 -3.81285 5.84181 0
M  V30 2605 H 244.89 -4.37754 4.74386 0
M  V30 2606 H 245.658 -4.53516 6.8137 0
M  V30 2607 N 248.321 -0.919034 -1.28029 0
M  V30 2608 C 249.567 -0.555757 -1.95036 0
M  V30 2609 C 249.9 0.899198 -1.72128 0
M  V30 2610 O 249.175 1.64023 -1.04531 0
M  V30 2611 C 249.458 -0.872024 -3.49382 0
M  V30 2612 C 249.311 -2.3801 -3.81669 0
M  V30 2613 C 250.63 -0.37185 -4.38526 0
M  V30 2614 H 247.749 -0.203386 -0.708381 0
M  V30 2615 H 250.391 -1.14924 -1.51303 0
M  V30 2616 H 248.541 -0.366946 -3.86763 0
M  V30 2617 H 250.213 -2.9562 -3.54128 0
M  V30 2618 H 248.456 -2.83289 -3.28526 0
M  V30 2619 H 249.127 -2.55192 -4.8947 0
M  V30 2620 H 251.603 -0.804602 -4.08247 0
M  V30 2621 H 250.479 -0.622173 -5.45362 0
M  V30 2622 H 250.74 0.727934 -4.36066 0
M  V30 2623 N 249.799 1.42003 -0.683588 0
M  V30 2624 C 251.027 2.05746 -0.218182 0
M  V30 2625 C 251.442 1.51396 1.12804 0
M  V30 2626 O 250.799 0.657303 1.70252 0
M  V30 2627 C 250.85 3.61171 -0.154131 0
M  V30 2628 O 250.571 4.13508 -1.44716 0
M  V30 2629 C 252.072 4.42042 0.333713 0
M  V30 2630 H 249.292 0.662888 -0.10402 0
M  V30 2631 H 251.836 1.81987 -0.9328 0
M  V30 2632 H 249.991 3.84012 0.511231 0
M  V30 2633 H 250.405 5.07453 -1.32632 0
M  V30 2634 H 251.879 5.51028 0.327423 0
M  V30 2635 H 252.356 4.17269 1.37053 0
M  V30 2636 H 252.962 4.24239 -0.300222 0
M  V30 2637 N 251.277 0.427512 1.51691 0
M  V30 2638 C 252.502 -0.143601 2.06902 0
M  V30 2639 C 252.927 -1.36536 1.29382 0
M  V30 2640 O 252.285 -1.78289 0.329043 0
M  V30 2641 C 252.333 -0.454207 3.57728 0
M  V30 2642 O 251.437 -1.54228 3.82475 0
M  V30 2643 H 250.778 -0.00617128 0.663971 0
M  V30 2644 H 253.308 0.606014 1.95419 0
M  V30 2645 H 253.318 -0.707525 4.01818 0
M  V30 2646 H 251.993 0.438812 4.13579 0
M  V30 2647 H 250.57 -1.2797 3.50254 0
M  V30 2648 N 252.755 -1.56801 0.158532 0
M  V30 2649 C 253.687 -2.14488 -0.807923 0
M  V30 2650 C 254.7 -1.09721 -1.20271 0
M  V30 2651 O 255.889 -1.36956 -1.14478 0
M  V30 2652 C 252.989 -2.66217 -2.09718 0
M  V30 2653 C 252.162 -3.95507 -1.86796 0
M  V30 2654 C 251.221 -4.3243 -2.99818 0
M  V30 2655 O 250.247 -5.00543 -2.71008 0
M  V30 2656 N 251.449 -3.92947 -4.27285 0
M  V30 2657 H 254.214 -2.98042 -0.314816 0
M  V30 2658 H 251.775 -1.61881 -0.0246692 0
M  V30 2659 H 253.767 -2.87924 -2.84398 0
M  V30 2660 H 252.337 -1.87324 -2.50257 0
M  V30 2661 H 251.557 -3.82309 -0.96089 0
M  V30 2662 H 252.845 -4.79972 -1.68833 0
M  V30 2663 H 252.243 -3.38087 -4.53557 0
M  V30 2664 H 250.8 -4.19681 -4.9871 0
M  V30 2665 N 254.233 0.115231 -1.57178 0
M  V30 2666 C 255.481 0.820727 -1.84685 0
M  V30 2667 C 255.802 1.80237 -0.744279 0
M  V30 2668 O 255.072 1.94529 0.231375 0
M  V30 2669 H 253.652 0.306084 -0.681411 0
M  V30 2670 H 256.314 0.101656 -1.94635 0
M  V30 2671 H 255.41 1.36366 -2.80733 0
M  V30 2672 N 255.711 1.52812 0.385517 0
M  V30 2673 C 256.941 1.71658 1.14966 0
M  V30 2674 C 257.349 0.436253 1.84102 0
M  V30 2675 O 256.692 -0.599313 1.73649 0
M  V30 2676 C 256.754 2.81309 2.23843 0
M  V30 2677 C 256.418 4.22313 1.74644 0
M  V30 2678 C 257.415 5.05352 1.22129 0
M  V30 2679 C 255.1 4.68648 1.80761 0
M  V30 2680 C 257.094 6.32807 0.763838 0
M  V30 2681 C 254.781 5.96086 1.34627 0
M  V30 2682 C 255.779 6.77996 0.825264 0
M  V30 2683 O 255.467 8.03045 0.370669 0
M  V30 2684 H 255.199 0.578022 0.350523 0
M  V30 2685 H 257.753 2.00263 0.456509 0
M  V30 2686 H 255.983 2.48133 2.96592 0
M  V30 2687 H 257.672 2.88524 2.85497 0
M  V30 2688 H 258.438 4.70736 1.16758 0
M  V30 2689 H 254.317 4.04979 2.20256 0
M  V30 2690 H 257.861 6.96689 0.356494 0
M  V30 2691 H 253.758 6.30205 1.39686 0
M  V30 2692 H 254.526 8.17021 0.491829 0
M  V30 2693 N 257.189 -0.644168 1.43834 0
M  V30 2694 C 258.466 -1.40188 1.36406 0
M  V30 2695 C 258.846 -2.11094 0.0163124 0
M  V30 2696 O 258.194 -2.05426 -1.00062 0
M  V30 2697 C 258.404 -2.3791 2.55343 0
M  V30 2698 C 259.752 -3.01637 2.98832 0
M  V30 2699 O 260.776 -2.48237 2.55455 0
M  V30 2700 O 259.635 -3.98477 3.74003 0
M  V30 2701 H 256.729 -0.626773 0.539523 0
M  V30 2702 H 259.275 -0.670317 1.559 0
M  V30 2703 H 258.047 -1.84525 3.4506 0
M  V30 2704 H 257.67 -3.18503 2.37995 0
M  V30 2705 N 258.668 -1.30515 -0.883378 0
M  V30 2706 C 259.917 -1.18795 -1.63005 0
M  V30 2707 C 260.23 0.255923 -1.93919 0
M  V30 2708 O 261.436 0.494654 -2.66956 0
M  V30 2709 C 259.892 -2.07878 -2.93794 0
M  V30 2710 C 259.5 -3.57184 -2.70414 0
M  V30 2711 C 261.244 -2.04924 -3.71761 0
M  V30 2712 C 259.151 -4.38317 -3.97029 0
M  V30 2713 H 258.081 -0.441031 -0.611562 0
M  V30 2714 H 260.732 -1.55275 -0.977854 0
M  V30 2715 H 259.114 -1.64283 -3.60315 0
M  V30 2716 H 260.288 -4.08937 -2.12384 0
M  V30 2717 H 258.603 -3.61976 -2.0582 0
M  V30 2718 H 261.2 -2.62792 -4.65665 0
M  V30 2719 H 261.543 -1.0331 -4.03277 0
M  V30 2720 H 262.076 -2.46649 -3.12104 0
M  V30 2721 H 258.815 -5.40632 -3.70671 0
M  V30 2722 H 258.335 -3.91326 -4.54559 0
M  V30 2723 H 260.014 -4.49834 -4.65036 0
M  V30 2724 N 260.146 1.09593 -1.13257 0
M  V30 2725 C 261.562 1.33775 -0.870423 0
M  V30 2726 C 261.762 1.95327 0.494926 0
M  V30 2727 O 260.818 2.19853 1.2418 0
M  V30 2728 C 262.131 2.25106 -1.99369 0
M  V30 2729 C 263.679 2.3862 -2.02558 0
M  V30 2730 C 264.154 3.33285 -3.14142 0
M  V30 2731 N 265.645 3.40857 -3.13641 0
M  V30 2732 C 266.38 4.14101 -3.96621 0
M  V30 2733 N 265.876 4.90157 -4.8961 0
M  V30 2734 N 267.669 4.09808 -3.84726 0
M  V30 2735 H 259.82 0.680136 -2.01216 0
M  V30 2736 H 262.083 0.362133 -0.876107 0
M  V30 2737 H 261.789 1.87103 -2.97801 0
M  V30 2738 H 261.663 3.25481 -1.90635 0
M  V30 2739 H 264.05 2.75887 -1.0474 0
M  V30 2740 H 264.131 1.38028 -2.15364 0
M  V30 2741 H 263.775 2.96741 -4.12198 0
M  V30 2742 H 263.705 4.33776 -2.98574 0
M  V30 2743 H 266.196 2.86624 -2.46282 0
M  V30 2744 H 266.509 5.4347 -5.49418 0
M  V30 2745 H 264.854 4.89251 -4.93617 0
M  V30 2746 H 268.045 3.4949 -3.11408 0
M  V30 2747 H 268.218 4.66629 -4.49623 0
M  V30 2748 N 261.624 0.925811 1.2754 0
M  V30 2749 C 262.871 0.565255 1.94451 0
M  V30 2750 C 263.199 -0.89316 1.7278 0
M  V30 2751 O 262.454 -1.65213 1.04895 0
M  V30 2752 C 262.753 0.835296 3.47502 0
M  V30 2753 C 262.419 2.27515 3.89291 0
M  V30 2754 C 261.081 2.66879 4.00411 0
M  V30 2755 C 263.433 3.21158 4.10496 0
M  V30 2756 C 260.761 3.99014 4.30122 0
M  V30 2757 C 263.113 4.52871 4.4169 0
M  V30 2758 C 261.777 4.92072 4.51023 0
M  V30 2759 H 261.047 0.206841 0.711546 0
M  V30 2760 H 263.694 1.16942 1.51647 0
M  V30 2761 H 261.999 0.148442 3.91519 0
M  V30 2762 H 263.696 0.535322 3.97411 0
M  V30 2763 H 260.286 1.95976 3.81171 0
M  V30 2764 H 264.47 2.9195 4.01346 0
M  V30 2765 H 259.726 4.2907 4.35556 0
M  V30 2766 H 263.9 5.25436 4.57045 0
M  V30 2767 H 261.527 5.9449 4.738 0
M  V30 2768 N 263.102 -1.41638 0.69111 0
M  V30 2769 C 264.065 -2.29178 0.0319786 0
M  V30 2770 C 265.065 -1.44153 -0.712496 0
M  V30 2771 O 266.255 -1.65354 -0.548053 0
M  V30 2772 C 263.387 -3.26952 -0.965161 0
M  V30 2773 H 264.58 -2.88959 0.802681 0
M  V30 2774 H 262.133 -1.4955 0.454356 0
M  V30 2775 H 262.868 -2.72142 -1.76378 0
M  V30 2776 H 262.653 -3.89685 -0.434522 0
M  V30 2777 H 264.143 -3.92561 -1.42428 0
M  V30 2778 N 264.58 -0.43555 -1.51462 0
M  V30 2779 C 265.829 0.133007 -2.01261 0
M  V30 2780 C 266.142 1.43942 -1.32439 0
M  V30 2781 O 267.348 2.09081 -1.73198 0
M  V30 2782 C 265.804 0.287581 -3.58749 0
M  V30 2783 C 265.412 -1.00829 -4.36506 0
M  V30 2784 C 267.156 0.810004 -4.167 0
M  V30 2785 C 265.063 -0.819454 -5.85695 0
M  V30 2786 H 263.993 0.0534822 -0.752101 0
M  V30 2787 H 266.644 -0.565038 -1.74584 0
M  V30 2788 H 265.026 1.04859 -3.81865 0
M  V30 2789 H 266.2 -1.77749 -4.25138 0
M  V30 2790 H 264.515 -1.45911 -3.89999 0
M  V30 2791 H 267.112 0.967743 -5.2587 0
M  V30 2792 H 267.455 1.79196 -3.75758 0
M  V30 2793 H 267.988 0.107357 -3.97655 0
M  V30 2794 H 264.727 -1.77374 -6.31046 0
M  V30 2795 H 264.247 -0.0900208 -5.99732 0
M  V30 2796 H 265.926 -0.471949 -6.45276 0
M  V30 2797 N 266.058 1.56714 -0.166846 0
M  V30 2798 C 266.968 2.21331 0.777791 0
M  V30 2799 C 267.984 1.20358 1.25658 0
M  V30 2800 O 269.16 1.53005 1.30964 0
M  V30 2801 C 266.225 2.83787 1.99163 0
M  V30 2802 C 265.286 3.99947 1.56016 0
M  V30 2803 C 264.519 4.59415 2.71613 0
M  V30 2804 O 264.742 4.17769 3.88362 0
M  V30 2805 O 263.676 5.49359 2.45945 0
M  V30 2806 H 267.502 3.02605 0.257636 0
M  V30 2807 H 265.087 1.49275 0.0611393 0
M  V30 2808 H 266.969 3.23405 2.70161 0
M  V30 2809 H 265.644 2.05513 2.50092 0
M  V30 2810 H 264.551 3.65007 0.819809 0
M  V30 2811 H 265.884 4.79801 1.09782 0
M  V30 2812 N 267.536 -0.106894 1.57237 0
M  V30 2813 C 268.947 -0.662723 1.74542 0
M  V30 2814 C 269.298 -1.7971 0.787319 0
M  V30 2815 O 268.423 -2.16368 -0.0369636 0
M  V30 2816 C 269.018 -1.20896 3.16496 0
M  V30 2817 C 267.577 -1.71096 3.35266 0
M  V30 2818 C 266.724 -0.615642 2.7038 0
M  V30 2819 H 269.675 0.119106 1.58252 0
M  V30 2820 H 269.696 -2.07847 3.18716 0
M  V30 2821 H 269.208 -0.383122 3.86204 0
M  V30 2822 H 267.309 -2.56119 2.70618 0
M  V30 2823 H 267.422 -1.81208 4.43509 0
M  V30 2824 H 265.786 -1.05222 2.31949 0
M  V30 2825 H 266.569 0.199419 3.4272 0
M  V30 2826 N 269.014 -1.53014 -0.377408 0
M  V30 2827 C 269.961 -1.78616 -1.46168 0
M  V30 2828 C 270.931 -0.629917 -1.53692 0
M  V30 2829 O 272.116 -0.870861 -1.69766 0
M  V30 2830 C 269.256 -1.97123 -2.8326 0
M  V30 2831 C 268.369 -3.24831 -2.84796 0
M  V30 2832 C 267.504 -3.33591 -4.13389 0
M  V30 2833 C 266.543 -4.55377 -4.09021 0
M  V30 2834 N 265.68 -4.61355 -5.29241 0
M  V30 2835 H 270.52 -2.71142 -1.23637 0
M  V30 2836 H 268.057 -1.34326 -0.599577 0
M  V30 2837 H 270.015 -2.05839 -3.62886 0
M  V30 2838 H 268.645 -1.07946 -3.04216 0
M  V30 2839 H 267.697 -3.25128 -1.97474 0
M  V30 2840 H 269.009 -4.14523 -2.77439 0
M  V30 2841 H 268.163 -3.41554 -5.01424 0
M  V30 2842 H 266.902 -2.41894 -4.23484 0
M  V30 2843 H 265.907 -4.47527 -3.19373 0
M  V30 2844 H 267.132 -5.48402 -4.00539 0
M  V30 2845 H 265.078 -3.72554 -5.39944 0
M  V30 2846 H 264.995 -5.44935 -5.24006 0
M  V30 2847 H 266.263 -4.73586 -6.19141 0
M  V30 2848 N 270.492 0.636531 -1.44174 0
M  V30 2849 C 271.903 1.21806 -1.41493 0
M  V30 2850 C 272.254 1.95785 -0.1275 0
M  V30 2851 O 271.379 2.02147 0.772376 0
M  V30 2852 C 271.974 2.21551 -2.56321 0
M  V30 2853 C 270.533 2.75143 -2.56853 0
M  V30 2854 C 269.68 1.50052 -2.33195 0
M  V30 2855 H 272.631 0.427531 -1.52833 0
M  V30 2856 H 272.652 3.0405 -2.28765 0
M  V30 2857 H 272.164 1.67679 -3.50008 0
M  V30 2858 H 270.265 3.33033 -1.67093 0
M  V30 2859 H 270.378 3.2155 -3.55165 0
M  V30 2860 H 268.742 1.77993 -1.82183 0
M  V30 2861 H 269.525 0.980903 -3.28988 0
M  V30 2862 N 271.97 1.30982 0.876444 0
M  V30 2863 C 272.918 1.18006 2.00443 0
M  V30 2864 C 273.912 0.0898871 1.69161 0
M  V30 2865 O 275.118 0.251333 1.78237 0
M  V30 2866 H 271.493 0.365196 0.65737 0
M  V30 2867 H 273.464 2.13453 2.0852 0
M  V30 2868 C 272.213 0.897521 3.35916 0
M  V30 2869 H 271.536 1.7285 3.60504 0
M  V30 2870 H 272.976 0.846874 4.15456 0
M  V30 2871 C 271.435 -0.399674 3.34521 0
M  V30 2872 O 271.965 -1.41852 3.7582 0
M  V30 2873 N 270.171 -0.413893 2.87637 0
M  V30 2874 H 269.718 0.41571 2.54224 0
M  V30 2875 H 269.676 -1.28175 2.87086 0
M  V30 2876 N 273.449 -1.08991 1.13837 0
M  V30 2877 C 274.359 -2.19301 0.833333 0
M  V30 2878 C 275.375 -1.73026 -0.183847 0
M  V30 2879 O 276.551 -2.01395 -0.0138092 0
M  V30 2880 C 273.616 -3.45323 0.308651 0
M  V30 2881 C 272.677 -4.06255 1.38764 0
M  V30 2882 C 271.91 -5.26262 0.887896 0
M  V30 2883 O 272.133 -5.69747 -0.27287 0
M  V30 2884 O 271.067 -5.78435 1.66421 0
M  V30 2885 H 274.893 -2.47854 1.75506 0
M  V30 2886 H 272.478 -1.18012 0.916166 0
M  V30 2887 H 274.36 -4.21394 0.0216739 0
M  V30 2888 H 273.035 -3.18362 -0.585431 0
M  V30 2889 H 271.942 -3.318 1.72799 0
M  V30 2890 H 273.275 -4.37452 2.25602 0
M  V30 2891 N 274.927 -0.932562 -1.27047 0
M  V30 2892 C 276.338 -0.619451 -1.76124 0
M  V30 2893 C 276.689 0.865397 -1.76083 0
M  V30 2894 O 275.814 1.67722 -1.36742 0
M  V30 2895 C 276.409 -1.11771 -3.19832 0
M  V30 2896 C 274.968 -0.855174 -3.66557 0
M  V30 2897 C 274.115 -1.27362 -2.46321 0
M  V30 2898 H 277.066 -1.11181 -1.13245 0
M  V30 2899 H 277.087 -0.46759 -3.77616 0
M  V30 2900 H 276.599 -2.19842 -3.1983 0
M  V30 2901 H 274.7 0.211524 -3.71999 0
M  V30 2902 H 274.813 -1.47613 -4.55793 0
M  V30 2903 H 273.177 -0.692119 -2.45116 0
M  V30 2904 H 273.96 -2.36307 -2.49025 0
M  V30 2905 N 276.405 1.4127 -0.698611 0
M  V30 2906 C 277.821 1.55241 -0.370462 0
M  V30 2907 C 278.021 1.67351 1.12231 0
M  V30 2908 O 277.077 1.65363 1.90818 0
M  V30 2909 C 278.39 2.78997 -1.12165 0
M  V30 2910 C 279.938 2.92797 -1.1063 0
M  V30 2911 C 280.413 4.19445 -1.8393 0
M  V30 2912 N 281.904 4.26409 -1.80914 0
M  V30 2913 C 282.639 5.23271 -2.34467 0
M  V30 2914 N 282.135 6.26145 -2.96504 0
M  V30 2915 N 283.928 5.15232 -2.24706 0
M  V30 2916 H 276.079 1.31654 -1.66676 0
M  V30 2917 H 278.342 0.635393 -0.703548 0
M  V30 2918 H 278.048 2.76268 -2.17644 0
M  V30 2919 H 277.922 3.70606 -0.702209 0
M  V30 2920 H 280.309 2.95039 -0.0597713 0
M  V30 2921 H 280.39 2.02353 -1.56483 0
M  V30 2922 H 280.034 4.17964 -2.88563 0
M  V30 2923 H 279.964 5.08866 -1.35509 0
M  V30 2924 H 282.455 3.527 -1.35687 0
M  V30 2925 H 282.768 6.96451 -3.34927 0
M  V30 2926 H 281.113 6.26638 -3.00583 0
M  V30 2927 H 284.304 4.33789 -1.7591 0
M  V30 2928 H 284.477 5.90552 -2.66745 0
M  V30 2929 N 277.883 0.443576 1.51229 0
M  V30 2930 C 279.131 -0.120557 2.0174 0
M  V30 2931 C 279.452 -1.42665 1.32935 0
M  V30 2932 O 278.722 -1.9028 0.465866 0
M  V30 2933 H 277.302 -0.0475426 0.745486 0
M  V30 2934 H 279.964 0.587711 1.85828 0
M  V30 2935 H 279.06 -0.291972 3.10731 0
M  V30 2936 N 279.361 -1.56624 0.175154 0
M  V30 2937 C 280.638 -1.88688 -0.515373 0
M  V30 2938 C 281.018 -1.08564 -1.81044 0
M  V30 2939 O 280.366 -0.180703 -2.27784 0
M  V30 2940 C 280.576 -3.40768 -0.753552 0
M  V30 2941 C 281.924 -4.10587 -1.08184 0
M  V30 2942 O 282.948 -3.46106 -0.841961 0
M  V30 2943 O 281.807 -5.24512 -1.53459 0
M  V30 2944 H 278.901 -0.78301 -0.26613 0
M  V30 2945 H 281.447 -1.68347 0.213877 0
M  V30 2946 H 280.219 -3.90965 0.161829 0
M  V30 2947 H 279.842 -3.66733 -1.53598 0
M  V30 2948 N 280.839 0.0985539 -1.57292 0
M  V30 2949 C 282.088 0.801358 -1.85098 0
M  V30 2950 C 282.401 1.80066 -0.763902 0
M  V30 2951 O 283.607 2.55112 -0.928981 0
M  V30 2952 C 282.063 1.47599 -3.28242 0
M  V30 2953 C 281.671 0.516624 -4.45011 0
M  V30 2954 C 283.415 2.16272 -3.65276 0
M  V30 2955 C 281.322 1.19564 -5.79188 0
M  V30 2956 H 280.252 0.303022 -0.69043 0
M  V30 2957 H 282.903 0.0542623 -1.8342 0
M  V30 2958 H 281.285 2.27042 -3.2445 0
M  V30 2959 H 282.459 -0.246065 -4.60143 0
M  V30 2960 H 280.774 -0.064227 -4.1635 0
M  V30 2961 H 283.371 2.67802 -4.62803 0
M  V30 2962 H 283.714 2.95009 -2.93727 0
M  V30 2963 H 284.247 1.43693 -3.70941 0
M  V30 2964 H 280.986 0.449157 -6.53959 0
M  V30 2965 H 280.506 1.92984 -5.67906 0
M  V30 2966 H 282.185 1.7231 -6.23633 0
M  V30 2967 N 282.317 1.53212 0.369288 0
M  V30 2968 C 283.247 1.82365 1.45826 0
M  V30 2969 C 284.228 0.676907 1.56051 0
M  V30 2970 O 285.413 0.926401 1.70679 0
M  V30 2971 C 282.543 2.01023 2.83208 0
M  V30 2972 C 281.497 3.1678 2.8781 0
M  V30 2973 C 280.823 3.20724 4.27832 0
M  V30 2974 C 282.123 4.55447 2.55667 0
M  V30 2975 H 283.817 2.73559 1.21678 0
M  V30 2976 H 281.363 1.3163 0.583911 0
M  V30 2977 H 283.316 2.20001 3.59413 0
M  V30 2978 H 282.04 1.06536 3.08736 0
M  V30 2979 H 280.699 2.97616 2.14056 0
M  V30 2980 H 280.347 2.23882 4.50429 0
M  V30 2981 H 280.047 3.98496 4.31827 0
M  V30 2982 H 281.571 3.41881 5.05915 0
M  V30 2983 H 282.985 4.74611 3.21586 0
M  V30 2984 H 281.382 5.35432 2.70984 0
M  V30 2985 H 282.452 4.60812 1.5093 0
M  V30 2986 N 283.795 -0.628877 1.44509 0
M  V30 2987 C 284.725 -1.75187 1.54376 0
M  V30 2988 C 285.706 -1.65411 0.396618 0
M  V30 2989 O 286.891 -1.84137 0.617031 0
M  V30 2990 C 284.021 -3.13725 1.48976 0
M  V30 2991 C 282.975 -3.38291 2.62189 0
M  V30 2992 C 282.301 -4.76883 2.41841 0
M  V30 2993 C 283.601 -3.30632 4.04326 0
M  V30 2994 H 285.295 -1.67187 2.48373 0
M  V30 2995 H 282.841 -0.802909 1.19538 0
M  V30 2996 H 284.794 -3.92064 1.54478 0
M  V30 2997 H 283.518 -3.22515 0.514961 0
M  V30 2998 H 282.177 -2.62334 2.56079 0
M  V30 2999 H 281.825 -4.82378 1.42548 0
M  V30 3000 H 281.525 -4.94278 3.17747 0
M  V30 3001 H 283.049 -5.57449 2.49165 0
M  V30 3002 H 284.463 -3.98873 4.11793 0
M  V30 3003 H 282.86 -3.59561 4.80454 0
M  V30 3004 H 283.93 -2.28404 4.27738 0
M  V30 3005 N 285.273 -1.31445 -0.869486 0
M  V30 3006 C 286.684 -1.19042 -1.43826 0
M  V30 3007 C 287.035 0.202919 -1.95148 0
M  V30 3008 O 286.16 1.10071 -1.86315 0
M  V30 3009 C 286.755 -2.15499 -2.6143 0
M  V30 3010 C 285.314 -2.07028 -3.14351 0
M  V30 3011 C 284.461 -2.04701 -1.87063 0
M  V30 3012 H 287.412 -1.43489 -0.677984 0
M  V30 3013 H 287.433 -1.74488 -3.38134 0
M  V30 3014 H 286.945 -3.16899 -2.24046 0
M  V30 3015 H 285.046 -1.08825 -3.56354 0
M  V30 3016 H 285.159 -2.96157 -3.766 0
M  V30 3017 H 283.523 -1.49724 -2.06046 0
M  V30 3018 H 284.306 -3.07857 -1.51917 0
M  V30 3019 N 286.751 1.08385 -1.14413 0
M  V30 3020 C 287.979 1.84517 -0.936001 0
M  V30 3021 C 288.394 1.81626 0.515503 0
M  V30 3022 O 287.751 1.22008 1.35721 0
M  V30 3023 C 287.802 3.32049 -1.42918 0
M  V30 3024 O 287.523 3.34951 -2.82381 0
M  V30 3025 C 289.024 4.24986 -1.26103 0
M  V30 3026 H 286.244 0.582491 -0.333084 0
M  V30 3027 H 288.788 1.36885 -1.5193 0
M  V30 3028 H 286.943 3.7707 -0.888641 0
M  V30 3029 H 287.357 4.27048 -3.04517 0
M  V30 3030 H 288.831 5.26615 -1.6547 0
M  V30 3031 H 289.308 4.38726 -0.20392 0
M  V30 3032 H 289.914 3.85791 -1.79012 0
M  V30 3033 N 288.23 0.939286 1.26551 0
M  V30 3034 C 289.476 0.586715 1.94128 0
M  V30 3035 C 289.809 -0.8717 1.73537 0
M  V30 3036 O 289.084 -1.62339 1.07127 0
M  V30 3037 C 289.367 0.927497 3.4795 0
M  V30 3038 C 289.22 2.44052 3.77834 0
M  V30 3039 C 290.539 0.441569 4.37879 0
M  V30 3040 H 287.658 0.21463 0.705055 0
M  V30 3041 H 290.3 1.17316 1.49455 0
M  V30 3042 H 288.45 0.428431 3.8613 0
M  V30 3043 H 290.122 3.01216 3.4938 0
M  V30 3044 H 288.365 2.8848 3.23978 0
M  V30 3045 H 289.036 2.62947 4.85348 0
M  V30 3046 H 291.512 0.869448 4.06915 0
M  V30 3047 H 290.388 0.708856 5.44304 0
M  V30 3048 H 290.649 -0.658467 4.37169 0
M  V30 3049 N 289.708 -1.40897 0.706093 0
M  V30 3050 C 290.956 -2.00657 0.241054 0
M  V30 3051 C 291.277 -1.56241 -1.16678 0
M  V30 3052 O 290.547 -0.79765 -1.78926 0
M  V30 3053 H 289.127 -0.742018 0.0861308 0
M  V30 3054 H 291.789 -1.72372 0.909604 0
M  V30 3055 H 290.885 -3.10958 0.266705 0
M  V30 3056 N 291.186 -0.45159 -1.50991 0
M  V30 3057 C 292.136 0.370861 -2.24964 0
M  V30 3058 C 293.12 0.978074 -1.2776 0
M  V30 3059 O 294.312 0.893854 -1.52772 0
M  V30 3060 C 291.441 1.46344 -3.10545 0
M  V30 3061 C 290.527 0.864924 -4.15187 0
M  V30 3062 N 290.918 -0.00311354 -5.058 0
M  V30 3063 C 289.216 1.13099 -4.31422 0
M  V30 3064 C 289.917 -0.340772 -5.80701 0
M  V30 3065 N 288.893 0.279203 -5.42883 0
M  V30 3066 H 292.695 -0.298134 -2.92384 0
M  V30 3067 H 290.209 -0.264528 -1.60231 0
M  V30 3068 H 292.206 2.06565 -3.62128 0
M  V30 3069 H 290.866 2.13463 -2.4467 0
M  V30 3070 H 291.877 -0.37058 -5.16572 0
M  V30 3071 H 288.554 1.79861 -3.76771 0
M  V30 3072 H 289.944 -1.048 -6.63677 0
M  V30 3073 N 292.664 1.56529 -0.183458 0
M  V30 3074 C 293.627 2.17324 0.728223 0
M  V30 3075 C 294.627 1.12453 1.14939 0
M  V30 3076 O 295.817 1.37902 1.06437 0
M  V30 3077 C 292.949 2.76591 1.99274 0
M  V30 3078 H 294.142 2.99241 0.198772 0
M  V30 3079 H 291.695 1.5616 0.0661391 0
M  V30 3080 H 292.43 1.98441 2.56499 0
M  V30 3081 H 292.215 3.5335 1.69959 0
M  V30 3082 H 293.705 3.23311 2.6431 0
M  V30 3083 N 294.142 -0.090211 1.57342 0
M  V30 3084 C 295.072 -1.10976 2.05443 0
M  V30 3085 C 296.053 -1.41482 0.944284 0
M  V30 3086 O 297.238 -1.51428 1.21586 0
M  V30 3087 C 294.368 -2.42831 2.48295 0
M  V30 3088 C 293.322 -2.26721 3.63018 0
M  V30 3089 C 292.648 -3.63796 3.91863 0
M  V30 3090 C 293.948 -1.7037 4.93732 0
M  V30 3091 H 295.642 -0.709564 2.9087 0
M  V30 3092 H 293.188 -0.339874 1.39932 0
M  V30 3093 H 295.141 -3.14431 2.80555 0
M  V30 3094 H 293.865 -2.84795 1.59873 0
M  V30 3095 H 292.524 -1.57565 3.31012 0
M  V30 3096 H 292.172 -4.03297 3.00601 0
M  V30 3097 H 291.872 -3.53861 4.69101 0
M  V30 3098 H 293.396 -4.36855 4.26603 0
M  V30 3099 H 294.81 -2.31816 5.24342 0
M  V30 3100 H 293.207 -1.71181 5.75167 0
M  V30 3101 H 294.277 -0.663542 4.80339 0
M  V30 3102 N 295.62 -1.53406 -0.361157 0
M  V30 3103 C 296.583 -1.79479 -1.42548 0
M  V30 3104 C 297.583 -0.665327 -1.4639 0
M  V30 3105 O 298.773 -0.933549 -1.47073 0
M  V30 3106 C 295.905 -1.92087 -2.8163 0
M  V30 3107 H 297.098 -2.74538 -1.20701 0
M  V30 3108 H 294.651 -1.4455 -0.594546 0
M  V30 3109 H 295.386 -0.991099 -3.08784 0
M  V30 3110 H 295.171 -2.74241 -2.80239 0
M  V30 3111 H 296.661 -2.13836 -3.58697 0
M  V30 3112 N 297.098 0.621204 -1.44841 0
M  V30 3113 C 298.345 1.38055 -1.48145 0
M  V30 3114 C 298.673 1.94143 -0.117867 0
M  V30 3115 O 297.928 1.74713 0.881694 0
M  V30 3116 C 298.227 2.55675 -2.4973 0
M  V30 3117 C 297.893 2.17817 -3.94799 0
M  V30 3118 C 296.555 2.07205 -4.34303 0
M  V30 3119 C 298.907 1.88065 -4.86087 0
M  V30 3120 C 296.235 1.65045 -5.63007 0
M  V30 3121 C 298.587 1.47394 -6.15189 0
M  V30 3122 C 297.251 1.35331 -6.53637 0
M  V30 3123 H 296.521 0.505181 -0.542101 0
M  V30 3124 H 299.168 0.703477 -1.78111 0
M  V30 3125 H 297.473 3.2866 -2.13284 0
M  V30 3126 H 299.17 3.13904 -2.4953 0
M  V30 3127 H 295.76 2.26998 -3.63552 0
M  V30 3128 H 299.944 1.95168 -4.56315 0
M  V30 3129 H 295.2 1.54317 -5.91605 0
M  V30 3130 H 299.374 1.23415 -6.85377 0
M  V30 3131 H 297.001 1.02435 -7.53267 0
M  V30 3132 N 298.576 1.31904 0.862503 0
M  V30 3133 C 299.825 1.21373 1.61094 0
M  V30 3134 C 300.138 -0.22504 1.94301 0
M  V30 3135 O 301.344 -0.452121 2.67709 0
M  V30 3136 C 299.8 2.12525 2.9045 0
M  V30 3137 C 299.408 3.61441 2.64697 0
M  V30 3138 C 301.152 2.10813 3.68454 0
M  V30 3139 C 299.059 4.44578 3.90006 0
M  V30 3140 H 297.989 0.450705 0.604468 0
M  V30 3141 H 300.64 1.56811 0.953027 0
M  V30 3142 H 299.022 1.69994 3.57656 0
M  V30 3143 H 300.196 4.12264 2.05851 0
M  V30 3144 H 298.511 3.65205 2.00036 0
M  V30 3145 H 301.108 2.70167 4.61426 0
M  V30 3146 H 301.451 1.09713 4.01583 0
M  V30 3147 H 301.984 2.51583 3.08141 0
M  V30 3148 H 298.723 5.46461 3.62023 0
M  V30 3149 H 298.243 3.98508 4.48276 0
M  V30 3150 H 299.922 4.57176 4.5782 0
M  V30 3151 N 300.054 -1.07777 1.14986 0
M  V30 3152 C 300.964 -2.18404 0.856546 0
M  V30 3153 C 301.98 -1.73211 -0.165485 0
M  V30 3154 O 303.156 -2.01399 0.00755219 0
M  V30 3155 C 300.221 -3.44977 0.34526 0
M  V30 3156 C 299.282 -4.0476 1.43065 0
M  V30 3157 C 298.515 -5.25291 0.943663 0
M  V30 3158 O 298.738 -5.70004 -0.212426 0
M  V30 3159 O 297.672 -5.76638 1.72547 0
M  V30 3160 H 301.498 -2.45978 1.78125 0
M  V30 3161 H 299.083 -1.17033 0.928631 0
M  V30 3162 H 300.965 -4.21348 0.0663671 0
M  V30 3163 H 299.64 -3.18965 -0.551631 0
M  V30 3164 H 298.547 -3.29949 1.76309 0
M  V30 3165 H 299.88 -4.35035 2.30229 0
M  V30 3166 N 301.532 -0.945985 -1.26051 0
M  V30 3167 C 302.948 -0.649045 -1.45807 0
M  V30 3168 C 303.148 0.796158 -1.85104 0
M  V30 3169 O 302.204 1.57233 -1.97571 0
M  V30 3170 C 303.517 -1.61458 -2.53677 0
M  V30 3171 C 305.065 -1.62481 -2.67524 0
M  V30 3172 C 305.54 -2.57776 -3.7857 0
M  V30 3173 N 307.031 -2.5609 -3.85969 0
M  V30 3174 C 307.766 -3.26508 -4.7136 0
M  V30 3175 N 307.262 -4.0637 -5.61102 0
M  V30 3176 N 309.055 -3.15437 -4.65248 0
M  V30 3177 H 301.206 -1.88005 -0.988328 0
M  V30 3178 H 303.469 -0.808198 -0.4955 0
M  V30 3179 H 303.175 -2.64644 -2.31638 0
M  V30 3180 H 303.049 -1.37036 -3.51427 0
M  V30 3181 H 305.436 -0.600167 -2.88933 0
M  V30 3182 H 305.517 -1.90958 -1.70202 0
M  V30 3183 H 305.161 -3.60361 -3.57913 0
M  V30 3184 H 305.091 -2.26587 -4.75359 0
M  V30 3185 H 307.582 -1.98105 -3.21812 0
M  V30 3186 H 307.895 -4.57042 -6.23164 0
M  V30 3187 H 306.24 -4.10469 -5.60839 0
M  V30 3188 H 309.431 -2.52525 -3.94143 0
M  V30 3189 H 309.604 -3.70584 -5.31575 0
M  V30 3190 N 303.011 1.40521 -0.713556 0
M  V30 3191 C 303.941 2.33381 -0.0743864 0
M  V30 3192 C 304.922 1.52784 0.747735 0
M  V30 3193 O 306.107 1.81258 0.697071 0
M  V30 3194 C 303.237 3.36748 0.849598 0
M  V30 3195 C 302.191 4.27793 0.133247 0
M  V30 3196 C 301.517 5.21679 1.17281 0
M  V30 3197 C 302.817 5.12415 -1.01134 0
M  V30 3198 H 304.511 2.87081 -0.850007 0
M  V30 3199 H 302.057 1.38034 -0.410201 0
M  V30 3200 H 304.01 4.00648 1.30612 0
M  V30 3201 H 302.734 2.81439 1.65709 0
M  V30 3202 H 301.393 3.65342 -0.303426 0
M  V30 3203 H 301.041 4.62677 1.9733 0
M  V30 3204 H 300.741 5.83435 0.698397 0
M  V30 3205 H 302.265 5.88456 1.62947 0
M  V30 3206 H 303.679 5.69781 -0.634274 0
M  V30 3207 H 302.076 5.83203 -1.41399 0
M  V30 3208 H 303.146 4.48514 -1.84292 0
M  V30 3209 N 304.489 0.459591 1.5075 0
M  V30 3210 C 305.399 -0.34613 2.32033 0
M  V30 3211 C 306.415 -1.00686 1.41909 0
M  V30 3212 O 307.591 -0.997361 1.7497 0
M  V30 3213 C 304.656 -1.42029 3.16273 0
M  V30 3214 C 303.717 -0.777362 4.22203 0
M  V30 3215 C 302.95 -1.80034 5.02418 0
M  V30 3216 O 303.173 -3.02544 4.83553 0
M  V30 3217 O 302.107 -1.37853 5.85901 0
M  V30 3218 H 305.933 0.318054 3.0203 0
M  V30 3219 H 303.518 0.221663 1.47746 0
M  V30 3220 H 305.4 -2.04275 3.68578 0
M  V30 3221 H 304.075 -2.06815 2.49016 0
M  V30 3222 H 302.982 -0.116256 3.73919 0
M  V30 3223 H 304.315 -0.172634 4.91897 0
M  V30 3224 N 305.967 -1.56429 0.191757 0
M  V30 3225 C 307.383 -1.58754 -0.164137 0
M  V30 3226 C 307.583 -1.20782 -1.61288 0
M  V30 3227 O 306.639 -0.928999 -2.34789 0
M  V30 3228 C 307.952 -3.00396 0.135195 0
M  V30 3229 C 309.5 -3.1291 0.0750351 0
M  V30 3230 C 309.975 -4.56679 0.347632 0
M  V30 3231 N 311.466 -4.62252 0.296131 0
M  V30 3232 C 312.201 -5.71379 0.480948 0
M  V30 3233 N 311.697 -6.88986 0.725933 0
M  V30 3234 N 313.49 -5.60563 0.415435 0
M  V30 3235 H 305.641 -1.79393 1.13718 0
M  V30 3236 H 307.904 -0.832414 0.453643 0
M  V30 3237 H 307.61 -3.32726 1.13958 0
M  V30 3238 H 307.484 -3.72963 -0.563773 0
M  V30 3239 H 309.871 -2.80394 -0.919948 0
M  V30 3240 H 309.952 -2.42736 0.807029 0
M  V30 3241 H 309.596 -4.89907 1.33992 0
M  V30 3242 H 309.526 -5.25039 -0.405212 0
M  V30 3243 H 312.017 -3.7773 0.113259 0
M  V30 3244 H 312.33 -7.68046 0.855857 0
M  V30 3245 H 310.675 -6.90801 0.762788 0
M  V30 3246 H 313.866 -4.67561 0.224486 0
M  V30 3247 H 314.039 -6.45551 0.562889 0
M  V30 3248 N 307.445 0.0818655 -1.57387 0
M  V30 3249 C 308.856 0.634871 -1.75574 0
M  V30 3250 C 309.207 1.78435 -0.815809 0
M  V30 3251 O 308.332 2.164 0.0025366 0
M  V30 3252 C 308.927 1.15845 -3.18379 0
M  V30 3253 C 307.486 1.65741 -3.37945 0
M  V30 3254 C 306.633 0.572549 -2.71325 0
M  V30 3255 H 309.584 -0.144268 -1.58043 0
M  V30 3256 H 309.605 2.02751 -3.21982 0
M  V30 3257 H 309.117 0.321631 -3.86765 0
M  V30 3258 H 307.218 2.51781 -2.74658 0
M  V30 3259 H 307.331 1.74129 -4.46336 0
M  V30 3260 H 305.695 1.01518 -2.33594 0
M  V30 3261 H 306.478 -0.253918 -3.4236 0
M  V30 3262 N 308.923 1.53595 0.353017 0
M  V30 3263 C 309.833 1.83897 1.45667 0
M  V30 3264 C 310.849 0.728334 1.58023 0
M  V30 3265 O 312.025 1.01968 1.73679 0
M  V30 3266 C 309.09 2.03383 2.80778 0
M  V30 3267 C 308.151 3.27262 2.77845 0
M  V30 3268 C 307.384 3.45809 4.06512 0
M  V30 3269 O 307.607 2.68387 5.03314 0
M  V30 3270 O 306.541 4.39207 4.11559 0
M  V30 3271 H 310.367 2.77686 1.2298 0
M  V30 3272 H 307.952 1.39132 0.544308 0
M  V30 3273 H 309.834 2.17698 3.60812 0
M  V30 3274 H 308.509 1.12783 3.03417 0
M  V30 3275 H 307.416 3.18359 1.96465 0
M  V30 3276 H 308.749 4.17824 2.60161 0
M  V30 3277 N 310.401 -0.613514 1.45168 0
M  V30 3278 C 311.331 -1.7354 1.56225 0
M  V30 3279 C 312.312 -1.64981 0.41414 0
M  V30 3280 O 313.497 -1.83472 0.636526 0
M  V30 3281 C 310.627 -3.12128 1.52295 0
M  V30 3282 C 309.581 -3.35491 2.65762 0
M  V30 3283 C 308.907 -4.74291 2.46885 0
M  V30 3284 C 310.207 -3.26325 4.0781 0
M  V30 3285 H 311.901 -1.64543 2.50132 0
M  V30 3286 H 309.447 -0.790185 1.20383 0
M  V30 3287 H 311.4 -3.90404 1.58628 0
M  V30 3288 H 310.124 -3.2195 0.549139 0
M  V30 3289 H 308.783 -2.59603 2.58847 0
M  V30 3290 H 308.431 -4.80839 1.47657 0
M  V30 3291 H 308.131 -4.9088 3.22972 0
M  V30 3292 H 309.655 -5.54775 2.55063 0
M  V30 3293 H 311.069 -3.94483 4.16 0
M  V30 3294 H 309.466 -3.54445 4.8424 0
M  V30 3295 H 310.536 -2.23855 4.30136 0
M  V30 3296 N 311.879 -1.3236 -0.855495 0
M  V30 3297 C 313.109 -1.25688 -1.6397 0
M  V30 3298 C 313.517 0.177592 -1.88365 0
M  V30 3299 O 312.86 1.12485 -1.45234 0
M  V30 3300 C 312.922 -1.94602 -3.02275 0
M  V30 3301 C 312.586 -3.43937 -3.00926 0
M  V30 3302 C 313.583 -4.39435 -2.77835 0
M  V30 3303 C 311.268 -3.85858 -3.21588 0
M  V30 3304 C 313.262 -5.74829 -2.75409 0
M  V30 3305 C 310.949 -5.21361 -3.18789 0
M  V30 3306 C 311.947 -6.15658 -2.95727 0
M  V30 3307 O 311.635 -7.48681 -2.928 0
M  V30 3308 H 311.367 -0.434972 -0.51747 0
M  V30 3309 H 313.921 -1.75023 -1.075 0
M  V30 3310 H 312.151 -1.39836 -3.60531 0
M  V30 3311 H 313.84 -1.81651 -3.62985 0
M  V30 3312 H 314.606 -4.08374 -2.6164 0
M  V30 3313 H 310.485 -3.12883 -3.38564 0
M  V30 3314 H 314.029 -6.48404 -2.57328 0
M  V30 3315 H 309.926 -5.52052 -3.34528 0
M  V30 3316 H 310.694 -7.5803 -3.0876 0
M  V30 3317 N 313.357 1.07166 -1.15556 0
M  V30 3318 C 314.605 1.79443 -0.929764 0
M  V30 3319 C 314.926 1.87246 0.544414 0
M  V30 3320 O 314.196 1.37473 1.39564 0
M  V30 3321 H 312.776 0.664625 -0.341003 0
M  V30 3322 H 315.438 1.29499 -1.45657 0
M  V30 3323 H 314.534 2.81832 -1.34079 0
M  V30 3324 N 314.835 0.952656 1.25548 0
M  V30 3325 C 316.081 0.607272 1.93494 0
M  V30 3326 C 316.414 -0.853245 1.74452 0
M  V30 3327 O 315.689 -1.61194 1.08843 0
M  V30 3328 C 315.972 0.96435 3.46947 0
M  V30 3329 C 315.825 2.48045 3.75225 0
M  V30 3330 C 317.144 0.487987 4.37386 0
M  V30 3331 H 314.263 0.222096 0.702739 0
M  V30 3332 H 316.905 1.18895 1.48203 0
M  V30 3333 H 315.055 0.469361 3.85654 0
M  V30 3334 H 316.727 3.04905 3.46166 0
M  V30 3335 H 314.97 2.919 3.209 0
M  V30 3336 H 315.641 2.6808 4.82532 0
M  V30 3337 H 318.117 0.912558 4.0597 0
M  V30 3338 H 316.993 0.766547 5.43521 0
M  V30 3339 H 317.254 -0.612063 4.37843 0
M  V30 3340 N 316.313 -1.40141 0.720998 0
M  V30 3341 C 317.261 -2.3252 0.0608547 0
M  V30 3342 C 318.255 -1.52326 -0.741152 0
M  V30 3343 O 319.461 -1.68089 -0.643911 0
M  V30 3344 H 315.836 -0.751999 0.000876664 0
M  V30 3345 H 317.807 -2.8584 0.856614 0
M  V30 3346 C 316.556 -3.37331 -0.842809 0
M  V30 3347 H 315.879 -3.99108 -0.235084 0
M  V30 3348 H 317.319 -4.04452 -1.27257 0
M  V30 3349 C 315.778 -2.73246 -1.97074 0
M  V30 3350 O 316.308 -2.59998 -3.06209 0
M  V30 3351 N 314.514 -2.31547 -1.75597 0
M  V30 3352 H 314.061 -2.42522 -0.868368 0
M  V30 3353 H 314.019 -1.89007 -2.51244 0
M  V30 3354 N 317.792 -0.46758 -1.50504 0
M  V30 3355 C 319.203 -0.0116166 -1.86696 0
M  V30 3356 C 319.554 1.39202 -1.38265 0
M  V30 3357 O 318.679 2.0313 -0.746132 0
M  V30 3358 C 319.274 -0.0143044 -3.38797 0
M  V30 3359 C 317.833 0.386175 -3.74414 0
M  V30 3360 C 316.98 -0.401287 -2.74381 0
M  V30 3361 H 319.931 -0.682022 -1.43297 0
M  V30 3362 H 319.952 0.788641 -3.72237 0
M  V30 3363 H 319.464 -1.03602 -3.74016 0
M  V30 3364 H 317.565 1.41237 -3.44794 0
M  V30 3365 H 317.678 0.0899596 -4.79016 0
M  V30 3366 H 316.042 0.144536 -2.5429 0
M  V30 3367 H 316.825 -1.42244 -3.12444 0
M  V30 3368 N 319.27 1.56325 -0.20005 0
M  V30 3369 C 320.18 2.22931 0.730668 0
M  V30 3370 C 321.196 1.22997 1.23076 0
M  V30 3371 O 322.372 1.55748 1.27689 0
M  V30 3372 C 319.437 2.87948 1.93098 0
M  V30 3373 C 318.498 4.03166 1.47497 0
M  V30 3374 C 317.731 4.65073 2.61807 0
M  V30 3375 O 317.954 4.25913 3.79413 0
M  V30 3376 O 316.888 5.54452 2.34237 0
M  V30 3377 H 320.714 3.03084 0.193391 0
M  V30 3378 H 318.299 1.49371 0.0294621 0
M  V30 3379 H 320.181 3.29063 2.6324 0
M  V30 3380 H 318.856 2.10771 2.45677 0
M  V30 3381 H 317.763 3.66664 0.742201 0
M  V30 3382 H 319.096 4.82022 0.995796 0
M  V30 3383 N 320.748 -0.0735177 1.57428 0
M  V30 3384 C 321.994 -0.774145 1.87443 0
M  V30 3385 C 322.327 -1.77311 0.792103 0
M  V30 3386 O 321.602 -1.93492 -0.197793 0
M  V30 3387 C 321.885 -1.48367 3.28115 0
M  V30 3388 C 321.738 -0.501227 4.46999 0
M  V30 3389 C 323.057 -2.429 3.66998 0
M  V30 3390 H 320.176 -0.279971 0.681752 0
M  V30 3391 H 322.818 -0.0373616 1.89963 0
M  V30 3392 H 320.968 -2.11171 3.26097 0
M  V30 3393 H 322.64 0.121468 4.6114 0
M  V30 3394 H 320.883 0.183593 4.33411 0
M  V30 3395 H 321.554 -1.03526 5.42205 0
M  V30 3396 H 324.03 -1.90175 3.70098 0
M  V30 3397 H 322.906 -2.89549 4.66318 0
M  V30 3398 H 323.167 -3.27628 2.96837 0
M  V30 3399 N 322.226 -1.5378 -0.344866 0
M  V30 3400 C 323.474 -1.70625 -1.08311 0
M  V30 3401 C 323.795 -0.471447 -1.89215 0
M  V30 3402 O 323.065 0.514616 -1.8902 0
M  V30 3403 H 321.645 -0.629058 -0.402859 0
M  V30 3404 H 324.307 -1.9103 -0.386459 0
M  V30 3405 H 323.403 -2.57656 -1.76124 0
M  V30 3406 N 323.704 0.605807 -1.45491 0
M  V30 3407 C 324.654 1.71074 -1.50724 0
M  V30 3408 C 325.638 1.5658 -0.37033 0
M  V30 3409 O 326.83 1.65887 -0.617299 0
M  V30 3410 C 323.959 3.0983 -1.47852 0
M  V30 3411 C 323.045 3.29704 -2.66751 0
M  V30 3412 N 323.436 3.19831 -3.91844 0
M  V30 3413 C 321.734 3.60579 -2.62486 0
M  V30 3414 C 322.435 3.41083 -4.71208 0
M  V30 3415 N 321.411 3.65157 -4.02693 0
M  V30 3416 H 325.213 1.61937 -2.45263 0
M  V30 3417 H 322.727 0.80912 -1.40808 0
M  V30 3418 H 324.724 3.89101 -1.49686 0
M  V30 3419 H 323.384 3.20115 -0.543714 0
M  V30 3420 H 324.395 2.98194 -4.23439 0
M  V30 3421 H 321.072 3.7769 -1.77922 0
M  V30 3422 H 322.462 3.38828 -5.80211 0
M  V30 3423 N 325.182 1.32811 0.848464 0
M  V30 3424 C 326.092 1.24278 1.98978 0
M  V30 3425 C 327.108 0.155176 1.73307 0
M  V30 3426 O 328.284 0.376999 1.9784 0
M  V30 3427 C 325.349 0.972444 3.32783 0
M  V30 3428 C 324.41 2.14911 3.71634 0
M  V30 3429 C 323.643 1.89157 4.99054 0
M  V30 3430 O 323.866 0.837165 5.64223 0
M  V30 3431 O 322.8 2.75433 5.35183 0
M  V30 3432 H 326.626 2.20238 2.09115 0
M  V30 3433 H 324.211 1.12762 0.980052 0
M  V30 3434 H 326.093 0.838432 4.12975 0
M  V30 3435 H 324.768 0.043051 3.23671 0
M  V30 3436 H 323.675 2.33862 2.91992 0
M  V30 3437 H 325.008 3.06151 3.85399 0
M  V30 3438 N 326.66 -1.06551 1.16123 0
M  V30 3439 C 327.592 -2.13908 0.823171 0
M  V30 3440 C 328.605 -1.61926 -0.16843 0
M  V30 3441 O 329.794 -1.78412 0.055962 0
M  V30 3442 C 326.894 -3.38283 0.204424 0
M  V30 3443 C 326.067 -4.19589 1.23548 0
M  V30 3444 C 325.126 -5.2233 0.637011 0
M  V30 3445 O 324.152 -5.54034 1.30516 0
M  V30 3446 N 325.354 -5.77621 -0.577474 0
M  V30 3447 H 328.119 -2.43508 1.74711 0
M  V30 3448 H 325.68 -1.2253 1.05821 0
M  V30 3449 H 327.672 -4.0416 -0.208909 0
M  V30 3450 H 326.242 -3.06329 -0.623012 0
M  V30 3451 H 325.462 -3.49406 1.82507 0
M  V30 3452 H 326.75 -4.70718 1.93137 0
M  V30 3453 H 326.148 -5.54125 -1.13853 0
M  V30 3454 H 324.705 -6.45087 -0.933053 0
M  V30 3455 N 328.138 -0.959301 -1.25041 0
M  V30 3456 C 329.071 -0.427418 -2.24161 0
M  V30 3457 C 330.049 0.493837 -1.54919 0
M  V30 3458 O 331.233 0.427144 -1.83597 0
M  V30 3459 C 328.36 0.383893 -3.36517 0
M  V30 3460 C 327.406 -0.478431 -4.23808 0
M  V30 3461 S 328.239 -1.91353 -5.00144 0
M  V30 3462 C 329.395 -1.11077 -6.15965 0
M  V30 3463 H 329.628 -1.26743 -2.6893 0
M  V30 3464 H 327.161 -0.763714 -1.34189 0
M  V30 3465 H 329.119 0.846039 -4.01687 0
M  V30 3466 H 327.78 1.19878 -2.90324 0
M  V30 3467 H 326.973 0.14406 -5.03794 0
M  V30 3468 H 326.575 -0.87597 -3.63597 0
M  V30 3469 H 328.867 -0.361699 -6.76534 0
M  V30 3470 H 329.81 -1.88472 -6.82557 0
M  V30 3471 H 330.218 -0.638843 -5.60873 0
M  V30 3472 N 329.616 1.39756 -0.72842 0
M  V30 3473 C 330.579 2.29012 -0.0927297 0
M  V30 3474 C 331.579 1.45992 0.674025 0
M  V30 3475 O 332.769 1.66749 0.50402 0
M  V30 3476 C 329.901 3.29396 0.878137 0
M  V30 3477 H 331.094 2.86729 -0.879011 0
M  V30 3478 H 328.647 1.48293 -0.493847 0
M  V30 3479 H 329.382 2.76722 1.69101 0
M  V30 3480 H 329.167 3.907 0.331051 0
M  V30 3481 H 330.657 3.96199 1.3197 0
M  V30 3482 N 331.094 0.475555 1.50254 0
M  V30 3483 C 332.342 -0.077738 2.0195 0
M  V30 3484 C 332.663 -1.39813 1.35931 0
M  V30 3485 O 331.933 -1.89249 0.506123 0
M  V30 3486 H 330.513 -0.031719 0.746326 0
M  V30 3487 H 333.175 0.626995 1.84539 0
M  V30 3488 H 332.271 -0.225995 3.11281 0
M  V30 3489 N 332.573 -1.56217 0.208337 0
M  V30 3490 C 333.503 -2.22694 -0.702116 0
M  V30 3491 C 334.484 -1.19432 -1.2112 0
M  V30 3492 O 335.669 -1.47978 -1.25762 0
M  V30 3493 C 332.799 -2.8966 -1.9161 0
M  V30 3494 C 331.753 -3.9928 -1.5414 0
M  V30 3495 C 331.079 -4.53476 -2.83308 0
M  V30 3496 C 332.379 -5.17012 -0.741339 0
M  V30 3497 H 334.073 -2.99034 -0.147898 0
M  V30 3498 H 331.619 -1.43831 -0.0696951 0
M  V30 3499 H 333.572 -3.34852 -2.55836 0
M  V30 3500 H 332.296 -2.10746 -2.49507 0
M  V30 3501 H 330.955 -3.54799 -0.922668 0
M  V30 3502 H 330.603 -3.71308 -3.39322 0
M  V30 3503 H 330.303 -5.27451 -2.58976 0
M  V30 3504 H 331.827 -5.01378 -3.485 0
M  V30 3505 H 333.241 -5.58667 -1.28699 0
M  V30 3506 H 331.638 -5.97137 -0.595627 0
M  V30 3507 H 332.708 -4.8423 0.254851 0
M  V30 3508 N 334.051 0.0651679 -1.57465 0
M  V30 3509 C 334.999 1.09542 -2.05191 0
M  V30 3510 C 335.993 1.39675 -0.958509 0
M  V30 3511 O 337.199 1.39003 -1.14359 0
M  V30 3512 H 333.574 0.370623 -0.654326 0
M  V30 3513 H 335.545 0.666802 -2.90854 0
M  V30 3514 C 334.294 2.39881 -2.51699 0
M  V30 3515 H 333.617 2.17547 -3.3543 0
M  V30 3516 H 335.057 3.104 -2.88839 0
M  V30 3517 C 333.516 3.0631 -1.40271 0
M  V30 3518 O 334.046 3.94664 -0.748523 0
M  V30 3519 N 332.252 2.67041 -1.14618 0
M  V30 3520 H 331.799 1.95281 -1.67997 0
M  V30 3521 H 331.757 3.1181 -0.402688 0
M  V30 3522 N 335.529 1.53961 0.336706 0
M  V30 3523 C 336.776 1.71536 1.07618 0
M  V30 3524 C 337.104 0.482125 1.8843 0
M  V30 3525 O 336.359 -0.536142 1.88213 0
M  V30 3526 C 336.658 2.93493 2.03953 0
M  V30 3527 C 336.324 4.28811 1.39399 0
M  V30 3528 C 334.986 4.65602 1.21523 0
M  V30 3529 C 337.338 5.12844 0.929541 0
M  V30 3530 C 334.666 5.84037 0.558312 0
M  V30 3531 C 337.018 6.31951 0.286505 0
M  V30 3532 C 335.682 6.67432 0.0954869 0
M  V30 3533 H 334.952 0.627696 0.393801 0
M  V30 3534 H 337.599 1.88186 0.354715 0
M  V30 3535 H 335.904 2.71475 2.82504 0
M  V30 3536 H 337.601 3.04285 2.61174 0
M  V30 3537 H 334.191 3.99858 1.54311 0
M  V30 3538 H 338.375 4.84947 1.05548 0
M  V30 3539 H 333.631 6.10097 0.398995 0
M  V30 3540 H 337.805 6.96352 -0.0814376 0
M  V30 3541 H 335.432 7.59063 -0.415579 0
M  V30 3542 N 337.007 -0.598083 1.45811 0
M  V30 3543 C 338.418 -1.18011 1.44673 0
M  V30 3544 C 338.769 -1.95378 0.179364 0
M  V30 3545 O 337.894 -2.04124 -0.718509 0
M  V30 3546 C 338.489 -2.14677 2.62105 0
M  V30 3547 C 337.048 -2.68236 2.64057 0
M  V30 3548 C 336.195 -1.43816 2.37091 0
M  V30 3549 H 339.146 -0.38686 1.53913 0
M  V30 3550 H 339.167 -2.97878 2.36746 0
M  V30 3551 H 338.679 -1.5834 3.5433 0
M  V30 3552 H 336.78 -3.28486 1.75864 0
M  V30 3553 H 336.893 -3.12021 3.63566 0
M  V30 3554 H 335.257 -1.731 1.86838 0
M  V30 3555 H 336.04 -0.893333 3.31473 0
M  V30 3556 N 338.485 -1.33259 -0.841409 0
M  V30 3557 C 339.435 -1.19872 -1.93945 0
M  V30 3558 C 340.419 -0.102269 -1.60575 0
M  V30 3559 O 341.611 -0.330114 -1.73894 0
M  V30 3560 C 338.74 -0.937517 -3.30251 0
M  V30 3561 C 337.826 -2.07629 -3.69799 0
M  V30 3562 N 338.217 -3.32604 -3.81062 0
M  V30 3563 C 336.515 -1.98242 -3.9952 0
M  V30 3564 C 337.216 -4.07275 -4.15333 0
M  V30 3565 N 336.192 -3.35691 -4.27566 0
M  V30 3566 H 339.994 -2.14604 -2.00805 0
M  V30 3567 H 337.508 -1.2523 -1.03398 0
M  V30 3568 H 339.505 -0.822545 -4.08705 0
M  V30 3569 H 338.165 0.00128798 -3.247 0
M  V30 3570 H 339.176 -3.67382 -3.65035 0
M  V30 3571 H 335.853 -1.12005 -4.02195 0
M  V30 3572 H 337.243 -5.1511 -4.31406 0
M  V30 3573 N 339.963 1.05934 -1.16686 0
M  V30 3574 C 341.211 1.78447 -0.948744 0
M  V30 3575 C 341.532 1.87813 0.524523 0
M  V30 3576 O 340.802 1.38945 1.38098 0
M  V30 3577 H 339.382 0.660971 -0.348033 0
M  V30 3578 H 342.044 1.27947 -1.47022 0
M  V30 3579 H 341.14 2.80394 -1.37061 0
M  V30 3580 N 341.441 0.965919 1.2453 0
M  V30 3581 C 342.69 0.622437 1.91856 0
M  V30 3582 C 343.003 -0.846006 1.76358 0
M  V30 3583 O 344.209 -1.29993 2.38357 0
M  V30 3584 C 342.665 1.0626 3.43856 0
M  V30 3585 C 342.273 2.55437 3.68043 0
M  V30 3586 C 344.017 0.792183 4.17043 0
M  V30 3587 C 341.924 2.93196 5.13605 0
M  V30 3588 H 340.854 0.229092 0.718354 0
M  V30 3589 H 343.505 1.17189 1.41206 0
M  V30 3590 H 341.887 0.441476 3.93531 0
M  V30 3591 H 343.061 3.22665 3.28974 0
M  V30 3592 H 341.376 2.8007 3.08139 0
M  V30 3593 H 343.973 1.05031 5.24283 0
M  V30 3594 H 344.316 -0.271584 4.15413 0
M  V30 3595 H 344.849 1.37419 3.73311 0
M  V30 3596 H 341.588 3.98636 5.20355 0
M  V30 3597 H 341.108 2.30651 5.53679 0
M  V30 3598 H 342.787 2.83004 5.81823 0
M  V30 3599 N 342.919 -1.39368 0.735821 0
M  V30 3600 C 343.882 -2.2896 0.104874 0
M  V30 3601 C 344.882 -1.46347 -0.666274 0
M  V30 3602 O 346.072 -1.67014 -0.49517 0
M  V30 3603 C 343.204 -3.29857 -0.860656 0
M  V30 3604 H 344.397 -2.86259 0.894205 0
M  V30 3605 H 341.95 -1.48029 0.501704 0
M  V30 3606 H 342.685 -2.77615 -1.67631 0
M  V30 3607 H 342.47 -3.9087 -0.310327 0
M  V30 3608 H 343.96 -3.96893 -1.29867 0
M  V30 3609 N 344.397 -0.483516 -1.5 0
M  V30 3610 C 345.329 0.340634 -2.26655 0
M  V30 3611 C 346.342 0.946152 -1.32483 0
M  V30 3612 O 347.531 0.832453 -1.579 0
M  V30 3613 C 344.631 1.4929 -3.04246 0
M  V30 3614 C 343.804 0.997903 -4.25865 0
M  V30 3615 C 342.863 2.02569 -4.85646 0
M  V30 3616 O 341.889 1.60128 -5.46212 0
M  V30 3617 N 343.091 3.3548 -4.73744 0
M  V30 3618 H 345.856 -0.316577 -2.98023 0
M  V30 3619 H 343.417 -0.315024 -1.58806 0
M  V30 3620 H 345.409 2.17766 -3.41116 0
M  V30 3621 H 343.979 2.05458 -2.35597 0
M  V30 3622 H 343.199 0.138617 -3.93956 0
M  V30 3623 H 344.487 0.645305 -5.04691 0
M  V30 3624 H 343.885 3.72661 -4.25605 0
M  V30 3625 H 342.442 3.99718 -5.14848 0
M  V30 3626 N 345.875 1.56104 -0.216619 0
M  V30 3627 C 346.838 2.18819 0.681962 0
M  V30 3628 C 347.838 1.14866 1.12528 0
M  V30 3629 O 349.028 1.40128 1.03488 0
M  V30 3630 C 346.16 2.80756 1.93362 0
M  V30 3631 H 347.353 2.99595 0.135254 0
M  V30 3632 H 344.906 1.56265 0.0330003 0
M  V30 3633 H 345.641 2.03837 2.52232 0
M  V30 3634 H 345.426 3.56876 1.62426 0
M  V30 3635 H 346.916 3.28844 2.57393 0
M  V30 3636 N 347.353 -0.0568162 1.57498 0
M  V30 3637 C 348.283 -1.06593 2.0775 0
M  V30 3638 C 349.264 -1.39448 0.974082 0
M  V30 3639 O 350.449 -1.48815 1.24771 0
M  V30 3640 C 347.579 -2.37509 2.5339 0
M  V30 3641 C 346.533 -2.1897 3.67745 0
M  V30 3642 C 345.859 -3.55402 3.99492 0
M  V30 3643 C 347.159 -1.59859 4.97235 0
M  V30 3644 H 348.853 -0.647706 2.9231 0
M  V30 3645 H 346.399 -0.310116 1.40621 0
M  V30 3646 H 348.352 -3.08409 2.87162 0
M  V30 3647 H 347.076 -2.8134 1.65878 0
M  V30 3648 H 345.735 -1.50508 3.3428 0
M  V30 3649 H 345.383 -3.9683 3.09088 0
M  V30 3650 H 345.083 -3.43831 4.76502 0
M  V30 3651 H 346.607 -4.27708 4.35773 0
M  V30 3652 H 348.021 -2.20642 5.29141 0
M  V30 3653 H 346.418 -1.58942 5.78669 0
M  V30 3654 H 347.488 -0.561506 4.81638 0
M  V30 3655 N 348.832 -1.54138 -0.328536 0
M  V30 3656 C 350.078 -1.73297 -1.06488 0
M  V30 3657 C 350.433 -0.497958 -1.85844 0
M  V30 3658 O 349.726 0.509591 -1.84699 0
M  V30 3659 C 349.92 -2.9457 -2.02393 0
M  V30 3660 C 349.749 -4.29747 -1.32467 0
M  V30 3661 C 348.519 -4.93987 -1.06324 0
M  V30 3662 C 350.717 -5.08903 -0.743137 0
M  V30 3663 N 348.699 -6.13005 -0.331359 0
M  V30 3664 C 350.07 -6.19836 -0.142602 0
M  V30 3665 C 352.125 -4.93699 -0.64546 0
M  V30 3666 C 350.828 -7.17224 0.546125 0
M  V30 3667 C 352.854 -5.91393 0.0295558 0
M  V30 3668 C 352.216 -7.01674 0.619056 0
M  V30 3669 H 348.315 -0.687017 -0.373539 0
M  V30 3670 H 350.899 -1.91589 -0.346659 0
M  V30 3671 H 349.07 -2.77752 -2.71493 0
M  V30 3672 H 350.802 -3.0238 -2.68977 0
M  V30 3673 H 347.557 -4.53824 -1.35428 0
M  V30 3674 H 347.981 -6.76997 0.0202939 0
M  V30 3675 H 352.623 -4.08589 -1.08695 0
M  V30 3676 H 350.341 -8.01896 0.999459 0
M  V30 3677 H 353.927 -5.81706 0.104705 0
M  V30 3678 H 352.807 -7.75971 1.13309 0
M  V30 3679 N 350.31 0.590341 -1.46126 0
M  V30 3680 C 351.273 1.68194 -1.55703 0
M  V30 3681 C 352.273 1.54808 -0.434868 0
M  V30 3682 O 353.463 1.59564 -0.698928 0
M  V30 3683 C 350.595 3.07575 -1.47005 0
M  V30 3684 H 351.788 1.61064 -2.52979 0
M  V30 3685 H 349.341 0.807541 -1.33823 0
M  V30 3686 H 350.076 3.20268 -0.509785 0
M  V30 3687 H 349.861 3.187 -2.28414 0
M  V30 3688 H 351.351 3.87055 -1.56776 0
M  V30 3689 N 351.788 1.33704 0.83433 0
M  V30 3690 C 353.036 1.25169 1.58673 0
M  V30 3691 C 353.357 -0.18127 1.94156 0
M  V30 3692 O 352.627 -1.11113 1.6134 0
M  V30 3693 H 351.207 0.4603 0.58833 0
M  V30 3694 H 353.869 1.67478 0.996847 0
M  V30 3695 H 352.965 1.84856 2.51465 0
M  V30 3696 N 353.266 -1.05314 1.17247 0
M  V30 3697 C 354.213 -2.13031 0.888058 0
M  V30 3698 C 355.183 -1.65253 -0.167537 0
M  V30 3699 O 356.368 -1.90775 -0.0305974 0
M  V30 3700 C 353.508 -3.42702 0.406147 0
M  V30 3701 C 352.621 -4.04161 1.52572 0
M  V30 3702 C 351.756 -5.21744 0.997808 0
M  V30 3703 C 350.795 -5.75207 2.09291 0
M  V30 3704 N 349.932 -6.84094 1.57986 0
M  V30 3705 H 354.772 -2.36698 1.81048 0
M  V30 3706 H 352.309 -1.16121 0.903013 0
M  V30 3707 H 354.267 -4.17059 0.108305 0
M  V30 3708 H 352.897 -3.19222 -0.479313 0
M  V30 3709 H 351.949 -3.27253 1.93931 0
M  V30 3710 H 353.261 -4.39881 2.35172 0
M  V30 3711 H 352.415 -6.03168 0.653739 0
M  V30 3712 H 351.154 -4.87495 0.141232 0
M  V30 3713 H 350.159 -4.92414 2.44557 0
M  V30 3714 H 351.384 -6.11505 2.95362 0
M  V30 3715 H 349.33 -6.51745 0.74598 0
M  V30 3716 H 349.247 -7.18811 2.34195 0
M  V30 3717 H 350.515 -7.69172 1.26468 0
M  V30 3718 N 354.744 -0.972509 -1.24016 0
M  V30 3719 C 355.674 -0.525548 -2.27509 0
M  V30 3720 C 356.655 0.437262 -1.64384 0
M  V30 3721 O 357.84 0.332343 -1.91335 0
M  V30 3722 C 354.97 0.180448 -3.46831 0
M  V30 3723 C 353.924 -0.698859 -4.22256 0
M  V30 3724 C 353.25 0.138903 -5.3452 0
M  V30 3725 C 354.55 -1.98582 -4.83076 0
M  V30 3726 H 356.244 -1.39058 -2.65148 0
M  V30 3727 H 353.79 -0.67009 -1.27459 0
M  V30 3728 H 355.743 0.504387 -4.18371 0
M  V30 3729 H 354.467 1.07987 -3.08231 0
M  V30 3730 H 353.126 -1.00614 -3.52523 0
M  V30 3731 H 352.774 1.03862 -4.9216 0
M  V30 3732 H 352.474 -0.446259 -5.85903 0
M  V30 3733 H 353.998 0.457404 -6.08884 0
M  V30 3734 H 355.412 -1.72715 -5.46665 0
M  V30 3735 H 353.809 -2.5181 -5.44713 0
M  V30 3736 H 354.879 -2.67769 -4.04262 0
M  V30 3737 N 356.222 1.38976 -0.743202 0
M  V30 3738 C 357.469 2.00343 -0.294752 0
M  V30 3739 C 357.797 1.58983 1.12047 0
M  V30 3740 O 357.052 0.813809 1.77977 0
M  V30 3741 C 357.351 3.55647 -0.353517 0
M  V30 3742 C 357.017 4.16685 -1.72292 0
M  V30 3743 C 355.679 4.3307 -2.09771 0
M  V30 3744 C 358.031 4.50464 -2.62168 0
M  V30 3745 C 355.359 4.80526 -3.36618 0
M  V30 3746 C 357.711 4.99332 -3.88395 0
M  V30 3747 C 356.375 5.13924 -4.25956 0
M  V30 3748 H 355.645 0.733108 -0.107857 0
M  V30 3749 H 358.292 1.6618 -0.951651 0
M  V30 3750 H 356.597 3.89884 0.386954 0
M  V30 3751 H 358.294 4.00998 0.0117269 0
M  V30 3752 H 354.884 4.04339 -1.42155 0
M  V30 3753 H 359.068 4.37416 -2.3448 0
M  V30 3754 H 354.324 4.90008 -3.65653 0
M  V30 3755 H 358.498 5.2444 -4.58187 0
M  V30 3756 H 356.125 5.50457 -5.2431 0
M  V30 3757 N 357.7 0.491464 1.49741 0
M  V30 3758 C 358.65 -0.311086 2.25868 0
M  V30 3759 C 359.634 -0.943857 1.30308 0
M  V30 3760 O 360.826 -0.853035 1.55088 0
M  V30 3761 C 357.955 -1.38059 3.14316 0
M  V30 3762 C 357.041 -0.754541 4.17334 0
M  V30 3763 N 357.432 0.137216 5.05614 0
M  V30 3764 C 355.73 -1.01621 4.34269 0
M  V30 3765 C 356.431 0.494614 5.79593 0
M  V30 3766 N 355.407 -0.135169 5.43432 0
M  V30 3767 H 359.209 0.37555 2.91491 0
M  V30 3768 H 356.723 0.306917 1.59473 0
M  V30 3769 H 358.72 -1.96891 3.67477 0
M  V30 3770 H 357.38 -2.06901 2.50244 0
M  V30 3771 H 358.391 0.50741 5.15408 0
M  V30 3772 H 355.068 -1.69808 3.81407 0
M  V30 3773 H 356.458 1.2236 6.60665 0
M  V30 3774 N 359.178 -1.55987 0.224894 0
M  V30 3775 C 360.427 -1.97566 -0.406273 0
M  V30 3776 C 360.74 -1.11569 -1.6066 0
M  V30 3777 O 361.946 -1.43062 -2.3075 0
M  V30 3778 C 360.402 -3.51474 -0.774207 0
M  V30 3779 C 360.01 -4.46179 0.403496 0
M  V30 3780 C 361.754 -4.01758 -1.37079 0
M  V30 3781 C 359.661 -5.91399 0.0129412 0
M  V30 3782 H 358.591 -0.737777 -0.155565 0
M  V30 3783 H 361.242 -1.80659 0.321635 0
M  V30 3784 H 359.624 -3.63994 -1.55963 0
M  V30 3785 H 360.798 -4.45409 1.18101 0
M  V30 3786 H 359.113 -4.06255 0.913536 0
M  V30 3787 H 361.71 -5.07756 -1.67596 0
M  V30 3788 H 362.053 -3.47805 -2.28773 0
M  V30 3789 H 362.586 -3.92475 -0.648733 0
M  V30 3790 H 359.325 -6.49341 0.896451 0
M  V30 3791 H 358.845 -5.95356 -0.728821 0
M  V30 3792 H 360.524 -6.45683 -0.412582 0
M  V30 3793 N 360.656 0.0484629 -1.57525 0
M  V30 3794 C 361.933 0.777447 -1.79486 0
M  V30 3795 C 362.313 1.94597 -0.818251 0
M  V30 3796 O 361.661 2.28047 0.143767 0
M  V30 3797 C 361.871 1.22864 -3.26658 0
M  V30 3798 C 363.219 1.65251 -3.91123 0
M  V30 3799 O 364.243 1.32372 -3.3069 0
M  V30 3800 O 363.102 2.26207 -4.97486 0
M  V30 3801 H 360.196 0.374357 -0.737419 0
M  V30 3802 H 362.742 0.0267359 -1.69679 0
M  V30 3803 H 361.514 0.393589 -3.89316 0
M  V30 3804 H 361.137 2.03996 -3.41279 0
M  V30 3805 N 362.134 1.5431 0.320358 0
M  V30 3806 C 363.064 1.86912 1.3995 0
M  V30 3807 C 364.045 0.726211 1.53819 0
M  V30 3808 O 365.23 0.980233 1.67646 0
M  V30 3809 C 362.36 2.09932 2.7667 0
M  V30 3810 C 361.314 3.25776 2.77586 0
M  V30 3811 C 360.64 3.34173 4.17412 0
M  V30 3812 C 361.94 4.6335 2.41048 0
M  V30 3813 H 363.634 2.77292 1.12914 0
M  V30 3814 H 361.18 1.33421 0.541738 0
M  V30 3815 H 363.133 2.31324 3.52232 0
M  V30 3816 H 361.857 1.16304 3.0519 0
M  V30 3817 H 360.516 3.04276 2.04479 0
M  V30 3818 H 360.164 2.38098 4.43078 0
M  V30 3819 H 359.864 4.12033 4.18931 0
M  V30 3820 H 361.388 3.57803 4.94782 0
M  V30 3821 H 362.802 4.84602 3.06324 0
M  V30 3822 H 361.199 5.43782 2.53813 0
M  V30 3823 H 362.269 4.65381 1.36193 0
M  V30 3824 N 363.613 -0.582584 1.46437 0
M  V30 3825 C 364.561 -1.71272 1.5738 0
M  V30 3826 C 365.555 -1.63524 0.44229 0
M  V30 3827 O 366.761 -1.69016 0.619166 0
M  V30 3828 H 363.136 -0.566273 0.494813 0
M  V30 3829 H 365.107 -1.59174 2.52401 0
M  V30 3830 C 363.856 -3.09658 1.58136 0
M  V30 3831 H 363.179 -3.16291 2.44541 0
M  V30 3832 H 364.619 -3.88494 1.69847 0
M  V30 3833 C 363.078 -3.3547 0.310026 0
M  V30 3834 O 363.608 -3.97199 -0.599683 0
M  V30 3835 N 361.814 -2.89925 0.197901 0
M  V30 3836 H 361.361 -2.39873 0.93909 0
M  V30 3837 H 361.319 -3.07568 -0.65185 0
M  V30 3838 N 365.091 -1.34144 -0.827227 0
M  V30 3839 C 366.339 -1.26009 -1.58007 0
M  V30 3840 C 366.66 0.170971 -1.94249 0
M  V30 3841 O 365.93 1.10256 -1.61927 0
M  V30 3842 H 364.51 -0.463414 -0.585881 0
M  V30 3843 H 367.172 -1.68005 -0.987951 0
M  V30 3844 H 366.268 -1.86187 -2.50481 0
M  V30 3845 N 366.569 1.04691 -1.17803 0
M  V30 3846 C 367.501 2.12571 -0.857097 0
M  V30 3847 C 368.514 1.62174 0.142647 0
M  V30 3848 O 369.703 1.78301 -0.0843387 0
M  V30 3849 C 366.803 3.37915 -0.258216 0
M  V30 3850 C 365.976 4.1757 -1.30207 0
M  V30 3851 C 365.035 5.2125 -0.720029 0
M  V30 3852 O 364.061 5.51888 -1.39314 0
M  V30 3853 N 365.263 5.78466 0.485507 0
M  V30 3854 H 368.028 2.40698 -1.78562 0
M  V30 3855 H 365.589 1.20831 -1.07757 0
M  V30 3856 H 367.581 4.04442 0.144584 0
M  V30 3857 H 366.151 3.07281 0.574199 0
M  V30 3858 H 365.371 3.46458 -1.88043 0
M  V30 3859 H 366.659 4.67586 -2.00601 0
M  V30 3860 H 366.057 5.55866 1.05022 0
M  V30 3861 H 364.614 6.4649 0.830307 0
M  V30 3862 N 368.047 0.979072 1.23499 0
M  V30 3863 C 368.995 0.510604 2.26926 0
M  V30 3864 C 369.989 -0.431691 1.63807 0
M  V30 3865 O 371.195 -0.30573 1.77385 0
M  V30 3866 H 367.57 0.146688 0.737554 0
M  V30 3867 H 369.541 1.39466 2.63803 0
M  V30 3868 C 368.29 -0.172658 3.47271 0
M  V30 3869 H 367.613 0.543331 3.96091 0
M  V30 3870 H 369.053 -0.464101 4.21452 0
M  V30 3871 C 367.512 -1.40345 3.06276 0
M  V30 3872 O 368.042 -2.49978 3.14442 0
M  V30 3873 N 366.248 -1.27362 2.61203 0
M  V30 3874 H 365.795 -0.381584 2.54758 0
M  V30 3875 H 365.753 -2.09822 2.34141 0
M  V30 3876 N 369.525 -1.3858 0.750561 0
M  V30 3877 C 370.773 -1.99789 0.30477 0
M  V30 3878 C 371.094 -1.59874 -1.11649 0
M  V30 3879 O 370.364 -0.85417 -1.76297 0
M  V30 3880 H 368.944 -0.738902 0.109694 0
M  V30 3881 H 371.606 -1.69391 0.963983 0
M  V30 3882 H 370.702 -3.09952 0.365499 0
M  V30 3883 N 371.003 -0.499398 -1.49478 0
M  V30 3884 C 372.252 0.0475259 -2.01644 0
M  V30 3885 C 372.565 1.38195 -1.38425 0
M  V30 3886 O 373.771 2.01547 -1.8191 0
M  V30 3887 C 372.227 0.135164 -3.59646 0
M  V30 3888 C 371.835 -1.19252 -4.31837 0
M  V30 3889 C 373.579 0.632538 -4.19761 0
M  V30 3890 C 371.486 -1.06713 -5.81693 0
M  V30 3891 H 370.416 0.0215349 -0.753692 0
M  V30 3892 H 373.067 -0.638577 -1.7203 0
M  V30 3893 H 371.449 0.885681 -3.85969 0
M  V30 3894 H 372.623 -1.9562 -4.17216 0
M  V30 3895 H 370.938 -1.62321 -3.83459 0
M  V30 3896 H 373.535 0.743833 -5.29501 0
M  V30 3897 H 373.878 1.63098 -3.83021 0
M  V30 3898 H 374.411 -0.0613987 -3.97753 0
M  V30 3899 H 371.15 -2.03979 -6.22955 0
M  V30 3900 H 370.67 -0.344307 -5.98811 0
M  V30 3901 H 372.349 -0.745208 -6.42694 0
M  V30 3902 N 372.481 1.55866 -0.233164 0
M  V30 3903 C 373.428 2.20796 0.67215 0
M  V30 3904 C 374.398 1.16731 1.18166 0
M  V30 3905 O 375.583 1.45129 1.23864 0
M  V30 3906 C 372.723 2.90072 1.86955 0
M  V30 3907 C 371.836 4.08759 1.39786 0
M  V30 3908 C 370.971 4.65787 2.55374 0
M  V30 3909 C 370.01 5.76752 2.04998 0
M  V30 3910 N 369.147 6.28021 3.13901 0
M  V30 3911 H 373.987 2.9779 0.111749 0
M  V30 3912 H 371.524 1.47036 0.0434007 0
M  V30 3913 H 373.482 3.28428 2.57276 0
M  V30 3914 H 372.112 2.15575 2.40265 0
M  V30 3915 H 371.164 3.7581 0.589173 0
M  V30 3916 H 372.476 4.88906 0.98856 0
M  V30 3917 H 371.63 5.06646 3.33758 0
M  V30 3918 H 370.369 3.84828 2.99598 0
M  V30 3919 H 369.374 5.35383 1.25079 0
M  V30 3920 H 370.599 6.59553 1.61759 0
M  V30 3921 H 368.545 5.49971 3.57586 0
M  V30 3922 H 368.462 7.03323 2.7726 0
M  V30 3923 H 369.73 6.73538 3.92386 0
M  V30 3924 N 373.959 -0.0401083 1.57549 0
M  V30 3925 C 375.189 -0.744115 1.92734 0
M  V30 3926 C 375.597 -1.70005 0.830348 0
M  V30 3927 O 374.94 -1.82576 -0.20286 0
M  V30 3928 C 375.002 -1.56516 3.2364 0
M  V30 3929 C 374.666 -0.7752 4.50377 0
M  V30 3930 C 375.663 -0.0803326 5.19838 0
M  V30 3931 C 373.348 -0.733002 4.96923 0
M  V30 3932 C 375.342 0.646154 6.34116 0
M  V30 3933 C 373.029 -0.00276321 6.111 0
M  V30 3934 C 374.027 0.685585 6.7955 0
M  V30 3935 O 373.715 1.40399 7.91545 0
M  V30 3936 H 373.447 -0.214861 0.640945 0
M  V30 3937 H 376.001 -0.00503675 2.05399 0
M  V30 3938 H 374.231 -2.3478 3.07271 0
M  V30 3939 H 375.92 -2.15076 3.44234 0
M  V30 3940 H 376.686 -0.104035 4.84888 0
M  V30 3941 H 372.565 -1.25827 4.43496 0
M  V30 3942 H 376.109 1.18398 6.87479 0
M  V30 3943 H 372.006 0.0229012 6.45496 0
M  V30 3944 H 372.774 1.31653 8.07843 0
M  V30 3945 N 375.437 -1.54477 -0.31217 0
M  V30 3946 C 376.714 -1.63891 -1.06767 0
M  V30 3947 C 377.094 -0.480028 -2.0557 0
M  V30 3948 O 376.442 0.524487 -2.22399 0
M  V30 3949 C 376.652 -3.01402 -1.75948 0
M  V30 3950 C 378 -3.57838 -2.28554 0
M  V30 3951 O 379.024 -3.03782 -1.85998 0
M  V30 3952 O 377.883 -4.52462 -3.06497 0
M  V30 3953 H 374.977 -0.664125 -0.492816 0
M  V30 3954 H 377.523 -1.66823 -0.311149 0
M  V30 3955 H 376.295 -3.77187 -1.04144 0
M  V30 3956 H 375.918 -3.02199 -2.58383 0
M  V30 3957 N 376.915 0.57481 -1.46744 0
M  V30 3958 C 377.847 1.69804 -1.53946 0
M  V30 3959 C 378.86 1.57098 -0.427106 0
M  V30 3960 O 380.049 1.64378 -0.695863 0
M  V30 3961 C 377.149 3.08125 -1.4111 0
M  V30 3962 C 376.322 3.46757 -2.66605 0
M  V30 3963 C 375.381 4.6417 -2.47855 0
M  V30 3964 O 374.407 4.69634 -3.21609 0
M  V30 3965 N 375.609 5.59553 -1.54534 0
M  V30 3966 H 378.374 1.64077 -2.50796 0
M  V30 3967 H 375.935 0.761 -1.429 0
M  V30 3968 H 377.927 3.84478 -1.26328 0
M  V30 3969 H 376.497 3.08175 -0.524109 0
M  V30 3970 H 375.717 2.6003 -2.96274 0
M  V30 3971 H 377.005 3.69337 -3.49954 0
M  V30 3972 H 376.403 5.57881 -0.937304 0
M  V30 3973 H 374.96 6.35304 -1.45711 0
M  V30 3974 N 378.394 1.34581 0.820102 0
M  V30 3975 C 379.671 1.17675 1.56244 0
M  V30 3976 C 380.051 -0.249541 2.0962 0
M  V30 3977 O 379.399 -1.25125 1.91196 0
M  V30 3978 C 379.609 2.23364 2.6816 0
M  V30 3979 C 380.957 2.58485 3.36854 0
M  V30 3980 O 381.981 2.22175 2.78418 0
M  V30 3981 O 380.84 3.20868 4.42386 0
M  V30 3982 H 377.934 0.456333 0.689702 0
M  V30 3983 H 380.48 1.46222 0.861231 0
M  V30 3984 H 379.252 3.19087 2.26493 0
M  V30 3985 H 378.875 1.96009 3.45928 0
M  V30 3986 N 379.872 -1.04064 1.18357 0
M  V30 3987 C 380.802 -2.14001 0.934113 0
M  V30 3988 C 381.783 -1.69616 -0.128186 0
M  V30 3989 O 382.968 -1.94185 0.0244093 0
M  V30 3990 C 380.098 -3.44253 0.459066 0
M  V30 3991 C 379.052 -4.02261 1.46185 0
M  V30 3992 C 378.378 -5.27992 0.844322 0
M  V30 3993 C 379.678 -4.38432 2.83856 0
M  V30 3994 H 381.372 -2.35127 1.85352 0
M  V30 3995 H 378.918 -1.12998 0.892604 0
M  V30 3996 H 380.871 -4.20522 0.271907 0
M  V30 3997 H 379.595 -3.22813 -0.495912 0
M  V30 3998 H 378.254 -3.28074 1.63595 0
M  V30 3999 H 377.902 -5.02862 -0.117845 0
M  V30 4000 H 377.602 -5.67765 1.51384 0
M  V30 4001 H 379.126 -6.06938 0.667693 0
M  V30 4002 H 380.54 -5.05688 2.70098 0
M  V30 4003 H 378.937 -4.89254 3.47491 0
M  V30 4004 H 380.007 -3.4826 3.37406 0
M  V30 4005 N 381.35 -0.985608 -1.22978 0
M  V30 4006 C 382.766 -0.695104 -1.43668 0
M  V30 4007 C 382.966 0.736866 -1.87543 0
M  V30 4008 O 382.022 1.50868 -2.02473 0
M  V30 4009 C 383.335 -1.69447 -2.48412 0
M  V30 4010 C 384.883 -1.70909 -2.62219 0
M  V30 4011 C 385.358 -2.6969 -3.70178 0
M  V30 4012 N 386.849 -2.6824 -3.77626 0
M  V30 4013 C 387.584 -3.41339 -4.60733 0
M  V30 4014 N 387.08 -4.24015 -5.4789 0
M  V30 4015 N 388.873 -3.30079 -4.54977 0
M  V30 4016 H 381.024 -1.91054 -0.928016 0
M  V30 4017 H 383.287 -0.823553 -0.469536 0
M  V30 4018 H 382.993 -2.7188 -2.23102 0
M  V30 4019 H 382.867 -1.48147 -3.46889 0
M  V30 4020 H 385.254 -0.691785 -2.86877 0
M  V30 4021 H 385.335 -1.96276 -1.6404 0
M  V30 4022 H 384.979 -3.71566 -3.46268 0
M  V30 4023 H 384.909 -2.41595 -4.67909 0
M  V30 4024 H 387.4 -2.08243 -3.15346 0
M  V30 4025 H 387.713 -4.76636 -6.08308 0
M  V30 4026 H 386.058 -4.28104 -5.47496 0
M  V30 4027 H 389.249 -2.64937 -3.85909 0
M  V30 4028 H 389.422 -3.87308 -5.19516 0
M  V30 4029 N 382.828 1.3818 -0.7579 0
M  V30 4030 C 384.075 2.00019 -0.315985 0
M  V30 4031 C 384.403 1.60163 1.10355 0
M  V30 4032 O 383.658 0.83264 1.77103 0
M  V30 4033 C 383.957 3.55252 -0.391218 0
M  V30 4034 C 383.623 4.14834 -1.76702 0
M  V30 4035 C 382.285 4.30821 -2.14353 0
M  V30 4036 C 384.637 4.47658 -2.66931 0
M  V30 4037 C 381.965 4.76928 -3.41696 0
M  V30 4038 C 384.317 4.95184 -3.93669 0
M  V30 4039 C 382.981 5.09377 -4.31383 0
M  V30 4040 H 382.251 0.731923 -0.115627 0
M  V30 4041 H 384.898 1.65161 -0.969223 0
M  V30 4042 H 383.203 3.90273 0.34558 0
M  V30 4043 H 384.9 4.00988 -0.030805 0
M  V30 4044 H 381.49 4.02808 -1.46435 0
M  V30 4045 H 385.674 4.34904 -2.39106 0
M  V30 4046 H 380.93 4.86103 -3.70829 0
M  V30 4047 H 385.104 5.19551 -4.63724 0
M  V30 4048 H 382.731 5.44865 -5.30119 0
M  V30 4049 N 384.306 0.507319 1.49211 0
M  V30 4050 C 385.554 -0.0348839 2.0207 0
M  V30 4051 C 385.875 -1.36898 1.38866 0
M  V30 4052 O 385.145 -1.88133 0.546151 0
M  V30 4053 H 383.725 -0.0158812 0.746831 0
M  V30 4054 H 386.387 0.665998 1.83168 0
M  V30 4055 H 385.483 -0.159917 3.1169 0
M  V30 4056 N 385.784 -1.5574 0.241426 0
M  V30 4057 C 386.747 -2.19877 -0.647063 0
M  V30 4058 C 387.747 -1.16642 -1.10686 0
M  V30 4059 O 388.937 -1.41757 -1.01245 0
M  V30 4060 C 386.069 -2.83797 -1.88871 0
M  V30 4061 H 387.262 -2.99772 -0.087574 0
M  V30 4062 H 384.815 -1.56298 -0.00813574 0
M  V30 4063 H 385.55 -2.07824 -2.48957 0
M  V30 4064 H 385.335 -3.59414 -1.56728 0
M  V30 4065 H 386.825 -3.32898 -2.52129 0
M  V30 4066 N 387.262 0.0317525 -1.57568 0
M  V30 4067 C 388.51 0.721676 -1.88776 0
M  V30 4068 C 388.831 1.76039 -0.838772 0
M  V30 4069 O 388.101 1.95482 0.127935 0
M  V30 4070 H 386.681 0.269534 -0.696678 0
M  V30 4071 H 389.343 -0.00165879 -1.949 0
M  V30 4072 H 388.439 1.21293 -2.87566 0
M  V30 4073 N 388.74 1.54641 0.303973 0
M  V30 4074 C 390.017 1.64455 1.05896 0
M  V30 4075 C 390.397 0.490923 2.05312 0
M  V30 4076 O 389.745 -0.512685 2.22674 0
M  V30 4077 C 389.955 3.02331 1.74347 0
M  V30 4078 C 391.303 3.59045 2.26653 0
M  V30 4079 O 392.327 3.04764 1.84384 0
M  V30 4080 O 391.186 4.54081 3.04093 0
M  V30 4081 H 388.28 0.666729 0.489287 0
M  V30 4082 H 390.826 1.66986 0.302298 0
M  V30 4083 H 389.598 3.77734 1.02142 0
M  V30 4084 H 389.221 3.03565 2.56777 0
M  V30 4085 N 390.218 -0.567019 1.47046 0
M  V30 4086 C 391.148 -1.68482 1.61667 0
M  V30 4087 C 392.129 -1.6358 0.466418 0
M  V30 4088 O 393.314 -1.81354 0.694574 0
M  V30 4089 C 390.444 -3.07124 1.62148 0
M  V30 4090 C 389.398 -3.26867 2.76301 0
M  V30 4091 C 388.724 -4.66196 2.61849 0
M  V30 4092 C 390.024 -3.13186 4.17986 0
M  V30 4093 H 391.718 -1.56502 2.5524 0
M  V30 4094 H 389.264 -0.751486 1.22836 0
M  V30 4095 H 391.217 -3.8516 1.70968 0
M  V30 4096 H 389.941 -3.2004 0.651287 0
M  V30 4097 H 388.6 -2.51237 2.66975 0
M  V30 4098 H 388.248 -4.75898 1.62879 0
M  V30 4099 H 387.948 -4.80356 3.38425 0
M  V30 4100 H 389.472 -5.46379 2.72584 0
M  V30 4101 H 390.886 -3.81049 4.2834 0
M  V30 4102 H 389.283 -3.3886 4.95272 0
M  V30 4103 H 390.353 -2.10057 4.3704 0
M  V30 4104 N 391.696 -1.35014 -0.812953 0
M  V30 4105 C 393.112 -1.14914 -1.10757 0
M  V30 4106 C 393.312 0.0426818 -2.01455 0
M  V30 4107 O 392.368 0.715212 -2.42159 0
M  V30 4108 C 393.681 -2.44911 -1.74468 0
M  V30 4109 C 395.229 -2.5106 -1.86917 0
M  V30 4110 C 395.704 -3.81085 -2.54044 0
M  V30 4111 N 397.195 -3.82301 -2.61535 0
M  V30 4112 C 397.93 -4.79634 -3.14227 0
M  V30 4113 N 397.426 -5.87353 -3.67407 0
M  V30 4114 N 399.219 -4.67078 -3.12721 0
M  V30 4115 H 391.37 -2.1136 -0.20989 0
M  V30 4116 H 393.633 -0.935128 -0.155692 0
M  V30 4117 H 393.339 -3.32267 -1.15289 0
M  V30 4118 H 393.213 -2.58989 -2.74234 0
M  V30 4119 H 395.6 -1.64137 -2.45241 0
M  V30 4120 H 395.681 -2.40901 -0.860242 0
M  V30 4121 H 395.325 -4.68402 -1.96372 0
M  V30 4122 H 395.255 -3.88529 -3.55461 0
M  V30 4123 H 397.746 -3.04465 -2.23851 0
M  V30 4124 H 398.059 -6.57624 -4.05894 0
M  V30 4125 H 396.404 -5.91054 -3.65623 0
M  V30 4126 H 399.595 -3.82067 -2.70449 0
M  V30 4127 H 399.768 -5.43098 -3.53481 0
M  V30 4128 N 393.175 1.03435 -1.18907 0
M  V30 4129 C 394.138 2.09756 -0.923844 0
M  V30 4130 C 395.138 1.60528 0.093416 0
M  V30 4131 O 396.328 1.73631 -0.140727 0
M  V30 4132 C 393.46 3.38692 -0.387354 0
M  V30 4133 H 394.653 2.34719 -1.86674 0
M  V30 4134 H 392.206 1.19959 -1.00197 0
M  V30 4135 H 392.941 3.19396 0.561845 0
M  V30 4136 H 392.726 3.75742 -1.12074 0
M  V30 4137 H 394.216 4.17016 -0.220694 0
M  V30 4138 N 394.653 0.992116 1.22453 0
M  V30 4139 C 395.616 0.546883 2.2258 0
M  V30 4140 C 396.616 -0.369829 1.56489 0
M  V30 4141 O 397.806 -0.161896 1.73446 0
M  V30 4142 C 394.938 -0.204659 3.40285 0
M  V30 4143 H 396.131 1.43234 2.63484 0
M  V30 4144 H 393.684 0.779239 1.3549 0
M  V30 4145 H 394.419 -1.10614 3.04853 0
M  V30 4146 H 394.204 0.45354 3.89468 0
M  V30 4147 H 395.694 -0.504358 4.14543 0
M  V30 4148 N 396.131 -1.37776 0.765217 0
M  V30 4149 C 397.378 -1.99849 0.326588 0
M  V30 4150 C 397.706 -1.60746 -1.09504 0
M  V30 4151 O 396.961 -0.84202 -1.76659 0
M  V30 4152 C 397.26 -3.5504 0.410053 0
M  V30 4153 C 396.926 -4.13891 1.78899 0
M  V30 4154 C 395.588 -4.29678 2.16635 0
M  V30 4155 C 397.94 -4.46236 2.69301 0
M  V30 4156 C 395.268 -4.7511 3.44221 0
M  V30 4157 C 397.62 -4.93089 3.9629 0
M  V30 4158 C 396.284 -5.07082 4.34078 0
M  V30 4159 H 395.554 -0.7313 0.119507 0
M  V30 4160 H 398.201 -1.64645 0.977968 0
M  V30 4161 H 396.506 -3.90451 -0.324878 0
M  V30 4162 H 398.203 -4.00966 0.0520699 0
M  V30 4163 H 394.793 -4.02026 1.48569 0
M  V30 4164 H 398.977 -4.3363 2.41409 0
M  V30 4165 H 394.233 -4.84129 3.73402 0
M  V30 4166 H 398.407 -5.17084 4.66472 0
M  V30 4167 H 396.034 -5.42046 5.33001 0
M  V30 4168 N 397.609 -0.515225 -1.4894 0
M  V30 4169 C 398.855 0.016187 -2.03394 0
M  V30 4170 C 399.21 1.33377 -1.38666 0
M  V30 4171 O 398.503 1.84461 -0.518141 0
M  V30 4172 C 398.697 0.210595 -3.56779 0
M  V30 4173 C 398.526 -1.08659 -4.36375 0
M  V30 4174 C 397.296 -1.64237 -4.77864 0
M  V30 4175 C 399.494 -1.9935 -4.74093 0
M  V30 4176 N 397.476 -2.88398 -5.41941 0
M  V30 4177 C 398.847 -3.08088 -5.38035 0
M  V30 4178 C 400.902 -1.99856 -4.56029 0
M  V30 4179 C 399.605 -4.17377 -5.85823 0
M  V30 4180 C 401.631 -3.08129 -5.04787 0
M  V30 4181 C 400.993 -4.15586 -5.68742 0
M  V30 4182 H 397.092 -0.0352107 -0.781207 0
M  V30 4183 H 399.676 -0.693237 -1.8194 0
M  V30 4184 H 397.847 0.889088 -3.78087 0
M  V30 4185 H 399.579 0.740287 -3.97872 0
M  V30 4186 H 396.334 -1.18566 -4.58518 0
M  V30 4187 H 396.758 -3.51572 -5.78555 0
M  V30 4188 H 401.4 -1.18079 -4.05977 0
M  V30 4189 H 399.118 -4.99943 -6.34888 0
M  V30 4190 H 402.704 -3.09557 -4.92611 0
M  V30 4191 H 401.584 -4.97987 -6.05787 0
M  V30 4192 N 399.087 1.5561 -0.249682 0
M  V30 4193 C 400.017 2.24477 0.642826 0
M  V30 4194 C 400.998 1.22601 1.17911 0
M  V30 4195 O 402.183 1.5126 1.21795 0
M  V30 4196 C 399.313 2.94638 1.83863 0
M  V30 4197 C 398.267 4.03227 1.435 0
M  V30 4198 C 397.593 4.60828 2.71186 0
M  V30 4199 C 398.893 5.18796 0.604002 0
M  V30 4200 H 400.587 2.99321 0.0685625 0
M  V30 4201 H 398.133 1.43965 0.0315363 0
M  V30 4202 H 400.086 3.41517 2.46868 0
M  V30 4203 H 398.81 2.17287 2.43832 0
M  V30 4204 H 397.469 3.57121 0.828275 0
M  V30 4205 H 397.117 3.80174 3.29358 0
M  V30 4206 H 396.817 5.34132 2.44901 0
M  V30 4207 H 398.341 5.10442 3.35084 0
M  V30 4208 H 399.755 5.61883 1.13842 0
M  V30 4209 H 398.152 5.98506 0.437097 0
M  V30 4210 H 399.222 4.83384 -0.383147 0
M  V30 4211 N 400.565 -0.0233959 1.57583 0
M  V30 4212 C 401.811 -0.714119 1.89811 0
M  V30 4213 C 402.144 -1.74702 0.848113 0
M  V30 4214 O 401.419 -1.94023 -0.136135 0
M  V30 4215 C 401.702 -1.37853 3.32669 0
M  V30 4216 C 401.555 -0.358764 4.48367 0
M  V30 4217 C 402.874 -2.31101 3.7454 0
M  V30 4218 H 399.993 -0.25814 0.690314 0
M  V30 4219 H 402.635 0.0230927 1.89986 0
M  V30 4220 H 400.785 -2.00689 3.3265 0
M  V30 4221 H 402.457 0.268115 4.6052 0
M  V30 4222 H 400.7 0.321387 4.32608 0
M  V30 4223 H 401.371 -0.862242 5.45224 0
M  V30 4224 H 403.847 -1.78304 3.75961 0
M  V30 4225 H 402.723 -2.74567 4.75294 0
M  V30 4226 H 402.984 -3.18018 3.0711 0
M  V30 4227 N 402.043 -1.548 -0.295768 0
M  V30 4228 C 403.32 -1.65014 -1.05023 0
M  V30 4229 C 403.7 -0.501805 -2.05049 0
M  V30 4230 O 403.048 0.500869 -2.22943 0
M  V30 4231 C 403.258 -3.03252 -1.72741 0
M  V30 4232 C 404.606 -3.60242 -2.24746 0
M  V30 4233 O 405.63 -3.05737 -1.82765 0
M  V30 4234 O 404.489 -4.55687 -3.01681 0
M  V30 4235 H 401.583 -0.669314 -0.485744 0
M  V30 4236 H 404.129 -1.67144 -0.293438 0
M  V30 4237 H 402.901 -3.7827 -1.00138 0
M  V30 4238 H 402.524 -3.04922 -2.55163 0
M  V30 4239 N 403.521 0.559213 -1.47345 0
M  V30 4240 C 404.451 1.67622 -1.62558 0
M  V30 4241 C 405.432 1.63331 -0.475087 0
M  V30 4242 O 406.617 1.80983 -0.704182 0
M  V30 4243 C 403.747 3.0626 -1.63774 0
M  V30 4244 C 402.701 3.25397 -2.7803 0
M  V30 4245 C 402.027 4.64801 -2.64318 0
M  V30 4246 C 403.327 3.10965 -4.19641 0
M  V30 4247 H 405.021 1.55146 -2.56067 0
M  V30 4248 H 402.567 0.744961 -1.23233 0
M  V30 4249 H 404.52 3.84247 -1.73008 0
M  V30 4250 H 403.244 3.1969 -0.66825 0
M  V30 4251 H 401.903 2.49817 -2.68304 0
M  V30 4252 H 401.551 4.75028 -1.65401 0
M  V30 4253 H 401.251 4.78555 -3.40968 0
M  V30 4254 H 402.775 5.44926 -2.75478 0
M  V30 4255 H 404.189 3.78772 -4.30354 0
M  V30 4256 H 402.586 3.36229 -4.97062 0
M  V30 4257 H 403.656 2.07736 -4.38148 0
M  V30 4258 N 404.999 1.35443 0.805782 0
M  V30 4259 C 405.929 1.31095 1.93226 0
M  V30 4260 C 406.91 0.185244 1.69088 0
M  V30 4261 O 408.095 0.380332 1.90439 0
M  V30 4262 C 405.225 1.08299 3.29983 0
M  V30 4263 C 404.179 2.17519 3.68605 0
M  V30 4264 C 403.505 1.79887 5.03532 0
M  V30 4265 C 404.805 3.5949 3.78898 0
M  V30 4266 H 406.499 2.25352 1.97122 0
M  V30 4267 H 404.045 1.0848 0.946996 0
M  V30 4268 H 405.998 1.03897 4.08391 0
M  V30 4269 H 404.722 0.104885 3.26432 0
M  V30 4270 H 403.381 2.2102 2.92482 0
M  V30 4271 H 403.029 0.80693 4.96485 0
M  V30 4272 H 402.729 2.53001 5.30344 0
M  V30 4273 H 404.253 1.77011 5.84379 0
M  V30 4274 H 405.667 3.58307 4.47536 0
M  V30 4275 H 404.064 4.31371 4.1718 0
M  V30 4276 H 405.134 3.95584 2.80431 0
M  V30 4277 N 406.477 -1.02803 1.19454 0
M  V30 4278 C 407.387 -2.14575 0.948408 0
M  V30 4279 C 408.403 -1.73757 -0.091871 0
M  V30 4280 O 409.579 -2.01185 0.0929654 0
M  V30 4281 C 406.644 -3.43202 0.491265 0
M  V30 4282 C 405.705 -3.98328 1.60103 0
M  V30 4283 C 404.938 -5.20816 1.16561 0
M  V30 4284 O 405.161 -5.70392 0.0295238 0
M  V30 4285 O 404.095 -5.68801 1.96849 0
M  V30 4286 H 407.921 -2.38202 1.88397 0
M  V30 4287 H 405.506 -1.12989 0.977433 0
M  V30 4288 H 407.388 -4.20687 0.245015 0
M  V30 4289 H 406.063 -3.21018 -0.415851 0
M  V30 4290 H 404.97 -3.22174 1.90144 0
M  V30 4291 H 406.303 -4.24879 2.48473 0
M  V30 4292 N 407.956 -0.998596 -1.21925 0
M  V30 4293 C 409.181 -0.696015 -1.95372 0
M  V30 4294 C 409.606 0.733826 -1.73195 0
M  V30 4295 O 408.964 1.50242 -1.01474 0
M  V30 4296 C 409.012 -1.01466 -3.4603 0
M  V30 4297 O 408.116 -0.116415 -4.12236 0
M  V30 4298 H 407.457 -0.259938 -0.611006 0
M  V30 4299 H 409.987 -1.33711 -1.54863 0
M  V30 4300 H 409.997 -0.958855 -3.96573 0
M  V30 4301 H 408.672 -2.05653 -3.61497 0
M  V30 4302 H 407.249 -0.228193 -3.72201 0
M  V30 4303 N 409.434 1.37368 -0.772513 0
M  V30 4304 C 410.397 2.28601 -0.165541 0
M  V30 4305 C 411.397 1.48062 0.627238 0
M  V30 4306 O 412.587 1.68268 0.450715 0
M  V30 4307 C 409.719 3.32023 0.772897 0
M  V30 4308 H 410.912 2.83787 -0.969787 0
M  V30 4309 H 408.465 1.46647 -0.540775 0
M  V30 4310 H 409.2 2.81962 1.60212 0
M  V30 4311 H 408.985 3.91555 0.206585 0
M  V30 4312 H 410.475 4.00197 1.19298 0
M  V30 4313 N 410.912 0.523116 1.48665 0
M  V30 4314 C 412.16 -0.0134497 2.02096 0
M  V30 4315 C 412.481 -1.35418 1.40311 0
M  V30 4316 O 411.751 -1.87543 0.566074 0
M  V30 4317 H 410.331 -0.00795915 0.746958 0
M  V30 4318 H 412.993 0.685388 1.82451 0
M  V30 4319 H 412.089 -0.126849 3.11842 0
M  V30 4320 N 412.39 -1.55475 0.257931 0
M  V30 4321 C 413.62 -2.03314 -0.367026 0
M  V30 4322 C 414.028 -1.13625 -1.51281 0
M  V30 4323 O 413.371 -0.145334 -1.83124 0
M  V30 4324 C 413.433 -3.47362 -0.926284 0
M  V30 4325 C 413.097 -4.56914 0.0886584 0
M  V30 4326 C 414.094 -5.12013 0.902123 0
M  V30 4327 C 411.779 -5.01827 0.217936 0
M  V30 4328 C 413.773 -6.10529 1.83122 0
M  V30 4329 C 411.46 -6.00172 1.15052 0
M  V30 4330 C 412.458 -6.54402 1.95568 0
M  V30 4331 O 412.146 -7.50827 2.87253 0
M  V30 4332 H 411.878 -0.669976 -0.0900443 0
M  V30 4333 H 414.432 -2.01804 0.382673 0
M  V30 4334 H 412.662 -3.46056 -1.72575 0
M  V30 4335 H 414.351 -3.78637 -1.46249 0
M  V30 4336 H 415.117 -4.78139 0.812891 0
M  V30 4337 H 410.996 -4.59272 -0.398721 0
M  V30 4338 H 414.54 -6.52783 2.46008 0
M  V30 4339 H 410.437 -6.33465 1.24064 0
M  V30 4340 H 411.205 -7.68483 2.81739 0
M  V30 4341 N 413.868 0.0150385 -1.57593 0
M  V30 4342 C 415.093 0.718067 -1.94573 0
M  V30 4343 C 415.518 1.6734 -0.859005 0
M  V30 4344 O 414.876 1.80362 0.184147 0
M  V30 4345 C 414.924 1.43918 -3.30636 0
M  V30 4346 O 414.028 2.55299 -3.23876 0
M  V30 4347 H 413.369 0.192125 -0.635597 0
M  V30 4348 H 415.899 -0.0336708 -2.04572 0
M  V30 4349 H 415.909 1.80598 -3.65853 0
M  V30 4350 H 414.584 0.738619 -4.09289 0
M  V30 4351 H 413.161 2.21058 -3.00312 0
M  V30 4352 N 415.346 1.54954 0.287554 0
M  V30 4353 C 416.594 1.74528 1.01904 0
M  V30 4354 C 416.915 0.541349 1.87335 0
M  V30 4355 O 416.185 -0.444108 1.908 0
M  V30 4356 H 414.765 0.643576 0.379235 0
M  V30 4357 H 417.427 1.92333 0.315294 0
M  V30 4358 H 416.523 2.64015 1.6644 0
M  V30 4359 N 416.824 -0.551391 1.4764 0
M  V30 4360 C 418.235 -1.13349 1.48354 0
M  V30 4361 C 418.586 -1.94709 0.241432 0
M  V30 4362 O 417.711 -2.06306 -0.653205 0
M  V30 4363 C 418.306 -2.0623 2.68802 0
M  V30 4364 C 416.865 -2.597 2.72457 0
M  V30 4365 C 416.012 -1.36201 2.41546 0
M  V30 4366 H 418.963 -0.337698 1.55065 0
M  V30 4367 H 418.984 -2.90196 2.46103 0
M  V30 4368 H 418.496 -1.46987 3.59188 0
M  V30 4369 H 416.597 -3.22724 1.86225 0
M  V30 4370 H 416.71 -3.00296 3.73308 0
M  V30 4371 H 415.074 -1.67068 1.9225 0
M  V30 4372 H 415.857 -0.787425 3.34147 0
M  V30 4373 N 418.302 -1.35869 -0.798587 0
M  V30 4374 C 419.718 -1.16082 -1.09532 0
M  V30 4375 C 419.918 0.0213124 -2.01489 0
M  V30 4376 O 418.974 0.689488 -2.42904 0
M  V30 4377 C 420.287 -2.46748 -1.7186 0
M  V30 4378 C 421.835 -2.53028 -1.84244 0
M  V30 4379 C 422.31 -3.83758 -2.49988 0
M  V30 4380 N 423.801 -3.85053 -2.57465 0
M  V30 4381 C 424.536 -4.8294 -3.09122 0
M  V30 4382 N 424.032 -5.91217 -3.61157 0
M  V30 4383 N 425.825 -4.70369 -3.0775 0
M  V30 4384 H 417.976 -2.11571 -0.187461 0
M  V30 4385 H 420.239 -0.936726 -0.145765 0
M  V30 4386 H 419.945 -3.33471 -1.11759 0
M  V30 4387 H 419.819 -2.61883 -2.71472 0
M  V30 4388 H 422.206 -1.66729 -2.43486 0
M  V30 4389 H 422.287 -2.418 -0.834643 0
M  V30 4390 H 421.931 -4.70459 -1.91393 0
M  V30 4391 H 421.861 -3.92278 -3.5132 0
M  V30 4392 H 424.352 -3.06822 -2.20609 0
M  V30 4393 H 424.665 -6.61892 -3.98896 0
M  V30 4394 H 423.01 -5.94899 -3.59333 0
M  V30 4395 H 426.201 -3.84914 -2.66381 0
M  V30 4396 H 426.374 -5.46816 -3.47701 0
M  V30 4397 N 419.78 1.02168 -1.19998 0
M  V30 4398 C 420.73 2.08969 -0.911921 0
M  V30 4399 C 421.714 1.60404 0.12621 0
M  V30 4400 O 422.906 1.76817 -0.0804706 0
M  V30 4401 C 420.035 3.402 -0.460277 0
M  V30 4402 C 419.121 3.9548 -1.53155 0
M  V30 4403 N 419.512 4.24332 -2.75275 0
M  V30 4404 C 417.81 4.23572 -1.39653 0
M  V30 4405 C 418.511 4.68834 -3.44339 0
M  V30 4406 N 417.487 4.70804 -2.71744 0
M  V30 4407 H 421.289 2.29178 -1.83997 0
M  V30 4408 H 418.803 1.20094 -1.09322 0
M  V30 4409 H 420.8 4.16235 -0.235337 0
M  V30 4410 H 419.46 3.21408 0.4612 0
M  V30 4411 H 420.471 4.13393 -3.11973 0
M  V30 4412 H 417.148 4.14005 -0.539067 0
M  V30 4413 H 418.538 5.00019 -4.4881 0
M  V30 4414 N 421.258 1.00505 1.21394 0
M  V30 4415 C 422.505 0.687774 1.90462 0
M  V30 4416 C 422.833 -0.78147 1.7811 0
M  V30 4417 O 422.088 -1.58208 1.1519 0
M  V30 4418 C 422.387 1.0546 3.41486 0
M  V30 4419 C 422.053 2.51812 3.74034 0
M  V30 4420 C 420.715 2.91804 3.82628 0
M  V30 4421 C 423.067 3.46614 3.8924 0
M  V30 4422 C 420.395 4.2556 4.03876 0
M  V30 4423 C 422.747 4.80044 4.11995 0
M  V30 4424 C 421.411 5.19759 4.18816 0
M  V30 4425 H 420.681 0.251674 0.696951 0
M  V30 4426 H 423.328 1.26349 1.43903 0
M  V30 4427 H 421.633 0.397133 3.89782 0
M  V30 4428 H 423.33 0.786976 3.93202 0
M  V30 4429 H 419.92 2.1982 3.67936 0
M  V30 4430 H 424.104 3.16883 3.81967 0
M  V30 4431 H 419.36 4.55901 4.07387 0
M  V30 4432 H 423.534 5.53439 4.22704 0
M  V30 4433 H 421.161 6.23418 4.35033 0
M  V30 4434 N 422.737 -1.36956 0.779787 0
M  V30 4435 C 424.014 -1.93697 0.272156 0
M  V30 4436 C 424.394 -1.71267 -1.23413 0
M  V30 4437 O 423.742 -1.06607 -2.02107 0
M  V30 4438 C 423.952 -3.42812 0.654291 0
M  V30 4439 C 425.3 -4.19921 0.628602 0
M  V30 4440 O 426.324 -3.51209 0.594172 0
M  V30 4441 O 425.183 -5.42465 0.662864 0
M  V30 4442 H 422.277 -0.824447 0.0649286 0
M  V30 4443 H 424.823 -1.46196 0.861682 0
M  V30 4444 H 423.595 -3.52754 1.69353 0
M  V30 4445 H 423.218 -3.97582 0.0381369 0
M  V30 4446 N 424.215 -0.530993 -1.48385 0
M  V30 4447 C 425.462 0.0027373 -2.025 0
M  V30 4448 C 425.79 1.34186 -1.40799 0
M  V30 4449 O 425.045 1.88 -0.543544 0
M  V30 4450 C 425.344 0.172742 -3.56982 0
M  V30 4451 C 425.01 -1.09215 -4.37473 0
M  V30 4452 C 423.672 -1.43881 -4.59186 0
M  V30 4453 C 426.024 -1.93153 -4.84088 0
M  V30 4454 C 423.352 -2.62381 -5.2476 0
M  V30 4455 C 425.704 -3.10833 -5.50968 0
M  V30 4456 C 424.368 -3.45843 -5.70919 0
M  V30 4457 H 423.638 0.00100165 -0.740999 0
M  V30 4458 H 426.285 -0.697219 -1.78357 0
M  V30 4459 H 424.59 0.955473 -3.79971 0
M  V30 4460 H 426.287 0.600642 -3.96476 0
M  V30 4461 H 422.877 -0.812177 -4.20834 0
M  V30 4462 H 427.061 -1.67683 -4.67115 0
M  V30 4463 H 422.317 -2.89707 -5.38405 0
M  V30 4464 H 426.491 -3.7618 -5.86056 0
M  V30 4465 H 424.118 -4.37764 -6.21503 0
M  V30 4466 N 425.693 1.55336 -0.266172 0
M  V30 4467 C 426.64 2.22172 0.625165 0
M  V30 4468 C 427.61 1.19211 1.15663 0
M  V30 4469 O 428.795 1.47723 1.20758 0
M  V30 4470 C 425.935 2.93972 1.8076 0
M  V30 4471 C 425.048 4.11632 1.31084 0
M  V30 4472 C 424.183 4.71099 2.45436 0
M  V30 4473 C 423.222 5.8097 1.92718 0
M  V30 4474 N 422.359 6.34538 3.00509 0
M  V30 4475 H 427.199 2.9796 0.0485582 0
M  V30 4476 H 424.736 1.47095 0.0122024 0
M  V30 4477 H 426.694 3.33811 2.50251 0
M  V30 4478 H 425.324 2.20623 2.35638 0
M  V30 4479 H 424.376 3.76975 0.509326 0
M  V30 4480 H 425.688 4.90893 0.884633 0
M  V30 4481 H 424.842 5.13612 3.22936 0
M  V30 4482 H 423.581 3.91096 2.91368 0
M  V30 4483 H 422.586 5.37916 1.13695 0
M  V30 4484 H 423.811 6.62836 1.47733 0
M  V30 4485 H 421.757 5.57433 3.45839 0
M  V30 4486 H 421.674 7.09046 2.62279 0
M  V30 4487 H 422.942 6.81709 3.78011 0
M  V30 4488 N 427.171 -0.0066808 1.57599 0
M  V30 4489 C 428.582 -0.550379 1.78403 0
M  V30 4490 C 428.933 -1.74339 0.900014 0
M  V30 4491 O 428.058 -2.16166 0.100713 0
M  V30 4492 C 428.653 -1.00523 3.23544 0
M  V30 4493 C 427.212 -1.49428 3.45468 0
M  V30 4494 C 426.359 -0.442444 2.73748 0
M  V30 4495 H 429.31 0.219508 1.57175 0
M  V30 4496 H 429.331 -1.87157 3.31289 0
M  V30 4497 H 428.843 -0.136735 3.87859 0
M  V30 4498 H 426.944 -2.3839 2.86358 0
M  V30 4499 H 427.057 -1.52635 4.54136 0
M  V30 4500 H 425.421 -0.902578 2.38171 0
M  V30 4501 H 426.204 0.416973 3.40758 0
M  V30 4502 N 428.649 -1.55105 -0.279332 0
M  V30 4503 C 430.06 -1.66186 -0.850832 0
M  V30 4504 C 430.411 -0.584707 -1.87285 0
M  V30 4505 O 429.536 0.274919 -2.14647 0
M  V30 4506 C 430.131 -3.01264 -1.55001 0
M  V30 4507 C 428.69 -3.14394 -2.06963 0
M  V30 4508 C 427.837 -2.61959 -0.909536 0
M  V30 4509 H 430.788 -1.58602 -0.0558235 0
M  V30 4510 H 430.809 -2.93899 -2.41669 0
M  V30 4511 H 430.321 -3.7964 -0.805931 0
M  V30 4512 H 428.422 -2.4078 -2.84352 0
M  V30 4513 H 428.535 -4.20867 -2.28928 0
M  V30 4514 H 426.899 -2.18957 -1.30116 0
M  V30 4515 H 427.682 -3.42833 -0.179062 0
M  V30 4516 N 430.127 0.543554 -1.4793 0
M  V30 4517 C 431.543 0.870806 -1.3375 0
M  V30 4518 C 431.743 1.9864 -0.338261 0
M  V30 4519 O 430.799 2.51305 0.245371 0
M  V30 4520 C 432.112 1.25114 -2.73435 0
M  V30 4521 C 433.66 1.3618 -2.81823 0
M  V30 4522 C 434.135 1.77563 -4.22179 0
M  V30 4523 N 435.626 1.8469 -4.24787 0
M  V30 4524 C 436.361 2.18067 -5.30315 0
M  V30 4525 N 435.857 2.49963 -6.46135 0
M  V30 4526 N 437.65 2.18958 -5.17701 0
M  V30 4527 H 429.801 -0.19275 -2.11524 0
M  V30 4528 H 432.064 -0.0235777 -0.947707 0
M  V30 4529 H 431.77 0.50514 -3.48053 0
M  V30 4530 H 431.644 2.20431 -3.06088 0
M  V30 4531 H 434.031 2.09859 -2.07468 0
M  V30 4532 H 434.112 0.390169 -2.52807 0
M  V30 4533 H 433.756 1.04449 -4.97044 0
M  V30 4534 H 433.686 2.75753 -4.48629 0
M  V30 4535 H 436.177 1.62372 -3.41239 0
M  V30 4536 H 436.49 2.74497 -7.22406 0
M  V30 4537 H 434.835 2.47513 -6.49432 0
M  V30 4538 H 438.026 1.93488 -4.2624 0
M  V30 4539 H 438.199 2.44639 -6.00047 0
M  V30 4540 N 431.605 1.3629 0.791371 0
M  V30 4541 C 432.833 1.33562 1.58016 0
M  V30 4542 C 433.248 -0.0835616 1.88615 0
M  V30 4543 O 432.605 -1.0399 1.49974 0
M  V30 4544 C 432.656 2.15517 2.90232 0
M  V30 4545 O 432.377 3.51902 2.60953 0
M  V30 4546 C 433.878 2.20546 3.84544 0
M  V30 4547 H 431.098 0.458226 0.490173 0
M  V30 4548 H 433.642 1.79361 0.982345 0
M  V30 4549 H 431.797 1.73278 3.46487 0
M  V30 4550 H 432.211 3.94644 3.4548 0
M  V30 4551 H 433.685 2.82252 4.74382 0
M  V30 4552 H 434.162 1.20838 4.2225 0
M  V30 4553 H 434.768 2.63013 3.34222 0
M  V30 4554 N 433.083 -1.0153 1.20538 0
M  V30 4555 C 433.993 -2.13557 0.971113 0
M  V30 4556 C 435.009 -1.73845 -0.0734366 0
M  V30 4557 O 436.185 -2.01075 0.114299 0
M  V30 4558 C 433.25 -3.42661 0.527639 0
M  V30 4559 C 432.311 -3.96608 1.64319 0
M  V30 4560 C 431.544 -5.1955 1.22078 0
M  V30 4561 O 431.767 -5.70329 0.0900198 0
M  V30 4562 O 430.701 -5.66681 2.02871 0
M  V30 4563 H 434.527 -2.3619 1.90913 0
M  V30 4564 H 432.112 -1.11946 0.989362 0
M  V30 4565 H 433.994 -4.20404 0.289621 0
M  V30 4566 H 432.669 -3.21441 -0.381779 0
M  V30 4567 H 431.576 -3.20139 1.93551 0
M  V30 4568 H 432.909 -4.22219 2.52966 0
M  V30 4569 N 434.561 -1.01147 -1.20859 0
M  V30 4570 C 435.838 -0.613136 -1.85742 0
M  V30 4571 C 436.218 0.909004 -1.90526 0
M  V30 4572 O 435.566 1.79862 -1.40932 0
M  V30 4573 C 435.776 -1.255 -3.25654 0
M  V30 4574 C 437.124 -1.3672 -4.01986 0
M  V30 4575 O 438.148 -1.21082 -3.34989 0
M  V30 4576 O 437.007 -1.6194 -5.21956 0
M  V30 4577 H 434.101 -0.210878 -0.799662 0
M  V30 4578 H 436.647 -1.10853 -1.2849 0
M  V30 4579 H 435.419 -2.29532 -3.16908 0
M  V30 4580 H 435.042 -0.746369 -3.90532 0
M  V30 4581 N 436.039 1.36541 -0.78704 0
M  V30 4582 C 437.286 1.99304 -0.358341 0
M  V30 4583 C 437.614 1.62467 1.06933 0
M  V30 4584 O 436.869 0.870019 1.75297 0
M  V30 4585 C 437.168 3.54343 -0.466485 0
M  V30 4586 C 436.834 4.10993 -1.85461 0
M  V30 4587 C 435.496 4.26177 -2.23443 0
M  V30 4588 C 437.848 4.41895 -2.76366 0
M  V30 4589 C 435.176 4.69573 -3.51736 0
M  V30 4590 C 437.528 4.86722 -4.04084 0
M  V30 4591 C 436.192 5.00112 -4.42091 0
M  V30 4592 H 435.462 0.729306 -0.131126 0
M  V30 4593 H 438.109 1.63068 -1.00404 0
M  V30 4594 H 436.414 3.90918 0.262719 0
M  V30 4595 H 438.111 4.00833 -0.115854 0
M  V30 4596 H 434.701 3.99612 -1.54946 0
M  V30 4597 H 438.885 4.29735 -2.48277 0
M  V30 4598 H 434.141 4.78127 -3.81057 0
M  V30 4599 H 438.315 5.09598 -4.7464 0
M  V30 4600 H 435.942 5.33498 -5.41557 0
M  V30 4601 N 437.518 0.538854 1.48102 0
M  V30 4602 C 438.795 -0.0568108 1.95517 0
M  V30 4603 C 439.175 -1.50408 1.48124 0
M  V30 4604 O 438.523 -2.17133 0.711727 0
M  V30 4605 C 438.733 0.0696262 3.48931 0
M  V30 4606 C 440.081 -0.0851202 4.24515 0
M  V30 4607 O 441.105 -0.0037347 3.562 0
M  V30 4608 O 439.964 -0.257025 5.45895 0
M  V30 4609 H 437.058 -0.0743695 0.823649 0
M  V30 4610 H 439.604 0.604081 1.58584 0
M  V30 4611 H 438.376 1.07744 3.76174 0
M  V30 4612 H 437.999 -0.629714 3.92582 0
M  V30 4613 N 438.996 -1.55193 0.274407 0
M  V30 4614 C 440.244 -1.99187 -0.341902 0
M  V30 4615 C 440.565 -1.16422 -1.56431 0
M  V30 4616 O 439.835 -0.253573 -1.94252 0
M  V30 4617 H 438.415 -0.735721 -0.129317 0
M  V30 4618 H 441.077 -1.91168 0.379578 0
M  V30 4619 H 440.173 -3.05629 -0.632253 0
M  V30 4620 N 440.474 -0.00167713 -1.576 0
M  V30 4621 C 441.72 0.683832 -1.90923 0
M  V30 4622 C 442.053 1.7333 -0.875799 0
M  V30 4623 O 441.328 1.94215 0.10525 0
M  V30 4624 C 441.611 1.32543 -3.3482 0
M  V30 4625 C 441.464 0.287387 -4.48881 0
M  V30 4626 C 442.783 2.25114 -3.78169 0
M  V30 4627 H 439.902 0.247125 -0.694333 0
M  V30 4628 H 442.544 -0.0533149 -1.89925 0
M  V30 4629 H 440.694 1.95372 -3.35801 0
M  V30 4630 H 442.366 -0.341346 -4.60035 0
M  V30 4631 H 440.609 -0.39017 -4.32042 0
M  V30 4632 H 441.28 0.775393 -5.46527 0
M  V30 4633 H 443.756 1.723 -3.7875 0
M  V30 4634 H 442.632 2.66971 -4.79602 0
M  V30 4635 H 442.893 3.13092 -3.12131 0
M  V30 4636 N 441.952 1.55251 0.271103 0
M  V30 4637 C 443.198 1.7713 0.999832 0
M  V30 4638 C 443.553 0.56659 1.83868 0
M  V30 4639 O 442.846 -0.44069 1.86463 0
M  V30 4640 C 443.04 3.01879 1.91321 0
M  V30 4641 C 442.869 4.34368 1.16426 0
M  V30 4642 C 441.639 4.97593 0.879169 0
M  V30 4643 C 443.837 5.1131 0.553749 0
M  V30 4644 N 441.819 6.13813 0.103618 0
M  V30 4645 C 443.19 6.19938 -0.0875442 0
M  V30 4646 C 445.245 4.95754 0.461782 0
M  V30 4647 C 443.948 7.14703 -0.811942 0
M  V30 4648 C 445.974 5.90875 -0.249027 0
M  V30 4649 C 445.336 6.98893 -0.879051 0
M  V30 4650 H 441.435 0.700407 0.347784 0
M  V30 4651 H 444.019 1.92744 0.275314 0
M  V30 4652 H 442.19 2.87637 2.60997 0
M  V30 4653 H 443.922 3.12154 2.57569 0
M  V30 4654 H 440.677 4.58538 1.18491 0
M  V30 4655 H 441.101 6.76455 -0.271543 0
M  V30 4656 H 445.743 4.12342 0.934552 0
M  V30 4657 H 443.461 7.97634 -1.29639 0
M  V30 4658 H 447.047 5.80916 -0.320529 0
M  V30 4659 H 445.927 7.71231 -1.42031 0
M  V30 4660 N 443.43 -0.535701 1.48216 0
M  V30 4661 C 444.393 -1.623 1.61838 0
M  V30 4662 C 445.393 -1.53087 0.492024 0
M  V30 4663 O 446.583 -1.5686 0.757668 0
M  V30 4664 C 443.715 -3.01907 1.58319 0
M  V30 4665 H 444.908 -1.51564 2.58783 0
M  V30 4666 H 442.461 -0.757317 1.36727 0
M  V30 4667 H 443.196 -3.18155 0.628299 0
M  V30 4668 H 442.981 -3.10003 2.40085 0
M  V30 4669 H 444.471 -3.80969 1.71033 0
M  V30 4670 N 444.908 -1.36708 -0.784132 0
M  V30 4671 C 446.133 -1.34565 -1.5782 0
M  V30 4672 C 446.558 0.0695257 -1.87971 0
M  V30 4673 O 445.916 1.04302 -1.48293 0
M  V30 4674 C 445.964 -2.17952 -2.87279 0
M  V30 4675 O 445.068 -1.57563 -3.81114 0
M  V30 4676 H 444.409 -0.460337 -0.478524 0
M  V30 4677 H 446.939 -1.80064 -0.971495 0
M  V30 4678 H 446.949 -2.30721 -3.365 0
M  V30 4679 H 445.624 -3.20823 -2.64661 0
M  V30 4680 H 444.201 -1.53764 -3.39722 0
M  V30 4681 N 446.386 1.0089 -1.21074 0
M  V30 4682 C 447.349 2.0775 -0.968129 0
M  V30 4683 C 448.349 1.6069 0.0593445 0
M  V30 4684 O 449.539 1.73293 -0.177525 0
M  V30 4685 C 446.671 3.37794 -0.459108 0
M  V30 4686 H 447.864 2.30707 -1.9161 0
M  V30 4687 H 445.417 1.17807 -1.02719 0
M  V30 4688 H 446.152 3.20516 0.49397 0
M  V30 4689 H 445.937 3.7328 -1.20019 0
M  V30 4690 H 447.427 4.16454 -0.309099 0
M  V30 4691 N 447.864 1.01787 1.20321 0
M  V30 4692 C 448.827 0.593972 2.2137 0
M  V30 4693 C 449.827 -0.336553 1.57239 0
M  V30 4694 O 451.017 -0.125069 1.7375 0
M  V30 4695 C 448.149 -0.132433 3.40643 0
M  V30 4696 H 449.342 1.48791 2.60387 0
M  V30 4697 H 446.895 0.807803 1.33807 0
M  V30 4698 H 447.63 -1.04123 3.0713 0
M  V30 4699 H 447.415 0.53605 3.88418 0
M  V30 4700 H 448.905 -0.416314 4.1552 0
M  V30 4701 N 449.342 -1.36122 0.79427 0
M  V30 4702 C 450.59 -1.98718 0.368177 0
M  V30 4703 C 450.911 -1.63345 -1.06506 0
M  V30 4704 O 450.181 -0.909825 -1.73491 0
M  V30 4705 H 448.761 -0.735038 0.133146 0
M  V30 4706 H 451.423 -1.66239 1.01739 0
M  V30 4707 H 450.519 -3.08633 0.463923 0
M  V30 4708 N 450.82 -0.546701 -1.47814 0
M  V30 4709 C 452.06 -0.0209604 -2.04389 0
M  V30 4710 C 452.424 1.29993 -1.413 0
M  V30 4711 O 453.625 1.91273 -1.8886 0
M  V30 4712 C 451.896 0.0812844 -3.57308 0
M  V30 4713 S 453.455 0.55467 -4.3528 0
M  V30 4714 H 450.273 -0.0200865 -0.710716 0
M  V30 4715 H 452.875 -0.731055 -1.81317 0
M  V30 4716 H 451.579 -0.884616 -4.00753 0
M  V30 4717 H 451.11 0.815253 -3.8486 0
M  V30 4718 H 453.125 1.81627 -4.61764 0
M  V30 4719 N 452.299 1.55045 -0.282633 0
M  V30 4720 C 453.232 2.18951 0.64311 0
M  V30 4721 C 454.21 1.15287 1.14664 0
M  V30 4722 O 455.394 1.43846 1.21822 0
M  V30 4723 C 452.521 2.81874 1.87789 0
M  V30 4724 C 451.567 3.98906 1.50919 0
M  V30 4725 S 452.4 5.3234 0.580884 0
M  V30 4726 C 453.556 5.98737 1.82387 0
M  V30 4727 H 453.789 2.97131 0.100138 0
M  V30 4728 H 451.322 1.54255 -0.0668514 0
M  V30 4729 H 453.28 3.18757 2.58658 0
M  V30 4730 H 451.941 2.03573 2.392 0
M  V30 4731 H 451.134 4.4165 2.42819 0
M  V30 4732 H 450.736 3.63485 0.88061 0
M  V30 4733 H 453.028 6.18427 2.76684 0
M  V30 4734 H 453.971 6.93318 1.4393 0
M  V30 4735 H 454.379 5.28177 1.99223 0
M  V30 4736 N 453.777 0.010035 1.57597 0
M  V30 4737 C 455.193 -0.346164 1.55801 0
M  V30 4738 C 455.393 -1.74144 1.01371 0
M  V30 4739 O 454.449 -2.43938 0.651968 0
M  V30 4740 C 455.762 -0.212216 2.9995 0
M  V30 4741 C 457.31 -0.286409 3.11687 0
M  V30 4742 C 457.785 -0.18147 4.5764 0
M  V30 4743 N 459.276 -0.239056 4.62583 0
M  V30 4744 C 460.011 -0.181351 5.73113 0
M  V30 4745 N 459.507 -0.073661 6.92761 0
M  V30 4746 N 461.3 -0.233949 5.61613 0
M  V30 4747 H 453.451 0.922657 1.91313 0
M  V30 4748 H 455.714 0.354595 0.879185 0
M  V30 4749 H 455.42 0.748169 3.4365 0
M  V30 4750 H 455.294 -0.990224 3.6397 0
M  V30 4751 H 457.681 -1.23724 2.67911 0
M  V30 4752 H 457.762 0.521645 2.50425 0
M  V30 4753 H 457.406 0.765863 5.02093 0
M  V30 4754 H 457.336 -1.00814 5.1686 0
M  V30 4755 H 459.827 -0.32321 3.76515 0
M  V30 4756 H 460.14 -0.0358003 7.72792 0
M  V30 4757 H 458.485 -0.0391461 6.94989 0
M  V30 4758 H 461.676 -0.316347 4.6703 0
M  V30 4759 H 461.849 -0.185514 6.47734 0
M  V30 4760 N 455.255 -1.55392 -0.262866 0
M  V30 4761 C 456.203 -1.8977 -1.345 0
M  V30 4762 C 457.197 -0.775063 -1.50629 0
M  V30 4763 O 458.403 -0.959519 -1.52293 0
M  V30 4764 H 454.778 -0.602467 -0.450041 0
M  V30 4765 H 456.749 -2.80147 -1.02762 0
M  V30 4766 C 455.498 -2.19501 -2.69657 0
M  V30 4767 H 454.821 -3.05378 -2.5804 0
M  V30 4768 H 456.261 -2.47469 -3.44289 0
M  V30 4769 C 454.72 -1.00597 -3.21531 0
M  V30 4770 O 455.25 -0.245768 -4.00947 0
M  V30 4771 N 453.456 -0.800911 -2.79345 0
M  V30 4772 H 453.003 -1.42079 -2.14875 0
M  V30 4773 H 452.961 -0.00697996 -3.14399 0
M  V30 4774 N 456.733 0.527833 -1.48498 0
M  V30 4775 C 457.963 1.30633 -1.60058 0
M  V30 4776 C 458.371 1.87394 -0.260786 0
M  V30 4777 O 457.714 1.67227 0.760317 0
M  V30 4778 C 457.776 2.49361 -2.58958 0
M  V30 4779 C 457.44 2.13671 -4.03972 0
M  V30 4780 C 458.437 1.69217 -4.91591 0
M  V30 4781 C 456.122 2.24129 -4.49524 0
M  V30 4782 C 458.116 1.35689 -6.2279 0
M  V30 4783 C 455.803 1.90212 -5.80743 0
M  V30 4784 C 456.801 1.46063 -6.67199 0
M  V30 4785 O 456.489 1.12593 -7.95976 0
M  V30 4786 H 456.221 0.403444 -0.54241 0
M  V30 4787 H 458.775 0.643233 -1.95068 0
M  V30 4788 H 457.005 3.18659 -2.19073 0
M  V30 4789 H 458.694 3.11421 -2.6033 0
M  V30 4790 H 459.46 1.60607 -4.57636 0
M  V30 4791 H 455.339 2.57447 -3.82416 0
M  V30 4792 H 458.883 1.01157 -6.90227 0
M  V30 4793 H 454.78 1.98464 -6.14233 0
M  V30 4794 H 455.548 1.25972 -8.08748 0
M  V30 4795 N 458.211 1.37122 0.776871 0
M  V30 4796 C 459.141 1.35164 1.90402 0
M  V30 4797 C 460.122 0.221069 1.68657 0
M  V30 4798 O 461.307 0.420642 1.8959 0
M  V30 4799 C 458.437 1.15274 3.27611 0
M  V30 4800 C 457.391 2.25289 3.63908 0
M  V30 4801 C 456.717 1.90527 4.99603 0
M  V30 4802 C 458.017 3.67446 3.71188 0
M  V30 4803 H 459.711 2.29482 1.92297 0
M  V30 4804 H 457.257 1.10465 0.923773 0
M  V30 4805 H 459.21 1.12536 4.06096 0
M  V30 4806 H 457.934 0.174102 3.26136 0
M  V30 4807 H 456.593 2.27174 2.87728 0
M  V30 4808 H 456.241 0.91206 4.94662 0
M  V30 4809 H 455.941 2.64193 5.24858 0
M  V30 4810 H 457.465 1.89367 5.80493 0
M  V30 4811 H 458.879 3.67719 4.39836 0
M  V30 4812 H 457.276 4.40123 4.07936 0
M  V30 4813 H 458.346 4.01443 2.71977 0
M  V30 4814 N 459.689 -1.00246 1.21608 0
M  V30 4815 C 460.938 -1.73476 1.02902 0
M  V30 4816 C 461.251 -1.90643 -0.437561 0
M  V30 4817 O 462.457 -2.61105 -0.74407 0
M  V30 4818 C 460.913 -3.12079 1.79261 0
M  V30 4819 C 460.521 -3.02877 3.30106 0
M  V30 4820 C 462.265 -3.89421 1.68972 0
M  V30 4821 C 460.172 -4.36575 3.98944 0
M  V30 4822 H 459.102 -0.650408 0.381425 0
M  V30 4823 H 461.753 -1.11985 1.45367 0
M  V30 4824 H 460.135 -3.74196 1.2959 0
M  V30 4825 H 461.309 -2.49983 3.87098 0
M  V30 4826 H 459.624 -2.39022 3.40965 0
M  V30 4827 H 462.221 -4.88362 2.17731 0
M  V30 4828 H 462.564 -4.1122 0.648397 0
M  V30 4829 H 463.097 -3.33963 2.16133 0
M  V30 4830 H 459.836 -4.19978 5.03288 0
M  V30 4831 H 459.356 -4.8942 3.4674 0
M  V30 4832 H 461.035 -5.05364 4.04 0
M  V30 4833 N 461.167 -1.02423 -1.1978 0
M  V30 4834 C 462.097 -0.62157 -2.25075 0
M  V30 4835 C 463.078 0.367148 -1.6609 0
M  V30 4836 O 464.263 0.250892 -1.92573 0
M  V30 4837 C 461.393 0.0331826 -3.47284 0
M  V30 4838 C 460.347 -0.877323 -4.18912 0
M  V30 4839 C 459.673 -0.0879296 -5.34628 0
M  V30 4840 C 460.973 -2.18892 -4.74219 0
M  V30 4841 H 462.667 -1.50179 -2.59011 0
M  V30 4842 H 460.213 -0.723547 -1.24502 0
M  V30 4843 H 462.166 0.326488 -4.20133 0
M  V30 4844 H 460.89 0.948164 -3.12534 0
M  V30 4845 H 459.549 -1.15475 -3.47938 0
M  V30 4846 H 459.197 0.828941 -4.96123 0
M  V30 4847 H 458.897 -0.694359 -5.83483 0
M  V30 4848 H 460.421 0.198743 -6.10276 0
M  V30 4849 H 461.835 -1.95746 -5.38847 0
M  V30 4850 H 460.232 -2.74686 -5.33542 0
M  V30 4851 H 461.302 -2.84674 -3.92541 0
M  V30 4852 N 462.645 1.35699 -0.801477 0
M  V30 4853 C 463.592 2.29876 -0.206294 0
M  V30 4854 C 464.562 1.52565 0.656752 0
M  V30 4855 O 465.747 1.81024 0.602906 0
M  V30 4856 C 462.887 3.39052 0.643272 0
M  V30 4857 C 462 4.31335 -0.239644 0
M  V30 4858 C 461.135 5.27599 0.61744 0
M  V30 4859 C 460.174 6.11521 -0.26619 0
M  V30 4860 N 459.311 6.99938 0.550571 0
M  V30 4861 H 464.151 2.80187 -1.01484 0
M  V30 4862 H 461.688 1.37902 -0.511997 0
M  V30 4863 H 463.646 4.0101 1.15094 0
M  V30 4864 H 462.276 2.9003 1.41713 0
M  V30 4865 H 461.328 3.70426 -0.865381 0
M  V30 4866 H 462.64 4.90243 -0.919985 0
M  V30 4867 H 461.794 5.94906 1.19045 0
M  V30 4868 H 460.533 4.69176 1.33137 0
M  V30 4869 H 459.538 5.43166 -0.851507 0
M  V30 4870 H 460.763 6.72022 -0.9779 0
M  V30 4871 H 458.709 6.44008 1.24856 0
M  V30 4872 H 458.626 7.55966 -0.071832 0
M  V30 4873 H 459.894 7.71599 1.10702 0
M  V30 4874 N 464.123 0.554532 1.47522 0
M  V30 4875 C 465.033 -0.197865 2.33764 0
M  V30 4876 C 466.049 -0.914576 1.48025 0
M  V30 4877 O 467.225 -0.884067 1.80959 0
M  V30 4878 C 464.29 -1.21628 3.24665 0
M  V30 4879 C 463.351 -0.507283 4.26292 0
M  V30 4880 C 462.584 -1.47718 5.1285 0
M  V30 4881 O 462.807 -2.7118 5.01814 0
M  V30 4882 O 461.741 -1.00313 5.93482 0
M  V30 4883 H 465.567 0.50949 2.99396 0
M  V30 4884 H 463.152 0.315176 1.46038 0
M  V30 4885 H 465.034 -1.80421 3.80823 0
M  V30 4886 H 463.709 -1.9056 2.61665 0
M  V30 4887 H 462.616 0.121778 3.73902 0
M  V30 4888 H 463.949 0.140544 4.91999 0
M  V30 4889 N 465.601 -1.54893 0.290851 0
M  V30 4890 C 467.017 -1.59476 -0.0628432 0
M  V30 4891 C 467.217 -1.30795 -1.5328 0
M  V30 4892 O 466.273 -1.07644 -2.28406 0
M  V30 4893 C 467.586 -2.98928 0.325962 0
M  V30 4894 C 469.134 -3.11799 0.273882 0
M  V30 4895 C 469.609 -4.53544 0.637359 0
M  V30 4896 N 471.1 -4.59433 0.589507 0
M  V30 4897 C 471.835 -5.67164 0.84335 0
M  V30 4898 N 471.331 -6.82975 1.16263 0
M  V30 4899 N 473.124 -5.56786 0.771091 0
M  V30 4900 H 465.275 -1.71798 1.24896 0
M  V30 4901 H 467.538 -0.801879 0.505663 0
M  V30 4902 H 467.244 -3.24805 1.34887 0
M  V30 4903 H 467.118 -3.75793 -0.325441 0
M  V30 4904 H 469.505 -2.85677 -0.739765 0
M  V30 4905 H 469.586 -2.37112 0.959766 0
M  V30 4906 H 469.23 -4.80394 1.64877 0
M  V30 4907 H 469.16 -5.26553 -0.0704866 0
M  V30 4908 H 471.651 -3.76245 0.353252 0
M  V30 4909 H 471.964 -7.61048 1.34257 0
M  V30 4910 H 470.309 -6.84552 1.20057 0
M  V30 4911 H 473.5 -4.65187 0.521383 0
M  V30 4912 H 473.673 -6.40664 0.972295 0
M  V30 4913 N 467.08 -0.0183926 -1.57589 0
M  V30 4914 C 468.043 0.951986 -2.08494 0
M  V30 4915 C 469.043 1.26092 -0.997874 0
M  V30 4916 O 470.233 1.20304 -1.25987 0
M  V30 4917 C 467.365 2.27165 -2.54182 0
M  V30 4918 H 468.558 0.511307 -2.95509 0
M  V30 4919 H 466.111 0.229444 -1.54607 0
M  V30 4920 H 466.846 2.75884 -1.70465 0
M  V30 4921 H 466.631 2.06057 -3.33591 0
M  V30 4922 H 468.121 2.9674 -2.93828 0
M  V30 4923 N 468.558 1.5553 0.254621 0
M  V30 4924 C 469.521 1.88872 1.29846 0
M  V30 4925 C 470.521 0.764591 1.41459 0
M  V30 4926 O 471.711 1.03265 1.40293 0
M  V30 4927 C 468.843 2.11032 2.67728 0
M  V30 4928 H 470.036 2.82201 1.01502 0
M  V30 4929 H 467.589 1.48303 0.493556 0
M  V30 4930 H 468.324 1.20146 3.01223 0
M  V30 4931 H 468.109 2.92895 2.60682 0
M  V30 4932 H 469.599 2.38038 3.43115 0
M  V30 4933 N 470.036 -0.519951 1.48776 0
M  V30 4934 C 470.999 -1.60574 1.6355 0
M  V30 4935 C 471.999 -1.52557 0.508234 0
M  V30 4936 O 473.189 -1.56047 0.774262 0
M  V30 4937 C 470.321 -3.00211 1.61512 0
M  V30 4938 H 471.514 -1.4881 2.60376 0
M  V30 4939 H 469.067 -0.742772 1.37523 0
M  V30 4940 H 469.802 -3.17471 0.662009 0
M  V30 4941 H 469.587 -3.07439 2.43359 0
M  V30 4942 H 471.077 -3.79134 1.75064 0
M  V30 4943 N 471.514 -1.37532 -0.769588 0
M  V30 4944 C 472.761 -1.3286 -1.52822 0
M  V30 4945 C 473.089 0.0862597 -1.94309 0
M  V30 4946 O 472.344 1.05995 -1.6451 0
M  V30 4947 C 472.643 -2.21558 -2.8044 0
M  V30 4948 C 472.309 -3.69796 -2.57996 0
M  V30 4949 C 470.971 -4.10194 -2.51583 0
M  V30 4950 C 473.323 -4.63699 -2.37976 0
M  V30 4951 C 470.651 -5.42608 -2.23144 0
M  V30 4952 C 473.003 -5.96353 -2.1106 0
M  V30 4953 C 471.667 -6.35853 -2.03093 0
M  V30 4954 H 470.937 -0.486168 -0.559215 0
M  V30 4955 H 473.584 -1.69757 -0.886277 0
M  V30 4956 H 471.889 -1.77663 -3.49204 0
M  V30 4957 H 473.586 -2.15256 -3.38328 0
M  V30 4958 H 470.176 -3.37759 -2.63851 0
M  V30 4959 H 474.36 -4.33346 -2.41919 0
M  V30 4960 H 469.616 -5.72173 -2.15472 0
M  V30 4961 H 473.79 -6.68667 -1.94568 0
M  V30 4962 H 471.417 -7.38382 -1.8082 0
M  V30 4963 N 472.992 0.995999 -1.22138 0
M  V30 4964 C 474.408 1.25917 -0.980667 0
M  V30 4965 C 474.608 1.98819 0.327604 0
M  V30 4966 O 473.664 2.29587 1.05101 0
M  V30 4967 C 474.977 2.07399 -2.17729 0
M  V30 4968 C 476.525 2.20594 -2.22052 0
M  V30 4969 C 477 3.05462 -3.41258 0
M  V30 4970 N 478.491 3.13049 -3.41401 0
M  V30 4971 C 479.226 3.78997 -4.30289 0
M  V30 4972 N 478.722 4.46899 -5.2939 0
M  V30 4973 N 480.515 3.75728 -4.18073 0
M  V30 4974 H 472.666 0.507158 -2.06256 0
M  V30 4975 H 474.929 0.28658 -0.903646 0
M  V30 4976 H 474.635 1.61191 -3.12586 0
M  V30 4977 H 474.509 3.08154 -2.17534 0
M  V30 4978 H 476.896 2.66017 -1.27745 0
M  V30 4979 H 476.977 1.1928 -2.26287 0
M  V30 4980 H 476.621 2.60739 -4.35864 0
M  V30 4981 H 476.551 4.06911 -3.34262 0
M  V30 4982 H 479.042 2.64721 -2.69688 0
M  V30 4983 H 479.355 4.94952 -5.935 0
M  V30 4984 H 477.7 4.45657 -5.33306 0
M  V30 4985 H 480.891 3.2184 -3.39907 0
M  V30 4986 H 481.064 4.26845 -4.87553 0
M  V30 4987 N 474.47 1.03057 1.19235 0
M  V30 4988 C 475.433 0.617418 2.20727 0
M  V30 4989 C 476.433 -0.319856 1.57587 0
M  V30 4990 O 477.623 -0.106633 1.73873 0
M  V30 4991 C 474.755 -0.096296 3.40764 0
M  V30 4992 H 475.948 1.51544 2.58794 0
M  V30 4993 H 473.501 0.821949 1.32942 0
M  V30 4994 H 474.236 -1.00859 3.08217 0
M  V30 4995 H 474.021 0.577217 3.87828 0
M  V30 4996 H 475.511 -0.372219 4.15938 0
M  V30 4997 N 475.948 -1.35272 0.808662 0
M  V30 4998 C 477.225 -1.93077 0.313181 0
M  V30 4999 C 477.605 -1.73847 -1.19752 0
M  V30 5000 O 476.953 -1.1087 -1.998 0
M  V30 5001 C 477.163 -3.41347 0.726859 0
M  V30 5002 C 478.511 -4.18493 0.717532 0
M  V30 5003 O 479.535 -3.4987 0.668535 0
M  V30 5004 O 478.394 -5.40937 0.777779 0
M  V30 5005 H 475.488 -0.822885 0.0824018 0
M  V30 5006 H 478.034 -1.44335 0.892499 0
M  V30 5007 H 476.806 -3.49082 1.76797 0
M  V30 5008 H 476.429 -3.97411 0.122461 0
M  V30 5009 N 477.426 -0.562348 -1.47226 0
M  V30 5010 C 478.837 -0.130325 -1.86245 0
M  V30 5011 C 479.188 1.30128 -1.46838 0
M  V30 5012 O 478.313 1.97974 -0.873805 0
M  V30 5013 C 478.908 -0.229738 -3.3802 0
M  V30 5014 C 477.467 0.14728 -3.76112 0
M  V30 5015 C 476.614 -0.574971 -2.71274 0
M  V30 5016 H 479.565 -0.771773 -1.3867 0
M  V30 5017 H 479.586 0.550316 -3.76499 0
M  V30 5018 H 479.098 -1.27178 -3.66671 0
M  V30 5019 H 477.199 1.19023 -3.53078 0
M  V30 5020 H 477.312 -0.214858 -4.78618 0
M  V30 5021 H 475.676 -0.0174756 -2.54694 0
M  V30 5022 H 476.459 -1.61827 -3.02766 0
M  V30 5023 N 478.904 1.54736 -0.299062 0
M  V30 5024 C 479.814 2.27127 0.587413 0
M  V30 5025 C 480.83 1.30575 1.15005 0
M  V30 5026 O 482.006 1.63554 1.17525 0
M  V30 5027 C 479.071 2.99645 1.74395 0
M  V30 5028 C 478.132 4.11731 1.21559 0
M  V30 5029 C 477.365 4.80781 2.317 0
M  V30 5030 O 477.588 4.4918 3.51558 0
M  V30 5031 O 476.522 5.68226 1.98501 0
M  V30 5032 H 480.348 3.037 0.000250109 0
M  V30 5033 H 477.933 1.49256 -0.0655919 0
M  V30 5034 H 479.815 3.45138 2.4178 0
M  V30 5035 H 478.49 2.25969 2.31775 0
M  V30 5036 H 477.397 3.70641 0.507514 0
M  V30 5037 H 478.73 4.87379 0.687233 0
M  V30 5038 N 480.382 0.0267497 1.57577 0
M  V30 5039 C 481.628 -0.653371 1.91987 0
M  V30 5040 C 481.961 -1.71915 0.903263 0
M  V30 5041 O 481.236 -1.94358 -0.0743387 0
M  V30 5042 C 481.519 -1.272 3.36886 0
M  V30 5043 C 481.372 -0.215938 4.49281 0
M  V30 5044 C 482.691 -2.19069 3.81703 0
M  V30 5045 H 479.81 -0.236047 0.698177 0
M  V30 5046 H 482.452 0.0835236 1.89816 0
M  V30 5047 H 480.602 -1.90005 3.38866 0
M  V30 5048 H 482.274 0.41449 4.59434 0
M  V30 5049 H 480.517 0.458855 4.31366 0
M  V30 5050 H 481.188 -0.688347 5.47691 0
M  V30 5051 H 483.664 -1.66253 3.81444 0
M  V30 5052 H 482.54 -2.59307 4.83788 0
M  V30 5053 H 482.801 -3.08087 3.17072 0
M  V30 5054 N 481.861 -1.55662 -0.24637 0
M  V30 5055 C 482.793 -1.86811 -1.32794 0
M  V30 5056 C 483.806 -0.754413 -1.44265 0
M  V30 5057 O 484.995 -1.03253 -1.45606 0
M  V30 5058 C 482.095 -2.0397 -2.70646 0
M  V30 5059 C 481.268 -3.34832 -2.81436 0
M  V30 5060 C 480.327 -3.41727 -4.00136 0
M  V30 5061 O 479.353 -4.14934 -3.89639 0
M  V30 5062 N 480.555 -2.71058 -5.1333 0
M  V30 5063 H 483.32 -2.80174 -1.06409 0
M  V30 5064 H 480.881 -1.55906 -0.43647 0
M  V30 5065 H 482.873 -2.05924 -3.48393 0
M  V30 5066 H 481.443 -1.1735 -2.89738 0
M  V30 5067 H 480.663 -3.4519 -1.90361 0
M  V30 5068 H 481.951 -4.21085 -2.85595 0
M  V30 5069 H 481.349 -2.11314 -5.2475 0
M  V30 5070 H 479.906 -2.78704 -5.89209 0
M  V30 5071 N 483.339 0.512053 -1.4905 0
M  V30 5072 C 484.249 1.64139 -1.67617 0
M  V30 5073 C 485.265 1.64786 -0.558701 0
M  V30 5074 O 486.441 1.8341 -0.832034 0
M  V30 5075 C 483.506 3.00548 -1.72835 0
M  V30 5076 C 482.567 3.10615 -2.96339 0
M  V30 5077 C 481.8 4.40517 -3.01298 0
M  V30 5078 O 482.023 5.28671 -2.14157 0
M  V30 5079 O 480.957 4.55325 -3.93653 0
M  V30 5080 H 484.783 1.51407 -2.63267 0
M  V30 5081 H 482.368 0.687131 -1.32661 0
M  V30 5082 H 484.25 3.81641 -1.78683 0
M  V30 5083 H 482.925 3.13566 -0.803616 0
M  V30 5084 H 481.832 2.2875 -2.96014 0
M  V30 5085 H 483.165 3.0252 -3.88256 0
M  V30 5086 N 484.817 1.37938 0.762283 0
M  V30 5087 C 485.78 1.34279 1.85747 0
M  V30 5088 C 486.78 0.244969 1.58923 0
M  V30 5089 O 487.97 0.501365 1.66829 0
M  V30 5090 C 485.102 1.08833 3.23061 0
M  V30 5091 H 486.295 2.31705 1.90401 0
M  V30 5092 H 483.848 1.23105 0.963057 0
M  V30 5093 H 484.583 0.119767 3.24079 0
M  V30 5094 H 484.368 1.88306 3.43923 0
M  V30 5095 H 485.858 1.08946 4.03138 0
M  V30 5096 N 486.295 -0.989507 1.22664 0
M  V30 5097 C 487.225 -2.09847 1.02404 0
M  V30 5098 C 488.206 -1.70007 -0.0561303 0
M  V30 5099 O 489.391 -1.93906 0.106748 0
M  V30 5100 C 486.521 -3.41996 0.604663 0
M  V30 5101 C 485.475 -3.95699 1.63115 0
M  V30 5102 C 484.801 -5.23936 1.0675 0
M  V30 5103 C 486.101 -4.25999 3.02196 0
M  V30 5104 H 487.795 -2.27054 1.95158 0
M  V30 5105 H 485.341 -1.09111 0.939727 0
M  V30 5106 H 487.294 -4.1899 0.45002 0
M  V30 5107 H 486.018 -3.24626 -0.35855 0
M  V30 5108 H 484.677 -3.2084 1.77362 0
M  V30 5109 H 484.325 -5.02909 0.0955422 0
M  V30 5110 H 484.025 -5.60833 1.75328 0
M  V30 5111 H 485.549 -6.0356 0.924516 0
M  V30 5112 H 486.963 -4.93777 2.91303 0
M  V30 5113 H 485.36 -4.74076 3.67929 0
M  V30 5114 H 486.43 -3.33636 3.51873 0
M  V30 5115 N 487.773 -1.03688 -1.18687 0
M  V30 5116 C 489.189 -0.755413 -1.4059 0
M  V30 5117 C 489.389 0.656659 -1.905 0
M  V30 5118 O 488.445 1.42144 -2.08689 0
M  V30 5119 C 489.758 -1.7983 -2.41001 0
M  V30 5120 C 491.306 -1.81877 -2.54735 0
M  V30 5121 C 491.781 -2.85148 -3.58406 0
M  V30 5122 N 493.272 -2.84015 -3.6591 0
M  V30 5123 C 494.007 -3.60573 -4.45841 0
M  V30 5124 N 493.503 -4.46871 -5.29413 0
M  V30 5125 N 495.296 -3.49079 -4.40568 0
M  V30 5126 H 487.447 -1.94818 -0.846148 0
M  V30 5127 H 489.71 -0.842727 -0.434184 0
M  V30 5128 H 489.416 -2.81097 -2.1137 0
M  V30 5129 H 489.29 -1.62727 -3.40294 0
M  V30 5130 H 491.677 -0.812836 -2.83685 0
M  V30 5131 H 491.758 -2.03057 -1.55568 0
M  V30 5132 H 491.402 -3.85918 -3.30197 0
M  V30 5133 H 491.332 -2.61224 -4.57241 0
M  V30 5134 H 493.823 -2.21431 -3.0623 0
M  V30 5135 H 494.136 -5.02007 -5.87545 0
M  V30 5136 H 492.481 -4.5094 -5.28846 0
M  V30 5137 H 495.672 -2.81066 -3.74325 0
M  V30 5138 H 495.845 -4.08994 -5.02621 0
M  V30 5139 N 489.251 1.34841 -0.815825 0
M  V30 5140 C 490.214 2.27959 -0.238185 0
M  V30 5141 C 491.214 1.49983 0.579816 0
M  V30 5142 O 492.404 1.69617 0.396953 0
M  V30 5143 C 489.536 3.34314 0.666876 0
M  V30 5144 H 490.729 2.80558 -1.05958 0
M  V30 5145 H 488.282 1.44852 -0.587156 0
M  V30 5146 H 489.017 2.86916 1.5116 0
M  V30 5147 H 488.802 3.92014 0.0819106 0
M  V30 5148 H 490.292 4.0379 1.06506 0
M  V30 5149 N 490.729 0.570148 1.46925 0
M  V30 5150 C 491.954 0.0542592 2.07329 0
M  V30 5151 C 492.379 -1.23582 1.41806 0
M  V30 5152 O 491.737 -1.74341 0.497479 0
M  V30 5153 C 491.785 -0.111175 3.60429 0
M  V30 5154 O 490.889 -1.17071 3.95434 0
M  V30 5155 H 490.23 0.0571425 0.661537 0
M  V30 5156 H 492.76 0.789516 1.88753 0
M  V30 5157 H 492.77 -0.321315 4.06733 0
M  V30 5158 H 491.445 0.831012 4.07513 0
M  V30 5159 H 490.022 -0.940029 3.60857 0
M  V30 5160 N 492.207 -1.54576 0.307264 0
M  V30 5161 C 493.623 -1.59534 -0.0459251 0
M  V30 5162 C 493.823 -1.32414 -1.51884 0
M  V30 5163 O 492.879 -1.1006 -2.27251 0
M  V30 5164 C 494.192 -2.98566 0.357649 0
M  V30 5165 C 495.74 -3.11491 0.306937 0
M  V30 5166 C 496.215 -4.52842 0.685427 0
M  V30 5167 N 497.706 -4.58782 0.638203 0
M  V30 5168 C 498.441 -5.66238 0.903458 0
M  V30 5169 N 497.937 -6.81703 1.23501 0
M  V30 5170 N 499.73 -5.55937 0.830102 0
M  V30 5171 H 491.881 -1.70464 1.26712 0
M  V30 5172 H 494.144 -0.79647 0.514139 0
M  V30 5173 H 493.85 -3.23356 1.38325 0
M  V30 5174 H 493.724 -3.76117 -0.285565 0
M  V30 5175 H 496.111 -2.86446 -0.709424 0
M  V30 5176 H 496.192 -2.36081 0.984861 0
M  V30 5177 H 495.836 -4.78618 1.69963 0
M  V30 5178 H 495.766 -5.26598 -0.0146346 0
M  V30 5179 H 498.257 -3.75849 0.393138 0
M  V30 5180 H 498.57 -7.59582 1.42322 0
M  V30 5181 H 496.915 -6.8324 1.27311 0
M  V30 5182 H 500.106 -4.64608 0.570693 0
M  V30 5183 H 500.279 -6.39597 1.04019 0
M  V30 5184 N 493.685 -0.035106 -1.57561 0
M  V30 5185 C 494.615 0.942993 -2.13612 0
M  V30 5186 C 495.596 1.33531 -1.05373 0
M  V30 5187 O 496.781 1.41287 -1.33235 0
M  V30 5188 C 493.911 2.22332 -2.66807 0
M  V30 5189 C 492.865 1.97156 -3.79886 0
M  V30 5190 C 492.191 3.31506 -4.19533 0
M  V30 5191 C 493.491 1.30596 -5.05709 0
M  V30 5192 H 495.185 0.476179 -2.95589 0
M  V30 5193 H 492.731 0.227602 -1.4219 0
M  V30 5194 H 494.684 2.91142 -3.04654 0
M  V30 5195 H 493.408 2.7119 -1.81999 0
M  V30 5196 H 492.067 1.30763 -3.42486 0
M  V30 5197 H 491.715 3.78134 -3.31698 0
M  V30 5198 H 491.415 3.15465 -4.95738 0
M  V30 5199 H 492.939 4.01574 -4.59968 0
M  V30 5200 H 494.353 1.89416 -5.41105 0
M  V30 5201 H 492.75 1.24934 -5.86951 0
M  V30 5202 H 493.82 0.279742 -4.84092 0
M  V30 5203 N 495.163 1.55791 0.238111 0
M  V30 5204 C 496.44 1.68798 0.98826 0
M  V30 5205 C 496.82 0.577562 2.03045 0
M  V30 5206 O 496.168 -0.41778 2.24648 0
M  V30 5207 C 496.378 3.09454 1.61367 0
M  V30 5208 C 497.726 3.68335 2.11221 0
M  V30 5209 O 498.75 3.1231 1.71292 0
M  V30 5210 O 497.609 4.6657 2.84561 0
M  V30 5211 H 494.703 0.686881 0.460568 0
M  V30 5212 H 497.249 1.68118 0.231202 0
M  V30 5213 H 496.021 3.81726 0.860295 0
M  V30 5214 H 495.644 3.14182 2.4367 0
M  V30 5215 N 496.642 -0.504142 1.49319 0
M  V30 5216 C 497.552 -1.63248 1.68486 0
M  V30 5217 C 498.568 -1.64488 0.567432 0
M  V30 5218 O 499.744 -1.82966 0.841749 0
M  V30 5219 C 496.809 -2.99627 1.74426 0
M  V30 5220 C 495.87 -3.09039 2.97982 0
M  V30 5221 C 495.103 -4.38913 3.0363 0
M  V30 5222 O 495.326 -5.27528 2.16958 0
M  V30 5223 O 494.26 -4.53231 3.96062 0
M  V30 5224 H 498.086 -1.50008 2.64067 0
M  V30 5225 H 495.671 -0.680086 1.33023 0
M  V30 5226 H 497.553 -3.80689 1.80705 0
M  V30 5227 H 496.228 -3.13136 0.820233 0
M  V30 5228 H 495.135 -2.27177 2.97223 0
M  V30 5229 H 496.468 -3.00456 3.89855 0
M  V30 5230 N 498.12 -1.38341 -0.754957 0
M  V30 5231 C 499.05 -1.38176 -1.88227 0
M  V30 5232 C 500.031 -0.247873 -1.68284 0
M  V30 5233 O 501.216 -0.45075 -1.88896 0
M  V30 5234 C 498.346 -1.20471 -3.25736 0
M  V30 5235 C 497.3 -2.3105 -3.60278 0
M  V30 5236 C 496.626 -1.98452 -4.96509 0
M  V30 5237 C 497.926 -3.73305 -3.65295 0
M  V30 5238 H 499.62 -2.32512 -1.88622 0
M  V30 5239 H 497.166 -1.1192 -0.906082 0
M  V30 5240 H 499.119 -1.18982 -4.04254 0
M  V30 5241 H 497.843 -0.225965 -3.25817 0
M  V30 5242 H 496.502 -2.31723 -2.84078 0
M  V30 5243 H 496.15 -0.990641 -4.93148 0
M  V30 5244 H 495.85 -2.7251 -5.20588 0
M  V30 5245 H 497.374 -1.98578 -5.77407 0
M  V30 5246 H 498.788 -3.7467 -4.3393 0
M  V30 5247 H 497.185 -4.46557 -4.00883 0
M  V30 5248 H 498.255 -4.05719 -2.65556 0
M  V30 5249 N 499.598 0.982988 -1.23187 0
M  V30 5250 C 500.561 2.05649 -1.01198 0
M  V30 5251 C 501.561 1.6078 0.0252464 0
M  V30 5252 O 502.751 1.72878 -0.214243 0
M  V30 5253 C 499.883 3.36744 -0.530656 0
M  V30 5254 H 501.076 2.2659 -1.96461 0
M  V30 5255 H 498.629 1.15602 -1.05195 0
M  V30 5256 H 499.364 3.21492 0.425873 0
M  V30 5257 H 499.149 3.7065 -1.2791 0
M  V30 5258 H 500.639 4.15705 -0.397366 0
M  V30 5259 N 501.076 1.04316 1.18135 0
M  V30 5260 C 502.492 0.762858 1.40188 0
M  V30 5261 C 502.692 -0.646547 1.90846 0
M  V30 5262 O 501.748 -1.41036 2.0944 0
M  V30 5263 C 503.061 1.81106 2.40044 0
M  V30 5264 C 504.609 1.83226 2.53766 0
M  V30 5265 C 505.084 2.87044 3.56889 0
M  V30 5266 N 506.575 2.85951 3.64398 0
M  V30 5267 C 507.31 3.62932 4.43923 0
M  V30 5268 N 506.806 4.49672 5.27036 0
M  V30 5269 N 508.599 3.51411 4.38711 0
M  V30 5270 H 500.75 1.95264 0.835805 0
M  V30 5271 H 503.013 0.845017 0.429709 0
M  V30 5272 H 502.719 2.82214 2.09876 0
M  V30 5273 H 502.593 1.64529 3.39426 0
M  V30 5274 H 504.98 0.827869 2.8325 0
M  V30 5275 H 505.061 2.03879 1.54489 0
M  V30 5276 H 504.705 3.87663 3.28145 0
M  V30 5277 H 504.635 2.63645 4.5585 0
M  V30 5278 H 507.126 2.23051 3.05052 0
M  V30 5279 H 507.439 5.05116 5.84874 0
M  V30 5280 H 505.784 4.53738 5.26447 0
M  V30 5281 H 508.975 2.83047 3.72829 0
M  V30 5282 H 509.148 4.11654 5.00445 0
M  V30 5283 N 502.554 -1.34406 0.822964 0
M  V30 5284 C 503.965 -1.8069 0.469879 0
M  V30 5285 C 504.316 -1.68223 -1.00972 0
M  V30 5286 O 503.441 -1.22226 -1.78577 0
M  V30 5287 C 504.036 -3.28064 0.846118 0
M  V30 5288 C 502.595 -3.72428 0.545402 0
M  V30 5289 C 501.742 -2.56116 1.06301 0
M  V30 5290 H 504.693 -1.22153 1.01313 0
M  V30 5291 H 504.714 -3.80205 0.149922 0
M  V30 5292 H 504.226 -3.37107 1.92304 0
M  V30 5293 H 502.327 -3.68924 -0.522109 0
M  V30 5294 H 502.44 -4.66548 1.0895 0
M  V30 5295 H 500.804 -2.50048 0.484554 0
M  V30 5296 H 501.587 -2.67928 2.14638 0
M  V30 5297 N 504.032 -0.577932 -1.46621 0
M  V30 5298 C 505.26 -0.0671642 -2.06791 0
M  V30 5299 C 505.675 1.23571 -1.42743 0
M  V30 5300 O 505.032 1.74602 -0.531062 0
M  V30 5301 C 505.083 0.110357 -3.61332 0
M  V30 5302 O 504.804 -1.14095 -4.22982 0
M  V30 5303 C 506.305 0.656025 -4.38419 0
M  V30 5304 H 503.525 -0.0552732 -0.66872 0
M  V30 5305 H 506.069 -0.797242 -1.8832 0
M  V30 5306 H 504.224 0.790637 -3.79246 0
M  V30 5307 H 504.638 -0.951742 -5.15793 0
M  V30 5308 H 506.112 0.729438 -5.47159 0
M  V30 5309 H 506.589 1.67195 -4.06131 0
M  V30 5310 H 507.195 0.0107692 -4.25299 0
M  V30 5311 N 505.51 1.54411 -0.315457 0
M  V30 5312 C 506.473 2.22713 0.54142 0
M  V30 5313 C 507.473 1.2179 1.04995 0
M  V30 5314 O 508.663 1.46426 0.943667 0
M  V30 5315 C 505.795 2.92485 1.75116 0
M  V30 5316 H 506.988 2.99849 -0.0555508 0
M  V30 5317 H 504.541 1.56159 -0.0664453 0
M  V30 5318 H 505.276 2.19466 2.38758 0
M  V30 5319 H 505.061 3.66483 1.39401 0
M  V30 5320 H 506.551 3.44548 2.35959 0
M  V30 5321 N 506.988 0.0434614 1.5754 0
M  V30 5322 C 507.951 -0.918696 2.09982 0
M  V30 5323 C 508.951 -1.24488 1.01781 0
M  V30 5324 O 510.141 -1.18284 1.27885 0
M  V30 5325 C 507.273 -2.23093 2.57764 0
M  V30 5326 H 508.466 -0.464229 2.96285 0
M  V30 5327 H 506.019 -0.204818 1.54952 0
M  V30 5328 H 506.754 -2.73137 1.74832 0
M  V30 5329 H 506.539 -2.00724 3.36827 0
M  V30 5330 H 508.029 -2.92028 2.98512 0
M  V30 5331 N 508.466 -1.55915 -0.229846 0
M  V30 5332 C 509.743 -1.6932 -0.979295 0
M  V30 5333 C 510.123 -0.588321 -2.02736 0
M  V30 5334 O 509.471 0.40586 -2.24867 0
M  V30 5335 C 509.681 -3.10305 -1.59724 0
M  V30 5336 C 511.029 -3.6945 -2.09264 0
M  V30 5337 O 512.053 -3.13214 -1.69633 0
M  V30 5338 O 510.912 -4.68072 -2.82082 0
M  V30 5339 H 508.006 -0.689314 -0.456919 0
M  V30 5340 H 510.552 -1.68238 -0.222283 0
M  V30 5341 H 509.324 -3.82177 -0.840039 0
M  V30 5342 H 508.947 -3.1547 -2.42001 0
M  V30 5343 N 509.944 0.496216 -1.49584 0
M  V30 5344 C 511.192 1.24756 -1.58998 0
M  V30 5345 C 511.513 1.92968 -0.280775 0
M  V30 5346 O 510.783 1.82959 0.700198 0
M  V30 5347 H 509.363 0.463471 -0.585836 0
M  V30 5348 H 512.025 0.574678 -1.86235 0
M  V30 5349 H 511.121 2.00895 -2.38847 0
M  V30 5350 N 511.423 1.38739 0.74761 0
M  V30 5351 C 512.353 1.39173 1.87492 0
M  V30 5352 C 513.334 0.256794 1.6815 0
M  V30 5353 O 514.519 0.460762 1.88655 0
M  V30 5354 C 511.649 1.22197 3.25093 0
M  V30 5355 C 510.603 2.32957 3.59047 0
M  V30 5356 C 509.929 2.01082 4.95449 0
M  V30 5357 C 511.229 3.75237 3.6331 0
M  V30 5358 H 512.923 2.3351 1.87386 0
M  V30 5359 H 510.469 1.12399 0.900134 0
M  V30 5360 H 512.422 1.21124 4.03617 0
M  V30 5361 H 511.146 0.243241 3.25693 0
M  V30 5362 H 509.805 2.33226 2.82845 0
M  V30 5363 H 509.453 1.01678 4.92616 0
M  V30 5364 H 509.153 2.75267 5.19136 0
M  V30 5365 H 510.677 2.01638 5.76346 0
M  V30 5366 H 512.091 3.76966 4.31937 0
M  V30 5367 H 510.488 4.48677 3.98509 0
M  V30 5368 H 511.558 4.07122 2.634 0
M  V30 5369 N 512.901 -0.976442 1.23707 0
M  V30 5370 C 513.833 -2.07212 0.979574 0
M  V30 5371 C 514.846 -1.6273 -0.0478528 0
M  V30 5372 O 516.035 -1.77506 0.18815 0
M  V30 5373 C 513.135 -3.35835 0.45479 0
M  V30 5374 C 512.308 -4.09268 1.54331 0
M  V30 5375 C 511.367 -5.16166 1.02271 0
M  V30 5376 O 510.393 -5.42827 1.71254 0
M  V30 5377 N 511.595 -5.80313 -0.147419 0
M  V30 5378 H 514.36 -2.29878 1.92292 0
M  V30 5379 H 511.921 -1.14343 1.14618 0
M  V30 5380 H 513.913 -4.04597 0.0914631 0
M  V30 5381 H 512.483 -3.10106 -0.394068 0
M  V30 5382 H 511.703 -3.34906 2.07923 0
M  V30 5383 H 512.991 -4.55095 2.27522 0
M  V30 5384 H 512.389 -5.61043 -0.724353 0
M  V30 5385 H 510.946 -6.50231 -0.451972 0
M  V30 5386 N 514.379 -1.04941 -1.1758 0
M  V30 5387 C 515.342 -0.652456 -2.19717 0
M  V30 5388 C 516.342 0.294745 -1.58076 0
M  V30 5389 O 517.532 0.0789579 -1.74021 0
M  V30 5390 C 514.664 0.0420712 -3.40874 0
M  V30 5391 H 515.857 -1.55642 -2.5635 0
M  V30 5392 H 513.41 -0.842995 -1.31618 0
M  V30 5393 H 514.145 0.95943 -3.09783 0
M  V30 5394 H 513.93 -0.638844 -3.86861 0
M  V30 5395 H 515.42 0.306 -4.16477 0
M  V30 5396 N 515.857 1.33968 -0.830081 0
M  V30 5397 C 516.787 2.31911 -0.271911 0
M  V30 5398 C 517.768 1.58571 0.61556 0
M  V30 5399 O 518.953 1.86514 0.540946 0
M  V30 5400 C 516.083 3.42737 0.561146 0
M  V30 5401 C 515.037 4.27383 -0.229789 0
M  V30 5402 C 514.363 5.29742 0.726463 0
M  V30 5403 C 515.663 5.02 -1.44197 0
M  V30 5404 H 517.357 2.78844 -1.09025 0
M  V30 5405 H 514.903 1.34061 -0.52571 0
M  V30 5406 H 516.856 4.10276 0.961867 0
M  V30 5407 H 515.58 2.94471 1.41261 0
M  V30 5408 H 514.239 3.61456 -0.611964 0
M  V30 5409 H 513.887 4.77736 1.57408 0
M  V30 5410 H 513.587 5.87255 0.20142 0
M  V30 5411 H 515.111 6.00149 1.12489 0
M  V30 5412 H 516.525 5.62355 -1.11488 0
M  V30 5413 H 514.922 5.69122 -1.90317 0
M  V30 5414 H 515.992 4.31281 -2.2164 0
M  V30 5415 N 517.335 0.585699 1.46312 0
M  V30 5416 C 518.265 -0.133556 2.33118 0
M  V30 5417 C 519.246 -0.880707 1.45525 0
M  V30 5418 O 520.431 -0.855579 1.74337 0
M  V30 5419 C 517.561 -1.14585 3.27853 0
M  V30 5420 C 516.515 -0.513341 4.2491 0
M  V30 5421 C 515.841 -1.63231 5.09175 0
M  V30 5422 C 517.141 0.551413 5.19381 0
M  V30 5423 H 518.835 0.59121 2.93505 0
M  V30 5424 H 516.381 0.285761 1.41136 0
M  V30 5425 H 518.334 -1.65741 3.87438 0
M  V30 5426 H 517.058 -1.90093 2.65579 0
M  V30 5427 H 515.717 -0.0228349 3.66593 0
M  V30 5428 H 515.365 -2.37713 4.43285 0
M  V30 5429 H 515.065 -1.21473 5.74907 0
M  V30 5430 H 516.589 -2.14658 5.71624 0
M  V30 5431 H 518.003 0.124804 5.73164 0
M  V30 5432 H 516.4 0.889486 5.93471 0
M  V30 5433 H 517.47 1.43655 4.63132 0
M  V30 5434 N 518.813 -1.54241 0.323641 0
M  V30 5435 C 520.09 -1.92741 -0.333181 0
M  V30 5436 C 520.47 -1.25326 -1.69872 0
M  V30 5437 O 519.818 -0.396991 -2.25025 0
M  V30 5438 C 520.028 -3.46399 -0.425322 0
M  V30 5439 C 521.376 -4.19029 -0.68557 0
M  V30 5440 O 522.4 -3.52555 -0.50824 0
M  V30 5441 O 521.259 -5.36751 -1.02767 0
M  V30 5442 H 518.353 -0.804811 -0.190286 0
M  V30 5443 H 520.899 -1.65542 0.373361 0
M  V30 5444 H 519.671 -3.87643 0.533737 0
M  V30 5445 H 519.294 -3.79704 -1.17944 0
M  V30 5446 N 520.291 -0.0518155 -1.57515 0
M  V30 5447 C 521.568 0.661727 -1.84067 0
M  V30 5448 C 521.948 1.88999 -0.940351 0
M  V30 5449 O 521.296 2.285 -0.00155404 0
M  V30 5450 C 521.506 1.01841 -3.3381 0
M  V30 5451 C 522.854 1.40043 -4.00841 0
M  V30 5452 O 523.878 1.11073 -3.38439 0
M  V30 5453 O 522.737 1.94111 -5.10865 0
M  V30 5454 H 519.831 0.326702 -0.759733 0
M  V30 5455 H 522.377 -0.0812277 -1.69505 0
M  V30 5456 H 521.149 0.145202 -3.91031 0
M  V30 5457 H 520.772 1.81879 -3.53562 0
M  V30 5458 N 521.769 1.56035 0.221574 0
M  V30 5459 C 523.185 1.49026 0.571271 0
M  V30 5460 C 523.385 0.746912 1.87146 0
M  V30 5461 O 522.441 0.286566 2.50869 0
M  V30 5462 C 523.754 2.93579 0.650522 0
M  V30 5463 C 525.302 3.04099 0.741151 0
M  V30 5464 C 525.777 4.5001 0.851747 0
M  V30 5465 N 527.268 4.54053 0.915968 0
M  V30 5466 C 528.003 5.64232 1.02125 0
M  V30 5467 N 527.499 6.84164 1.09049 0
M  V30 5468 N 529.292 5.52084 1.05639 0
M  V30 5469 H 521.443 2.02791 -0.63162 0
M  V30 5470 H 523.706 0.921736 -0.221602 0
M  V30 5471 H 523.412 3.50912 -0.235253 0
M  V30 5472 H 523.286 3.45476 1.51413 0
M  V30 5473 H 525.673 2.4683 1.61737 0
M  V30 5474 H 525.754 2.55371 -0.148128 0
M  V30 5475 H 525.398 5.07896 -0.0200117 0
M  V30 5476 H 525.328 4.96444 1.75644 0
M  V30 5477 H 527.819 3.67683 0.872782 0
M  V30 5478 H 528.132 7.63883 1.1706 0
M  V30 5479 H 526.477 6.86875 1.05962 0
M  V30 5480 H 529.668 4.57317 0.998953 0
M  V30 5481 H 529.841 6.37983 1.13498 0
M  V30 5482 N 523.247 -0.488276 1.49845 0
M  V30 5483 C 524.472 -1.26997 1.63971 0
M  V30 5484 C 524.897 -1.85427 0.315994 0
M  V30 5485 O 524.255 -1.66475 -0.718032 0
M  V30 5486 C 524.303 -2.36689 2.72049 0
M  V30 5487 O 523.407 -3.40882 2.32107 0
M  V30 5488 H 522.748 -0.374376 0.548396 0
M  V30 5489 H 525.278 -0.583104 1.96115 0
M  V30 5490 H 525.288 -2.82262 2.94605 0
M  V30 5491 H 523.963 -1.93529 3.68129 0
M  V30 5492 H 522.54 -3.01139 2.19931 0
M  V30 5493 N 524.725 -1.39134 -0.740242 0
M  V30 5494 C 525.688 -1.37217 -1.83587 0
M  V30 5495 C 526.688 -0.270221 -1.58513 0
M  V30 5496 O 527.878 -0.527843 -1.6601 0
M  V30 5497 C 525.01 -1.13959 -3.21288 0
M  V30 5498 H 526.203 -2.34705 -1.86691 0
M  V30 5499 H 523.756 -1.24622 -0.94335 0
M  V30 5500 H 524.491 -0.17131 -3.23847 0
M  V30 5501 H 524.276 -1.93754 -3.40884 0
M  V30 5502 H 525.766 -1.15346 -4.01354 0
M  V30 5503 N 526.204 0.969867 -1.24223 0
M  V30 5504 C 527.451 1.71256 -1.08063 0
M  V30 5505 C 527.779 1.90734 0.380872 0
M  V30 5506 O 527.034 1.46469 1.29789 0
M  V30 5507 C 527.333 3.10883 -1.76314 0
M  V30 5508 C 526.999 3.11252 -3.26241 0
M  V30 5509 C 525.661 3.1106 -3.67144 0
M  V30 5510 C 528.013 3.05751 -4.22097 0
M  V30 5511 C 525.341 3.03097 -5.02344 0
M  V30 5512 C 527.693 2.9933 -5.57301 0
M  V30 5513 C 526.357 2.97466 -5.97554 0
M  V30 5514 H 525.627 0.62667 -0.395431 0
M  V30 5515 H 528.274 1.13422 -1.54297 0
M  V30 5516 H 526.579 3.72168 -1.22468 0
M  V30 5517 H 528.276 3.67138 -1.61277 0
M  V30 5518 H 524.866 3.12165 -2.93685 0
M  V30 5519 H 529.05 3.05031 -3.91497 0
M  V30 5520 H 524.306 3.00013 -5.32731 0
M  V30 5521 H 528.48 2.94033 -6.31283 0
M  V30 5522 H 526.107 2.91051 -7.02277 0
M  V30 5523 N 527.682 1.05563 1.17022 0
M  V30 5524 C 528.592 0.670758 2.24807 0
M  V30 5525 C 529.608 -0.309865 1.71219 0
M  V30 5526 O 530.784 -0.161025 2.00755 0
M  V30 5527 C 527.849 0.055337 3.46656 0
M  V30 5528 C 526.91 1.08688 4.15314 0
M  V30 5529 C 526.143 0.500736 5.31346 0
M  V30 5530 O 526.366 -0.688718 5.66227 0
M  V30 5531 O 525.3 1.23683 5.89055 0
M  V30 5532 H 529.126 1.56914 2.60023 0
M  V30 5533 H 526.711 0.827428 1.24395 0
M  V30 5534 H 528.593 -0.286492 4.20425 0
M  V30 5535 H 527.268 -0.816638 3.13229 0
M  V30 5536 H 526.175 1.48077 3.43546 0
M  V30 5537 H 527.508 1.93014 4.52777 0
M  V30 5538 N 529.16 -1.33526 0.837174 0
M  V30 5539 C 530.07 -2.33023 0.271568 0
M  V30 5540 C 531.086 -1.63272 -0.601514 0
M  V30 5541 O 532.262 -1.94939 -0.506038 0
M  V30 5542 C 529.327 -3.42382 -0.545448 0
M  V30 5543 C 528.388 -4.27857 0.351709 0
M  V30 5544 C 527.621 -5.31994 -0.426409 0
M  V30 5545 O 527.844 -5.45763 -1.65828 0
M  V30 5546 O 526.778 -6.01572 0.1987 0
M  V30 5547 H 530.604 -2.83256 1.09545 0
M  V30 5548 H 528.189 -1.36837 0.599655 0
M  V30 5549 H 530.071 -4.09122 -1.00979 0
M  V30 5550 H 528.746 -2.94369 -1.34641 0
M  V30 5551 H 527.653 -3.6399 0.863853 0
M  V30 5552 H 528.986 -4.79349 1.1174 0
M  V30 5553 N 530.638 -0.59345 -1.46 0
M  V30 5554 C 531.885 -0.0831523 -2.02329 0
M  V30 5555 C 532.213 1.28093 -1.46364 0
M  V30 5556 O 531.468 1.85526 -0.622793 0
M  V30 5557 C 531.767 0.021178 -3.57394 0
M  V30 5558 C 531.433 -1.27671 -4.32448 0
M  V30 5559 C 530.095 -1.63227 -4.5267 0
M  V30 5560 C 532.447 -2.13511 -4.7546 0
M  V30 5561 C 529.775 -2.84401 -5.1316 0
M  V30 5562 C 532.127 -3.33922 -5.37289 0
M  V30 5563 C 530.791 -3.69747 -5.55737 0
M  V30 5564 H 530.061 -0.0304276 -0.740375 0
M  V30 5565 H 532.708 -0.772239 -1.75239 0
M  V30 5566 H 531.013 0.793454 -3.83682 0
M  V30 5567 H 532.71 0.431942 -3.98667 0
M  V30 5568 H 529.3 -0.989937 -4.17011 0
M  V30 5569 H 533.484 -1.87344 -4.59582 0
M  V30 5570 H 528.74 -3.12282 -5.25633 0
M  V30 5571 H 532.914 -4.00698 -5.69574 0
M  V30 5572 H 530.541 -4.6373 -6.02377 0
M  V30 5573 N 532.116 1.54067 -0.331816 0
M  V30 5574 C 533.393 1.92915 0.322955 0
M  V30 5575 C 533.773 1.26225 1.69205 0
M  V30 5576 O 533.121 0.408919 2.24811 0
M  V30 5577 C 533.331 3.46619 0.406946 0
M  V30 5578 C 534.679 4.19386 0.663339 0
M  V30 5579 O 535.703 3.5282 0.489536 0
M  V30 5580 O 534.562 5.37288 0.999193 0
M  V30 5581 H 531.656 0.805808 0.186016 0
M  V30 5582 H 534.202 1.65342 -0.382135 0
M  V30 5583 H 532.974 3.87354 -0.554287 0
M  V30 5584 H 532.597 3.80324 1.15929 0
M  V30 5585 N 533.594 0.0601682 1.57485 0
M  V30 5586 C 534.84 -0.612501 1.93329 0
M  V30 5587 C 535.173 -1.6996 0.939526 0
M  V30 5588 O 534.448 -1.94472 -0.0330957 0
M  V30 5589 C 534.731 -1.20025 3.39508 0
M  V30 5590 C 534.584 -0.12059 4.49638 0
M  V30 5591 C 535.903 -2.10923 3.86264 0
M  V30 5592 H 533.022 -0.221185 0.703027 0
M  V30 5593 H 535.664 0.123768 1.89596 0
M  V30 5594 H 533.814 -1.82774 3.42821 0
M  V30 5595 H 535.486 0.51185 4.58452 0
M  V30 5596 H 533.729 0.550251 4.30296 0
M  V30 5597 H 534.4 -0.572019 5.49028 0
M  V30 5598 H 536.876 -1.58124 3.84884 0
M  V30 5599 H 535.752 -2.48987 4.8918 0
M  V30 5600 H 536.013 -3.01292 3.23536 0
M  V30 5601 N 535.072 -1.5615 -0.213296 0
M  V30 5602 C 536.349 -1.70349 -0.961281 0
M  V30 5603 C 536.729 -0.609791 -2.02101 0
M  V30 5604 O 536.077 0.381987 -2.25285 0
M  V30 5605 C 536.287 -3.11982 -1.56424 0
M  V30 5606 C 537.635 -3.71649 -2.05334 0
M  V30 5607 O 538.659 -3.14995 -1.66302 0
M  V30 5608 O 537.518 -4.71038 -2.77102 0
M  V30 5609 H 534.612 -0.694121 -0.449582 0
M  V30 5610 H 537.158 -1.68464 -0.204426 0
M  V30 5611 H 535.93 -3.83046 -0.799457 0
M  V30 5612 H 535.553 -3.18019 -2.38641 0
M  V30 5613 N 536.55 0.480323 -1.50102 0
M  V30 5614 C 537.513 1.56181 -1.6775 0
M  V30 5615 C 538.513 1.51156 -0.548503 0
M  V30 5616 O 539.703 1.5394 -0.815363 0
M  V30 5617 C 536.835 2.95823 -1.69415 0
M  V30 5618 H 538.028 1.41855 -2.6423 0
M  V30 5619 H 535.581 0.70605 -1.39444 0
M  V30 5620 H 536.316 3.15604 -0.745948 0
M  V30 5621 H 536.101 3.00878 -2.51425 0
M  V30 5622 H 537.591 3.74359 -1.85054 0
M  V30 5623 N 538.028 1.39524 0.732853 0
M  V30 5624 C 538.991 1.38189 1.82857 0
M  V30 5625 C 539.991 0.278624 1.58368 0
M  V30 5626 O 541.181 0.536639 1.65728 0
M  V30 5627 C 538.313 1.15661 3.2068 0
M  V30 5628 H 539.506 2.35692 1.85444 0
M  V30 5629 H 537.059 1.2512 0.936728 0
M  V30 5630 H 537.794 0.188482 3.23752 0
M  V30 5631 H 537.579 1.95559 3.39852 0
M  V30 5632 H 539.069 1.17472 4.00737 0
M  V30 5633 N 539.506 -0.963266 1.24736 0
M  V30 5634 C 540.469 -2.04013 1.04457 0
M  V30 5635 C 541.469 -1.608 0.000335555 0
M  V30 5636 O 542.659 -1.72515 0.241719 0
M  V30 5637 C 539.791 -3.35858 0.584162 0
M  V30 5638 H 540.984 -2.23436 2.00041 0
M  V30 5639 H 538.537 -1.13914 1.07021 0
M  V30 5640 H 539.272 -3.22128 -0.374673 0
M  V30 5641 H 539.057 -3.68568 1.3379 0
M  V30 5642 H 540.547 -4.1502 0.463451 0
M  V30 5643 N 540.985 -1.06182 -1.16461 0
M  V30 5644 C 541.948 -0.675723 -2.19013 0
M  V30 5645 C 542.948 0.277963 -1.58379 0
M  V30 5646 O 544.138 0.0604962 -1.74095 0
M  V30 5647 C 541.27 0.00591459 -3.40899 0
M  V30 5648 H 542.463 -1.58353 -2.54685 0
M  V30 5649 H 540.016 -0.856908 -1.30716 0
M  V30 5650 H 540.751 0.92652 -3.10783 0
M  V30 5651 H 540.536 -0.67984 -3.86161 0
M  V30 5652 H 542.026 0.26181 -4.16778 0
M  V30 5653 N 542.463 1.3308 -0.844243 0
M  V30 5654 C 543.879 1.50447 -0.532729 0
M  V30 5655 C 544.079 1.78292 0.938837 0
M  V30 5656 O 543.135 1.84635 1.72239 0
M  V30 5657 C 544.448 2.65555 -1.41072 0
M  V30 5658 C 545.996 2.7944 -1.41005 0
M  V30 5659 C 546.471 3.97616 -2.27301 0
M  V30 5660 N 547.962 4.0486 -2.2504 0
M  V30 5661 C 548.697 4.95508 -2.88547 0
M  V30 5662 N 548.193 5.91236 -3.61126 0
M  V30 5663 N 549.986 4.88548 -2.77989 0
M  V30 5664 H 542.137 1.13269 -1.79677 0
M  V30 5665 H 544.4 0.55734 -0.766861 0
M  V30 5666 H 544.106 2.51675 -2.45668 0
M  V30 5667 H 543.98 3.61089 -1.09061 0
M  V30 5668 H 546.367 2.92749 -0.371784 0
M  V30 5669 H 546.448 1.8465 -1.77026 0
M  V30 5670 H 546.092 3.85066 -3.3119 0
M  V30 5671 H 546.022 4.91661 -1.88619 0
M  V30 5672 H 548.513 3.36353 -1.72264 0
M  V30 5673 H 548.826 6.57079 -4.06776 0
M  V30 5674 H 547.171 5.91295 -3.65234 0
M  V30 5675 H 550.362 4.12729 -2.20846 0
M  V30 5676 H 550.535 5.58994 -3.27765 0
M  V30 5677 N 543.941 0.601185 1.45683 0
M  V30 5678 C 545.189 0.0936957 2.01883 0
M  V30 5679 C 545.51 -1.2779 1.47291 0
M  V30 5680 O 544.78 -1.84279 0.664691 0
M  V30 5681 H 543.36 0.0316466 0.746329 0
M  V30 5682 H 546.022 0.781137 1.78562 0
M  V30 5683 H 545.118 0.0386297 3.12076 0
M  V30 5684 N 545.419 -1.53889 0.339982 0
M  V30 5685 C 546.352 -2.21187 -0.561405 0
M  V30 5686 C 547.33 -1.19463 -1.10306 0
M  V30 5687 O 548.514 -1.48268 -1.164 0
M  V30 5688 C 545.641 -2.8865 -1.77198 0
M  V30 5689 C 544.687 -4.04232 -1.3601 0
M  V30 5690 S 545.52 -5.34129 -0.382909 0
M  V30 5691 C 546.676 -6.05094 -1.60039 0
M  V30 5692 H 546.909 -2.97298 0.0102092 0
M  V30 5693 H 544.442 -1.53901 0.124056 0
M  V30 5694 H 546.4 -3.28138 -2.4665 0
M  V30 5695 H 545.061 -2.12311 -2.3148 0
M  V30 5696 H 544.254 -4.50358 -2.2626 0
M  V30 5697 H 543.856 -3.66503 -0.745098 0
M  V30 5698 H 546.148 -6.2827 -2.53541 0
M  V30 5699 H 547.091 -6.98182 -1.18099 0
M  V30 5700 H 547.499 -5.35207 -1.79483 0
M  V30 5701 N 546.897 -0.0685191 -1.57451 0
M  V30 5702 C 547.86 0.885173 -2.11417 0
M  V30 5703 C 548.86 1.22853 -1.03748 0
M  V30 5704 O 550.05 1.16235 -1.2975 0
M  V30 5705 C 547.182 2.18964 -2.61281 0
M  V30 5706 H 548.375 0.417034 -2.96986 0
M  V30 5707 H 545.928 0.18014 -1.55258 0
M  V30 5708 H 546.663 2.70321 -1.79156 0
M  V30 5709 H 546.448 1.9534 -3.39977 0
M  V30 5710 H 547.938 2.87242 -3.0312 0
M  V30 5711 N 548.375 1.56261 0.205012 0
M  V30 5712 C 549.622 1.8004 0.926927 0
M  V30 5713 C 549.95 0.640086 1.83666 0
M  V30 5714 O 549.205 -0.374702 1.92079 0
M  V30 5715 C 549.504 3.09722 1.78345 0
M  V30 5716 C 549.17 4.39082 1.02555 0
M  V30 5717 C 547.832 4.74226 0.816256 0
M  V30 5718 C 550.184 5.18877 0.491559 0
M  V30 5719 C 547.512 5.86668 0.0613287 0
M  V30 5720 C 549.864 6.32105 -0.250107 0
M  V30 5721 C 548.528 6.6584 -0.470508 0
M  V30 5722 H 547.798 0.658812 0.339187 0
M  V30 5723 H 550.445 1.90515 0.19395 0
M  V30 5724 H 548.75 2.9444 2.5848 0
M  V30 5725 H 550.447 3.25324 2.34446 0
M  V30 5726 H 547.037 4.11497 1.19868 0
M  V30 5727 H 551.221 4.92147 0.640684 0
M  V30 5728 H 546.477 6.11283 -0.119501 0
M  V30 5729 H 550.651 6.93157 -0.671307 0
M  V30 5730 H 548.278 7.5281 -1.05739 0
M  V30 5731 N 549.853 -0.472356 1.50355 0
M  V30 5732 C 550.763 -1.59637 1.7191 0
M  V30 5733 C 551.779 -1.63247 0.602195 0
M  V30 5734 O 552.955 -1.81139 0.880369 0
M  V30 5735 C 550.02 -2.9586 1.80742 0
M  V30 5736 C 549.081 -3.02649 3.04471 0
M  V30 5737 C 548.314 -4.32374 3.12872 0
M  V30 5738 O 548.537 -5.22807 2.28099 0
M  V30 5739 O 547.471 -4.44728 4.05587 0
M  V30 5740 H 551.297 -1.44373 2.67189 0
M  V30 5741 H 548.882 -0.651717 1.34436 0
M  V30 5742 H 550.764 -3.7677 1.88739 0
M  V30 5743 H 549.439 -3.11325 0.88647 0
M  V30 5744 H 548.346 -2.20821 3.01975 0
M  V30 5745 H 549.679 -2.92119 3.9614 0
M  V30 5746 N 551.331 -1.39911 -0.725443 0
M  V30 5747 C 552.747 -1.21725 -1.03224 0
M  V30 5748 C 552.947 -0.0855224 -2.01318 0
M  V30 5749 O 552.003 0.55976 -2.46217 0
M  V30 5750 C 553.316 -2.55511 -1.58539 0
M  V30 5751 C 554.864 -2.62439 -1.70572 0
M  V30 5752 C 555.339 -3.9647 -2.29294 0
M  V30 5753 N 556.83 -3.98159 -2.36692 0
M  V30 5754 C 557.565 -4.98647 -2.83088 0
M  V30 5755 N 557.061 -6.0953 -3.2931 0
M  V30 5756 N 558.854 -4.8602 -2.82384 0
M  V30 5757 H 551.005 -2.12267 -0.075048 0
M  V30 5758 H 553.268 -0.943136 -0.0959066 0
M  V30 5759 H 552.974 -3.38926 -0.939249 0
M  V30 5760 H 552.848 -2.75905 -2.57208 0
M  V30 5761 H 555.235 -1.79401 -2.34306 0
M  V30 5762 H 555.316 -2.45885 -0.705297 0
M  V30 5763 H 554.96 -4.79942 -1.66186 0
M  V30 5764 H 554.89 -4.10349 -3.30032 0
M  V30 5765 H 557.381 -3.18085 -2.04035 0
M  V30 5766 H 557.694 -6.82106 -3.6325 0
M  V30 5767 H 556.039 -6.1311 -3.27294 0
M  V30 5768 H 559.23 -3.98493 -2.45603 0
M  V30 5769 H 559.403 -5.64478 -3.18226 0
M  V30 5770 N 552.809 0.956637 -1.25245 0
M  V30 5771 C 553.739 2.07058 -1.07931 0
M  V30 5772 C 554.72 1.70096 0.0110361 0
M  V30 5773 O 555.905 1.93555 -0.158121 0
M  V30 5774 C 553.035 3.40272 -0.695124 0
M  V30 5775 C 551.989 3.91235 -1.73549 0
M  V30 5776 C 551.315 5.20921 -1.20604 0
M  V30 5777 C 552.615 4.17837 -3.13385 0
M  V30 5778 H 554.309 2.218 -2.01109 0
M  V30 5779 H 551.855 1.06581 -0.968326 0
M  V30 5780 H 553.808 4.1765 -0.560949 0
M  V30 5781 H 552.532 3.25462 0.272355 0
M  V30 5782 H 551.191 3.16025 -1.85807 0
M  V30 5783 H 550.839 5.02479 -0.228846 0
M  V30 5784 H 550.539 5.55987 -1.90136 0
M  V30 5785 H 552.063 6.00897 -1.08421 0
M  V30 5786 H 553.477 4.8588 -3.04292 0
M  V30 5787 H 551.874 4.64154 -3.80369 0
M  V30 5788 H 552.944 3.2419 -3.60595 0
M  V30 5789 N 554.287 1.06798 1.15896 0
M  V30 5790 C 555.564 0.701057 1.82605 0
M  V30 5791 C 555.944 -0.817066 1.94646 0
M  V30 5792 O 555.292 -1.72933 1.49353 0
M  V30 5793 C 555.502 1.40895 3.19296 0
M  V30 5794 C 556.85 1.55744 3.95005 0
M  V30 5795 O 557.874 1.36927 3.28831 0
M  V30 5796 O 556.733 1.86658 5.13635 0
M  V30 5797 H 553.827 0.248791 0.78869 0
M  V30 5798 H 556.373 1.16857 1.23055 0
M  V30 5799 H 555.145 2.4439 3.05596 0
M  V30 5800 H 554.768 0.931847 3.86526 0
M  V30 5801 N 555.766 -1.3263 0.851289 0
M  V30 5802 C 556.698 -2.27824 0.250757 0
M  V30 5803 C 557.711 -1.52285 -0.575598 0
M  V30 5804 O 558.9 -1.73946 -0.400638 0
M  V30 5805 C 556 -3.3232 -0.664571 0
M  V30 5806 C 555.173 -4.37221 0.125187 0
M  V30 5807 C 554.232 -5.21314 -0.715385 0
M  V30 5808 O 553.258 -5.69002 -0.150111 0
M  V30 5809 N 554.46 -5.43823 -2.03069 0
M  V30 5810 H 557.225 -2.79997 1.06873 0
M  V30 5811 H 554.786 -1.45455 0.710943 0
M  V30 5812 H 556.778 -3.85486 -1.23216 0
M  V30 5813 H 555.348 -2.80331 -1.38323 0
M  V30 5814 H 554.568 -3.84384 0.874199 0
M  V30 5815 H 555.856 -5.04399 0.667774 0
M  V30 5816 H 555.254 -5.06803 -2.51332 0
M  V30 5817 H 553.811 -5.99998 -2.54648 0
M  V30 5818 N 557.244 -0.608902 -1.45362 0
M  V30 5819 C 558.174 0.0964526 -2.33301 0
M  V30 5820 C 559.155 0.857444 -1.46908 0
M  V30 5821 O 560.34 0.827735 -1.75676 0
M  V30 5822 C 557.47 1.09354 -3.29635 0
M  V30 5823 C 556.424 0.445676 -4.25673 0
M  V30 5824 C 555.75 1.5511 -5.11708 0
M  V30 5825 C 557.05 -0.633972 -5.18438 0
M  V30 5826 H 558.744 -0.637829 -2.92527 0
M  V30 5827 H 556.29 -0.308178 -1.40664 0
M  V30 5828 H 558.243 1.59556 -3.90025 0
M  V30 5829 H 556.967 1.85843 -2.6857 0
M  V30 5830 H 555.626 -0.0354897 -3.66583 0
M  V30 5831 H 555.274 2.30631 -4.4701 0
M  V30 5832 H 554.974 1.12311 -5.76767 0
M  V30 5833 H 556.498 2.05537 -5.74967 0
M  V30 5834 H 557.912 -0.215974 -5.72893 0
M  V30 5835 H 556.309 -0.983789 -5.91981 0
M  V30 5836 H 557.379 -1.51005 -4.60788 0
M  V30 5837 N 558.722 1.53707 -0.348139 0
M  V30 5838 C 559.685 2.23812 0.494058 0
M  V30 5839 C 560.685 1.23989 1.02388 0
M  V30 5840 O 561.875 1.48395 0.912396 0
M  V30 5841 C 559.007 2.96133 1.68872 0
M  V30 5842 H 560.2 2.99663 -0.119141 0
M  V30 5843 H 557.753 1.55983 -0.0995539 0
M  V30 5844 H 558.488 2.24481 2.34049 0
M  V30 5845 H 558.273 3.69357 1.31596 0
M  V30 5846 H 559.763 3.49475 2.28597 0
M  V30 5847 N 560.2 0.0768682 1.57412 0
M  V30 5848 C 561.133 -0.924685 2.08626 0
M  V30 5849 C 562.111 -1.28792 0.992542 0
M  V30 5850 O 563.295 -1.39634 1.26628 0
M  V30 5851 C 560.422 -2.23131 2.54814 0
M  V30 5852 C 559.468 -2.01928 3.75669 0
M  V30 5853 S 560.301 -1.27397 5.20125 0
M  V30 5854 C 561.457 -2.59329 5.69648 0
M  V30 5855 H 561.69 -0.488928 2.93252 0
M  V30 5856 H 559.223 -0.136014 1.538 0
M  V30 5857 H 561.181 -2.98226 2.82084 0
M  V30 5858 H 559.842 -2.63831 1.70447 0
M  V30 5859 H 559.035 -2.98639 4.05993 0
M  V30 5860 H 558.637 -1.34967 3.48798 0
M  V30 5861 H 560.929 -3.55394 5.76803 0
M  V30 5862 H 561.872 -2.33608 6.68456 0
M  V30 5863 H 562.28 -2.66767 4.9749 0
M  V30 5864 N 561.678 -1.56367 -0.196722 0
M  V30 5865 C 562.955 -1.71359 -0.943159 0
M  V30 5866 C 563.335 -0.631192 -2.01443 0
M  V30 5867 O 562.683 0.358071 -2.25677 0
M  V30 5868 C 562.893 -3.13623 -1.53106 0
M  V30 5869 C 564.241 -3.73806 -2.01381 0
M  V30 5870 O 565.265 -3.16742 -1.62951 0
M  V30 5871 O 564.124 -4.73951 -2.7209 0
M  V30 5872 H 561.218 -0.698851 -0.442195 0
M  V30 5873 H 563.764 -1.68672 -0.186547 0
M  V30 5874 H 562.536 -3.83873 -0.758785 0
M  V30 5875 H 562.159 -3.20532 -2.35255 0
M  V30 5876 N 563.156 0.464375 -1.50603 0
M  V30 5877 C 564.106 1.55929 -1.66343 0
M  V30 5878 C 565.09 1.52338 -0.517887 0
M  V30 5879 O 566.282 1.59248 -0.772601 0
M  V30 5880 C 563.411 2.94327 -1.7671 0
M  V30 5881 C 562.497 3.02777 -2.96962 0
M  V30 5882 N 562.888 2.81026 -4.20545 0
M  V30 5883 C 561.186 3.33919 -2.95659 0
M  V30 5884 C 561.887 2.94618 -5.01573 0
M  V30 5885 N 560.863 3.25112 -4.35664 0
M  V30 5886 H 564.665 1.37822 -2.59581 0
M  V30 5887 H 562.179 0.671227 -1.47879 0
M  V30 5888 H 564.176 3.73063 -1.86091 0
M  V30 5889 H 562.836 3.13476 -0.846353 0
M  V30 5890 H 563.847 2.56477 -4.49933 0
M  V30 5891 H 560.524 3.59013 -2.13111 0
M  V30 5892 H 561.914 2.81984 -6.09865 0
M  V30 5893 N 564.634 1.40294 0.718013 0
M  V30 5894 C 565.564 1.43118 1.84498 0
M  V30 5895 C 566.545 0.292403 1.67568 0
M  V30 5896 O 567.73 0.500675 1.87635 0
M  V30 5897 C 564.86 1.29065 3.22427 0
M  V30 5898 C 563.814 2.40521 3.54025 0
M  V30 5899 C 563.14 2.11546 4.91073 0
M  V30 5900 C 564.44 3.82859 3.55269 0
M  V30 5901 H 566.134 2.37432 1.82391 0
M  V30 5902 H 563.68 1.14283 0.87609 0
M  V30 5903 H 565.633 1.29658 4.00957 0
M  V30 5904 H 564.357 0.312271 3.25104 0
M  V30 5905 H 563.016 2.39173 2.77834 0
M  V30 5906 H 562.664 1.12104 4.90348 0
M  V30 5907 H 562.364 2.86216 5.1318 0
M  V30 5908 H 563.888 2.13817 5.71939 0
M  V30 5909 H 565.302 3.86044 4.23843 0
M  V30 5910 H 563.699 4.57029 3.88902 0
M  V30 5911 H 564.769 4.12617 2.54706 0
M  V30 5912 N 566.112 -0.949982 1.2575 0
M  V30 5913 C 567.042 -2.06483 1.09028 0
M  V30 5914 C 568.023 -1.701 -0.00201532 0
M  V30 5915 O 569.208 -1.93469 0.168383 0
M  V30 5916 C 566.338 -3.39899 0.71316 0
M  V30 5917 C 565.292 -3.90309 1.75621 0
M  V30 5918 C 564.618 -5.20274 1.23365 0
M  V30 5919 C 565.918 -4.16169 3.15596 0
M  V30 5920 H 567.612 -2.20731 2.02283 0
M  V30 5921 H 565.158 -1.06066 0.973964 0
M  V30 5922 H 567.111 -4.17346 0.58309 0
M  V30 5923 H 565.835 -3.25602 -0.255091 0
M  V30 5924 H 564.494 -3.15035 1.8748 0
M  V30 5925 H 564.142 -5.02351 0.255491 0
M  V30 5926 H 563.842 -5.54971 1.93082 0
M  V30 5927 H 565.366 -6.00314 1.11607 0
M  V30 5928 H 566.78 -4.84259 3.06864 0
M  V30 5929 H 565.177 -4.62131 3.82825 0
M  V30 5930 H 566.247 -3.22273 3.6231 0
M  V30 5931 N 567.59 -1.07411 -1.15328 0
M  V30 5932 C 568.838 -0.796073 -1.85761 0
M  V30 5933 C 569.159 0.679864 -1.82764 0
M  V30 5934 O 568.429 1.49242 -1.269 0
M  V30 5935 H 567.009 -0.291495 -0.687779 0
M  V30 5936 H 569.671 -1.35799 -1.39802 0
M  V30 5937 H 568.767 -1.13114 -2.90881 0
M  V30 5938 N 569.068 1.32177 -0.85831 0
M  V30 5939 C 570.031 2.27086 -0.310588 0
M  V30 5940 C 571.031 1.51751 0.531806 0
M  V30 5941 O 572.221 1.70794 0.34279 0
M  V30 5942 C 569.353 3.36266 0.560179 0
M  V30 5943 H 570.546 2.77045 -1.1483 0
M  V30 5944 H 568.099 1.42911 -0.632942 0
M  V30 5945 H 568.834 2.9158 1.41956 0
M  V30 5946 H 568.619 3.92077 -0.0428473 0
M  V30 5947 H 570.109 4.06974 0.936056 0
M  V30 5948 N 570.547 0.616602 1.45037 0
M  V30 5949 C 571.963 0.280994 1.57107 0
M  V30 5950 C 572.163 -1.21627 1.60653 0
M  V30 5951 O 571.219 -1.9997 1.54169 0
M  V30 5952 C 572.532 0.960116 2.8496 0
M  V30 5953 C 574.08 0.936884 2.98649 0
M  V30 5954 C 574.555 1.59619 4.29285 0
M  V30 5955 N 576.046 1.5621 4.36065 0
M  V30 5956 C 576.781 2.04131 5.35834 0
M  V30 5957 N 576.277 2.60177 6.4209 0
M  V30 5958 N 578.07 1.94845 5.27249 0
M  V30 5959 H 570.221 1.58867 1.40979 0
M  V30 5960 H 572.484 0.666024 0.674623 0
M  V30 5961 H 572.19 2.01473 2.88273 0
M  V30 5962 H 572.064 0.488921 3.74018 0
M  V30 5963 H 574.451 -0.109209 2.94898 0
M  V30 5964 H 574.532 1.44643 2.10979 0
M  V30 5965 H 574.176 2.64166 4.33796 0
M  V30 5966 H 574.106 1.06159 5.15789 0
M  V30 5967 H 576.597 1.15276 3.59889 0
M  V30 5968 H 576.91 2.94513 7.1448 0
M  V30 5969 H 575.255 2.64221 6.42816 0
M  V30 5970 H 578.446 1.50792 4.43147 0
M  V30 5971 H 578.619 2.32504 6.04852 0
M  V30 5972 N 572.025 -1.5352 0.356285 0
M  V30 5973 C 573.273 -2.00719 -0.235837 0
M  V30 5974 C 573.594 -1.24551 -1.5004 0
M  V30 5975 O 572.864 -0.356185 -1.92635 0
M  V30 5976 H 571.444 -0.741542 -0.0901366 0
M  V30 5977 H 574.106 -1.88887 0.480378 0
M  V30 5978 H 573.202 -3.08551 -0.469357 0
M  V30 5979 O 573.542 -0.225101 -1.59924 0
M  V30 5980 H 574.233 0.354711 -1.90425 0
M  V30 END ATOM
M  V30 BEGIN BOND
M  V30 END BOND
M  V30 END CTAB
M  END
$$$$
