drugbank_target|P24310 Cytochrome c oxidase subunit 7A1, mitochondrial (DB02659; DB04464)
 OpenBabel12092120443D

  0  0  0     0  0            999 V3000
M  V30 BEGIN CTAB
M  V30 COUNTS 1297 1308 0 0 0
M  V30 BEGIN ATOM
M  V30 1 H -0.908 1.98254 -0.117106 0
M  V30 2 N 0 1.576 0 0
M  V30 3 C 0.933 2.03868 1.02534 0
M  V30 4 C 1.911 0.928543 1.3348 0
M  V30 5 O 3.095 1.19667 1.45644 0
M  V30 6 C 0.222 2.43627 2.35294 0
M  V30 7 C -0.732 3.65373 2.2001 0
M  V30 8 S 0.101 5.13292 1.52614 0
M  V30 9 C 1.257 5.56322 2.86805 0
M  V30 10 H 1.49 2.90518 0.631377 0
M  V30 11 H -0.977 1.52953 0.210867 0
M  V30 12 H 0.981 2.67203 3.11629 0
M  V30 13 H -0.358 1.57376 2.7183 0
M  V30 14 H -1.165 3.90944 3.18086 0
M  V30 15 H -1.563 3.418 1.51819 0
M  V30 16 H 0.729 5.58782 3.83104 0
M  V30 17 H 1.672 6.56266 2.65933 0
M  V30 18 H 2.08 4.83886 2.90714 0
M  V30 19 N 1.4781 -0.272755 1.55222 0
M  V30 20 C 2.4101 -1.35946 1.8453 0
M  V30 21 C 3.4231 -1.45525 0.729818 0
M  V30 22 O 4.6121 -1.47337 1.00767 0
M  V30 23 C 1.7121 -2.74069 1.99347 0
M  V30 24 C 0.8851 -2.87079 3.30007 0
M  V30 25 C -0.0559 -4.05879 3.34886 0
M  V30 26 O -1.0299 -3.96626 4.08261 0
M  V30 27 N 0.1721 -5.17857 2.62307 0
M  V30 28 H 2.9371 -1.11149 2.78327 0
M  V30 29 H 0.4981 -0.462869 1.55142 0
M  V30 30 H 2.4901 -3.51838 1.99981 0
M  V30 31 H 1.0601 -2.91688 1.12415 0
M  V30 32 H 0.2801 -1.96193 3.41909 0
M  V30 33 H 1.5681 -2.92701 4.16177 0
M  V30 34 H 0.9661 -5.28261 2.02377 0
M  V30 35 H -0.4769 -5.93855 2.68663 0
M  V30 36 N 2.9562 -1.48159 -0.537278 0
M  V30 37 C 3.9192 -1.61665 -1.62472 0
M  V30 38 C 4.9192 -0.490395 -1.5314 0
M  V30 39 O 6.1092 -0.755998 -1.5694 0
M  V30 40 C 3.2412 -1.57997 -3.02076 0
M  V30 41 H 4.4342 -2.58621 -1.51839 0
M  V30 42 H 1.9872 -1.36647 -0.758771 0
M  V30 43 H 2.7222 -0.624913 -3.18222 0
M  V30 44 H 2.5072 -2.39755 -3.10258 0
M  V30 45 H 3.9972 -1.70627 -3.81151 0
M  V30 46 N 4.4343 0.785586 -1.36625 0
M  V30 47 C 5.3643 1.91259 -1.33949 0
M  V30 48 C 6.3453 1.68795 -0.210325 0
M  V30 49 O 7.5303 1.89854 -0.408561 0
M  V30 50 C 4.6603 3.28339 -1.13186 0
M  V30 51 C 3.6143 3.65335 -2.22967 0
M  V30 52 C 2.9403 5.00806 -1.87342 0
M  V30 53 C 4.2403 3.7352 -3.65075 0
M  V30 54 H 5.9343 1.93755 -2.28253 0
M  V30 55 H 3.4803 0.930788 -1.09874 0
M  V30 56 H 5.4333 4.06804 -1.09948 0
M  V30 57 H 4.1573 3.2624 -0.153332 0
M  V30 58 H 2.8163 2.89169 -2.25337 0
M  V30 59 H 2.4643 4.95233 -0.880545 0
M  V30 60 H 2.1643 5.26529 -2.60846 0
M  V30 61 H 3.6883 5.81687 -1.85667 0
M  V30 62 H 5.1023 4.42168 -3.64911 0
M  V30 63 H 3.4993 4.10731 -4.37516 0
M  V30 64 H 4.5693 2.74527 -3.99703 0
M  V30 65 N 5.9124 1.20967 1.01018 0
M  V30 66 C 7.3284 0.965905 1.27053 0
M  V30 67 C 7.5284 -0.350785 1.98423 0
M  V30 68 O 6.5844 -1.07773 2.28344 0
M  V30 69 C 7.8974 2.15294 2.09926 0
M  V30 70 C 9.4454 2.19463 2.23171 0
M  V30 71 C 9.9204 3.3767 3.09424 0
M  V30 72 N 11.4114 3.37724 3.17012 0
M  V30 73 C 12.1464 4.25837 3.83993 0
M  V30 74 N 11.6424 5.24138 4.53047 0
M  V30 75 N 13.4354 4.1366 3.80581 0
M  V30 76 H 5.5864 2.0565 0.531194 0
M  V30 77 H 7.8494 0.90024 0.297106 0
M  V30 78 H 7.5554 3.10684 1.64828 0
M  V30 79 H 7.4294 2.13923 3.10672 0
M  V30 80 H 9.8164 1.24632 2.6749 0
M  V30 81 H 9.8974 2.2488 1.21912 0
M  V30 82 H 9.5414 4.32791 2.65808 0
M  V30 83 H 9.4714 3.29491 4.10784 0
M  V30 84 H 11.9624 2.6658 2.6785 0
M  V30 85 H 12.2754 5.87684 5.01844 0
M  V30 86 H 10.6204 5.28068 4.5185 0
M  V30 87 H 13.8114 3.36127 3.25785 0
M  V30 88 H 13.9844 4.82538 4.32505 0
M  V30 89 N 7.3905 -1.2043 1.01659 0
M  V30 90 C 8.6365 -1.90079 0.706963 0
M  V30 91 C 8.9695 -1.78648 -0.761474 0
M  V30 92 O 8.2445 -1.17069 -1.55323 0
M  V30 93 C 8.5275 -3.41469 1.14327 0
M  V30 94 C 8.3805 -3.61833 2.67201 0
M  V30 95 C 9.6995 -4.34261 0.714529 0
M  V30 96 H 6.8185 -0.690254 0.2583 0
M  V30 97 H 9.4605 -1.41826 1.26433 0
M  V30 98 H 7.6105 -3.82696 0.669056 0
M  V30 99 H 9.2825 -3.2986 3.22475 0
M  V30 100 H 7.5255 -3.05304 3.08175 0
M  V30 101 H 8.1965 -4.67955 2.92783 0
M  V30 102 H 10.6725 -4.00682 1.12221 0
M  V30 103 H 9.5485 -5.38806 1.04784 0
M  V30 104 H 9.8095 -4.40431 -0.383799 0
M  V30 105 N 8.8686 -0.792821 -1.36206 0
M  V30 106 C 10.0936 -0.377701 -2.03932 0
M  V30 107 C 10.5186 0.998947 -1.59382 0
M  V30 108 O 9.8766 1.64421 -0.763903 0
M  V30 109 C 9.9246 -0.453635 -3.57735 0
M  V30 110 O 9.0286 0.538151 -4.08874 0
M  V30 111 H 8.3696 -0.159855 -0.644471 0
M  V30 112 H 10.8996 -1.07488 -1.7409 0
M  V30 113 H 10.9096 -0.318464 -4.06755 0
M  V30 114 H 9.5846 -1.45784 -3.89512 0
M  V30 115 H 8.1616 0.364359 -3.71116 0
M  V30 116 N 10.3467 1.47872 -0.545128 0
M  V30 117 C 11.2787 2.27869 0.246621 0
M  V30 118 C 12.2917 1.36282 0.890561 0
M  V30 119 O 13.4807 1.61207 0.766449 0
M  V30 120 C 10.5807 3.10159 1.36582 0
M  V30 121 C 9.7537 4.29627 0.820954 0
M  V30 122 C 8.8127 4.93607 1.82314 0
M  V30 123 O 7.8387 5.52366 1.37406 0
M  V30 124 N 9.0407 4.87211 3.15603 0
M  V30 125 H 11.8057 2.96459 -0.439539 0
M  V30 126 H 9.3667 1.57367 -0.380421 0
M  V30 127 H 11.3587 3.49829 2.03474 0
M  V30 128 H 9.9287 2.43891 1.9554 0
M  V30 129 H 9.1487 3.94192 -0.0244032 0
M  V30 130 H 10.4367 5.06928 0.436063 0
M  V30 131 H 9.8347 4.40651 3.54744 0
M  V30 132 H 8.3917 5.30937 3.78087 0
M  V30 133 N 11.8248 0.280983 1.55075 0
M  V30 134 C 12.7878 -0.590896 2.21452 0
M  V30 135 C 13.7878 -1.07682 1.19421 0
M  V30 136 O 14.9778 -0.97605 1.44288 0
M  V30 137 C 12.1098 -1.81587 2.88511 0
M  V30 138 H 13.3028 -0.0112554 2.99898 0
M  V30 139 H 10.8558 0.0316438 1.56268 0
M  V30 140 H 11.5908 -2.43587 2.14093 0
M  V30 141 H 11.3758 -1.4753 3.63287 0
M  V30 142 H 12.8658 -2.43575 3.39206 0
M  V30 143 N 13.3029 -1.57598 0.00835791 0
M  V30 144 C 14.2329 -2.1198 -0.979113 0
M  V30 145 C 15.2139 -1.03091 -1.35301 0
M  V30 146 O 16.3989 -1.30818 -1.43528 0
M  V30 147 C 13.5289 -2.62995 -2.26828 0
M  V30 148 C 12.4829 -3.76485 -2.03576 0
M  V30 149 C 11.8089 -4.13846 -3.38579 0
M  V30 150 C 13.1089 -5.0342 -1.39161 0
M  V30 151 H 14.8029 -2.94738 -0.526281 0
M  V30 152 H 12.3489 -1.41783 -0.251704 0
M  V30 153 H 14.3019 -2.99669 -2.96271 0
M  V30 154 H 13.0259 -1.7737 -2.7424 0
M  V30 155 H 11.6849 -3.40217 -1.36557 0
M  V30 156 H 11.3329 -3.25232 -3.83709 0
M  V30 157 H 11.0329 -4.90312 -3.23834 0
M  V30 158 H 12.5569 -4.53086 -4.09323 0
M  V30 159 H 13.9709 -5.37812 -1.98573 0
M  V30 160 H 12.3679 -5.84746 -1.34878 0
M  V30 161 H 13.4379 -4.83548 -0.361868 0
M  V30 162 N 14.781 0.264519 -1.55364 0
M  V30 163 C 16.03 0.992812 -1.75574 0
M  V30 164 C 16.343 1.87142 -0.568979 0
M  V30 165 O 17.549 2.63513 -0.653682 0
M  V30 166 C 16.005 1.81519 -3.10771 0
M  V30 167 C 15.613 0.984839 -4.37041 0
M  V30 168 C 17.357 2.53727 -3.40327 0
M  V30 169 C 15.264 1.80209 -5.63275 0
M  V30 170 H 14.194 0.374412 -0.65447 0
M  V30 171 H 16.845 0.248138 -1.81815 0
M  V30 172 H 15.227 2.60115 -2.98591 0
M  V30 173 H 16.401 0.242455 -4.60162 0
M  V30 174 H 14.716 0.37691 -4.14691 0
M  V30 175 H 17.313 3.15292 -4.3185 0
M  V30 176 H 17.656 3.24447 -2.60845 0
M  V30 177 H 18.189 1.82156 -3.53644 0
M  V30 178 H 14.928 1.13896 -6.45529 0
M  V30 179 H 14.448 2.52022 -5.44284 0
M  V30 180 H 16.127 2.37364 -6.01887 0
M  V30 181 N 16.2591 1.48442 0.529413 0
M  V30 182 C 17.6751 1.34575 0.858004 0
M  V30 183 C 17.8751 0.3572 1.98309 0
M  V30 184 O 16.9311 -0.221379 2.51528 0
M  V30 185 C 18.2441 2.74617 1.22499 0
M  V30 186 C 19.7921 2.83109 1.33484 0
M  V30 187 C 20.2671 4.23854 1.73526 0
M  V30 188 N 21.7581 4.2653 1.80628 0
M  V30 189 C 22.4931 5.32372 2.12997 0
M  V30 190 N 21.9891 6.48491 2.43786 0
M  V30 191 N 23.7821 5.19766 2.14008 0
M  V30 192 H 15.9331 2.1133 -0.212925 0
M  V30 193 H 18.1961 0.947439 -0.0326199 0
M  V30 194 H 17.9021 3.4852 0.471905 0
M  V30 195 H 17.7761 3.08177 2.17501 0
M  V30 196 H 20.1631 2.09462 2.0787 0
M  V30 197 H 20.2441 2.53168 0.366027 0
M  V30 198 H 19.8881 4.98018 0.997013 0
M  V30 199 H 19.8181 4.5124 2.71459 0
M  V30 200 H 22.3091 3.42772 1.59108 0
M  V30 201 H 22.6221 7.24993 2.67592 0
M  V30 202 H 20.9671 6.51765 2.41304 0
M  V30 203 H 24.1581 4.28066 1.89412 0
M  V30 204 H 24.3311 6.02354 2.38902 0
M  V30 205 N 17.7372 -0.778329 1.37039 0
M  V30 206 C 18.9622 -1.57248 1.35233 0
M  V30 207 C 19.3872 -1.87999 -0.0615568 0
M  V30 208 O 18.7452 -1.48734 -1.03672 0
M  V30 209 C 18.7932 -2.86353 2.19167 0
M  V30 210 O 17.8972 -3.80442 1.59178 0
M  V30 211 H 17.2382 -0.476569 0.462362 0
M  V30 212 H 19.7682 -0.963853 1.80474 0
M  V30 213 H 19.7782 -3.35519 2.32145 0
M  V30 214 H 18.4532 -2.63299 3.21942 0
M  V30 215 H 17.0302 -3.39067 1.55203 0
M  V30 216 N 19.2153 -1.21501 -1.00376 0
M  V30 217 C 20.4623 -1.03299 -1.74171 0
M  V30 218 C 20.7903 0.433326 -1.89612 0
M  V30 219 O 20.0453 1.33779 -1.42834 0
M  V30 220 C 20.3443 -1.67673 -3.15627 0
M  V30 221 C 20.0103 -3.17533 -3.2013 0
M  V30 222 C 18.6723 -3.58427 -3.21067 0
M  V30 223 C 21.0243 -4.13504 -3.17275 0
M  V30 224 C 18.3523 -4.93794 -3.16835 0
M  V30 225 C 20.7043 -5.48834 -3.14585 0
M  V30 226 C 19.3683 -5.89123 -3.13831 0
M  V30 227 H 18.6383 -0.377999 -0.637336 0
M  V30 228 H 21.2853 -1.51111 -1.17634 0
M  V30 229 H 19.5903 -1.12158 -3.75404 0
M  V30 230 H 21.2873 -1.51091 -3.71446 0
M  V30 231 H 17.8773 -2.84965 -3.20145 0
M  V30 232 H 22.0613 -3.82936 -3.15711 0
M  V30 233 H 17.3173 -5.24255 -3.1459 0
M  V30 234 H 21.4913 -6.22934 -3.1133 0
M  V30 235 H 19.1183 -6.93984 -3.10307 0
M  V30 236 N 20.6934 1.19889 -1.02296 0
M  V30 237 C 21.9184 1.9393 -0.735237 0
M  V30 238 C 22.3434 1.74639 0.698782 0
M  V30 239 O 21.7014 1.04481 1.48167 0
M  V30 240 C 21.7494 3.43916 -1.08417 0
M  V30 241 O 20.8534 4.11917 -0.199446 0
M  V30 242 H 20.1944 0.605645 -0.272196 0
M  V30 243 H 22.7244 1.52137 -1.36804 0
M  V30 244 H 22.7344 3.9456 -1.03856 0
M  V30 245 H 21.4094 3.5728 -2.12894 0
M  V30 246 H 19.9864 3.71666 -0.303136 0
M  V30 247 N 22.1715 0.800033 1.35784 0
M  V30 248 C 23.3965 0.388511 2.03729 0
M  V30 249 C 23.8215 -0.990481 1.5991 0
M  V30 250 O 23.1795 -1.64013 0.772612 0
M  V30 251 C 23.2275 0.4726 3.5749 0
M  V30 252 O 22.3315 -0.51646 4.09153 0
M  V30 253 H 21.6725 0.163271 0.643614 0
M  V30 254 H 24.2025 1.0841 1.73518 0
M  V30 255 H 24.2125 0.34003 4.06581 0
M  V30 256 H 22.8875 1.47848 3.88734 0
M  V30 257 H 21.4645 -0.344673 3.71304 0
M  V30 258 N 23.6496 -1.47581 0.552962 0
M  V30 259 C 24.8776 -2.06875 0.0320556 0
M  V30 260 C 25.2926 -1.40625 -1.25976 0
M  V30 261 O 24.6496 -0.501349 -1.75479 0
M  V30 262 C 24.7006 -3.61092 -0.17167 0
M  V30 263 O 24.4216 -4.24858 1.06899 0
M  V30 264 C 25.9226 -4.37242 -0.730344 0
M  V30 265 H 23.1426 -0.669561 0.043915 0
M  V30 266 H 25.6866 -1.89646 0.765163 0
M  V30 267 H 23.8416 -3.7785 -0.854894 0
M  V30 268 H 24.2556 -5.17334 0.864059 0
M  V30 269 H 25.7296 -5.45842 -0.822203 0
M  V30 270 H 26.2066 -4.03235 -1.74064 0
M  V30 271 H 26.8126 -4.25219 -0.0829543 0
M  V30 272 N 25.1277 -0.289203 -1.54924 0
M  V30 273 C 26.0907 0.579144 -2.21762 0
M  V30 274 C 27.0907 1.07047 -1.1999 0
M  V30 275 O 28.2807 0.968384 -1.44803 0
M  V30 276 C 25.4127 1.80055 -2.8947 0
M  V30 277 H 26.6057 -0.00464908 -2.999 0
M  V30 278 H 24.1587 -0.0399306 -1.56249 0
M  V30 279 H 24.8937 2.42449 -2.15381 0
M  V30 280 H 24.6787 1.45602 -3.64064 0
M  V30 281 H 26.1687 2.41773 -3.40493 0
M  V30 282 N 26.6058 1.57591 -0.0167156 0
M  V30 283 C 28.0218 1.55946 0.339557 0
M  V30 284 C 28.2218 1.02109 1.73713 0
M  V30 285 O 27.2778 0.662303 2.43659 0
M  V30 286 C 28.5908 3.00037 0.199499 0
M  V30 287 C 30.1388 3.11805 0.273193 0
M  V30 288 C 30.6138 4.57713 0.162068 0
M  V30 289 N 32.1048 4.6268 0.219444 0
M  V30 290 C 32.8398 5.73185 0.157054 0
M  V30 291 N 32.3358 6.92786 0.0442936 0
M  V30 292 N 34.1288 5.61707 0.21014 0
M  V30 293 H 26.2798 1.90921 -0.930758 0
M  V30 294 H 28.5428 0.877674 -0.358319 0
M  V30 295 H 28.2488 3.4333 -0.76273 0
M  V30 296 H 28.1228 3.64387 0.974786 0
M  V30 297 H 30.5098 2.68433 1.22587 0
M  V30 298 H 30.5908 2.50201 -0.532256 0
M  V30 299 H 30.2348 5.01763 -0.78714 0
M  V30 300 H 30.1648 5.17283 0.986222 0
M  V30 301 H 32.6558 3.76649 0.307246 0
M  V30 302 H 32.9688 7.728 0.00304069 0
M  V30 303 H 31.3138 6.94999 0.00968457 0
M  V30 304 H 34.5048 4.6716 0.296546 0
M  V30 305 H 34.6778 6.47807 0.158054 0
M  V30 306 N 28.0839 -0.256276 1.55502 0
M  V30 307 C 29.0319 -1.33694 1.90338 0
M  V30 308 C 30.0259 -1.50299 0.781441 0
M  V30 309 O 31.2319 -1.51885 0.965966 0
M  V30 310 H 27.6069 -0.447483 0.60437 0
M  V30 311 H 29.5779 -1.01574 2.8058 0
M  V30 312 C 28.3269 -2.68724 2.20642 0
M  V30 313 H 27.6499 -2.56743 3.06469 0
M  V30 314 H 29.0899 -3.43237 2.48926 0
M  V30 315 C 27.5489 -3.21101 1.01959 0
M  V30 316 O 28.0789 -4.0084 0.262762 0
M  V30 317 N 26.2849 -2.79003 0.812746 0
M  V30 318 H 25.8319 -2.14271 1.42989 0
M  V30 319 H 25.7899 -3.14393 0.0203076 0
M  V30 320 N 29.562 -1.4872 -0.521534 0
M  V30 321 C 30.978 -1.35028 -0.850855 0
M  V30 322 C 31.178 -0.367712 -1.98116 0
M  V30 323 O 30.234 0.208037 -2.51642 0
M  V30 324 C 31.547 -2.75263 -1.21041 0
M  V30 325 C 33.095 -2.83813 -1.31981 0
M  V30 326 C 33.57 -4.24769 -1.71276 0
M  V30 327 N 35.061 -4.27482 -1.78363 0
M  V30 328 C 35.796 -5.33494 -2.1017 0
M  V30 329 N 35.292 -6.49775 -2.40343 0
M  V30 330 N 37.085 -5.20894 -2.11248 0
M  V30 331 H 29.236 -2.11214 0.22413 0
M  V30 332 H 31.499 -0.947252 0.0376439 0
M  V30 333 H 31.205 -3.48765 -0.453415 0
M  V30 334 H 31.079 -3.09327 -2.15863 0
M  V30 335 H 33.466 -2.10561 -2.06756 0
M  V30 336 H 33.547 -2.53358 -0.352596 0
M  V30 337 H 33.191 -4.9854 -0.970588 0
M  V30 338 H 33.121 -4.52673 -2.69062 0
M  V30 339 H 35.612 -3.43611 -1.57288 0
M  V30 340 H 35.925 -7.26402 -2.63743 0
M  V30 341 H 34.27 -6.53035 -2.37844 0
M  V30 342 H 37.461 -4.29065 -1.87139 0
M  V30 343 H 37.634 -6.03612 -2.35704 0
M  V30 344 N 31.0401 0.771051 -1.3745 0
M  V30 345 C 32.2871 1.52963 -1.32697 0
M  V30 346 C 32.6151 1.94299 0.0883274 0
M  V30 347 O 31.8701 1.64397 1.0617 0
M  V30 348 C 32.1691 2.80676 -2.2126 0
M  V30 349 C 31.8351 2.58389 -3.69521 0
M  V30 350 C 30.4971 2.52019 -4.09927 0
M  V30 351 C 32.8491 2.38469 -4.63446 0
M  V30 352 C 30.1771 2.23721 -5.42371 0
M  V30 353 C 32.5291 2.11694 -5.96128 0
M  V30 354 C 31.1931 2.03769 -6.35637 0
M  V30 355 H 30.4631 0.559732 -0.485573 0
M  V30 356 H 33.1101 0.888083 -1.69662 0
M  V30 357 H 31.4151 3.49392 -1.77291 0
M  V30 358 H 33.1121 3.38557 -2.14895 0
M  V30 359 H 29.7021 2.6421 -3.37478 0
M  V30 360 H 33.8861 2.4238 -4.33089 0
M  V30 361 H 29.1421 2.16081 -5.71943 0
M  V30 362 H 33.3161 1.9528 -6.6846 0
M  V30 363 H 30.9431 1.81606 -7.38189 0
M  V30 364 N 32.5182 1.22032 0.997298 0
M  V30 365 C 33.4502 0.944263 2.08845 0
M  V30 366 C 34.4632 -0.0754663 1.62625 0
M  V30 367 O 35.6522 0.157994 1.77799 0
M  V30 368 C 32.7522 0.397723 3.36558 0
M  V30 369 C 31.9252 1.47362 4.11829 0
M  V30 370 C 30.9842 0.934951 5.17827 0
M  V30 371 O 30.0102 1.62016 5.45655 0
M  V30 372 N 31.2122 -0.245895 5.79979 0
M  V30 373 H 33.9772 1.88363 2.33109 0
M  V30 374 H 31.5382 1.12661 1.16272 0
M  V30 375 H 33.5302 0.0227771 4.04694 0
M  V30 376 H 32.1002 -0.446646 3.09393 0
M  V30 377 H 31.3202 2.02208 3.38386 0
M  V30 378 H 32.6082 2.19764 4.58891 0
M  V30 379 H 32.0062 -0.819475 5.59733 0
M  V30 380 H 30.5632 -0.562272 6.4937 0
M  V30 381 N 33.9963 -1.19345 1.0293 0
M  V30 382 C 34.9443 -2.24621 0.604001 0
M  V30 383 C 35.9383 -1.65452 -0.363587 0
M  V30 384 O 37.1443 -1.78497 -0.23212 0
M  V30 385 H 33.5193 -0.730858 0.177061 0
M  V30 386 H 35.4903 -2.5781 1.50255 0
M  V30 387 C 34.2393 -3.47688 -0.0289127 0
M  V30 388 H 33.5623 -3.93505 0.706651 0
M  V30 389 H 35.0023 -4.23011 -0.289432 0
M  V30 390 C 33.4613 -3.11817 -1.2756 0
M  V30 391 O 33.9913 -3.2451 -2.36762 0
M  V30 392 N 32.1973 -2.66246 -1.16453 0
M  V30 393 H 31.7443 -2.56118 -0.275914 0
M  V30 394 H 31.7023 -2.42617 -1.99961 0
M  V30 395 N 35.4744 -0.807222 -1.35358 0
M  V30 396 C 36.8904 -0.491038 -1.51858 0
M  V30 397 C 37.0904 0.987648 -1.75635 0
M  V30 398 O 36.1464 1.77265 -1.79815 0
M  V30 399 C 37.4594 -1.33695 -2.69344 0
M  V30 400 C 39.0074 -1.33246 -2.83222 0
M  V30 401 C 39.4824 -2.1625 -4.03733 0
M  V30 402 N 40.9734 -2.1379 -4.10911 0
M  V30 403 C 41.7084 -2.74772 -5.03277 0
M  V30 404 N 41.2044 -3.44684 -6.0097 0
M  V30 405 N 42.9974 -2.6441 -4.96028 0
M  V30 406 H 35.1484 -1.76485 -1.18181 0
M  V30 407 H 37.4114 -0.751199 -0.578276 0
M  V30 408 H 37.1174 -2.38634 -2.58354 0
M  V30 409 H 36.9914 -0.990618 -3.6396 0
M  V30 410 H 39.3784 -0.290911 -2.93663 0
M  V30 411 H 39.4594 -1.71866 -1.89461 0
M  V30 412 H 39.1034 -3.20445 -3.94052 0
M  V30 413 H 39.0334 -1.74989 -4.96675 0
M  V30 414 H 41.5244 -1.62923 -3.40976 0
M  V30 415 H 41.8374 -3.88501 -6.68047 0
M  V30 416 H 40.1824 -3.48788 -6.01142 0
M  V30 417 H 43.3734 -2.0938 -4.18662 0
M  V30 418 H 43.5464 -3.12225 -5.6782 0
M  V30 419 N 36.9525 1.47285 -0.560781 0
M  V30 420 C 38.1985 2.02764 -0.0381184 0
M  V30 421 C 38.5315 1.43384 1.30976 0
M  V30 422 O 37.8065 0.590733 1.85312 0
M  V30 423 C 38.0895 3.60064 0.0511427 0
M  V30 424 C 37.9425 4.2987 -1.32408 0
M  V30 425 C 39.2615 4.33439 0.762795 0
M  V30 426 H 36.3805 0.736841 -0.0153264 0
M  V30 427 H 39.0225 1.75675 -0.723759 0
M  V30 428 H 37.1725 3.83274 0.635065 0
M  V30 429 H 38.8445 4.17989 -1.95148 0
M  V30 430 H 37.0875 3.90085 -1.8978 0
M  V30 431 H 37.7585 5.38478 -1.21431 0
M  V30 432 H 40.2345 4.15243 0.266965 0
M  V30 433 H 39.1105 5.43124 0.794221 0
M  V30 434 H 39.3715 4.02915 1.81966 0
M  V30 435 N 38.4306 0.297415 1.54768 0
M  V30 436 C 39.8466 -0.0560823 1.59501 0
M  V30 437 C 40.0466 -1.52725 1.31444 0
M  V30 438 O 39.1026 -2.27947 1.08611 0
M  V30 439 C 40.4156 0.338631 2.98787 0
M  V30 440 C 41.9636 0.287097 3.11681 0
M  V30 441 C 42.4386 0.656579 4.53269 0
M  V30 442 N 43.9296 0.608977 4.59179 0
M  V30 443 C 44.6646 0.867385 5.66802 0
M  V30 444 N 44.1606 1.19157 6.82476 0
M  V30 445 N 45.9536 0.794687 5.56454 0
M  V30 446 H 38.1046 1.25624 1.71267 0
M  V30 447 H 40.3676 0.509057 0.799728 0
M  V30 448 H 40.0736 1.36263 3.2423 0
M  V30 449 H 39.9476 -0.309508 3.75928 0
M  V30 450 H 42.3346 -0.727649 2.85988 0
M  V30 451 H 42.4156 0.969809 2.36703 0
M  V30 452 H 42.0596 1.66912 4.7969 0
M  V30 453 H 41.9896 -0.0481649 5.26578 0
M  V30 454 H 44.4806 0.369198 3.76092 0
M  V30 455 H 44.7936 1.37482 7.60473 0
M  V30 456 H 43.1386 1.22958 6.84037 0
M  V30 457 H 46.3296 0.541098 4.64962 0
M  V30 458 H 46.5026 0.999445 6.40246 0
M  V30 459 N 39.9087 -1.5758 0.0250728 0
M  V30 460 C 40.8187 -2.1343 -0.973905 0
M  V30 461 C 41.8347 -1.08556 -1.35984 0
M  V30 462 O 43.0107 -1.40592 -1.44207 0
M  V30 463 C 40.0757 -2.64703 -2.23904 0
M  V30 464 C 39.1367 -3.84276 -1.91391 0
M  V30 465 C 38.3697 -4.33095 -3.11873 0
M  V30 466 O 38.5927 -3.81107 -4.24398 0
M  V30 467 O 37.5267 -5.24984 -2.94406 0
M  V30 468 H 41.3527 -2.99057 -0.529036 0
M  V30 469 H 38.9377 -1.48118 -0.195288 0
M  V30 470 H 40.8197 -2.97769 -2.98181 0
M  V30 471 H 39.4947 -1.82161 -2.6758 0
M  V30 472 H 38.4017 -3.56143 -1.14511 0
M  V30 473 H 39.7347 -4.67968 -1.52534 0
M  V30 474 N 41.3868 0.248026 -1.55636 0
M  V30 475 C 42.3338 1.30707 -1.90222 0
M  V30 476 C 43.3038 1.47881 -0.756332 0
M  V30 477 O 44.4888 1.61883 -1.00988 0
M  V30 478 C 41.6288 2.65769 -2.20138 0
M  V30 479 C 40.7418 2.56612 -3.47526 0
M  V30 480 C 39.8768 3.8402 -3.67017 0
M  V30 481 C 38.9158 3.69476 -4.8801 0
M  V30 482 N 38.0528 4.88774 -5.04029 0
M  V30 483 H 42.8928 1.00512 -2.80538 0
M  V30 484 H 40.4298 0.485055 -1.38873 0
M  V30 485 H 42.3878 3.44386 -2.35487 0
M  V30 486 H 41.0178 2.94115 -1.33027 0
M  V30 487 H 40.0698 1.69571 -3.40514 0
M  V30 488 H 41.3818 2.41774 -4.36287 0
M  V30 489 H 40.5358 4.7108 -3.8232 0
M  V30 490 H 39.2748 4.01754 -2.76487 0
M  V30 491 H 38.2798 2.80799 -4.72686 0
M  V30 492 H 39.5048 3.53238 -5.8 0
M  V30 493 H 37.4508 5.0687 -4.16435 0
M  V30 494 H 37.3678 4.76562 -5.86877 0
M  V30 495 H 38.6358 5.77335 -5.23741 0
M  V30 496 N 42.8649 1.48995 0.513639 0
M  V30 497 C 43.7969 1.60836 1.63293 0
M  V30 498 C 44.8099 0.491701 1.55197 0
M  V30 499 O 45.9989 0.763238 1.6136 0
M  V30 500 C 43.0989 1.53731 3.02027 0
M  V30 501 C 42.2719 2.80715 3.35437 0
M  V30 502 C 41.3309 2.66837 4.53525 0
M  V30 503 O 40.3569 3.40753 4.55934 0
M  V30 504 N 41.5589 1.77539 5.52684 0
M  V30 505 H 44.3239 2.57366 1.53566 0
M  V30 506 H 41.8849 1.45925 0.701259 0
M  V30 507 H 43.8769 1.42118 3.78926 0
M  V30 508 H 42.4469 0.651092 3.05744 0
M  V30 509 H 41.6669 3.06772 2.47557 0
M  V30 510 H 42.9549 3.64927 3.54551 0
M  V30 511 H 42.3529 1.16719 5.53528 0
M  V30 512 H 40.9099 1.71856 6.28736 0
M  V30 513 N 44.343 -0.763751 1.37857 0
M  V30 514 C 45.29 -1.87726 1.34267 0
M  V30 515 C 46.26 -1.64807 0.206879 0
M  V30 516 O 47.445 -1.86613 0.397508 0
M  V30 517 C 44.585 -3.24896 1.16346 0
M  V30 518 C 43.698 -3.59716 2.39225 0
M  V30 519 C 42.833 -4.86137 2.14114 0
M  V30 520 C 41.872 -5.13711 3.32817 0
M  V30 521 N 41.009 -6.31323 3.07206 0
M  V30 522 H 45.849 -1.90129 2.29466 0
M  V30 523 H 43.386 -0.929433 1.14017 0
M  V30 524 H 45.344 -4.04036 1.03975 0
M  V30 525 H 43.974 -3.21847 0.247909 0
M  V30 526 H 43.026 -2.75498 2.62307 0
M  V30 527 H 44.338 -3.76027 3.27728 0
M  V30 528 H 43.492 -5.73198 1.9882 0
M  V30 529 H 42.231 -4.71945 1.22961 0
M  V30 530 H 41.236 -4.25123 3.48641 0
M  V30 531 H 42.461 -5.29807 4.24832 0
M  V30 532 H 40.407 -6.18474 2.1869 0
M  V30 533 H 40.324 -6.48087 3.89254 0
M  V30 534 H 41.592 -7.213 2.95546 0
M  V30 535 N 45.8211 -1.22559 -0.990812 0
M  V30 536 C 46.7511 -1.0218 -2.09956 0
M  V30 537 C 47.7321 0.0579394 -1.70001 0
M  V30 538 O 48.9171 -0.104684 -1.93918 0
M  V30 539 C 46.0471 -0.601023 -3.4206 0
M  V30 540 C 45.0011 -1.62694 -3.95872 0
M  V30 541 C 44.3271 -1.06193 -5.24049 0
M  V30 542 C 45.6271 -3.01743 -4.2632 0
M  V30 543 H 47.3211 -1.94916 -2.27262 0
M  V30 544 H 44.8671 -0.938566 -1.09211 0
M  V30 545 H 46.8201 -0.445561 -4.19038 0
M  V30 546 H 45.5441 0.362005 -3.24588 0
M  V30 547 H 44.2031 -1.77021 -3.21028 0
M  V30 548 H 43.8511 -0.0901903 -5.02919 0
M  V30 549 H 43.5511 -1.74732 -5.61019 0
M  V30 550 H 45.0751 -0.918092 -6.03658 0
M  V30 551 H 46.4891 -2.90777 -4.94087 0
M  V30 552 H 44.8861 -3.67425 -4.74467 0
M  V30 553 H 45.9561 -3.51518 -3.34011 0
M  V30 554 N 47.2992 1.18797 -1.03562 0
M  V30 555 C 48.5462 1.8865 -0.736023 0
M  V30 556 C 48.8742 1.80041 0.735889 0
M  V30 557 O 48.1292 1.19179 1.55225 0
M  V30 558 C 48.4282 3.38692 -1.14117 0
M  V30 559 C 48.0942 3.67504 -2.6125 0
M  V30 560 C 46.7562 3.75078 -3.01447 0
M  V30 561 C 49.1082 3.80293 -3.56408 0
M  V30 562 C 46.4362 3.92915 -4.35701 0
M  V30 563 C 48.7882 3.99645 -4.90374 0
M  V30 564 C 47.4522 4.05453 -5.30249 0
M  V30 565 H 46.7222 0.690321 -0.26933 0
M  V30 566 H 49.3692 1.40641 -1.29971 0
M  V30 567 H 47.6742 3.88645 -0.496202 0
M  V30 568 H 49.3712 3.91072 -0.886789 0
M  V30 569 H 45.9612 3.62223 -2.29113 0
M  V30 570 H 50.1452 3.73779 -3.26501 0
M  V30 571 H 45.4012 3.95653 -4.66121 0
M  V30 572 H 49.5752 4.08482 -5.64017 0
M  V30 573 H 47.2022 4.19027 -6.34288 0
M  V30 574 N 48.7773 0.814389 1.34928 0
M  V30 575 C 49.7093 0.187834 2.28429 0
M  V30 576 C 50.7223 -0.617374 1.5064 0
M  V30 577 O 51.9113 -0.448454 1.72775 0
M  V30 578 C 49.0113 -0.755962 3.30361 0
M  V30 579 C 48.1843 0.00456686 4.374 0
M  V30 580 C 47.2433 -0.858876 5.19143 0
M  V30 581 O 46.2693 -0.306968 5.68372 0
M  V30 582 N 47.4713 -2.17988 5.38016 0
M  V30 583 H 50.2363 0.991105 2.82838 0
M  V30 584 H 47.7973 0.670561 1.4736 0
M  V30 585 H 49.7893 -1.338 3.81942 0
M  V30 586 H 48.3593 -1.46001 2.7641 0
M  V30 587 H 47.5793 0.767865 3.86649 0
M  V30 588 H 48.8673 0.528422 5.06049 0
M  V30 589 H 48.2653 -2.65212 4.99679 0
M  V30 590 H 46.8223 -2.71098 5.92747 0
M  V30 591 N 50.2554 -1.46986 0.568584 0
M  V30 592 C 51.1654 -2.33942 -0.17555 0
M  V30 593 C 52.1814 -1.48891 -0.90041 0
M  V30 594 O 53.3574 -1.81794 -0.86676 0
M  V30 595 C 50.4224 -3.25811 -1.18524 0
M  V30 596 C 49.4834 -4.26757 -0.466582 0
M  V30 597 C 48.7164 -5.14236 -1.42817 0
M  V30 598 O 48.9394 -5.04379 -2.66379 0
M  V30 599 O 47.8734 -5.94412 -0.946453 0
M  V30 600 H 51.6994 -2.98896 0.538036 0
M  V30 601 H 49.2844 -1.4573 0.329097 0
M  V30 602 H 51.1664 -3.82527 -1.76779 0
M  V30 603 H 49.8414 -2.63471 -1.88055 0
M  V30 604 H 48.7484 -3.73769 0.157451 0
M  V30 605 H 50.0814 -4.91843 0.187485 0
M  V30 606 N 51.7335 -0.305618 -1.54608 0
M  V30 607 C 53.0105 0.355652 -1.92339 0
M  V30 608 C 53.3905 1.71324 -1.23335 0
M  V30 609 O 52.7385 2.25473 -0.370702 0
M  V30 610 C 52.9485 0.46572 -3.45879 0
M  V30 611 C 54.2965 0.734426 -4.182 0
M  V30 612 O 55.3205 0.54935 -3.51938 0
M  V30 613 O 54.1795 1.09024 -5.35515 0
M  V30 614 H 51.2735 0.199666 -0.802535 0
M  V30 615 H 53.8195 -0.354017 -1.65966 0
M  V30 616 H 52.5915 -0.488461 -3.88239 0
M  V30 617 H 52.2145 1.22367 -3.78301 0
M  V30 618 N 53.2116 1.57565 -0.0334293 0
M  V30 619 C 54.1596 2.1164 0.96496 0
M  V30 620 C 55.1536 1.04398 1.33407 0
M  V30 621 O 56.3596 1.22828 1.3158 0
M  V30 622 H 52.7346 0.676222 0.32898 0
M  V30 623 H 54.7056 2.94455 0.483614 0
M  V30 624 C 53.4546 2.66207 2.23672 0
M  V30 625 H 52.7776 3.48378 1.96145 0
M  V30 626 H 54.2176 3.07685 2.9173 0
M  V30 627 C 52.6766 1.59151 2.96939 0
M  V30 628 O 53.2066 0.993858 3.89211 0
M  V30 629 N 51.4126 1.31093 2.59351 0
M  V30 630 H 50.9596 1.7988 1.84393 0
M  V30 631 H 50.9176 0.596889 3.08682 0
M  V30 632 N 54.6897 -0.239769 1.55765 0
M  V30 633 C 55.9667 -0.990056 1.68693 0
M  V30 634 C 56.3467 -2.03107 0.5754 0
M  V30 635 O 55.6947 -2.24604 -0.42017 0
M  V30 636 C 55.9047 -1.61696 3.09282 0
M  V30 637 C 57.2527 -2.11613 3.6811 0
M  V30 638 O 58.2767 -1.71624 3.12127 0
M  V30 639 O 57.1357 -2.85057 4.66267 0
M  V30 640 H 54.2297 -0.461299 0.686391 0
M  V30 641 H 56.7757 -0.232991 1.68093 0
M  V30 642 H 55.5477 -0.864357 3.81634 0
M  V30 643 H 55.1707 -2.44005 3.13923 0
M  V30 644 N 56.1678 -1.49265 -0.50573 0
M  V30 645 C 57.4168 -1.57761 -1.25675 0
M  V30 646 C 57.7298 -0.267371 -1.93764 0
M  V30 647 O 58.9358 -0.230827 -2.70517 0
M  V30 648 C 57.3918 -2.78332 -2.28165 0
M  V30 649 C 56.9998 -4.16096 -1.66037 0
M  V30 650 C 58.7438 -2.96155 -3.04125 0
M  V30 651 C 56.6508 -5.27895 -2.6661 0
M  V30 652 H 55.5808 -0.587391 -0.472745 0
M  V30 653 H 58.2318 -1.75644 -0.53118 0
M  V30 654 H 56.6138 -2.53934 -3.03865 0
M  V30 655 H 57.7878 -4.50612 -0.963622 0
M  V30 656 H 56.1028 -4.03591 -1.02484 0
M  V30 657 H 58.6998 -3.76849 -3.79327 0
M  V30 658 H 59.0428 -2.06534 -3.61455 0
M  V30 659 H 59.5758 -3.2057 -2.35541 0
M  V30 660 H 56.3148 -6.1956 -2.14068 0
M  V30 661 H 55.8348 -4.97839 -3.34539 0
M  V30 662 H 57.5138 -5.57031 -3.29129 0
M  V30 663 N 57.6459 0.756429 -1.3826 0
M  V30 664 C 59.0569 1.33359 -1.30661 0
M  V30 665 C 59.4079 1.96161 0.0388875 0
M  V30 666 O 58.5329 1.94874 0.940918 0
M  V30 667 C 59.1279 2.42477 -2.36622 0
M  V30 668 C 57.6869 2.95922 -2.3261 0
M  V30 669 C 56.8339 1.69275 -2.19639 0
M  V30 670 H 59.7849 0.55552 -1.4866 0
M  V30 671 H 59.8059 3.22345 -2.02174 0
M  V30 672 H 59.3179 1.96739 -3.34538 0
M  V30 673 H 57.4189 3.45996 -1.38267 0
M  V30 674 H 57.5319 3.50494 -3.26636 0
M  V30 675 H 55.8959 1.92793 -1.66442 0
M  V30 676 H 56.6789 1.25619 -3.19491 0
M  V30 677 N 59.124 1.23083 0.984299 0
M  V30 678 C 60.054 1.03292 2.09411 0
M  V30 679 C 61.035 -0.048923 1.7003 0
M  V30 680 O 62.22 0.114967 1.93859 0
M  V30 681 C 59.35 0.619155 3.41736 0
M  V30 682 C 58.304 1.64791 3.95004 0
M  V30 683 C 57.63 1.0897 5.23478 0
M  V30 684 C 58.93 3.03999 4.24714 0
M  V30 685 H 60.624 1.96119 2.26225 0
M  V30 686 H 58.17 0.944344 1.08711 0
M  V30 687 H 60.123 0.467777 4.18796 0
M  V30 688 H 58.847 -0.344786 3.24775 0
M  V30 689 H 57.506 1.78721 3.20085 0
M  V30 690 H 57.154 0.11686 5.02864 0
M  V30 691 H 56.854 1.77704 5.60085 0
M  V30 692 H 58.378 0.950093 6.03163 0
M  V30 693 H 59.792 2.93393 4.92538 0
M  V30 694 H 58.189 3.69936 4.72512 0
M  V30 695 H 59.259 3.53285 3.32142 0
M  V30 696 N 60.6021 -1.18246 1.0419 0
M  V30 697 C 61.8321 -1.91916 0.764961 0
M  V30 698 C 62.2401 -1.76485 -0.681898 0
M  V30 699 O 61.5831 -1.09275 -1.47664 0
M  V30 700 C 61.6451 -3.4373 1.05309 0
M  V30 701 C 61.3091 -3.8294 2.4941 0
M  V30 702 C 62.3061 -3.86621 3.47592 0
M  V30 703 C 59.9911 -4.142 2.84155 0
M  V30 704 C 61.9851 -4.21013 4.78568 0
M  V30 705 C 59.6721 -4.48262 4.15337 0
M  V30 706 C 60.6701 -4.51645 5.12353 0
M  V30 707 O 60.3581 -4.84911 6.41183 0
M  V30 708 H 60.0901 -0.61606 0.278292 0
M  V30 709 H 62.6441 -1.50947 1.39299 0
M  V30 710 H 60.8741 -3.84946 0.367933 0
M  V30 711 H 62.5631 -3.9865 0.763752 0
M  V30 712 H 63.3291 -3.62607 3.22089 0
M  V30 713 H 59.2081 -4.10743 2.09311 0
M  V30 714 H 62.7521 -4.23568 5.54289 0
M  V30 715 H 58.6491 -4.71737 4.40607 0
M  V30 716 H 59.4171 -5.02809 6.45852 0
M  V30 717 N 62.0802 -0.821533 -1.34494 0
M  V30 718 C 63.0102 -0.257138 -2.3208 0
M  V30 719 C 63.9912 0.625645 -1.58176 0
M  V30 720 O 65.1762 0.552811 -1.86166 0
M  V30 721 C 62.3062 0.582958 -3.42372 0
M  V30 722 C 61.2602 -0.202571 -4.2752 0
M  V30 723 C 60.5862 0.760179 -5.29269 0
M  V30 724 C 61.8862 -1.40998 -5.02908 0
M  V30 725 H 63.5802 -1.07247 -2.79532 0
M  V30 726 H 61.1262 -0.517163 -1.34393 0
M  V30 727 H 63.0792 0.987972 -4.09655 0
M  V30 728 H 61.8032 1.43133 -2.93565 0
M  V30 729 H 60.4622 -0.588936 -3.61838 0
M  V30 730 H 60.1102 1.60447 -4.76724 0
M  V30 731 H 59.8102 0.238809 -5.87115 0
M  V30 732 H 61.3342 1.16308 -5.9942 0
M  V30 733 H 62.7482 -1.07905 -5.63054 0
M  V30 734 H 61.1452 -1.86689 -5.70322 0
M  V30 735 H 62.2152 -2.1889 -4.32684 0
M  V30 736 N 63.5583 1.46682 -0.576371 0
M  V30 737 C 64.5053 2.30241 0.160499 0
M  V30 738 C 65.4753 1.40233 0.890162 0
M  V30 739 O 66.6603 1.69186 0.882084 0
M  V30 740 C 63.8003 3.24578 1.1723 0
M  V30 741 C 62.9133 4.29684 0.446736 0
M  V30 742 C 62.0483 5.11154 1.44551 0
M  V30 743 C 61.0873 6.08015 0.70599 0
M  V30 744 N 60.2243 6.82376 1.65251 0
M  V30 745 H 65.0643 2.92727 -0.558127 0
M  V30 746 H 62.6013 1.44272 -0.287056 0
M  V30 747 H 64.5593 3.77711 1.77172 0
M  V30 748 H 63.1893 2.63916 1.85872 0
M  V30 749 H 62.2413 3.79458 -0.267594 0
M  V30 750 H 63.5533 4.98626 -0.131686 0
M  V30 751 H 62.7073 5.68533 2.11791 0
M  V30 752 H 61.4463 4.42158 2.05786 0
M  V30 753 H 60.4513 5.49796 0.0197725 0
M  V30 754 H 61.6763 6.79028 0.09912 0
M  V30 755 H 59.6223 6.16094 2.25308 0
M  V30 756 H 59.5393 7.47556 1.12673 0
M  V30 757 H 60.8073 7.44316 2.31546 0
M  V30 758 N 65.0364 0.313813 1.54444 0
M  V30 759 C 66.2844 -0.291099 1.99993 0
M  V30 760 C 66.6054 -1.53418 1.20366 0
M  V30 761 O 65.8754 -1.93544 0.302927 0
M  V30 762 H 64.4554 -0.110552 0.738774 0
M  V30 763 H 67.1174 0.428106 1.9014 0
M  V30 764 H 66.2134 -0.554268 3.07139 0
M  V30 765 N 66.5145 -1.57545 0.0417849 0
M  V30 766 C 67.7625 -1.91937 -0.632829 0
M  V30 767 C 68.0835 -0.919978 -1.71934 0
M  V30 768 O 67.3535 0.0366064 -1.95866 0
M  V30 769 H 65.9335 -0.708493 -0.236742 0
M  V30 770 H 68.5955 -1.9468 0.0925745 0
M  V30 771 H 67.6915 -2.92912 -1.07746 0
M  V30 772 N 67.9926 0.231505 -1.5589 0
M  V30 773 C 69.2416 0.955346 -1.7764 0
M  V30 774 C 69.5546 1.85893 -0.608546 0
M  V30 775 O 70.7606 2.62067 -0.70943 0
M  V30 776 C 69.2166 1.74886 -3.14552 0
M  V30 777 C 68.8246 0.891915 -4.39032 0
M  V30 778 C 70.5686 2.46452 -3.45633 0
M  V30 779 C 68.4756 1.68221 -5.66971 0
M  V30 780 H 67.4056 0.360446 -0.662265 0
M  V30 781 H 70.0566 0.209516 -1.823 0
M  V30 782 H 68.4386 2.53723 -3.04041 0
M  V30 783 H 69.6126 0.144793 -4.60572 0
M  V30 784 H 67.9276 0.288863 -4.15397 0
M  V30 785 H 70.5246 3.06061 -4.38441 0
M  V30 786 H 70.8676 3.18841 -2.67668 0
M  V30 787 H 71.4006 1.74613 -3.57428 0
M  V30 788 H 68.1396 1.00178 -6.478 0
M  V30 789 H 67.6596 2.4042 -5.49507 0
M  V30 790 H 69.3386 2.24544 -6.06786 0
M  V30 791 N 69.4707 1.49531 0.497807 0
M  V30 792 C 70.7167 1.59415 1.25358 0
M  V30 793 C 71.0497 0.281422 1.9215 0
M  V30 794 O 70.3247 -0.715249 1.80871 0
M  V30 795 C 70.6077 2.75566 2.3181 0
M  V30 796 C 70.4607 4.16642 1.69498 0
M  V30 797 C 71.7797 2.87347 3.33346 0
M  V30 798 H 68.8987 0.580244 0.454408 0
M  V30 799 H 71.5407 1.81827 0.551262 0
M  V30 800 H 69.6907 2.56587 2.91711 0
M  V30 801 H 71.3627 4.47145 1.13399 0
M  V30 802 H 69.6057 4.22141 0.998978 0
M  V30 803 H 70.2767 4.93792 2.46725 0
M  V30 804 H 72.7527 3.04634 2.83438 0
M  V30 805 H 71.6287 3.70289 4.05188 0
M  V30 806 H 71.8897 1.96834 3.95865 0
M  V30 807 N 70.9488 -0.749086 1.3866 0
M  V30 808 C 72.2258 -1.4992 1.25632 0
M  V30 809 C 72.6058 -2.10633 -0.140317 0
M  V30 810 O 71.9538 -1.97437 -1.15025 0
M  V30 811 C 72.1638 -2.56195 2.36992 0
M  V30 812 C 73.5118 -3.22972 2.75634 0
M  V30 813 O 74.5358 -2.66502 2.36337 0
M  V30 814 O 73.3948 -4.25122 3.43415 0
M  V30 815 H 70.4888 -0.665067 0.491544 0
M  V30 816 H 73.0348 -0.784113 1.50498 0
M  V30 817 H 71.8068 -2.09612 3.30422 0
M  V30 818 H 71.4298 -3.35279 2.13714 0
M  V30 819 N 72.4269 -1.23603 -0.977757 0
M  V30 820 C 73.3749 -1.01704 -2.09187 0
M  V30 821 C 74.3689 0.0448214 -1.69341 0
M  V30 822 O 75.5749 -0.108902 -1.7967 0
M  V30 823 H 71.9499 -0.311803 -0.684312 0
M  V30 824 H 73.9209 -1.96207 -2.24823 0
M  V30 825 C 72.6699 -0.627746 -3.41986 0
M  V30 826 H 71.9929 -1.43656 -3.73099 0
M  V30 827 H 73.4329 -0.514053 -4.20872 0
M  V30 828 C 71.8919 0.664238 -3.30287 0
M  V30 829 O 72.4219 1.71268 -3.6336 0
M  V30 830 N 70.6279 0.641156 -2.83439 0
M  V30 831 H 70.1749 -0.212376 -2.56723 0
M  V30 832 H 70.1329 1.50583 -2.75993 0
M  V30 833 N 73.905 1.17692 -1.04816 0
M  V30 834 C 75.154 1.87192 -0.751132 0
M  V30 835 C 75.467 1.8169 0.724441 0
M  V30 836 O 76.673 2.46625 1.13527 0
M  V30 837 C 75.129 3.35857 -1.29338 0
M  V30 838 C 74.737 3.4987 -2.79812 0
M  V30 839 C 76.481 4.10709 -1.07322 0
M  V30 840 C 74.388 4.92536 -3.27356 0
M  V30 841 H 73.318 0.701162 -0.277288 0
M  V30 842 H 75.969 1.32932 -1.26496 0
M  V30 843 H 74.351 3.89631 -0.707376 0
M  V30 844 H 75.525 3.06332 -3.44235 0
M  V30 845 H 73.84 2.88433 -3.00325 0
M  V30 846 H 76.437 5.15952 -1.4035 0
M  V30 847 H 76.78 4.16299 -0.0108001 0
M  V30 848 H 77.313 3.6313 -1.62423 0
M  V30 849 H 74.052 4.92119 -4.33012 0
M  V30 850 H 73.572 5.3676 -2.67673 0
M  V30 851 H 75.251 5.61288 -3.21815 0
M  V30 852 N 75.3831 0.828654 1.34056 0
M  V30 853 C 76.3131 0.269443 2.3194 0
M  V30 854 C 77.2941 -0.617247 1.58506 0
M  V30 855 O 78.4791 -0.542931 1.86456 0
M  V30 856 C 75.6091 -0.564793 3.42677 0
M  V30 857 C 74.5631 0.225241 4.27407 0
M  V30 858 C 73.8891 -0.7321 5.29664 0
M  V30 859 C 75.1891 1.43663 5.02154 0
M  V30 860 H 76.8831 1.08728 2.7896 0
M  V30 861 H 74.4291 0.524283 1.34117 0
M  V30 862 H 76.3821 -0.966233 4.10173 0
M  V30 863 H 75.1061 -1.41574 2.9432 0
M  V30 864 H 73.7651 0.608117 3.61521 0
M  V30 865 H 73.4131 -1.57916 4.77568 0
M  V30 866 H 73.1131 -0.20767 5.87233 0
M  V30 867 H 74.6371 -1.13128 6.00029 0
M  V30 868 H 76.0511 1.1089 5.62473 0
M  V30 869 H 74.4481 1.89711 5.69324 0
M  V30 870 H 75.5181 2.21181 4.31517 0
M  V30 871 N 76.8612 -1.46375 0.584142 0
M  V30 872 C 78.0912 -2.06461 0.0758195 0
M  V30 873 C 78.4992 -1.43322 -1.23512 0
M  V30 874 O 77.8422 -0.533216 -1.75791 0
M  V30 875 C 77.9042 -3.59131 -0.162773 0
M  V30 876 C 77.5682 -4.4447 1.06279 0
M  V30 877 C 78.5652 -4.80918 1.97519 0
M  V30 878 C 76.2502 -4.85584 1.28504 0
M  V30 879 C 78.2442 -5.57309 3.09331 0
M  V30 880 C 75.9312 -5.61734 2.4062 0
M  V30 881 C 76.9292 -5.9751 3.30863 0
M  V30 882 O 76.6172 -6.72121 4.41032 0
M  V30 883 H 76.3492 -0.673745 0.0551725 0
M  V30 884 H 78.9032 -1.88969 0.804984 0
M  V30 885 H 77.1332 -3.74936 -0.946565 0
M  V30 886 H 78.8222 -4.0114 -0.619782 0
M  V30 887 H 79.5882 -4.49732 1.81565 0
M  V30 888 H 75.4672 -4.57187 0.591702 0
M  V30 889 H 79.0112 -5.85152 3.79793 0
M  V30 890 H 74.9082 -5.92334 2.56537 0
M  V30 891 H 75.6762 -6.90547 4.39417 0
M  V30 892 N 78.3393 -0.321999 -1.54275 0
M  V30 893 C 79.7553 0.0306999 -1.5957 0
M  V30 894 C 79.9553 1.50614 -1.33857 0
M  V30 895 O 79.0113 2.2619 -1.12223 0
M  V30 896 C 80.3243 -0.386122 -2.98211 0
M  V30 897 C 81.8723 -0.336647 -3.11184 0
M  V30 898 C 82.3473 -0.728607 -4.52167 0
M  V30 899 N 83.8383 -0.681952 -4.58152 0
M  V30 900 C 84.5733 -0.957449 -5.6535 0
M  V30 901 N 84.0693 -1.3 -6.80494 0
M  V30 902 N 85.8623 -0.883113 -5.55119 0
M  V30 903 H 78.0133 -1.28332 -1.69247 0
M  V30 904 H 80.2763 -0.521716 -0.791528 0
M  V30 905 H 79.9823 -1.41404 -3.22022 0
M  V30 906 H 79.8563 0.249662 -3.76373 0
M  V30 907 H 82.2433 0.682058 -2.8711 0
M  V30 908 H 82.3243 -1.00734 -2.3513 0
M  V30 909 H 81.9683 -1.74522 -4.76974 0
M  V30 910 H 81.8983 -0.0356152 -5.26588 0
M  V30 911 H 84.3893 -0.428985 -3.75457 0
M  V30 912 H 84.7023 -1.49563 -7.58189 0
M  V30 913 H 83.0473 -1.33824 -6.81994 0
M  V30 914 H 86.2383 -0.615001 -4.64042 0
M  V30 915 H 86.4113 -1.10118 -6.38575 0
M  V30 916 N 79.8174 1.5752 -0.0501392 0
M  V30 917 C 81.0634 1.92936 0.624798 0
M  V30 918 C 81.3964 0.928685 1.70555 0
M  V30 919 O 80.6714 -0.0454779 1.94447 0
M  V30 920 C 80.9544 3.38737 1.22185 0
M  V30 921 C 80.8074 4.49552 0.149218 0
M  V30 922 C 82.1264 3.84913 2.13378 0
M  V30 923 H 79.2454 0.701604 0.225657 0
M  V30 924 H 81.8874 1.89671 -0.111693 0
M  V30 925 H 80.0374 3.4165 1.84953 0
M  V30 926 H 81.7094 4.58768 -0.482648 0
M  V30 927 H 79.9524 4.30638 -0.522841 0
M  V30 928 H 80.6234 5.48653 0.606966 0
M  V30 929 H 83.0994 3.8387 1.60572 0
M  V30 930 H 81.9754 4.87584 2.52097 0
M  V30 931 H 82.2364 3.21611 3.03346 0
M  V30 932 N 81.2955 -0.223234 1.56011 0
M  V30 933 C 82.5235 -0.964812 1.83027 0
M  V30 934 C 82.9385 -1.78013 0.62904 0
M  V30 935 O 82.2955 -1.78008 -0.402414 0
M  V30 936 C 82.3465 -1.88373 3.08542 0
M  V30 937 O 82.0675 -1.10137 4.2403 0
M  V30 938 C 83.5685 -2.73934 3.48533 0
M  V30 939 H 80.7885 -0.282842 0.608475 0
M  V30 940 H 83.3325 -0.238971 2.03099 0
M  V30 941 H 81.4875 -2.56354 2.9045 0
M  V30 942 H 81.9015 -1.72501 4.95322 0
M  V30 943 H 83.3755 -3.34117 4.39397 0
M  V30 944 H 83.8525 -3.46244 2.70207 0
M  V30 945 H 84.4585 -2.11369 3.69057 0
M  V30 946 N 82.7736 -1.49793 -0.48987 0
M  V30 947 C 83.7066 -1.61898 -1.60823 0
M  V30 948 C 84.6846 -0.467651 -1.5573 0
M  V30 949 O 85.8686 -0.684682 -1.75626 0
M  V30 950 C 82.9956 -1.58422 -2.99366 0
M  V30 951 C 82.0416 -2.78889 -3.22682 0
M  V30 952 S 82.8746 -4.40429 -3.04602 0
M  V30 953 C 84.0306 -4.39617 -4.4552 0
M  V30 954 H 84.2636 -2.56502 -1.50312 0
M  V30 955 H 81.7966 -1.38822 -0.675849 0
M  V30 956 H 83.7546 -1.57103 -3.79248 0
M  V30 957 H 82.4156 -0.650866 -3.07283 0
M  V30 958 H 81.6086 -2.72708 -4.23847 0
M  V30 959 H 81.2106 -2.77678 -2.50541 0
M  V30 960 H 83.5026 -4.12022 -5.37814 0
M  V30 961 H 84.4456 -5.41097 -4.56749 0
M  V30 962 H 84.8536 -3.69554 -4.2672 0
M  V30 963 N 84.2517 0.741722 -1.39055 0
M  V30 964 C 85.4797 1.53098 -1.39171 0
M  V30 965 C 85.8947 1.88794 0.0155099 0
M  V30 966 O 85.2517 1.53626 0.985159 0
M  V30 967 C 85.3027 2.82274 -2.2584 0
M  V30 968 O 85.0237 2.48097 -3.61081 0
M  V30 969 C 86.5247 3.76343 -2.34266 0
M  V30 970 H 83.7447 0.473335 -0.4756 0
M  V30 971 H 86.2887 0.917045 -1.82785 0
M  V30 972 H 84.4437 3.40015 -1.85656 0
M  V30 973 H 84.8577 3.31029 -4.06842 0
M  V30 974 H 86.3317 4.63898 -2.9917 0
M  V30 975 H 86.8087 4.17619 -1.35982 0
M  V30 976 H 87.4147 3.24523 -2.74891 0
M  V30 977 N 85.7298 1.2412 0.971189 0
M  V30 978 C 86.6598 1.05508 2.08304 0
M  V30 979 C 87.6408 -0.0308864 1.70072 0
M  V30 980 O 88.8258 0.135521 1.93727 0
M  V30 981 C 85.9558 0.655365 3.4106 0
M  V30 982 C 84.9098 1.68971 3.93234 0
M  V30 983 C 84.2358 1.14516 5.22293 0
M  V30 984 C 85.5358 3.08487 4.21465 0
M  V30 985 H 87.2298 1.98507 2.24132 0
M  V30 986 H 84.7758 0.955821 1.07704 0
M  V30 987 H 86.7288 0.51217 4.18276 0
M  V30 988 H 85.4528 -0.31032 3.25122 0
M  V30 989 H 84.1118 1.82106 3.18171 0
M  V30 990 H 83.7598 0.170189 5.02712 0
M  V30 991 H 83.4598 1.83635 5.58168 0
M  V30 992 H 84.9838 1.01401 6.02121 0
M  V30 993 H 86.3978 2.98601 4.89398 0
M  V30 994 H 84.7948 3.74926 4.68562 0
M  V30 995 H 85.8648 3.56787 3.28376 0
M  V30 996 N 87.2079 -1.17134 1.05439 0
M  V30 997 C 88.4479 -1.89137 0.77502 0
M  V30 998 C 88.8119 -1.79345 -0.685526 0
M  V30 999 O 90.0129 -2.46188 -1.0791 0
M  V30 1000 C 88.2839 -3.35003 1.2453 0
M  V30 1001 S 89.8429 -4.24952 1.09367 0
M  V30 1002 H 86.6609 -0.652949 0.281387 0
M  V30 1003 H 89.2629 -1.4145 1.34953 0
M  V30 1004 H 87.9669 -3.39666 2.30338 0
M  V30 1005 H 87.4979 -3.87736 0.665166 0
M  V30 1006 H 89.5129 -4.96196 0.0193397 0
M  V30 1007 N 88.686 -0.835752 -1.33615 0
M  V30 1008 C 89.616 -0.281739 -2.31794 0
M  V30 1009 C 90.597 0.608833 -1.58831 0
M  V30 1010 O 91.782 0.533035 -1.86741 0
M  V30 1011 C 88.912 0.546612 -3.42971 0
M  V30 1012 C 87.866 -0.247904 -4.27281 0
M  V30 1013 C 87.192 0.704001 -5.30045 0
M  V30 1014 C 88.492 -1.46324 -5.01385 0
M  V30 1015 H 90.186 -1.10206 -2.78379 0
M  V30 1016 H 87.732 -0.531388 -1.33837 0
M  V30 1017 H 89.685 0.944467 -4.1068 0
M  V30 1018 H 88.409 1.40011 -2.95067 0
M  V30 1019 H 87.068 -0.627281 -3.61194 0
M  V30 1020 H 86.716 1.55381 -4.78399 0
M  V30 1021 H 86.416 0.176524 -5.87335 0
M  V30 1022 H 87.94 1.09944 -6.0062 0
M  V30 1023 H 89.354 -1.13871 -5.61877 0
M  V30 1024 H 87.751 -1.92728 -5.6831 0
M  V30 1025 H 88.821 -2.23467 -4.30338 0
M  V30 1026 N 90.1641 1.46063 -0.591896 0
M  V30 1027 C 91.4121 2.01938 -0.0808391 0
M  V30 1028 C 91.7331 1.46475 1.28725 0
M  V30 1029 O 91.0031 0.652944 1.84698 0
M  V30 1030 H 89.5831 0.746516 -0.0268938 0
M  V30 1031 H 92.2451 1.79055 -0.769752 0
M  V30 1032 H 91.3411 3.12094 -0.0187578 0
M  V30 1033 N 91.6422 0.330177 1.54103 0
M  V30 1034 C 92.8902 -0.269871 2.0029 0
M  V30 1035 C 93.2112 -1.52133 1.21986 0
M  V30 1036 O 92.4812 -1.93212 0.323438 0
M  V30 1037 H 91.0612 -0.10271 0.739905 0
M  V30 1038 H 93.7232 0.448249 1.89675 0
M  V30 1039 H 92.8192 -0.52166 3.07709 0
M  V30 1040 N 93.1203 -1.57491 0.0584922 0
M  V30 1041 C 94.3483 -1.97296 -0.623037 0
M  V30 1042 C 94.7633 -0.936338 -1.63946 0
M  V30 1043 O 94.1203 0.0785981 -1.82331 0
M  V30 1044 C 94.1713 -3.37183 -1.30345 0
M  V30 1045 O 93.8923 -4.36872 -0.32773 0
M  V30 1046 C 95.3933 -3.91788 -2.07406 0
M  V30 1047 H 92.6133 -0.649153 -0.169826 0
M  V30 1048 H 95.1573 -2.04106 0.12696 0
M  V30 1049 H 93.3123 -3.31502 -2.00463 0
M  V30 1050 H 93.7263 -5.18141 -0.814269 0
M  V30 1051 H 95.2003 -4.91926 -2.50425 0
M  V30 1052 H 95.6773 -3.27609 -2.92521 0
M  V30 1053 H 96.2833 -4.00829 -1.42184 0
M  V30 1054 N 94.5984 0.214957 -1.56127 0
M  V30 1055 C 95.8444 0.939762 -1.79712 0
M  V30 1056 C 96.1774 1.83723 -0.629247 0
M  V30 1057 O 95.4524 1.90925 0.371197 0
M  V30 1058 C 95.7354 1.77306 -3.13424 0
M  V30 1059 C 95.5884 0.90164 -4.40671 0
M  V30 1060 C 96.9074 2.74956 -3.43638 0
M  V30 1061 H 94.0264 0.340214 -0.653776 0
M  V30 1062 H 96.6684 0.20824 -1.88855 0
M  V30 1063 H 94.8184 2.39673 -3.0576 0
M  V30 1064 H 96.4904 0.294206 -4.60361 0
M  V30 1065 H 94.7334 0.207368 -4.33304 0
M  V30 1066 H 95.4044 1.51923 -5.30682 0
M  V30 1067 H 97.8804 2.22724 -3.51473 0
M  V30 1068 H 96.7564 3.30358 -4.38355 0
M  V30 1069 H 97.0174 3.53023 -2.66134 0
M  V30 1070 N 96.0765 1.50051 0.48192 0
M  V30 1071 C 97.3065 1.63999 1.2565 0
M  V30 1072 C 97.7145 0.318288 1.86504 0
M  V30 1073 O 97.0575 -0.708534 1.69486 0
M  V30 1074 C 97.1195 2.66504 2.4128 0
M  V30 1075 C 96.7835 4.10352 2.01148 0
M  V30 1076 C 97.7805 4.96562 1.54021 0
M  V30 1077 C 95.4655 4.56203 2.10199 0
M  V30 1078 C 97.4595 6.26668 1.16473 0
M  V30 1079 C 95.1465 5.86318 1.72264 0
M  V30 1080 C 96.1445 6.71375 1.25477 0
M  V30 1081 O 95.8325 7.99062 0.880626 0
M  V30 1082 H 95.5645 0.55456 0.386574 0
M  V30 1083 H 98.1185 1.96954 0.582944 0
M  V30 1084 H 96.3485 2.28769 3.11772 0
M  V30 1085 H 98.0375 2.69783 3.03268 0
M  V30 1086 H 98.8035 4.62358 1.46458 0
M  V30 1087 H 94.6825 3.90152 2.45566 0
M  V30 1088 H 98.2265 6.93011 0.798841 0
M  V30 1089 H 94.1235 6.20046 1.79482 0
M  V30 1090 H 94.8915 8.12239 1.01043 0
M  V30 1091 N 97.5546 -0.734337 1.39446 0
M  V30 1092 C 98.7796 -1.52866 1.40167 0
M  V30 1093 C 99.2046 -1.881 -0.00171513 0
M  V30 1094 O 98.5626 -1.51957 -0.988879 0
M  V30 1095 C 98.6106 -2.79235 2.28167 0
M  V30 1096 O 97.7146 -3.75185 1.71201 0
M  V30 1097 H 97.0556 -0.461618 0.477289 0
M  V30 1098 H 99.5856 -0.905949 1.8345 0
M  V30 1099 H 99.5956 -3.27963 2.42702 0
M  V30 1100 H 98.2706 -2.52923 3.30156 0
M  V30 1101 H 96.8476 -3.33958 1.65912 0
M  V30 1102 N 99.0327 -1.24633 -0.964593 0
M  V30 1103 C 99.9627 -1.06611 -2.07741 0
M  V30 1104 C 100.944 0.0218666 -1.70086 0
M  V30 1105 O 102.129 -0.145793 -1.93652 0
M  V30 1106 C 99.2587 -0.673444 -3.40708 0
M  V30 1107 C 98.2127 -1.71054 -3.92332 0
M  V30 1108 C 97.5387 -1.17285 -5.21678 0
M  V30 1109 C 98.8387 -3.10718 -4.19824 0
M  V30 1110 H 100.533 -1.99693 -2.23076 0
M  V30 1111 H 98.0787 -0.96152 -1.07195 0
M  V30 1112 H 100.032 -0.534345 -4.17998 0
M  V30 1113 H 98.7557 0.293073 -3.25282 0
M  V30 1114 H 97.4147 -1.83791 -3.17201 0
M  V30 1115 H 97.0627 -0.196847 -5.02615 0
M  V30 1116 H 96.7627 -1.86592 -5.57187 0
M  V30 1117 H 98.2867 -1.04593 -6.01575 0
M  V30 1118 H 99.7007 -3.01192 -4.87808 0
M  V30 1119 H 98.0977 -3.77406 -4.66567 0
M  V30 1120 H 99.1677 -3.58524 -3.26479 0
M  V30 1121 N 100.511 1.16574 -1.06058 0
M  V30 1122 C 101.741 1.90675 -0.795397 0
M  V30 1123 C 102.149 1.77547 0.653735 0
M  V30 1124 O 101.492 1.11611 1.45907 0
M  V30 1125 C 101.554 3.42011 -1.10764 0
M  V30 1126 C 101.218 3.78924 -2.55471 0
M  V30 1127 C 102.215 3.81042 -3.53699 0
M  V30 1128 C 99.8998 4.09626 -2.90708 0
M  V30 1129 C 101.894 4.13346 -4.85205 0
M  V30 1130 C 99.5808 4.41597 -4.22416 0
M  V30 1131 C 100.579 4.43436 -5.19474 0
M  V30 1132 O 100.267 4.74649 -6.48817 0
M  V30 1133 H 99.9988 0.611554 -0.288058 0
M  V30 1134 H 102.553 1.48711 -1.41683 0
M  V30 1135 H 100.783 3.84312 -0.429128 0
M  V30 1136 H 102.472 3.97384 -0.827077 0
M  V30 1137 H 103.238 3.57437 -3.27817 0
M  V30 1138 H 99.1168 4.07361 -2.15819 0
M  V30 1139 H 102.661 4.14696 -5.60957 0
M  V30 1140 H 98.5578 4.64667 -4.48056 0
M  V30 1141 H 99.3258 4.9247 -6.5377 0
M  V30 1142 N 101.989 0.842826 1.3317 0
M  V30 1143 C 103.214 0.453129 2.02389 0
M  V30 1144 C 103.639 -0.939105 1.6298 0
M  V30 1145 O 102.997 -1.61472 0.8244 0
M  V30 1146 C 103.045 0.586094 3.55805 0
M  V30 1147 O 102.149 -0.386029 4.10589 0
M  V30 1148 H 101.49 0.183664 0.638094 0
M  V30 1149 H 104.02 1.13875 1.69981 0
M  V30 1150 H 104.03 0.469209 4.05293 0
M  V30 1151 H 102.705 1.6014 3.83833 0
M  V30 1152 H 101.282 -0.226371 3.72212 0
M  V30 1153 N 103.467 -1.45747 0.599634 0
M  V30 1154 C 104.397 -2.33235 -0.111306 0
M  V30 1155 C 105.378 -1.46359 -0.866781 0
M  V30 1156 O 106.563 -1.75146 -0.838904 0
M  V30 1157 C 103.693 -3.28932 -1.11451 0
M  V30 1158 C 102.647 -4.25381 -0.472772 0
M  V30 1159 C 101.973 -5.1071 -1.58365 0
M  V30 1160 C 103.273 -5.18831 0.600948 0
M  V30 1161 H 104.967 -2.92927 0.61919 0
M  V30 1162 H 102.513 -1.40857 0.299215 0
M  V30 1163 H 104.466 -3.89002 -1.62036 0
M  V30 1164 H 103.19 -2.67381 -1.8755 0
M  V30 1165 H 101.849 -3.66598 0.0121472 0
M  V30 1166 H 101.497 -4.45533 -2.33473 0
M  V30 1167 H 101.197 -5.7604 -1.15982 0
M  V30 1168 H 102.721 -5.73647 -2.09194 0
M  V30 1169 H 104.135 -5.73019 0.179491 0
M  V30 1170 H 102.532 -5.92595 0.946076 0
M  V30 1171 H 103.602 -4.6174 1.48068 0
M  V30 1172 N 104.945 -0.338344 -1.53925 0
M  V30 1173 C 106.193 0.259245 -2.0043 0
M  V30 1174 C 106.514 1.51484 -1.22791 0
M  V30 1175 O 105.784 1.93037 -0.33368 0
M  V30 1176 H 104.364 0.0987845 -0.740439 0
M  V30 1177 H 107.026 -0.458302 -1.89435 0
M  V30 1178 H 106.122 0.505334 -3.07982 0
M  V30 1179 N 106.423 1.57458 -0.0668435 0
M  V30 1180 C 107.669 1.94401 0.598316 0
M  V30 1181 C 108.024 0.946335 1.67518 0
M  V30 1182 O 107.317 -0.0321442 1.91573 0
M  V30 1183 C 107.511 3.35784 1.22409 0
M  V30 1184 C 107.34 4.49212 0.209367 0
M  V30 1185 C 106.11 5.04887 -0.204218 0
M  V30 1186 C 108.308 5.11335 -0.551431 0
M  V30 1187 N 106.29 6.01854 -1.21016 0
M  V30 1188 C 107.661 6.03754 -1.41 0
M  V30 1189 C 109.716 4.94173 -0.608038 0
M  V30 1190 C 108.419 6.80854 -2.32013 0
M  V30 1191 C 110.445 5.71912 -1.50566 0
M  V30 1192 C 109.807 6.63976 -2.35191 0
M  V30 1193 H 105.906 0.758538 0.190114 0
M  V30 1194 H 108.49 1.94175 -0.142832 0
M  V30 1195 H 106.661 3.36757 1.93518 0
M  V30 1196 H 108.393 3.59976 1.84931 0
M  V30 1197 H 105.148 4.73266 0.177908 0
M  V30 1198 H 105.572 6.55035 -1.71049 0
M  V30 1199 H 110.214 4.22788 0.032022 0
M  V30 1200 H 107.932 7.5152 -2.97057 0
M  V30 1201 H 111.518 5.60656 -1.55423 0
M  V30 1202 H 110.398 7.2308 -3.03522 0
M  V30 1203 N 107.901 -0.206675 1.56239 0
M  V30 1204 C 108.864 -1.23976 1.92776 0
M  V30 1205 C 109.864 -1.39041 0.807729 0
M  V30 1206 O 111.054 -1.37051 1.0753 0
M  V30 1207 C 108.186 -2.61112 2.19165 0
M  V30 1208 H 109.379 -0.927764 2.85189 0
M  V30 1209 H 106.932 -0.447718 1.4975 0
M  V30 1210 H 107.667 -2.97386 1.29352 0
M  V30 1211 H 107.452 -2.51552 3.00772 0
M  V30 1212 H 108.942 -3.35633 2.48476 0
M  V30 1213 N 109.379 -1.50304 -0.473955 0
M  V30 1214 C 110.604 -1.65175 -1.25427 0
M  V30 1215 C 111.029 -0.333673 -1.85117 0
M  V30 1216 O 110.387 0.702114 -1.67153 0
M  V30 1217 C 110.435 -2.74295 -2.34082 0
M  V30 1218 O 109.539 -2.35349 -3.38651 0
M  V30 1219 H 108.88 -0.551944 -0.369126 0
M  V30 1220 H 111.41 -1.96662 -0.564364 0
M  V30 1221 H 111.42 -2.97285 -2.79438 0
M  V30 1222 H 110.095 -3.69959 -1.90008 0
M  V30 1223 H 108.672 -2.22794 -2.99027 0
M  V30 1224 N 110.857 0.726932 -1.39834 0
M  V30 1225 C 112.104 1.48664 -1.37496 0
M  V30 1226 C 112.432 1.94482 0.0264678 0
M  V30 1227 O 111.687 1.67692 1.00886 0
M  V30 1228 C 111.986 2.73495 -2.30077 0
M  V30 1229 C 111.652 2.46502 -3.77555 0
M  V30 1230 C 110.314 2.3885 -4.17737 0
M  V30 1231 C 112.666 2.23604 -4.70798 0
M  V30 1232 C 109.994 2.06352 -5.49214 0
M  V30 1233 C 112.346 1.92622 -6.02561 0
M  V30 1234 C 111.01 1.83444 -6.41798 0
M  V30 1235 H 110.28 0.544001 -0.503135 0
M  V30 1236 H 112.927 0.833657 -1.72402 0
M  V30 1237 H 111.232 3.43575 -1.88317 0
M  V30 1238 H 112.929 3.31549 -2.25558 0
M  V30 1239 H 109.519 2.5334 -3.45712 0
M  V30 1240 H 113.703 2.28479 -4.40581 0
M  V30 1241 H 108.959 1.97776 -5.78528 0
M  V30 1242 H 113.133 1.73914 -6.74334 0
M  V30 1243 H 110.76 1.58029 -7.43593 0
M  V30 1244 N 112.336 1.25143 0.95797 0
M  V30 1245 C 113.747 1.08851 1.51685 0
M  V30 1246 C 114.098 -0.33687 1.93286 0
M  V30 1247 O 113.223 -1.22644 1.7829 0
M  V30 1248 C 113.818 1.96978 2.75654 0
M  V30 1249 C 112.377 1.84881 3.27866 0
M  V30 1250 C 111.524 1.91329 2.0072 0
M  V30 1251 H 114.475 1.38478 0.77522 0
M  V30 1252 H 114.496 1.5078 3.4935 0
M  V30 1253 H 114.008 3.00712 2.45345 0
M  V30 1254 H 112.109 0.840182 3.63004 0
M  V30 1255 H 112.222 2.6951 3.96107 0
M  V30 1256 H 110.586 1.35174 2.15871 0
M  V30 1257 H 111.369 2.96661 1.72764 0
M  V30 1258 N 113.814 -1.1601 1.06675 0
M  V30 1259 C 115.23 -1.38622 0.790948 0
M  V30 1260 C 115.43 -1.92109 -0.607965 0
M  V30 1261 O 114.486 -2.12239 -1.36787 0
M  V30 1262 C 115.799 -2.36347 1.85905 0
M  V30 1263 C 117.347 -2.50023 1.88301 0
M  V30 1264 C 117.822 -3.51033 2.94176 0
M  V30 1265 N 119.313 -3.58563 2.93235 0
M  V30 1266 C 120.048 -4.36521 3.71803 0
M  V30 1267 N 119.544 -5.17869 4.602 0
M  V30 1268 N 121.337 -4.31541 3.60178 0
M  V30 1269 H 113.488 -0.796294 1.96908 0
M  V30 1270 H 115.751 -0.412597 0.853503 0
M  V30 1271 H 115.457 -2.04147 2.86386 0
M  V30 1272 H 115.331 -3.36042 1.71334 0
M  V30 1273 H 117.718 -2.81524 0.884769 0
M  V30 1274 H 117.799 -1.5035 2.06951 0
M  V30 1275 H 117.443 -3.20268 3.94196 0
M  V30 1276 H 117.373 -4.50445 2.72776 0
M  V30 1277 H 119.864 -3.00496 2.29152 0
M  V30 1278 H 120.177 -5.74578 5.16797 0
M  V30 1279 H 118.522 -5.17199 4.64253 0
M  V30 1280 H 121.713 -3.67051 2.90502 0
M  V30 1281 H 121.886 -4.9205 4.21653 0
M  V30 1282 N 115.292 -0.849877 -1.32721 0
M  V30 1283 C 116.24 -0.279745 -2.30912 0
M  V30 1284 C 117.234 0.594278 -1.58634 0
M  V30 1285 O 118.44 0.482613 -1.73409 0
M  V30 1286 H 114.815 -0.0717521 -0.748569 0
M  V30 1287 H 116.786 -1.12222 -2.76494 0
M  V30 1288 C 115.535 0.521108 -3.43773 0
M  V30 1289 H 114.858 -0.142141 -3.99547 0
M  V30 1290 H 116.298 0.885693 -4.14646 0
M  V30 1291 C 114.757 1.70442 -2.90605 0
M  V30 1292 O 115.287 2.8034 -2.87702 0
M  V30 1293 N 113.493 1.52991 -2.47067 0
M  V30 1294 H 113.04 0.635914 -2.49628 0
M  V30 1295 H 112.998 2.32311 -2.11847 0
M  V30 1296 O 116.809 1.43148 -0.747716 0
M  V30 1297 H 117.5 1.91307 -0.303544 0
M  V30 END ATOM
M  V30 BEGIN BOND
M  V30 END BOND
M  V30 END CTAB
M  END
$$$$
