drugbank_target|P24311 Cytochrome c oxidase subunit 7B, mitochondrial (DB02659; DB04464)
 OpenBabel12092120443D

  0  0  0     0  0            999 V3000
M  V30 BEGIN CTAB
M  V30 COUNTS 1294 1310 0 0 0
M  V30 BEGIN ATOM
M  V30 1 H -0.908 1.98254 -0.117106 0
M  V30 2 N 0 1.576 0 0
M  V30 3 C 0.933 2.03868 1.02534 0
M  V30 4 C 1.911 0.928543 1.3348 0
M  V30 5 O 3.095 1.19667 1.45644 0
M  V30 6 C 0.222 2.43627 2.35294 0
M  V30 7 C -0.732 3.65373 2.2001 0
M  V30 8 S 0.101 5.13292 1.52614 0
M  V30 9 C 1.257 5.56322 2.86805 0
M  V30 10 H 1.49 2.90518 0.631377 0
M  V30 11 H -0.977 1.52953 0.210867 0
M  V30 12 H 0.981 2.67203 3.11629 0
M  V30 13 H -0.358 1.57376 2.7183 0
M  V30 14 H -1.165 3.90944 3.18086 0
M  V30 15 H -1.563 3.418 1.51819 0
M  V30 16 H 0.729 5.58782 3.83104 0
M  V30 17 H 1.672 6.56266 2.65933 0
M  V30 18 H 2.08 4.83886 2.90714 0
M  V30 19 N 1.4781 -0.272755 1.55222 0
M  V30 20 C 2.7251 -1.00433 1.7584 0
M  V30 21 C 3.0531 -1.86275 0.559629 0
M  V30 22 O 2.3081 -1.90269 -0.457857 0
M  V30 23 C 2.6071 -1.91642 3.01675 0
M  V30 24 C 2.2731 -1.21548 4.34208 0
M  V30 25 C 0.9351 -1.02166 4.70229 0
M  V30 26 C 3.2871 -0.716684 5.16249 0
M  V30 27 C 0.6151 -0.316334 5.85847 0
M  V30 28 C 2.9671 -0.0249476 6.32595 0
M  V30 29 C 1.6311 0.180579 6.67256 0
M  V30 30 H 0.9011 -0.367509 0.643443 0
M  V30 31 H 3.5481 -0.276596 1.89492 0
M  V30 32 H 1.8531 -2.71037 2.82924 0
M  V30 33 H 3.5501 -2.48369 3.14824 0
M  V30 34 H 0.1401 -1.37645 4.05896 0
M  V30 35 H 4.3241 -0.854047 4.88896 0
M  V30 36 H -0.4199 -0.146378 6.11225 0
M  V30 37 H 3.7541 0.369311 6.9542 0
M  V30 38 H 1.3811 0.729098 7.56696 0
M  V30 39 N 2.9562 -1.48159 -0.537278 0
M  V30 40 C 4.3672 -1.49429 -1.11928 0
M  V30 41 C 4.7182 -0.26 -1.9447 0
M  V30 42 O 3.8432 0.633489 -2.0692 0
M  V30 43 C 4.4382 -2.70758 -2.03656 0
M  V30 44 C 2.9972 -2.74923 -2.57088 0
M  V30 45 C 2.1442 -2.42835 -1.3389 0
M  V30 46 H 5.0952 -1.55381 -0.322886 0
M  V30 47 H 5.1162 -2.48861 -2.87834 0
M  V30 48 H 4.6282 -3.60575 -1.43553 0
M  V30 49 H 2.7292 -1.89296 -3.20933 0
M  V30 50 H 2.8422 -3.76157 -2.9672 0
M  V30 51 H 1.2062 -1.93836 -1.65226 0
M  V30 52 H 1.9892 -3.34884 -0.755504 0
M  V30 53 N 4.4343 0.785586 -1.36625 0
M  V30 54 C 5.3643 1.91259 -1.33949 0
M  V30 55 C 6.3453 1.68795 -0.210325 0
M  V30 56 O 7.5303 1.89854 -0.408561 0
M  V30 57 C 4.6603 3.28339 -1.13186 0
M  V30 58 C 3.6143 3.65335 -2.22967 0
M  V30 59 C 2.9403 5.00806 -1.87342 0
M  V30 60 C 4.2403 3.7352 -3.65075 0
M  V30 61 H 5.9343 1.93755 -2.28253 0
M  V30 62 H 3.4803 0.930788 -1.09874 0
M  V30 63 H 5.4333 4.06804 -1.09948 0
M  V30 64 H 4.1573 3.2624 -0.153332 0
M  V30 65 H 2.8163 2.89169 -2.25337 0
M  V30 66 H 2.4643 4.95233 -0.880545 0
M  V30 67 H 2.1643 5.26529 -2.60846 0
M  V30 68 H 3.6883 5.81687 -1.85667 0
M  V30 69 H 5.1023 4.42168 -3.64911 0
M  V30 70 H 3.4993 4.10731 -4.37516 0
M  V30 71 H 4.5693 2.74527 -3.99703 0
M  V30 72 N 5.9124 1.20967 1.01018 0
M  V30 73 C 7.1584 1.02526 1.74975 0
M  V30 74 C 7.4914 -0.4408 1.89131 0
M  V30 75 O 6.7664 -1.32718 1.42184 0
M  V30 76 C 7.0494 1.71699 3.1653 0
M  V30 77 C 6.9024 3.25791 3.10129 0
M  V30 78 C 8.2214 1.45531 4.15342 0
M  V30 79 H 5.3404 0.373863 0.635134 0
M  V30 80 H 7.9824 1.49071 1.17805 0
M  V30 81 H 6.1324 1.32128 3.65341 0
M  V30 82 H 7.8044 3.74697 2.69072 0
M  V30 83 H 6.0474 3.56363 2.47362 0
M  V30 84 H 6.7184 3.69353 4.10222 0
M  V30 85 H 9.1944 1.79872 3.75213 0
M  V30 86 H 8.0704 1.96453 5.1254 0
M  V30 87 H 8.3314 0.384237 4.40427 0
M  V30 88 N 7.3905 -1.2043 1.01659 0
M  V30 89 C 8.3375 -2.23215 0.586822 0
M  V30 90 C 9.3075 -1.61382 -0.393085 0
M  V30 91 O 10.4925 -1.88544 -0.292525 0
M  V30 92 C 7.6325 -3.45032 -0.0687464 0
M  V30 93 C 6.7455 -4.21296 0.955724 0
M  V30 94 C 5.8805 -5.30507 0.271208 0
M  V30 95 C 4.9195 -5.98515 1.28244 0
M  V30 96 N 4.0565 -6.99316 0.62459 0
M  V30 97 H 8.8965 -2.59336 1.46796 0
M  V30 98 H 6.4335 -1.27431 0.734836 0
M  V30 99 H 8.3915 -4.1459 -0.465965 0
M  V30 100 H 7.0215 -3.09604 -0.913529 0
M  V30 101 H 6.0735 -3.50803 1.4711 0
M  V30 102 H 7.3855 -4.6803 1.72479 0
M  V30 103 H 6.5395 -6.06428 -0.18151 0
M  V30 104 H 5.2785 -4.8481 -0.530163 0
M  V30 105 H 4.2835 -5.21355 1.74554 0
M  V30 106 H 5.5085 -6.46298 2.08509 0
M  V30 107 H 3.4545 -6.55812 -0.156914 0
M  V30 108 H 3.3715 -7.44178 1.33172 0
M  V30 109 H 4.6395 -7.79255 0.195462 0
M  V30 110 N 8.8686 -0.792821 -1.36206 0
M  V30 111 C 10.0936 -0.377701 -2.03932 0
M  V30 112 C 10.5186 0.998947 -1.59382 0
M  V30 113 O 9.8766 1.64421 -0.763903 0
M  V30 114 C 9.9246 -0.453635 -3.57735 0
M  V30 115 O 9.0286 0.538151 -4.08874 0
M  V30 116 H 8.3696 -0.159855 -0.644471 0
M  V30 117 H 10.8996 -1.07488 -1.7409 0
M  V30 118 H 10.9096 -0.318464 -4.06755 0
M  V30 119 H 9.5846 -1.45784 -3.89512 0
M  V30 120 H 8.1616 0.364359 -3.71116 0
M  V30 121 N 10.3467 1.47872 -0.545128 0
M  V30 122 C 11.3097 2.28337 0.198717 0
M  V30 123 C 12.3097 1.36255 0.853888 0
M  V30 124 O 13.4997 1.59003 0.711606 0
M  V30 125 C 10.6317 3.15585 1.28915 0
M  V30 126 H 11.8247 2.95567 -0.507941 0
M  V30 127 H 9.3777 1.53362 -0.301616 0
M  V30 128 H 10.1127 2.53019 2.02859 0
M  V30 129 H 9.8977 3.83337 0.824309 0
M  V30 130 H 11.3877 3.76243 1.81194 0
M  V30 131 N 11.8248 0.280983 1.55075 0
M  V30 132 C 12.7548 -0.597469 2.25727 0
M  V30 133 C 13.7358 -1.15417 1.24952 0
M  V30 134 O 14.9208 -1.18722 1.53684 0
M  V30 135 C 12.0508 -1.7789 2.98283 0
M  V30 136 C 11.0048 -1.35347 4.06036 0
M  V30 137 C 10.3308 -2.61846 4.66198 0
M  V30 138 C 11.6308 -0.499354 5.19907 0
M  V30 139 H 13.3248 -0.00824265 2.99399 0
M  V30 140 H 10.8708 -0.0025244 1.44 0
M  V30 141 H 12.8238 -2.39937 3.46422 0
M  V30 142 H 11.5478 -2.39405 2.22155 0
M  V30 143 H 10.2068 -0.756156 3.58717 0
M  V30 144 H 9.8548 -3.21632 3.86732 0
M  V30 145 H 9.5548 -2.3409 5.38958 0
M  V30 146 H 11.0788 -3.24732 5.1709 0
M  V30 147 H 12.4928 -1.02498 5.64063 0
M  V30 148 H 10.8898 -0.316424 5.99265 0
M  V30 149 H 11.9598 0.480459 4.82514 0
M  V30 150 N 13.3029 -1.57598 0.00835791 0
M  V30 151 C 14.2509 -2.10078 -0.998508 0
M  V30 152 C 15.2449 -1.02262 -1.35051 0
M  V30 153 O 16.4509 -1.20719 -1.33518 0
M  V30 154 H 12.8259 -0.670903 -0.339696 0
M  V30 155 H 14.7969 -2.93648 -0.530398 0
M  V30 156 C 13.5459 -2.62615 -2.27879 0
M  V30 157 H 12.8689 -3.45213 -2.01662 0
M  V30 158 H 14.3089 -3.03004 -2.96588 0
M  V30 159 C 12.7679 -1.54407 -2.99433 0
M  V30 160 O 13.2979 -0.931812 -3.90743 0
M  V30 161 N 11.5039 -1.2695 -2.61404 0
M  V30 162 H 11.0509 -1.76924 -1.87232 0
M  V30 163 H 11.0089 -0.547704 -3.09593 0
M  V30 164 N 14.781 0.264519 -1.55364 0
M  V30 165 C 16.197 0.61215 -1.47394 0
M  V30 166 C 16.397 1.89134 -0.695018 0
M  V30 167 O 15.453 2.51563 -0.217275 0
M  V30 168 C 16.766 0.731235 -2.91674 0
M  V30 169 C 18.314 0.82473 -3.01939 0
M  V30 170 C 18.789 0.975522 -4.4749 0
M  V30 171 N 20.28 1.04083 -4.51354 0
M  V30 172 C 21.015 1.17646 -5.61201 0
M  V30 173 N 20.511 1.27874 -6.80896 0
M  V30 174 N 22.304 1.20823 -5.48961 0
M  V30 175 H 14.455 -0.575456 -2.04456 0
M  V30 176 H 16.718 -0.196099 -0.927496 0
M  V30 177 H 16.424 -0.138392 -3.51428 0
M  V30 178 H 16.298 1.60883 -3.41169 0
M  V30 179 H 18.685 1.68482 -2.42276 0
M  V30 180 H 18.766 -0.0776479 -2.55682 0
M  V30 181 H 18.41 0.120058 -5.07758 0
M  V30 182 H 18.34 1.89268 -4.91412 0
M  V30 183 H 20.831 0.973846 -3.65136 0
M  V30 184 H 21.144 1.38081 -7.60364 0
M  V30 185 H 19.489 1.24863 -6.83692 0
M  V30 186 H 22.68 1.12469 -4.54388 0
M  V30 187 H 22.853 1.31049 -6.3461 0
M  V30 188 N 16.2591 1.48442 0.529413 0
M  V30 189 C 17.1891 1.65902 1.64313 0
M  V30 190 C 18.1701 0.507897 1.6234 0
M  V30 191 O 19.3551 0.740503 1.79528 0
M  V30 192 C 16.4851 1.69911 3.02898 0
M  V30 193 C 15.4391 2.8453 3.19729 0
M  V30 194 C 14.7651 2.73629 4.59381 0
M  V30 195 C 16.0651 4.25821 3.02447 0
M  V30 196 H 17.7591 2.5914 1.49955 0
M  V30 197 H 15.3051 1.24709 0.719982 0
M  V30 198 H 17.2581 1.80715 3.80684 0
M  V30 199 H 15.9821 0.732524 3.18279 0
M  V30 200 H 14.6411 2.73283 2.44361 0
M  V30 201 H 14.2891 1.74938 4.71599 0
M  V30 202 H 13.9891 3.50541 4.71588 0
M  V30 203 H 15.5131 2.86401 5.39265 0
M  V30 204 H 16.9271 4.37898 3.70024 0
M  V30 205 H 15.3241 5.03735 3.26146 0
M  V30 206 H 16.3941 4.42244 1.98867 0
M  V30 207 N 17.7372 -0.778329 1.37039 0
M  V30 208 C 18.6692 -1.90034 1.2814 0
M  V30 209 C 19.6822 -1.61585 0.198558 0
M  V30 210 O 20.8712 -1.72625 0.454175 0
M  V30 211 C 17.9712 -3.25108 0.956968 0
M  V30 212 C 17.1442 -3.81253 2.14394 0
M  V30 213 C 16.2032 -4.94789 1.79082 0
M  V30 214 O 15.2292 -5.10721 2.51301 0
M  V30 215 N 16.4312 -5.75878 0.731043 0
M  V30 216 H 19.1962 -1.98186 2.24816 0
M  V30 217 H 16.7572 -0.957129 1.30578 0
M  V30 218 H 18.7492 -3.9857 0.701701 0
M  V30 219 H 17.3192 -3.125 0.0789812 0
M  V30 220 H 16.5392 -2.99647 2.56135 0
M  V30 221 H 17.8272 -4.15495 2.93668 0
M  V30 222 H 17.2252 -5.65547 0.131618 0
M  V30 223 H 15.7822 -6.49596 0.535622 0
M  V30 224 N 19.2153 -1.21501 -1.00376 0
M  V30 225 C 20.4613 -1.03452 -1.74429 0
M  V30 226 C 20.7943 0.430764 -1.89362 0
M  V30 227 O 20.0693 1.31962 -1.42886 0
M  V30 228 C 20.3523 -1.73375 -3.15615 0
M  V30 229 C 20.2053 -3.27431 -3.08397 0
M  V30 230 C 21.5243 -1.47732 -4.14564 0
M  V30 231 H 18.6433 -0.377226 -0.633143 0
M  V30 232 H 21.2853 -1.49693 -1.17013 0
M  V30 233 H 19.4353 -1.34064 -3.64636 0
M  V30 234 H 21.1073 -3.76119 -2.67081 0
M  V30 235 H 19.3503 -3.5767 -2.45468 0
M  V30 236 H 20.0213 -3.71524 -4.08258 0
M  V30 237 H 22.4973 -1.8186 -3.74254 0
M  V30 238 H 21.3733 -1.99169 -5.11491 0
M  V30 239 H 21.6343 -0.407589 -4.40217 0
M  V30 240 N 20.6934 1.19889 -1.02296 0
M  V30 241 C 22.1094 1.41462 -0.738954 0
M  V30 242 C 22.3094 1.89721 0.678846 0
M  V30 243 O 21.3654 2.07016 1.4457 0
M  V30 244 C 22.6784 2.43083 -1.77005 0
M  V30 245 C 24.2264 2.5684 -1.78892 0
M  V30 246 C 24.7014 3.61709 -2.80945 0
M  V30 247 N 26.1924 3.69199 -2.79725 0
M  V30 248 C 26.9274 4.50019 -3.55345 0
M  V30 249 N 26.4234 5.34592 -4.40662 0
M  V30 250 N 28.2164 4.44612 -3.43914 0
M  V30 251 H 20.3674 0.868827 -1.93817 0
M  V30 252 H 22.6304 0.44399 -0.837602 0
M  V30 253 H 22.3364 2.14636 -2.78612 0
M  V30 254 H 22.2104 3.4217 -1.58744 0
M  V30 255 H 24.5974 2.84614 -0.779674 0
M  V30 256 H 24.6784 1.57927 -2.01228 0
M  V30 257 H 24.3224 3.34678 -3.82038 0
M  V30 258 H 24.2524 4.60259 -2.5587 0
M  V30 259 H 26.7434 3.08794 -2.17842 0
M  V30 260 H 27.0564 5.93363 -4.95116 0
M  V30 261 H 25.4014 5.34073 -4.44737 0
M  V30 262 H 28.5924 3.7758 -2.76679 0
M  V30 263 H 28.7654 5.0736 -4.031 0
M  V30 264 N 22.1715 0.800033 1.35784 0
M  V30 265 C 23.3965 0.388511 2.03729 0
M  V30 266 C 23.8215 -0.990481 1.5991 0
M  V30 267 O 23.1795 -1.64013 0.772612 0
M  V30 268 C 23.2275 0.4726 3.5749 0
M  V30 269 O 22.3315 -0.51646 4.09153 0
M  V30 270 H 21.6725 0.163271 0.643614 0
M  V30 271 H 24.2025 1.0841 1.73518 0
M  V30 272 H 24.2125 0.34003 4.06581 0
M  V30 273 H 22.8875 1.47848 3.88734 0
M  V30 274 H 21.4645 -0.344673 3.71304 0
M  V30 275 N 23.6496 -1.47581 0.552962 0
M  V30 276 C 24.8986 -2.01684 0.0251995 0
M  V30 277 C 25.2116 -1.43317 -1.33115 0
M  V30 278 O 26.4176 -1.89057 -1.94858 0
M  V30 279 C 24.8736 -3.599 -0.00542052 0
M  V30 280 C 24.4816 -4.27257 1.34742 0
M  V30 281 C 26.2256 -4.21768 -0.4808 0
M  V30 282 C 24.1326 -5.77467 1.27614 0
M  V30 283 H 23.0626 -0.753979 0.00565033 0
M  V30 284 H 25.7136 -1.69616 0.70018 0
M  V30 285 H 24.0956 -3.88911 -0.745961 0
M  V30 286 H 25.2696 -4.09893 2.10534 0
M  V30 287 H 23.5846 -3.77358 1.76039 0
M  V30 288 H 26.1816 -5.31838 -0.55246 0
M  V30 289 H 26.5246 -3.88651 -1.49184 0
M  V30 290 H 27.0576 -3.97273 0.204752 0
M  V30 291 H 23.7966 -6.15196 2.26304 0
M  V30 292 H 23.3166 -5.9718 0.55996 0
M  V30 293 H 24.9956 -6.3959 0.976421 0
M  V30 294 N 25.1277 -0.289203 -1.54924 0
M  V30 295 C 26.0597 0.625583 -2.20497 0
M  V30 296 C 27.0727 1.10667 -1.19402 0
M  V30 297 O 28.2617 1.02615 -1.46056 0
M  V30 298 C 25.3617 1.86702 -2.82835 0
M  V30 299 C 24.5347 1.5304 -4.09753 0
M  V30 300 C 23.5937 2.62576 -4.56005 0
M  V30 301 O 22.6197 2.28167 -5.21468 0
M  V30 302 N 23.8217 3.92901 -4.27328 0
M  V30 303 H 26.5867 0.0642801 -2.99631 0
M  V30 304 H 24.1477 -0.110896 -1.6152 0
M  V30 305 H 26.1397 2.59304 -3.10715 0
M  V30 306 H 24.7097 2.33702 -2.07611 0
M  V30 307 H 23.9297 0.637564 -3.8901 0
M  V30 308 H 25.2177 1.28072 -4.92418 0
M  V30 309 H 24.6157 4.23671 -3.74859 0
M  V30 310 H 23.1727 4.61837 -4.59946 0
M  V30 311 N 26.6058 1.57591 -0.0167156 0
M  V30 312 C 27.5378 2.06343 0.997753 0
M  V30 313 C 28.5508 0.984469 1.29661 0
M  V30 314 O 29.7398 1.26093 1.26344 0
M  V30 315 C 26.8398 2.46255 2.32834 0
M  V30 316 C 26.0128 3.77083 2.21646 0
M  V30 317 C 25.0718 4.0368 3.37534 0
M  V30 318 O 24.0978 4.7411 3.14973 0
M  V30 319 N 25.2998 3.52881 4.60929 0
M  V30 320 H 28.0648 2.93997 0.581875 0
M  V30 321 H 25.6258 1.61002 0.170316 0
M  V30 322 H 27.6178 2.61149 3.09166 0
M  V30 323 H 26.1878 1.64032 2.66106 0
M  V30 324 H 25.4078 3.72106 1.30119 0
M  V30 325 H 26.6958 4.62822 2.11361 0
M  V30 326 H 26.0938 2.95878 4.82154 0
M  V30 327 H 24.6508 3.73076 5.34469 0
M  V30 328 N 28.0839 -0.256276 1.55502 0
M  V30 329 C 29.3119 -1.00342 1.8094 0
M  V30 330 C 29.7269 -1.79307 0.59114 0
M  V30 331 O 29.0839 -1.77114 -0.440081 0
M  V30 332 C 29.1349 -1.94875 3.04476 0
M  V30 333 O 28.8559 -1.19107 4.21598 0
M  V30 334 C 30.3569 -2.81266 3.42644 0
M  V30 335 H 27.5769 -0.295685 0.602338 0
M  V30 336 H 30.1209 -0.281998 2.02546 0
M  V30 337 H 28.2759 -2.62457 2.84947 0
M  V30 338 H 28.6899 -1.82969 4.91551 0
M  V30 339 H 30.1639 -3.43362 4.32211 0
M  V30 340 H 30.6409 -3.51897 2.62802 0
M  V30 341 H 31.2469 -2.1915 3.64491 0
M  V30 342 N 29.562 -1.4872 -0.521534 0
M  V30 343 C 30.495 -1.58451 -1.64221 0
M  V30 344 C 31.473 -0.434513 -1.56687 0
M  V30 345 O 32.657 -0.647275 -1.77038 0
M  V30 346 C 29.784 -1.52037 -3.02659 0
M  V30 347 C 28.83 -2.71981 -3.28525 0
M  V30 348 S 29.663 -4.33869 -3.13876 0
M  V30 349 C 30.819 -4.30067 -4.54745 0
M  V30 350 H 31.052 -2.53256 -1.55719 0
M  V30 351 H 28.585 -1.37358 -0.705143 0
M  V30 352 H 30.543 -1.49023 -3.82495 0
M  V30 353 H 29.204 -0.585541 -3.08594 0
M  V30 354 H 28.397 -2.63656 -4.29536 0
M  V30 355 H 27.999 -2.72302 -2.56374 0
M  V30 356 H 30.291 -4.00521 -5.46433 0
M  V30 357 H 31.234 -5.31287 -4.68123 0
M  V30 358 H 31.642 -3.60419 -4.34463 0
M  V30 359 N 31.0401 0.771051 -1.3745 0
M  V30 360 C 32.0031 1.86598 -1.33093 0
M  V30 361 C 33.0031 1.59076 -0.234845 0
M  V30 362 O 34.1931 1.67145 -0.490732 0
M  V30 363 C 31.3251 3.23747 -1.06773 0
M  V30 364 H 32.5181 1.91873 -2.30488 0
M  V30 365 H 30.0711 0.970876 -1.2249 0
M  V30 366 H 30.8061 3.24148 -0.099129 0
M  V30 367 H 30.5911 3.45115 -1.86112 0
M  V30 368 H 32.0811 4.03824 -1.06377 0
M  V30 369 N 32.5182 1.22032 0.997298 0
M  V30 370 C 33.9342 0.979326 1.26021 0
M  V30 371 C 34.1342 -0.32972 1.98784 0
M  V30 372 O 33.1902 -1.05345 2.29475 0
M  V30 373 C 34.5032 2.17509 2.07631 0
M  V30 374 C 36.0512 2.21817 2.2083 0
M  V30 375 C 36.5262 3.40933 3.05825 0
M  V30 376 N 38.0172 3.41067 3.13412 0
M  V30 377 C 38.7522 4.29885 3.79455 0
M  V30 378 N 38.2482 5.28914 4.47462 0
M  V30 379 N 40.0412 4.17673 3.76173 0
M  V30 380 H 32.1922 2.06202 0.509352 0
M  V30 381 H 34.4552 0.90334 0.287541 0
M  V30 382 H 34.1612 3.12415 1.61524 0
M  V30 383 H 34.0352 2.17206 3.08385 0
M  V30 384 H 36.4222 1.27462 2.66153 0
M  V30 385 H 36.5032 2.2616 1.1952 0
M  V30 386 H 36.1472 4.35586 2.61203 0
M  V30 387 H 36.0772 3.33829 4.07266 0
M  V30 388 H 38.5682 2.69406 2.65007 0
M  V30 389 H 38.8812 5.92973 4.95583 0
M  V30 390 H 37.2262 5.32831 4.46224 0
M  V30 391 H 40.4172 3.39564 3.22202 0
M  V30 392 H 40.5902 4.87098 4.27363 0
M  V30 393 N 33.9963 -1.19345 1.0293 0
M  V30 394 C 34.9283 -2.22036 0.56857 0
M  V30 395 C 35.9413 -1.58865 -0.355779 0
M  V30 396 O 37.1303 -1.77851 -0.152103 0
M  V30 397 C 34.2303 -3.38363 -0.190752 0
M  V30 398 C 33.4033 -4.31118 0.738643 0
M  V30 399 C 32.4623 -5.26194 0.0246497 0
M  V30 400 O 31.4883 -5.65461 0.651354 0
M  V30 401 N 32.6903 -5.66971 -1.24594 0
M  V30 402 H 35.4553 -2.6219 1.45177 0
M  V30 403 H 33.0163 -1.34015 0.908381 0
M  V30 404 H 35.0083 -3.98981 -0.677961 0
M  V30 405 H 33.5783 -2.96994 -0.975366 0
M  V30 406 H 32.7983 -3.68276 1.40593 0
M  V30 407 H 34.0863 -4.90001 1.37029 0
M  V30 408 H 33.4843 -5.37104 -1.77583 0
M  V30 409 H 32.0413 -6.2984 -1.67764 0
M  V30 410 N 35.4744 -0.807222 -1.35358 0
M  V30 411 C 36.6994 -0.399309 -2.0352 0
M  V30 412 C 37.1244 0.981986 -1.60433 0
M  V30 413 O 36.4824 1.63601 -0.781299 0
M  V30 414 C 36.5304 -0.491552 -3.57234 0
M  V30 415 O 35.6344 0.494754 -4.09421 0
M  V30 416 H 34.9754 -0.166682 -0.642739 0
M  V30 417 H 37.5054 -1.09328 -1.72941 0
M  V30 418 H 37.5154 -0.361588 -4.06395 0
M  V30 419 H 36.1904 -1.49907 -3.87944 0
M  V30 420 H 34.7674 0.324977 -3.71481 0
M  V30 421 N 36.9525 1.47285 -0.560781 0
M  V30 422 C 37.9025 2.27073 0.205384 0
M  V30 423 C 38.8865 1.34569 0.882044 0
M  V30 424 O 40.0785 1.58899 0.77976 0
M  V30 425 C 37.2075 3.20414 1.23247 0
M  V30 426 C 36.2935 4.20399 0.559041 0
M  V30 427 N 36.6845 5.04423 -0.372927 0
M  V30 428 C 34.9825 4.38536 0.812522 0
M  V30 429 C 35.6835 5.76655 -0.764446 0
M  V30 430 N 34.6595 5.43471 -0.11848 0
M  V30 431 H 38.4615 2.89422 -0.511117 0
M  V30 432 H 35.9755 1.57868 -0.380975 0
M  V30 433 H 37.9725 3.76262 1.79534 0
M  V30 434 H 36.6325 2.59623 1.95002 0
M  V30 435 H 37.6435 5.1248 -0.747287 0
M  V30 436 H 34.3205 3.88913 1.51832 0
M  V30 437 H 35.7105 6.54238 -1.53045 0
M  V30 438 N 38.4306 0.297415 1.54768 0
M  V30 439 C 39.3626 -0.613881 2.20826 0
M  V30 440 C 40.3756 -1.10032 1.19987 0
M  V30 441 O 41.5646 -1.01839 1.46598 0
M  V30 442 C 38.6646 -1.852 2.83821 0
M  V30 443 C 37.8376 -1.50865 4.10559 0
M  V30 444 C 36.8966 -2.60154 4.57391 0
M  V30 445 O 35.9226 -2.25398 5.2267 0
M  V30 446 N 37.1246 -3.90629 4.29406 0
M  V30 447 H 39.8896 -0.048389 2.99661 0
M  V30 448 H 37.4506 0.11946 1.61459 0
M  V30 449 H 39.4426 -2.57652 3.12086 0
M  V30 450 H 38.0126 -2.32597 2.08847 0
M  V30 451 H 37.2326 -0.616925 3.89343 0
M  V30 452 H 38.5206 -1.25458 4.9309 0
M  V30 453 H 37.9186 -4.21677 3.77101 0
M  V30 454 H 36.4756 -4.59391 4.62388 0
M  V30 455 N 39.9087 -1.5758 0.0250728 0
M  V30 456 C 40.8557 -2.09973 -0.958129 0
M  V30 457 C 41.8257 -1.00085 -1.3256 0
M  V30 458 O 43.0107 -1.27481 -1.41962 0
M  V30 459 C 40.1507 -2.62812 -2.2366 0
M  V30 460 C 39.2637 -3.86693 -1.92594 0
M  V30 461 C 38.3987 -4.27941 -3.14707 0
M  V30 462 C 37.4377 -5.44591 -2.79442 0
M  V30 463 N 36.5747 -5.81014 -3.94167 0
M  V30 464 H 41.4147 -2.937 -0.504428 0
M  V30 465 H 38.9517 -1.45172 -0.237392 0
M  V30 466 H 40.9097 -2.91536 -2.98434 0
M  V30 467 H 39.5397 -1.81922 -2.66654 0
M  V30 468 H 38.5917 -3.64723 -1.0808 0
M  V30 469 H 39.9037 -4.71547 -1.62619 0
M  V30 470 H 39.0577 -4.58079 -3.97804 0
M  V30 471 H 37.7967 -3.41845 -3.4784 0
M  V30 472 H 36.8017 -5.1415 -1.94755 0
M  V30 473 H 38.0267 -6.32382 -2.47528 0
M  V30 474 H 35.9727 -4.97874 -4.2715 0
M  V30 475 H 35.8897 -6.60498 -3.67801 0
M  V30 476 H 37.1577 -6.15756 -4.7798 0
M  V30 477 N 41.3868 0.248026 -1.55636 0
M  V30 478 C 42.8028 0.596483 -1.48035 0
M  V30 479 C 43.0028 1.88386 -0.715039 0
M  V30 480 O 42.0588 2.51319 -0.243944 0
M  V30 481 C 43.3718 0.700258 -2.92433 0
M  V30 482 C 44.9198 0.792659 -3.02797 0
M  V30 483 C 45.3948 0.928005 -4.485 0
M  V30 484 N 46.8858 0.992903 -4.52433 0
M  V30 485 C 47.6208 1.11687 -5.62418 0
M  V30 486 N 47.1168 1.20645 -6.82214 0
M  V30 487 N 48.9098 1.14994 -5.50212 0
M  V30 488 H 41.0608 -0.597109 -2.03834 0
M  V30 489 H 43.3238 -0.205925 -0.925364 0
M  V30 490 H 43.0298 -0.175658 -3.51261 0
M  V30 491 H 42.9038 1.57255 -3.42857 0
M  V30 492 H 45.2908 1.65903 -2.4405 0
M  V30 493 H 45.3718 -0.104762 -2.55585 0
M  V30 494 H 45.0158 0.0661971 -5.07857 0
M  V30 495 H 44.9458 1.84045 -4.93391 0
M  V30 496 H 47.4368 0.935064 -3.66149 0
M  V30 497 H 47.7498 1.30008 -7.61786 0
M  V30 498 H 46.0948 1.17605 -6.84977 0
M  V30 499 H 49.2858 1.07643 -4.55555 0
M  V30 500 H 49.4588 1.24311 -6.35965 0
M  V30 501 N 42.8649 1.48995 0.513639 0
M  V30 502 C 44.0929 1.61531 1.29288 0
M  V30 503 C 44.5079 0.281801 1.86685 0
M  V30 504 O 43.8649 -0.731111 1.67215 0
M  V30 505 C 43.9159 2.67449 2.43215 0
M  V30 506 O 43.6369 3.95626 1.88179 0
M  V30 507 C 45.1379 2.90575 3.34785 0
M  V30 508 H 42.3579 0.544165 0.392588 0
M  V30 509 H 44.9019 1.9494 0.617956 0
M  V30 510 H 43.0569 2.36853 3.0656 0
M  V30 511 H 43.4709 4.53868 2.62876 0
M  V30 512 H 44.9449 3.68449 4.11035 0
M  V30 513 H 45.4219 2.00011 3.91015 0
M  V30 514 H 46.0279 3.22538 2.77218 0
M  V30 515 N 44.343 -0.763751 1.37857 0
M  V30 516 C 45.754 -1.3405 1.29952 0
M  V30 517 C 46.105 -1.96138 -0.0492898 0
M  V30 518 O 45.23 -1.94372 -0.951239 0
M  V30 519 C 45.825 -2.43729 2.35333 0
M  V30 520 C 44.384 -2.97151 2.31037 0
M  V30 521 C 43.531 -1.70438 2.18738 0
M  V30 522 H 46.482 -0.563396 1.48363 0
M  V30 523 H 46.503 -3.23412 2.00462 0
M  V30 524 H 46.015 -1.9851 3.33489 0
M  V30 525 H 44.116 -3.46724 1.3643 0
M  V30 526 H 44.229 -3.52221 3.24772 0
M  V30 527 H 42.593 -1.93673 1.65418 0
M  V30 528 H 43.376 -1.27312 3.18821 0
M  V30 529 N 45.8211 -1.22559 -0.990812 0
M  V30 530 C 47.0981 -0.959875 -1.70428 0
M  V30 531 C 47.4781 0.524455 -2.04481 0
M  V30 532 O 46.8261 1.49302 -1.72977 0
M  V30 533 C 47.0361 -1.85955 -2.95333 0
M  V30 534 C 48.3841 -2.11687 -3.68068 0
M  V30 535 O 49.4081 -1.8342 -3.05345 0
M  V30 536 O 48.2671 -2.59572 -4.80921 0
M  V30 537 H 45.3611 -0.361154 -0.743974 0
M  V30 538 H 47.9071 -1.33554 -1.04697 0
M  V30 539 H 46.6791 -2.86346 -2.66687 0
M  V30 540 H 46.3021 -1.4856 -3.68803 0
M  V30 541 N 47.2992 1.18797 -1.03562 0
M  V30 542 C 48.5462 1.8865 -0.736023 0
M  V30 543 C 48.8742 1.80041 0.735889 0
M  V30 544 O 48.1292 1.19179 1.55225 0
M  V30 545 C 48.4282 3.38692 -1.14117 0
M  V30 546 C 48.0942 3.67504 -2.6125 0
M  V30 547 C 46.7562 3.75078 -3.01447 0
M  V30 548 C 49.1082 3.80293 -3.56408 0
M  V30 549 C 46.4362 3.92915 -4.35701 0
M  V30 550 C 48.7882 3.99645 -4.90374 0
M  V30 551 C 47.4522 4.05453 -5.30249 0
M  V30 552 H 46.7222 0.690321 -0.26933 0
M  V30 553 H 49.3692 1.40641 -1.29971 0
M  V30 554 H 47.6742 3.88645 -0.496202 0
M  V30 555 H 49.3712 3.91072 -0.886789 0
M  V30 556 H 45.9612 3.62223 -2.29113 0
M  V30 557 H 50.1452 3.73779 -3.26501 0
M  V30 558 H 45.4012 3.95653 -4.66121 0
M  V30 559 H 49.5752 4.08482 -5.64017 0
M  V30 560 H 47.2022 4.19027 -6.34288 0
M  V30 561 N 48.7773 0.814389 1.34928 0
M  V30 562 C 49.7273 0.202752 2.27097 0
M  V30 563 C 50.7113 -0.62799 1.48139 0
M  V30 564 O 51.9033 -0.483969 1.70255 0
M  V30 565 C 49.0323 -0.64146 3.37254 0
M  V30 566 C 48.1183 0.19944 4.23631 0
M  V30 567 N 48.5093 1.26628 4.89693 0
M  V30 568 C 46.8073 -0.0176433 4.45997 0
M  V30 569 C 47.5083 1.78031 5.53787 0
M  V30 570 N 46.4843 1.08553 5.32651 0
M  V30 571 H 50.2863 1.01893 2.75672 0
M  V30 572 H 47.8003 0.656332 1.48546 0
M  V30 573 H 49.7973 -1.09575 4.02243 0
M  V30 574 H 48.4573 -1.4559 2.9023 0
M  V30 575 H 49.4683 1.64901 4.90946 0
M  V30 576 H 46.1453 -0.800601 4.09752 0
M  V30 577 H 47.5353 2.67236 6.16469 0
M  V30 578 N 50.2554 -1.46986 0.568584 0
M  V30 579 C 51.5324 -1.95592 -0.0174074 0
M  V30 580 C 51.9124 -1.51124 -1.47393 0
M  V30 581 O 51.2604 -0.755329 -2.15655 0
M  V30 582 C 51.4704 -3.48719 0.139913 0
M  V30 583 C 52.8184 -4.246 0.000426376 0
M  V30 584 O 53.8424 -3.56135 0.0680316 0
M  V30 585 O 52.7014 -5.46302 -0.146988 0
M  V30 586 H 49.7954 -0.82498 -0.0577599 0
M  V30 587 H 52.3414 -1.57335 0.635909 0
M  V30 588 H 51.1134 -3.73927 1.15301 0
M  V30 589 H 50.7364 -3.93771 -0.550491 0
M  V30 590 N 51.7335 -0.305618 -1.54608 0
M  V30 591 C 52.6805 0.568421 -2.23691 0
M  V30 592 C 53.6505 1.12592 -1.22116 0
M  V30 593 O 54.8355 1.16959 -1.50749 0
M  V30 594 C 51.9755 1.7322 -2.98477 0
M  V30 595 C 51.0885 1.20566 -4.14835 0
M  V30 596 C 50.2235 2.33368 -4.77193 0
M  V30 597 C 49.2625 1.7787 -5.85686 0
M  V30 598 N 48.3995 2.84263 -6.4198 0
M  V30 599 H 53.2395 -0.0272867 -2.97988 0
M  V30 600 H 50.7765 -0.0252363 -1.47078 0
M  V30 601 H 52.7345 2.41675 -3.40072 0
M  V30 602 H 51.3645 2.29947 -2.26548 0
M  V30 603 H 50.4165 0.413223 -3.78149 0
M  V30 604 H 51.7285 0.759417 -4.92985 0
M  V30 605 H 50.8825 3.09761 -5.21664 0
M  V30 606 H 49.6215 2.8132 -3.98385 0
M  V30 607 H 48.6265 0.99968 -5.40635 0
M  V30 608 H 49.8515 1.30816 -6.66381 0
M  V30 609 H 47.7975 3.31541 -5.66053 0
M  V30 610 H 47.7145 2.44149 -7.15491 0
M  V30 611 H 48.9825 3.6054 -6.91109 0
M  V30 612 N 53.2116 1.57565 -0.0334293 0
M  V30 613 C 54.4416 1.95996 0.653398 0
M  V30 614 C 54.8496 0.908749 1.65947 0
M  V30 615 O 54.1926 -0.117471 1.83324 0
M  V30 616 C 54.2546 3.30589 1.41249 0
M  V30 617 C 53.9186 4.53503 0.564263 0
M  V30 618 C 54.9156 5.19647 -0.16225 0
M  V30 619 C 52.6006 4.99801 0.500398 0
M  V30 620 C 54.5946 6.30412 -0.941255 0
M  V30 621 C 52.2816 6.10448 -0.282308 0
M  V30 622 C 53.2796 6.75612 -1.00184 0
M  V30 623 O 52.9676 7.84134 -1.77171 0
M  V30 624 H 52.6996 0.65027 0.184728 0
M  V30 625 H 55.2536 2.05199 -0.0907841 0
M  V30 626 H 53.4836 3.17888 2.20191 0
M  V30 627 H 55.1726 3.53892 1.98784 0
M  V30 628 H 55.9386 4.84846 -0.12227 0
M  V30 629 H 51.8176 4.48883 1.05002 0
M  V30 630 H 55.3616 6.81208 -1.50339 0
M  V30 631 H 51.2586 6.44686 -0.323989 0
M  V30 632 H 52.0266 8.00822 -1.69194 0
M  V30 633 N 54.6897 -0.239769 1.55765 0
M  V30 634 C 55.9377 -0.964892 1.77579 0
M  V30 635 C 56.2587 -1.85582 0.598699 0
M  V30 636 O 55.5287 -1.92075 -0.385226 0
M  V30 637 H 54.1087 -0.359265 0.654933 0
M  V30 638 H 56.7707 -0.256001 1.93211 0
M  V30 639 H 55.8667 -1.58243 2.69009 0
M  V30 640 N 56.1678 -1.49265 -0.50573 0
M  V30 641 C 57.1158 -1.66065 -1.62866 0
M  V30 642 C 58.1098 -0.526636 -1.61006 0
M  V30 643 O 59.3158 -0.706126 -1.65571 0
M  V30 644 H 55.6908 -0.52356 -0.539805 0
M  V30 645 H 57.6618 -2.60329 -1.45848 0
M  V30 646 C 56.4108 -1.74008 -3.01026 0
M  V30 647 H 55.7338 -2.6064 -3.03161 0
M  V30 648 H 57.1738 -1.89798 -3.79147 0
M  V30 649 C 55.6328 -0.483868 -3.33407 0
M  V30 650 O 56.1628 0.392548 -3.99777 0
M  V30 651 N 54.3688 -0.348236 -2.88506 0
M  V30 652 H 53.9158 -1.06242 -2.34671 0
M  V30 653 H 53.8738 0.491204 -3.10539 0
M  V30 654 N 57.6459 0.756429 -1.3826 0
M  V30 655 C 58.6089 1.85176 -1.35065 0
M  V30 656 C 59.6089 1.58818 -0.251703 0
M  V30 657 O 60.7989 1.66615 -0.508433 0
M  V30 658 C 57.9309 3.22596 -1.10201 0
M  V30 659 H 59.1239 1.89417 -2.3251 0
M  V30 660 H 56.6769 0.95783 -1.23512 0
M  V30 661 H 57.4119 3.24025 -0.133504 0
M  V30 662 H 57.1969 3.43122 -1.89762 0
M  V30 663 H 58.6869 4.02673 -1.10654 0
M  V30 664 N 59.124 1.23083 0.984299 0
M  V30 665 C 60.37 1.06214 1.72761 0
M  V30 666 C 60.703 -0.400584 1.90024 0
M  V30 667 O 59.978 -1.29672 1.44967 0
M  V30 668 C 60.261 1.78375 3.12817 0
M  V30 669 C 60.114 3.32296 3.03149 0
M  V30 670 C 61.433 1.54309 4.12161 0
M  V30 671 H 58.552 0.387251 0.627061 0
M  V30 672 H 61.194 1.51536 1.14616 0
M  V30 673 H 59.344 1.39848 3.62457 0
M  V30 674 H 61.016 3.8032 2.61064 0
M  V30 675 H 59.259 3.6153 2.39747 0
M  V30 676 H 59.93 3.77972 4.02295 0
M  V30 677 H 62.406 1.87791 3.71314 0
M  V30 678 H 61.282 2.07281 5.08258 0
M  V30 679 H 61.543 0.477572 4.39513 0
M  V30 680 N 60.6021 -1.18246 1.0419 0
M  V30 681 C 61.5321 -2.24127 0.654914 0
M  V30 682 C 62.5131 -1.66617 -0.342451 0
M  V30 683 O 63.6981 -1.92924 -0.222277 0
M  V30 684 C 60.8281 -3.47295 0.0183757 0
M  V30 685 C 59.7821 -4.17563 0.939414 0
M  V30 686 C 59.1081 -5.34438 0.167286 0
M  V30 687 C 60.4081 -4.70917 2.25908 0
M  V30 688 H 62.1021 -2.56753 1.54007 0
M  V30 689 H 59.6481 -1.23414 0.74195 0
M  V30 690 H 61.6011 -4.20572 -0.264082 0
M  V30 691 H 60.3251 -3.13907 -0.901664 0
M  V30 692 H 58.9841 -3.46186 1.20628 0
M  V30 693 H 58.6321 -4.97298 -0.7552 0
M  V30 694 H 58.3321 -5.82388 0.780901 0
M  V30 695 H 59.8561 -6.10504 -0.108125 0
M  V30 696 H 61.2701 -5.35882 2.03724 0
M  V30 697 H 59.6671 -5.29406 2.82577 0
M  V30 698 H 60.7371 -3.88272 2.9047 0
M  V30 699 N 62.0802 -0.821533 -1.34494 0
M  V30 700 C 63.0432 -0.247847 -2.27856 0
M  V30 701 C 64.0432 0.573453 -1.50227 0
M  V30 702 O 65.2332 0.389759 -1.69784 0
M  V30 703 C 62.3652 0.652698 -3.34593 0
M  V30 704 H 63.5582 -1.07146 -2.80107 0
M  V30 705 H 61.1112 -0.593291 -1.44602 0
M  V30 706 H 61.8462 1.49943 -2.87555 0
M  V30 707 H 61.6312 0.065292 -3.92046 0
M  V30 708 H 63.1212 1.04793 -4.04238 0
M  V30 709 N 63.5583 1.46682 -0.576371 0
M  V30 710 C 64.7833 2.07304 -0.0630475 0
M  V30 711 C 65.2083 1.42329 1.2298 0
M  V30 712 O 64.5663 0.504865 1.74129 0
M  V30 713 C 64.6143 3.60472 0.095895 0
M  V30 714 O 63.7183 3.95927 1.15394 0
M  V30 715 H 63.0593 0.661288 -0.0599463 0
M  V30 716 H 65.5893 1.88417 -0.797511 0
M  V30 717 H 65.5993 4.06865 0.304071 0
M  V30 718 H 64.2743 4.07157 -0.84828 0
M  V30 719 H 62.8513 3.61252 0.924724 0
M  V30 720 N 65.0364 0.313813 1.54444 0
M  V30 721 C 66.2844 -0.291099 1.99993 0
M  V30 722 C 66.6054 -1.53418 1.20366 0
M  V30 723 O 65.8754 -1.93544 0.302927 0
M  V30 724 H 64.4554 -0.110552 0.738774 0
M  V30 725 H 67.1174 0.428106 1.9014 0
M  V30 726 H 66.2134 -0.554268 3.07139 0
M  V30 727 N 66.5145 -1.57545 0.0417849 0
M  V30 728 C 67.4775 -2.09885 -0.92093 0
M  V30 729 C 68.4775 -1.01648 -1.24596 0
M  V30 730 O 69.6675 -1.27759 -1.1842 0
M  V30 731 C 66.7995 -2.57527 -2.23367 0
M  V30 732 H 67.9925 -2.96236 -0.467382 0
M  V30 733 H 65.5455 -1.5493 -0.206467 0
M  V30 734 H 66.2805 -1.74542 -2.73323 0
M  V30 735 H 66.0655 -3.36613 -2.01083 0
M  V30 736 H 67.5555 -2.98201 -2.92346 0
M  V30 737 N 67.9926 0.231505 -1.5589 0
M  V30 738 C 69.2206 0.974505 -1.82513 0
M  V30 739 C 69.6356 1.78344 -0.619591 0
M  V30 740 O 68.9926 1.77792 0.411848 0
M  V30 741 C 69.0436 1.90007 -3.07538 0
M  V30 742 O 68.7646 1.12385 -4.2344 0
M  V30 743 C 70.2656 2.75779 -3.47075 0
M  V30 744 H 67.4856 0.286065 -0.606966 0
M  V30 745 H 70.0296 0.249739 -2.02969 0
M  V30 746 H 68.1846 2.57891 -2.89086 0
M  V30 747 H 68.5986 1.75125 -4.944 0
M  V30 748 H 70.0726 3.36443 -4.37619 0
M  V30 749 H 70.5496 3.47672 -2.68367 0
M  V30 750 H 71.1556 2.13323 -3.67931 0
M  V30 751 N 69.4707 1.49531 0.497807 0
M  V30 752 C 70.7177 1.59179 1.25173 0
M  V30 753 C 71.0457 0.279932 1.92475 0
M  V30 754 O 70.3007 -0.732383 1.81479 0
M  V30 755 C 70.5997 2.70252 2.33878 0
M  V30 756 C 70.2657 4.11644 1.84012 0
M  V30 757 C 68.9277 4.50121 1.70132 0
M  V30 758 C 71.2797 5.00121 1.46725 0
M  V30 759 C 68.6077 5.74845 1.17348 0
M  V30 760 C 70.9597 6.25366 0.95392 0
M  V30 761 C 69.6237 6.6267 0.801538 0
M  V30 762 H 68.8937 0.582478 0.45804 0
M  V30 763 H 71.5407 1.83373 0.551948 0
M  V30 764 H 69.8457 2.40041 3.09657 0
M  V30 765 H 71.5427 2.74925 2.9192 0
M  V30 766 H 68.1327 3.81274 1.95775 0
M  V30 767 H 72.3167 4.71048 1.56294 0
M  V30 768 H 67.5727 6.02444 1.04264 0
M  V30 769 H 71.7467 6.93301 0.656225 0
M  V30 770 H 69.3737 7.59197 0.390351 0
M  V30 771 N 70.9488 -0.749086 1.3866 0
M  V30 772 C 72.1888 -1.52112 1.36534 0
M  V30 773 C 72.5528 -1.91951 -0.0432316 0
M  V30 774 O 73.7538 -2.68132 -0.189396 0
M  V30 775 C 72.0248 -2.73704 2.29828 0
M  V30 776 S 73.5838 -3.63519 2.45763 0
M  V30 777 H 70.4018 -0.520482 0.484375 0
M  V30 778 H 73.0038 -0.878963 1.74627 0
M  V30 779 H 71.7078 -2.42552 3.31054 0
M  V30 780 H 71.2388 -3.4286 1.929 0
M  V30 781 H 73.2538 -4.66712 1.68505 0
M  V30 782 N 72.4269 -1.23603 -0.977757 0
M  V30 783 C 73.6759 -1.06377 -1.71368 0
M  V30 784 C 73.9889 0.399062 -1.91486 0
M  V30 785 O 75.1949 0.691312 -2.62551 0
M  V30 786 C 73.6509 -1.85512 -3.08404 0
M  V30 787 C 73.2589 -3.36141 -2.96164 0
M  V30 788 C 75.0029 -1.76783 -3.85938 0
M  V30 789 C 72.9099 -4.07659 -4.28449 0
M  V30 790 H 71.8399 -0.394452 -0.642591 0
M  V30 791 H 74.4909 -1.47594 -1.09034 0
M  V30 792 H 72.8729 -1.37103 -3.71509 0
M  V30 793 H 74.0469 -3.92056 -2.42133 0
M  V30 794 H 72.3619 -3.45712 -2.32104 0
M  V30 795 H 74.9589 -2.27526 -4.83876 0
M  V30 796 H 75.3019 -0.731116 -4.0983 0
M  V30 797 H 75.8349 -2.22818 -3.2954 0
M  V30 798 H 72.5739 -5.11648 -4.09752 0
M  V30 799 H 72.0939 -3.5653 -4.82334 0
M  V30 800 H 73.7729 -4.141 -4.97122 0
M  V30 801 N 73.905 1.17692 -1.04816 0
M  V30 802 C 75.151 1.88137 -0.75711 0
M  V30 803 C 75.484 1.80604 0.713841 0
M  V30 804 O 74.759 1.21146 1.52164 0
M  V30 805 C 75.042 3.38318 -1.2334 0
M  V30 806 C 74.895 3.54622 -2.76701 0
M  V30 807 C 76.214 4.32214 -0.829415 0
M  V30 808 H 73.333 0.683163 -0.27651 0
M  V30 809 H 75.975 1.38424 -1.30149 0
M  V30 810 H 74.125 3.80787 -0.770286 0
M  V30 811 H 75.797 3.21194 -3.31107 0
M  V30 812 H 74.04 2.97026 -3.16161 0
M  V30 813 H 74.711 4.60028 -3.05088 0
M  V30 814 H 77.187 3.97565 -1.22805 0
M  V30 815 H 76.063 5.35838 -1.19033 0
M  V30 816 H 76.324 4.41294 0.266891 0
M  V30 817 N 75.3831 0.828654 1.34056 0
M  V30 818 C 76.6111 0.43262 2.02326 0
M  V30 819 C 77.0261 -0.963147 1.62385 0
M  V30 820 O 76.3831 -1.62425 0.832121 0
M  V30 821 C 76.4341 0.53182 3.57567 0
M  V30 822 O 76.1551 1.87258 3.96063 0
M  V30 823 C 77.6561 0.131422 4.43105 0
M  V30 824 H 74.8761 0.172923 0.648335 0
M  V30 825 H 77.4201 1.1184 1.71208 0
M  V30 826 H 75.5751 -0.105938 3.87255 0
M  V30 827 H 75.9891 1.85087 4.90758 0
M  V30 828 H 77.4631 0.251904 5.51425 0
M  V30 829 H 77.9401 -0.925645 4.29335 0
M  V30 830 H 78.5461 0.743207 4.18756 0
M  V30 831 N 76.8612 -1.46375 0.584142 0
M  V30 832 C 78.1072 -2.03248 0.0787103 0
M  V30 833 C 78.4622 -1.44737 -1.26763 0
M  V30 834 O 77.7552 -0.603625 -1.81843 0
M  V30 835 C 77.9492 -3.57373 -0.0439342 0
M  V30 836 C 77.7782 -4.30831 1.28897 0
M  V30 837 C 76.5482 -4.69683 1.8635 0
M  V30 838 C 78.7462 -4.64278 2.21248 0
M  V30 839 N 76.7282 -5.27898 3.13365 0
M  V30 840 C 78.0992 -5.23078 3.32851 0
M  V30 841 C 80.1542 -4.46209 2.20911 0
M  V30 842 C 78.8572 -5.65715 4.44251 0
M  V30 843 C 80.8832 -4.89864 3.31341 0
M  V30 844 C 80.2452 -5.48736 4.41665 0
M  V30 845 H 76.3442 -0.778714 0.0716144 0
M  V30 846 H 78.9282 -1.78509 0.777355 0
M  V30 847 H 77.0992 -3.81823 -0.711749 0
M  V30 848 H 78.8312 -4.00892 -0.553881 0
M  V30 849 H 75.5862 -4.52488 1.39826 0
M  V30 850 H 76.0102 -5.61525 3.78178 0
M  V30 851 H 80.6522 -4.00027 1.36888 0
M  V30 852 H 78.3702 -6.10875 5.29015 0
M  V30 853 H 81.9562 -4.77634 3.322 0
M  V30 854 H 80.8362 -5.81898 5.25704 0
M  V30 855 N 78.3393 -0.321999 -1.54275 0
M  V30 856 C 79.5673 0.283052 -2.04955 0
M  V30 857 C 79.9823 1.45904 -1.19823 0
M  V30 858 O 79.3393 1.81063 -0.228545 0
M  V30 859 C 79.3903 0.719028 -3.54277 0
M  V30 860 O 79.1113 -0.410175 -4.36176 0
M  V30 861 C 80.6123 1.38705 -4.21041 0
M  V30 862 H 77.8323 0.0584616 -0.668448 0
M  V30 863 H 80.3763 -0.467734 -1.99079 0
M  V30 864 H 78.5313 1.41979 -3.60445 0
M  V30 865 H 78.9453 -0.0669416 -5.24457 0
M  V30 866 H 80.4193 1.64306 -5.2698 0
M  V30 867 H 80.8963 2.33385 -3.72059 0
M  V30 868 H 81.5023 0.728906 -4.19007 0
M  V30 869 N 79.8174 1.5752 -0.0501392 0
M  V30 870 C 81.0474 1.96678 0.632573 0
M  V30 871 C 81.4554 0.926298 1.64974 0
M  V30 872 O 80.7984 -0.09802 1.83438 0
M  V30 873 C 80.8604 3.32068 1.37735 0
M  V30 874 C 80.5244 4.54076 0.516131 0
M  V30 875 C 81.5214 5.19445 -0.217357 0
M  V30 876 C 79.2064 5.00304 0.44736 0
M  V30 877 C 81.2004 6.29378 -1.00807 0
M  V30 878 C 78.8874 6.10114 -0.347038 0
M  V30 879 C 79.8854 6.74512 -1.07344 0
M  V30 880 O 79.5734 7.82211 -1.85477 0
M  V30 881 H 79.3054 0.652193 0.177821 0
M  V30 882 H 81.8594 2.05091 -0.112543 0
M  V30 883 H 80.0894 3.20206 2.16807 0
M  V30 884 H 81.7784 3.55981 1.95019 0
M  V30 885 H 82.5444 4.84689 -0.173688 0
M  V30 886 H 78.4234 4.49971 1.00235 0
M  V30 887 H 81.9674 6.79575 -1.57556 0
M  V30 888 H 77.8644 6.44307 -0.392349 0
M  V30 889 H 78.6324 7.98982 -1.77678 0
M  V30 890 N 81.2955 -0.223234 1.56011 0
M  V30 891 C 82.5415 -0.949279 1.79211 0
M  V30 892 C 82.8745 -1.84054 0.619494 0
M  V30 893 O 82.1495 -1.90726 -0.381317 0
M  V30 894 C 82.4325 -1.78965 3.12479 0
M  V30 895 C 82.2855 -0.924997 4.40186 0
M  V30 896 C 83.6045 -2.76774 3.42175 0
M  V30 897 H 80.7235 -0.343676 0.651963 0
M  V30 898 H 83.3655 -0.218253 1.88742 0
M  V30 899 H 81.5155 -2.41291 3.04485 0
M  V30 900 H 83.1875 -0.318615 4.60198 0
M  V30 901 H 81.4305 -0.230344 4.33188 0
M  V30 902 H 82.1015 -1.54735 5.29869 0
M  V30 903 H 84.5775 -2.24584 3.50287 0
M  V30 904 H 83.4535 -3.32678 4.36597 0
M  V30 905 H 83.7145 -3.54429 2.64258 0
M  V30 906 N 82.7736 -1.49793 -0.48987 0
M  V30 907 C 83.7366 -1.66752 -1.57246 0
M  V30 908 C 84.7366 -0.538867 -1.51502 0
M  V30 909 O 85.9266 -0.805545 -1.54456 0
M  V30 910 C 83.0586 -1.67528 -2.96896 0
M  V30 911 H 84.2516 -2.63321 -1.43534 0
M  V30 912 H 81.8046 -1.38992 -0.714914 0
M  V30 913 H 82.5396 -0.725837 -3.16073 0
M  V30 914 H 82.3246 -2.49504 -3.02473 0
M  V30 915 H 83.8146 -1.82667 -3.7553 0
M  V30 916 N 84.2517 0.741722 -1.39055 0
M  V30 917 C 85.4797 1.53098 -1.39171 0
M  V30 918 C 85.8947 1.88794 0.0155099 0
M  V30 919 O 85.2517 1.53626 0.985159 0
M  V30 920 C 85.3027 2.82274 -2.2584 0
M  V30 921 O 85.0237 2.48097 -3.61081 0
M  V30 922 C 86.5247 3.76343 -2.34266 0
M  V30 923 H 83.7447 0.473335 -0.4756 0
M  V30 924 H 86.2887 0.917045 -1.82785 0
M  V30 925 H 84.4437 3.40015 -1.85656 0
M  V30 926 H 84.8577 3.31029 -4.06842 0
M  V30 927 H 86.3317 4.63898 -2.9917 0
M  V30 928 H 86.8087 4.17619 -1.35982 0
M  V30 929 H 87.4147 3.24523 -2.74891 0
M  V30 930 N 85.7298 1.2412 0.971189 0
M  V30 931 C 86.6618 0.988349 2.06795 0
M  V30 932 C 87.6748 -0.0409541 1.62748 0
M  V30 933 O 88.8638 0.195673 1.77424 0
M  V30 934 C 85.9638 0.469023 3.35639 0
M  V30 935 C 85.1368 1.56065 4.08611 0
M  V30 936 C 84.1958 1.04458 5.15728 0
M  V30 937 O 83.2218 1.73553 5.42096 0
M  V30 938 N 84.4238 -0.122817 5.8037 0
M  V30 939 H 87.1888 1.93265 2.29061 0
M  V30 940 H 84.7498 1.15102 1.13856 0
M  V30 941 H 86.7418 0.108613 4.04554 0
M  V30 942 H 85.3118 -0.380919 3.1027 0
M  V30 943 H 84.5318 2.09341 3.34021 0
M  V30 944 H 85.8198 2.29449 4.54126 0
M  V30 945 H 85.2178 -0.700563 5.61345 0
M  V30 946 H 83.7748 -0.424404 6.50417 0
M  V30 947 N 87.2079 -1.17134 1.05439 0
M  V30 948 C 88.4539 -1.87733 0.767077 0
M  V30 949 C 88.7869 -1.8098 -0.704253 0
M  V30 950 O 88.0619 -1.21951 -1.5152 0
M  V30 951 C 88.3449 -3.37659 1.25133 0
M  V30 952 C 88.1979 -3.53149 2.78578 0
M  V30 953 C 89.5169 -4.31768 0.852324 0
M  V30 954 H 86.6359 -0.681687 0.280129 0
M  V30 955 H 89.2779 -1.37732 1.30881 0
M  V30 956 H 87.4279 -3.80373 0.790469 0
M  V30 957 H 89.0999 -3.19434 3.32806 0
M  V30 958 H 87.3429 -2.95345 3.17732 0
M  V30 959 H 88.0139 -4.58403 3.07523 0
M  V30 960 H 90.4899 -3.96909 1.24911 0
M  V30 961 H 89.3659 -5.35199 1.21873 0
M  V30 962 H 89.6269 -4.41429 -0.243485 0
M  V30 963 N 88.686 -0.835752 -1.33615 0
M  V30 964 C 89.934 -0.429109 -1.97492 0
M  V30 965 C 90.255 1.01433 -1.66543 0
M  V30 966 O 89.525 1.70611 -0.962744 0
M  V30 967 H 88.105 -0.155686 -0.730596 0
M  V30 968 H 90.767 -1.06802 -1.63031 0
M  V30 969 H 89.863 -0.55861 -3.0706 0
M  V30 970 N 90.1641 1.46063 -0.591896 0
M  V30 971 C 91.4131 2.01547 -0.0786637 0
M  V30 972 C 91.7261 1.46796 1.29268 0
M  V30 973 O 92.9321 1.94157 1.89777 0
M  V30 974 C 91.3881 3.59787 -0.0900024 0
M  V30 975 C 90.9961 4.23534 -1.46023 0
M  V30 976 C 92.7401 4.22895 0.368806 0
M  V30 977 C 90.6471 5.73881 -1.4288 0
M  V30 978 H 89.5771 0.753564 -0.0256388 0
M  V30 979 H 92.2281 1.677 -0.744905 0
M  V30 980 H 90.6101 3.90752 0.642586 0
M  V30 981 H 91.7841 4.04167 -2.21328 0
M  V30 982 H 90.0991 3.72558 -1.85982 0
M  V30 983 H 92.6961 5.33116 0.411258 0
M  V30 984 H 93.0391 3.9247 1.38827 0
M  V30 985 H 93.5721 3.9659 -0.31001 0
M  V30 986 H 90.3111 6.0898 -2.42536 0
M  V30 987 H 89.8311 5.95486 -0.718095 0
M  V30 988 H 91.5101 6.36776 -1.14565 0
M  V30 989 N 91.6422 0.330177 1.54103 0
M  V30 990 C 92.5522 -0.541534 2.28264 0
M  V30 991 C 93.5682 -1.12351 1.32866 0
M  V30 992 O 94.7442 -1.14206 1.65888 0
M  V30 993 C 91.8092 -1.68322 3.03098 0
M  V30 994 C 90.8702 -1.13238 4.14096 0
M  V30 995 C 90.1032 -2.21966 4.85352 0
M  V30 996 O 90.3262 -3.42437 4.56172 0
M  V30 997 O 89.2602 -1.87013 5.7211 0
M  V30 998 H 93.0862 0.060938 3.03639 0
M  V30 999 H 90.6712 0.09565 1.49093 0
M  V30 1000 H 92.5532 -2.34777 3.49939 0
M  V30 1001 H 91.2282 -2.27176 2.30593 0
M  V30 1002 H 90.1352 -0.432736 3.71589 0
M  V30 1003 H 91.4682 -0.588898 4.88664 0
M  V30 1004 N 93.1203 -1.57491 0.0584922 0
M  V30 1005 C 94.3663 -1.94081 -0.608617 0
M  V30 1006 C 94.7213 -0.937438 -1.68017 0
M  V30 1007 O 94.0143 0.0423034 -1.91553 0
M  V30 1008 C 94.2083 -3.3513 -1.24188 0
M  V30 1009 C 94.0373 -4.49095 -0.233187 0
M  V30 1010 C 92.8073 -5.04988 0.177439 0
M  V30 1011 C 95.0053 -5.1162 0.524306 0
M  V30 1012 N 92.9873 -6.02487 1.17823 0
M  V30 1013 C 94.3583 -6.04493 1.37796 0
M  V30 1014 C 96.4133 -4.94489 0.581822 0
M  V30 1015 C 95.1163 -6.82075 2.28399 0
M  V30 1016 C 97.1423 -5.72703 1.47531 0
M  V30 1017 C 96.5043 -6.65214 2.31667 0
M  V30 1018 H 92.6033 -0.75752 -0.194134 0
M  V30 1019 H 95.1873 -1.94248 0.132533 0
M  V30 1020 H 93.3583 -3.35726 -1.95302 0
M  V30 1021 H 95.0903 -3.5899 -1.86838 0
M  V30 1022 H 91.8453 -4.73165 -0.203004 0
M  V30 1023 H 92.2693 -6.55933 1.67573 0
M  V30 1024 H 96.9113 -4.22765 -0.054443 0
M  V30 1025 H 94.6293 -7.53085 2.93067 0
M  V30 1026 H 98.2153 -5.61472 1.52448 0
M  V30 1027 H 97.0953 -7.24679 2.99683 0
M  V30 1028 N 94.5984 0.214957 -1.56127 0
M  V30 1029 C 95.5464 1.28601 -1.93816 0
M  V30 1030 C 96.5404 1.48175 -0.821016 0
M  V30 1031 O 97.7464 1.49271 -1.0059 0
M  V30 1032 H 94.1214 0.431302 -0.616022 0
M  V30 1033 H 96.0924 0.940991 -2.83175 0
M  V30 1034 C 94.8414 2.62779 -2.27689 0
M  V30 1035 H 94.1644 2.48527 -3.13168 0
M  V30 1036 H 95.6044 3.36517 -2.57939 0
M  V30 1037 C 94.0634 3.18285 -1.10436 0
M  V30 1038 O 94.5934 4.00002 -0.368945 0
M  V30 1039 N 92.7994 2.7675 -0.886433 0
M  V30 1040 H 92.3464 2.10404 -1.48619 0
M  V30 1041 H 92.3044 3.14229 -0.103656 0
M  V30 1042 N 96.0765 1.50051 0.48192 0
M  V30 1043 C 97.0065 1.71046 1.58951 0
M  V30 1044 C 97.9875 0.559288 1.60642 0
M  V30 1045 O 99.1725 0.797243 1.77081 0
M  V30 1046 C 96.3025 1.79462 2.97339 0
M  V30 1047 C 95.2565 2.94558 3.10515 0
M  V30 1048 C 94.5825 2.88105 4.50444 0
M  V30 1049 C 95.8825 4.35227 2.88747 0
M  V30 1050 H 97.5765 2.6378 1.41635 0
M  V30 1051 H 95.1225 1.26936 0.679942 0
M  V30 1052 H 97.0755 1.92734 3.74742 0
M  V30 1053 H 95.7995 0.833412 3.15788 0
M  V30 1054 H 94.4585 2.80918 2.35543 0
M  V30 1055 H 94.1065 1.89853 4.65795 0
M  V30 1056 H 93.8065 3.65366 4.60197 0
M  V30 1057 H 95.3305 3.03412 5.29881 0
M  V30 1058 H 96.7445 4.49449 3.55905 0
M  V30 1059 H 95.1415 5.13856 3.09955 0
M  V30 1060 H 96.2115 4.48347 1.84696 0
M  V30 1061 N 97.5546 -0.734337 1.39446 0
M  V30 1062 C 98.7796 -1.52866 1.40167 0
M  V30 1063 C 99.2046 -1.881 -0.00171513 0
M  V30 1064 O 98.5626 -1.51957 -0.988879 0
M  V30 1065 C 98.6106 -2.79235 2.28167 0
M  V30 1066 O 97.7146 -3.75185 1.71201 0
M  V30 1067 H 97.0556 -0.461618 0.477289 0
M  V30 1068 H 99.5856 -0.905949 1.8345 0
M  V30 1069 H 99.5956 -3.27963 2.42702 0
M  V30 1070 H 98.2706 -2.52923 3.30156 0
M  V30 1071 H 96.8476 -3.33958 1.65912 0
M  V30 1072 N 99.0327 -1.24633 -0.964593 0
M  V30 1073 C 100.444 -1.08045 -1.5226 0
M  V30 1074 C 100.795 0.347116 -1.93105 0
M  V30 1075 O 99.9197 1.23588 -1.77637 0
M  V30 1076 C 100.515 -1.95514 -2.76695 0
M  V30 1077 C 99.0737 -1.8314 -3.28841 0
M  V30 1078 C 98.2207 -1.90262 -2.01732 0
M  V30 1079 H 101.172 -1.38064 -0.782553 0
M  V30 1080 H 101.193 -1.48925 -3.50145 0
M  V30 1081 H 100.705 -2.99407 -2.46936 0
M  V30 1082 H 98.8057 -0.82092 -3.63444 0
M  V30 1083 H 98.9187 -2.67406 -3.97531 0
M  V30 1084 H 97.2827 -1.34027 -2.16584 0
M  V30 1085 H 98.0657 -2.9574 -1.74334 0
M  V30 1086 N 100.511 1.16574 -1.06058 0
M  V30 1087 C 101.757 1.87324 -0.777022 0
M  V30 1088 C 102.09 1.81351 0.694645 0
M  V30 1089 O 101.365 1.22753 1.50871 0
M  V30 1090 C 101.648 3.36991 -1.26922 0
M  V30 1091 C 101.501 3.51667 -2.80447 0
M  V30 1092 C 102.82 4.3131 -0.87521 0
M  V30 1093 H 99.9388 0.680191 -0.28374 0
M  V30 1094 H 102.581 1.37036 -1.3161 0
M  V30 1095 H 100.731 3.79949 -0.81063 0
M  V30 1096 H 102.403 3.17664 -3.34495 0
M  V30 1097 H 100.646 2.93656 -3.19294 0
M  V30 1098 H 101.317 4.56766 -3.0995 0
M  V30 1099 H 103.793 3.9624 -1.27014 0
M  V30 1100 H 102.669 5.34545 -1.2471 0
M  V30 1101 H 102.93 4.41552 0.220071 0
M  V30 1102 N 101.989 0.842826 1.3317 0
M  V30 1103 C 103.237 0.439577 1.97262 0
M  V30 1104 C 103.558 -1.00548 1.67078 0
M  V30 1105 O 102.828 -1.70098 0.971779 0
M  V30 1106 H 101.408 0.159558 0.72976 0
M  V30 1107 H 104.07 1.07665 1.62463 0
M  V30 1108 H 103.166 0.574886 3.0676 0
M  V30 1109 N 103.467 -1.45747 0.599634 0
M  V30 1110 C 104.883 -1.57424 0.26264 0
M  V30 1111 C 105.083 -1.59222 -1.23493 0
M  V30 1112 O 104.139 -1.51825 -2.01756 0
M  V30 1113 C 105.452 -2.86061 0.926795 0
M  V30 1114 C 107 -2.99722 0.901967 0
M  V30 1115 C 107.475 -4.31119 1.54598 0
M  V30 1116 N 108.966 -4.37858 1.5111 0
M  V30 1117 C 109.701 -5.3818 1.97863 0
M  V30 1118 N 109.197 -6.45083 2.52666 0
M  V30 1119 N 110.99 -5.29487 1.88679 0
M  V30 1120 H 103.141 -1.42823 1.57211 0
M  V30 1121 H 105.404 -0.68235 0.658105 0
M  V30 1122 H 105.11 -2.90605 1.98095 0
M  V30 1123 H 104.984 -3.74563 0.445238 0
M  V30 1124 H 107.371 -2.9475 -0.143617 0
M  V30 1125 H 107.452 -2.12652 1.42171 0
M  V30 1126 H 107.096 -4.36849 2.59085 0
M  V30 1127 H 107.026 -5.16992 1.00132 0
M  V30 1128 H 109.517 -3.61209 1.11068 0
M  V30 1129 H 109.83 -7.17869 2.86155 0
M  V30 1130 H 108.175 -6.45856 2.56701 0
M  V30 1131 H 111.366 -4.44877 1.4561 0
M  V30 1132 H 111.539 -6.07524 2.25429 0
M  V30 1133 N 104.945 -0.338344 -1.53925 0
M  V30 1134 C 106.191 0.260143 -2.01125 0
M  V30 1135 C 106.524 1.50617 -1.22589 0
M  V30 1136 O 105.799 1.91979 -0.312113 0
M  V30 1137 C 106.082 0.579499 -3.55407 0
M  V30 1138 C 105.935 -0.678264 -4.44657 0
M  V30 1139 C 107.254 1.39122 -4.17532 0
M  V30 1140 H 104.373 0.0930772 -0.731099 0
M  V30 1141 H 107.015 -0.457852 -1.84401 0
M  V30 1142 H 105.165 1.19118 -3.69788 0
M  V30 1143 H 106.837 -1.31631 -4.42121 0
M  V30 1144 H 105.08 -1.3042 -4.13731 0
M  V30 1145 H 105.751 -0.410143 -5.50474 0
M  V30 1146 H 108.227 0.874035 -4.06817 0
M  V30 1147 H 107.103 1.58342 -5.25565 0
M  V30 1148 H 107.364 2.39178 -3.71815 0
M  V30 1149 N 106.423 1.57458 -0.0668435 0
M  V30 1150 C 107.651 1.97624 0.612565 0
M  V30 1151 C 108.066 0.94502 1.63447 0
M  V30 1152 O 107.423 -0.0689276 1.8237 0
M  V30 1153 C 107.474 3.37869 1.28555 0
M  V30 1154 O 107.195 4.3704 0.304557 0
M  V30 1155 C 108.696 3.92882 2.05325 0
M  V30 1156 H 105.916 0.650045 0.166381 0
M  V30 1157 H 108.46 2.04035 -0.137782 0
M  V30 1158 H 106.615 3.3256 1.98702 0
M  V30 1159 H 107.029 5.18565 0.786779 0
M  V30 1160 H 108.503 4.93247 2.47812 0
M  V30 1161 H 108.98 3.29156 2.9078 0
M  V30 1162 H 109.586 4.01577 1.40056 0
M  V30 1163 N 107.901 -0.206675 1.56239 0
M  V30 1164 C 109.312 -0.772383 1.69974 0
M  V30 1165 C 109.663 -1.84353 0.671436 0
M  V30 1166 O 108.788 -2.15695 -0.174491 0
M  V30 1167 C 109.383 -1.40779 3.08167 0
M  V30 1168 C 107.942 -1.92072 3.23706 0
M  V30 1169 C 107.089 -0.786347 2.65917 0
M  V30 1170 H 110.04 0.0182223 1.5869 0
M  V30 1171 H 110.061 -2.27696 3.04852 0
M  V30 1172 H 109.573 -0.627958 3.82986 0
M  V30 1173 H 107.674 -2.7281 2.53782 0
M  V30 1174 H 107.787 -2.09046 4.31087 0
M  V30 1175 H 106.151 -1.1976 2.24788 0
M  V30 1176 H 106.934 -0.0189416 3.43295 0
M  V30 1177 N 109.379 -1.50304 -0.473955 0
M  V30 1178 C 110.326 -1.68959 -1.57231 0
M  V30 1179 C 111.296 -0.530899 -1.57387 0
M  V30 1180 O 112.481 -0.761133 -1.74961 0
M  V30 1181 C 109.621 -1.7871 -2.95223 0
M  V30 1182 C 108.734 -3.06061 -3.04878 0
M  V30 1183 C 107.869 -3.06626 -4.33767 0
M  V30 1184 C 106.908 -4.28443 -4.37154 0
M  V30 1185 N 106.045 -4.26763 -5.5751 0
M  V30 1186 H 110.885 -2.6273 -1.40631 0
M  V30 1187 H 108.422 -1.30241 -0.683789 0
M  V30 1188 H 110.38 -1.82344 -3.75242 0
M  V30 1189 H 109.01 -0.883806 -3.10465 0
M  V30 1190 H 108.062 -3.11911 -2.17751 0
M  V30 1191 H 109.374 -3.96039 -3.0324 0
M  V30 1192 H 108.528 -3.08973 -5.22131 0
M  V30 1193 H 107.267 -2.14473 -4.3801 0
M  V30 1194 H 106.272 -4.2631 -3.47188 0
M  V30 1195 H 107.497 -5.2182 -4.34605 0
M  V30 1196 H 105.443 -3.37462 -5.62544 0
M  V30 1197 H 105.36 -5.10507 -5.57601 0
M  V30 1198 H 106.628 -4.33253 -6.48006 0
M  V30 1199 N 110.857 0.726932 -1.39834 0
M  V30 1200 C 111.767 1.87131 -1.41489 0
M  V30 1201 C 112.783 1.71239 -0.308757 0
M  V30 1202 O 113.959 1.93701 -0.551529 0
M  V30 1203 C 111.024 3.22811 -1.26468 0
M  V30 1204 C 110.085 3.51039 -2.47124 0
M  V30 1205 C 109.318 4.80245 -2.3281 0
M  V30 1206 O 109.541 5.54537 -1.33585 0
M  V30 1207 O 108.475 5.08554 -3.21957 0
M  V30 1208 H 112.301 1.8869 -2.3797 0
M  V30 1209 H 109.886 0.875837 -1.21035 0
M  V30 1210 H 111.768 4.03877 -1.20255 0
M  V30 1211 H 110.443 3.22005 -0.330862 0
M  V30 1212 H 109.35 2.70027 -2.58914 0
M  V30 1213 H 110.683 3.56632 -3.39227 0
M  V30 1214 N 112.336 1.25143 0.95797 0
M  V30 1215 C 113.582 1.10863 1.70531 0
M  V30 1216 C 113.937 -0.347391 1.89238 0
M  V30 1217 O 113.23 -1.25262 1.44983 0
M  V30 1218 C 113.424 1.79272 3.09187 0
M  V30 1219 C 113.253 3.31376 3.04006 0
M  V30 1220 C 112.023 4.0062 3.07948 0
M  V30 1221 C 114.221 4.27825 2.8543 0
M  V30 1222 N 112.203 5.39526 2.9289 0
M  V30 1223 C 113.574 5.53794 2.78769 0
M  V30 1224 C 115.629 4.1828 2.70085 0
M  V30 1225 C 114.332 6.7131 2.58331 0
M  V30 1226 C 116.358 5.35485 2.51017 0
M  V30 1227 C 115.72 6.60393 2.45073 0
M  V30 1228 H 111.819 0.460362 0.632132 0
M  V30 1229 H 114.403 1.58196 1.13499 0
M  V30 1230 H 112.574 1.34439 3.64391 0
M  V30 1231 H 114.306 1.57764 3.72683 0
M  V30 1232 H 111.061 3.51855 3.17009 0
M  V30 1233 H 111.485 6.12416 2.88574 0
M  V30 1234 H 116.127 3.22461 2.73457 0
M  V30 1235 H 113.845 7.67243 2.53701 0
M  V30 1236 H 117.431 5.29959 2.40073 0
M  V30 1237 H 116.311 7.49557 2.30509 0
M  V30 1238 N 113.814 -1.1601 1.06675 0
M  V30 1239 C 115.23 -1.38622 0.790948 0
M  V30 1240 C 115.43 -1.92109 -0.607965 0
M  V30 1241 O 114.486 -2.12239 -1.36787 0
M  V30 1242 C 115.799 -2.36347 1.85905 0
M  V30 1243 C 117.347 -2.50023 1.88301 0
M  V30 1244 C 117.822 -3.51033 2.94176 0
M  V30 1245 N 119.313 -3.58563 2.93235 0
M  V30 1246 C 120.048 -4.36521 3.71803 0
M  V30 1247 N 119.544 -5.17869 4.602 0
M  V30 1248 N 121.337 -4.31541 3.60178 0
M  V30 1249 H 113.488 -0.796294 1.96908 0
M  V30 1250 H 115.751 -0.412597 0.853503 0
M  V30 1251 H 115.457 -2.04147 2.86386 0
M  V30 1252 H 115.331 -3.36042 1.71334 0
M  V30 1253 H 117.718 -2.81524 0.884769 0
M  V30 1254 H 117.799 -1.5035 2.06951 0
M  V30 1255 H 117.443 -3.20268 3.94196 0
M  V30 1256 H 117.373 -4.50445 2.72776 0
M  V30 1257 H 119.864 -3.00496 2.29152 0
M  V30 1258 H 120.177 -5.74578 5.16797 0
M  V30 1259 H 118.522 -5.17199 4.64253 0
M  V30 1260 H 121.713 -3.67051 2.90502 0
M  V30 1261 H 121.886 -4.9205 4.21653 0
M  V30 1262 N 115.292 -0.849877 -1.32721 0
M  V30 1263 C 116.24 -0.279745 -2.30912 0
M  V30 1264 C 117.234 0.594278 -1.58634 0
M  V30 1265 O 118.44 0.482613 -1.73409 0
M  V30 1266 H 114.815 -0.0717521 -0.748569 0
M  V30 1267 H 116.786 -1.12222 -2.76494 0
M  V30 1268 C 115.535 0.521108 -3.43773 0
M  V30 1269 H 114.858 -0.142141 -3.99547 0
M  V30 1270 H 116.298 0.885693 -4.14646 0
M  V30 1271 C 114.757 1.70442 -2.90605 0
M  V30 1272 O 115.287 2.8034 -2.87702 0
M  V30 1273 N 113.493 1.52991 -2.47067 0
M  V30 1274 H 113.04 0.635914 -2.49628 0
M  V30 1275 H 112.998 2.32311 -2.11847 0
M  V30 1276 N 116.77 1.45427 -0.607355 0
M  V30 1277 C 117.702 2.2871 0.149752 0
M  V30 1278 C 118.715 1.39937 0.831958 0
M  V30 1279 O 119.904 1.64313 0.697385 0
M  V30 1280 C 117.004 3.15673 1.23304 0
M  V30 1281 C 116.177 4.32722 0.637996 0
M  V30 1282 C 115.236 5.00895 1.61215 0
M  V30 1283 O 114.262 5.57697 1.13854 0
M  V30 1284 N 115.464 5.00159 2.94655 0
M  V30 1285 H 118.229 2.94328 -0.564882 0
M  V30 1286 H 115.79 1.55612 -0.446823 0
M  V30 1287 H 117.782 3.58144 1.88454 0
M  V30 1288 H 116.352 2.51965 1.8502 0
M  V30 1289 H 115.572 3.93734 -0.191572 0
M  V30 1290 H 116.86 5.08321 0.220665 0
M  V30 1291 H 116.258 4.553 3.35735 0
M  V30 1292 H 114.815 5.46495 3.55228 0
M  V30 1293 O 118.287 0.488689 1.53929 0
M  V30 1294 H 118.978 -0.0321274 1.93673 0
M  V30 END ATOM
M  V30 BEGIN BOND
M  V30 END BOND
M  V30 END CTAB
M  END
$$$$
