drugbank_target|P24474 Nitrite reductase (DB03317; DB03469)
 OpenBabel12092119583D

  0  0  0     0  0            999 V3000
M  V30 BEGIN CTAB
M  V30 COUNTS 8819 8928 0 0 0
M  V30 BEGIN ATOM
M  V30 1 H -0.908 1.98254 -0.117106 0
M  V30 2 N 0 1.576 0 0
M  V30 3 C 0.933 2.03868 1.02534 0
M  V30 4 C 1.911 0.928543 1.3348 0
M  V30 5 O 3.095 1.19667 1.45644 0
M  V30 6 C 0.222 2.43627 2.35294 0
M  V30 7 C -0.732 3.65373 2.2001 0
M  V30 8 S 0.101 5.13292 1.52614 0
M  V30 9 C 1.257 5.56322 2.86805 0
M  V30 10 H 1.49 2.90518 0.631377 0
M  V30 11 H -0.977 1.52953 0.210867 0
M  V30 12 H 0.981 2.67203 3.11629 0
M  V30 13 H -0.358 1.57376 2.7183 0
M  V30 14 H -1.165 3.90944 3.18086 0
M  V30 15 H -1.563 3.418 1.51819 0
M  V30 16 H 0.729 5.58782 3.83104 0
M  V30 17 H 1.672 6.56266 2.65933 0
M  V30 18 H 2.08 4.83886 2.90714 0
M  V30 19 N 1.4781 -0.272755 1.55222 0
M  V30 20 C 2.8891 -0.84378 1.66545 0
M  V30 21 C 3.2401 -1.87035 0.592641 0
M  V30 22 O 2.3651 -2.14761 -0.265818 0
M  V30 23 C 2.9601 -1.53723 3.01918 0
M  V30 24 C 1.5191 -2.05628 3.15268 0
M  V30 25 C 0.6661 -0.898424 2.62343 0
M  V30 26 H 3.6171 -0.0490998 1.58624 0
M  V30 27 H 3.6381 -2.40421 2.94921 0
M  V30 28 H 3.1501 -0.78983 3.79978 0
M  V30 29 H 1.2511 -2.83329 2.41983 0
M  V30 30 H 1.3641 -2.27142 4.21833 0
M  V30 31 H -0.2719 -1.29186 2.19506 0
M  V30 32 H 0.5111 -0.164528 3.42906 0
M  V30 33 N 2.9562 -1.48159 -0.537278 0
M  V30 34 C 4.2032 -1.55804 -1.29349 0
M  V30 35 C 4.5312 -0.228802 -1.9315 0
M  V30 36 O 3.7862 0.780242 -1.79473 0
M  V30 37 C 4.0852 -2.63956 -2.40961 0
M  V30 38 C 3.7512 -4.0662 -1.94861 0
M  V30 39 C 2.4132 -4.45452 -1.82006 0
M  V30 40 C 4.7652 -4.96055 -1.59933 0
M  V30 41 C 2.0932 -5.71531 -1.32547 0
M  V30 42 C 4.4452 -6.22617 -1.11939 0
M  V30 43 C 3.1092 -6.60312 -0.976951 0
M  V30 44 H 2.3792 -0.570129 -0.473322 0
M  V30 45 H 5.0262 -1.81845 -0.600372 0
M  V30 46 H 3.3312 -2.31747 -3.15912 0
M  V30 47 H 5.0282 -2.67089 -2.99107 0
M  V30 48 H 1.6182 -3.75949 -2.05815 0
M  V30 49 H 5.8022 -4.66738 -1.68728 0
M  V30 50 H 1.0582 -5.99468 -1.202 0
M  V30 51 H 5.2322 -6.91318 -0.839811 0
M  V30 52 H 2.8592 -7.57895 -0.591501 0
M  V30 53 N 4.4343 0.785586 -1.36625 0
M  V30 54 C 5.6823 1.54057 -1.30808 0
M  V30 55 C 6.0033 1.94683 0.111157 0
M  V30 56 O 5.2733 1.65241 1.05224 0
M  V30 57 H 3.8533 0.571354 -0.481211 0
M  V30 58 H 6.5153 0.935821 -1.70963 0
M  V30 59 H 5.6113 2.44637 -1.93801 0
M  V30 60 N 5.9124 1.20967 1.01018 0
M  V30 61 C 6.8594 0.964281 2.09691 0
M  V30 62 C 7.8294 -0.107853 1.65749 0
M  V30 63 O 9.0144 0.0381987 1.90762 0
M  V30 64 C 6.1544 0.52943 3.41015 0
M  V30 65 C 5.2674 1.67043 3.98398 0
M  V30 66 C 4.4024 1.18525 5.17808 0
M  V30 67 C 3.4414 2.29892 5.67288 0
M  V30 68 N 2.5784 1.82546 6.77954 0
M  V30 69 H 7.4184 1.89463 2.30017 0
M  V30 70 H 4.9554 0.944289 1.1279 0
M  V30 71 H 6.9134 0.258588 4.16398 0
M  V30 72 H 5.5434 -0.363919 3.20742 0
M  V30 73 H 4.5954 2.05603 3.20049 0
M  V30 74 H 5.9074 2.50877 4.31117 0
M  V30 75 H 5.0614 0.870762 6.00419 0
M  V30 76 H 3.8004 0.316887 4.86669 0
M  V30 77 H 2.8054 2.6215 4.83278 0
M  V30 78 H 4.0304 3.17216 6.00459 0
M  V30 79 H 1.9764 0.980454 6.48632 0
M  V30 80 H 1.8934 2.59956 7.09901 0
M  V30 81 H 3.1614 1.54115 7.64113 0
M  V30 82 N 7.3905 -1.2043 1.01659 0
M  V30 83 C 8.8015 -1.71517 0.737482 0
M  V30 84 C 9.1525 -1.81547 -0.743973 0
M  V30 85 O 8.2775 -1.47803 -1.58061 0
M  V30 86 C 8.8725 -3.11515 1.33206 0
M  V30 87 C 7.4315 -3.59912 1.10183 0
M  V30 88 C 6.5785 -2.37116 1.43776 0
M  V30 89 H 9.5295 -1.05444 1.18606 0
M  V30 90 H 9.5505 -3.73575 0.722636 0
M  V30 91 H 9.0625 -3.04182 2.41028 0
M  V30 92 H 7.1635 -3.72577 0.0412756 0
M  V30 93 H 7.2765 -4.44731 1.78188 0
M  V30 94 H 5.6405 -2.39857 0.856778 0
M  V30 95 H 6.4235 -2.32424 2.52654 0
M  V30 96 N 8.8686 -0.792821 -1.36206 0
M  V30 97 C 9.7986 -0.207853 -2.32573 0
M  V30 98 C 10.7796 0.659055 -1.56813 0
M  V30 99 O 11.9646 0.592176 -1.84951 0
M  V30 100 C 9.0946 0.655449 -3.41059 0
M  V30 101 C 8.0486 -0.111842 -4.27854 0
M  V30 102 C 7.3746 0.872274 -5.27537 0
M  V30 103 C 8.6746 -1.30299 -5.05786 0
M  V30 104 H 10.3686 -1.01294 -2.81744 0
M  V30 105 H 7.9146 -0.48854 -1.3546 0
M  V30 106 H 9.8676 1.07464 -4.07467 0
M  V30 107 H 8.5916 1.49328 -2.90463 0
M  V30 108 H 7.2506 -0.512053 -3.63006 0
M  V30 109 H 6.8986 1.70523 -4.73214 0
M  V30 110 H 6.5986 0.363291 -5.86476 0
M  V30 111 H 8.1226 1.28996 -5.96818 0
M  V30 112 H 9.5366 -0.959379 -5.65216 0
M  V30 113 H 7.9336 -1.7455 -5.74154 0
M  V30 114 H 9.0036 -2.09663 -4.37229 0
M  V30 115 N 10.3467 1.47872 -0.545128 0
M  V30 116 C 11.5927 2.02793 -0.0166104 0
M  V30 117 C 11.9257 1.41987 1.32489 0
M  V30 118 O 11.2007 0.571045 1.85928 0
M  V30 119 C 11.4837 3.59989 0.0893294 0
M  V30 120 C 11.3367 4.3125 -1.27841 0
M  V30 121 C 12.6557 4.32606 0.808724 0
M  V30 122 H 9.7747 0.736962 -0.00751035 0
M  V30 123 H 12.4167 1.76433 -0.705085 0
M  V30 124 H 10.5667 3.82579 0.675681 0
M  V30 125 H 12.2387 4.20035 -1.90704 0
M  V30 126 H 10.4817 3.92076 -1.85632 0
M  V30 127 H 11.1527 5.39736 -1.15713 0
M  V30 128 H 13.6287 4.14936 0.310992 0
M  V30 129 H 12.5047 5.42251 0.851782 0
M  V30 130 H 12.7657 4.00963 1.86229 0
M  V30 131 N 11.8248 0.280983 1.55075 0
M  V30 132 C 13.0728 -0.333455 1.9933 0
M  V30 133 C 13.3938 -1.55937 1.17085 0
M  V30 134 O 12.6638 -1.94143 0.261805 0
M  V30 135 H 11.2438 -0.126197 0.736263 0
M  V30 136 H 13.9058 0.387678 1.91005 0
M  V30 137 H 13.0018 -0.619292 3.05894 0
M  V30 138 N 13.3029 -1.57598 0.00835791 0
M  V30 139 C 14.5309 -1.95214 -0.68549 0
M  V30 140 C 14.9459 -0.883706 -1.66841 0
M  V30 141 O 14.3029 0.136565 -1.81988 0
M  V30 142 C 14.3539 -3.32865 -1.41007 0
M  V30 143 O 14.0749 -4.35609 -0.466552 0
M  V30 144 C 15.5759 -3.84991 -2.19765 0
M  V30 145 H 12.7959 -0.643422 -0.190392 0
M  V30 146 H 15.3399 -2.04406 0.0619607 0
M  V30 147 H 13.4949 -3.24956 -2.10908 0
M  V30 148 H 13.9089 -5.15288 -0.978699 0
M  V30 149 H 15.3829 -4.8371 -2.65948 0
M  V30 150 H 15.8599 -3.18137 -3.02796 0
M  V30 151 H 16.4659 -3.96103 -1.54864 0
M  V30 152 N 14.781 0.264519 -1.55364 0
M  V30 153 C 15.711 1.33121 -1.91836 0
M  V30 154 C 16.692 1.51101 -0.781192 0
M  V30 155 O 17.877 1.64003 -1.04003 0
M  V30 156 C 15.007 2.68921 -2.19769 0
M  V30 157 C 13.961 2.65661 -3.35571 0
M  V30 158 C 13.287 4.05093 -3.49004 0
M  V30 159 C 14.587 2.24187 -4.71739 0
M  V30 160 H 16.281 1.02844 -2.81182 0
M  V30 161 H 13.827 0.493286 -1.35287 0
M  V30 162 H 15.78 3.43663 -2.43872 0
M  V30 163 H 14.504 3.00799 -1.27231 0
M  V30 164 H 13.163 1.93377 -3.1145 0
M  V30 165 H 12.811 4.34206 -2.53917 0
M  V30 166 H 12.511 4.03804 -4.26868 0
M  V30 167 H 14.035 4.81561 -3.75408 0
M  V30 168 H 15.449 2.88654 -4.9533 0
M  V30 169 H 13.846 2.34044 -5.52579 0
M  V30 170 H 14.916 1.19327 -4.69988 0
M  V30 171 N 16.2591 1.48442 0.529413 0
M  V30 172 C 17.1891 1.65902 1.64313 0
M  V30 173 C 18.1701 0.507897 1.6234 0
M  V30 174 O 19.3551 0.740503 1.79528 0
M  V30 175 C 16.4851 1.69911 3.02898 0
M  V30 176 C 15.4391 2.8453 3.19729 0
M  V30 177 C 14.7651 2.73629 4.59381 0
M  V30 178 C 16.0651 4.25821 3.02447 0
M  V30 179 H 17.7591 2.5914 1.49955 0
M  V30 180 H 15.3051 1.24709 0.719982 0
M  V30 181 H 17.2581 1.80715 3.80684 0
M  V30 182 H 15.9821 0.732524 3.18279 0
M  V30 183 H 14.6411 2.73283 2.44361 0
M  V30 184 H 14.2891 1.74938 4.71599 0
M  V30 185 H 13.9891 3.50541 4.71588 0
M  V30 186 H 15.5131 2.86401 5.39265 0
M  V30 187 H 16.9271 4.37898 3.70024 0
M  V30 188 H 15.3241 5.03735 3.26146 0
M  V30 189 H 16.3941 4.42244 1.98867 0
M  V30 190 N 17.7372 -0.778329 1.37039 0
M  V30 191 C 18.7002 -1.87301 1.32102 0
M  V30 192 C 19.7002 -1.59198 0.226405 0
M  V30 193 O 20.8902 -1.67403 0.481861 0
M  V30 194 C 18.0222 -3.24309 1.05055 0
M  V30 195 H 19.2152 -1.93093 2.29467 0
M  V30 196 H 16.7682 -0.977358 1.21973 0
M  V30 197 H 17.5032 -3.24196 0.0819373 0
M  V30 198 H 17.2882 -3.46098 1.84279 0
M  V30 199 H 18.7782 -4.04382 1.04234 0
M  V30 200 N 19.2153 -1.21501 -1.00376 0
M  V30 201 C 20.4403 -1.05977 -1.78279 0
M  V30 202 C 20.8653 0.385994 -1.84097 0
M  V30 203 O 20.2233 1.27849 -1.28547 0
M  V30 204 C 20.2713 -1.66302 -3.19963 0
M  V30 205 O 19.3753 -0.909333 -4.0225 0
M  V30 206 H 18.7163 -0.372906 -0.549397 0
M  V30 207 H 21.2463 -1.6107 -1.26165 0
M  V30 208 H 21.2563 -1.70574 -3.70632 0
M  V30 209 H 19.9313 -2.71515 -3.15043 0
M  V30 210 H 18.5083 -0.941795 -3.60811 0
M  V30 211 N 20.6934 1.19889 -1.02296 0
M  V30 212 C 21.6234 2.25141 -0.619174 0
M  V30 213 C 22.6044 1.66051 0.368915 0
M  V30 214 O 23.7894 1.92546 0.252941 0
M  V30 215 C 20.9194 3.4728 0.0368783 0
M  V30 216 C 19.8734 4.19005 -0.872865 0
M  V30 217 C 19.1994 5.34637 -0.0822402 0
M  V30 218 C 20.4994 4.74452 -2.18387 0
M  V30 219 H 22.1934 2.59171 -1.49903 0
M  V30 220 H 19.7394 1.24579 -0.722222 0
M  V30 221 H 21.6924 4.20098 0.330958 0
M  V30 222 H 20.4164 3.12433 0.95149 0
M  V30 223 H 19.0754 3.48061 -1.15105 0
M  V30 224 H 18.7234 4.96034 0.83422 0
M  V30 225 H 18.4234 5.83557 -0.688149 0
M  V30 226 H 19.9474 6.10255 0.205238 0
M  V30 227 H 21.3614 5.39055 -1.95172 0
M  V30 228 H 19.7584 5.33834 -2.74119 0
M  V30 229 H 20.8284 3.92844 -2.84257 0
M  V30 230 N 22.1715 0.800033 1.35784 0
M  V30 231 C 23.3995 0.389606 2.03199 0
M  V30 232 C 23.8145 -0.997375 1.60306 0
M  V30 233 O 23.1715 -1.64154 0.797481 0
M  V30 234 C 23.2225 0.455855 3.58614 0
M  V30 235 O 22.9435 1.78815 3.99946 0
M  V30 236 C 24.4445 0.0374032 4.43284 0
M  V30 237 H 21.6645 0.159132 0.651857 0
M  V30 238 H 24.2085 1.08183 1.73541 0
M  V30 239 H 22.3635 -0.188057 3.86943 0
M  V30 240 H 22.7775 1.74636 4.94573 0
M  V30 241 H 24.2515 0.134882 5.51835 0
M  V30 242 H 24.7285 -1.01651 4.27275 0
M  V30 243 H 25.3345 0.654215 4.20238 0
M  V30 244 N 23.6496 -1.47581 0.552962 0
M  V30 245 C 24.5796 -2.32762 -0.185451 0
M  V30 246 C 25.5606 -1.43527 -0.912905 0
M  V30 247 O 26.7456 -1.72388 -0.894201 0
M  V30 248 C 23.8756 -3.25219 -1.21859 0
M  V30 249 C 22.8296 -4.23661 -0.607864 0
M  V30 250 C 22.1556 -5.05413 -1.74533 0
M  V30 251 C 23.4556 -5.20481 0.435582 0
M  V30 252 H 25.1496 -2.94749 0.525684 0
M  V30 253 H 22.6956 -1.41738 0.254251 0
M  V30 254 H 24.6486 -3.8365 -1.7433 0
M  V30 255 H 23.3726 -2.61279 -1.95961 0
M  V30 256 H 22.0316 -3.66451 -0.104489 0
M  V30 257 H 21.6796 -4.3788 -2.47529 0
M  V30 258 H 21.3796 -5.72059 -1.34249 0
M  V30 259 H 22.9036 -5.66701 -2.27338 0
M  V30 260 H 24.3176 -5.733 -0.00290157 0
M  V30 261 H 22.7146 -5.95305 0.757067 0
M  V30 262 H 23.7846 -4.66217 1.33303 0
M  V30 263 N 25.1277 -0.289203 -1.54924 0
M  V30 264 C 26.0577 0.58549 -2.2604 0
M  V30 265 C 27.0387 1.14753 -1.25562 0
M  V30 266 O 28.2237 1.17906 -1.54311 0
M  V30 267 C 25.3537 1.76305 -2.99222 0
M  V30 268 C 24.3077 1.33191 -4.06748 0
M  V30 269 C 23.6337 2.5937 -4.6758 0
M  V30 270 C 24.9337 0.471775 -5.20165 0
M  V30 271 H 26.6277 -0.00763532 -2.99399 0
M  V30 272 H 24.1737 -0.00511229 -1.43999 0
M  V30 273 H 26.1267 2.38097 -3.47689 0
M  V30 274 H 24.8507 2.38223 -2.23422 0
M  V30 275 H 23.5097 0.737121 -3.59113 0
M  V30 276 H 23.1577 3.19576 -3.88433 0
M  V30 277 H 22.8577 2.31228 -5.40192 0
M  V30 278 H 24.3817 3.21985 -5.18804 0
M  V30 279 H 25.7957 0.995056 -5.64599 0
M  V30 280 H 24.1927 0.284639 -5.99425 0
M  V30 281 H 25.2627 -0.506041 -4.82252 0
M  V30 282 N 26.6058 1.57591 -0.0167156 0
M  V30 283 C 27.8538 1.90906 0.663285 0
M  V30 284 C 28.1748 0.892509 1.73376 0
M  V30 285 O 27.4448 -0.0677623 1.95783 0
M  V30 286 H 26.0248 0.704637 0.247983 0
M  V30 287 H 28.6868 1.94803 -0.0615909 0
M  V30 288 H 27.7828 2.9116 1.12393 0
M  V30 289 N 28.0839 -0.256276 1.55502 0
M  V30 290 C 29.0139 -1.32102 1.92539 0
M  V30 291 C 29.9949 -1.50684 0.789194 0
M  V30 292 O 31.1799 -1.63449 1.04872 0
M  V30 293 C 28.3099 -2.67752 2.21192 0
M  V30 294 C 27.2639 -2.63878 3.36975 0
M  V30 295 C 26.5899 -4.03236 3.51147 0
M  V30 296 C 27.8899 -2.21682 4.72921 0
M  V30 297 H 29.5839 -1.01351 2.81724 0
M  V30 298 H 27.1299 -0.486105 1.35547 0
M  V30 299 H 29.0829 -3.42365 2.45691 0
M  V30 300 H 27.8069 -3.0012 1.28824 0
M  V30 301 H 26.4659 -1.91722 3.12471 0
M  V30 302 H 26.1139 -4.32854 2.56216 0
M  V30 303 H 25.8139 -4.01535 4.29003 0
M  V30 304 H 27.3379 -4.79563 3.77957 0
M  V30 305 H 28.7519 -2.86023 4.96854 0
M  V30 306 H 27.1489 -2.3111 5.53812 0
M  V30 307 H 28.2189 -1.16833 4.70615 0
M  V30 308 N 29.562 -1.4872 -0.521534 0
M  V30 309 C 30.525 -1.63379 -1.60748 0
M  V30 310 C 31.525 -0.50661 -1.52611 0
M  V30 311 O 32.715 -0.772601 -1.5613 0
M  V30 312 C 29.847 -1.61192 -3.00383 0
M  V30 313 H 31.04 -2.60217 -1.49087 0
M  V30 314 H 28.593 -1.37444 -0.744235 0
M  V30 315 H 29.328 -0.65863 -3.17541 0
M  V30 316 H 29.113 -2.43032 -3.07698 0
M  V30 317 H 30.603 -1.7466 -3.7932 0
M  V30 318 N 31.0401 0.771051 -1.3745 0
M  V30 319 C 32.2681 1.56015 -1.35893 0
M  V30 320 C 32.6831 1.88718 0.0555523 0
M  V30 321 O 32.0401 1.51502 1.01752 0
M  V30 322 C 32.0911 2.87001 -2.19801 0
M  V30 323 O 31.8121 2.557 -3.55738 0
M  V30 324 C 33.3131 3.81228 -2.26231 0
M  V30 325 H 30.5331 0.483317 -0.465453 0
M  V30 326 H 33.0771 0.955611 -1.80799 0
M  V30 327 H 31.2321 3.43877 -1.78402 0
M  V30 328 H 31.6461 3.39584 -3.99729 0
M  V30 329 H 33.1201 4.70139 -2.89263 0
M  V30 330 H 33.5971 4.20409 -1.27093 0
M  V30 331 H 34.2031 3.30281 -2.67945 0
M  V30 332 N 32.5182 1.22032 0.997298 0
M  V30 333 C 33.4812 0.987909 2.06816 0
M  V30 334 C 34.4812 -0.0440084 1.6074 0
M  V30 335 O 35.6712 0.194053 1.73116 0
M  V30 336 C 32.8032 0.49132 3.37341 0
M  V30 337 H 33.9962 1.93803 2.28868 0
M  V30 338 H 31.5492 1.03838 1.16822 0
M  V30 339 H 32.2842 -0.463364 3.20973 0
M  V30 340 H 32.0692 1.23575 3.72118 0
M  V30 341 H 33.5592 0.348824 4.16141 0
M  V30 342 N 33.9963 -1.19345 1.0293 0
M  V30 343 C 34.9463 -2.20472 0.58104 0
M  V30 344 C 35.9303 -1.56578 -0.370442 0
M  V30 345 O 37.1223 -1.75963 -0.191344 0
M  V30 346 C 34.2513 -3.43236 -0.066306 0
M  V30 347 C 33.3373 -4.14274 0.907642 0
M  V30 348 N 33.7283 -4.61492 2.07023 0
M  V30 349 C 32.0263 -4.39966 0.731177 0
M  V30 350 C 32.7273 -5.1605 2.68454 0
M  V30 351 N 31.7033 -5.06875 1.96414 0
M  V30 352 H 35.5053 -2.54659 1.46717 0
M  V30 353 H 33.0193 -1.35423 0.896345 0
M  V30 354 H 35.0163 -4.14927 -0.405068 0
M  V30 355 H 33.6763 -3.10549 -0.948118 0
M  V30 356 H 34.6873 -4.56304 2.44963 0
M  V30 357 H 31.3643 -4.17377 -0.101507 0
M  V30 358 H 32.7543 -5.6287 3.66915 0
M  V30 359 N 35.4744 -0.807222 -1.35358 0
M  V30 360 C 36.4374 -0.223665 -2.28106 0
M  V30 361 C 37.4374 0.589354 -1.4961 0
M  V30 362 O 38.6274 0.407745 -1.69361 0
M  V30 363 C 35.7594 0.688149 -3.33882 0
M  V30 364 H 36.9524 -1.04169 -2.81227 0
M  V30 365 H 34.5054 -0.577921 -1.45223 0
M  V30 366 H 35.2404 1.52984 -2.85948 0
M  V30 367 H 35.0254 0.10687 -3.91954 0
M  V30 368 H 36.5154 1.09075 -4.03104 0
M  V30 369 N 36.9525 1.47285 -0.560781 0
M  V30 370 C 37.8995 2.30058 0.18491 0
M  V30 371 C 38.8695 1.39281 0.904986 0
M  V30 372 O 40.0545 1.68241 0.899979 0
M  V30 373 C 37.1945 3.23317 1.20666 0
M  V30 374 C 36.3075 4.29186 0.492285 0
M  V30 375 C 35.4425 5.09592 1.49964 0
M  V30 376 C 34.4815 6.07232 0.770439 0
M  V30 377 N 33.6185 6.80584 1.72479 0
M  V30 378 H 38.4585 2.93302 -0.527048 0
M  V30 379 H 35.9955 1.44568 -0.271738 0
M  V30 380 H 37.9535 3.75811 1.81168 0
M  V30 381 H 36.5835 2.61929 1.88661 0
M  V30 382 H 35.6355 3.7972 -0.227333 0
M  V30 383 H 36.9475 4.98738 -0.0787929 0
M  V30 384 H 36.1015 5.66254 2.17809 0
M  V30 385 H 34.8405 4.3995 2.10464 0
M  V30 386 H 33.8455 5.49745 0.0780846 0
M  V30 387 H 35.0705 6.78884 0.171134 0
M  V30 388 H 33.0165 6.1367 2.3183 0
M  V30 389 H 32.9335 7.46319 1.20596 0
M  V30 390 H 34.2015 7.41818 2.39428 0
M  V30 391 N 38.4306 0.297415 1.54768 0
M  V30 392 C 39.7076 -0.365847 1.92148 0
M  V30 393 C 40.0876 -1.71975 1.22424 0
M  V30 394 O 39.4356 -2.25666 0.358739 0
M  V30 395 C 39.6456 -0.484056 3.45627 0
M  V30 396 C 40.9936 -0.756594 4.17805 0
M  V30 397 O 42.0176 -0.568007 3.51642 0
M  V30 398 O 40.8766 -1.11863 5.34929 0
M  V30 399 H 37.9706 -0.203919 0.801465 0
M  V30 400 H 40.5166 0.34521 1.66152 0
M  V30 401 H 39.2886 0.467865 3.88493 0
M  V30 402 H 38.9116 -1.24372 3.77647 0
M  V30 403 N 39.9087 -1.5758 0.0250728 0
M  V30 404 C 41.1857 -1.82917 -0.692873 0
M  V30 405 C 41.5657 -0.908137 -1.90568 0
M  V30 406 O 40.9137 0.0372298 -2.2847 0
M  V30 407 C 41.1237 -3.32034 -1.07492 0
M  V30 408 C 42.4717 -3.98406 -1.46826 0
M  V30 409 O 43.4957 -3.36505 -1.16801 0
M  V30 410 O 42.3547 -5.07497 -2.02754 0
M  V30 411 H 39.4487 -0.754079 -0.33955 0
M  V30 412 H 41.9947 -1.69619 0.0524456 0
M  V30 413 H 40.7667 -3.90728 -0.211552 0
M  V30 414 H 40.3897 -3.50424 -1.87854 0
M  V30 415 N 41.3868 0.248026 -1.55636 0
M  V30 416 C 42.3198 1.3334 -1.85191 0
M  V30 417 C 43.2978 1.46429 -0.706906 0
M  V30 418 O 44.4818 1.62662 -0.952544 0
M  V30 419 C 41.6088 2.70703 -2.03562 0
M  V30 420 C 40.6548 2.7477 -3.26196 0
M  V30 421 S 41.4878 2.31493 -4.82878 0
M  V30 422 C 42.6438 3.70783 -5.04253 0
M  V30 423 H 42.8768 1.08072 -2.76962 0
M  V30 424 H 40.4098 0.448952 -1.47729 0
M  V30 425 H 42.3678 3.49798 -2.1483 0
M  V30 426 H 41.0288 2.9321 -1.12635 0
M  V30 427 H 40.2218 3.75648 -3.36013 0
M  V30 428 H 39.8238 2.03719 -3.13647 0
M  V30 429 H 42.1158 4.6627 -4.91527 0
M  V30 430 H 43.0588 3.65901 -6.06236 0
M  V30 431 H 43.4668 3.63244 -4.32105 0
M  V30 432 N 42.8649 1.48995 0.513639 0
M  V30 433 C 43.8119 1.6473 1.61656 0
M  V30 434 C 44.7819 0.488984 1.58739 0
M  V30 435 O 45.9669 0.714478 1.76918 0
M  V30 436 C 43.1069 1.7082 2.99858 0
M  V30 437 C 42.2199 2.9787 3.12885 0
M  V30 438 C 41.3549 2.95017 4.41744 0
M  V30 439 C 40.3939 4.16702 4.48359 0
M  V30 440 N 39.5309 4.11832 5.68629 0
M  V30 441 H 44.3709 2.58909 1.47547 0
M  V30 442 H 41.9079 1.28382 0.71808 0
M  V30 443 H 43.8659 1.72331 3.79944 0
M  V30 444 H 42.4959 0.801181 3.12699 0
M  V30 445 H 41.5479 3.06029 2.25944 0
M  V30 446 H 42.8599 3.8786 3.13633 0
M  V30 447 H 42.0139 2.95021 5.30139 0
M  V30 448 H 40.7529 2.02784 4.43542 0
M  V30 449 H 39.7579 4.16955 3.58369 0
M  V30 450 H 40.9829 5.10113 4.48287 0
M  V30 451 H 38.9289 3.22428 5.71293 0
M  V30 452 H 38.8459 4.95543 5.7094 0
M  V30 453 H 40.1139 4.1592 6.59266 0
M  V30 454 N 44.343 -0.763751 1.37857 0
M  V30 455 C 45.306 -1.85889 1.34081 0
M  V30 456 C 46.306 -1.58949 0.243277 0
M  V30 457 O 47.496 -1.66882 0.499589 0
M  V30 458 C 44.628 -3.23176 1.08489 0
M  V30 459 H 45.821 -1.90648 2.31502 0
M  V30 460 H 43.374 -0.964367 1.23003 0
M  V30 461 H 44.109 -3.24091 0.116318 0
M  V30 462 H 43.894 -3.44124 1.8794 0
M  V30 463 H 45.384 -4.03254 1.08517 0
M  V30 464 N 45.8211 -1.22559 -0.990812 0
M  V30 465 C 46.7841 -0.998863 -2.0629 0
M  V30 466 C 47.7841 0.0354834 -1.60761 0
M  V30 467 O 48.9741 -0.203231 -1.7301 0
M  V30 468 C 46.1061 -0.509203 -3.37076 0
M  V30 469 H 47.2991 -1.95014 -2.27837 0
M  V30 470 H 44.8521 -1.04456 -1.16269 0
M  V30 471 H 45.5871 0.446335 -3.21214 0
M  V30 472 H 45.3721 -1.25547 -3.71457 0
M  V30 473 H 46.8621 -0.370888 -4.1595 0
M  V30 474 N 47.2992 1.18797 -1.03562 0
M  V30 475 C 48.2092 2.25913 -0.632505 0
M  V30 476 C 49.2252 1.70668 0.338882 0
M  V30 477 O 50.4012 2.00453 0.195076 0
M  V30 478 C 47.4662 3.467 0.00350942 0
M  V30 479 C 46.5272 4.17098 -1.01624 0
M  V30 480 C 45.7602 5.32119 -0.410478 0
M  V30 481 O 45.9832 5.64976 0.784725 0
M  V30 482 O 44.9172 5.9107 -1.13667 0
M  V30 483 H 48.7432 2.62648 -1.52478 0
M  V30 484 H 46.3282 1.25781 -0.806195 0
M  V30 485 H 48.2102 4.19878 0.35781 0
M  V30 486 H 46.8852 3.11798 0.869686 0
M  V30 487 H 45.7922 3.4601 -1.42224 0
M  V30 488 H 47.1252 4.55987 -1.85301 0
M  V30 489 N 48.7773 0.814389 1.34928 0
M  V30 490 C 49.7093 0.187834 2.28429 0
M  V30 491 C 50.7223 -0.617374 1.5064 0
M  V30 492 O 51.9113 -0.448454 1.72775 0
M  V30 493 C 49.0113 -0.755962 3.30361 0
M  V30 494 C 48.1843 0.00456686 4.374 0
M  V30 495 C 47.2433 -0.858876 5.19143 0
M  V30 496 O 46.2693 -0.306968 5.68372 0
M  V30 497 N 47.4713 -2.17988 5.38016 0
M  V30 498 H 50.2363 0.991105 2.82838 0
M  V30 499 H 47.7973 0.670561 1.4736 0
M  V30 500 H 49.7893 -1.338 3.81942 0
M  V30 501 H 48.3593 -1.46001 2.7641 0
M  V30 502 H 47.5793 0.767865 3.86649 0
M  V30 503 H 48.8673 0.528422 5.06049 0
M  V30 504 H 48.2653 -2.65212 4.99679 0
M  V30 505 H 46.8223 -2.71098 5.92747 0
M  V30 506 N 50.2554 -1.46986 0.568584 0
M  V30 507 C 51.4854 -2.0653 0.0539173 0
M  V30 508 C 51.8934 -1.42004 -1.25026 0
M  V30 509 O 51.2364 -0.514541 -1.76347 0
M  V30 510 C 51.2984 -3.58938 -0.200854 0
M  V30 511 C 50.9624 -4.45572 1.01559 0
M  V30 512 C 51.9594 -4.82986 1.92407 0
M  V30 513 C 49.6444 -4.8692 1.23346 0
M  V30 514 C 51.6384 -5.60559 3.03402 0
M  V30 515 C 49.3254 -5.64255 2.34649 0
M  V30 516 C 50.3234 -6.00986 3.24507 0
M  V30 517 O 50.0114 -6.76761 4.33878 0
M  V30 518 H 49.7434 -0.674292 0.0480234 0
M  V30 519 H 52.2974 -1.89812 0.784896 0
M  V30 520 H 50.5274 -3.73911 -0.986279 0
M  V30 521 H 52.2164 -4.0046 -0.662294 0
M  V30 522 H 52.9824 -4.51633 1.76785 0
M  V30 523 H 48.8614 -4.57789 0.543178 0
M  V30 524 H 52.4054 -5.89147 3.73565 0
M  V30 525 H 48.3024 -5.95021 2.5024 0
M  V30 526 H 49.0704 -6.95168 4.32068 0
M  V30 527 N 51.7335 -0.305618 -1.54608 0
M  V30 528 C 52.6655 0.602161 -2.21149 0
M  V30 529 C 53.6785 1.09394 -1.20569 0
M  V30 530 O 54.8675 1.0106 -1.47136 0
M  V30 531 C 51.9675 1.83692 -2.84799 0
M  V30 532 C 51.1405 1.48686 -4.11353 0
M  V30 533 C 50.1995 2.57725 -4.58764 0
M  V30 534 O 49.2255 2.22623 -5.23858 0
M  V30 535 N 50.4275 3.88346 -4.31471 0
M  V30 536 H 53.1925 0.0324966 -2.99682 0
M  V30 537 H 50.7535 -0.128021 -1.61393 0
M  V30 538 H 52.7455 2.55994 -3.13448 0
M  V30 539 H 51.3155 2.31486 -2.10078 0
M  V30 540 H 50.5355 0.596269 -3.89664 0
M  V30 541 H 51.8235 1.22842 -4.93748 0
M  V30 542 H 51.2215 4.19671 -3.79331 0
M  V30 543 H 49.7785 4.56932 -4.64818 0
M  V30 544 N 53.2116 1.57565 -0.0334293 0
M  V30 545 C 54.4596 1.91598 0.642999 0
M  V30 546 C 54.7806 0.910847 1.7242 0
M  V30 547 O 54.0506 -0.0469931 1.95844 0
M  V30 548 H 52.6306 0.707228 0.240496 0
M  V30 549 H 55.2926 1.94726 -0.0822488 0
M  V30 550 H 54.3886 2.92336 1.09298 0
M  V30 551 N 54.6897 -0.239769 1.55765 0
M  V30 552 C 55.6527 -1.28038 1.90103 0
M  V30 553 C 56.6527 -1.40723 0.778055 0
M  V30 554 O 57.8427 -1.39301 1.04599 0
M  V30 555 C 54.9747 -2.65702 2.13577 0
M  V30 556 H 56.1677 -0.988048 2.83157 0
M  V30 557 H 53.7207 -0.479382 1.48767 0
M  V30 558 H 54.4557 -3.00063 1.23015 0
M  V30 559 H 54.2407 -2.57875 2.95369 0
M  V30 560 H 55.7307 -3.40828 2.41301 0
M  V30 561 N 56.1678 -1.49265 -0.50573 0
M  V30 562 C 57.1308 -1.65075 -1.59006 0
M  V30 563 C 58.1308 -0.522768 -1.52065 0
M  V30 564 O 59.3208 -0.789117 -1.55302 0
M  V30 565 C 56.4528 -1.64369 -2.98656 0
M  V30 566 H 57.6458 -2.61784 -1.46319 0
M  V30 567 H 55.1988 -1.38226 -0.729616 0
M  V30 568 H 55.9338 -0.692272 -3.16825 0
M  V30 569 H 55.7188 -2.46282 -3.05103 0
M  V30 570 H 57.2088 -1.78674 -3.77446 0
M  V30 571 N 57.6459 0.756429 -1.3826 0
M  V30 572 C 58.8709 1.55077 -1.37717 0
M  V30 573 C 59.2959 1.88073 0.03164 0
M  V30 574 O 58.6539 1.50364 1.01293 0
M  V30 575 C 58.7019 2.8283 -2.23695 0
M  V30 576 O 57.8059 3.77862 -1.6521 0
M  V30 577 H 57.1469 0.469152 -0.469885 0
M  V30 578 H 59.6769 0.935019 -1.81985 0
M  V30 579 H 59.6869 3.31783 -2.37453 0
M  V30 580 H 58.3619 2.58144 -3.2609 0
M  V30 581 H 56.9389 3.36555 -1.60578 0
M  V30 582 N 59.124 1.23083 0.984299 0
M  V30 583 C 60.087 1.00979 2.05757 0
M  V30 584 C 61.087 -0.0269573 1.60777 0
M  V30 585 O 62.277 0.212403 1.729 0
M  V30 586 C 59.409 0.527072 3.36801 0
M  V30 587 H 60.602 1.9622 2.26799 0
M  V30 588 H 58.155 1.05072 1.15714 0
M  V30 589 H 58.89 -0.429294 3.21446 0
M  V30 590 H 58.675 1.27515 3.70786 0
M  V30 591 H 60.165 0.392942 4.15747 0
M  V30 592 N 60.6021 -1.18246 1.0419 0
M  V30 593 C 61.8481 -1.88536 0.747122 0
M  V30 594 C 62.1811 -1.80223 -0.723409 0
M  V30 595 O 61.4561 -1.20337 -1.52804 0
M  V30 596 C 61.7391 -3.38968 1.21544 0
M  V30 597 C 61.5921 -3.56084 2.74816 0
M  V30 598 C 62.9111 -4.32648 0.806482 0
M  V30 599 H 60.0301 -0.684619 0.272883 0
M  V30 600 H 62.6721 -1.39113 1.29413 0
M  V30 601 H 60.8221 -3.8119 0.750081 0
M  V30 602 H 62.4941 -3.22946 3.29399 0
M  V30 603 H 60.7371 -2.98699 3.14582 0
M  V30 604 H 61.4081 -4.61639 3.02644 0
M  V30 605 H 63.8841 -3.98211 1.20695 0
M  V30 606 H 62.7601 -5.36462 1.1619 0
M  V30 607 H 63.0211 -4.41146 -0.29029 0
M  V30 608 N 62.0802 -0.821533 -1.34494 0
M  V30 609 C 63.3572 -0.33159 -1.92769 0
M  V30 610 C 63.7372 1.18088 -1.74981 0
M  V30 611 O 63.0852 1.98733 -1.12772 0
M  V30 612 C 63.2952 -0.759398 -3.40638 0
M  V30 613 C 64.6432 -0.757433 -4.1779 0
M  V30 614 O 65.6672 -0.70189 -3.49216 0
M  V30 615 O 64.5262 -0.829361 -5.4017 0
M  V30 616 H 61.6202 -0.0902502 -0.822061 0
M  V30 617 H 64.1662 -0.906231 -1.43477 0
M  V30 618 H 62.9382 -1.8012 -3.47379 0
M  V30 619 H 62.5612 -0.160378 -3.97276 0
M  V30 620 N 63.5583 1.46682 -0.576371 0
M  V30 621 C 64.9693 1.86112 -0.148091 0
M  V30 622 C 65.3203 1.48073 1.2872 0
M  V30 623 O 64.4453 0.892656 1.97131 0
M  V30 624 C 65.0403 3.37786 -0.261982 0
M  V30 625 C 63.5993 3.76235 0.111384 0
M  V30 626 C 62.7463 2.70713 -0.60083 0
M  V30 627 H 65.6973 1.37927 -0.78497 0
M  V30 628 H 65.7183 3.77007 0.514364 0
M  V30 629 H 65.2303 3.6544 -1.30671 0
M  V30 630 H 63.3313 3.54198 1.15649 0
M  V30 631 H 63.4443 4.78391 -0.26052 0
M  V30 632 H 61.8083 2.54666 -0.0417783 0
M  V30 633 H 62.5913 3.01208 -1.64708 0
M  V30 634 N 65.0364 0.313813 1.54444 0
M  V30 635 C 65.9994 -0.54379 2.22656 0
M  V30 636 C 66.9994 -1.05124 1.21678 0
M  V30 637 O 68.1894 -0.945225 1.46325 0
M  V30 638 C 65.3214 -1.75427 2.92298 0
M  V30 639 H 66.5144 0.0523599 2.99854 0
M  V30 640 H 64.0674 0.0647834 1.56166 0
M  V30 641 H 64.8024 -2.38991 2.19211 0
M  V30 642 H 64.5874 -1.39791 3.66334 0
M  V30 643 H 66.0774 -2.36325 3.44297 0
M  V30 644 N 66.5145 -1.57545 0.0417849 0
M  V30 645 C 67.4645 -2.07483 -0.945247 0
M  V30 646 C 68.4485 -0.977983 -1.27767 0
M  V30 647 O 69.6405 -1.24142 -1.26166 0
M  V30 648 C 66.7695 -2.61576 -2.22335 0
M  V30 649 C 65.8555 -3.78213 -1.91874 0
M  V30 650 N 66.2465 -4.88344 -1.31733 0
M  V30 651 C 64.5445 -3.8694 -2.21796 0
M  V30 652 C 65.2455 -5.69462 -1.1869 0
M  V30 653 N 64.2215 -5.16771 -1.68666 0
M  V30 654 H 68.0235 -2.90029 -0.475441 0
M  V30 655 H 65.5375 -1.61581 -0.162911 0
M  V30 656 H 67.5345 -2.95651 -2.93932 0
M  V30 657 H 66.1945 -1.80465 -2.69931 0
M  V30 658 H 67.2055 -5.08335 -0.990729 0
M  V30 659 H 63.8825 -3.16757 -2.71977 0
M  V30 660 H 65.2725 -6.68023 -0.720793 0
M  V30 661 N 67.9926 0.231505 -1.5589 0
M  V30 662 C 69.2386 0.95877 -1.78705 0
M  V30 663 C 69.5716 1.8438 -0.609725 0
M  V30 664 O 68.8466 1.90521 0.391426 0
M  V30 665 C 69.1296 1.8062 -3.11526 0
M  V30 666 C 68.9826 0.948328 -4.39689 0
M  V30 667 C 70.3016 2.78585 -3.40703 0
M  V30 668 H 67.4206 0.347129 -0.650131 0
M  V30 669 H 70.0626 0.228259 -1.88624 0
M  V30 670 H 68.2126 2.42902 -3.03201 0
M  V30 671 H 69.8846 0.343016 -4.60023 0
M  V30 672 H 68.1276 0.253314 -4.3306 0
M  V30 673 H 68.7986 1.57543 -5.29041 0
M  V30 674 H 71.2746 2.26439 -3.49091 0
M  V30 675 H 70.1506 3.34988 -4.34826 0
M  V30 676 H 70.4116 3.55825 -2.62375 0
M  V30 677 N 69.4707 1.49531 0.497807 0
M  V30 678 C 70.7167 1.59415 1.25358 0
M  V30 679 C 71.0497 0.281422 1.9215 0
M  V30 680 O 70.3247 -0.715249 1.80871 0
M  V30 681 C 70.6077 2.75566 2.3181 0
M  V30 682 C 70.4607 4.16642 1.69498 0
M  V30 683 C 71.7797 2.87347 3.33346 0
M  V30 684 H 68.8987 0.580244 0.454408 0
M  V30 685 H 71.5407 1.81827 0.551262 0
M  V30 686 H 69.6907 2.56587 2.91711 0
M  V30 687 H 71.3627 4.47145 1.13399 0
M  V30 688 H 69.6057 4.22141 0.998978 0
M  V30 689 H 70.2767 4.93792 2.46725 0
M  V30 690 H 72.7527 3.04634 2.83438 0
M  V30 691 H 71.6287 3.70289 4.05188 0
M  V30 692 H 71.8897 1.96834 3.95865 0
M  V30 693 N 70.9488 -0.749086 1.3866 0
M  V30 694 C 72.3648 -1.05276 1.19955 0
M  V30 695 C 72.5648 -2.01435 0.05134 0
M  V30 696 O 71.6208 -2.45232 -0.60147 0
M  V30 697 C 72.9338 -1.62853 2.52783 0
M  V30 698 C 74.4818 -1.75002 2.59506 0
M  V30 699 C 74.9568 -2.35991 3.92521 0
M  V30 700 N 76.4478 -2.43416 3.94085 0
M  V30 701 C 77.1828 -2.91511 4.9377 0
M  V30 702 N 76.6788 -3.39608 6.03853 0
M  V30 703 N 78.4718 -2.90592 4.81157 0
M  V30 704 H 70.6228 -0.111066 2.12109 0
M  V30 705 H 72.8858 -0.111901 0.941373 0
M  V30 706 H 72.5918 -0.99664 3.37283 0
M  V30 707 H 72.4658 -2.61854 2.715 0
M  V30 708 H 74.8528 -2.37317 1.75398 0
M  V30 709 H 74.9338 -0.74693 2.44652 0
M  V30 710 H 74.5778 -1.74308 4.77053 0
M  V30 711 H 74.5078 -3.3695 4.04688 0
M  V30 712 H 76.9988 -2.09405 3.14576 0
M  V30 713 H 77.3118 -3.74775 6.75843 0
M  V30 714 H 75.6568 -3.37653 6.07466 0
M  V30 715 H 78.8478 -2.52332 3.94267 0
M  V30 716 H 79.0208 -3.27762 5.58996 0
M  V30 717 N 72.4269 -1.23603 -0.977757 0
M  V30 718 C 73.6549 -1.09646 -1.75458 0
M  V30 719 C 74.0699 0.351859 -1.85492 0
M  V30 720 O 73.4269 1.24327 -1.336 0
M  V30 721 C 73.4779 -1.71895 -3.18016 0
M  V30 722 O 73.1989 -3.11063 -3.08498 0
M  V30 723 C 74.6999 -1.63415 -4.12081 0
M  V30 724 H 71.9199 -0.38359 -0.550545 0
M  V30 725 H 74.4639 -1.63507 -1.22824 0
M  V30 726 H 72.6189 -1.22061 -3.67668 0
M  V30 727 H 73.0329 -3.41305 -3.9826 0
M  V30 728 H 74.5069 -2.11669 -5.09804 0
M  V30 729 H 74.9839 -0.593462 -4.35172 0
M  V30 730 H 75.5899 -2.12628 -3.68334 0
M  V30 731 N 73.905 1.17692 -1.04816 0
M  V30 732 C 74.853 2.23632 -0.63966 0
M  V30 733 C 75.847 1.6601 0.337219 0
M  V30 734 O 77.053 1.78844 0.203693 0
M  V30 735 H 73.428 0.727949 -0.188665 0
M  V30 736 H 75.399 2.55387 -1.54337 0
M  V30 737 C 74.148 3.4769 -0.0264051 0
M  V30 738 H 73.471 3.92331 -0.769164 0
M  V30 739 H 74.911 4.23418 0.222098 0
M  V30 740 C 73.37 3.13807 1.22584 0
M  V30 741 O 73.9 3.28236 2.31569 0
M  V30 742 N 72.106 2.68065 1.12202 0
M  V30 743 H 71.653 2.56525 0.235133 0
M  V30 744 H 71.611 2.45767 1.96076 0
M  V30 745 N 75.3831 0.828654 1.34056 0
M  V30 746 C 76.6311 0.41863 1.97717 0
M  V30 747 C 76.9521 -1.02314 1.66002 0
M  V30 748 O 76.2221 -1.71119 0.953683 0
M  V30 749 H 74.8021 0.151809 0.731412 0
M  V30 750 H 77.4641 1.05936 1.63596 0
M  V30 751 H 76.5601 0.542318 3.07352 0
M  V30 752 N 76.8612 -1.46375 0.584142 0
M  V30 753 C 77.8242 -2.28784 -0.138108 0
M  V30 754 C 78.8242 -1.38471 -0.817462 0
M  V30 755 O 80.0142 -1.60833 -0.669199 0
M  V30 756 C 77.1462 -3.18892 -1.20503 0
M  V30 757 H 78.3392 -2.94117 0.586127 0
M  V30 758 H 75.8922 -1.52509 0.342171 0
M  V30 759 H 76.6272 -2.58309 -1.96079 0
M  V30 760 H 76.4122 -3.85388 -0.722384 0
M  V30 761 H 77.9022 -3.80914 -1.71155 0
M  V30 762 N 78.3393 -0.321999 -1.54275 0
M  V30 763 C 79.7503 0.166384 -1.85957 0
M  V30 764 C 80.1013 1.51747 -1.24367 0
M  V30 765 O 79.2263 2.09317 -0.549124 0
M  V30 766 C 79.8213 0.308681 -3.37391 0
M  V30 767 C 78.3803 0.741286 -3.69028 0
M  V30 768 C 77.5273 -0.137937 -2.76957 0
M  V30 769 H 80.4783 -0.542335 -1.49146 0
M  V30 770 H 80.4993 1.13984 -3.63026 0
M  V30 771 H 80.0113 -0.674809 -3.82188 0
M  V30 772 H 78.1123 1.73458 -3.29762 0
M  V30 773 H 78.2253 0.546118 -4.75977 0
M  V30 774 H 76.5893 0.386251 -2.51754 0
M  V30 775 H 77.3723 -1.11816 -3.2458 0
M  V30 776 N 79.8174 1.5752 -0.0501392 0
M  V30 777 C 81.0944 1.83996 0.663685 0
M  V30 778 C 81.4744 0.938339 1.89099 0
M  V30 779 O 80.8224 -0.00087759 2.285 0
M  V30 780 C 81.0324 3.33702 1.02196 0
M  V30 781 C 82.3804 4.00691 1.40469 0
M  V30 782 O 83.4044 3.38321 1.11433 0
M  V30 783 O 82.2634 5.10658 1.94654 0
M  V30 784 H 79.3574 0.759385 0.32751 0
M  V30 785 H 81.9034 1.69514 -0.0794238 0
M  V30 786 H 80.6754 3.91015 0.149364 0
M  V30 787 H 80.2984 3.53368 1.82255 0
M  V30 788 N 81.2955 -0.223234 1.56011 0
M  V30 789 C 82.2285 -1.30377 1.87289 0
M  V30 790 C 83.2065 -1.45286 0.730112 0
M  V30 791 O 84.3905 -1.61126 0.978302 0
M  V30 792 C 81.5175 -2.67431 2.07843 0
M  V30 793 C 80.5635 -2.69546 3.30526 0
M  V30 794 S 81.3965 -2.23781 4.865 0
M  V30 795 C 82.5525 -3.62714 5.10088 0
M  V30 796 H 82.7855 -1.03652 2.78646 0
M  V30 797 H 80.3185 -0.425393 1.48424 0
M  V30 798 H 82.2765 -3.46336 2.20368 0
M  V30 799 H 80.9375 -2.91381 1.17285 0
M  V30 800 H 80.1305 -3.70255 3.41947 0
M  V30 801 H 79.7325 -1.98703 3.16849 0
M  V30 802 H 82.0245 -4.58391 4.98883 0
M  V30 803 H 82.9675 -3.5621 6.11981 0
M  V30 804 H 83.3755 -3.56323 4.37829 0
M  V30 805 N 82.7736 -1.49793 -0.48987 0
M  V30 806 C 83.9986 -1.63836 -1.27172 0
M  V30 807 C 84.4236 -0.31402 -1.8546 0
M  V30 808 O 83.7816 0.719803 -1.66399 0
M  V30 809 C 83.8296 -2.71797 -2.36978 0
M  V30 810 O 82.9336 -2.31744 -3.41128 0
M  V30 811 H 82.2746 -0.547997 -0.37496 0
M  V30 812 H 84.8046 -1.96053 -0.585191 0
M  V30 813 H 84.8146 -2.94305 -2.82575 0
M  V30 814 H 83.4896 -3.67923 -1.93921 0
M  V30 815 H 82.0666 -2.1961 -3.01373 0
M  V30 816 N 84.2517 0.741722 -1.39055 0
M  V30 817 C 85.1617 1.88621 -1.39496 0
M  V30 818 C 86.1777 1.71557 -0.290578 0
M  V30 819 O 87.3537 1.94275 -0.530954 0
M  V30 820 C 84.4187 3.24134 -1.23037 0
M  V30 821 C 83.4797 3.5364 -2.43387 0
M  V30 822 C 82.7127 4.82687 -2.27703 0
M  V30 823 O 82.9357 5.55922 -1.27696 0
M  V30 824 O 81.8697 5.1194 -3.16545 0
M  V30 825 H 85.6957 1.91203 -2.35956 0
M  V30 826 H 83.2807 0.888625 -1.20099 0
M  V30 827 H 85.1627 4.0513 -1.15964 0
M  V30 828 H 83.8377 3.22337 -0.296691 0
M  V30 829 H 82.7447 2.72758 -2.56035 0
M  V30 830 H 84.0777 3.60209 -3.35425 0
M  V30 831 N 85.7298 1.2412 0.971189 0
M  V30 832 C 86.9548 1.10667 1.75407 0
M  V30 833 C 87.3798 -0.337048 1.85056 0
M  V30 834 O 86.7378 -1.24396 1.31892 0
M  V30 835 C 86.7858 1.74726 3.15441 0
M  V30 836 O 85.8898 1.01566 3.99697 0
M  V30 837 H 85.2308 0.387341 0.539317 0
M  V30 838 H 87.7608 1.64358 1.2185 0
M  V30 839 H 87.7708 1.80341 3.6598 0
M  V30 840 H 86.4458 2.79773 3.07734 0
M  V30 841 H 85.0228 1.03713 3.58187 0
M  V30 842 N 87.2079 -1.17134 1.05439 0
M  V30 843 C 88.1179 -2.24878 0.668365 0
M  V30 844 C 89.1339 -1.71186 -0.311687 0
M  V30 845 O 90.3099 -2.00738 -0.163161 0
M  V30 846 C 87.3749 -3.46662 0.051648 0
M  V30 847 C 86.4359 -4.15429 1.08246 0
M  V30 848 C 85.6689 -5.31399 0.495082 0
M  V30 849 O 85.8919 -5.66153 -0.694743 0
M  V30 850 O 84.8259 -5.89187 1.23056 0
M  V30 851 H 88.6519 -2.60189 1.56637 0
M  V30 852 H 86.2369 -1.24482 0.826104 0
M  V30 853 H 88.1189 -4.20394 -0.290966 0
M  V30 854 H 86.7939 -3.13142 -0.819971 0
M  V30 855 H 85.7009 -3.43704 1.47711 0
M  V30 856 H 87.0339 -4.52982 1.92532 0
M  V30 857 N 88.686 -0.835752 -1.33615 0
M  V30 858 C 89.933 -0.429959 -1.97883 0
M  V30 859 C 90.261 1.01006 -1.66217 0
M  V30 860 O 89.516 1.72047 -0.93265 0
M  V30 861 C 89.815 -0.593925 -3.52431 0
M  V30 862 C 89.481 -2.00158 -4.04039 0
M  V30 863 C 88.143 -2.38662 -4.17844 0
M  V30 864 C 90.495 -2.92117 -4.31644 0
M  V30 865 C 87.823 -3.68435 -4.56588 0
M  V30 866 C 90.175 -4.21368 -4.71838 0
M  V30 867 C 88.839 -4.59833 -4.83849 0
M  V30 868 H 88.109 -0.157333 -0.724104 0
M  V30 869 H 90.756 -1.06217 -1.59343 0
M  V30 870 H 89.061 0.121619 -3.91611 0
M  V30 871 H 90.758 -0.260282 -4.00154 0
M  V30 872 H 87.348 -1.69252 -3.93766 0
M  V30 873 H 91.532 -2.63608 -4.20505 0
M  V30 874 H 86.788 -3.98046 -4.64079 0
M  V30 875 H 90.962 -4.92703 -4.92155 0
M  V30 876 H 88.589 -5.60438 -5.13627 0
M  V30 877 N 90.1641 1.46063 -0.591896 0
M  V30 878 C 91.1121 2.32124 0.148739 0
M  V30 879 C 92.1061 1.45035 0.875286 0
M  V30 880 O 93.3121 1.61609 0.792632 0
M  V30 881 H 89.6871 0.749024 0.066832 0
M  V30 882 H 91.6581 2.92392 -0.595783 0
M  V30 883 C 90.4071 3.28373 1.1431 0
M  V30 884 H 89.7301 3.95371 0.59346 0
M  V30 885 H 91.1701 3.91352 1.63155 0
M  V30 886 C 89.6291 2.54393 2.20875 0
M  V30 887 O 90.1591 2.31373 3.28374 0
M  V30 888 N 88.3651 2.14797 1.95731 0
M  V30 889 H 87.9121 2.33719 1.08319 0
M  V30 890 H 87.8701 1.65619 2.67241 0
M  V30 891 N 91.6422 0.330177 1.54103 0
M  V30 892 C 92.5522 -0.541534 2.28264 0
M  V30 893 C 93.5682 -1.12351 1.32866 0
M  V30 894 O 94.7442 -1.14206 1.65888 0
M  V30 895 C 91.8092 -1.68322 3.03098 0
M  V30 896 C 90.8702 -1.13238 4.14096 0
M  V30 897 C 90.1032 -2.21966 4.85352 0
M  V30 898 O 90.3262 -3.42437 4.56172 0
M  V30 899 O 89.2602 -1.87013 5.7211 0
M  V30 900 H 93.0862 0.060938 3.03639 0
M  V30 901 H 90.6712 0.09565 1.49093 0
M  V30 902 H 92.5532 -2.34777 3.49939 0
M  V30 903 H 91.2282 -2.27176 2.30593 0
M  V30 904 H 90.1352 -0.432736 3.71589 0
M  V30 905 H 91.4682 -0.588898 4.88664 0
M  V30 906 N 93.1203 -1.57491 0.0584922 0
M  V30 907 C 94.0833 -2.1085 -0.898617 0
M  V30 908 C 95.0833 -1.02964 -1.23511 0
M  V30 909 O 96.2733 -1.29007 -1.17059 0
M  V30 910 C 93.4053 -2.59881 -2.20623 0
M  V30 911 H 94.5983 -2.96715 -0.435936 0
M  V30 912 H 92.1513 -1.55141 -0.190023 0
M  V30 913 H 92.8863 -1.77431 -2.71457 0
M  V30 914 H 92.6713 -3.38727 -1.97501 0
M  V30 915 H 94.1613 -3.01285 -2.89166 0
M  V30 916 N 94.5984 0.214957 -1.56127 0
M  V30 917 C 95.5454 1.26642 -1.92952 0
M  V30 918 C 96.5154 1.46244 -0.78753 0
M  V30 919 O 97.7004 1.59704 -1.04399 0
M  V30 920 C 94.8404 2.6104 -2.25726 0
M  V30 921 C 93.9534 2.49183 -3.52891 0
M  V30 922 C 93.0884 3.76149 -3.7508 0
M  V30 923 C 92.1274 3.59041 -4.95738 0
M  V30 924 N 91.2644 4.77972 -5.14283 0
M  V30 925 H 96.1044 0.945384 -2.82607 0
M  V30 926 H 93.6414 0.455489 -1.3987 0
M  V30 927 H 95.5994 3.39313 -2.42739 0
M  V30 928 H 94.2294 2.91227 -1.39236 0
M  V30 929 H 93.2814 1.6231 -3.44034 0
M  V30 930 H 94.5934 2.32466 -4.41318 0
M  V30 931 H 93.7474 4.62865 -3.92226 0
M  V30 932 H 92.4864 3.95799 -2.84947 0
M  V30 933 H 91.4914 2.7071 -4.78535 0
M  V30 934 H 92.7164 3.40856 -5.87362 0
M  V30 935 H 90.6624 4.97923 -4.27093 0
M  V30 936 H 90.5794 4.64006 -5.96853 0
M  V30 937 H 91.8474 5.66096 -5.35869 0
M  V30 938 N 96.0765 1.50051 0.48192 0
M  V30 939 C 97.0085 1.64263 1.59844 0
M  V30 940 C 98.0215 0.52451 1.54119 0
M  V30 941 O 99.2105 0.797293 1.59704 0
M  V30 942 C 96.3105 1.60102 2.98698 0
M  V30 943 C 95.4835 2.87767 3.29407 0
M  V30 944 C 94.5425 2.76397 4.47762 0
M  V30 945 O 93.5685 3.50348 4.48603 0
M  V30 946 N 94.7705 1.89222 5.48794 0
M  V30 947 H 97.5355 2.60566 1.48073 0
M  V30 948 H 95.0965 1.47379 0.670149 0
M  V30 949 H 97.0885 1.50123 3.75826 0
M  V30 950 H 95.6585 0.715798 3.04294 0
M  V30 951 H 94.8785 3.11954 2.40994 0
M  V30 952 H 96.1665 3.72365 3.4673 0
M  V30 953 H 95.5645 1.28434 5.50928 0
M  V30 954 H 94.1215 1.85154 6.24949 0
M  V30 955 N 97.5546 -0.734337 1.39446 0
M  V30 956 C 98.8036 -1.48937 1.36017 0
M  V30 957 C 99.1166 -1.95557 -0.0409005 0
M  V30 958 O 100.323 -2.70779 -0.19778 0
M  V30 959 C 98.7786 -2.69125 2.38955 0
M  V30 960 C 98.3866 -2.29452 3.8478 0
M  V30 961 C 100.131 -3.46944 2.44603 0
M  V30 962 C 98.0376 -3.46366 4.79358 0
M  V30 963 H 96.9676 -0.559296 0.505672 0
M  V30 964 H 99.6186 -0.800983 1.65095 0
M  V30 965 H 98.0006 -3.40041 2.02948 0
M  V30 966 H 99.1746 -1.66077 4.29831 0
M  V30 967 H 97.4896 -1.64723 3.82433 0
M  V30 968 H 100.087 -4.33907 3.12456 0
M  V30 969 H 100.43 -3.89454 1.47076 0
M  V30 970 H 100.963 -2.83056 2.79507 0
M  V30 971 H 97.7016 -3.08905 5.78151 0
M  V30 972 H 97.2216 -4.08719 4.38986 0
M  V30 973 H 98.9006 -4.12691 4.98292 0
M  V30 974 N 99.0327 -1.24633 -0.964593 0
M  V30 975 C 100.263 -1.11339 -1.74032 0
M  V30 976 C 100.671 0.336593 -1.86182 0
M  V30 977 O 100.014 1.24389 -1.35178 0
M  V30 978 C 100.076 -1.68284 -3.1768 0
M  V30 979 C 99.7397 -3.17196 -3.28992 0
M  V30 980 C 100.737 -4.14308 -3.14078 0
M  V30 981 C 98.4217 -3.57215 -3.53133 0
M  V30 982 C 100.416 -5.4942 -3.23135 0
M  V30 983 C 98.1027 -4.92468 -3.61827 0
M  V30 984 C 99.1007 -5.8838 -3.46841 0
M  V30 985 O 98.7887 -7.21173 -3.55197 0
M  V30 986 H 98.5207 -0.389551 -0.552472 0
M  V30 987 H 101.075 -1.65282 -1.21946 0
M  V30 988 H 99.3047 -1.08777 -3.71085 0
M  V30 989 H 100.994 -1.50234 -3.77074 0
M  V30 990 H 101.76 -3.84731 -2.95308 0
M  V30 991 H 97.6387 -2.83063 -3.63863 0
M  V30 992 H 101.183 -6.24263 -3.11355 0
M  V30 993 H 97.0797 -5.21714 -3.80111 0
M  V30 994 H 97.8477 -7.29135 -3.71892 0
M  V30 995 N 100.511 1.16574 -1.06058 0
M  V30 996 C 101.758 1.87047 -0.775873 0
M  V30 997 C 102.086 1.81562 0.697534 0
M  V30 998 O 101.341 1.22445 1.52662 0
M  V30 999 C 101.64 3.36195 -1.21275 0
M  V30 1000 C 101.306 3.6188 -2.68986 0
M  V30 1001 C 99.9678 3.68599 -3.09335 0
M  V30 1002 C 102.32 3.72648 -3.64394 0
M  V30 1003 C 99.6478 3.83584 -4.43937 0
M  V30 1004 C 102 3.89154 -4.98741 0
M  V30 1005 C 100.664 3.94114 -5.3873 0
M  V30 1006 H 99.9338 0.684452 -0.283912 0
M  V30 1007 H 102.581 1.37853 -1.32925 0
M  V30 1008 H 100.886 3.87505 -0.578528 0
M  V30 1009 H 102.583 3.89103 -0.969542 0
M  V30 1010 H 99.1728 3.57281 -2.36744 0
M  V30 1011 H 103.357 3.66769 -3.34356 0
M  V30 1012 H 98.6128 3.85677 -4.74409 0
M  V30 1013 H 102.787 3.96427 -5.72554 0
M  V30 1014 H 100.414 4.05478 -6.43033 0
M  V30 1015 N 101.989 0.842826 1.3317 0
M  V30 1016 C 102.921 0.236245 2.27979 0
M  V30 1017 C 103.934 -0.585282 1.51915 0
M  V30 1018 O 105.123 -0.411705 1.73687 0
M  V30 1019 C 102.223 -0.685717 3.3189 0
M  V30 1020 C 101.396 0.0973448 4.37292 0
M  V30 1021 C 100.455 -0.748565 5.20848 0
M  V30 1022 O 99.4809 -0.186339 5.68895 0
M  V30 1023 N 100.683 -2.06527 5.42519 0
M  V30 1024 H 103.448 1.05088 2.80672 0
M  V30 1025 H 101.009 0.701667 1.45905 0
M  V30 1026 H 103.001 -1.25669 3.84694 0
M  V30 1027 H 101.571 -1.40105 2.79445 0
M  V30 1028 H 100.791 0.849706 3.84933 0
M  V30 1029 H 102.079 0.635643 5.04814 0
M  V30 1030 H 101.477 -2.54554 5.05192 0
M  V30 1031 H 100.034 -2.58464 5.98364 0
M  V30 1032 N 103.467 -1.45747 0.599634 0
M  V30 1033 C 104.883 -1.57424 0.26264 0
M  V30 1034 C 105.083 -1.59222 -1.23493 0
M  V30 1035 O 104.139 -1.51825 -2.01756 0
M  V30 1036 C 105.452 -2.86061 0.926795 0
M  V30 1037 C 107 -2.99722 0.901967 0
M  V30 1038 C 107.475 -4.31119 1.54598 0
M  V30 1039 N 108.966 -4.37858 1.5111 0
M  V30 1040 C 109.701 -5.3818 1.97863 0
M  V30 1041 N 109.197 -6.45083 2.52666 0
M  V30 1042 N 110.99 -5.29487 1.88679 0
M  V30 1043 H 103.141 -1.42823 1.57211 0
M  V30 1044 H 105.404 -0.68235 0.658105 0
M  V30 1045 H 105.11 -2.90605 1.98095 0
M  V30 1046 H 104.984 -3.74563 0.445238 0
M  V30 1047 H 107.371 -2.9475 -0.143617 0
M  V30 1048 H 107.452 -2.12652 1.42171 0
M  V30 1049 H 107.096 -4.36849 2.59085 0
M  V30 1050 H 107.026 -5.16992 1.00132 0
M  V30 1051 H 109.517 -3.61209 1.11068 0
M  V30 1052 H 109.83 -7.17869 2.86155 0
M  V30 1053 H 108.175 -6.45856 2.56701 0
M  V30 1054 H 111.366 -4.44877 1.4561 0
M  V30 1055 H 111.539 -6.07524 2.25429 0
M  V30 1056 N 104.945 -0.338344 -1.53925 0
M  V30 1057 C 106.185 0.260168 -2.02737 0
M  V30 1058 C 106.549 1.48181 -1.22092 0
M  V30 1059 O 107.75 2.15416 -1.60777 0
M  V30 1060 C 106.021 0.571627 -3.52799 0
M  V30 1061 S 107.58 1.14769 -4.23525 0
M  V30 1062 H 104.398 0.077791 -0.706732 0
M  V30 1063 H 107 -0.474899 -1.89644 0
M  V30 1064 H 105.704 -0.325392 -4.09108 0
M  V30 1065 H 105.235 1.3365 -3.70002 0
M  V30 1066 H 107.25 2.43372 -4.32417 0
M  V30 1067 N 106.423 1.57458 -0.0668435 0
M  V30 1068 C 107.386 2.11323 0.887422 0
M  V30 1069 C 108.386 1.03618 1.22964 0
M  V30 1070 O 109.576 1.29626 1.16373 0
M  V30 1071 C 106.708 2.61048 2.19242 0
M  V30 1072 H 107.901 2.96942 0.420194 0
M  V30 1073 H 105.454 1.55239 0.181793 0
M  V30 1074 H 106.189 1.78868 2.70512 0
M  V30 1075 H 105.974 3.39769 1.95702 0
M  V30 1076 H 107.464 3.02814 2.87565 0
M  V30 1077 N 107.901 -0.206675 1.56239 0
M  V30 1078 C 109.149 -0.927007 1.79586 0
M  V30 1079 C 109.47 -1.8427 0.637929 0
M  V30 1080 O 108.74 -1.92849 -0.344398 0
M  V30 1081 H 107.32 -0.345292 0.662407 0
M  V30 1082 H 109.982 -0.21496 1.93711 0
M  V30 1083 H 109.078 -1.52501 2.72305 0
M  V30 1084 N 109.379 -1.50304 -0.473955 0
M  V30 1085 C 110.619 -1.62786 -1.23612 0
M  V30 1086 C 110.983 -0.319786 -1.89318 0
M  V30 1087 O 112.184 -0.320012 -2.66888 0
M  V30 1088 C 110.455 -2.77351 -2.25414 0
M  V30 1089 S 112.014 -3.09948 -3.10608 0
M  V30 1090 H 108.832 -0.573895 -0.419721 0
M  V30 1091 H 111.434 -1.88076 -0.533623 0
M  V30 1092 H 110.138 -3.70879 -1.75719 0
M  V30 1093 H 109.669 -2.54137 -3.00296 0
M  V30 1094 H 111.684 -2.53553 -4.26527 0
M  V30 1095 N 110.857 0.726932 -1.39834 0
M  V30 1096 C 111.807 1.83232 -1.35683 0
M  V30 1097 C 112.791 1.59155 -0.236295 0
M  V30 1098 O 113.983 1.70522 -0.474488 0
M  V30 1099 C 111.112 3.21246 -1.21062 0
M  V30 1100 C 110.198 3.51125 -2.37849 0
M  V30 1101 N 110.589 3.51889 -3.63329 0
M  V30 1102 C 108.887 3.81527 -2.30982 0
M  V30 1103 C 109.588 3.79791 -4.40606 0
M  V30 1104 N 108.564 3.97971 -3.70297 0
M  V30 1105 H 112.366 1.8214 -2.30656 0
M  V30 1106 H 109.88 0.925545 -1.33444 0
M  V30 1107 H 111.877 4.00387 -1.16171 0
M  V30 1108 H 110.537 3.23572 -0.270458 0
M  V30 1109 H 111.548 3.33008 -3.96643 0
M  V30 1110 H 108.225 3.91411 -1.45272 0
M  V30 1111 H 109.615 3.86783 -5.49408 0
M  V30 1112 N 112.336 1.25143 0.95797 0
M  V30 1113 C 113.584 1.09476 1.69881 0
M  V30 1114 C 113.905 -0.365502 1.91544 0
M  V30 1115 O 113.175 -1.25985 1.50015 0
M  V30 1116 H 111.755 0.402128 0.629525 0
M  V30 1117 H 114.417 1.57214 1.15194 0
M  V30 1118 H 113.513 1.60046 2.6794 0
M  V30 1119 N 113.814 -1.1601 1.06675 0
M  V30 1120 C 115.06 -1.86909 0.786945 0
M  V30 1121 C 115.393 -1.81717 -0.685018 0
M  V30 1122 O 114.668 -1.23551 -1.50218 0
M  V30 1123 C 114.951 -3.36313 1.28707 0
M  V30 1124 C 114.804 -3.50175 2.82308 0
M  V30 1125 C 116.123 -4.3084 0.898071 0
M  V30 1126 H 113.242 -0.678677 0.287343 0
M  V30 1127 H 115.884 -1.36336 1.32334 0
M  V30 1128 H 114.034 -3.79513 0.830768 0
M  V30 1129 H 115.706 -3.15886 3.36175 0
M  V30 1130 H 113.949 -2.91959 3.20847 0
M  V30 1131 H 114.62 -4.55116 3.12368 0
M  V30 1132 H 117.096 -3.95561 1.29114 0
M  V30 1133 H 115.972 -5.33876 1.27543 0
M  V30 1134 H 116.233 -4.41662 -0.196651 0
M  V30 1135 N 115.292 -0.849877 -1.32721 0
M  V30 1136 C 116.222 -0.306308 -2.31482 0
M  V30 1137 C 117.203 0.591952 -1.59468 0
M  V30 1138 O 118.388 0.513199 -1.87296 0
M  V30 1139 C 115.518 0.510204 -3.43532 0
M  V30 1140 C 114.472 -0.293209 -4.26994 0
M  V30 1141 C 113.798 0.647743 -5.30762 0
M  V30 1142 C 115.098 -1.51634 -4.99804 0
M  V30 1143 H 116.792 -1.13153 -2.77195 0
M  V30 1144 H 114.338 -0.545553 -1.33266 0
M  V30 1145 H 116.291 0.900856 -4.11658 0
M  V30 1146 H 115.015 1.36874 -2.96535 0
M  V30 1147 H 113.674 -0.665555 -3.60508 0
M  V30 1148 H 113.322 1.50299 -4.8002 0
M  V30 1149 H 113.022 0.11422 -5.87489 0
M  V30 1150 H 114.546 1.03567 -6.01753 0
M  V30 1151 H 115.96 -1.19824 -5.60638 0
M  V30 1152 H 114.357 -1.98745 -5.66234 0
M  V30 1153 H 115.427 -2.28018 -4.27943 0
M  V30 1154 N 116.77 1.45427 -0.607355 0
M  V30 1155 C 118.186 1.57283 -0.270985 0
M  V30 1156 C 118.386 1.59875 1.22647 0
M  V30 1157 O 117.442 1.52893 2.00948 0
M  V30 1158 C 118.755 2.85566 -0.941952 0
M  V30 1159 C 120.303 2.9924 -0.917849 0
M  V30 1160 C 120.778 4.30293 -1.56882 0
M  V30 1161 N 122.269 4.37051 -1.5343 0
M  V30 1162 C 123.004 5.37123 -2.00715 0
M  V30 1163 N 122.5 6.43734 -2.56084 0
M  V30 1164 N 124.293 5.28479 -1.91484 0
M  V30 1165 H 116.444 1.41988 -1.57966 0
M  V30 1166 H 118.707 0.67885 -0.661715 0
M  V30 1167 H 118.413 2.8955 -1.99633 0
M  V30 1168 H 118.287 3.74322 -0.465096 0
M  V30 1169 H 120.674 2.94822 0.127984 0
M  V30 1170 H 120.755 2.11895 -1.43297 0
M  V30 1171 H 120.399 4.35469 -2.61398 0
M  V30 1172 H 120.329 5.16454 -1.02873 0
M  V30 1173 H 122.82 3.60615 -1.12982 0
M  V30 1174 H 123.133 7.16341 -2.89958 0
M  V30 1175 H 121.478 6.44485 -2.60122 0
M  V30 1176 H 124.669 4.44098 -1.47967 0
M  V30 1177 H 124.842 6.0632 -2.28648 0
M  V30 1178 N 118.248 0.346503 1.53744 0
M  V30 1179 C 119.195 -0.508914 2.25119 0
M  V30 1180 C 120.165 -1.09315 1.25058 0
M  V30 1181 O 121.35 -1.12921 1.53797 0
M  V30 1182 C 118.49 -1.65246 3.02965 0
M  V30 1183 C 117.603 -1.09525 4.17886 0
M  V30 1184 C 116.738 -2.20634 4.83212 0
M  V30 1185 C 115.777 -1.62279 5.90196 0
M  V30 1186 N 114.914 -2.67143 6.49291 0
M  V30 1187 H 119.754 0.106283 2.9781 0
M  V30 1188 H 117.291 0.0642227 1.4696 0
M  V30 1189 H 119.249 -2.32574 3.4636 0
M  V30 1190 H 117.879 -2.2386 2.32565 0
M  V30 1191 H 116.931 -0.312818 3.79112 0
M  V30 1192 H 118.243 -0.628444 4.94825 0
M  V30 1193 H 117.397 -2.95821 5.29693 0
M  V30 1194 H 116.136 -2.70659 4.05703 0
M  V30 1195 H 115.141 -0.855989 5.43096 0
M  V30 1196 H 116.366 -1.13102 6.69615 0
M  V30 1197 H 114.312 -3.16417 5.74645 0
M  V30 1198 H 114.229 -2.25093 7.21713 0
M  V30 1199 H 115.497 -3.4209 7.00425 0
M  V30 1200 N 119.726 -1.57421 0.075193 0
M  V30 1201 C 120.974 -1.93236 -0.591974 0
M  V30 1202 C 121.295 -0.956241 -1.69944 0
M  V30 1203 O 120.565 -0.00494792 -1.95899 0
M  V30 1204 H 119.145 -0.713355 -0.22166 0
M  V30 1205 H 121.807 -1.9444 0.133848 0
M  V30 1206 H 120.903 -2.95131 -1.01509 0
M  V30 1207 N 121.204 0.198386 -1.56346 0
M  V30 1208 C 122.167 1.22952 -1.93431 0
M  V30 1209 C 123.167 1.38611 -0.815092 0
M  V30 1210 O 124.357 1.36479 -1.08255 0
M  V30 1211 C 121.489 2.59946 -2.20546 0
M  V30 1212 H 122.682 0.912626 -2.85677 0
M  V30 1213 H 120.235 0.43977 -1.49986 0
M  V30 1214 H 120.97 2.96696 -1.30927 0
M  V30 1215 H 120.755 2.49953 -3.02102 0
M  V30 1216 H 122.245 3.3431 -2.50253 0
M  V30 1217 N 122.682 1.50554 0.465978 0
M  V30 1218 C 123.91 1.65563 1.24083 0
M  V30 1219 C 124.325 0.341051 1.85694 0
M  V30 1220 O 123.682 -0.677543 1.69457 0
M  V30 1221 C 123.733 2.75051 2.34583 0
M  V30 1222 O 123.454 4.01413 1.75497 0
M  V30 1223 C 124.955 3.01078 3.25372 0
M  V30 1224 H 122.175 0.55638 0.375077 0
M  V30 1225 H 124.719 1.96807 0.555624 0
M  V30 1226 H 122.874 2.46486 2.9887 0
M  V30 1227 H 123.288 4.62002 2.48303 0
M  V30 1228 H 124.762 3.81339 3.99105 0
M  V30 1229 H 125.239 2.12349 3.84453 0
M  V30 1230 H 125.845 3.31194 2.66816 0
M  V30 1231 N 124.16 -0.719506 1.40217 0
M  V30 1232 C 125.408 -1.47641 1.3801 0
M  V30 1233 C 125.729 -1.94992 -0.018145 0
M  V30 1234 O 124.999 -1.70073 -0.972207 0
M  V30 1235 H 123.579 -0.547744 0.507923 0
M  V30 1236 H 126.241 -0.853187 1.75233 0
M  V30 1237 H 125.337 -2.35112 2.05253 0
M  V30 1238 N 125.638 -1.25649 -0.95132 0
M  V30 1239 C 126.585 -1.06323 -2.04851 0
M  V30 1240 C 127.555 0.0286491 -1.66075 0
M  V30 1241 O 128.74 -0.12917 -1.90362 0
M  V30 1242 C 125.88 -0.691529 -3.381 0
M  V30 1243 C 124.993 -1.85861 -3.89974 0
M  V30 1244 C 124.128 -1.43096 -5.11563 0
M  V30 1245 C 123.167 -2.56696 -5.55674 0
M  V30 1246 N 122.304 -2.14684 -6.68472 0
M  V30 1247 H 127.144 -2.00222 -2.20715 0
M  V30 1248 H 124.681 -0.997027 -1.08156 0
M  V30 1249 H 126.639 -0.456963 -4.1469 0
M  V30 1250 H 125.269 0.210474 -3.22113 0
M  V30 1251 H 124.321 -2.20639 -3.09875 0
M  V30 1252 H 125.633 -2.71161 -4.18657 0
M  V30 1253 H 124.787 -1.15624 -5.9558 0
M  V30 1254 H 123.526 -0.548722 -4.84603 0
M  V30 1255 H 122.531 -2.84909 -4.7022 0
M  V30 1256 H 123.756 -3.45503 -5.8464 0
M  V30 1257 H 121.702 -1.28881 -6.43215 0
M  V30 1258 H 121.619 -2.9353 -6.96689 0
M  V30 1259 H 122.887 -1.90397 -7.5589 0
M  V30 1260 N 127.117 1.15442 -1.07289 0
M  V30 1261 C 128.528 1.67803 -0.818475 0
M  V30 1262 C 128.879 1.8489 0.656507 0
M  V30 1263 O 128.004 1.55176 1.50829 0
M  V30 1264 C 128.599 3.04805 -1.47917 0
M  V30 1265 C 127.158 3.54245 -1.27229 0
M  V30 1266 C 126.305 2.29986 -1.54925 0
M  V30 1267 H 129.256 0.996646 -1.23502 0
M  V30 1268 H 129.277 3.69702 -0.90005 0
M  V30 1269 H 128.789 2.92336 -2.55267 0
M  V30 1270 H 126.89 3.71956 -0.21899 0
M  V30 1271 H 127.003 4.35723 -1.99203 0
M  V30 1272 H 125.367 2.35496 -0.970242 0
M  V30 1273 H 126.15 2.20105 -2.63455 0
M  V30 1274 N 128.595 0.856903 1.32268 0
M  V30 1275 C 129.525 0.31858 2.31316 0
M  V30 1276 C 130.506 -0.583487 1.59779 0
M  V30 1277 O 131.691 -0.503259 1.87566 0
M  V30 1278 C 128.821 -0.491979 3.43798 0
M  V30 1279 C 127.775 0.315849 4.26833 0
M  V30 1280 C 127.101 -0.619586 5.31098 0
M  V30 1281 C 128.401 1.54282 4.98993 0
M  V30 1282 H 130.095 1.14621 2.76591 0
M  V30 1283 H 127.641 0.552613 1.32974 0
M  V30 1284 H 129.594 -0.879012 4.1213 0
M  V30 1285 H 128.318 -1.35299 2.97257 0
M  V30 1286 H 126.977 0.684664 3.6015 0
M  V30 1287 H 126.625 -1.47751 4.8081 0
M  V30 1288 H 126.325 -0.0830621 5.87541 0
M  V30 1289 H 127.849 -1.00375 6.02293 0
M  V30 1290 H 129.263 1.22796 5.59995 0
M  V30 1291 H 127.66 2.01745 5.65172 0
M  V30 1292 H 128.73 2.30285 4.26728 0
M  V30 1293 N 130.073 -1.45103 0.615059 0
M  V30 1294 C 131.301 -2.06553 0.11977 0
M  V30 1295 C 131.716 -1.45842 -1.19898 0
M  V30 1296 O 131.073 -0.575325 -1.73194 0
M  V30 1297 C 131.124 -3.61495 -0.018364 0
M  V30 1298 O 130.845 -4.19942 1.24822 0
M  V30 1299 C 132.346 -4.39947 -0.544237 0
M  V30 1300 H 129.566 -0.667096 0.0722739 0
M  V30 1301 H 132.11 -1.8623 0.84491 0
M  V30 1302 H 130.265 -3.81135 -0.693865 0
M  V30 1303 H 130.679 -5.13204 1.0827 0
M  V30 1304 H 132.153 -5.48838 -0.589953 0
M  V30 1305 H 132.63 -4.10255 -1.56805 0
M  V30 1306 H 133.236 -4.25188 0.0974703 0
M  V30 1307 N 131.551 -0.354651 -1.53558 0
M  V30 1308 C 132.962 0.126902 -1.86268 0
M  V30 1309 C 133.313 1.49075 -1.27558 0
M  V30 1310 O 132.438 2.08105 -0.5934 0
M  V30 1311 C 133.033 0.237046 -3.3797 0
M  V30 1312 C 131.592 0.662842 -3.70518 0
M  V30 1313 C 130.739 -0.196652 -2.76602 0
M  V30 1314 H 133.69 -0.573849 -1.47962 0
M  V30 1315 H 133.711 1.06259 -3.65362 0
M  V30 1316 H 133.223 -0.755725 -3.80671 0
M  V30 1317 H 131.324 1.66424 -3.33367 0
M  V30 1318 H 131.437 0.445034 -4.77029 0
M  V30 1319 H 129.801 0.332763 -2.52517 0
M  V30 1320 H 130.584 -1.18676 -3.22135 0
M  V30 1321 N 133.029 1.57378 -0.0835403 0
M  V30 1322 C 134.306 1.85363 0.624507 0
M  V30 1323 C 134.686 0.978239 1.87066 0
M  V30 1324 O 134.034 0.0475908 2.2845 0
M  V30 1325 C 134.244 3.35795 0.950947 0
M  V30 1326 C 135.592 4.03581 1.31939 0
M  V30 1327 O 136.616 3.40609 1.04232 0
M  V30 1328 O 135.475 5.14672 1.83779 0
M  V30 1329 H 132.569 0.766162 0.311329 0
M  V30 1330 H 135.115 1.69307 -0.115362 0
M  V30 1331 H 133.887 3.91244 0.0663899 0
M  V30 1332 H 133.51 3.57154 1.74719 0
M  V30 1333 N 134.507 -0.190092 1.56449 0
M  V30 1334 C 135.756 -0.907912 1.80111 0
M  V30 1335 C 136.069 -1.84214 0.657619 0
M  V30 1336 O 137.275 -2.60094 0.778663 0
M  V30 1337 C 135.731 -1.66485 3.19078 0
M  V30 1338 C 135.339 -0.7752 4.41242 0
M  V30 1339 C 137.083 -2.37201 3.52045 0
M  V30 1340 C 134.99 -1.53129 5.71231 0
M  V30 1341 H 133.92 -0.34276 0.671589 0
M  V30 1342 H 136.571 -0.161109 1.82791 0
M  V30 1343 H 134.953 -2.45572 3.10661 0
M  V30 1344 H 136.127 -0.0226298 4.60794 0
M  V30 1345 H 134.442 -0.178627 4.16017 0
M  V30 1346 H 137.039 -2.94329 4.46402 0
M  V30 1347 H 137.382 -3.11632 2.76028 0
M  V30 1348 H 137.915 -1.65075 3.61932 0
M  V30 1349 H 134.654 -0.82967 6.50228 0
M  V30 1350 H 134.174 -2.25767 5.55688 0
M  V30 1351 H 135.853 -2.08377 6.12526 0
M  V30 1352 N 135.985 -1.50799 -0.457987 0
M  V30 1353 C 137.213 -1.66218 -1.23203 0
M  V30 1354 C 137.628 -0.350894 -1.85511 0
M  V30 1355 O 136.985 0.668546 -1.69814 0
M  V30 1356 C 137.036 -2.76291 -2.33121 0
M  V30 1357 O 136.757 -4.02338 -1.73366 0
M  V30 1358 C 138.258 -3.028 -3.2377 0
M  V30 1359 H 135.478 -0.558361 -0.372121 0
M  V30 1360 H 138.022 -1.97099 -0.545179 0
M  V30 1361 H 136.177 -2.48068 -2.97558 0
M  V30 1362 H 136.591 -4.63312 -2.4585 0
M  V30 1363 H 138.065 -3.8345 -3.97077 0
M  V30 1364 H 138.542 -2.14385 -3.83322 0
M  V30 1365 H 139.148 -3.32604 -2.65056 0
M  V30 1366 N 137.463 0.71206 -1.40597 0
M  V30 1367 C 138.395 1.83704 -1.37061 0
M  V30 1368 C 139.408 1.60453 -0.275426 0
M  V30 1369 O 140.597 1.70262 -0.53602 0
M  V30 1370 C 137.697 3.20172 -1.11099 0
M  V30 1371 C 136.87 3.7059 -2.3234 0
M  V30 1372 C 135.929 4.85681 -2.02485 0
M  V30 1373 O 134.955 4.9815 -2.75382 0
M  V30 1374 N 136.157 5.71735 -1.00497 0
M  V30 1375 H 138.922 1.87235 -2.34016 0
M  V30 1376 H 136.483 0.893739 -1.34996 0
M  V30 1377 H 138.475 3.94768 -0.891064 0
M  V30 1378 H 137.045 3.11767 -0.227989 0
M  V30 1379 H 136.265 2.87085 -2.7014 0
M  V30 1380 H 137.553 4.01011 -3.13157 0
M  V30 1381 H 136.951 5.64275 -0.401298 0
M  V30 1382 H 135.508 6.463 -0.844942 0
M  V30 1383 N 138.941 1.26152 0.944643 0
M  V30 1384 C 139.873 1.03199 2.04652 0
M  V30 1385 C 140.886 -0.00642356 1.62799 0
M  V30 1386 O 142.075 0.233263 1.76969 0
M  V30 1387 C 139.175 0.540111 3.34568 0
M  V30 1388 C 138.348 1.64697 4.05208 0
M  V30 1389 C 137.407 1.15374 5.13396 0
M  V30 1390 O 136.433 1.85013 5.38293 0
M  V30 1391 N 137.635 0.00031529 5.805 0
M  V30 1392 H 140.4 1.9808 2.2491 0
M  V30 1393 H 137.961 1.17491 1.11389 0
M  V30 1394 H 139.953 0.194401 4.04233 0
M  V30 1395 H 138.523 -0.315021 3.11009 0
M  V30 1396 H 137.743 2.16379 3.29506 0
M  V30 1397 H 139.031 2.3903 4.49157 0
M  V30 1398 H 138.429 -0.581336 5.62705 0
M  V30 1399 H 136.986 -0.286346 6.51171 0
M  V30 1400 N 140.419 -1.14872 1.07899 0
M  V30 1401 C 141.835 -1.37776 0.805606 0
M  V30 1402 C 142.035 -1.92743 -0.587555 0
M  V30 1403 O 141.091 -2.13678 -1.34528 0
M  V30 1404 C 142.404 -2.34361 1.88402 0
M  V30 1405 C 143.952 -2.48012 1.90942 0
M  V30 1406 C 144.427 -3.47893 2.97883 0
M  V30 1407 N 145.918 -3.55433 2.97021 0
M  V30 1408 C 146.653 -4.32553 3.76412 0
M  V30 1409 N 146.149 -5.12959 4.65666 0
M  V30 1410 N 147.942 -4.27697 3.64735 0
M  V30 1411 H 140.093 -0.775365 1.97742 0
M  V30 1412 H 142.356 -0.403521 0.857831 0
M  V30 1413 H 142.062 -2.01098 2.88535 0
M  V30 1414 H 141.936 -3.34206 1.74889 0
M  V30 1415 H 144.323 -2.8057 0.914579 0
M  V30 1416 H 144.404 -1.48147 2.08534 0
M  V30 1417 H 144.048 -3.16069 3.97571 0
M  V30 1418 H 143.978 -4.47527 2.77538 0
M  V30 1419 H 146.469 -2.98048 2.32326 0
M  V30 1420 H 146.782 -5.69065 5.22862 0
M  V30 1421 H 145.127 -5.12245 4.69712 0
M  V30 1422 H 148.318 -3.63949 2.94378 0
M  V30 1423 H 148.491 -4.8755 4.26848 0
M  V30 1424 N 141.898 -0.863906 -1.31812 0
M  V30 1425 C 143.146 -0.470904 -1.96537 0
M  V30 1426 C 143.467 0.978771 -1.68657 0
M  V30 1427 O 142.737 1.6853 -0.998717 0
M  V30 1428 H 141.317 -0.171148 -0.72713 0
M  V30 1429 H 143.979 -1.10236 -1.60729 0
M  V30 1430 H 143.075 -0.623616 -3.05806 0
M  V30 1431 N 143.376 1.44774 -0.622745 0
M  V30 1432 C 144.308 2.28856 0.125485 0
M  V30 1433 C 145.321 1.40811 0.817069 0
M  V30 1434 O 146.51 1.65044 0.679918 0
M  V30 1435 C 143.61 3.16963 1.19949 0
M  V30 1436 C 142.783 4.33374 0.592064 0
M  V30 1437 C 141.842 5.02577 1.55893 0
M  V30 1438 O 140.868 5.58873 1.07933 0
M  V30 1439 N 142.07 5.03256 2.89334 0
M  V30 1440 H 144.835 2.93713 -0.596068 0
M  V30 1441 H 142.396 1.55129 -0.463303 0
M  V30 1442 H 144.388 3.60123 1.84644 0
M  V30 1443 H 142.958 2.53913 1.82337 0
M  V30 1444 H 142.178 3.93509 -0.233322 0
M  V30 1445 H 143.466 5.08527 0.166738 0
M  V30 1446 H 142.864 4.58836 3.30887 0
M  V30 1447 H 141.421 5.50232 3.49412 0
M  V30 1448 N 144.854 0.36279 1.53368 0
M  V30 1449 C 145.786 -0.519668 2.23231 0
M  V30 1450 C 146.799 -1.04844 1.24546 0
M  V30 1451 O 147.988 -0.955296 1.50786 0
M  V30 1452 C 145.088 -1.72995 2.9142 0
M  V30 1453 C 144.261 -1.33316 4.16588 0
M  V30 1454 C 143.32 -2.40521 4.68013 0
M  V30 1455 O 142.346 -2.03027 5.3176 0
M  V30 1456 N 143.548 -3.72065 4.45587 0
M  V30 1457 H 146.313 0.078751 2.99597 0
M  V30 1458 H 143.874 0.187833 1.60807 0
M  V30 1459 H 145.866 -2.44184 3.22733 0
M  V30 1460 H 144.436 -2.2353 2.18525 0
M  V30 1461 H 143.656 -0.451236 3.91609 0
M  V30 1462 H 144.944 -1.04432 4.97967 0
M  V30 1463 H 144.342 -4.05304 3.94646 0
M  V30 1464 H 142.899 -4.39366 4.81457 0
M  V30 1465 N 146.332 -1.57332 0.0918853 0
M  V30 1466 C 147.562 -1.98286 -0.580205 0
M  V30 1467 C 147.97 -0.969713 -1.6246 0
M  V30 1468 O 147.313 0.0493501 -1.83634 0
M  V30 1469 C 147.375 -3.35603 -1.28882 0
M  V30 1470 C 147.039 -4.55285 -0.395559 0
M  V30 1471 C 148.036 -5.18687 0.355002 0
M  V30 1472 C 145.721 -5.01314 -0.314556 0
M  V30 1473 C 147.715 -6.26484 1.17458 0
M  V30 1474 C 145.402 -6.08979 0.508677 0
M  V30 1475 C 146.4 -6.71429 1.2519 0
M  V30 1476 O 146.088 -7.77018 2.06151 0
M  V30 1477 H 145.82 -0.656678 -0.160466 0
M  V30 1478 H 148.374 -2.04721 0.16688 0
M  V30 1479 H 146.604 -3.25842 -2.08241 0
M  V30 1480 H 148.293 -3.61026 -1.85512 0
M  V30 1481 H 149.059 -4.84058 0.302134 0
M  V30 1482 H 144.938 -4.5247 -0.882697 0
M  V30 1483 H 148.482 -6.75159 1.75518 0
M  V30 1484 H 144.379 -6.4304 0.563037 0
M  V30 1485 H 145.147 -7.93991 1.98799 0
M  V30 1486 N 147.81 0.181792 -1.56548 0
M  V30 1487 C 148.74 1.22765 -1.98623 0
M  V30 1488 C 149.721 1.46747 -0.860189 0
M  V30 1489 O 150.906 1.58259 -1.12551 0
M  V30 1490 C 148.036 2.56894 -2.33715 0
M  V30 1491 C 146.99 2.475 -3.49182 0
M  V30 1492 C 146.316 3.86023 -3.69986 0
M  V30 1493 C 147.616 1.98866 -4.82959 0
M  V30 1494 H 149.31 0.877942 -2.86239 0
M  V30 1495 H 146.856 0.42088 -1.37712 0
M  V30 1496 H 148.809 3.30253 -2.61746 0
M  V30 1497 H 147.533 2.93632 -1.42997 0
M  V30 1498 H 146.192 1.76596 -3.21262 0
M  V30 1499 H 145.84 4.20136 -2.76576 0
M  V30 1500 H 145.54 3.80609 -4.47672 0
M  V30 1501 H 147.064 4.60984 -4.00407 0
M  V30 1502 H 148.478 2.61992 -5.09934 0
M  V30 1503 H 146.875 2.04424 -5.64208 0
M  V30 1504 H 147.945 0.942465 -4.75653 0
M  V30 1505 N 149.288 1.51039 0.449983 0
M  V30 1506 C 150.198 1.74261 1.57067 0
M  V30 1507 C 151.214 0.626363 1.62335 0
M  V30 1508 O 152.39 0.907162 1.79812 0
M  V30 1509 C 149.455 1.85114 2.93144 0
M  V30 1510 C 148.516 3.0893 2.98095 0
M  V30 1511 C 147.749 3.19256 4.27681 0
M  V30 1512 O 147.972 2.35835 5.19363 0
M  V30 1513 O 146.906 4.12144 4.38658 0
M  V30 1514 H 150.732 2.69303 1.40391 0
M  V30 1515 H 148.317 1.35389 0.631688 0
M  V30 1516 H 150.199 1.94311 3.73926 0
M  V30 1517 H 148.874 0.932588 3.09975 0
M  V30 1518 H 147.781 3.0522 2.16314 0
M  V30 1519 H 149.114 4.00433 2.86206 0
M  V30 1520 N 150.766 -0.704594 1.40972 0
M  V30 1521 C 151.729 -1.80035 1.41845 0
M  V30 1522 C 152.729 -1.57774 0.310474 0
M  V30 1523 O 153.919 -1.64613 0.56992 0
M  V30 1524 C 151.051 -3.18284 1.22098 0
M  V30 1525 H 152.244 -1.80658 2.3938 0
M  V30 1526 H 149.797 -0.911329 1.26982 0
M  V30 1527 H 150.532 -3.23306 0.253672 0
M  V30 1528 H 150.317 -3.35843 2.02366 0
M  V30 1529 H 151.807 -3.98289 1.25522 0
M  V30 1530 N 152.244 -1.26651 -0.937939 0
M  V30 1531 C 153.174 -1.10993 -2.05433 0
M  V30 1532 C 154.155 -0.0142161 -1.70094 0
M  V30 1533 O 155.34 -0.186837 -1.93299 0
M  V30 1534 C 152.47 -0.745561 -3.39203 0
M  V30 1535 C 151.424 -1.79337 -3.88616 0
M  V30 1536 C 150.75 -1.28324 -5.19073 0
M  V30 1537 C 152.05 -3.19553 -4.13138 0
M  V30 1538 H 153.744 -2.0438 -2.1879 0
M  V30 1539 H 151.29 -0.984041 -1.05131 0
M  V30 1540 H 153.243 -0.622888 -4.16771 0
M  V30 1541 H 151.967 0.22401 -3.25831 0
M  V30 1542 H 150.626 -1.90477 -3.13231 0
M  V30 1543 H 150.274 -0.303414 -5.02084 0
M  V30 1544 H 149.974 -1.98369 -5.53103 0
M  V30 1545 H 151.498 -1.1733 -5.99221 0
M  V30 1546 H 152.912 -3.11471 -4.81309 0
M  V30 1547 H 151.309 -3.87218 -4.58457 0
M  V30 1548 H 152.379 -3.65368 -3.18801 0
M  V30 1549 N 153.722 1.14298 -1.08507 0
M  V30 1550 C 154.971 1.84708 -0.810305 0
M  V30 1551 C 155.284 1.83903 0.666271 0
M  V30 1552 O 156.49 2.50112 1.05624 0
M  V30 1553 C 154.946 3.31572 -1.39957 0
M  V30 1554 C 154.554 3.40791 -2.90801 0
M  V30 1555 C 156.298 4.07087 -1.20334 0
M  V30 1556 C 154.205 4.81872 -3.4286 0
M  V30 1557 H 153.135 0.691985 -0.299454 0
M  V30 1558 H 155.786 1.28841 -1.30661 0
M  V30 1559 H 154.168 3.87183 -0.830976 0
M  V30 1560 H 155.342 2.95225 -3.53806 0
M  V30 1561 H 153.657 2.78732 -3.0935 0
M  V30 1562 H 156.254 5.11225 -1.56693 0
M  V30 1563 H 156.597 4.16054 -0.143237 0
M  V30 1564 H 157.13 3.57779 -1.73893 0
M  V30 1565 H 153.869 4.78094 -4.48449 0
M  V30 1566 H 153.389 5.27972 -2.84615 0
M  V30 1567 H 155.068 5.50765 -3.39509 0
M  V30 1568 N 155.201 0.870884 1.31352 0
M  V30 1569 C 156.429 0.49677 2.00848 0
M  V30 1570 C 156.844 -0.910998 1.65367 0
M  V30 1571 O 156.201 -1.59696 0.883374 0
M  V30 1572 C 156.252 0.645308 3.55694 0
M  V30 1573 O 155.973 1.99764 3.89905 0
M  V30 1574 C 157.474 0.272326 4.42463 0
M  V30 1575 H 154.694 0.193462 0.642506 0
M  V30 1576 H 157.238 1.1723 1.67563 0
M  V30 1577 H 155.393 0.0173176 3.87396 0
M  V30 1578 H 155.807 2.00607 4.84621 0
M  V30 1579 H 157.281 0.427208 5.50344 0
M  V30 1580 H 157.758 -0.788587 4.32062 0
M  V30 1581 H 158.364 0.876054 4.1618 0
M  V30 1582 N 156.679 -1.44442 0.630414 0
M  V30 1583 C 157.909 -2.06115 0.141465 0
M  V30 1584 C 158.317 -1.47179 -1.1889 0
M  V30 1585 O 157.66 -0.588873 -1.74006 0
M  V30 1586 C 157.722 -3.59467 -0.0484355 0
M  V30 1587 C 157.386 -4.40864 1.20366 0
M  V30 1588 C 158.383 -4.74391 2.12719 0
M  V30 1589 C 156.068 -4.8125 1.43887 0
M  V30 1590 C 158.062 -5.47186 3.26904 0
M  V30 1591 C 155.749 -5.53795 2.5837 0
M  V30 1592 C 156.747 -5.86682 3.49705 0
M  V30 1593 O 156.435 -6.57749 4.62191 0
M  V30 1594 H 156.167 -0.671648 0.0765792 0
M  V30 1595 H 158.721 -1.86312 0.864695 0
M  V30 1596 H 156.951 -3.77758 -0.826803 0
M  V30 1597 H 158.64 -4.02909 -0.491849 0
M  V30 1598 H 159.406 -4.43728 1.95781 0
M  V30 1599 H 155.285 -4.55073 0.736853 0
M  V30 1600 H 158.829 -5.72773 3.98217 0
M  V30 1601 H 154.726 -5.83872 2.75251 0
M  V30 1602 H 155.494 -6.76217 4.61164 0
M  V30 1603 N 158.157 -0.370918 -1.53173 0
M  V30 1604 C 159.405 0.216673 -2.00935 0
M  V30 1605 C 159.726 1.48845 -1.25977 0
M  V30 1606 O 158.996 1.92286 -0.374551 0
M  V30 1607 H 157.576 0.0830565 -0.742368 0
M  V30 1608 H 160.238 -0.49838 -1.8842 0
M  V30 1609 H 159.334 0.439893 -3.08984 0
M  V30 1610 N 159.635 1.57281 -0.100228 0
M  V30 1611 C 160.863 1.98879 0.570509 0
M  V30 1612 C 161.278 0.979476 1.61405 0
M  V30 1613 O 160.635 -0.0302288 1.82475 0
M  V30 1614 C 160.686 3.4052 1.2136 0
M  V30 1615 O 160.407 4.37588 0.211786 0
M  V30 1616 C 161.908 3.97149 1.96945 0
M  V30 1617 H 159.128 0.653428 0.152555 0
M  V30 1618 H 161.672 2.03697 -0.18103 0
M  V30 1619 H 159.827 3.367 1.91603 0
M  V30 1620 H 160.241 5.20118 0.676607 0
M  V30 1621 H 161.715 4.98393 2.37294 0
M  V30 1622 H 162.192 3.3525 2.83733 0
M  V30 1623 H 162.798 4.04458 1.31506 0
M  V30 1624 N 161.113 -0.173488 1.56642 0
M  V30 1625 C 162.524 -0.736155 1.71574 0
M  V30 1626 C 162.875 -1.82888 0.710389 0
M  V30 1627 O 162 -2.16017 -0.1287 0
M  V30 1628 C 162.595 -1.34211 3.11083 0
M  V30 1629 C 161.154 -1.85162 3.27707 0
M  V30 1630 C 160.301 -0.729765 2.67525 0
M  V30 1631 H 163.252 0.0518786 1.58615 0
M  V30 1632 H 163.273 -2.21178 3.09613 0
M  V30 1633 H 162.785 -0.546579 3.84232 0
M  V30 1634 H 160.886 -2.67366 2.59512 0
M  V30 1635 H 160.999 -1.99855 4.35425 0
M  V30 1636 H 159.363 -1.14965 2.27278 0
M  V30 1637 H 160.146 0.0538806 3.43258 0
M  V30 1638 N 162.591 -1.51276 -0.441967 0
M  V30 1639 C 163.521 -1.752 -1.54361 0
M  V30 1640 C 164.502 -0.601682 -1.59103 0
M  V30 1641 O 165.687 -0.843913 -1.74905 0
M  V30 1642 C 162.817 -1.87282 -2.92477 0
M  V30 1643 C 161.771 -3.02687 -3.02596 0
M  V30 1644 C 161.097 -2.99947 -4.42647 0
M  V30 1645 C 162.397 -4.4273 -2.77106 0
M  V30 1646 H 164.091 -2.67442 -1.34592 0
M  V30 1647 H 161.637 -1.28694 -0.646048 0
M  V30 1648 H 163.59 -2.02602 -3.695 0
M  V30 1649 H 162.314 -0.916844 -3.13467 0
M  V30 1650 H 160.973 -2.87065 -2.28012 0
M  V30 1651 H 160.621 -2.02136 -4.60597 0
M  V30 1652 H 160.321 -3.77439 -4.50348 0
M  V30 1653 H 161.845 -3.17354 -5.2165 0
M  V30 1654 H 163.259 -4.58727 -3.43864 0
M  V30 1655 H 161.656 -5.21893 -2.96222 0
M  V30 1656 H 162.726 -4.53087 -1.72744 0
M  V30 1657 N 164.069 0.697108 -1.41344 0
M  V30 1658 C 165.317 1.45426 -1.40341 0
M  V30 1659 C 165.638 1.94996 -0.0128787 0
M  V30 1660 O 164.908 1.71599 0.945027 0
M  V30 1661 H 163.488 0.539594 -0.516573 0
M  V30 1662 H 166.15 0.825201 -1.76569 0
M  V30 1663 H 165.246 2.31817 -2.08967 0
M  V30 1664 N 165.547 1.27147 0.931209 0
M  V30 1665 C 166.48 1.0389 2.0318 0
M  V30 1666 C 167.458 -0.0395716 1.62552 0
M  V30 1667 O 168.642 0.104867 1.88208 0
M  V30 1668 C 165.769 0.575227 3.3378 0
M  V30 1669 C 164.815 1.64774 3.93385 0
M  V30 1670 S 165.648 3.23933 4.26413 0
M  V30 1671 C 166.804 2.79358 5.60098 0
M  V30 1672 H 167.037 1.97075 2.22596 0
M  V30 1673 H 164.57 1.10938 1.07387 0
M  V30 1674 H 166.528 0.314385 4.09294 0
M  V30 1675 H 165.189 -0.336505 3.12292 0
M  V30 1676 H 164.382 1.27454 4.87618 0
M  V30 1677 H 163.984 1.86048 3.24441 0
M  V30 1678 H 166.276 2.24443 6.39243 0
M  V30 1679 H 167.219 3.72322 6.02314 0
M  V30 1680 H 167.627 2.1861 5.20452 0
M  V30 1681 N 167.025 -1.13721 1.09112 0
M  V30 1682 C 168.436 -1.6648 0.845068 0
M  V30 1683 C 168.787 -1.85911 -0.62701 0
M  V30 1684 O 167.912 -1.57556 -1.48341 0
M  V30 1685 C 168.507 -3.02413 1.52748 0
M  V30 1686 C 167.066 -3.52176 1.32849 0
M  V30 1687 C 166.213 -2.27492 1.58564 0
M  V30 1688 H 169.164 -0.976872 1.25072 0
M  V30 1689 H 169.185 -3.68223 0.958752 0
M  V30 1690 H 168.697 -2.88238 2.59885 0
M  V30 1691 H 166.798 -3.7156 0.278137 0
M  V30 1692 H 166.911 -4.32499 2.0611 0
M  V30 1693 H 165.275 -2.33923 1.00758 0
M  V30 1694 H 166.058 -2.15886 2.66924 0
M  V30 1695 N 168.503 -0.877838 -1.30888 0
M  V30 1696 C 169.451 -0.328662 -2.30266 0
M  V30 1697 C 170.445 0.560496 -1.59859 0
M  V30 1698 O 171.651 0.445722 -1.74394 0
M  V30 1699 H 168.026 -0.0876142 -0.746879 0
M  V30 1700 H 169.997 -1.18061 -2.74051 0
M  V30 1701 C 168.746 0.448071 -3.44801 0
M  V30 1702 H 168.069 -0.226859 -3.99156 0
M  V30 1703 H 169.509 0.797541 -4.16432 0
M  V30 1704 C 167.968 1.64239 -2.94155 0
M  V30 1705 O 168.498 2.74175 -2.93583 0
M  V30 1706 N 166.704 1.47716 -2.50256 0
M  V30 1707 H 166.251 0.582821 -2.5092 0
M  V30 1708 H 166.209 2.27765 -2.16727 0
M  V30 1709 N 169.982 1.44106 -0.638065 0
M  V30 1710 C 171.228 2.02815 -0.15409 0
M  V30 1711 C 171.583 1.49342 1.21304 0
M  V30 1712 O 170.876 0.670699 1.79478 0
M  V30 1713 C 171.07 3.5729 -0.0887327 0
M  V30 1714 C 170.899 4.2575 -1.44799 0
M  V30 1715 C 169.669 4.62443 -2.03653 0
M  V30 1716 C 171.867 4.55746 -2.38327 0
M  V30 1717 N 169.849 5.15903 -3.32741 0
M  V30 1718 C 171.22 5.10364 -3.52036 0
M  V30 1719 C 173.275 4.37703 -2.3732 0
M  V30 1720 C 171.978 5.48837 -4.64941 0
M  V30 1721 C 174.004 4.77229 -3.49294 0
M  V30 1722 C 173.366 5.31966 -4.61726 0
M  V30 1723 H 169.465 0.775519 -0.100466 0
M  V30 1724 H 172.049 1.755 -0.843071 0
M  V30 1725 H 170.22 3.84201 0.569548 0
M  V30 1726 H 171.952 4.02671 0.404711 0
M  V30 1727 H 168.707 4.46987 -1.56523 0
M  V30 1728 H 169.131 5.47102 -3.98758 0
M  V30 1729 H 173.773 3.94671 -1.51641 0
M  V30 1730 H 171.491 5.9082 -5.51323 0
M  V30 1731 H 175.077 4.64976 -3.49698 0
M  V30 1732 H 173.957 5.61986 -5.46939 0
M  V30 1733 N 171.46 0.379036 1.52974 0
M  V30 1734 C 172.708 -0.206014 2.01047 0
M  V30 1735 C 173.029 -1.48175 1.26765 0
M  V30 1736 O 172.299 -1.92085 0.384743 0
M  V30 1737 H 170.879 -0.0791184 0.742798 0
M  V30 1738 H 173.541 0.508366 1.88153 0
M  V30 1739 H 172.637 -0.423501 3.09213 0
M  V30 1740 N 172.938 -1.57226 0.108567 0
M  V30 1741 C 174.163 -1.99604 -0.563303 0
M  V30 1742 C 174.588 -0.987563 -1.6009 0
M  V30 1743 O 173.946 0.0421687 -1.81251 0
M  V30 1744 C 173.994 -3.40902 -1.17552 0
M  V30 1745 O 173.098 -3.42896 -2.2912 0
M  V30 1746 H 172.439 -0.648704 -0.1417 0
M  V30 1747 H 174.969 -2.03679 0.193961 0
M  V30 1748 H 174.979 -3.78886 -1.51357 0
M  V30 1749 H 173.654 -4.1382 -0.415445 0
M  V30 1750 H 172.231 -3.1672 -1.96832 0
M  V30 1751 N 174.416 0.165178 -1.56732 0
M  V30 1752 C 175.641 0.900253 -1.86843 0
M  V30 1753 C 176.066 1.74766 -0.695596 0
M  V30 1754 O 175.424 1.77786 0.35522 0
M  V30 1755 C 175.472 1.74777 -3.15413 0
M  V30 1756 O 174.576 2.85007 -2.98068 0
M  V30 1757 H 173.917 0.251832 -0.614391 0
M  V30 1758 H 176.447 0.161468 -2.03962 0
M  V30 1759 H 176.457 2.14646 -3.46974 0
M  V30 1760 H 175.132 1.12537 -4.00385 0
M  V30 1761 H 173.709 2.48676 -2.77875 0
M  V30 1762 N 175.894 1.51508 0.433938 0
M  V30 1763 C 177.142 1.6402 1.18075 0
M  V30 1764 C 177.463 0.360328 1.91642 0
M  V30 1765 O 176.733 -0.623945 1.85698 0
M  V30 1766 H 175.313 0.6045 0.43885 0
M  V30 1767 H 177.975 1.88452 0.497178 0
M  V30 1768 H 177.071 2.46949 1.90847 0
M  V30 1769 N 177.372 -0.689602 1.41712 0
M  V30 1770 C 178.282 -1.83314 1.46401 0
M  V30 1771 C 179.298 -1.7036 0.35405 0
M  V30 1772 O 180.474 -1.92171 0.602692 0
M  V30 1773 C 177.539 -3.19344 1.34982 0
M  V30 1774 C 176.6 -3.44363 2.56344 0
M  V30 1775 C 175.833 -4.73904 2.45461 0
M  V30 1776 O 176.056 -5.508 1.48241 0
M  V30 1777 O 174.99 -4.99839 3.35328 0
M  V30 1778 H 178.816 -1.82314 2.42889 0
M  V30 1779 H 176.401 -0.843438 1.23315 0
M  V30 1780 H 178.283 -4.00547 1.3092 0
M  V30 1781 H 176.958 -3.21014 0.41612 0
M  V30 1782 H 175.865 -2.63067 2.65982 0
M  V30 1783 H 177.198 -3.47512 3.48563 0
M  V30 1784 N 178.85 -1.27639 -0.924453 0
M  V30 1785 C 179.78 -1.13166 -2.04244 0
M  V30 1786 C 180.761 -0.032256 -1.70069 0
M  V30 1787 O 181.946 -0.207328 -1.9309 0
M  V30 1788 C 179.076 -0.781496 -3.38393 0
M  V30 1789 C 178.03 -1.83449 -3.86692 0
M  V30 1790 C 177.356 -1.33822 -5.17683 0
M  V30 1791 C 178.656 -3.23917 -4.09726 0
M  V30 1792 H 180.35 -2.06689 -2.1661 0
M  V30 1793 H 177.896 -0.995136 -1.04082 0
M  V30 1794 H 179.849 -0.667057 -4.16087 0
M  V30 1795 H 178.573 0.189439 -3.2605 0
M  V30 1796 H 177.232 -1.93789 -3.11193 0
M  V30 1797 H 176.88 -0.35665 -5.01734 0
M  V30 1798 H 176.58 -2.04224 -5.50968 0
M  V30 1799 H 178.104 -1.23679 -5.97943 0
M  V30 1800 H 179.518 -3.16559 -4.77978 0
M  V30 1801 H 177.915 -3.92059 -4.54324 0
M  V30 1802 H 178.985 -3.68729 -3.14908 0
M  V30 1803 N 180.328 1.1314 -1.09713 0
M  V30 1804 C 181.553 1.88862 -0.857081 0
M  V30 1805 C 181.978 1.78729 0.586304 0
M  V30 1806 O 181.336 1.13692 1.41222 0
M  V30 1807 C 181.384 3.36325 -1.30069 0
M  V30 1808 O 180.488 4.09815 -0.461007 0
M  V30 1809 H 179.829 0.587108 -0.310162 0
M  V30 1810 H 182.359 1.43129 -1.46203 0
M  V30 1811 H 182.369 3.87157 -1.28738 0
M  V30 1812 H 181.044 3.43017 -2.35185 0
M  V30 1813 H 179.621 3.68986 -0.538888 0
M  V30 1814 N 181.806 0.884767 1.30421 0
M  V30 1815 C 182.753 0.349642 2.28136 0
M  V30 1816 C 183.723 -0.560061 1.56373 0
M  V30 1817 O 184.908 -0.488524 1.8444 0
M  V30 1818 C 182.048 -0.42999 3.42411 0
M  V30 1819 C 181.161 0.508907 4.28992 0
M  V30 1820 C 180.296 -0.286301 5.30428 0
M  V30 1821 C 179.335 0.648079 6.08659 0
M  V30 1822 N 178.472 -0.111792 7.02011 0
M  V30 1823 H 183.312 1.18807 2.73293 0
M  V30 1824 H 180.849 0.597231 1.3443 0
M  V30 1825 H 182.807 -0.897923 4.07423 0
M  V30 1826 H 181.437 -1.23299 2.98324 0
M  V30 1827 H 180.489 1.09533 3.64289 0
M  V30 1828 H 181.801 1.22475 4.8353 0
M  V30 1829 H 180.955 -0.816098 6.01186 0
M  V30 1830 H 179.694 -1.03536 4.76583 0
M  V30 1831 H 178.699 1.18951 5.36778 0
M  V30 1832 H 179.924 1.39623 6.64592 0
M  V30 1833 H 177.87 -0.843395 6.50556 0
M  V30 1834 H 177.787 0.544429 7.54037 0
M  V30 1835 H 179.055 -0.622339 7.77012 0
M  V30 1836 N 183.284 -1.43765 0.645699 0
M  V30 1837 C 184.194 -2.34544 -0.0512957 0
M  V30 1838 C 185.21 -1.53455 -0.82022 0
M  V30 1839 O 186.386 -1.86133 -0.769176 0
M  V30 1840 C 183.451 -3.31636 -1.01087 0
M  V30 1841 C 182.512 -4.2863 -0.239712 0
M  V30 1842 C 181.745 -5.21084 -1.15358 0
M  V30 1843 O 181.968 -5.1779 -2.39269 0
M  V30 1844 O 180.902 -5.98593 -0.630038 0
M  V30 1845 H 184.728 -2.95624 0.695718 0
M  V30 1846 H 182.313 -1.43781 0.405882 0
M  V30 1847 H 184.195 -3.9136 -1.56254 0
M  V30 1848 H 182.87 -2.73069 -1.73824 0
M  V30 1849 H 181.777 -3.72408 0.355356 0
M  V30 1850 H 183.11 -4.90157 0.447936 0
M  V30 1851 N 184.763 -0.387143 -1.52771 0
M  V30 1852 C 185.695 0.484089 -2.2403 0
M  V30 1853 C 186.708 1.02849 -1.26198 0
M  V30 1854 O 187.897 0.931186 -1.52286 0
M  V30 1855 C 184.997 1.68337 -2.94136 0
M  V30 1856 C 184.17 1.26672 -4.18656 0
M  V30 1857 C 183.229 2.33045 -4.7178 0
M  V30 1858 O 182.255 1.94541 -5.34923 0
M  V30 1859 N 183.457 3.64929 -4.5145 0
M  V30 1860 H 186.222 -0.126404 -2.99433 0
M  V30 1861 H 183.783 -0.213392 -1.60488 0
M  V30 1862 H 185.775 2.39019 -3.26577 0
M  V30 1863 H 184.345 2.20025 -2.22053 0
M  V30 1864 H 183.565 0.388878 -3.92277 0
M  V30 1865 H 184.853 0.964964 -4.99566 0
M  V30 1866 H 184.251 3.98974 -4.01044 0
M  V30 1867 H 182.808 4.31651 -4.88386 0
M  V30 1868 N 186.241 1.57166 -0.116904 0
M  V30 1869 C 187.49 1.94298 0.541407 0
M  V30 1870 C 187.803 1.00236 1.67964 0
M  V30 1871 O 189.009 1.26826 2.40057 0
M  V30 1872 C 187.465 3.45306 1.01449 0
M  V30 1873 C 187.073 4.47899 -0.0951738 0
M  V30 1874 C 188.817 3.91361 1.6443 0
M  V30 1875 C 186.724 5.90083 0.394491 0
M  V30 1876 H 185.654 0.725308 0.206019 0
M  V30 1877 H 188.305 1.82446 -0.196419 0
M  V30 1878 H 186.687 3.52385 1.80667 0
M  V30 1879 H 187.861 4.52486 -0.871374 0
M  V30 1880 H 186.176 4.11583 -0.631505 0
M  V30 1881 H 188.773 4.95004 2.02176 0
M  V30 1882 H 189.116 3.3122 2.52189 0
M  V30 1883 H 189.649 3.87073 0.917559 0
M  V30 1884 H 186.388 6.53974 -0.447004 0
M  V30 1885 H 185.908 5.88921 1.13722 0
M  V30 1886 H 187.587 6.41307 0.856399 0
M  V30 1887 N 187.719 -0.156864 1.56817 0
M  V30 1888 C 188.947 -0.886316 1.86955 0
M  V30 1889 C 189.362 -1.75185 0.703975 0
M  V30 1890 O 188.719 -1.79555 -0.326552 0
M  V30 1891 C 188.77 -1.75117 3.16253 0
M  V30 1892 O 188.491 -0.920537 4.2832 0
M  V30 1893 C 189.992 -2.58905 3.59837 0
M  V30 1894 H 187.212 -0.25678 0.619923 0
M  V30 1895 H 189.756 -0.152615 2.0393 0
M  V30 1896 H 187.911 -2.43805 3.01062 0
M  V30 1897 H 188.325 -1.51337 5.02192 0
M  V30 1898 H 189.799 -3.1518 4.53172 0
M  V30 1899 H 190.276 -3.34472 2.84649 0
M  V30 1900 H 190.882 -1.95526 3.7769 0
M  V30 1901 N 189.197 -1.51736 -0.425897 0
M  V30 1902 C 190.127 -1.76827 -1.52494 0
M  V30 1903 C 191.108 -0.618524 -1.58456 0
M  V30 1904 O 192.293 -0.862416 -1.74 0
M  V30 1905 C 189.423 -1.90374 -2.90474 0
M  V30 1906 C 188.377 -3.0588 -2.99369 0
M  V30 1907 C 187.703 -3.04625 -4.3944 0
M  V30 1908 C 189.003 -4.45644 -2.72394 0
M  V30 1909 H 190.697 -2.68855 -1.31748 0
M  V30 1910 H 188.243 -1.29372 -0.632362 0
M  V30 1911 H 190.196 -2.0651 -3.6733 0
M  V30 1912 H 188.92 -0.95004 -3.12477 0
M  V30 1913 H 187.579 -2.89467 -2.24954 0
M  V30 1914 H 187.227 -2.0701 -4.58428 0
M  V30 1915 H 186.927 -3.82195 -4.46319 0
M  V30 1916 H 188.451 -3.22869 -5.18255 0
M  V30 1917 H 189.865 -4.62348 -3.38979 0
M  V30 1918 H 188.262 -5.25006 -2.9067 0
M  V30 1919 H 189.332 -4.54893 -1.67929 0
M  V30 1920 N 190.675 0.682077 -1.42076 0
M  V30 1921 C 191.608 1.80666 -1.3941 0
M  V30 1922 C 192.586 1.60518 -0.25939 0
M  V30 1923 O 193.77 1.83088 -0.448456 0
M  V30 1924 C 190.897 3.17556 -1.17796 0
M  V30 1925 C 189.943 3.56468 -2.34164 0
M  V30 1926 S 190.776 3.59729 -3.96681 0
M  V30 1927 C 191.932 4.99323 -3.77395 0
M  V30 1928 H 192.165 1.82652 -2.34575 0
M  V30 1929 H 189.698 0.852062 -1.2876 0
M  V30 1930 H 191.656 3.96575 -1.06012 0
M  V30 1931 H 190.317 3.13164 -0.242279 0
M  V30 1932 H 189.51 4.5595 -2.1477 0
M  V30 1933 H 189.112 2.84792 -2.42425 0
M  V30 1934 H 191.404 5.87202 -3.37935 0
M  V30 1935 H 192.347 5.23763 -4.76527 0
M  V30 1936 H 192.755 4.71498 -3.10403 0
M  V30 1937 N 192.153 1.28127 0.917671 0
M  V30 1938 C 193.116 1.11744 2.00115 0
M  V30 1939 C 194.116 0.0583052 1.60694 0
M  V30 1940 O 195.306 0.303755 1.71531 0
M  V30 1941 C 192.438 0.704862 3.33533 0
M  V30 1942 H 193.631 2.07966 2.16079 0
M  V30 1943 H 191.184 1.11058 1.09981 0
M  V30 1944 H 191.919 -0.258299 3.2327 0
M  V30 1945 H 191.704 1.4699 3.63505 0
M  V30 1946 H 193.194 0.612768 4.1308 0
M  V30 1947 N 193.631 -1.12557 1.10312 0
M  V30 1948 C 194.578 -2.18247 0.750781 0
M  V30 1949 C 195.548 -1.63853 -0.272293 0
M  V30 1950 O 196.733 -1.90195 -0.151862 0
M  V30 1951 C 193.873 -3.44591 0.187379 0
M  V30 1952 C 192.986 -4.13046 1.2656 0
M  V30 1953 C 192.121 -5.27034 0.663978 0
M  V30 1954 C 191.16 -5.87353 1.72287 0
M  V30 1955 N 190.297 -6.92757 1.1416 0
M  V30 1956 H 195.137 -2.47732 1.65628 0
M  V30 1957 H 192.674 -1.21629 0.827337 0
M  V30 1958 H 194.632 -4.16904 -0.157148 0
M  V30 1959 H 193.262 -3.15527 -0.681355 0
M  V30 1960 H 192.314 -3.38924 1.72727 0
M  V30 1961 H 193.626 -4.53947 2.06721 0
M  V30 1962 H 192.78 -6.06104 0.268824 0
M  V30 1963 H 191.519 -4.87407 -0.169082 0
M  V30 1964 H 190.524 -5.06971 2.12746 0
M  V30 1965 H 191.749 -6.29051 2.55875 0
M  V30 1966 H 189.695 -6.5517 0.329984 0
M  V30 1967 H 189.612 -7.3225 1.88007 0
M  V30 1968 H 190.88 -7.75658 0.772956 0
M  V30 1969 N 195.109 -0.891671 -1.2995 0
M  V30 1970 C 196.339 -0.527893 -1.99742 0
M  V30 1971 C 196.747 0.88979 -1.66971 0
M  V30 1972 O 196.09 1.59766 -0.906667 0
M  V30 1973 C 196.152 -0.630804 -3.53922 0
M  V30 1974 C 195.816 -2.01401 -4.10228 0
M  V30 1975 C 196.813 -2.98422 -4.25724 0
M  V30 1976 C 194.498 -2.32121 -4.45449 0
M  V30 1977 C 196.492 -4.24293 -4.75662 0
M  V30 1978 C 194.179 -3.58237 -4.95086 0
M  V30 1979 C 195.177 -4.54137 -5.10146 0
M  V30 1980 O 194.865 -5.78014 -5.58708 0
M  V30 1981 H 194.597 -0.201953 -0.645129 0
M  V30 1982 H 197.151 -1.20076 -1.66646 0
M  V30 1983 H 195.381 0.0990616 -3.86573 0
M  V30 1984 H 197.07 -0.277338 -4.04951 0
M  V30 1985 H 197.836 -2.76001 -3.98809 0
M  V30 1986 H 193.715 -1.5824 -4.32991 0
M  V30 1987 H 197.259 -4.99153 -4.87332 0
M  V30 1988 H 193.156 -3.80491 -5.21437 0
M  V30 1989 H 193.924 -5.8049 -5.77039 0
M  V30 1990 N 196.587 1.43421 -0.653314 0
M  V30 1991 C 197.836 2.01032 -0.164076 0
M  V30 1992 C 198.149 1.52147 1.22926 0
M  V30 1993 O 199.355 2.02031 1.81371 0
M  V30 1994 C 197.811 3.59082 -0.24252 0
M  V30 1995 C 197.419 4.1696 -1.63855 0
M  V30 1996 C 199.163 4.24079 0.18911 0
M  V30 1997 C 197.07 5.67304 -1.67092 0
M  V30 1998 H 196 0.751798 -0.0575769 0
M  V30 1999 H 198.651 1.6439 -0.815362 0
M  V30 2000 H 197.033 3.93125 0.476276 0
M  V30 2001 H 198.207 3.94416 -2.38271 0
M  V30 2002 H 196.522 3.64335 -2.01616 0
M  V30 2003 H 199.119 5.34381 0.184775 0
M  V30 2004 H 199.462 3.98005 1.22056 0
M  V30 2005 H 199.995 3.94918 -0.477938 0
M  V30 2006 H 196.734 5.98145 -2.68146 0
M  V30 2007 H 196.254 5.91904 -0.970014 0
M  V30 2008 H 197.933 6.31344 -1.4147 0
M  V30 2009 N 198.065 0.39524 1.52563 0
M  V30 2010 C 198.997 -0.472201 2.24283 0
M  V30 2011 C 200.01 -1.02178 1.26742 0
M  V30 2012 O 201.199 -0.923097 1.52778 0
M  V30 2013 C 198.299 -1.66775 2.95024 0
M  V30 2014 C 197.472 -1.2445 4.19322 0
M  V30 2015 C 196.531 -2.30539 4.7301 0
M  V30 2016 O 195.557 -1.91702 5.35947 0
M  V30 2017 N 196.759 -3.6253 4.53379 0
M  V30 2018 H 199.524 0.142282 2.99362 0
M  V30 2019 H 197.085 0.2219 1.60372 0
M  V30 2020 H 199.077 -2.37283 3.27839 0
M  V30 2021 H 197.647 -2.18845 2.23217 0
M  V30 2022 H 196.867 -0.368069 3.92478 0
M  V30 2023 H 198.155 -0.938457 5.0007 0
M  V30 2024 H 197.553 -3.96841 4.03154 0
M  V30 2025 H 196.11 -4.29055 4.90668 0
M  V30 2026 N 199.544 -1.57102 0.125237 0
M  V30 2027 C 200.494 -2.12202 -0.833936 0
M  V30 2028 C 201.478 -1.04433 -1.22403 0
M  V30 2029 O 202.67 -1.30655 -1.19408 0
M  V30 2030 C 199.799 -2.72994 -2.08157 0
M  V30 2031 C 198.885 -3.87852 -1.71556 0
M  V30 2032 N 199.276 -4.9464 -1.05662 0
M  V30 2033 C 197.574 -3.98153 -2.00973 0
M  V30 2034 C 198.275 -5.74953 -0.883376 0
M  V30 2035 N 197.251 -5.24985 -1.41036 0
M  V30 2036 H 201.053 -2.92141 -0.321035 0
M  V30 2037 H 198.567 -1.62217 -0.0770315 0
M  V30 2038 H 200.564 -3.10816 -2.77847 0
M  V30 2039 H 199.224 -1.9452 -2.59985 0
M  V30 2040 H 200.235 -5.12872 -0.719878 0
M  V30 2041 H 196.912 -3.30728 -2.54804 0
M  V30 2042 H 198.302 -6.70904 -0.365675 0
M  V30 2043 N 201.022 0.148545 -1.56898 0
M  V30 2044 C 202.25 0.876389 -1.87422 0
M  V30 2045 C 202.665 1.74809 -0.713256 0
M  V30 2046 O 202.022 1.79725 0.317025 0
M  V30 2047 C 202.073 1.73438 -3.17178 0
M  V30 2048 O 201.794 0.897809 -4.28802 0
M  V30 2049 C 203.295 2.56993 -3.61205 0
M  V30 2050 H 200.515 0.253489 -0.621277 0
M  V30 2051 H 203.059 0.141798 -2.04008 0
M  V30 2052 H 201.214 2.42205 -3.0235 0
M  V30 2053 H 201.628 1.48672 -5.02988 0
M  V30 2054 H 203.102 3.12773 -4.54838 0
M  V30 2055 H 203.579 3.32958 -2.86419 0
M  V30 2056 H 204.185 1.9352 -3.78722 0
M  V30 2057 N 202.5 1.5196 0.417844 0
M  V30 2058 C 203.911 1.57851 0.997 0
M  V30 2059 C 204.262 0.413714 1.91789 0
M  V30 2060 O 203.387 -0.467057 2.113 0
M  V30 2061 C 203.982 2.86085 1.81496 0
M  V30 2062 C 202.541 2.94483 2.34428 0
M  V30 2063 C 201.688 2.52707 1.14169 0
M  V30 2064 H 204.639 1.57455 0.198392 0
M  V30 2065 H 204.66 2.70947 2.67148 0
M  V30 2066 H 204.172 3.70842 1.14446 0
M  V30 2067 H 202.273 2.142 3.04875 0
M  V30 2068 H 202.386 3.98546 2.65891 0
M  V30 2069 H 200.75 2.06353 1.49301 0
M  V30 2070 H 201.533 3.39828 0.486999 0
M  V30 2071 N 203.978 -0.674533 1.42435 0
M  V30 2072 C 205.389 -1.25514 1.38214 0
M  V30 2073 C 205.74 -1.96055 0.0755464 0
M  V30 2074 O 204.865 -2.00028 -0.8257 0
M  V30 2075 C 205.46 -2.28269 2.50357 0
M  V30 2076 C 204.019 -2.81856 2.49467 0
M  V30 2077 C 203.166 -1.56182 2.29134 0
M  V30 2078 H 206.117 -0.467902 1.51646 0
M  V30 2079 H 206.138 -3.10009 2.20624 0
M  V30 2080 H 205.65 -1.769 3.45439 0
M  V30 2081 H 203.751 -3.37346 1.58204 0
M  V30 2082 H 203.864 -3.30854 3.46515 0
M  V30 2083 H 202.228 -1.82761 1.774 0
M  V30 2084 H 203.011 -1.06778 3.26272 0
M  V30 2085 N 205.456 -1.28612 -0.910864 0
M  V30 2086 C 206.388 -1.08589 -2.01844 0
M  V30 2087 C 207.401 -0.0367419 -1.62759 0
M  V30 2088 O 208.59 -0.280101 -1.76289 0
M  V30 2089 C 205.69 -0.628626 -3.33019 0
M  V30 2090 C 204.863 -1.75382 -4.00699 0
M  V30 2091 C 203.922 -1.28945 -5.10156 0
M  V30 2092 O 202.948 -1.9922 -5.33198 0
M  V30 2093 N 204.15 -0.154224 -5.80295 0
M  V30 2094 H 206.915 -2.03973 -2.19579 0
M  V30 2095 H 204.476 -1.20403 -1.08234 0
M  V30 2096 H 206.468 -0.301508 -4.03575 0
M  V30 2097 H 205.038 0.232451 -3.11735 0
M  V30 2098 H 204.258 -2.25039 -3.23653 0
M  V30 2099 H 205.546 -2.50854 -4.42662 0
M  V30 2100 H 204.944 0.43194 -5.64049 0
M  V30 2101 H 203.501 0.113599 -6.51701 0
M  V30 2102 N 206.934 1.1197 -1.10907 0
M  V30 2103 C 208.345 1.65114 -0.871446 0
M  V30 2104 C 208.696 1.86885 0.597353 0
M  V30 2105 O 207.821 1.59896 1.45816 0
M  V30 2106 C 208.416 2.99944 -1.5754 0
M  V30 2107 C 206.975 3.50018 -1.38435 0
M  V30 2108 C 206.122 2.24941 -1.62164 0
M  V30 2109 H 209.073 0.956851 -1.2661 0
M  V30 2110 H 209.094 3.66651 -1.01721 0
M  V30 2111 H 208.606 2.84067 -2.64438 0
M  V30 2112 H 206.707 3.71071 -0.337214 0
M  V30 2113 H 206.82 4.29165 -2.12965 0
M  V30 2114 H 205.184 2.3229 -1.04467 0
M  V30 2115 H 205.967 2.11612 -2.70324 0
M  V30 2116 N 208.412 0.89855 1.29475 0
M  V30 2117 C 209.823 0.572537 1.77705 0
M  V30 2118 C 210.174 -0.911778 1.73727 0
M  V30 2119 O 209.299 -1.71288 1.32247 0
M  V30 2120 C 209.894 1.03252 3.22683 0
M  V30 2121 C 208.453 0.757687 3.68695 0
M  V30 2122 C 207.6 1.20787 2.49612 0
M  V30 2123 H 210.551 1.08139 1.16153 0
M  V30 2124 H 210.572 0.367307 3.78723 0
M  V30 2125 H 210.084 2.11285 3.25546 0
M  V30 2126 H 208.185 -0.310079 3.71308 0
M  V30 2127 H 208.298 1.35476 4.59547 0
M  V30 2128 H 206.662 0.626888 2.46865 0
M  V30 2129 H 207.445 2.29622 2.55203 0
M  V30 2130 N 209.89 -1.43072 0.660911 0
M  V30 2131 C 210.8 -2.34585 -0.0264163 0
M  V30 2132 C 211.816 -1.54316 -0.803898 0
M  V30 2133 O 212.992 -1.86939 -0.749391 0
M  V30 2134 C 210.057 -3.32689 -0.975639 0
M  V30 2135 C 209.118 -4.2886 -0.194236 0
M  V30 2136 C 208.351 -5.22278 -1.09825 0
M  V30 2137 O 208.574 -5.20299 -2.33763 0
M  V30 2138 O 207.508 -5.99228 -0.566513 0
M  V30 2139 H 211.334 -2.94869 0.727034 0
M  V30 2140 H 208.919 -1.43342 0.42111 0
M  V30 2141 H 210.801 -3.92995 -1.52094 0
M  V30 2142 H 209.476 -2.74898 -1.70918 0
M  V30 2143 H 208.383 -3.72011 0.394835 0
M  V30 2144 H 209.716 -4.89655 0.499899 0
M  V30 2145 N 211.368 -0.403325 -1.52352 0
M  V30 2146 C 212.614 0.167015 -2.02713 0
M  V30 2147 C 212.969 1.43296 -1.28391 0
M  V30 2148 O 212.262 1.87796 -0.379885 0
M  V30 2149 C 212.456 0.474665 -3.54234 0
M  V30 2150 C 212.285 -0.759909 -4.43233 0
M  V30 2151 C 211.055 -1.28338 -4.88731 0
M  V30 2152 C 213.253 -1.63634 -4.87574 0
M  V30 2153 N 211.235 -2.47404 -5.6184 0
M  V30 2154 C 212.606 -2.67329 -5.59406 0
M  V30 2155 C 214.661 -1.65478 -4.69597 0
M  V30 2156 C 213.364 -3.72773 -6.15169 0
M  V30 2157 C 215.39 -2.69837 -5.26253 0
M  V30 2158 C 214.752 -3.72253 -5.98002 0
M  V30 2159 H 210.851 0.0228343 -0.781667 0
M  V30 2160 H 213.435 -0.556368 -1.86581 0
M  V30 2161 H 211.606 1.16709 -3.7045 0
M  V30 2162 H 213.338 1.03338 -3.91284 0
M  V30 2163 H 210.093 -0.842273 -4.6605 0
M  V30 2164 H 210.517 -3.07688 -6.0304 0
M  V30 2165 H 215.159 -0.876389 -4.13617 0
M  V30 2166 H 212.877 -4.51471 -6.70223 0
M  V30 2167 H 216.463 -2.72164 -5.14216 0
M  V30 2168 H 215.343 -4.51679 -6.41058 0
M  V30 2169 N 212.846 1.57033 -0.133567 0
M  V30 2170 C 214.094 1.953 0.519848 0
M  V30 2171 C 214.415 1.01866 1.66278 0
M  V30 2172 O 213.685 0.0776513 1.95746 0
M  V30 2173 H 212.265 0.721091 0.195032 0
M  V30 2174 H 214.927 1.93809 -0.205921 0
M  V30 2175 H 214.023 2.98695 0.904854 0
M  V30 2176 N 214.325 -0.140222 1.56975 0
M  V30 2177 C 215.258 -1.20266 1.93936 0
M  V30 2178 C 216.236 -1.41212 0.806099 0
M  V30 2179 O 217.42 -1.55713 1.06234 0
M  V30 2180 C 214.547 -2.56037 2.21726 0
M  V30 2181 C 213.593 -2.51646 3.44349 0
M  V30 2182 S 214.426 -1.97678 4.97678 0
M  V30 2183 C 215.582 -3.35165 5.28597 0
M  V30 2184 H 215.815 -0.887358 2.83749 0
M  V30 2185 H 213.348 -0.346119 1.50471 0
M  V30 2186 H 215.306 -3.34167 2.38416 0
M  V30 2187 H 213.967 -2.84755 1.32566 0
M  V30 2188 H 213.16 -3.51608 3.61092 0
M  V30 2189 H 212.762 -1.81628 3.26936 0
M  V30 2190 H 215.054 -4.31302 5.2248 0
M  V30 2191 H 215.997 -3.23269 6.30002 0
M  V30 2192 H 216.405 -3.32614 4.56101 0
M  V30 2193 N 215.803 -1.52179 -0.40978 0
M  V30 2194 C 217.214 -1.58377 -0.988615 0
M  V30 2195 C 217.565 -0.423879 -1.91566 0
M  V30 2196 O 216.69 0.455844 -2.11544 0
M  V30 2197 C 217.285 -2.87044 -1.79976 0
M  V30 2198 C 215.844 -2.95722 -2.32863 0
M  V30 2199 C 214.991 -2.53309 -1.12828 0
M  V30 2200 H 217.942 -1.57558 -0.190039 0
M  V30 2201 H 217.963 -2.7236 -2.65707 0
M  V30 2202 H 217.475 -3.71444 -1.12478 0
M  V30 2203 H 215.576 -2.15814 -3.03735 0
M  V30 2204 H 215.689 -3.99951 -2.63773 0
M  V30 2205 H 214.053 -2.07142 -1.48204 0
M  V30 2206 H 214.836 -3.40082 -0.46897 0
M  V30 2207 N 217.281 0.66697 -1.42791 0
M  V30 2208 C 218.191 1.80962 -1.49299 0
M  V30 2209 C 219.207 1.69775 -0.381108 0
M  V30 2210 O 220.383 1.91188 -0.633188 0
M  V30 2211 C 217.448 3.17156 -1.40045 0
M  V30 2212 C 216.509 3.40242 -2.6179 0
M  V30 2213 C 215.742 4.69939 -2.52969 0
M  V30 2214 O 215.965 5.48372 -1.56985 0
M  V30 2215 O 214.899 4.94441 -3.43237 0
M  V30 2216 H 218.725 1.78427 -2.45759 0
M  V30 2217 H 216.31 0.823713 -1.24641 0
M  V30 2218 H 218.192 3.98413 -1.37276 0
M  V30 2219 H 216.867 3.20312 -0.467138 0
M  V30 2220 H 215.774 2.58802 -2.70134 0
M  V30 2221 H 217.107 3.41923 -3.54047 0
M  V30 2222 N 218.759 1.29093 0.90403 0
M  V30 2223 C 219.692 1.08176 2.00931 0
M  V30 2224 C 220.67 -0.005083 1.62599 0
M  V30 2225 O 221.854 0.144765 1.87943 0
M  V30 2226 C 218.981 0.645897 3.32484 0
M  V30 2227 C 218.027 1.73081 3.89801 0
M  V30 2228 S 218.86 3.32905 4.19446 0
M  V30 2229 C 220.016 2.91176 5.54046 0
M  V30 2230 H 220.249 2.01752 2.18365 0
M  V30 2231 H 217.782 1.13191 1.0501 0
M  V30 2232 H 219.74 0.401131 4.08535 0
M  V30 2233 H 218.401 -0.270188 3.12936 0
M  V30 2234 H 217.594 1.37768 4.84805 0
M  V30 2235 H 217.196 1.92888 3.20422 0
M  V30 2236 H 219.488 2.37952 6.34338 0
M  V30 2237 H 220.431 3.85014 5.94281 0
M  V30 2238 H 220.839 2.296 5.15698 0
M  V30 2239 N 220.237 -1.11381 1.11499 0
M  V30 2240 C 221.653 -1.35143 0.849031 0
M  V30 2241 C 221.853 -1.94515 -0.525938 0
M  V30 2242 O 220.909 -2.1785 -1.27662 0
M  V30 2243 C 222.222 -2.28249 1.95762 0
M  V30 2244 C 223.77 -2.41812 1.98736 0
M  V30 2245 C 224.245 -3.3824 3.088 0
M  V30 2246 N 225.736 -3.45803 3.08179 0
M  V30 2247 C 226.471 -4.20358 3.89982 0
M  V30 2248 N 225.967 -4.97884 4.8175 0
M  V30 2249 N 227.76 -4.15877 3.78157 0
M  V30 2250 H 219.911 -0.712062 2.00109 0
M  V30 2251 H 222.174 -0.376025 0.870235 0
M  V30 2252 H 221.88 -1.91817 2.94787 0
M  V30 2253 H 221.754 -3.28473 1.85433 0
M  V30 2254 H 224.141 -2.77518 1.00338 0
M  V30 2255 H 224.222 -1.41437 2.13141 0
M  V30 2256 H 223.866 -3.03261 4.07425 0
M  V30 2257 H 223.796 -4.38471 2.91635 0
M  V30 2258 H 226.287 -2.90506 2.41691 0
M  V30 2259 H 226.6 -5.52142 5.40702 0
M  V30 2260 H 224.945 -4.97043 4.85771 0
M  V30 2261 H 228.136 -3.544 3.05808 0
M  V30 2262 H 228.309 -4.73723 4.42143 0
M  V30 2263 N 221.715 -0.905404 -1.28997 0
M  V30 2264 C 222.625 -0.392246 -2.31298 0
M  V30 2265 C 223.641 0.515889 -1.66176 0
M  V30 2266 O 224.817 0.404093 -1.97304 0
M  V30 2267 C 221.882 0.36686 -3.44754 0
M  V30 2268 C 220.943 -0.573485 -4.25452 0
M  V30 2269 C 220.176 0.149488 -5.33491 0
M  V30 2270 O 220.399 1.37255 -5.5364 0
M  V30 2271 O 219.333 -0.510919 -5.99728 0
M  V30 2272 H 223.159 -1.2411 -2.77183 0
M  V30 2273 H 220.744 -0.669926 -1.33538 0
M  V30 2274 H 222.626 0.795907 -4.13816 0
M  V30 2275 H 221.301 1.19169 -3.00966 0
M  V30 2276 H 220.208 -1.05176 -3.59011 0
M  V30 2277 H 221.541 -1.36489 -4.72897 0
M  V30 2278 N 223.193 1.4272 -0.668489 0
M  V30 2279 C 224.418 2.06484 -0.194758 0
M  V30 2280 C 224.843 1.49862 1.13679 0
M  V30 2281 O 224.201 0.614582 1.70565 0
M  V30 2282 C 224.249 3.60353 -0.133546 0
M  V30 2283 O 223.353 4.02464 0.899806 0
M  V30 2284 H 222.694 0.656137 -0.10188 0
M  V30 2285 H 225.224 1.82964 -0.915722 0
M  V30 2286 H 225.234 4.07976 0.0447041 0
M  V30 2287 H 223.909 4.00938 -1.1055 0
M  V30 2288 H 222.486 3.66402 0.693109 0
M  V30 2289 N 224.671 0.411399 1.52136 0
M  V30 2290 C 225.917 -0.156262 2.02799 0
M  V30 2291 C 226.272 -1.42613 1.29149 0
M  V30 2292 O 225.565 -1.87592 0.389839 0
M  V30 2293 C 225.759 -0.455872 3.54481 0
M  V30 2294 C 225.588 0.783404 4.42824 0
M  V30 2295 C 224.358 1.30928 4.88043 0
M  V30 2296 C 226.556 1.66217 4.86699 0
M  V30 2297 N 224.538 2.5038 5.6052 0
M  V30 2298 C 225.909 2.70292 5.5798 0
M  V30 2299 C 227.964 1.67966 4.68713 0
M  V30 2300 C 226.667 3.7603 6.13184 0
M  V30 2301 C 228.693 2.72624 5.24815 0
M  V30 2302 C 228.055 3.7542 5.9602 0
M  V30 2303 H 224.154 -0.0186886 0.781777 0
M  V30 2304 H 226.738 0.566255 1.86284 0
M  V30 2305 H 224.909 -1.14743 3.71064 0
M  V30 2306 H 226.641 -1.01261 3.91827 0
M  V30 2307 H 223.396 0.866977 4.65597 0
M  V30 2308 H 223.82 3.10881 6.014 0
M  V30 2309 H 228.462 0.898312 4.13147 0
M  V30 2310 H 226.18 4.55019 6.6782 0
M  V30 2311 H 229.766 2.74887 5.12765 0
M  V30 2312 H 228.646 4.55073 6.38654 0
M  V30 2313 N 226.149 -1.5696 0.141893 0
M  V30 2314 C 227.096 -2.16501 -0.799737 0
M  V30 2315 C 228.066 -1.09643 -1.24771 0
M  V30 2316 O 229.251 -1.3766 -1.32115 0
M  V30 2317 C 226.391 -2.78679 -2.03549 0
M  V30 2318 C 225.504 -3.99914 -1.6338 0
M  V30 2319 C 224.639 -4.50106 -2.82096 0
M  V30 2320 C 223.678 -5.63819 -2.38275 0
M  V30 2321 N 222.815 -6.08651 -3.49983 0
M  V30 2322 H 227.655 -2.96632 -0.285179 0
M  V30 2323 H 225.192 -1.46533 -0.129053 0
M  V30 2324 H 227.15 -3.1287 -2.75986 0
M  V30 2325 H 225.78 -2.012 -2.52425 0
M  V30 2326 H 224.832 -3.71735 -0.807279 0
M  V30 2327 H 226.144 -4.82311 -1.27192 0
M  V30 2328 H 225.298 -4.86325 -3.62729 0
M  V30 2329 H 224.037 -3.66706 -3.21525 0
M  V30 2330 H 223.042 -5.2718 -1.56081 0
M  V30 2331 H 224.267 -6.49 -1.99938 0
M  V30 2332 H 222.213 -5.28188 -3.89042 0
M  V30 2333 H 222.13 -6.85961 -3.17794 0
M  V30 2334 H 223.398 -6.49515 -4.30988 0
M  V30 2335 N 227.627 0.131896 -1.57047 0
M  V30 2336 C 228.873 0.843179 -1.84441 0
M  V30 2337 C 229.206 1.80129 -0.725749 0
M  V30 2338 O 228.481 1.92624 0.269469 0
M  V30 2339 C 228.764 1.60442 -3.22382 0
M  V30 2340 C 228.617 0.666782 -4.4483 0
M  V30 2341 C 229.936 2.56354 -3.5773 0
M  V30 2342 H 227.055 0.305081 -0.670891 0
M  V30 2343 H 229.697 0.107839 -1.89694 0
M  V30 2344 H 227.847 2.23128 -3.18035 0
M  V30 2345 H 229.519 0.0497646 -4.61273 0
M  V30 2346 H 227.762 -0.022609 -4.33794 0
M  V30 2347 H 228.433 1.23579 -5.37989 0
M  V30 2348 H 230.909 2.0378 -3.62785 0
M  V30 2349 H 229.785 3.06657 -4.5525 0
M  V30 2350 H 230.046 3.38419 -2.84473 0
M  V30 2351 N 229.106 1.52395 0.401703 0
M  V30 2352 C 230.036 1.79231 1.49661 0
M  V30 2353 C 231.017 0.643654 1.57452 0
M  V30 2354 O 232.202 0.889989 1.72606 0
M  V30 2355 C 229.332 1.94971 2.87409 0
M  V30 2356 C 228.286 3.10604 2.94465 0
M  V30 2357 C 227.612 3.11577 4.34538 0
M  V30 2358 C 228.912 4.49921 2.6527 0
M  V30 2359 H 230.606 2.70917 1.27454 0
M  V30 2360 H 228.152 1.30362 0.6117 0
M  V30 2361 H 230.105 2.12328 3.63999 0
M  V30 2362 H 228.829 0.999632 3.10926 0
M  V30 2363 H 227.488 2.93009 2.20321 0
M  V30 2364 H 227.136 2.14277 4.55076 0
M  V30 2365 H 226.836 3.89247 4.40183 0
M  V30 2366 H 228.36 3.31073 5.13053 0
M  V30 2367 H 229.774 4.67683 3.31581 0
M  V30 2368 H 228.171 5.29564 2.82281 0
M  V30 2369 H 229.241 4.57507 1.60671 0
M  V30 2370 N 230.584 -0.659388 1.43143 0
M  V30 2371 C 231.83 -1.42145 1.44647 0
M  V30 2372 C 232.163 -1.9408 0.0681907 0
M  V30 2373 O 231.438 -1.71899 -0.910007 0
M  V30 2374 C 231.721 -2.60735 2.48373 0
M  V30 2375 C 231.574 -2.14332 3.95451 0
M  V30 2376 C 232.893 -3.62951 2.48906 0
M  V30 2377 H 230.012 -0.51552 0.526696 0
M  V30 2378 H 232.654 -0.748069 1.74654 0
M  V30 2379 H 230.804 -3.18184 2.22916 0
M  V30 2380 H 232.476 -1.61932 4.31944 0
M  V30 2381 H 230.719 -1.4576 4.08578 0
M  V30 2382 H 231.39 -2.99583 4.63631 0
M  V30 2383 H 233.866 -3.1525 2.71582 0
M  V30 2384 H 232.742 -4.43487 3.23435 0
M  V30 2385 H 233.003 -4.15126 1.52061 0
M  V30 2386 N 232.062 -1.29571 -0.897171 0
M  V30 2387 C 233.009 -1.14916 -2.00158 0
M  V30 2388 C 233.979 -0.0418149 -1.66047 0
M  V30 2389 O 235.164 -0.209793 -1.89643 0
M  V30 2390 C 232.304 -0.834307 -3.34863 0
M  V30 2391 C 231.417 -2.02234 -3.8174 0
M  V30 2392 C 230.552 -1.64664 -5.05034 0
M  V30 2393 C 229.591 -2.80033 -5.44286 0
M  V30 2394 N 228.728 -2.42843 -6.58765 0
M  V30 2395 H 233.568 -2.09403 -2.12025 0
M  V30 2396 H 231.105 -1.042 -1.0383 0
M  V30 2397 H 233.063 -0.632436 -4.12379 0
M  V30 2398 H 231.693 0.0736656 -3.22716 0
M  V30 2399 H 230.745 -2.33583 -3.00238 0
M  V30 2400 H 232.057 -2.88673 -4.06779 0
M  V30 2401 H 231.211 -1.4078 -5.9014 0
M  V30 2402 H 229.95 -0.753766 -4.8184 0
M  V30 2403 H 228.955 -3.04596 -4.57713 0
M  V30 2404 H 230.18 -3.69989 -5.6946 0
M  V30 2405 H 228.126 -1.56046 -6.3717 0
M  V30 2406 H 228.043 -3.22815 -6.83613 0
M  V30 2407 H 229.311 -2.22285 -7.47134 0
M  V30 2408 N 233.54 1.10788 -1.12088 0
M  V30 2409 C 234.951 1.64181 -0.88891 0
M  V30 2410 C 235.302 1.87508 0.577498 0
M  V30 2411 O 234.427 1.61434 1.44112 0
M  V30 2412 C 235.022 2.98257 -1.60712 0
M  V30 2413 C 233.581 3.4853 -1.42139 0
M  V30 2414 C 232.728 2.23208 -1.6454 0
M  V30 2415 H 235.679 0.943368 -1.27618 0
M  V30 2416 H 235.7 3.65552 -1.05604 0
M  V30 2417 H 235.212 2.81246 -2.67436 0
M  V30 2418 H 233.313 3.70692 -0.376552 0
M  V30 2419 H 233.426 4.26882 -2.17505 0
M  V30 2420 H 231.79 2.31169 -1.06925 0
M  V30 2421 H 232.573 2.08733 -2.72554 0
M  V30 2422 N 235.018 0.912232 1.28515 0
M  V30 2423 C 235.928 0.404506 2.31086 0
M  V30 2424 C 236.944 -0.50707 1.66448 0
M  V30 2425 O 238.12 -0.393624 1.97516 0
M  V30 2426 C 235.185 -0.348572 3.44943 0
M  V30 2427 C 234.246 0.59604 4.25142 0
M  V30 2428 C 233.479 -0.121194 5.33562 0
M  V30 2429 O 233.702 -1.34317 5.5436 0
M  V30 2430 O 232.636 0.542716 5.99448 0
M  V30 2431 H 236.462 1.25579 2.76521 0
M  V30 2432 H 234.047 0.676998 1.33181 0
M  V30 2433 H 235.929 -0.77395 4.14232 0
M  V30 2434 H 234.604 -1.17571 3.01594 0
M  V30 2435 H 233.511 1.07079 3.58448 0
M  V30 2436 H 234.844 1.38995 4.72167 0
M  V30 2437 N 236.496 -1.42363 0.676048 0
M  V30 2438 C 237.773 -1.95183 0.127726 0
M  V30 2439 C 238.153 -1.61641 -1.35777 0
M  V30 2440 O 237.501 -0.913216 -2.09458 0
M  V30 2441 C 237.711 -3.46721 0.398199 0
M  V30 2442 C 239.059 -4.23427 0.315383 0
M  V30 2443 O 240.083 -3.54649 0.332016 0
M  V30 2444 O 238.942 -5.45888 0.25865 0
M  V30 2445 H 236.036 -0.826992 0.00359427 0
M  V30 2446 H 238.582 -1.52184 0.750864 0
M  V30 2447 H 237.354 -3.64344 1.4272 0
M  V30 2448 H 236.977 -3.96769 -0.256885 0
M  V30 2449 N 237.974 -0.419461 -1.51915 0
M  V30 2450 C 239.39 -0.0708431 -1.59443 0
M  V30 2451 C 239.59 1.41796 -1.43164 0
M  V30 2452 O 238.646 2.18596 -1.26381 0
M  V30 2453 C 239.959 -0.574991 -2.95151 0
M  V30 2454 C 241.507 -0.533867 -3.08413 0
M  V30 2455 C 241.982 -1.01469 -4.46618 0
M  V30 2456 N 243.473 -0.971939 -4.52888 0
M  V30 2457 C 244.208 -1.31505 -5.58116 0
M  V30 2458 N 243.704 -1.73014 -6.70849 0
M  V30 2459 N 245.497 -1.23436 -5.48379 0
M  V30 2460 H 237.648 -1.38836 -1.60743 0
M  V30 2461 H 239.911 -0.570998 -0.756747 0
M  V30 2462 H 239.617 -1.61597 -3.12377 0
M  V30 2463 H 239.491 0.00979777 -3.77199 0
M  V30 2464 H 241.878 0.498086 -2.90866 0
M  V30 2465 H 241.959 -1.15484 -2.28248 0
M  V30 2466 H 241.603 -2.04502 -4.6491 0
M  V30 2467 H 241.533 -0.370433 -5.25295 0
M  V30 2468 H 244.024 -0.666893 -3.71969 0
M  V30 2469 H 244.337 -1.97479 -7.47143 0
M  V30 2470 H 242.682 -1.76926 -6.72103 0
M  V30 2471 H 245.873 -0.908869 -4.59192 0
M  V30 2472 H 246.046 -1.50506 -6.30279 0
M  V30 2473 N 239.452 1.56882 -0.150215 0
M  V30 2474 C 240.863 1.82995 0.370076 0
M  V30 2475 C 241.214 1.06907 1.64515 0
M  V30 2476 O 240.339 0.315369 2.1409 0
M  V30 2477 C 240.934 3.31942 0.678208 0
M  V30 2478 C 239.493 3.58625 1.14301 0
M  V30 2479 C 238.64 2.76792 0.167778 0
M  V30 2480 H 241.591 1.54209 -0.374858 0
M  V30 2481 H 241.612 3.48272 1.53254 0
M  V30 2482 H 241.124 3.87294 -0.249991 0
M  V30 2483 H 239.225 3.08664 2.08704 0
M  V30 2484 H 239.338 4.67073 1.06676 0
M  V30 2485 H 237.702 2.45972 0.661037 0
M  V30 2486 H 238.485 3.34916 -0.754069 0
M  V30 2487 N 240.93 -0.123565 1.57115 0
M  V30 2488 C 241.877 -1.15177 2.00007 0
M  V30 2489 C 242.847 -1.41403 0.871454 0
M  V30 2490 O 244.032 -1.53346 1.13533 0
M  V30 2491 C 241.172 -2.47436 2.40561 0
M  V30 2492 C 240.285 -2.28184 3.66819 0
M  V30 2493 C 239.42 -3.53641 3.96373 0
M  V30 2494 C 238.459 -3.29528 5.15827 0
M  V30 2495 N 237.596 -4.47175 5.41275 0
M  V30 2496 H 242.436 -0.779008 2.87638 0
M  V30 2497 H 239.973 -0.373166 1.42288 0
M  V30 2498 H 241.931 -3.24584 2.62109 0
M  V30 2499 H 240.561 -2.82614 1.55978 0
M  V30 2500 H 239.613 -1.41976 3.52912 0
M  V30 2501 H 240.925 -2.0634 4.5412 0
M  V30 2502 H 240.079 -4.39209 4.18545 0
M  V30 2503 H 238.818 -3.78512 3.07538 0
M  V30 2504 H 237.823 -2.42349 4.93505 0
M  V30 2505 H 239.048 -3.06031 6.06236 0
M  V30 2506 H 236.994 -4.72175 4.55397 0
M  V30 2507 H 236.911 -4.28419 6.22891 0
M  V30 2508 H 238.179 -5.3389 5.67963 0
M  V30 2509 N 242.408 -1.52605 -0.393616 0
M  V30 2510 C 243.355 -1.77055 -1.48054 0
M  V30 2511 C 244.325 -0.61358 -1.54352 0
M  V30 2512 O 245.51 -0.852806 -1.70681 0
M  V30 2513 C 242.65 -1.94108 -2.85335 0
M  V30 2514 C 241.763 -3.21792 -2.88226 0
M  V30 2515 C 240.898 -3.29188 -4.16904 0
M  V30 2516 C 239.937 -4.51013 -4.13828 0
M  V30 2517 N 239.074 -4.55716 -5.34105 0
M  V30 2518 H 243.914 -2.69815 -1.26506 0
M  V30 2519 H 241.451 -1.33683 -0.61379 0
M  V30 2520 H 243.409 -2.01979 -3.65049 0
M  V30 2521 H 242.039 -1.04713 -3.05344 0
M  V30 2522 H 241.091 -3.23015 -2.00911 0
M  V30 2523 H 242.403 -4.11557 -2.8182 0
M  V30 2524 H 241.557 -3.36216 -5.05018 0
M  V30 2525 H 240.296 -2.37389 -4.26026 0
M  V30 2526 H 239.301 -4.44115 -3.24102 0
M  V30 2527 H 240.526 -5.44123 -4.06333 0
M  V30 2528 H 238.472 -3.66807 -5.43865 0
M  V30 2529 H 238.389 -5.39346 -5.29756 0
M  V30 2530 H 239.657 -4.66993 -6.2413 0
M  V30 2531 N 243.887 0.651787 -1.4349 0
M  V30 2532 C 244.819 1.77725 -1.44729 0
M  V30 2533 C 245.832 1.59141 -0.343231 0
M  V30 2534 O 247.021 1.67835 -0.607751 0
M  V30 2535 C 244.121 3.15172 -1.24579 0
M  V30 2536 C 243.294 3.60402 -2.47849 0
M  V30 2537 C 242.353 4.76656 -2.22902 0
M  V30 2538 O 241.379 4.86022 -2.96263 0
M  V30 2539 N 242.581 5.66958 -1.24656 0
M  V30 2540 H 245.346 1.77141 -2.41746 0
M  V30 2541 H 242.907 0.835678 -1.38665 0
M  V30 2542 H 244.899 3.90634 -1.0577 0
M  V30 2543 H 243.469 3.1052 -0.360015 0
M  V30 2544 H 242.689 2.75369 -2.82073 0
M  V30 2545 H 243.977 3.87368 -3.29884 0
M  V30 2546 H 243.375 5.62065 -0.640265 0
M  V30 2547 H 241.932 6.42135 -1.1183 0
M  V30 2548 N 245.365 1.30045 0.890287 0
M  V30 2549 C 246.295 1.18541 2.01172 0
M  V30 2550 C 247.276 0.0773356 1.69924 0
M  V30 2551 O 248.461 0.25845 1.92473 0
M  V30 2552 C 245.591 0.870941 3.36202 0
M  V30 2553 C 244.545 1.93637 3.81692 0
M  V30 2554 C 243.871 1.475 5.13953 0
M  V30 2555 C 245.171 3.34666 4.00994 0
M  V30 2556 H 246.865 2.12359 2.11054 0
M  V30 2557 H 244.411 1.02238 1.01407 0
M  V30 2558 H 246.364 0.777141 4.14172 0
M  V30 2559 H 245.088 -0.102926 3.26438 0
M  V30 2560 H 243.747 2.01972 3.05946 0
M  V30 2561 H 243.395 0.489551 5.00612 0
M  V30 2562 H 243.095 2.1876 5.4536 0
M  V30 2563 H 244.619 1.39489 5.94454 0
M  V30 2564 H 246.033 3.2912 4.69417 0
M  V30 2565 H 244.43 4.03966 4.43769 0
M  V30 2566 H 245.5 3.76949 3.05021 0
M  V30 2567 N 246.843 -1.10192 1.12674 0
M  V30 2568 C 247.791 -2.18694 0.792196 0
M  V30 2569 C 248.785 -1.67938 -0.222058 0
M  V30 2570 O 249.991 -1.79822 -0.0800074 0
M  V30 2571 H 246.366 -0.713223 0.238364 0
M  V30 2572 H 248.337 -2.44149 1.71564 0
M  V30 2573 C 247.086 -3.46682 0.265859 0
M  V30 2574 H 246.409 -3.86101 1.03761 0
M  V30 2575 H 247.849 -4.23942 0.0701128 0
M  V30 2576 C 246.308 -3.21506 -1.00675 0
M  V30 2577 O 246.838 -3.43408 -2.08408 0
M  V30 2578 N 245.044 -2.75158 -0.934692 0
M  V30 2579 H 244.591 -2.57535 -0.0578604 0
M  V30 2580 H 244.549 -2.58691 -1.7868 0
M  V30 2581 N 248.321 -0.919034 -1.28029 0
M  V30 2582 C 249.598 -0.473668 -1.89778 0
M  V30 2583 C 249.978 1.04783 -1.83259 0
M  V30 2584 O 249.326 1.8982 -1.27202 0
M  V30 2585 C 249.536 -1.00998 -3.34066 0
M  V30 2586 C 250.884 -1.06525 -4.1102 0
M  V30 2587 O 251.908 -0.958996 -3.43048 0
M  V30 2588 O 250.767 -1.22776 -5.3253 0
M  V30 2589 H 247.861 -0.15098 -0.813101 0
M  V30 2590 H 250.407 -1.01016 -1.36359 0
M  V30 2591 H 249.179 -2.05392 -3.33061 0
M  V30 2592 H 248.802 -0.454626 -3.94992 0
M  V30 2593 N 249.799 1.42003 -0.683588 0
M  V30 2594 C 250.729 2.33487 -0.024866 0
M  V30 2595 C 251.71 1.51163 0.779975 0
M  V30 2596 O 252.895 1.79739 0.735362 0
M  V30 2597 C 250.025 3.3487 0.920836 0
M  V30 2598 C 248.979 4.27414 0.223958 0
M  V30 2599 C 248.305 5.19074 1.2832 0
M  V30 2600 C 249.605 5.14445 -0.90242 0
M  V30 2601 H 251.299 2.88819 -0.788921 0
M  V30 2602 H 248.845 1.38873 -0.38083 0
M  V30 2603 H 250.798 3.97787 1.39081 0
M  V30 2604 H 249.522 2.77861 1.71642 0
M  V30 2605 H 248.181 3.65904 -0.225864 0
M  V30 2606 H 247.829 4.58387 2.071 0
M  V30 2607 H 247.529 5.81822 0.821995 0
M  V30 2608 H 249.053 5.84867 1.75392 0
M  V30 2609 H 250.467 5.70998 -0.513272 0
M  V30 2610 H 248.864 5.86072 -1.28997 0
M  V30 2611 H 249.934 4.52322 -1.74737 0
M  V30 2612 N 251.277 0.427512 1.51691 0
M  V30 2613 C 252.554 -0.201684 1.94557 0
M  V30 2614 C 252.934 -1.60981 1.36559 0
M  V30 2615 O 252.282 -2.21814 0.548702 0
M  V30 2616 C 252.492 -0.189394 3.48486 0
M  V30 2617 C 253.84 -0.39978 4.22714 0
M  V30 2618 O 254.864 -0.267945 3.55191 0
M  V30 2619 O 253.723 -0.661249 5.42485 0
M  V30 2620 H 250.817 -0.135261 0.815864 0
M  V30 2621 H 253.363 0.484782 1.62628 0
M  V30 2622 H 252.135 0.795431 3.8313 0
M  V30 2623 H 251.758 -0.919187 3.86829 0
M  V30 2624 N 252.755 -1.56801 0.158532 0
M  V30 2625 C 253.685 -2.20347 -0.772609 0
M  V30 2626 C 254.666 -1.15518 -1.24859 0
M  V30 2627 O 255.851 -1.43902 -1.30406 0
M  V30 2628 C 252.981 -2.83417 -2.00729 0
M  V30 2629 C 251.935 -3.94174 -1.66765 0
M  V30 2630 C 251.261 -4.44233 -2.97592 0
M  V30 2631 C 252.561 -5.14392 -0.905447 0
M  V30 2632 H 254.255 -2.98413 -0.242959 0
M  V30 2633 H 251.801 -1.43537 -0.115419 0
M  V30 2634 H 253.754 -3.26543 -2.6636 0
M  V30 2635 H 252.478 -2.02701 -2.56086 0
M  V30 2636 H 251.137 -3.51684 -1.03508 0
M  V30 2637 H 250.785 -3.60325 -3.50963 0
M  V30 2638 H 250.485 -5.18945 -2.75626 0
M  V30 2639 H 252.009 -4.90037 -3.64274 0
M  V30 2640 H 253.423 -5.5429 -1.46408 0
M  V30 2641 H 251.82 -5.9494 -0.7853 0
M  V30 2642 H 252.89 -4.84795 0.100668 0
M  V30 2643 N 254.233 0.115231 -1.57178 0
M  V30 2644 C 255.644 0.67197 -1.74188 0
M  V30 2645 C 255.995 1.80125 -0.777777 0
M  V30 2646 O 255.12 2.16346 0.0484376 0
M  V30 2647 C 255.715 1.22573 -3.1585 0
M  V30 2648 C 254.274 1.72872 -3.34353 0
M  V30 2649 C 253.421 0.629972 -2.70049 0
M  V30 2650 H 256.372 -0.110712 -1.58313 0
M  V30 2651 H 256.393 2.09535 -3.17609 0
M  V30 2652 H 255.905 0.403598 -3.85996 0
M  V30 2653 H 254.006 2.5755 -2.69256 0
M  V30 2654 H 254.119 1.83557 -4.42542 0
M  V30 2655 H 252.483 1.0645 -2.31388 0
M  V30 2656 H 253.266 -0.181241 -3.42821 0
M  V30 2657 N 255.711 1.52812 0.385517 0
M  V30 2658 C 256.659 1.78482 1.49155 0
M  V30 2659 C 257.653 0.652914 1.56312 0
M  V30 2660 O 258.859 0.835464 1.59436 0
M  V30 2661 H 255.234 0.5648 0.496493 0
M  V30 2662 H 257.205 2.71095 1.24699 0
M  V30 2663 C 255.954 1.97378 2.86247 0
M  V30 2664 H 255.277 2.83907 2.81491 0
M  V30 2665 H 256.717 2.19327 3.62866 0
M  V30 2666 C 255.176 0.74728 3.28508 0
M  V30 2667 O 255.706 -0.0736232 4.01633 0
M  V30 2668 N 253.912 0.576396 2.84826 0
M  V30 2669 H 253.459 1.24555 2.25486 0
M  V30 2670 H 253.417 -0.24288 3.1346 0
M  V30 2671 N 257.189 -0.644168 1.43834 0
M  V30 2672 C 258.119 -1.76814 1.52509 0
M  V30 2673 C 259.1 -1.65823 0.379052 0
M  V30 2674 O 260.285 -1.84781 0.597466 0
M  V30 2675 C 257.415 -3.15288 1.4564 0
M  V30 2676 C 256.369 -3.41053 2.58586 0
M  V30 2677 C 255.695 -4.79421 2.36769 0
M  V30 2678 C 256.995 -3.34902 4.00797 0
M  V30 2679 H 258.689 -1.69812 2.46586 0
M  V30 2680 H 256.235 -0.815542 1.1868 0
M  V30 2681 H 258.188 -3.93681 1.50311 0
M  V30 2682 H 256.912 -3.23043 0.480725 0
M  V30 2683 H 255.571 -2.65035 2.53282 0
M  V30 2684 H 255.219 -4.83863 1.37424 0
M  V30 2685 H 254.919 -4.9762 3.12487 0
M  V30 2686 H 256.443 -5.6006 2.43238 0
M  V30 2687 H 257.857 -4.03218 4.07539 0
M  V30 2688 H 256.254 -3.64637 4.76613 0
M  V30 2689 H 257.324 -2.32928 4.25291 0
M  V30 2690 N 258.668 -1.30515 -0.883378 0
M  V30 2691 C 259.915 -1.1943 -1.63532 0
M  V30 2692 C 260.243 0.250627 -1.92878 0
M  V30 2693 O 259.498 1.19556 -1.54935 0
M  V30 2694 C 259.797 -1.96994 -2.98209 0
M  V30 2695 C 259.463 -3.466 -2.88408 0
M  V30 2696 C 258.125 -3.87397 -2.85442 0
M  V30 2697 C 260.477 -4.41863 -2.76418 0
M  V30 2698 C 257.805 -5.21745 -2.68327 0
M  V30 2699 C 260.157 -5.7632 -2.60841 0
M  V30 2700 C 258.821 -6.16354 -2.56251 0
M  V30 2701 H 258.091 -0.437025 -0.598406 0
M  V30 2702 H 260.738 -1.61635 -1.02696 0
M  V30 2703 H 259.043 -1.47429 -3.63004 0
M  V30 2704 H 260.74 -1.85808 -3.55354 0
M  V30 2705 H 257.33 -3.14182 -2.91527 0
M  V30 2706 H 261.514 -4.11285 -2.77775 0
M  V30 2707 H 256.77 -5.51853 -2.63189 0
M  V30 2708 H 260.944 -6.49772 -2.50538 0
M  V30 2709 H 258.571 -7.20401 -2.42748 0
M  V30 2710 N 260.146 1.09593 -1.13257 0
M  V30 2711 C 261.371 1.8604 -0.916732 0
M  V30 2712 C 261.796 1.80504 0.529146 0
M  V30 2713 O 261.154 1.18127 1.37534 0
M  V30 2714 C 261.202 3.32017 -1.40703 0
M  V30 2715 O 260.306 4.08141 -0.591153 0
M  V30 2716 H 259.647 0.576943 -0.328683 0
M  V30 2717 H 262.177 1.38405 -1.50682 0
M  V30 2718 H 262.187 3.82865 -1.4099 0
M  V30 2719 H 260.862 3.35361 -2.45979 0
M  V30 2720 H 259.439 3.67084 -0.656005 0
M  V30 2721 N 261.624 0.925811 1.2754 0
M  V30 2722 C 262.87 0.566092 1.94739 0
M  V30 2723 C 263.203 -0.890057 1.72603 0
M  V30 2724 O 262.478 -1.63467 1.05399 0
M  V30 2725 C 262.761 0.89054 3.48915 0
M  V30 2726 C 262.614 2.4003 3.80402 0
M  V30 2727 C 263.933 0.395101 4.38323 0
M  V30 2728 H 261.052 0.20714 0.707292 0
M  V30 2729 H 263.694 1.15725 1.50691 0
M  V30 2730 H 261.844 0.387452 3.86563 0
M  V30 2731 H 263.516 2.97494 3.52555 0
M  V30 2732 H 261.759 2.85028 3.2702 0
M  V30 2733 H 262.43 2.57785 4.8811 0
M  V30 2734 H 264.906 0.826241 4.07814 0
M  V30 2735 H 263.782 0.651086 5.45025 0
M  V30 2736 H 264.043 -0.704798 4.36446 0
M  V30 2737 N 263.102 -1.41638 0.69111 0
M  V30 2738 C 264.33 -2.05628 0.22909 0
M  V30 2739 C 264.745 -1.51992 -1.11999 0
M  V30 2740 O 264.102 -0.666322 -1.69901 0
M  V30 2741 C 264.153 -3.61084 0.173283 0
M  V30 2742 O 263.874 -4.12735 1.46907 0
M  V30 2743 C 265.375 -4.42213 -0.310266 0
M  V30 2744 H 262.595 -0.662327 0.107534 0
M  V30 2745 H 265.139 -1.81489 0.942438 0
M  V30 2746 H 263.294 -3.84278 -0.490858 0
M  V30 2747 H 263.708 -5.06743 1.35322 0
M  V30 2748 H 265.182 -5.51194 -0.298196 0
M  V30 2749 H 265.659 -4.1799 -1.34838 0
M  V30 2750 H 266.265 -4.24074 0.322716 0
M  V30 2751 N 264.58 -0.43555 -1.51462 0
M  V30 2752 C 265.51 0.367376 -2.30592 0
M  V30 2753 C 266.491 1.02263 -1.35928 0
M  V30 2754 O 267.676 1.02661 -1.64847 0
M  V30 2755 C 264.806 1.46983 -3.14664 0
M  V30 2756 C 263.76 0.938161 -4.17591 0
M  V30 2757 C 263.086 2.13622 -4.90173 0
M  V30 2758 C 264.386 -0.0261621 -5.22293 0
M  V30 2759 H 266.08 -0.292969 -2.97963 0
M  V30 2760 H 263.626 -0.14234 -1.43295 0
M  V30 2761 H 265.579 2.03873 -3.688 0
M  V30 2762 H 264.303 2.15843 -2.4511 0
M  V30 2763 H 262.962 0.391481 -3.64504 0
M  V30 2764 H 262.61 2.81098 -4.17124 0
M  V30 2765 H 262.31 1.78688 -5.59772 0
M  V30 2766 H 263.834 2.7107 -5.47132 0
M  V30 2767 H 265.248 0.452384 -5.71512 0
M  V30 2768 H 263.645 -0.287992 -5.99409 0
M  V30 2769 H 264.715 -0.963391 -4.75233 0
M  V30 2770 N 266.058 1.56714 -0.166846 0
M  V30 2771 C 267.474 1.58473 0.189372 0
M  V30 2772 C 267.674 1.18201 1.63189 0
M  V30 2773 O 266.73 0.891528 2.36237 0
M  V30 2774 C 268.043 3.00573 -0.0873872 0
M  V30 2775 C 269.591 3.1299 -0.0252443 0
M  V30 2776 C 270.066 4.57174 -0.274934 0
M  V30 2777 N 271.557 4.62665 -0.222553 0
M  V30 2778 C 272.292 5.72072 -0.389985 0
M  V30 2779 N 271.788 6.90054 -0.616229 0
M  V30 2780 N 273.581 5.61153 -0.326202 0
M  V30 2781 H 265.732 1.8118 -1.10849 0
M  V30 2782 H 267.995 0.839525 -0.440342 0
M  V30 2783 H 267.701 3.34497 -1.0865 0
M  V30 2784 H 267.575 3.72019 0.623037 0
M  V30 2785 H 269.962 2.78895 0.96444 0
M  V30 2786 H 270.043 2.43989 -0.768309 0
M  V30 2787 H 269.687 4.91976 -1.26181 0
M  V30 2788 H 269.617 5.24328 0.48869 0
M  V30 2789 H 272.108 3.77863 -0.0531512 0
M  V30 2790 H 272.421 7.69311 -0.733559 0
M  V30 2791 H 270.766 6.91927 -0.652791 0
M  V30 2792 H 273.957 4.67859 -0.150072 0
M  V30 2793 H 274.13 6.46364 -0.460116 0
M  V30 2794 N 267.536 -0.106894 1.57237 0
M  V30 2795 C 268.813 -0.843526 1.76477 0
M  V30 2796 C 269.193 -1.97499 0.745464 0
M  V30 2797 O 268.541 -2.27357 -0.228306 0
M  V30 2798 C 268.751 -1.34903 3.21873 0
M  V30 2799 C 270.099 -1.79654 3.8472 0
M  V30 2800 O 271.123 -1.44554 3.2555 0
M  V30 2801 O 269.982 -2.44515 4.88748 0
M  V30 2802 H 267.076 -0.401468 0.723016 0
M  V30 2803 H 269.622 -0.0896927 1.69463 0
M  V30 2804 H 268.394 -0.53781 3.87586 0
M  V30 2805 H 268.017 -2.16522 3.33473 0
M  V30 2806 N 269.014 -1.53014 -0.377408 0
M  V30 2807 C 269.977 -1.77957 -1.44444 0
M  V30 2808 C 270.977 -0.649763 -1.47087 0
M  V30 2809 O 272.167 -0.917897 -1.48055 0
M  V30 2810 C 269.299 -1.89089 -2.83651 0
M  V30 2811 H 270.492 -2.73243 -1.23606 0
M  V30 2812 H 268.045 -1.43912 -0.609844 0
M  V30 2813 H 268.78 -0.958293 -3.09818 0
M  V30 2814 H 268.565 -2.71254 -2.83132 0
M  V30 2815 H 270.055 -2.1002 -3.60945 0
M  V30 2816 N 270.492 0.636531 -1.44174 0
M  V30 2817 C 271.74 1.39343 -1.46383 0
M  V30 2818 C 272.061 1.94766 -0.0955715 0
M  V30 2819 O 271.331 1.75452 0.871395 0
M  V30 2820 H 269.911 0.517199 -0.538994 0
M  V30 2821 H 272.573 0.74957 -1.7991 0
M  V30 2822 H 271.669 2.22746 -2.18611 0
M  V30 2823 N 271.97 1.30982 0.876444 0
M  V30 2824 C 272.902 1.13902 1.98894 0
M  V30 2825 C 273.915 0.0798815 1.62604 0
M  V30 2826 O 275.104 0.326743 1.75484 0
M  V30 2827 C 272.204 0.716699 3.31235 0
M  V30 2828 C 271.377 1.85945 3.95908 0
M  V30 2829 C 270.436 1.42426 5.06558 0
M  V30 2830 O 269.462 2.13287 5.27729 0
M  V30 2831 N 270.664 0.308025 5.79682 0
M  V30 2832 H 273.429 2.09724 2.14094 0
M  V30 2833 H 270.99 1.2323 1.05004 0
M  V30 2834 H 272.982 0.408403 4.02634 0
M  V30 2835 H 271.552 -0.149719 3.12241 0
M  V30 2836 H 270.772 2.33541 3.17573 0
M  V30 2837 H 272.06 2.62503 4.35855 0
M  V30 2838 H 271.458 -0.282241 5.64995 0
M  V30 2839 H 270.015 0.0592282 6.51773 0
M  V30 2840 N 273.449 -1.08991 1.13837 0
M  V30 2841 C 274.698 -1.80631 0.897509 0
M  V30 2842 C 275.011 -1.86872 -0.57777 0
M  V30 2843 O 276.217 -2.54866 -0.935701 0
M  V30 2844 C 274.673 -3.24517 1.55618 0
M  V30 2845 C 274.281 -3.26529 3.0673 0
M  V30 2846 C 276.025 -4.00882 1.3962 0
M  V30 2847 C 273.932 -4.64965 3.65461 0
M  V30 2848 H 272.862 -0.67691 0.332129 0
M  V30 2849 H 275.513 -1.2246 1.3666 0
M  V30 2850 H 273.895 -3.82778 1.01476 0
M  V30 2851 H 275.069 -2.78008 3.67489 0
M  V30 2852 H 273.384 -2.63656 3.22296 0
M  V30 2853 H 275.981 -5.03167 1.80906 0
M  V30 2854 H 276.324 -4.14896 0.341578 0
M  V30 2855 H 276.857 -3.49075 1.90766 0
M  V30 2856 H 273.596 -4.56153 4.70749 0
M  V30 2857 H 273.116 -5.13792 3.09481 0
M  V30 2858 H 274.795 -5.3394 3.654 0
M  V30 2859 N 274.927 -0.932562 -1.27047 0
M  V30 2860 C 275.89 -0.440064 -2.24936 0
M  V30 2861 C 276.89 0.444071 -1.54547 0
M  V30 2862 O 278.08 0.244465 -1.72476 0
M  V30 2863 C 275.212 0.36678 -3.38921 0
M  V30 2864 H 276.405 -1.305 -2.70018 0
M  V30 2865 H 273.958 -0.713707 -1.39054 0
M  V30 2866 H 274.693 1.25033 -2.99228 0
M  V30 2867 H 274.478 -0.267204 -3.91188 0
M  V30 2868 H 275.968 0.701567 -4.11665 0
M  V30 2869 N 276.405 1.4127 -0.698611 0
M  V30 2870 C 277.335 2.33447 -0.049629 0
M  V30 2871 C 278.316 1.51982 0.763898 0
M  V30 2872 O 279.501 1.80509 0.716257 0
M  V30 2873 C 276.631 3.35828 0.885267 0
M  V30 2874 C 275.585 4.27627 0.178613 0
M  V30 2875 C 274.911 5.20406 1.22807 0
M  V30 2876 C 276.211 5.13459 -0.956933 0
M  V30 2877 H 277.905 2.87966 -0.81951 0
M  V30 2878 H 275.451 1.38461 -0.395538 0
M  V30 2879 H 277.404 3.9924 1.34854 0
M  V30 2880 H 276.128 2.79666 1.68685 0
M  V30 2881 H 274.787 3.65643 -0.26466 0
M  V30 2882 H 274.435 4.60558 2.02226 0
M  V30 2883 H 274.135 5.82661 0.760239 0
M  V30 2884 H 275.659 5.86695 1.69179 0
M  V30 2885 H 277.073 5.70421 -0.573805 0
M  V30 2886 H 275.47 5.8467 -1.35205 0
M  V30 2887 H 276.54 4.50443 -1.79524 0
M  V30 2888 N 277.883 0.443576 1.51229 0
M  V30 2889 C 279.129 -0.120975 2.02439 0
M  V30 2890 C 279.462 -1.41815 1.32674 0
M  V30 2891 O 278.737 -1.89373 0.443622 0
M  V30 2892 C 279.02 -0.333291 3.58554 0
M  V30 2893 C 278.873 0.982968 4.38928 0
M  V30 2894 C 280.192 -1.10028 4.26124 0
M  V30 2895 H 277.311 -0.0424923 0.735774 0
M  V30 2896 H 279.953 0.583794 1.80809 0
M  V30 2897 H 278.103 -0.933614 3.77115 0
M  V30 2898 H 279.775 1.61775 4.32003 0
M  V30 2899 H 278.018 1.58611 4.03763 0
M  V30 2900 H 278.689 0.788379 5.46341 0
M  V30 2901 H 281.165 -0.591711 4.11871 0
M  V30 2902 H 280.041 -1.21761 5.35225 0
M  V30 2903 H 280.302 -2.12996 3.87408 0
M  V30 2904 N 279.361 -1.56624 0.175154 0
M  V30 2905 C 280.638 -1.88688 -0.515373 0
M  V30 2906 C 281.018 -1.08564 -1.81044 0
M  V30 2907 O 280.366 -0.180703 -2.27784 0
M  V30 2908 C 280.576 -3.40768 -0.753552 0
M  V30 2909 C 281.924 -4.10587 -1.08184 0
M  V30 2910 O 282.948 -3.46106 -0.841961 0
M  V30 2911 O 281.807 -5.24512 -1.53459 0
M  V30 2912 H 278.901 -0.78301 -0.26613 0
M  V30 2913 H 281.447 -1.68347 0.213877 0
M  V30 2914 H 280.219 -3.90965 0.161829 0
M  V30 2915 H 279.842 -3.66733 -1.53598 0
M  V30 2916 N 280.839 0.0985539 -1.57292 0
M  V30 2917 C 282.087 0.801092 -1.85545 0
M  V30 2918 C 282.408 1.79438 -0.763353 0
M  V30 2919 O 281.678 1.94763 0.21073 0
M  V30 2920 H 280.258 0.29884 -0.684619 0
M  V30 2921 H 282.92 0.0810064 -1.94732 0
M  V30 2922 H 282.016 1.3338 -2.82163 0
M  V30 2923 N 282.317 1.53212 0.369288 0
M  V30 2924 C 283.594 1.59815 1.12776 0
M  V30 2925 C 283.974 0.403402 2.0721 0
M  V30 2926 O 283.322 -0.606667 2.20299 0
M  V30 2927 C 283.532 2.94664 1.87013 0
M  V30 2928 C 284.88 3.49109 2.41677 0
M  V30 2929 O 285.904 2.96669 1.97144 0
M  V30 2930 O 284.763 4.40775 3.23079 0
M  V30 2931 H 281.857 0.645376 0.517125 0
M  V30 2932 H 284.403 1.65553 0.37285 0
M  V30 2933 H 283.175 3.73061 1.18071 0
M  V30 2934 H 282.798 2.92401 2.69421 0
M  V30 2935 N 283.795 -0.628877 1.44509 0
M  V30 2936 C 285.02 -1.42048 1.5112 0
M  V30 2937 C 285.445 -1.87594 0.137818 0
M  V30 2938 O 284.803 -1.58873 -0.873437 0
M  V30 2939 C 284.851 -2.61541 2.48251 0
M  V30 2940 O 283.955 -3.61453 1.98559 0
M  V30 2941 H 283.296 -0.424942 0.510216 0
M  V30 2942 H 285.826 -0.767374 1.89664 0
M  V30 2943 H 285.836 -3.09057 2.66361 0
M  V30 2944 H 284.511 -2.27736 3.48007 0
M  V30 2945 H 283.088 -3.20731 1.90227 0
M  V30 2946 N 285.273 -1.31445 -0.869486 0
M  V30 2947 C 286.22 -1.19135 -1.97675 0
M  V30 2948 C 287.19 -0.0770266 -1.65921 0
M  V30 2949 O 288.375 -0.249972 -1.89155 0
M  V30 2950 C 285.515 -0.905149 -3.33018 0
M  V30 2951 C 284.628 -2.10285 -3.77365 0
M  V30 2952 C 283.763 -1.75339 -5.01427 0
M  V30 2953 C 282.802 -2.91515 -5.38224 0
M  V30 2954 N 281.939 -2.56762 -6.53466 0
M  V30 2955 H 286.779 -2.13853 -2.07535 0
M  V30 2956 H 284.316 -1.06379 -1.01597 0
M  V30 2957 H 286.274 -0.719765 -4.10944 0
M  V30 2958 H 284.904 0.00519624 -3.228 0
M  V30 2959 H 283.956 -2.39899 -2.95216 0
M  V30 2960 H 285.268 -2.97237 -4.00564 0
M  V30 2961 H 284.422 -1.53266 -5.87022 0
M  V30 2962 H 283.161 -0.855801 -4.80133 0
M  V30 2963 H 282.166 -3.14237 -4.51149 0
M  V30 2964 H 283.391 -3.81985 -5.61484 0
M  V30 2965 H 281.337 -1.69526 -6.33717 0
M  V30 2966 H 281.254 -3.37243 -6.76612 0
M  V30 2967 H 282.522 -2.38083 -7.42251 0
M  V30 2968 N 286.751 1.08385 -1.14413 0
M  V30 2969 C 287.698 2.15311 -0.831265 0
M  V30 2970 C 288.668 1.64751 0.211292 0
M  V30 2971 O 289.853 1.90627 0.0811674 0
M  V30 2972 C 286.993 3.43658 -0.315143 0
M  V30 2973 C 286.106 4.08064 -1.41802 0
M  V30 2974 C 285.241 5.24207 -0.859126 0
M  V30 2975 C 284.28 5.80554 -1.93967 0
M  V30 2976 N 283.417 6.88042 -1.39793 0
M  V30 2977 H 288.257 2.41415 -1.74708 0
M  V30 2978 H 285.794 1.18474 -0.871909 0
M  V30 2979 H 287.752 4.172 0.00230884 0
M  V30 2980 H 286.382 3.17839 0.56378 0
M  V30 2981 H 285.434 3.3228 -1.85187 0
M  V30 2982 H 286.746 4.45962 -2.23427 0
M  V30 2983 H 285.9 6.04689 -0.49359 0
M  V30 2984 H 284.639 4.87699 -0.011932 0
M  V30 2985 H 283.644 4.98725 -2.31415 0
M  V30 2986 H 284.869 6.19121 -2.79046 0
M  V30 2987 H 282.815 6.53493 -0.572919 0
M  V30 2988 H 282.732 7.24767 -2.15054 0
M  V30 2989 H 284 7.72255 -1.0603 0
M  V30 2990 N 288.23 0.939286 1.26551 0
M  V30 2991 C 289.479 0.581601 1.93133 0
M  V30 2992 C 289.792 -0.883224 1.74524 0
M  V30 2993 O 290.998 -1.3502 2.35546 0
M  V30 2994 C 289.454 0.989425 3.46032 0
M  V30 2995 C 289.062 2.47573 3.73379 0
M  V30 2996 C 290.806 0.703544 4.18629 0
M  V30 2997 C 288.713 2.82235 5.19709 0
M  V30 2998 H 287.643 0.213803 0.723052 0
M  V30 2999 H 290.294 1.14167 1.4366 0
M  V30 3000 H 288.676 0.357902 3.94379 0
M  V30 3001 H 289.85 3.15614 3.35744 0
M  V30 3002 H 288.165 2.73471 3.1401 0
M  V30 3003 H 290.762 0.938869 5.26393 0
M  V30 3004 H 291.105 -0.359639 4.14744 0
M  V30 3005 H 291.638 1.2947 3.76141 0
M  V30 3006 H 288.377 3.87509 5.28694 0
M  V30 3007 H 287.897 2.18854 5.58447 0
M  V30 3008 H 289.576 2.70599 5.87695 0
M  V30 3009 N 289.708 -1.40897 0.706093 0
M  V30 3010 C 290.954 -2.01352 0.241889 0
M  V30 3011 C 291.287 -1.55832 -1.15888 0
M  V30 3012 O 290.562 -0.774145 -1.7843 0
M  V30 3013 C 290.845 -3.58752 0.311311 0
M  V30 3014 C 290.698 -4.1437 1.74978 0
M  V30 3015 C 292.017 -4.38914 -0.322922 0
M  V30 3016 H 289.136 -0.731562 0.0893687 0
M  V30 3017 H 291.778 -1.67504 0.896802 0
M  V30 3018 H 289.928 -3.87718 -0.246302 0
M  V30 3019 H 291.6 -3.96239 2.36205 0
M  V30 3020 H 289.843 -3.69016 2.28057 0
M  V30 3021 H 290.514 -5.23532 1.74981 0
M  V30 3022 H 292.99 -4.15822 0.152089 0
M  V30 3023 H 291.866 -5.48358 -0.243855 0
M  V30 3024 H 292.127 -4.19176 -1.40513 0
M  V30 3025 N 291.186 -0.45159 -1.50991 0
M  V30 3026 C 292.133 0.352625 -2.2809 0
M  V30 3027 C 293.103 1.0044 -1.32291 0
M  V30 3028 O 294.288 1.02058 -1.6121 0
M  V30 3029 C 291.428 1.43983 -3.13629 0
M  V30 3030 C 290.541 0.804772 -4.24438 0
M  V30 3031 C 289.676 1.86822 -4.97263 0
M  V30 3032 C 288.715 1.21236 -5.99973 0
M  V30 3033 N 287.852 2.2178 -6.66152 0
M  V30 3034 H 292.692 -0.311186 -2.96371 0
M  V30 3035 H 290.229 -0.165308 -1.46168 0
M  V30 3036 H 292.187 2.08161 -3.61559 0
M  V30 3037 H 290.817 2.07307 -2.47434 0
M  V30 3038 H 289.869 0.0509129 -3.80366 0
M  V30 3039 H 291.181 0.286076 -4.97979 0
M  V30 3040 H 290.335 2.58628 -5.48813 0
M  V30 3041 H 289.074 2.42068 -4.23385 0
M  V30 3042 H 288.079 0.479828 -5.47702 0
M  V30 3043 H 289.304 0.667051 -6.75816 0
M  V30 3044 H 287.25 2.76079 -5.95077 0
M  V30 3045 H 287.167 1.74841 -7.35504 0
M  V30 3046 H 288.435 2.93026 -7.22327 0
M  V30 3047 N 292.664 1.56529 -0.183458 0
M  V30 3048 C 293.91 1.97537 0.459036 0
M  V30 3049 C 294.243 1.06989 1.62071 0
M  V30 3050 O 293.518 0.11948 1.94133 0
M  V30 3051 C 293.801 3.47874 0.930368 0
M  V30 3052 C 293.654 4.492 -0.232317 0
M  V30 3053 C 294.973 4.01612 1.79989 0
M  V30 3054 H 292.092 0.718204 0.165383 0
M  V30 3055 H 294.734 1.88042 -0.272038 0
M  V30 3056 H 292.884 3.56095 1.55333 0
M  V30 3057 H 294.556 4.53027 -0.86972 0
M  V30 3058 H 292.799 4.24657 -0.885928 0
M  V30 3059 H 293.47 5.51823 0.139796 0
M  V30 3060 H 295.946 3.96097 1.27461 0
M  V30 3061 H 294.822 5.07195 2.09867 0
M  V30 3062 H 295.083 3.46163 2.74998 0
M  V30 3063 N 294.142 -0.090211 1.57342 0
M  V30 3064 C 295.391 -0.791531 1.8552 0
M  V30 3065 C 295.704 -1.79659 0.773441 0
M  V30 3066 O 296.91 -2.54616 0.942497 0
M  V30 3067 C 295.366 -1.45856 3.2902 0
M  V30 3068 C 294.974 -0.493017 4.45279 0
M  V30 3069 C 296.718 -2.14332 3.66418 0
M  V30 3070 C 294.625 -1.16491 5.79814 0
M  V30 3071 H 293.555 -0.299356 0.692027 0
M  V30 3072 H 296.206 -0.0445343 1.83446 0
M  V30 3073 H 294.588 -2.25318 3.2565 0
M  V30 3074 H 295.762 0.270464 4.60006 0
M  V30 3075 H 294.077 0.0863061 4.16311 0
M  V30 3076 H 296.674 -2.65344 4.64216 0
M  V30 3077 H 297.017 -2.93447 2.95287 0
M  V30 3078 H 297.55 -1.41724 3.71698 0
M  V30 3079 H 294.289 -0.41447 6.54188 0
M  V30 3080 H 293.809 -1.8997 5.68921 0
M  V30 3081 H 295.488 -1.69001 6.24538 0
M  V30 3082 N 295.62 -1.53406 -0.361157 0
M  V30 3083 C 296.897 -1.60411 -1.11927 0
M  V30 3084 C 297.277 -0.414385 -2.06993 0
M  V30 3085 O 296.625 0.594976 -2.20618 0
M  V30 3086 C 296.835 -2.95652 -1.85448 0
M  V30 3087 C 298.183 -3.50386 -2.39823 0
M  V30 3088 O 299.207 -2.97711 -1.95568 0
M  V30 3089 O 298.066 -4.42482 -3.20737 0
M  V30 3090 H 295.16 -0.64811 -0.513695 0
M  V30 3091 H 297.706 -1.65749 -0.364065 0
M  V30 3092 H 296.478 -3.73682 -1.16091 0
M  V30 3093 H 296.101 -2.93825 -2.67866 0
M  V30 3094 N 297.098 0.621204 -1.44841 0
M  V30 3095 C 298.326 1.40752 -1.51646 0
M  V30 3096 C 298.741 1.88246 -0.144549 0
M  V30 3097 O 298.098 1.61422 0.851416 0
M  V30 3098 C 298.149 2.62119 -2.4895 0
M  V30 3099 O 297.87 2.16602 -3.80808 0
M  V30 3100 C 299.371 3.55135 -2.65319 0
M  V30 3101 H 296.591 0.431325 -0.514004 0
M  V30 3102 H 299.135 0.758835 -1.899 0
M  V30 3103 H 297.29 3.23058 -2.13805 0
M  V30 3104 H 297.704 2.95358 -4.33433 0
M  V30 3105 H 299.178 4.36874 -3.37409 0
M  V30 3106 H 299.655 4.04592 -1.70886 0
M  V30 3107 H 300.261 3.00058 -3.01405 0
M  V30 3108 N 298.576 1.31904 0.862503 0
M  V30 3109 C 299.824 1.21776 1.61292 0
M  V30 3110 C 300.145 -0.222413 1.93727 0
M  V30 3111 O 299.415 -1.1451 1.58947 0
M  V30 3112 H 297.995 0.447717 0.597962 0
M  V30 3113 H 300.657 1.65326 1.03215 0
M  V30 3114 H 299.753 1.7948 2.5533 0
M  V30 3115 N 300.054 -1.07777 1.14986 0
M  V30 3116 C 301.284 -1.83752 0.944402 0
M  V30 3117 C 301.692 -1.8218 -0.51058 0
M  V30 3118 O 301.035 -1.22852 -1.36576 0
M  V30 3119 C 301.097 -3.32128 1.37592 0
M  V30 3120 C 300.761 -3.57425 2.84775 0
M  V30 3121 C 301.758 -3.5173 3.8286 0
M  V30 3122 C 299.443 -3.8523 3.2234 0
M  V30 3123 C 301.437 -3.73482 5.16517 0
M  V30 3124 C 299.124 -4.06634 4.56171 0
M  V30 3125 C 300.122 -4.00754 5.53069 0
M  V30 3126 O 299.81 -4.2159 6.84483 0
M  V30 3127 H 299.542 -0.58673 0.335744 0
M  V30 3128 H 302.096 -1.36982 1.53052 0
M  V30 3129 H 300.326 -3.79686 0.733165 0
M  V30 3130 H 302.015 -3.89555 1.14024 0
M  V30 3131 H 302.781 -3.30256 3.55184 0
M  V30 3132 H 298.66 -3.88923 2.47508 0
M  V30 3133 H 302.204 -3.68808 5.92137 0
M  V30 3134 H 298.101 -4.27593 4.83564 0
M  V30 3135 H 298.869 -4.38961 6.90837 0
M  V30 3136 N 301.532 -0.945985 -1.26051 0
M  V30 3137 C 302.495 -0.463897 -2.24456 0
M  V30 3138 C 303.495 0.427655 -1.55009 0
M  V30 3139 O 304.685 0.226157 -1.72726 0
M  V30 3140 C 301.817 0.330812 -3.39291 0
M  V30 3141 H 303.01 -1.33357 -2.68619 0
M  V30 3142 H 300.563 -0.728416 -1.38289 0
M  V30 3143 H 301.298 1.21852 -3.00537 0
M  V30 3144 H 301.083 -0.308679 -3.90883 0
M  V30 3145 H 302.573 0.657865 -4.12386 0
M  V30 3146 N 303.011 1.40521 -0.713556 0
M  V30 3147 C 304.257 2.01221 -0.252564 0
M  V30 3148 C 304.59 1.56444 1.1506 0
M  V30 3149 O 303.865 0.783597 1.78017 0
M  V30 3150 C 304.148 3.58582 -0.330332 0
M  V30 3151 C 304.001 4.13437 -1.77173 0
M  V30 3152 C 305.32 4.39079 0.299641 0
M  V30 3153 H 302.439 0.731077 -0.0932471 0
M  V30 3154 H 305.081 1.67026 -0.905673 0
M  V30 3155 H 303.231 3.87844 0.225737 0
M  V30 3156 H 304.903 3.9498 -2.38303 0
M  V30 3157 H 303.146 3.67801 -2.3001 0
M  V30 3158 H 303.817 5.22597 -1.77755 0
M  V30 3159 H 306.293 4.15735 -0.174139 0
M  V30 3160 H 305.169 5.4848 0.214771 0
M  V30 3161 H 305.43 4.19915 1.38288 0
M  V30 3162 N 304.489 0.459591 1.5075 0
M  V30 3163 C 305.439 -0.358926 2.25157 0
M  V30 3164 C 306.423 -0.971285 1.28276 0
M  V30 3165 O 307.615 -0.885739 1.53244 0
M  V30 3166 C 304.744 -1.44695 3.11317 0
M  V30 3167 C 303.83 -0.842894 4.15639 0
M  V30 3168 N 304.221 0.0299373 5.05791 0
M  V30 3169 C 302.519 -1.10809 4.32015 0
M  V30 3170 C 303.22 0.371563 5.80512 0
M  V30 3171 N 302.196 -0.250409 5.43023 0
M  V30 3172 H 305.998 0.313636 2.92222 0
M  V30 3173 H 303.512 0.273021 1.60089 0
M  V30 3174 H 305.509 -2.04641 3.63218 0
M  V30 3175 H 304.169 -2.12162 2.45799 0
M  V30 3176 H 305.18 0.39797 5.16369 0
M  V30 3177 H 301.857 -1.7786 3.77719 0
M  V30 3178 H 303.247 1.08319 6.63111 0
M  V30 3179 N 305.967 -1.56429 0.191757 0
M  V30 3180 C 307.216 -1.9666 -0.448088 0
M  V30 3181 C 307.529 -1.08136 -1.62991 0
M  V30 3182 O 308.735 -1.38135 -2.33733 0
M  V30 3183 C 307.191 -3.49753 -0.848585 0
M  V30 3184 C 306.799 -4.46935 0.308764 0
M  V30 3185 C 308.543 -3.9876 -1.4557 0
M  V30 3186 C 306.45 -5.91293 -0.112506 0
M  V30 3187 H 305.38 -0.734312 -0.171179 0
M  V30 3188 H 308.031 -1.81301 0.283242 0
M  V30 3189 H 306.413 -3.60604 -1.63649 0
M  V30 3190 H 307.587 -4.47813 1.08627 0
M  V30 3191 H 305.902 -4.08102 0.827158 0
M  V30 3192 H 308.499 -5.04086 -1.78328 0
M  V30 3193 H 308.842 -3.42875 -2.36099 0
M  V30 3194 H 309.375 -3.9101 -0.731836 0
M  V30 3195 H 306.114 -6.51097 0.758514 0
M  V30 3196 H 305.634 -5.93676 -0.854941 0
M  V30 3197 H 307.313 -6.44663 -0.549448 0
M  V30 3198 N 307.445 0.0818655 -1.57387 0
M  V30 3199 C 308.67 0.799946 -1.91352 0
M  V30 3200 C 309.095 1.70833 -0.787258 0
M  V30 3201 O 308.453 1.79419 0.26048 0
M  V30 3202 C 308.501 1.57812 -3.24234 0
M  V30 3203 O 307.605 2.68806 -3.12757 0
M  V30 3204 H 306.946 0.21891 -0.626877 0
M  V30 3205 H 309.476 0.0531256 -2.04531 0
M  V30 3206 H 309.486 1.95952 -3.57864 0
M  V30 3207 H 308.161 0.911548 -4.05788 0
M  V30 3208 H 306.738 2.33597 -2.90666 0
M  V30 3209 N 308.923 1.53595 0.353017 0
M  V30 3210 C 310.339 1.43648 0.695516 0
M  V30 3211 C 310.539 0.585617 1.92802 0
M  V30 3212 O 309.595 0.0729223 2.52395 0
M  V30 3213 C 310.908 2.8701 0.896991 0
M  V30 3214 C 312.456 2.96723 0.996209 0
M  V30 3215 C 312.931 4.41173 1.23007 0
M  V30 3216 N 314.422 4.44657 1.29749 0
M  V30 3217 C 315.157 5.53547 1.49577 0
M  V30 3218 N 314.653 6.72461 1.66639 0
M  V30 3219 N 316.446 5.41145 1.52048 0
M  V30 3220 H 308.597 2.07415 -0.457481 0
M  V30 3221 H 310.86 0.9372 -0.142687 0
M  V30 3222 H 310.566 3.51644 0.0629938 0
M  V30 3223 H 310.44 3.31401 1.80148 0
M  V30 3224 H 312.827 2.32235 1.82074 0
M  V30 3225 H 312.908 2.55707 0.0688331 0
M  V30 3226 H 312.552 5.06238 0.410505 0
M  V30 3227 H 312.482 4.79772 2.17086 0
M  V30 3228 H 314.973 3.58963 1.18126 0
M  V30 3229 H 315.286 7.51214 1.81378 0
M  V30 3230 H 313.631 6.75423 1.63794 0
M  V30 3231 H 316.822 4.47205 1.38294 0
M  V30 3232 H 316.995 6.26068 1.67159 0
M  V30 3233 N 310.401 -0.613514 1.45168 0
M  V30 3234 C 311.334 -1.73809 1.47871 0
M  V30 3235 C 312.312 -1.59097 0.33568 0
M  V30 3236 O 313.496 -1.8074 0.535299 0
M  V30 3237 C 310.623 -3.11574 1.32813 0
M  V30 3238 C 309.669 -3.4489 2.50905 0
M  V30 3239 S 310.502 -3.40393 4.13392 0
M  V30 3240 C 311.658 -4.80749 4.00789 0
M  V30 3241 H 311.891 -1.71252 2.43023 0
M  V30 3242 H 309.424 -0.789658 1.32679 0
M  V30 3243 H 311.382 -3.91065 1.24812 0
M  V30 3244 H 310.043 -3.11652 0.391418 0
M  V30 3245 H 309.236 -4.45183 2.36279 0
M  V30 3246 H 308.838 -2.72901 2.55736 0
M  V30 3247 H 311.13 -5.7041 3.65567 0
M  V30 3248 H 312.073 -5.00431 5.00974 0
M  V30 3249 H 312.481 -4.56151 3.32545 0
M  V30 3250 N 311.879 -1.3236 -0.855495 0
M  V30 3251 C 313.104 -1.2601 -1.64731 0
M  V30 3252 C 313.529 0.169068 -1.87339 0
M  V30 3253 O 312.887 1.12016 -1.42556 0
M  V30 3254 C 312.935 -2.02417 -2.98429 0
M  V30 3255 O 312.039 -1.3714 -3.8893 0
M  V30 3256 H 311.38 -0.434325 -0.502253 0
M  V30 3257 H 313.91 -1.74661 -1.06558 0
M  V30 3258 H 313.92 -2.12559 -3.48257 0
M  V30 3259 H 312.595 -3.06343 -2.81295 0
M  V30 3260 H 311.172 -1.3554 -3.47395 0
M  V30 3261 N 313.357 1.07166 -1.15556 0
M  V30 3262 C 314.32 2.12589 -0.856644 0
M  V30 3263 C 315.32 1.6015 0.14444 0
M  V30 3264 O 316.51 1.7399 -0.0854163 0
M  V30 3265 C 313.642 3.39753 -0.279405 0
M  V30 3266 H 314.835 2.40539 -1.79112 0
M  V30 3267 H 312.388 1.23086 -0.963298 0
M  V30 3268 H 313.123 3.17447 0.663174 0
M  V30 3269 H 312.908 3.79117 -1.00063 0
M  V30 3270 H 314.398 4.17507 -0.0879113 0
M  V30 3271 N 314.835 0.952656 1.25548 0
M  V30 3272 C 316.06 0.623025 1.97821 0
M  V30 3273 C 316.485 -0.7976 1.70352 0
M  V30 3274 O 315.843 -1.53905 0.958283 0
M  V30 3275 C 315.891 0.885532 3.49558 0
M  V30 3276 O 314.995 -0.0366641 4.12384 0
M  V30 3277 H 314.336 0.237082 0.620232 0
M  V30 3278 H 316.866 1.27871 1.59719 0
M  V30 3279 H 316.876 0.811009 3.99858 0
M  V30 3280 H 315.551 1.92094 3.6888 0
M  V30 3281 H 314.128 0.0898954 3.72792 0
M  V30 3282 N 316.313 -1.40141 0.720998 0
M  V30 3283 C 317.561 -2.0039 0.262323 0
M  V30 3284 C 317.882 -1.57469 -1.15015 0
M  V30 3285 O 317.152 -0.816582 -1.78069 0
M  V30 3286 H 315.732 -0.741063 0.093996 0
M  V30 3287 H 318.394 -1.71398 0.927835 0
M  V30 3288 H 317.49 -3.10658 0.299671 0
M  V30 3289 N 317.792 -0.46758 -1.50504 0
M  V30 3290 C 319.208 -0.121533 -1.59137 0
M  V30 3291 C 319.408 1.3717 -1.47603 0
M  V30 3292 O 318.464 2.14464 -1.33272 0
M  V30 3293 C 319.777 -0.6686 -2.93173 0
M  V30 3294 C 321.325 -0.631716 -3.06559 0
M  V30 3295 C 321.8 -1.15627 -4.43164 0
M  V30 3296 N 323.291 -1.11553 -4.49567 0
M  V30 3297 C 324.026 -1.49195 -5.5365 0
M  V30 3298 N 323.522 -1.94269 -6.65005 0
M  V30 3299 N 325.315 -1.4082 -5.44175 0
M  V30 3300 H 317.466 -1.4388 -1.56245 0
M  V30 3301 H 319.729 -0.594784 -0.738198 0
M  V30 3302 H 319.435 -1.71453 -3.07078 0
M  V30 3303 H 319.309 -0.11021 -3.77039 0
M  V30 3304 H 321.696 0.405297 -2.92304 0
M  V30 3305 H 321.777 -1.22687 -2.24458 0
M  V30 3306 H 321.421 -2.1919 -4.58168 0
M  V30 3307 H 321.351 -0.537365 -5.23851 0
M  V30 3308 H 323.842 -0.784895 -3.69659 0
M  V30 3309 H 324.155 -2.21148 -7.40482 0
M  V30 3310 H 322.5 -1.98219 -6.66134 0
M  V30 3311 H 325.691 -1.0545 -4.56068 0
M  V30 3312 H 325.864 -1.70481 -6.25172 0
M  V30 3313 N 319.27 1.56325 -0.20005 0
M  V30 3314 C 320.5 2.01811 0.442232 0
M  V30 3315 C 320.908 1.07932 1.55394 0
M  V30 3316 O 320.251 0.0772685 1.83537 0
M  V30 3317 C 320.313 3.43685 1.05457 0
M  V30 3318 C 319.977 4.56928 0.0809833 0
M  V30 3319 C 320.974 5.15009 -0.711471 0
M  V30 3320 C 318.659 5.0229 -0.0315364 0
M  V30 3321 C 320.653 6.16904 -1.60336 0
M  V30 3322 C 318.34 6.04028 -0.926981 0
M  V30 3323 C 319.338 6.6121 -1.71146 0
M  V30 3324 O 319.026 7.60971 -2.59189 0
M  V30 3325 H 318.758 0.666173 0.114848 0
M  V30 3326 H 321.312 2.03085 -0.307511 0
M  V30 3327 H 319.542 3.39413 1.85299 0
M  V30 3328 H 321.231 3.72948 1.60201 0
M  V30 3329 H 321.997 4.80827 -0.634873 0
M  V30 3330 H 317.876 4.57476 0.568902 0
M  V30 3331 H 321.42 6.61464 -2.21611 0
M  V30 3332 H 317.317 6.37634 -1.00468 0
M  V30 3333 H 318.085 7.7841 -2.53023 0
M  V30 3334 N 320.748 -0.0735177 1.57428 0
M  V30 3335 C 321.678 -1.0879 2.06608 0
M  V30 3336 C 322.659 -1.40473 0.959237 0
M  V30 3337 O 323.844 -1.5013 1.23185 0
M  V30 3338 C 320.974 -2.40183 2.50857 0
M  V30 3339 C 319.928 -2.22858 3.65402 0
M  V30 3340 C 319.254 -3.59619 3.957 0
M  V30 3341 C 320.554 -1.65123 4.95511 0
M  V30 3342 H 322.248 -0.678673 2.91607 0
M  V30 3343 H 319.794 -0.325013 1.40284 0
M  V30 3344 H 321.747 -3.11437 2.83874 0
M  V30 3345 H 320.471 -2.83083 1.62885 0
M  V30 3346 H 319.13 -1.54045 3.32664 0
M  V30 3347 H 318.778 -4.00086 3.04861 0
M  V30 3348 H 318.478 -3.48866 4.72828 0
M  V30 3349 H 320.002 -4.32306 4.31212 0
M  V30 3350 H 321.416 -2.26241 5.26771 0
M  V30 3351 H 319.813 -1.65071 5.7695 0
M  V30 3352 H 320.883 -0.612559 4.81015 0
M  V30 3353 N 322.226 -1.5378 -0.344866 0
M  V30 3354 C 323.156 -1.84662 -1.42906 0
M  V30 3355 C 324.137 -0.701648 -1.54955 0
M  V30 3356 O 325.322 -0.953438 -1.69184 0
M  V30 3357 C 322.452 -2.05503 -2.79974 0
M  V30 3358 C 321.406 -3.21318 -2.82734 0
M  V30 3359 C 320.732 -3.2749 -4.22675 0
M  V30 3360 C 322.032 -4.59456 -2.48389 0
M  V30 3361 H 323.726 -2.75461 -1.17311 0
M  V30 3362 H 321.272 -1.32542 -0.562896 0
M  V30 3363 H 323.225 -2.25691 -3.55867 0
M  V30 3364 H 321.949 -1.11434 -3.07002 0
M  V30 3365 H 320.608 -3.00984 -2.09294 0
M  V30 3366 H 320.256 -2.31019 -4.4681 0
M  V30 3367 H 319.956 -4.05316 -4.25433 0
M  V30 3368 H 321.48 -3.49887 -5.00412 0
M  V30 3369 H 322.894 -4.79667 -3.13995 0
M  V30 3370 H 321.291 -5.39675 -2.62432 0
M  V30 3371 H 322.361 -4.63155 -1.4358 0
M  V30 3372 N 323.704 0.605807 -1.45491 0
M  V30 3373 C 324.95 1.36679 -1.49823 0
M  V30 3374 C 325.283 1.93693 -0.140175 0
M  V30 3375 O 324.558 1.75158 0.845581 0
M  V30 3376 C 324.841 2.51337 -2.57879 0
M  V30 3377 C 324.694 1.99508 -4.03134 0
M  V30 3378 C 326.013 3.53463 -2.62205 0
M  V30 3379 H 323.132 0.495617 -0.545466 0
M  V30 3380 H 325.774 0.682732 -1.7731 0
M  V30 3381 H 323.924 3.09691 -2.34571 0
M  V30 3382 H 325.596 1.45789 -4.37656 0
M  V30 3383 H 323.839 1.30496 -4.13707 0
M  V30 3384 H 324.51 2.82169 -4.74431 0
M  V30 3385 H 326.986 3.04953 -2.83095 0
M  V30 3386 H 325.862 4.31178 -3.39672 0
M  V30 3387 H 326.123 4.09197 -1.67363 0
M  V30 3388 N 325.182 1.32811 0.848464 0
M  V30 3389 C 326.431 1.23075 1.59798 0
M  V30 3390 C 326.744 -0.204419 1.94529 0
M  V30 3391 O 327.95 -0.423701 2.68173 0
M  V30 3392 C 326.406 2.15594 2.88179 0
M  V30 3393 C 326.014 3.64228 2.60849 0
M  V30 3394 C 327.758 2.14709 3.66197 0
M  V30 3395 C 325.665 4.48689 3.85269 0
M  V30 3396 H 324.595 0.457091 0.599653 0
M  V30 3397 H 327.246 1.57813 0.936342 0
M  V30 3398 H 325.628 1.73778 3.55833 0
M  V30 3399 H 326.802 4.14424 2.01467 0
M  V30 3400 H 325.117 3.67306 1.96151 0
M  V30 3401 H 327.714 2.75046 4.58534 0
M  V30 3402 H 328.057 1.13966 4.00397 0
M  V30 3403 H 328.59 2.54837 3.05455 0
M  V30 3404 H 325.329 5.5027 3.56207 0
M  V30 3405 H 324.849 4.03241 4.44024 0
M  V30 3406 H 326.528 4.62006 4.52946 0
M  V30 3407 N 326.66 -1.06551 1.16123 0
M  V30 3408 C 327.908 -1.78947 0.939267 0
M  V30 3409 C 328.229 -1.87532 -0.534476 0
M  V30 3410 O 327.499 -1.38211 -1.38833 0
M  V30 3411 H 326.079 -0.662807 0.344523 0
M  V30 3412 H 328.741 -1.28725 1.46342 0
M  V30 3413 H 327.837 -2.81117 1.35572 0
M  V30 3414 N 328.138 -0.959301 -1.25041 0
M  V30 3415 C 329.554 -0.664474 -1.4511 0
M  V30 3416 C 329.754 0.776481 -1.85938 0
M  V30 3417 O 328.81 1.55128 -1.99227 0
M  V30 3418 C 330.123 -1.64139 -2.5195 0
M  V30 3419 C 331.671 -1.65309 -2.65786 0
M  V30 3420 C 332.146 -2.61777 -3.75815 0
M  V30 3421 N 333.637 -2.60169 -3.83231 0
M  V30 3422 C 334.372 -3.31489 -4.6787 0
M  V30 3423 N 333.868 -4.12298 -5.56761 0
M  V30 3424 N 335.661 -3.20354 -4.61876 0
M  V30 3425 H 327.812 -1.89043 -0.968332 0
M  V30 3426 H 330.075 -0.813408 -0.4869 0
M  V30 3427 H 329.781 -2.67086 -2.28819 0
M  V30 3428 H 329.655 -1.40756 -3.49954 0
M  V30 3429 H 332.042 -0.630778 -2.8828 0
M  V30 3430 H 332.123 -1.92753 -1.68167 0
M  V30 3431 H 331.767 -3.64137 -3.54071 0
M  V30 3432 H 331.697 -2.31616 -4.72929 0
M  V30 3433 H 334.188 -2.01507 -3.19692 0
M  V30 3434 H 334.501 -4.63625 -6.18281 0
M  V30 3435 H 332.846 -4.16395 -5.56454 0
M  V30 3436 H 336.037 -2.56692 -3.91442 0
M  V30 3437 H 336.21 -3.76201 -5.27614 0
M  V30 3438 N 329.616 1.39756 -0.72842 0
M  V30 3439 C 330.893 1.94574 -0.200079 0
M  V30 3440 C 331.273 1.66569 1.29684 0
M  V30 3441 O 330.621 0.990326 2.05924 0
M  V30 3442 C 330.831 3.45004 -0.526608 0
M  V30 3443 C 332.179 4.21965 -0.472318 0
M  V30 3444 O 333.203 3.53173 -0.463413 0
M  V30 3445 O 332.062 5.44552 -0.461075 0
M  V30 3446 H 329.156 0.826289 -0.0342851 0
M  V30 3447 H 331.702 1.49293 -0.806829 0
M  V30 3448 H 330.474 3.58796 -1.56144 0
M  V30 3449 H 330.097 3.97449 0.109449 0
M  V30 3450 N 331.094 0.475555 1.50254 0
M  V30 3451 C 332.057 -0.305016 2.27161 0
M  V30 3452 C 333.057 -0.916519 1.32123 0
M  V30 3453 O 334.247 -0.785003 1.5551 0
M  V30 3454 C 331.379 -1.43496 3.09227 0
M  V30 3455 H 332.572 0.369511 2.97615 0
M  V30 3456 H 330.125 0.229747 1.54602 0
M  V30 3457 H 330.86 -2.14441 2.43281 0
M  V30 3458 H 330.645 -1.00223 3.79075 0
M  V30 3459 H 332.135 -1.98548 3.67381 0
M  V30 3460 N 332.573 -1.56217 0.208337 0
M  V30 3461 C 333.989 -1.58919 -0.14729 0
M  V30 3462 C 334.189 -1.22486 -1.59998 0
M  V30 3463 O 333.245 -0.953849 -2.3379 0
M  V30 3464 C 334.558 -3.00236 0.167048 0
M  V30 3465 C 336.106 -3.12813 0.108219 0
M  V30 3466 C 336.581 -4.56284 0.396049 0
M  V30 3467 N 338.072 -4.61912 0.345142 0
M  V30 3468 C 338.807 -5.70837 0.541523 0
M  V30 3469 N 338.303 -6.88178 0.798968 0
M  V30 3470 N 340.096 -5.60091 0.474867 0
M  V30 3471 H 332.247 -1.78177 1.15614 0
M  V30 3472 H 334.51 -0.827555 0.462446 0
M  V30 3473 H 334.216 -3.31499 1.1748 0
M  V30 3474 H 334.09 -3.7354 -0.524184 0
M  V30 3475 H 336.477 -2.81354 -0.890157 0
M  V30 3476 H 336.558 -2.41866 0.832729 0
M  V30 3477 H 336.202 -4.88458 1.3918 0
M  V30 3478 H 336.132 -5.25439 -0.349502 0
M  V30 3479 H 338.623 -3.77589 0.153316 0
M  V30 3480 H 338.936 -7.67095 0.93727 0
M  V30 3481 H 337.281 -6.89953 0.836013 0
M  V30 3482 H 340.472 -4.67297 0.274064 0
M  V30 3483 H 340.645 -6.44917 0.631326 0
M  V30 3484 N 334.051 0.0651679 -1.57465 0
M  V30 3485 C 335.3 0.761916 -1.86756 0
M  V30 3486 C 335.613 1.78406 -0.801925 0
M  V30 3487 O 336.819 2.53084 -0.982885 0
M  V30 3488 C 335.275 1.40603 -3.31299 0
M  V30 3489 C 334.883 0.422115 -4.46007 0
M  V30 3490 C 336.627 2.08476 -3.69781 0
M  V30 3491 C 334.534 1.07252 -5.81593 0
M  V30 3492 H 333.464 0.288308 -0.696702 0
M  V30 3493 H 336.115 0.015344 -1.83494 0
M  V30 3494 H 334.497 2.20109 -3.29193 0
M  V30 3495 H 335.671 -0.343613 -4.59517 0
M  V30 3496 H 333.986 -0.152527 -4.16121 0
M  V30 3497 H 336.583 2.57925 -4.68379 0
M  V30 3498 H 336.926 2.88712 -2.99919 0
M  V30 3499 H 337.459 1.35792 -3.73905 0
M  V30 3500 H 334.198 0.310342 -6.54765 0
M  V30 3501 H 333.718 1.80895 -5.71872 0
M  V30 3502 H 335.397 1.59043 -6.27148 0
M  V30 3503 N 335.529 1.53961 0.336706 0
M  V30 3504 C 336.806 1.62171 1.09361 0
M  V30 3505 C 337.186 0.447263 2.06307 0
M  V30 3506 O 336.534 -0.559802 2.21537 0
M  V30 3507 C 336.744 2.98565 1.80721 0
M  V30 3508 C 338.092 3.54157 2.34218 0
M  V30 3509 O 339.116 3.00784 1.90807 0
M  V30 3510 O 337.975 4.47528 3.13657 0
M  V30 3511 H 335.069 0.6562 0.503319 0
M  V30 3512 H 337.615 1.66307 0.33765 0
M  V30 3513 H 336.387 3.75482 1.10132 0
M  V30 3514 H 336.01 2.9805 2.63158 0
M  V30 3515 N 337.007 -0.598083 1.45811 0
M  V30 3516 C 337.94 -1.7223 1.49706 0
M  V30 3517 C 338.918 -1.58732 0.352535 0
M  V30 3518 O 340.102 -1.80162 0.554438 0
M  V30 3519 C 337.229 -3.10148 1.3611 0
M  V30 3520 C 336.275 -3.42209 2.54549 0
M  V30 3521 S 337.108 -3.35989 4.16979 0
M  V30 3522 C 338.264 -4.76471 4.05865 0
M  V30 3523 H 338.497 -1.68665 2.44826 0
M  V30 3524 H 336.03 -0.775541 1.33509 0
M  V30 3525 H 337.988 -3.8972 1.28953 0
M  V30 3526 H 336.649 -3.11219 0.424451 0
M  V30 3527 H 335.842 -4.42652 2.40988 0
M  V30 3528 H 335.444 -2.70173 2.58617 0
M  V30 3529 H 337.736 -5.665 3.71596 0
M  V30 3530 H 338.679 -4.95089 5.06253 0
M  V30 3531 H 339.087 -4.52599 3.37364 0
M  V30 3532 N 338.485 -1.33259 -0.841409 0
M  V30 3533 C 339.734 -1.23921 -1.59143 0
M  V30 3534 C 340.047 0.1941 -1.94635 0
M  V30 3535 O 341.253 0.409474 -2.68394 0
M  V30 3536 C 339.709 -2.17119 -2.87032 0
M  V30 3537 C 339.317 -3.65606 -2.58914 0
M  V30 3538 C 341.061 -2.16648 -3.65053 0
M  V30 3539 C 338.968 -4.50726 -3.82884 0
M  V30 3540 H 337.898 -0.460264 -0.597221 0
M  V30 3541 H 340.549 -1.58307 -0.927959 0
M  V30 3542 H 338.931 -1.75663 -3.54906 0
M  V30 3543 H 340.105 -4.15487 -1.99267 0
M  V30 3544 H 338.42 -3.68341 -1.942 0
M  V30 3545 H 341.017 -2.77474 -4.57069 0
M  V30 3546 H 341.36 -1.16088 -3.99787 0
M  V30 3547 H 341.893 -2.56453 -3.041 0
M  V30 3548 H 338.632 -5.52151 -3.53283 0
M  V30 3549 H 338.152 -4.0559 -4.41879 0
M  V30 3550 H 339.831 -4.64401 -4.50489 0
M  V30 3551 N 339.963 1.05934 -1.16686 0
M  V30 3552 C 341.24 1.75643 -0.860747 0
M  V30 3553 C 341.62 2.01144 0.640641 0
M  V30 3554 O 340.968 1.64147 1.58959 0
M  V30 3555 C 341.178 3.05493 -1.68745 0
M  V30 3556 C 342.526 3.79581 -1.90271 0
M  V30 3557 O 343.55 3.15344 -1.65641 0
M  V30 3558 O 342.409 4.9499 -2.31618 0
M  V30 3559 H 339.503 0.763426 -0.317977 0
M  V30 3560 H 342.049 1.1217 -1.27342 0
M  V30 3561 H 340.821 2.8264 -2.70611 0
M  V30 3562 H 340.444 3.76702 -1.27206 0
M  V30 3563 N 341.441 0.965919 1.2453 0
M  V30 3564 C 342.371 0.513476 2.27784 0
M  V30 3565 C 343.352 -0.445974 1.6415 0
M  V30 3566 O 344.537 -0.342485 1.91156 0
M  V30 3567 C 341.667 -0.198839 3.4673 0
M  V30 3568 C 340.621 0.676456 4.2262 0
M  V30 3569 C 339.947 -0.167248 5.34438 0
M  V30 3570 C 341.247 1.96017 4.84123 0
M  V30 3571 H 342.941 1.3765 2.65881 0
M  V30 3572 H 340.487 0.663321 1.27813 0
M  V30 3573 H 342.44 -0.526567 4.18097 0
M  V30 3574 H 341.164 -1.0962 3.07654 0
M  V30 3575 H 339.823 0.98743 3.53052 0
M  V30 3576 H 339.471 -1.0647 4.91603 0
M  V30 3577 H 339.171 0.415181 5.86131 0
M  V30 3578 H 340.695 -0.489688 6.08633 0
M  V30 3579 H 342.109 1.69814 5.47573 0
M  V30 3580 H 340.506 2.48918 5.4604 0
M  V30 3581 H 341.576 2.65622 4.05676 0
M  V30 3582 N 342.919 -1.39368 0.735821 0
M  V30 3583 C 344.165 -2.01272 0.293439 0
M  V30 3584 C 344.52 -1.57344 -1.10728 0
M  V30 3585 O 343.813 -0.792744 -1.74431 0
M  V30 3586 C 344.007 -3.5583 0.334651 0
M  V30 3587 C 343.836 -4.14764 1.73784 0
M  V30 3588 C 342.606 -4.47315 2.35026 0
M  V30 3589 C 344.804 -4.38246 2.69157 0
M  V30 3590 N 342.786 -4.91756 3.6749 0
M  V30 3591 C 344.157 -4.849 3.86357 0
M  V30 3592 C 346.212 -4.20315 2.66908 0
M  V30 3593 C 344.915 -5.15505 5.01645 0
M  V30 3594 C 346.941 -4.52033 3.8134 0
M  V30 3595 C 346.303 -4.98895 4.97276 0
M  V30 3596 H 342.402 -0.766756 0.153652 0
M  V30 3597 H 344.986 -1.69276 0.961967 0
M  V30 3598 H 343.157 -3.87212 -0.303527 0
M  V30 3599 H 344.889 -4.04503 -0.126358 0
M  V30 3600 H 341.644 -4.35143 1.86943 0
M  V30 3601 H 342.068 -5.18333 4.35499 0
M  V30 3602 H 346.71 -3.83287 1.78468 0
M  V30 3603 H 344.428 -5.51437 5.90713 0
M  V30 3604 H 348.014 -4.39781 3.80899 0
M  V30 3605 H 346.894 -5.22973 5.84353 0
M  V30 3606 N 344.397 -0.483516 -1.5 0
M  V30 3607 C 345.36 0.292965 -2.2732 0
M  V30 3608 C 346.36 0.909499 -1.32608 0
M  V30 3609 O 347.55 0.776745 -1.55924 0
M  V30 3610 C 344.682 1.41854 -3.09984 0
M  V30 3611 H 345.875 -0.385289 -2.97415 0
M  V30 3612 H 343.428 -0.237942 -1.54478 0
M  V30 3613 H 344.163 2.13148 -2.44414 0
M  V30 3614 H 343.948 0.982114 -3.79601 0
M  V30 3615 H 345.438 1.96597 -3.68429 0
M  V30 3616 N 345.875 1.56104 -0.216619 0
M  V30 3617 C 346.822 2.2007 0.695531 0
M  V30 3618 C 347.792 1.15471 1.19397 0
M  V30 3619 O 348.977 1.43807 1.25396 0
M  V30 3620 C 346.117 2.88073 1.90021 0
M  V30 3621 C 345.23 4.07253 1.44113 0
M  V30 3622 C 344.365 4.63052 2.603 0
M  V30 3623 C 343.404 5.74545 2.11103 0
M  V30 3624 N 342.541 6.24656 3.20545 0
M  V30 3625 H 347.381 2.97655 0.143327 0
M  V30 3626 H 344.918 1.46982 0.0589934 0
M  V30 3627 H 346.876 3.25681 2.60745 0
M  V30 3628 H 345.506 2.13015 2.42538 0
M  V30 3629 H 344.558 3.75164 0.628999 0
M  V30 3630 H 345.87 4.8783 1.04036 0
M  V30 3631 H 345.024 5.03078 3.39113 0
M  V30 3632 H 343.763 3.81628 3.03663 0
M  V30 3633 H 342.768 5.34027 1.3075 0
M  V30 3634 H 343.993 6.57801 1.68746 0
M  V30 3635 H 341.939 5.46148 3.63399 0
M  V30 3636 H 341.856 7.00343 2.84704 0
M  V30 3637 H 343.124 6.69338 3.99508 0
M  V30 3638 N 347.353 -0.0568162 1.57498 0
M  V30 3639 C 348.263 -1.08346 2.08083 0
M  V30 3640 C 349.279 -1.41439 1.01346 0
M  V30 3641 O 350.455 -1.51316 1.32912 0
M  V30 3642 C 347.52 -2.37352 2.52715 0
M  V30 3643 C 346.581 -2.11093 3.73816 0
M  V30 3644 C 345.814 -3.33949 4.1631 0
M  V30 3645 O 346.037 -4.43622 3.58547 0
M  V30 3646 O 344.971 -3.21279 5.08983 0
M  V30 3647 H 348.797 -0.683667 2.95905 0
M  V30 3648 H 346.382 -0.271965 1.46904 0
M  V30 3649 H 348.264 -3.13246 2.81877 0
M  V30 3650 H 346.939 -2.76681 1.68016 0
M  V30 3651 H 345.846 -1.32856 3.49714 0
M  V30 3652 H 347.179 -1.76637 4.59413 0
M  V30 3653 N 348.832 -1.54138 -0.328536 0
M  V30 3654 C 350.243 -1.63395 -0.903272 0
M  V30 3655 C 350.594 -0.524828 -1.8905 0
M  V30 3656 O 349.719 0.343068 -2.13663 0
M  V30 3657 C 350.314 -2.9618 -1.64507 0
M  V30 3658 C 348.873 -3.0765 -2.1686 0
M  V30 3659 C 348.02 -2.58933 -0.992416 0
M  V30 3660 H 350.971 -1.58344 -0.106253 0
M  V30 3661 H 350.992 -2.86061 -2.50897 0
M  V30 3662 H 350.504 -3.76884 -0.926302 0
M  V30 3663 H 348.605 -2.31611 -2.91868 0
M  V30 3664 H 348.718 -4.1337 -2.42202 0
M  V30 3665 H 347.082 -2.14706 -1.37016 0
M  V30 3666 H 347.865 -3.42089 -0.288041 0
M  V30 3667 N 350.31 0.590341 -1.46126 0
M  V30 3668 C 351.538 1.37504 -1.54597 0
M  V30 3669 C 351.953 1.87897 -0.184447 0
M  V30 3670 O 351.31 1.63192 0.816984 0
M  V30 3671 C 351.361 2.56779 -2.54454 0
M  V30 3672 O 351.082 2.08476 -3.85317 0
M  V30 3673 C 352.583 3.49427 -2.72792 0
M  V30 3674 H 349.803 0.420325 -0.523037 0
M  V30 3675 H 352.347 0.718383 -1.91467 0
M  V30 3676 H 350.502 3.1845 -2.20609 0
M  V30 3677 H 350.916 2.86097 -4.396 0
M  V30 3678 H 352.39 4.29619 -3.466 0
M  V30 3679 H 352.867 4.00876 -1.79429 0
M  V30 3680 H 353.473 2.93598 -3.07702 0
M  V30 3681 N 351.788 1.33704 0.83433 0
M  V30 3682 C 352.735 1.24335 1.94447 0
M  V30 3683 C 353.705 0.120991 1.65659 0
M  V30 3684 O 354.89 0.300035 1.88426 0
M  V30 3685 C 352.03 0.993124 3.30501 0
M  V30 3686 C 351.143 2.20217 3.71657 0
M  V30 3687 C 350.278 1.88572 4.96602 0
M  V30 3688 C 349.317 3.05683 5.30306 0
M  V30 3689 N 348.454 2.73997 6.46429 0
M  V30 3690 H 353.294 2.1928 2.01792 0
M  V30 3691 H 350.831 1.09035 0.987404 0
M  V30 3692 H 352.789 0.828467 4.08892 0
M  V30 3693 H 351.419 0.0803902 3.227 0
M  V30 3694 H 350.471 2.47642 2.88752 0
M  V30 3695 H 351.783 3.07752 3.92543 0
M  V30 3696 H 350.937 1.68776 5.82752 0
M  V30 3697 H 349.676 0.982799 4.77695 0
M  V30 3698 H 348.681 3.26088 4.42659 0
M  V30 3699 H 349.906 3.96737 5.51159 0
M  V30 3700 H 347.852 1.86268 6.28999 0
M  V30 3701 H 347.769 3.55064 6.67432 0
M  V30 3702 H 349.037 2.57679 7.35678 0
M  V30 3703 N 353.266 -1.05314 1.17247 0
M  V30 3704 C 354.512 -1.78557 0.961513 0
M  V30 3705 C 354.845 -1.87419 -0.508697 0
M  V30 3706 O 354.12 -1.37307 -1.37757 0
M  V30 3707 C 354.403 -3.22514 1.60176 0
M  V30 3708 C 354.256 -3.21673 3.14399 0
M  V30 3709 C 355.575 -4.20318 1.30463 0
M  V30 3710 H 352.694 -0.6482 0.350723 0
M  V30 3711 H 355.336 -1.23102 1.44727 0
M  V30 3712 H 353.486 -3.69867 1.18871 0
M  V30 3713 H 355.158 -2.82405 3.64753 0
M  V30 3714 H 353.401 -2.60048 3.47214 0
M  V30 3715 H 354.072 -4.23271 3.54324 0
M  V30 3716 H 356.548 -3.81454 1.66229 0
M  V30 3717 H 355.424 -5.19289 1.77848 0
M  V30 3718 H 355.685 -4.41526 0.22521 0
M  V30 3719 N 354.744 -0.972509 -1.24016 0
M  V30 3720 C 355.707 -0.511403 -2.23422 0
M  V30 3721 C 356.707 0.394679 -1.55881 0
M  V30 3722 O 357.897 0.189469 -1.73167 0
M  V30 3723 C 355.029 0.258769 -3.39916 0
M  V30 3724 H 356.222 -1.39024 -2.6573 0
M  V30 3725 H 353.775 -0.757585 -1.36713 0
M  V30 3726 H 354.51 1.1545 -3.03054 0
M  V30 3727 H 354.295 -0.391522 -3.9014 0
M  V30 3728 H 355.785 0.570244 -4.13688 0
M  V30 3729 N 356.222 1.38976 -0.743202 0
M  V30 3730 C 357.132 2.3434 -0.110399 0
M  V30 3731 C 358.148 1.58741 0.712559 0
M  V30 3732 O 359.324 1.9099 0.639125 0
M  V30 3733 C 356.389 3.37812 0.780012 0
M  V30 3734 C 355.45 4.29263 -0.0561319 0
M  V30 3735 C 354.683 5.27793 0.791875 0
M  V30 3736 O 354.906 5.33043 2.03031 0
M  V30 3737 O 353.84 6.01512 0.216183 0
M  V30 3738 H 357.666 2.90129 -0.897714 0
M  V30 3739 H 355.251 1.40643 -0.503966 0
M  V30 3740 H 357.133 4.01194 1.28923 0
M  V30 3741 H 355.808 2.84395 1.546 0
M  V30 3742 H 354.715 3.69076 -0.611056 0
M  V30 3743 H 356.048 4.85907 -0.784531 0
M  V30 3744 N 357.7 0.491464 1.49741 0
M  V30 3745 C 358.949 -0.0582189 2.01616 0
M  V30 3746 C 359.262 -1.38927 1.3769 0
M  V30 3747 O 360.468 -2.02509 1.80838 0
M  V30 3748 C 358.924 -0.154235 3.59569 0
M  V30 3749 C 358.532 1.1696 4.32463 0
M  V30 3750 C 360.276 -0.65479 4.1942 0
M  V30 3751 C 358.183 1.03627 5.8225 0
M  V30 3752 H 357.113 -0.0255317 0.753568 0
M  V30 3753 H 359.764 0.629445 1.72367 0
M  V30 3754 H 358.146 -0.906138 3.85493 0
M  V30 3755 H 359.32 1.93405 4.18248 0
M  V30 3756 H 357.635 1.60285 3.84315 0
M  V30 3757 H 360.232 -0.771903 5.29099 0
M  V30 3758 H 360.575 -1.65127 3.8215 0
M  V30 3759 H 361.108 0.040304 3.9778 0
M  V30 3760 H 357.847 2.00672 6.24028 0
M  V30 3761 H 357.367 0.312546 5.98985 0
M  V30 3762 H 359.046 0.711114 6.4308 0
M  V30 3763 N 359.178 -1.55987 0.224894 0
M  V30 3764 C 360.125 -2.20436 -0.68385 0
M  V30 3765 C 361.095 -1.16102 -1.18783 0
M  V30 3766 O 362.28 -1.4447 -1.24632 0
M  V30 3767 C 359.42 -2.89076 -1.88491 0
M  V30 3768 C 358.533 -4.08012 -1.41951 0
M  V30 3769 C 357.668 -4.64426 -2.5784 0
M  V30 3770 C 356.707 -5.75656 -2.08053 0
M  V30 3771 N 355.844 -6.26347 -3.17227 0
M  V30 3772 H 360.684 -2.97727 -0.12754 0
M  V30 3773 H 358.221 -1.47011 -0.0511978 0
M  V30 3774 H 360.179 -3.27059 -2.59014 0
M  V30 3775 H 358.809 -2.14298 -2.41405 0
M  V30 3776 H 357.861 -3.75492 -0.609095 0
M  V30 3777 H 359.173 -4.88375 -1.01447 0
M  V30 3778 H 358.327 -5.04869 -3.3644 0
M  V30 3779 H 357.066 -3.83233 -3.01635 0
M  V30 3780 H 356.071 -5.34712 -1.27916 0
M  V30 3781 H 357.296 -6.58686 -1.65255 0
M  V30 3782 H 355.242 -5.48067 -3.60497 0
M  V30 3783 H 355.159 -7.01843 -2.80986 0
M  V30 3784 H 356.427 -6.71447 -3.95953 0
M  V30 3785 N 360.656 0.0484629 -1.57525 0
M  V30 3786 C 361.905 0.742065 -1.87553 0
M  V30 3787 C 362.218 1.77545 -0.820802 0
M  V30 3788 O 363.424 2.52027 -1.00967 0
M  V30 3789 C 361.88 1.37081 -3.32771 0
M  V30 3790 C 361.488 0.374786 -4.4643 0
M  V30 3791 C 363.232 2.04542 -3.71972 0
M  V30 3792 C 361.139 1.01077 -5.82698 0
M  V30 3793 H 360.069 0.280903 -0.699721 0
M  V30 3794 H 362.72 -0.00411877 -1.835 0
M  V30 3795 H 361.102 2.16605 -3.31509 0
M  V30 3796 H 362.276 -0.392331 -4.59127 0
M  V30 3797 H 360.591 -0.196653 -4.15935 0
M  V30 3798 H 363.188 2.52943 -4.71088 0
M  V30 3799 H 363.531 2.85515 -3.02964 0
M  V30 3800 H 364.064 1.31819 -3.75325 0
M  V30 3801 H 360.803 0.240878 -6.55057 0
M  V30 3802 H 360.323 1.74819 -5.73758 0
M  V30 3803 H 362.002 1.52383 -6.28799 0
M  V30 3804 N 362.134 1.5431 0.320358 0
M  V30 3805 C 363.382 1.72327 1.05583 0
M  V30 3806 C 363.703 0.50149 1.88441 0
M  V30 3807 O 362.973 -0.48448 1.89815 0
M  V30 3808 H 361.553 0.635387 0.3928 0
M  V30 3809 H 364.215 1.91621 0.356019 0
M  V30 3810 H 363.311 2.60426 1.72003 0
M  V30 3811 N 363.613 -0.582584 1.46437 0
M  V30 3812 C 364.862 -1.337 1.5102 0
M  V30 3813 C 365.175 -1.94891 0.166359 0
M  V30 3814 O 366.381 -2.71351 0.0899954 0
M  V30 3815 C 364.837 -2.42315 2.66104 0
M  V30 3816 C 364.445 -1.87427 4.06909 0
M  V30 3817 C 366.189 -3.19099 2.79958 0
M  V30 3818 C 364.096 -2.93672 5.13333 0
M  V30 3819 H 363.026 -0.502619 0.562041 0
M  V30 3820 H 365.677 -0.621701 1.72647 0
M  V30 3821 H 364.059 -3.16645 2.37807 0
M  V30 3822 H 365.233 -1.19639 4.44998 0
M  V30 3823 H 363.548 -1.2331 3.97723 0
M  V30 3824 H 366.145 -3.9839 3.56636 0
M  V30 3825 H 366.488 -3.71695 1.87479 0
M  V30 3826 H 367.021 -2.51875 3.07902 0
M  V30 3827 H 363.76 -2.45962 6.07604 0
M  V30 3828 H 363.28 -3.59948 4.79789 0
M  V30 3829 H 364.959 -3.5762 5.39182 0
M  V30 3830 N 365.091 -1.34144 -0.827227 0
M  V30 3831 C 366.001 -1.27428 -1.96975 0
M  V30 3832 C 367.017 -0.182728 -1.73038 0
M  V30 3833 O 368.193 -0.408426 -1.97215 0
M  V30 3834 C 365.258 -1.02526 -3.31194 0
M  V30 3835 C 364.319 -2.20796 -3.68168 0
M  V30 3836 C 363.552 -1.97073 -4.95982 0
M  V30 3837 O 363.775 -0.926822 -5.6282 0
M  V30 3838 O 362.709 -2.83912 -5.30733 0
M  V30 3839 H 366.535 -2.23537 -2.05584 0
M  V30 3840 H 364.12 -1.14307 -0.961989 0
M  V30 3841 H 366.002 -0.904026 -4.11589 0
M  V30 3842 H 364.677 -0.0945389 -3.23562 0
M  V30 3843 H 363.584 -2.38477 -2.88235 0
M  V30 3844 H 364.917 -3.12243 -3.8048 0
M  V30 3845 N 366.569 1.04691 -1.17803 0
M  V30 3846 C 367.532 2.10724 -0.901545 0
M  V30 3847 C 368.532 1.6042 0.110437 0
M  V30 3848 O 369.722 1.7377 -0.122303 0
M  V30 3849 C 366.854 3.39084 -0.351409 0
M  V30 3850 H 368.047 2.36686 -1.84174 0
M  V30 3851 H 365.6 1.21015 -0.98919 0
M  V30 3852 H 366.335 3.18782 0.59569 0
M  V30 3853 H 366.12 3.76909 -1.08083 0
M  V30 3854 H 367.61 4.17227 -0.176451 0
M  V30 3855 N 368.047 0.979072 1.23499 0
M  V30 3856 C 369.463 0.687475 1.44034 0
M  V30 3857 C 369.663 -0.746801 1.8715 0
M  V30 3858 O 368.719 -1.51939 2.0167 0
M  V30 3859 C 370.032 1.68127 2.49307 0
M  V30 3860 C 371.58 1.69516 2.63122 0
M  V30 3861 C 372.055 2.67723 3.71603 0
M  V30 3862 N 373.546 2.66233 3.79044 0
M  V30 3863 C 374.281 3.38891 4.62537 0
M  V30 3864 N 373.777 4.21103 5.50131 0
M  V30 3865 N 375.57 3.27661 4.56721 0
M  V30 3866 H 367.721 1.90559 0.938135 0
M  V30 3867 H 369.984 0.821051 0.473897 0
M  V30 3868 H 369.69 2.70693 2.2454 0
M  V30 3869 H 369.564 1.46306 3.4767 0
M  V30 3870 H 371.951 0.676561 2.8724 0
M  V30 3871 H 372.032 1.95404 1.65079 0
M  V30 3872 H 371.676 3.69724 3.48233 0
M  V30 3873 H 371.606 2.39111 4.69184 0
M  V30 3874 H 374.097 2.06568 3.16446 0
M  V30 3875 H 374.41 4.73403 6.10827 0
M  V30 3876 H 372.755 4.25195 5.49759 0
M  V30 3877 H 375.946 2.62887 3.87309 0
M  V30 3878 H 376.119 3.84547 5.21562 0
M  V30 3879 N 369.525 -1.3858 0.750561 0
M  V30 3880 C 370.75 -2.04997 0.314812 0
M  V30 3881 C 371.175 -1.56235 -1.04749 0
M  V30 3882 O 370.533 -0.712981 -1.66692 0
M  V30 3883 C 370.581 -3.58961 0.343415 0
M  V30 3884 O 369.685 -4.07025 -0.663628 0
M  V30 3885 H 369.026 -0.649081 0.139962 0
M  V30 3886 H 371.556 -1.77313 1.02084 0
M  V30 3887 H 371.566 -4.07542 0.193233 0
M  V30 3888 H 370.241 -3.93811 1.33738 0
M  V30 3889 H 368.818 -3.6982 -0.478307 0
M  V30 3890 N 371.003 -0.499398 -1.49478 0
M  V30 3891 C 372.249 0.0457576 -2.02748 0
M  V30 3892 C 372.582 1.36793 -1.37846 0
M  V30 3893 O 371.857 1.87596 -0.513601 0
M  V30 3894 C 372.14 0.199986 -3.59544 0
M  V30 3895 C 371.993 -1.1452 -4.34977 0
M  V30 3896 C 373.312 0.94137 -4.29914 0
M  V30 3897 H 370.431 0.0151552 -0.736844 0
M  V30 3898 H 373.073 -0.650498 -1.78518 0
M  V30 3899 H 371.223 0.793007 -3.8032 0
M  V30 3900 H 372.895 -1.77697 -4.25701 0
M  V30 3901 H 371.138 -1.73488 -3.97598 0
M  V30 3902 H 371.809 -0.990607 -5.43039 0
M  V30 3903 H 374.285 0.43844 -4.13784 0
M  V30 3904 H 373.161 1.01812 -5.39375 0
M  V30 3905 H 373.422 1.98471 -3.95046 0
M  V30 3906 N 372.481 1.55866 -0.233164 0
M  V30 3907 C 373.391 2.24431 0.683217 0
M  V30 3908 C 374.407 1.2558 1.2044 0
M  V30 3909 O 375.583 1.58422 1.24356 0
M  V30 3910 C 372.648 2.91979 1.86947 0
M  V30 3911 C 371.709 4.06204 1.38912 0
M  V30 3912 C 370.942 4.70522 2.51883 0
M  V30 3913 O 371.165 4.33865 3.70293 0
M  V30 3914 O 370.099 5.59296 2.22423 0
M  V30 3915 H 373.925 3.03426 0.129059 0
M  V30 3916 H 371.51 1.494 -0.0022283 0
M  V30 3917 H 373.392 3.34573 2.56201 0
M  V30 3918 H 372.067 2.15935 2.41151 0
M  V30 3919 H 370.974 3.68155 0.664259 0
M  V30 3920 H 372.307 4.84025 0.893328 0
M  V30 3921 N 373.959 -0.0401083 1.57549 0
M  V30 3922 C 375.184 -0.748931 1.93406 0
M  V30 3923 C 375.609 -1.68686 0.832274 0
M  V30 3924 O 374.967 -1.80047 -0.212818 0
M  V30 3925 C 375.015 -1.4916 3.28304 0
M  V30 3926 O 374.119 -2.6042 3.19774 0
M  V30 3927 H 373.46 -0.202212 0.63246 0
M  V30 3928 H 375.99 0.00112086 2.046 0
M  V30 3929 H 376 -1.86395 3.62934 0
M  V30 3930 H 374.675 -0.80364 4.08062 0
M  V30 3931 H 373.252 -2.25808 2.96758 0
M  V30 3932 N 375.437 -1.54477 -0.31217 0
M  V30 3933 C 376.662 -1.77526 -1.07235 0
M  V30 3934 C 377.087 -0.527775 -1.80544 0
M  V30 3935 O 376.445 0.52121 -1.73646 0
M  V30 3936 C 376.493 -2.97535 -2.03728 0
M  V30 3937 O 375.597 -2.69878 -3.11833 0
M  V30 3938 H 374.938 -0.58792 -0.30862 0
M  V30 3939 H 377.468 -2.01532 -0.352993 0
M  V30 3940 H 377.478 -3.25198 -2.46395 0
M  V30 3941 H 376.153 -3.87996 -1.49774 0
M  V30 3942 H 374.73 -2.53199 -2.7376 0
M  V30 3943 N 376.915 0.57481 -1.46744 0
M  V30 3944 C 377.862 1.68329 -1.57905 0
M  V30 3945 C 378.832 1.60625 -0.422927 0
M  V30 3946 O 380.017 1.79721 -0.640711 0
M  V30 3947 C 377.157 3.06665 -1.58274 0
M  V30 3948 C 376.27 3.24935 -2.84678 0
M  V30 3949 C 375.405 4.53566 -2.76499 0
M  V30 3950 C 374.444 4.65207 -3.97806 0
M  V30 3951 N 373.581 5.85172 -3.87967 0
M  V30 3952 H 378.421 1.58127 -2.52587 0
M  V30 3953 H 375.958 0.770552 -1.25303 0
M  V30 3954 H 377.916 3.86745 -1.56473 0
M  V30 3955 H 376.546 3.15745 -0.671194 0
M  V30 3956 H 375.598 2.38405 -2.96424 0
M  V30 3957 H 376.91 3.29403 -3.7456 0
M  V30 3958 H 376.064 5.41885 -2.72848 0
M  V30 3959 H 374.803 4.51548 -1.8427 0
M  V30 3960 H 373.808 3.75304 -4.0178 0
M  V30 3961 H 375.033 4.68997 -4.9114 0
M  V30 3962 H 372.979 5.84137 -2.98529 0
M  V30 3963 H 372.896 5.90943 -4.71511 0
M  V30 3964 H 374.164 6.759 -3.88303 0
M  V30 3965 N 378.394 1.34581 0.820102 0
M  V30 3966 C 379.641 1.27096 1.57648 0
M  V30 3967 C 379.969 -0.158317 1.93855 0
M  V30 3968 O 379.224 -1.12028 1.60463 0
M  V30 3969 C 379.523 2.10997 2.8847 0
M  V30 3970 C 379.189 3.59966 2.71543 0
M  V30 3971 C 377.851 4.00575 2.66634 0
M  V30 3972 C 380.203 4.54548 2.55021 0
M  V30 3973 C 377.531 5.33953 2.43128 0
M  V30 3974 C 379.883 5.88109 2.33047 0
M  V30 3975 C 378.547 6.27878 2.26552 0
M  V30 3976 H 377.817 0.465078 0.576874 0
M  V30 3977 H 380.464 1.6635 0.948671 0
M  V30 3978 H 378.769 1.6458 3.55557 0
M  V30 3979 H 380.466 2.0255 3.46084 0
M  V30 3980 H 377.056 3.27733 2.76205 0
M  V30 3981 H 381.24 4.24069 2.57835 0
M  V30 3982 H 376.496 5.63781 2.3656 0
M  V30 3983 H 380.67 6.60985 2.19251 0
M  V30 3984 H 378.297 7.31162 2.081 0
M  V30 3985 N 379.872 -1.04064 1.18357 0
M  V30 3986 C 380.819 -2.12077 0.910603 0
M  V30 3987 C 381.789 -1.65421 -0.15 0
M  V30 3988 O 382.974 -1.90797 -0.0103614 0
M  V30 3989 C 380.114 -3.42252 0.442472 0
M  V30 3990 C 379.227 -4.0252 1.5685 0
M  V30 3991 C 378.362 -5.20657 1.05309 0
M  V30 3992 C 377.401 -5.72955 2.1538 0
M  V30 3993 N 376.538 -6.8238 1.65233 0
M  V30 3994 H 381.378 -2.34764 1.83548 0
M  V30 3995 H 378.915 -1.15157 0.915279 0
M  V30 3996 H 380.873 -4.16921 0.152534 0
M  V30 3997 H 379.503 -3.19712 -0.445428 0
M  V30 3998 H 378.555 -3.25178 1.97391 0
M  V30 3999 H 379.867 -4.37362 2.39824 0
M  V30 4000 H 379.021 -6.0244 0.717677 0
M  V30 4001 H 377.76 -4.87318 0.19293 0
M  V30 4002 H 376.765 -4.89793 2.49766 0
M  V30 4003 H 377.99 -6.08337 3.01832 0
M  V30 4004 H 375.936 -6.50917 0.815064 0
M  V30 4005 H 375.853 -7.16286 2.41805 0
M  V30 4006 H 377.121 -7.67788 1.34619 0
M  V30 4007 N 381.35 -0.985608 -1.22978 0
M  V30 4008 C 382.598 -0.656087 -1.91154 0
M  V30 4009 C 382.919 0.813561 -1.77218 0
M  V30 4010 O 382.189 1.58244 -1.1548 0
M  V30 4011 H 380.769 -0.239674 -0.707506 0
M  V30 4012 H 383.431 -1.25054 -1.49491 0
M  V30 4013 H 382.527 -0.912253 -2.9847 0
M  V30 4014 N 382.828 1.3818 -0.7579 0
M  V30 4015 C 384.058 2.04004 -0.326463 0
M  V30 4016 C 384.466 1.57286 1.05156 0
M  V30 4017 O 383.809 0.743144 1.67997 0
M  V30 4018 C 383.871 3.58444 -0.275402 0
M  V30 4019 C 383.535 4.28237 -1.59569 0
M  V30 4020 C 384.532 4.53312 -2.54566 0
M  V30 4021 C 382.217 4.66341 -1.86631 0
M  V30 4022 C 384.211 5.15531 -3.74842 0
M  V30 4023 C 381.898 5.28283 -3.0718 0
M  V30 4024 C 382.896 5.52814 -4.01106 0
M  V30 4025 O 382.584 6.13465 -5.19534 0
M  V30 4026 H 382.316 0.662026 -0.136739 0
M  V30 4027 H 384.87 1.7777 -1.02893 0
M  V30 4028 H 383.1 3.83667 0.483337 0
M  V30 4029 H 384.789 4.05701 0.127099 0
M  V30 4030 H 385.555 4.24299 -2.34936 0
M  V30 4031 H 381.434 4.46591 -1.14358 0
M  V30 4032 H 384.978 5.34594 -4.48168 0
M  V30 4033 H 380.875 5.56719 -3.26702 0
M  V30 4034 H 381.643 6.31951 -5.20173 0
M  V30 4035 N 384.306 0.507319 1.49211 0
M  V30 4036 C 385.216 -0.272136 2.33016 0
M  V30 4037 C 386.232 -0.961206 1.45041 0
M  V30 4038 O 387.408 -0.941191 1.78055 0
M  V30 4039 C 384.473 -1.31895 3.20631 0
M  V30 4040 C 383.534 -0.642648 4.24463 0
M  V30 4041 C 382.767 -1.63959 5.07891 0
M  V30 4042 O 382.99 -2.87007 4.92933 0
M  V30 4043 O 381.924 -1.19143 5.8999 0
M  V30 4044 H 385.75 0.413982 3.00865 0
M  V30 4045 H 383.335 0.268556 1.46966 0
M  V30 4046 H 385.217 -1.92446 3.7489 0
M  V30 4047 H 383.892 -1.98788 2.5547 0
M  V30 4048 H 382.799 0.00276252 3.741 0
M  V30 4049 H 384.132 -0.0160534 4.92197 0
M  V30 4050 N 385.784 -1.5574 0.241426 0
M  V30 4051 C 387.061 -1.90704 -0.434881 0
M  V30 4052 C 387.441 -1.16145 -1.76277 0
M  V30 4053 O 386.789 -0.277152 -2.26813 0
M  V30 4054 C 386.999 -3.43657 -0.608343 0
M  V30 4055 C 388.347 -4.14806 -0.906725 0
M  V30 4056 O 389.371 -3.49366 -0.694408 0
M  V30 4057 O 388.23 -5.30548 -1.31075 0
M  V30 4058 H 385.324 -0.793592 -0.23268 0
M  V30 4059 H 387.87 -1.67288 0.285086 0
M  V30 4060 H 386.642 -3.89927 0.327505 0
M  V30 4061 H 386.265 -3.72918 -1.37906 0
M  V30 4062 N 387.262 0.0317525 -1.57568 0
M  V30 4063 C 388.678 0.38735 -1.54828 0
M  V30 4064 C 388.878 1.7677 -0.967187 0
M  V30 4065 O 387.934 2.45581 -0.587063 0
M  V30 4066 C 389.247 0.291667 -2.99282 0
M  V30 4067 C 390.795 0.368946 -3.10818 0
M  V30 4068 C 391.27 0.302741 -4.56998 0
M  V30 4069 N 392.761 0.361617 -4.61786 0
M  V30 4070 C 393.496 0.333238 -5.72431 0
M  V30 4071 N 392.992 0.257308 -6.92322 0
M  V30 4072 N 394.785 0.382769 -5.60795 0
M  V30 4073 H 386.936 -0.871609 -1.93692 0
M  V30 4074 H 389.199 -0.331161 -0.888277 0
M  V30 4075 H 388.905 -0.656794 -3.45513 0
M  V30 4076 H 388.779 1.08638 -3.61217 0
M  V30 4077 H 391.166 1.30784 -2.64536 0
M  V30 4078 H 391.247 -0.455066 -2.5172 0
M  V30 4079 H 390.891 -0.632473 -5.03947 0
M  V30 4080 H 390.821 1.14482 -5.14005 0
M  V30 4081 H 393.312 0.422923 -3.75526 0
M  V30 4082 H 393.625 0.24068 -7.72425 0
M  V30 4083 H 391.97 0.223396 -6.94641 0
M  V30 4084 H 395.161 0.44006 -4.66027 0
M  V30 4085 H 395.334 0.357184 -6.47015 0
M  V30 4086 N 388.74 1.54641 0.303973 0
M  V30 4087 C 389.97 1.77511 1.05705 0
M  V30 4088 C 390.378 0.533228 1.81531 0
M  V30 4089 O 389.721 -0.506423 1.76582 0
M  V30 4090 C 389.783 2.92779 2.08617 0
M  V30 4091 C 389.447 4.30977 1.52013 0
M  V30 4092 C 390.444 5.11115 0.9517 0
M  V30 4093 C 388.129 4.77571 1.55665 0
M  V30 4094 C 390.123 6.35966 0.427327 0
M  V30 4095 C 387.81 6.02384 1.02841 0
M  V30 4096 C 388.808 6.81417 0.464713 0
M  V30 4097 O 388.496 8.03881 -0.0555283 0
M  V30 4098 H 388.228 0.59579 0.319391 0
M  V30 4099 H 390.782 2.02401 0.349712 0
M  V30 4100 H 389.012 2.63506 2.83022 0
M  V30 4101 H 390.701 3.03252 2.69802 0
M  V30 4102 H 391.467 4.76264 0.916407 0
M  V30 4103 H 387.346 4.16085 1.9848 0
M  V30 4104 H 390.89 6.97599 -0.0133062 0
M  V30 4105 H 386.787 6.36723 1.06084 0
M  V30 4106 H 387.555 8.18479 0.0580522 0
M  V30 4107 N 390.218 -0.567019 1.47046 0
M  V30 4108 C 391.446 -1.35027 1.56765 0
M  V30 4109 C 391.861 -1.8758 0.214316 0
M  V30 4110 O 391.218 -1.64471 -0.790919 0
M  V30 4111 C 391.269 -2.52698 2.58507 0
M  V30 4112 O 390.99 -2.0232 3.88585 0
M  V30 4113 C 392.491 -3.45043 2.78316 0
M  V30 4114 H 389.711 -0.41195 0.529658 0
M  V30 4115 H 392.255 -0.687832 1.92585 0
M  V30 4116 H 390.41 -3.149 2.25648 0
M  V30 4117 H 390.824 -2.79068 4.44096 0
M  V30 4118 H 392.298 -4.2405 3.53391 0
M  V30 4119 H 392.775 -3.97971 1.85784 0
M  V30 4120 H 393.381 -2.88665 3.12334 0
M  V30 4121 N 391.696 -1.35014 -0.812953 0
M  V30 4122 C 392.945 -1.27269 -1.56479 0
M  V30 4123 C 393.258 0.152771 -1.95002 0
M  V30 4124 O 394.464 0.352451 -2.69203 0
M  V30 4125 C 392.92 -2.23159 -2.82362 0
M  V30 4126 C 392.528 -3.71016 -2.511 0
M  V30 4127 C 394.272 -2.24342 -3.60376 0
M  V30 4128 C 392.179 -4.58746 -3.73237 0
M  V30 4129 H 391.109 -0.472829 -0.587324 0
M  V30 4130 H 393.76 -1.6024 -0.894171 0
M  V30 4131 H 392.142 -1.83151 -3.51101 0
M  V30 4132 H 393.316 -4.1962 -1.90409 0
M  V30 4133 H 391.631 -3.72378 -1.86343 0
M  V30 4134 H 394.228 -2.87107 -4.51081 0
M  V30 4135 H 394.571 -1.24542 -3.97234 0
M  V30 4136 H 395.104 -2.62846 -2.98591 0
M  V30 4137 H 391.843 -5.59521 -3.41492 0
M  V30 4138 H 391.363 -4.14871 -4.33176 0
M  V30 4139 H 393.042 -4.73852 -4.40537 0
M  V30 4140 N 393.175 1.03435 -1.18907 0
M  V30 4141 C 394.138 2.09756 -0.923844 0
M  V30 4142 C 395.138 1.60528 0.093416 0
M  V30 4143 O 396.328 1.73631 -0.140727 0
M  V30 4144 C 393.46 3.38692 -0.387354 0
M  V30 4145 H 394.653 2.34719 -1.86674 0
M  V30 4146 H 392.206 1.19959 -1.00197 0
M  V30 4147 H 392.941 3.19396 0.561845 0
M  V30 4148 H 392.726 3.75742 -1.12074 0
M  V30 4149 H 394.216 4.17016 -0.220694 0
M  V30 4150 N 394.653 0.992116 1.22453 0
M  V30 4151 C 395.901 0.666215 1.90804 0
M  V30 4152 C 396.222 -0.804152 1.77647 0
M  V30 4153 O 395.492 -1.57629 1.16318 0
M  V30 4154 H 394.072 0.243423 0.706225 0
M  V30 4155 H 396.734 1.25845 1.48825 0
M  V30 4156 H 395.83 0.928069 2.97982 0
M  V30 4157 N 396.131 -1.37776 0.765217 0
M  V30 4158 C 397.094 -2.28686 0.153416 0
M  V30 4159 C 398.094 -1.47727 -0.635081 0
M  V30 4160 O 399.284 -1.68027 -0.459632 0
M  V30 4161 C 396.416 -3.31608 -0.790495 0
M  V30 4162 H 397.609 -2.84297 0.954723 0
M  V30 4163 H 395.162 -1.46932 0.53299 0
M  V30 4164 H 395.897 -2.81109 -1.61705 0
M  V30 4165 H 395.682 -3.9144 -0.227348 0
M  V30 4166 H 397.172 -3.99559 -1.21419 0
M  V30 4167 N 397.609 -0.515225 -1.4894 0
M  V30 4168 C 398.839 0.0205735 -2.0659 0
M  V30 4169 C 399.247 1.30064 -1.37405 0
M  V30 4170 O 398.59 1.78087 -0.450632 0
M  V30 4171 C 398.652 0.330124 -3.57981 0
M  V30 4172 C 398.316 -0.854295 -4.48944 0
M  V30 4173 C 399.313 -1.7487 -4.89609 0
M  V30 4174 C 396.998 -1.05712 -4.9105 0
M  V30 4175 C 398.992 -2.82996 -5.71132 0
M  V30 4176 C 396.679 -2.14154 -5.72347 0
M  V30 4177 C 397.677 -3.0263 -6.12294 0
M  V30 4178 O 397.365 -4.09198 -6.91962 0
M  V30 4179 H 397.097 -0.0236833 -0.675585 0
M  V30 4180 H 399.651 -0.715956 -1.92518 0
M  V30 4181 H 397.881 1.12044 -3.70112 0
M  V30 4182 H 399.57 0.806233 -3.97812 0
M  V30 4183 H 400.336 -1.60388 -4.57712 0
M  V30 4184 H 396.215 -0.377788 -4.59449 0
M  V30 4185 H 399.759 -3.52083 -6.02232 0
M  V30 4186 H 395.656 -2.28626 -6.03656 0
M  V30 4187 H 396.424 -4.06726 -7.10293 0
M  V30 4188 N 399.087 1.5561 -0.249682 0
M  V30 4189 C 400.333 2.00044 0.367952 0
M  V30 4190 C 400.688 1.1349 1.55363 0
M  V30 4191 O 399.981 0.191079 1.90645 0
M  V30 4192 C 400.175 3.4775 0.824887 0
M  V30 4193 C 400.004 4.48596 -0.314973 0
M  V30 4194 C 398.774 4.99077 -0.790555 0
M  V30 4195 C 400.972 5.0144 -1.14291 0
M  V30 4196 N 398.954 5.83675 -1.90254 0
M  V30 4197 C 400.325 5.83236 -2.10322 0
M  V30 4198 C 402.38 4.83736 -1.17916 0
M  V30 4199 C 401.083 6.49217 -3.09692 0
M  V30 4200 C 403.109 5.50497 -2.16117 0
M  V30 4201 C 402.471 6.32084 -3.10884 0
M  V30 4202 H 398.57 0.775512 0.100522 0
M  V30 4203 H 401.154 1.91193 -0.367896 0
M  V30 4204 H 399.325 3.56994 1.53002 0
M  V30 4205 H 401.057 3.79056 1.4177 0
M  V30 4206 H 397.812 4.72119 -0.374218 0
M  V30 4207 H 398.236 6.30671 -2.46137 0
M  V30 4208 H 402.878 4.20286 -0.460352 0
M  V30 4209 H 400.596 7.11832 -3.8252 0
M  V30 4210 H 404.182 5.38752 -2.19631 0
M  V30 4211 H 403.062 6.82832 -3.8563 0
M  V30 4212 N 400.565 -0.0233959 1.57583 0
M  V30 4213 C 401.976 -0.56927 1.77809 0
M  V30 4214 C 402.327 -1.75284 0.881472 0
M  V30 4215 O 401.452 -2.1626 0.0777805 0
M  V30 4216 C 402.047 -1.03949 3.22459 0
M  V30 4217 C 400.606 -1.53084 3.43864 0
M  V30 4218 C 399.753 -0.471454 2.73263 0
M  V30 4219 H 402.704 0.202825 1.57399 0
M  V30 4220 H 402.725 -1.90661 3.29285 0
M  V30 4221 H 402.237 -0.177865 3.87692 0
M  V30 4222 H 400.338 -2.41414 2.83814 0
M  V30 4223 H 400.451 -1.57443 4.52491 0
M  V30 4224 H 398.815 -0.927788 2.37201 0
M  V30 4225 H 399.598 0.380808 3.41181 0
M  V30 4226 N 402.043 -1.548 -0.295768 0
M  V30 4227 C 403.454 -1.65274 -0.868411 0
M  V30 4228 C 403.805 -0.56481 -1.87894 0
M  V30 4229 O 402.93 0.29767 -2.14343 0
M  V30 4230 C 403.525 -2.99603 -1.58188 0
M  V30 4231 C 402.084 -3.12181 -2.10286 0
M  V30 4232 C 401.231 -2.6098 -0.93727 0
M  V30 4233 H 404.182 -1.58534 -0.0726422 0
M  V30 4234 H 404.203 -2.91319 -2.44772 0
M  V30 4235 H 403.715 -3.78764 -0.846151 0
M  V30 4236 H 401.816 -2.3775 -2.8689 0
M  V30 4237 H 401.929 -4.18415 -2.33379 0
M  V30 4238 H 400.293 -2.17564 -1.32431 0
M  V30 4239 H 401.076 -3.42623 -0.215414 0
M  V30 4240 N 403.521 0.559213 -1.47345 0
M  V30 4241 C 404.453 1.68161 -1.55738 0
M  V30 4242 C 405.466 1.56636 -0.443744 0
M  V30 4243 O 406.655 1.6363 -0.713258 0
M  V30 4244 C 403.755 3.06611 -1.4437 0
M  V30 4245 C 402.928 3.4391 -2.70268 0
M  V30 4246 C 401.987 4.61515 -2.52765 0
M  V30 4247 O 401.013 4.66197 -3.26572 0
M  V30 4248 N 402.215 5.57883 -1.6046 0
M  V30 4249 H 404.98 1.61408 -2.52522 0
M  V30 4250 H 402.541 0.7458 -1.43699 0
M  V30 4251 H 404.533 3.83117 -1.30398 0
M  V30 4252 H 403.103 3.07602 -0.556766 0
M  V30 4253 H 402.323 2.56873 -2.99015 0
M  V30 4254 H 403.611 3.65605 -3.53851 0
M  V30 4255 H 403.009 5.56855 -0.996422 0
M  V30 4256 H 401.566 6.33723 -1.52441 0
M  V30 4257 N 404.999 1.35443 0.805782 0
M  V30 4258 C 406.246 1.28761 1.56291 0
M  V30 4259 C 406.574 -0.137747 1.94012 0
M  V30 4260 O 405.829 -1.1032 1.61642 0
M  V30 4261 C 406.128 2.14045 2.86216 0
M  V30 4262 C 405.794 3.62826 2.67709 0
M  V30 4263 C 404.456 4.0338 2.6237 0
M  V30 4264 C 406.808 4.57227 2.50186 0
M  V30 4265 C 404.136 5.36501 2.37451 0
M  V30 4266 C 406.488 5.90547 2.26797 0
M  V30 4267 C 405.152 6.30245 2.1988 0
M  V30 4268 H 404.422 0.471171 0.571908 0
M  V30 4269 H 407.069 1.67347 0.930974 0
M  V30 4270 H 405.374 1.68342 3.53791 0
M  V30 4271 H 407.071 2.0621 3.43917 0
M  V30 4272 H 403.661 3.30644 2.72713 0
M  V30 4273 H 407.845 4.2678 2.53323 0
M  V30 4274 H 403.101 5.66259 2.30567 0
M  V30 4275 H 407.275 6.63274 2.12228 0
M  V30 4276 H 404.902 7.33328 2.00333 0
M  V30 4277 N 406.477 -1.02803 1.19454 0
M  V30 4278 C 407.44 -2.09264 0.934955 0
M  V30 4279 C 408.44 -1.60576 -0.0849015 0
M  V30 4280 O 409.63 -1.73554 0.149933 0
M  V30 4281 C 406.762 -3.38482 0.40531 0
M  V30 4282 H 407.955 -2.33726 1.87916 0
M  V30 4283 H 405.508 -1.19426 1.00832 0
M  V30 4284 H 406.243 -3.19689 -0.544899 0
M  V30 4285 H 406.028 -3.75142 1.14065 0
M  V30 4286 H 407.518 -4.16894 0.242806 0
M  V30 4287 N 407.956 -0.998596 -1.21925 0
M  V30 4288 C 409.205 -0.673085 -1.90138 0
M  V30 4289 C 409.518 0.79895 -1.78539 0
M  V30 4290 O 410.724 1.23628 -2.4172 0
M  V30 4291 C 409.18 -1.15339 -3.40918 0
M  V30 4292 C 408.788 -2.65106 -3.61141 0
M  V30 4293 C 410.532 -0.902476 -4.14796 0
M  V30 4294 C 408.439 -3.0671 -5.05651 0
M  V30 4295 H 407.369 -0.248057 -0.712028 0
M  V30 4296 H 410.02 -1.20891 -1.38049 0
M  V30 4297 H 408.402 -0.545658 -3.92223 0
M  V30 4298 H 409.576 -3.31274 -3.20304 0
M  V30 4299 H 407.891 -2.88142 -3.00605 0
M  V30 4300 H 410.488 -1.18895 -5.21314 0
M  V30 4301 H 410.831 0.161349 -4.15987 0
M  V30 4302 H 411.364 -1.47269 -3.69536 0
M  V30 4303 H 408.103 -4.12292 -5.09603 0
M  V30 4304 H 407.623 -2.45249 -5.47369 0
M  V30 4305 H 409.302 -2.9833 -5.74115 0
M  V30 4306 N 409.434 1.37368 -0.772513 0
M  V30 4307 C 410.367 2.27956 -0.105593 0
M  V30 4308 C 411.345 1.46362 0.708295 0
M  V30 4309 O 412.529 1.75695 0.682895 0
M  V30 4310 C 409.656 3.27687 0.856686 0
M  V30 4311 C 408.702 4.26312 0.1267 0
M  V30 4312 S 409.535 5.22206 -1.1858 0
M  V30 4313 C 410.691 6.25488 -0.227081 0
M  V30 4314 H 410.924 2.84171 -0.87372 0
M  V30 4315 H 408.457 1.43654 -0.565939 0
M  V30 4316 H 410.415 3.85653 1.40648 0
M  V30 4317 H 409.076 2.70417 1.59793 0
M  V30 4318 H 408.269 4.96674 0.856212 0
M  V30 4319 H 407.871 3.72339 -0.352117 0
M  V30 4320 H 410.163 6.74836 0.600231 0
M  V30 4321 H 411.106 7.02371 -0.898899 0
M  V30 4322 H 411.514 5.64267 0.162053 0
M  V30 4323 N 410.912 0.523116 1.48665 0
M  V30 4324 C 412.189 -0.0775449 1.95446 0
M  V30 4325 C 412.569 -1.5197 1.4652 0
M  V30 4326 O 411.917 -2.17876 0.688657 0
M  V30 4327 C 412.127 0.0326135 3.48985 0
M  V30 4328 C 413.475 -0.130141 4.24401 0
M  V30 4329 O 414.499 -0.0415142 3.56176 0
M  V30 4330 O 413.358 -0.31491 5.45592 0
M  V30 4331 H 410.452 -0.0831012 0.822814 0
M  V30 4332 H 412.998 0.587227 1.59216 0
M  V30 4333 H 411.77 1.03748 3.77296 0
M  V30 4334 H 411.393 -0.671317 3.91892 0
M  V30 4335 N 412.39 -1.55475 0.257931 0
M  V30 4336 C 413.638 -1.98813 -0.363009 0
M  V30 4337 C 413.959 -1.14757 -1.57657 0
M  V30 4338 O 413.229 -0.232956 -1.9451 0
M  V30 4339 H 411.809 -0.734308 -0.137113 0
M  V30 4340 H 414.471 -1.9156 0.359281 0
M  V30 4341 H 413.567 -3.04941 -0.664634 0
M  V30 4342 N 413.868 0.0150385 -1.57593 0
M  V30 4343 C 414.778 1.02791 -2.10882 0
M  V30 4344 C 415.794 1.38702 -1.0506 0
M  V30 4345 O 416.97 1.47739 -1.36877 0
M  V30 4346 C 414.035 2.30568 -2.58919 0
M  V30 4347 C 413.096 2.01108 -3.79281 0
M  V30 4348 C 412.329 3.22794 -4.25018 0
M  V30 4349 O 412.552 4.33959 -3.70183 0
M  V30 4350 O 411.486 3.07672 -5.17322 0
M  V30 4351 H 415.312 0.604973 -2.97613 0
M  V30 4352 H 412.897 0.23292 -1.47573 0
M  V30 4353 H 414.779 3.05662 -2.90084 0
M  V30 4354 H 413.454 2.72129 -1.75293 0
M  V30 4355 H 412.361 1.23537 -3.53114 0
M  V30 4356 H 413.694 1.64394 -4.63935 0
M  V30 4357 N 415.346 1.54954 0.287554 0
M  V30 4358 C 416.574 1.78881 1.03967 0
M  V30 4359 C 416.989 0.554894 1.80462 0
M  V30 4360 O 416.346 -0.475676 1.76192 0
M  V30 4361 C 416.397 3.00488 2.0097 0
M  V30 4362 O 416.118 4.19113 1.27577 0
M  V30 4363 C 417.619 3.36907 2.88112 0
M  V30 4364 H 414.839 0.596259 0.307761 0
M  V30 4365 H 417.383 2.01937 0.322749 0
M  V30 4366 H 415.538 2.79601 2.68145 0
M  V30 4367 H 415.952 4.87765 1.92835 0
M  V30 4368 H 417.426 4.25205 3.52001 0
M  V30 4369 H 417.903 2.55659 3.57121 0
M  V30 4370 H 418.509 3.60001 2.26449 0
M  V30 4371 N 416.824 -0.551391 1.4764 0
M  V30 4372 C 417.754 -1.66757 1.63445 0
M  V30 4373 C 418.735 -1.63077 0.483742 0
M  V30 4374 O 419.92 -1.80607 0.71377 0
M  V30 4375 C 417.05 -3.05387 1.65396 0
M  V30 4376 C 416.004 -3.23918 2.79752 0
M  V30 4377 C 415.33 -4.63393 2.66779 0
M  V30 4378 C 416.63 -3.08735 4.21284 0
M  V30 4379 H 418.324 -1.53786 2.56886 0
M  V30 4380 H 415.87 -0.738415 1.23626 0
M  V30 4381 H 417.823 -3.83325 1.75043 0
M  V30 4382 H 416.547 -3.19332 0.685195 0
M  V30 4383 H 415.206 -2.48391 2.69625 0
M  V30 4384 H 414.854 -4.74144 1.67918 0
M  V30 4385 H 414.554 -4.7674 3.43501 0
M  V30 4386 H 416.078 -5.43458 2.78364 0
M  V30 4387 H 417.492 -3.76484 4.32357 0
M  V30 4388 H 415.889 -3.33588 4.98838 0
M  V30 4389 H 416.959 -2.0541 4.39243 0
M  V30 4390 N 418.302 -1.35869 -0.798587 0
M  V30 4391 C 419.212 -1.31578 -1.94228 0
M  V30 4392 C 420.228 -0.21939 -1.72611 0
M  V30 4393 O 421.404 -0.450167 -1.96305 0
M  V30 4394 C 418.469 -1.09528 -3.28944 0
M  V30 4395 C 417.53 -2.28556 -3.63402 0
M  V30 4396 C 416.763 -2.07549 -4.9169 0
M  V30 4397 O 416.986 -1.046 -5.60727 0
M  V30 4398 O 415.92 -2.95106 -5.24591 0
M  V30 4399 H 419.746 -2.27847 -2.00796 0
M  V30 4400 H 417.331 -1.16322 -0.937526 0
M  V30 4401 H 419.213 -0.991127 -4.09579 0
M  V30 4402 H 417.888 -0.16315 -3.23289 0
M  V30 4403 H 416.795 -2.44538 -2.83112 0
M  V30 4404 H 418.128 -3.20244 -3.73771 0
M  V30 4405 N 419.78 1.02168 -1.19998 0
M  V30 4406 C 421.191 1.57135 -1.00825 0
M  V30 4407 C 421.542 1.91276 0.436818 0
M  V30 4408 O 420.667 1.71679 1.3174 0
M  V30 4409 C 421.262 2.85514 -1.82393 0
M  V30 4410 C 419.821 3.37027 -1.67601 0
M  V30 4411 C 418.968 2.10388 -1.80644 0
M  V30 4412 H 421.919 0.846106 -1.34264 0
M  V30 4413 H 421.94 3.56711 -1.32429 0
M  V30 4414 H 421.452 2.60634 -2.87561 0
M  V30 4415 H 419.553 3.66878 -0.650485 0
M  V30 4416 H 419.666 4.09572 -2.4857 0
M  V30 4417 H 418.03 2.22601 -1.23778 0
M  V30 4418 H 418.813 1.8794 -2.87286 0
M  V30 4419 N 421.258 1.00505 1.21394 0
M  V30 4420 C 422.205 0.565496 2.23765 0
M  V30 4421 C 423.175 -0.408466 1.60999 0
M  V30 4422 O 424.36 -0.310503 1.88257 0
M  V30 4423 C 421.5 -0.101667 3.4495 0
M  V30 4424 C 420.613 0.915479 4.22188 0
M  V30 4425 C 419.748 0.220574 5.30742 0
M  V30 4426 C 418.787 1.22527 5.99711 0
M  V30 4427 N 417.924 0.557831 6.9988 0
M  V30 4428 H 422.764 1.44314 2.60725 0
M  V30 4429 H 420.301 0.722643 1.28126 0
M  V30 4430 H 422.259 -0.505504 4.14126 0
M  V30 4431 H 420.889 -0.94303 3.08718 0
M  V30 4432 H 419.941 1.43756 3.52191 0
M  V30 4433 H 421.253 1.68005 4.69655 0
M  V30 4434 H 420.407 -0.239368 6.06228 0
M  V30 4435 H 419.146 -0.576401 4.84282 0
M  V30 4436 H 418.151 1.69571 5.22997 0
M  V30 4437 H 419.376 2.02332 6.48258 0
M  V30 4438 H 417.322 -0.219486 6.55633 0
M  V30 4439 H 417.239 1.26065 7.45415 0
M  V30 4440 H 418.507 0.121095 7.79406 0
M  V30 4441 N 422.737 -1.36956 0.779787 0
M  V30 4442 C 423.669 -2.28833 0.129639 0
M  V30 4443 C 424.682 -1.4902 -0.655511 0
M  V30 4444 O 425.871 -1.71578 -0.492279 0
M  V30 4445 C 422.971 -3.2833 -0.839792 0
M  V30 4446 C 422.144 -4.3727 -0.10675 0
M  V30 4447 C 421.203 -5.16789 -0.990717 0
M  V30 4448 O 420.229 -5.67406 -0.451516 0
M  V30 4449 N 421.431 -5.32294 -2.3161 0
M  V30 4450 H 424.196 -2.85268 0.918803 0
M  V30 4451 H 421.757 -1.49019 0.632841 0
M  V30 4452 H 423.749 -3.78413 -1.43477 0
M  V30 4453 H 422.319 -2.72605 -1.52988 0
M  V30 4454 H 421.539 -3.88478 0.669216 0
M  V30 4455 H 422.827 -5.07229 0.399464 0
M  V30 4456 H 422.225 -4.92768 -2.77843 0
M  V30 4457 H 420.782 -5.85656 -2.86095 0
M  V30 4458 N 424.215 -0.530993 -1.48385 0
M  V30 4459 C 425.464 0.00474348 -2.01699 0
M  V30 4460 C 425.777 1.35227 -1.41325 0
M  V30 4461 O 426.983 1.97643 -1.86144 0
M  V30 4462 C 425.439 0.0588473 -3.59852 0
M  V30 4463 C 425.047 -1.28385 -4.2921 0
M  V30 4464 C 426.791 0.543358 -4.21008 0
M  V30 4465 C 424.698 -1.19028 -5.79298 0
M  V30 4466 H 423.628 0.00554317 -0.75398 0
M  V30 4467 H 426.279 -0.674924 -1.70637 0
M  V30 4468 H 424.661 0.803612 -3.8776 0
M  V30 4469 H 425.835 -2.04426 -4.12973 0
M  V30 4470 H 424.15 -1.70418 -3.7993 0
M  V30 4471 H 426.747 0.631351 -5.3096 0
M  V30 4472 H 427.09 1.54937 -3.86394 0
M  V30 4473 H 427.623 -0.145754 -3.97533 0
M  V30 4474 H 424.362 -2.17147 -6.18488 0
M  V30 4475 H 423.882 -0.471246 -5.97946 0
M  V30 4476 H 425.561 -0.881365 -6.40969 0
M  V30 4477 N 425.693 1.55336 -0.266172 0
M  V30 4478 C 426.939 1.99692 0.353681 0
M  V30 4479 C 427.272 1.1543 1.56172 0
M  V30 4480 O 426.547 0.222218 1.93226 0
M  V30 4481 C 426.83 3.52316 0.74466 0
M  V30 4482 C 426.683 4.47337 -0.470101 0
M  V30 4483 C 428.002 4.10588 1.58447 0
M  V30 4484 H 425.121 0.725961 0.12708 0
M  V30 4485 H 427.763 1.86336 -0.371333 0
M  V30 4486 H 425.913 3.63829 1.36239 0
M  V30 4487 H 427.585 4.4778 -1.10864 0
M  V30 4488 H 425.828 4.19364 -1.10978 0
M  V30 4489 H 426.499 5.51788 -0.15291 0
M  V30 4490 H 428.975 4.02297 1.06286 0
M  V30 4491 H 427.851 5.17607 1.82686 0
M  V30 4492 H 428.112 3.60253 2.56262 0
M  V30 4493 N 427.171 -0.0066808 1.57599 0
M  V30 4494 C 428.396 -0.707738 1.94951 0
M  V30 4495 C 428.821 -1.66882 0.867868 0
M  V30 4496 O 428.179 -1.80457 -0.17458 0
M  V30 4497 C 428.227 -1.42162 3.31394 0
M  V30 4498 O 427.331 -2.53578 3.25226 0
M  V30 4499 H 426.672 -0.188752 0.636607 0
M  V30 4500 H 429.202 0.0445193 2.04552 0
M  V30 4501 H 429.212 -1.78655 3.66806 0
M  V30 4502 H 427.887 -0.716903 4.09675 0
M  V30 4503 H 426.464 -2.19463 3.01481 0
M  V30 4504 N 428.649 -1.55105 -0.279332 0
M  V30 4505 C 429.877 -1.7943 -1.03017 0
M  V30 4506 C 430.292 -0.564456 -1.80165 0
M  V30 4507 O 429.649 0.466326 -1.76442 0
M  V30 4508 C 429.7 -3.0155 -1.99374 0
M  V30 4509 O 429.421 -4.19784 -1.25352 0
M  V30 4510 C 430.922 -3.3843 -2.86321 0
M  V30 4511 H 428.142 -0.597882 -0.304594 0
M  V30 4512 H 430.686 -2.02105 -0.312035 0
M  V30 4513 H 428.841 -2.81019 -2.66659 0
M  V30 4514 H 429.255 -4.88781 -1.90246 0
M  V30 4515 H 430.729 -4.27066 -3.49741 0
M  V30 4516 H 431.206 -2.57549 -3.5576 0
M  V30 4517 H 431.812 -3.61197 -2.24536 0
M  V30 4518 N 430.127 0.543554 -1.4793 0
M  V30 4519 C 431.543 0.870806 -1.3375 0
M  V30 4520 C 431.743 1.9864 -0.338261 0
M  V30 4521 O 430.799 2.51305 0.245371 0
M  V30 4522 C 432.112 1.25114 -2.73435 0
M  V30 4523 C 433.66 1.3618 -2.81823 0
M  V30 4524 C 434.135 1.77563 -4.22179 0
M  V30 4525 N 435.626 1.8469 -4.24787 0
M  V30 4526 C 436.361 2.18067 -5.30315 0
M  V30 4527 N 435.857 2.49963 -6.46135 0
M  V30 4528 N 437.65 2.18958 -5.17701 0
M  V30 4529 H 429.801 -0.19275 -2.11524 0
M  V30 4530 H 432.064 -0.0235777 -0.947707 0
M  V30 4531 H 431.77 0.50514 -3.48053 0
M  V30 4532 H 431.644 2.20431 -3.06088 0
M  V30 4533 H 434.031 2.09859 -2.07468 0
M  V30 4534 H 434.112 0.390169 -2.52807 0
M  V30 4535 H 433.756 1.04449 -4.97044 0
M  V30 4536 H 433.686 2.75753 -4.48629 0
M  V30 4537 H 436.177 1.62372 -3.41239 0
M  V30 4538 H 436.49 2.74497 -7.22406 0
M  V30 4539 H 434.835 2.47513 -6.49432 0
M  V30 4540 H 438.026 1.93488 -4.2624 0
M  V30 4541 H 438.199 2.44639 -6.00047 0
M  V30 4542 N 431.605 1.3629 0.791371 0
M  V30 4543 C 432.853 1.30154 1.5461 0
M  V30 4544 C 433.174 -0.119409 1.94634 0
M  V30 4545 O 432.444 -1.05924 1.64794 0
M  V30 4546 H 431.024 0.478784 0.573389 0
M  V30 4547 H 433.686 1.70565 0.94306 0
M  V30 4548 H 432.782 1.92762 2.45457 0
M  V30 4549 N 433.083 -1.0153 1.20538 0
M  V30 4550 C 434.016 -2.09759 0.898695 0
M  V30 4551 C 434.994 -1.61909 -0.149733 0
M  V30 4552 O 436.178 -1.88486 -0.0230293 0
M  V30 4553 C 433.305 -3.36913 0.347512 0
M  V30 4554 C 432.351 -4.03655 1.37713 0
M  V30 4555 S 433.184 -4.47402 2.94265 0
M  V30 4556 C 434.34 -5.77756 2.40726 0
M  V30 4557 H 434.573 -2.3545 1.81523 0
M  V30 4558 H 432.106 -1.14665 1.03399 0
M  V30 4559 H 434.064 -4.10484 0.0360518 0
M  V30 4560 H 432.725 -3.09291 -0.547546 0
M  V30 4561 H 431.918 -4.9514 0.940872 0
M  V30 4562 H 431.52 -3.36313 1.63614 0
M  V30 4563 H 433.812 -6.52994 1.80569 0
M  V30 4564 H 434.755 -6.2618 3.30612 0
M  V30 4565 H 435.163 -5.34081 1.82806 0
M  V30 4566 N 434.561 -1.01147 -1.20859 0
M  V30 4567 C 435.789 -0.716911 -1.94082 0
M  V30 4568 C 436.204 0.721568 -1.74467 0
M  V30 4569 O 435.561 1.48889 -1.05539 0
M  V30 4570 C 435.612 -1.03662 -3.46318 0
M  V30 4571 O 435.333 -2.4186 -3.65288 0
M  V30 4572 C 436.834 -0.762386 -4.36695 0
M  V30 4573 H 434.054 -0.26367 -0.617024 0
M  V30 4574 H 436.598 -1.35127 -1.53496 0
M  V30 4575 H 434.753 -0.447757 -3.84804 0
M  V30 4576 H 435.167 -2.53224 -4.59323 0
M  V30 4577 H 436.641 -1.03621 -5.42187 0
M  V30 4578 H 437.118 0.303514 -4.3815 0
M  V30 4579 H 437.724 -1.33316 -4.03865 0
M  V30 4580 N 436.039 1.36541 -0.78704 0
M  V30 4581 C 437.285 1.99599 -0.358872 0
M  V30 4582 C 437.618 1.62323 1.06606 0
M  V30 4583 O 436.893 0.876858 1.73613 0
M  V30 4584 C 437.176 3.56327 -0.519944 0
M  V30 4585 C 437.029 4.03464 -1.98839 0
M  V30 4586 C 438.348 4.4005 0.0664737 0
M  V30 4587 H 435.467 0.725107 -0.131869 0
M  V30 4588 H 438.109 1.6199 -0.992936 0
M  V30 4589 H 436.259 3.88495 0.0198321 0
M  V30 4590 H 437.931 3.81793 -2.58905 0
M  V30 4591 H 436.174 3.55092 -2.49183 0
M  V30 4592 H 436.845 5.12439 -2.05207 0
M  V30 4593 H 439.321 4.14228 -0.394267 0
M  V30 4594 H 438.197 5.48847 -0.0762682 0
M  V30 4595 H 438.458 4.26655 1.15835 0
M  V30 4596 N 437.518 0.538854 1.48102 0
M  V30 4597 C 438.795 -0.0568108 1.95517 0
M  V30 4598 C 439.175 -1.50408 1.48124 0
M  V30 4599 O 438.523 -2.17133 0.711727 0
M  V30 4600 C 438.733 0.0696262 3.48931 0
M  V30 4601 C 440.081 -0.0851202 4.24515 0
M  V30 4602 O 441.105 -0.0037347 3.562 0
M  V30 4603 O 439.964 -0.257025 5.45895 0
M  V30 4604 H 437.058 -0.0743695 0.823649 0
M  V30 4605 H 439.604 0.604081 1.58584 0
M  V30 4606 H 438.376 1.07744 3.76174 0
M  V30 4607 H 437.999 -0.629714 3.92582 0
M  V30 4608 N 438.996 -1.55193 0.274407 0
M  V30 4609 C 440.224 -2.03987 -0.345943 0
M  V30 4610 C 440.639 -1.15279 -1.4952 0
M  V30 4611 O 439.996 -0.172759 -1.8168 0
M  V30 4612 C 440.047 -3.51898 -0.827631 0
M  V30 4613 O 439.768 -4.37231 0.275855 0
M  V30 4614 C 441.269 -4.16577 -1.51587 0
M  V30 4615 H 438.489 -0.666335 -0.0789892 0
M  V30 4616 H 441.033 -2.00423 0.406294 0
M  V30 4617 H 439.188 -3.55909 -1.52996 0
M  V30 4618 H 439.602 -5.24415 -0.0943638 0
M  V30 4619 H 441.076 -5.21678 -1.80433 0
M  V30 4620 H 441.553 -3.64707 -2.44716 0
M  V30 4621 H 442.159 -4.16568 -0.857409 0
M  V30 4622 N 440.474 -0.00167713 -1.576 0
M  V30 4623 C 441.406 1.0174 -2.05382 0
M  V30 4624 C 442.419 1.30595 -0.972052 0
M  V30 4625 O 443.608 1.27542 -1.24882 0
M  V30 4626 C 440.708 2.35174 -2.44022 0
M  V30 4627 C 439.881 2.25234 -3.74951 0
M  V30 4628 C 438.94 3.4137 -4.00441 0
M  V30 4629 O 437.966 3.19483 -4.71083 0
M  V30 4630 N 439.168 4.64275 -3.48467 0
M  V30 4631 H 441.933 0.609902 -2.93428 0
M  V30 4632 H 439.494 0.185672 -1.60832 0
M  V30 4633 H 441.486 3.11643 -2.58187 0
M  V30 4634 H 440.056 2.67659 -1.61485 0
M  V30 4635 H 439.276 1.33664 -3.70847 0
M  V30 4636 H 440.564 2.15767 -4.60784 0
M  V30 4637 H 439.962 4.84955 -2.91264 0
M  V30 4638 H 438.519 5.38005 -3.67959 0
M  V30 4639 N 441.952 1.55251 0.271103 0
M  V30 4640 C 443.18 1.79974 1.02064 0
M  V30 4641 C 443.595 0.574003 1.79863 0
M  V30 4642 O 442.952 -0.456962 1.76686 0
M  V30 4643 C 443.003 3.02603 1.97772 0
M  V30 4644 O 442.724 4.20443 1.23124 0
M  V30 4645 C 444.225 3.39944 2.84522 0
M  V30 4646 H 441.445 0.599489 0.301419 0
M  V30 4647 H 443.989 2.02268 0.301313 0
M  V30 4648 H 442.144 2.8243 2.65165 0
M  V30 4649 H 442.558 4.89783 1.87651 0
M  V30 4650 H 444.032 4.28915 3.47471 0
M  V30 4651 H 444.509 2.59432 3.54389 0
M  V30 4652 H 445.115 3.62383 2.22618 0
M  V30 4653 N 443.43 -0.535701 1.48216 0
M  V30 4654 C 444.66 -1.3148 1.59363 0
M  V30 4655 C 445.068 -1.8753 0.250844 0
M  V30 4656 O 444.411 -1.66821 -0.769174 0
M  V30 4657 C 444.473 -2.50731 2.57632 0
M  V30 4658 C 444.137 -2.15811 4.02833 0
M  V30 4659 C 445.134 -1.71822 4.90686 0
M  V30 4660 C 442.819 -2.26509 4.48329 0
M  V30 4661 C 444.813 -1.3899 6.22062 0
M  V30 4662 C 442.5 -1.93289 5.79726 0
M  V30 4663 C 443.498 -1.49599 6.66415 0
M  V30 4664 O 443.186 -1.16812 7.95368 0
M  V30 4665 H 442.918 -0.406315 0.540263 0
M  V30 4666 H 445.472 -0.653569 1.94725 0
M  V30 4667 H 443.702 -3.19817 2.1738 0
M  V30 4668 H 445.391 -3.12797 2.58675 0
M  V30 4669 H 446.157 -1.63031 4.56778 0
M  V30 4670 H 442.036 -2.59471 3.81045 0
M  V30 4671 H 445.58 -1.04816 6.89681 0
M  V30 4672 H 441.477 -2.01718 6.13172 0
M  V30 4673 H 442.245 -1.30259 8.08069 0
M  V30 4674 N 444.908 -1.36708 -0.784132 0
M  V30 4675 C 445.858 -1.2799 -1.88686 0
M  V30 4676 C 446.842 -0.170282 -1.59996 0
M  V30 4677 O 448.034 -0.403571 -1.72338 0
M  V30 4678 C 445.163 -1.07674 -3.25977 0
M  V30 4679 C 444.249 -2.23127 -3.60659 0
M  V30 4680 N 444.64 -3.48467 -3.66612 0
M  V30 4681 C 442.938 -2.15009 -3.90752 0
M  V30 4682 C 443.639 -4.24525 -3.97685 0
M  V30 4683 N 442.615 -3.53524 -4.12943 0
M  V30 4684 H 446.417 -2.22927 -1.91522 0
M  V30 4685 H 443.931 -1.29503 -0.979933 0
M  V30 4686 H 445.928 -0.995151 -4.04849 0
M  V30 4687 H 444.588 -0.13643 -3.24413 0
M  V30 4688 H 445.599 -3.82534 -3.49125 0
M  V30 4689 H 442.276 -1.28963 -3.97083 0
M  V30 4690 H 443.666 -5.32944 -4.0917 0
M  V30 4691 N 446.386 1.0089 -1.21074 0
M  V30 4692 C 447.797 1.56056 -1.02486 0
M  V30 4693 C 448.148 1.91728 0.416506 0
M  V30 4694 O 447.273 1.73066 1.29912 0
M  V30 4695 C 447.868 2.83563 -1.85411 0
M  V30 4696 C 446.427 3.3523 -1.71166 0
M  V30 4697 C 445.574 2.0846 -1.82865 0
M  V30 4698 H 448.525 0.831818 -1.35154 0
M  V30 4699 H 448.546 3.55286 -1.36205 0
M  V30 4700 H 448.058 2.57569 -2.9031 0
M  V30 4701 H 446.159 3.66167 -0.689361 0
M  V30 4702 H 446.272 4.06913 -2.52901 0
M  V30 4703 H 444.636 2.21275 -1.26132 0
M  V30 4704 H 445.419 1.84883 -2.89263 0
M  V30 4705 N 447.864 1.01787 1.20321 0
M  V30 4706 C 448.774 0.598898 2.26827 0
M  V30 4707 C 449.79 -0.36418 1.70146 0
M  V30 4708 O 450.966 -0.224812 2.00141 0
M  V30 4709 C 448.031 -0.0549769 3.46656 0
M  V30 4710 C 447.092 0.954205 4.18561 0
M  V30 4711 C 446.325 0.331439 5.3267 0
M  V30 4712 O 446.548 -0.86851 5.63749 0
M  V30 4713 O 445.482 1.0488 5.92692 0
M  V30 4714 H 449.308 1.48562 2.64883 0
M  V30 4715 H 446.893 0.787434 1.26964 0
M  V30 4716 H 448.775 -0.420102 4.19301 0
M  V30 4717 H 447.45 -0.915876 3.10473 0
M  V30 4718 H 446.357 1.37072 3.48083 0
M  V30 4719 H 447.69 1.78511 4.58688 0
M  V30 4720 N 449.342 -1.36122 0.79427 0
M  V30 4721 C 450.753 -1.81646 0.431446 0
M  V30 4722 C 451.104 -1.66043 -1.04518 0
M  V30 4723 O 450.229 -1.1841 -1.8113 0
M  V30 4724 C 450.824 -3.29785 0.776341 0
M  V30 4725 C 449.383 -3.73501 0.466282 0
M  V30 4726 C 448.53 -2.58313 1.00844 0
M  V30 4727 H 451.481 -1.24274 0.986995 0
M  V30 4728 H 451.502 -3.80437 0.0692413 0
M  V30 4729 H 451.014 -3.4111 1.8511 0
M  V30 4730 H 449.115 -3.67733 -0.600245 0
M  V30 4731 H 449.228 -4.68754 0.990288 0
M  V30 4732 H 447.592 -2.5102 0.431406 0
M  V30 4733 H 448.375 -2.72421 2.08906 0
M  V30 4734 N 450.82 -0.546701 -1.47814 0
M  V30 4735 C 452.236 -0.205717 -1.58269 0
M  V30 4736 C 452.436 1.29153 -1.54667 0
M  V30 4737 O 451.492 2.07098 -1.44453 0
M  V30 4738 C 452.805 -0.823065 -2.89216 0
M  V30 4739 C 454.353 -0.793328 -3.02779 0
M  V30 4740 C 454.828 -1.38955 -4.36412 0
M  V30 4741 N 456.319 -1.35227 -4.43021 0
M  V30 4742 C 457.054 -1.78333 -5.44963 0
M  V30 4743 N 456.55 -2.29246 -6.53772 0
M  V30 4744 N 458.343 -1.69467 -5.35945 0
M  V30 4745 H 450.494 -1.5196 -1.48398 0
M  V30 4746 H 452.757 -0.633078 -0.705632 0
M  V30 4747 H 452.463 -1.8749 -2.97558 0
M  V30 4748 H 452.337 -0.309915 -3.75925 0
M  V30 4749 H 454.724 0.249784 -2.94041 0
M  V30 4750 H 454.805 -1.34412 -2.17639 0
M  V30 4751 H 454.449 -2.43168 -4.45906 0
M  V30 4752 H 454.379 -0.814291 -5.20266 0
M  V30 4753 H 456.87 -0.979739 -3.64979 0
M  V30 4754 H 457.183 -2.60089 -7.27718 0
M  V30 4755 H 455.528 -2.3325 -6.5469 0
M  V30 4756 H 458.719 -1.29477 -4.49837 0
M  V30 4757 H 458.892 -2.03381 -6.15256 0
M  V30 4758 N 452.299 1.55045 -0.282633 0
M  V30 4759 C 453.545 2.00056 0.332481 0
M  V30 4760 C 453.878 1.1708 1.54939 0
M  V30 4761 O 453.153 0.2427 1.9298 0
M  V30 4762 C 453.436 3.53086 0.70725 0
M  V30 4763 C 453.289 4.46813 -0.517521 0
M  V30 4764 C 454.608 4.12245 1.54084 0
M  V30 4765 H 451.727 0.727268 0.119373 0
M  V30 4766 H 454.369 1.85932 -0.391076 0
M  V30 4767 H 452.519 3.65253 1.32372 0
M  V30 4768 H 454.191 4.46579 -1.15607 0
M  V30 4769 H 452.434 4.18163 -1.1542 0
M  V30 4770 H 453.105 5.51595 -0.211426 0
M  V30 4771 H 455.581 4.03401 1.02013 0
M  V30 4772 H 454.457 5.19515 1.77186 0
M  V30 4773 H 454.718 3.62951 2.52427 0
M  V30 4774 N 453.777 0.010035 1.57597 0
M  V30 4775 C 454.74 -0.963029 2.07986 0
M  V30 4776 C 455.74 -1.26619 0.991173 0
M  V30 4777 O 456.93 -1.2097 1.25347 0
M  V30 4778 C 454.062 -2.2851 2.52974 0
M  V30 4779 H 455.255 -0.526971 2.95234 0
M  V30 4780 H 452.808 -0.237639 1.54483 0
M  V30 4781 H 453.543 -2.76784 1.69 0
M  V30 4782 H 453.328 -2.07824 3.32493 0
M  V30 4783 H 454.818 -2.98294 2.9225 0
M  V30 4784 N 455.255 -1.55392 -0.262866 0
M  V30 4785 C 456.218 -1.88181 -1.30846 0
M  V30 4786 C 457.218 -0.757079 -1.41862 0
M  V30 4787 O 458.408 -1.02519 -1.40838 0
M  V30 4788 C 455.54 -2.09609 -2.68844 0
M  V30 4789 H 456.733 -2.81659 -1.02997 0
M  V30 4790 H 454.286 -1.48039 -0.501414 0
M  V30 4791 H 455.021 -1.18547 -3.01856 0
M  V30 4792 H 454.806 -2.91508 -2.62231 0
M  V30 4793 H 456.296 -2.36215 -3.44372 0
M  V30 4794 N 456.733 0.527833 -1.48498 0
M  V30 4795 C 457.982 1.28003 -1.55878 0
M  V30 4796 C 458.295 1.9414 -0.238577 0
M  V30 4797 O 459.501 2.7083 -0.190643 0
M  V30 4798 C 457.957 2.32272 -2.74914 0
M  V30 4799 C 457.565 1.72196 -4.13585 0
M  V30 4800 C 459.309 3.08488 -2.91608 0
M  V30 4801 C 457.216 2.74417 -5.23879 0
M  V30 4802 H 456.146 0.481413 -0.580308 0
M  V30 4803 H 458.797 0.557195 -1.74836 0
M  V30 4804 H 457.179 3.07601 -2.49395 0
M  V30 4805 H 458.353 1.03041 -4.49132 0
M  V30 4806 H 456.668 1.08464 -4.02025 0
M  V30 4807 H 459.265 3.84879 -3.71177 0
M  V30 4808 H 459.608 3.64481 -2.01145 0
M  V30 4809 H 460.141 2.40274 -3.17038 0
M  V30 4810 H 456.88 2.23242 -6.16314 0
M  V30 4811 H 456.4 3.41893 -4.92818 0
M  V30 4812 H 458.079 3.37362 -5.52083 0
M  V30 4813 N 458.211 1.37122 0.776871 0
M  V30 4814 C 459.46 1.31373 1.53049 0
M  V30 4815 C 459.773 -0.101016 1.95339 0
M  V30 4816 O 460.979 -0.280953 2.70042 0
M  V30 4817 C 459.435 2.30567 2.76346 0
M  V30 4818 C 459.043 3.77543 2.41175 0
M  V30 4819 C 460.787 2.33818 3.54301 0
M  V30 4820 C 458.694 4.68481 3.60943 0
M  V30 4821 H 457.624 0.488234 0.574581 0
M  V30 4822 H 460.275 1.62554 0.851372 0
M  V30 4823 H 458.657 1.92396 3.46121 0
M  V30 4824 H 459.831 4.24521 1.79216 0
M  V30 4825 H 458.146 3.77187 1.76405 0
M  V30 4826 H 460.743 2.98965 4.4331 0
M  V30 4827 H 461.086 1.3503 3.93793 0
M  V30 4828 H 461.619 2.7067 2.91518 0
M  V30 4829 H 458.358 5.68378 3.26537 0
M  V30 4830 H 457.878 4.2621 4.22025 0
M  V30 4831 H 459.557 4.85366 4.27819 0
M  V30 4832 N 459.689 -1.00246 1.21608 0
M  V30 4833 C 460.652 -2.07233 0.979133 0
M  V30 4834 C 461.652 -1.6072 -0.0508219 0
M  V30 4835 O 462.842 -1.73196 0.186712 0
M  V30 4836 C 459.974 -3.37546 0.477016 0
M  V30 4837 H 461.167 -2.29687 1.92831 0
M  V30 4838 H 458.72 -1.17261 1.03342 0
M  V30 4839 H 459.455 -3.20773 -0.476966 0
M  V30 4840 H 459.24 -3.72638 1.21997 0
M  V30 4841 H 460.73 -4.16285 0.331181 0
M  V30 4842 N 461.167 -1.02423 -1.1978 0
M  V30 4843 C 462.392 -0.7373 -1.93852 0
M  V30 4844 C 462.817 0.696923 -1.74713 0
M  V30 4845 O 462.175 1.48056 -1.04638 0
M  V30 4846 C 462.223 -1.08783 -3.438 0
M  V30 4847 O 461.327 -0.20383 -4.11896 0
M  V30 4848 H 460.668 -0.27284 -0.605355 0
M  V30 4849 H 463.198 -1.36966 -1.51992 0
M  V30 4850 H 463.208 -1.04276 -3.9445 0
M  V30 4851 H 461.883 -2.13274 -3.57053 0
M  V30 4852 H 460.46 -0.307091 -3.71633 0
M  V30 4853 N 462.645 1.35699 -0.801477 0
M  V30 4854 C 463.595 2.2728 -0.181073 0
M  V30 4855 C 464.579 1.47533 0.642098 0
M  V30 4856 O 465.771 1.69785 0.500193 0
M  V30 4857 C 462.9 3.36626 0.673612 0
M  V30 4858 C 461.986 4.23802 -0.159008 0
M  V30 4859 N 462.377 4.90879 -1.2195 0
M  V30 4860 C 460.675 4.45959 0.0602005 0
M  V30 4861 C 461.376 5.5546 -1.72738 0
M  V30 4862 N 460.352 5.33663 -1.03465 0
M  V30 4863 H 464.154 2.76632 -0.992582 0
M  V30 4864 H 461.668 1.49166 -0.642127 0
M  V30 4865 H 463.665 4.01179 1.13408 0
M  V30 4866 H 462.325 2.88828 1.48353 0
M  V30 4867 H 463.336 4.92497 -1.60209 0
M  V30 4868 H 460.013 4.08969 0.839664 0
M  V30 4869 H 461.403 6.18991 -2.61342 0
M  V30 4870 N 464.123 0.554532 1.47522 0
M  V30 4871 C 465.033 -0.197865 2.33764 0
M  V30 4872 C 466.049 -0.914576 1.48025 0
M  V30 4873 O 467.225 -0.884067 1.80959 0
M  V30 4874 C 464.29 -1.21628 3.24665 0
M  V30 4875 C 463.351 -0.507283 4.26292 0
M  V30 4876 C 462.584 -1.47718 5.1285 0
M  V30 4877 O 462.807 -2.7118 5.01814 0
M  V30 4878 O 461.741 -1.00313 5.93482 0
M  V30 4879 H 465.567 0.50949 2.99396 0
M  V30 4880 H 463.152 0.315176 1.46038 0
M  V30 4881 H 465.034 -1.80421 3.80823 0
M  V30 4882 H 463.709 -1.9056 2.61665 0
M  V30 4883 H 462.616 0.121778 3.73902 0
M  V30 4884 H 463.949 0.140544 4.91999 0
M  V30 4885 N 465.601 -1.54893 0.290851 0
M  V30 4886 C 466.551 -2.19838 -0.604599 0
M  V30 4887 C 467.535 -1.16805 -1.10659 0
M  V30 4888 O 468.727 -1.42562 -1.04905 0
M  V30 4889 C 465.856 -2.93497 -1.78086 0
M  V30 4890 C 464.942 -4.03835 -1.29531 0
M  V30 4891 N 465.333 -5.03047 -0.527024 0
M  V30 4892 C 463.631 -4.17192 -1.57693 0
M  V30 4893 C 464.332 -5.81074 -0.269728 0
M  V30 4894 N 463.308 -5.36966 -0.846651 0
M  V30 4895 H 467.11 -2.93898 -0.00995032 0
M  V30 4896 H 464.624 -1.62121 0.0951353 0
M  V30 4897 H 466.621 -3.38484 -2.43381 0
M  V30 4898 H 465.281 -2.2095 -2.37931 0
M  V30 4899 H 466.292 -5.17611 -0.172872 0
M  V30 4900 H 462.969 -3.55845 -2.18359 0
M  V30 4901 H 464.359 -6.71005 0.346643 0
M  V30 4902 N 467.08 -0.0183926 -1.57589 0
M  V30 4903 C 468.491 0.521927 -1.79256 0
M  V30 4904 C 468.842 1.72885 -0.927636 0
M  V30 4905 O 467.967 2.15978 -0.135091 0
M  V30 4906 C 468.562 0.953632 -3.25102 0
M  V30 4907 C 467.121 1.43913 -3.47801 0
M  V30 4908 C 466.268 0.398837 -2.74417 0
M  V30 4909 H 469.219 -0.244485 -1.56805 0
M  V30 4910 H 469.24 1.81863 -3.34224 0
M  V30 4911 H 468.752 0.0750123 -3.88028 0
M  V30 4912 H 466.853 2.33804 -2.90115 0
M  V30 4913 H 466.966 1.45391 -4.56507 0
M  V30 4914 H 465.33 0.864572 -2.39577 0
M  V30 4915 H 466.113 -0.471132 -3.40052 0
M  V30 4916 N 468.558 1.5553 0.254621 0
M  V30 4917 C 469.468 1.92789 1.33677 0
M  V30 4918 C 470.484 0.827356 1.53071 0
M  V30 4919 O 471.66 1.12807 1.66843 0
M  V30 4920 C 468.725 2.20827 2.67275 0
M  V30 4921 C 467.786 3.4427 2.5647 0
M  V30 4922 C 467.019 3.70961 3.83697 0
M  V30 4923 O 467.242 2.99852 4.85227 0
M  V30 4924 O 466.176 4.64491 3.82794 0
M  V30 4925 H 470.002 2.84945 1.05071 0
M  V30 4926 H 467.587 1.42312 0.454723 0
M  V30 4927 H 469.469 2.40204 3.46237 0
M  V30 4928 H 468.144 1.31851 2.9563 0
M  V30 4929 H 467.051 3.30209 1.75821 0
M  V30 4930 H 468.384 4.33524 2.33062 0
M  V30 4931 N 470.036 -0.519951 1.48776 0
M  V30 4932 C 471.283 -1.27522 1.57303 0
M  V30 4933 C 471.611 -1.92869 0.251328 0
M  V30 4934 O 470.866 -1.80372 -0.759243 0
M  V30 4935 C 471.165 -2.37864 2.6675 0
M  V30 4936 C 470.831 -1.90103 4.08867 0
M  V30 4937 C 469.493 -1.76795 4.47546 0
M  V30 4938 C 471.845 -1.54133 4.97888 0
M  V30 4939 C 469.173 -1.25868 5.73039 0
M  V30 4940 C 471.525 -1.04665 6.23881 0
M  V30 4941 C 470.189 -0.899823 6.61407 0
M  V30 4942 H 469.459 -0.466636 0.575614 0
M  V30 4943 H 472.106 -0.579109 1.82534 0
M  V30 4944 H 470.411 -3.13186 2.35418 0
M  V30 4945 H 472.108 -2.95969 2.70561 0
M  V30 4946 H 468.698 -2.01414 3.78326 0
M  V30 4947 H 472.882 -1.6327 4.68675 0
M  V30 4948 H 468.138 -1.13196 6.0083 0
M  V30 4949 H 472.312 -0.759074 6.92251 0
M  V30 4950 H 469.939 -0.503011 7.58534 0
M  V30 4951 N 471.514 -1.37532 -0.769588 0
M  V30 4952 C 472.763 -1.32183 -1.5235 0
M  V30 4953 C 473.076 0.0906555 -1.9539 0
M  V30 4954 O 474.282 0.266628 -2.70188 0
M  V30 4955 C 472.738 -2.32029 -2.75119 0
M  V30 4956 C 472.346 -3.78816 -2.3917 0
M  V30 4957 C 474.09 -2.35694 -3.53056 0
M  V30 4958 C 471.997 -4.70388 -3.58453 0
M  V30 4959 H 470.927 -0.491275 -0.571984 0
M  V30 4960 H 473.578 -1.63004 -0.842739 0
M  V30 4961 H 471.96 -1.94229 -3.45096 0
M  V30 4962 H 473.134 -4.25466 -1.76962 0
M  V30 4963 H 471.449 -3.78117 -1.74402 0
M  V30 4964 H 474.046 -3.01312 -4.41718 0
M  V30 4965 H 474.389 -1.37117 -3.93071 0
M  V30 4966 H 474.922 -2.72212 -2.90078 0
M  V30 4967 H 471.661 -5.70102 -3.23518 0
M  V30 4968 H 471.181 -4.28442 -4.19758 0
M  V30 4969 H 472.86 -4.87628 -4.25239 0
M  V30 4970 N 472.992 0.995999 -1.22138 0
M  V30 4971 C 474.238 1.73767 -1.04561 0
M  V30 4972 C 474.571 1.89633 0.418698 0
M  V30 4973 O 473.846 1.43723 1.3105 0
M  V30 4974 C 474.129 3.14505 -1.75382 0
M  V30 4975 C 473.982 3.06306 -3.29388 0
M  V30 4976 C 475.301 4.13615 -1.50369 0
M  V30 4977 H 472.42 0.630728 -0.38125 0
M  V30 4978 H 475.062 1.16057 -1.50435 0
M  V30 4979 H 473.212 3.63775 -1.36383 0
M  V30 4980 H 474.884 2.64681 -3.77812 0
M  V30 4981 H 473.127 2.43186 -3.59226 0
M  V30 4982 H 473.798 4.05884 -3.74116 0
M  V30 4983 H 476.274 3.73089 -1.84239 0
M  V30 4984 H 475.15 5.10212 -2.02421 0
M  V30 4985 H 475.411 4.39949 -0.435611 0
M  V30 4986 N 474.47 1.03057 1.19235 0
M  V30 4987 C 475.418 0.606391 2.24557 0
M  V30 4988 C 476.412 -0.361826 1.65491 0
M  V30 4989 O 477.618 -0.23022 1.78522 0
M  V30 4990 H 473.993 0.177838 0.730669 0
M  V30 4991 H 475.964 1.50529 2.5765 0
M  V30 4992 C 474.713 -0.0252127 3.47691 0
M  V30 4993 H 474.036 0.710838 3.9343 0
M  V30 4994 H 475.476 -0.284931 4.23042 0
M  V30 4995 C 473.935 -1.27229 3.11953 0
M  V30 4996 O 474.465 -2.36416 3.24762 0
M  V30 4997 N 472.671 -1.16169 2.6637 0
M  V30 4998 H 472.218 -0.273189 2.56147 0
M  V30 4999 H 472.176 -1.99703 2.42829 0
M  V30 5000 N 475.948 -1.35272 0.808662 0
M  V30 5001 C 477.194 -1.99003 0.390581 0
M  V30 5002 C 477.527 -1.63999 -1.0401 0
M  V30 5003 O 476.802 -0.904368 -1.72196 0
M  V30 5004 C 477.085 -3.55454 0.576566 0
M  V30 5005 C 476.938 -4.00249 2.05233 0
M  V30 5006 C 478.257 -4.401 0.00354277 0
M  V30 5007 H 475.376 -0.722917 0.143388 0
M  V30 5008 H 478.018 -1.6039 1.01858 0
M  V30 5009 H 476.168 -3.88477 0.0419766 0
M  V30 5010 H 477.84 -3.77626 2.64946 0
M  V30 5011 H 476.083 -3.51082 2.54801 0
M  V30 5012 H 476.754 -5.0911 2.13333 0
M  V30 5013 H 479.23 -4.13548 0.460117 0
M  V30 5014 H 478.106 -5.48656 0.163575 0
M  V30 5015 H 478.367 -4.28444 -1.09032 0
M  V30 5016 N 477.426 -0.562348 -1.47226 0
M  V30 5017 C 478.373 0.182461 -2.30078 0
M  V30 5018 C 479.343 0.903503 -1.39377 0
M  V30 5019 O 480.528 0.898188 -1.68337 0
M  V30 5020 C 477.668 1.20322 -3.23445 0
M  V30 5021 C 476.781 0.487717 -4.29238 0
M  V30 5022 C 475.916 1.49422 -5.09752 0
M  V30 5023 C 474.955 0.763976 -6.07314 0
M  V30 5024 N 474.092 1.71755 -6.80768 0
M  V30 5025 H 478.932 -0.530169 -2.93246 0
M  V30 5026 H 476.469 -0.273276 -1.44539 0
M  V30 5027 H 478.427 1.80768 -3.76004 0
M  V30 5028 H 477.057 1.88382 -2.6213 0
M  V30 5029 H 476.109 -0.231374 -3.79696 0
M  V30 5030 H 477.421 -0.0841003 -4.98729 0
M  V30 5031 H 476.575 2.17206 -5.66486 0
M  V30 5032 H 475.314 2.09995 -4.40174 0
M  V30 5033 H 474.319 0.0722344 -5.49753 0
M  V30 5034 H 475.544 0.16391 -6.78902 0
M  V30 5035 H 473.49 2.31177 -6.13916 0
M  V30 5036 H 473.407 1.19802 -7.46447 0
M  V30 5037 H 474.675 2.38638 -7.42073 0
M  V30 5038 N 478.904 1.54736 -0.299062 0
M  V30 5039 C 479.814 2.27127 0.587413 0
M  V30 5040 C 480.83 1.30575 1.15005 0
M  V30 5041 O 482.006 1.63554 1.17525 0
M  V30 5042 C 479.071 2.99645 1.74395 0
M  V30 5043 C 478.132 4.11731 1.21559 0
M  V30 5044 C 477.365 4.80781 2.317 0
M  V30 5045 O 477.588 4.4918 3.51558 0
M  V30 5046 O 476.522 5.68226 1.98501 0
M  V30 5047 H 480.348 3.037 0.000250109 0
M  V30 5048 H 477.933 1.49256 -0.0655919 0
M  V30 5049 H 479.815 3.45138 2.4178 0
M  V30 5050 H 478.49 2.25969 2.31775 0
M  V30 5051 H 477.397 3.70641 0.507514 0
M  V30 5052 H 478.73 4.87379 0.687233 0
M  V30 5053 N 480.382 0.0267497 1.57577 0
M  V30 5054 C 481.61 -0.662661 1.96001 0
M  V30 5055 C 482.025 -1.65799 0.903117 0
M  V30 5056 O 481.382 -1.82135 -0.115317 0
M  V30 5057 C 481.433 -1.37112 3.34488 0
M  V30 5058 O 481.154 -0.415683 4.36123 0
M  V30 5059 C 482.655 -2.15257 3.8753 0
M  V30 5060 H 479.875 -0.18287 0.6456 0
M  V30 5061 H 482.419 0.0858116 2.0432 0
M  V30 5062 H 480.574 -2.07101 3.27395 0
M  V30 5063 H 480.988 -0.918496 5.16395 0
M  V30 5064 H 482.462 -2.60285 4.86781 0
M  V30 5065 H 482.939 -2.99063 3.21649 0
M  V30 5066 H 483.545 -1.50231 3.97883 0
M  V30 5067 N 481.861 -1.55662 -0.24637 0
M  V30 5068 C 483.109 -1.77168 -0.972411 0
M  V30 5069 C 483.43 -0.590827 -1.85834 0
M  V30 5070 O 482.7 0.393365 -1.9191 0
M  V30 5071 H 481.28 -0.653405 -0.362038 0
M  V30 5072 H 483.942 -1.93101 -0.264189 0
M  V30 5073 H 483.038 -2.68335 -1.59382 0
M  V30 5074 N 483.339 0.512053 -1.4905 0
M  V30 5075 C 484.286 1.6148 -1.64902 0
M  V30 5076 C 485.256 1.58687 -0.490673 0
M  V30 5077 O 486.441 1.76842 -0.71636 0
M  V30 5078 C 483.581 2.99676 -1.71139 0
M  V30 5079 C 482.694 3.12568 -2.98203 0
M  V30 5080 C 481.829 4.4143 -2.95487 0
M  V30 5081 C 480.868 4.47916 -4.17179 0
M  V30 5082 N 480.005 5.68191 -4.12437 0
M  V30 5083 H 484.845 1.47271 -2.59066 0
M  V30 5084 H 482.382 0.716713 -1.28459 0
M  V30 5085 H 484.34 3.79761 -1.72736 0
M  V30 5086 H 482.97 3.12614 -0.804508 0
M  V30 5087 H 482.022 2.25618 -3.06269 0
M  V30 5088 H 483.334 3.1322 -3.88194 0
M  V30 5089 H 482.488 5.29825 -2.95585 0
M  V30 5090 H 481.227 4.43326 -2.03256 0
M  V30 5091 H 480.232 3.57925 -4.17337 0
M  V30 5092 H 481.457 4.47744 -5.1059 0
M  V30 5093 H 479.403 5.7095 -3.23036 0
M  V30 5094 H 479.32 5.70413 -4.96151 0
M  V30 5095 H 480.588 6.58823 -4.16621 0
M  V30 5096 N 484.817 1.37938 0.762283 0
M  V30 5097 C 486.063 1.33866 1.52341 0
M  V30 5098 C 486.396 -0.0738961 1.94059 0
M  V30 5099 O 485.671 -1.03326 1.64785 0
M  V30 5100 C 485.954 2.28644 2.78197 0
M  V30 5101 C 485.807 3.78722 2.42672 0
M  V30 5102 C 487.126 2.21702 3.80179 0
M  V30 5103 H 484.245 0.487593 0.55265 0
M  V30 5104 H 486.887 1.68717 0.873767 0
M  V30 5105 H 485.037 1.99055 3.33631 0
M  V30 5106 H 486.709 4.18948 1.93081 0
M  V30 5107 H 484.952 3.96827 1.75244 0
M  V30 5108 H 485.623 4.40486 3.3268 0
M  V30 5109 H 488.099 2.47805 3.34263 0
M  V30 5110 H 486.975 2.90143 4.65949 0
M  V30 5111 H 487.236 1.21301 4.25133 0
M  V30 5112 N 486.295 -0.989507 1.22664 0
M  V30 5113 C 487.225 -2.09847 1.02404 0
M  V30 5114 C 488.206 -1.70007 -0.0561303 0
M  V30 5115 O 489.391 -1.93906 0.106748 0
M  V30 5116 C 486.521 -3.41996 0.604663 0
M  V30 5117 C 485.475 -3.95699 1.63115 0
M  V30 5118 C 484.801 -5.23936 1.0675 0
M  V30 5119 C 486.101 -4.25999 3.02196 0
M  V30 5120 H 487.795 -2.27054 1.95158 0
M  V30 5121 H 485.341 -1.09111 0.939727 0
M  V30 5122 H 487.294 -4.1899 0.45002 0
M  V30 5123 H 486.018 -3.24626 -0.35855 0
M  V30 5124 H 484.677 -3.2084 1.77362 0
M  V30 5125 H 484.325 -5.02909 0.0955422 0
M  V30 5126 H 484.025 -5.60833 1.75328 0
M  V30 5127 H 485.549 -6.0356 0.924516 0
M  V30 5128 H 486.963 -4.93777 2.91303 0
M  V30 5129 H 485.36 -4.74076 3.67929 0
M  V30 5130 H 486.43 -3.33636 3.51873 0
M  V30 5131 N 487.773 -1.03688 -1.18687 0
M  V30 5132 C 488.703 -0.645407 -2.24403 0
M  V30 5133 C 489.684 0.349511 -1.66471 0
M  V30 5134 O 490.869 0.230453 -1.92828 0
M  V30 5135 C 487.999 -0.00365337 -3.473 0
M  V30 5136 C 486.953 -0.921705 -4.17958 0
M  V30 5137 C 486.279 -0.144629 -5.34504 0
M  V30 5138 C 487.579 -2.23909 -4.71871 0
M  V30 5139 H 489.273 -1.52917 -2.57404 0
M  V30 5140 H 486.819 -0.736711 -1.23728 0
M  V30 5141 H 488.772 0.281908 -4.20456 0
M  V30 5142 H 487.496 0.914963 -3.13522 0
M  V30 5143 H 486.155 -1.19159 -3.46694 0
M  V30 5144 H 485.803 0.776274 -4.96974 0
M  V30 5145 H 485.503 -0.756206 -5.82714 0
M  V30 5146 H 487.027 0.134004 -6.10453 0
M  V30 5147 H 488.441 -2.0145 -5.36741 0
M  V30 5148 H 486.838 -2.8033 -5.30599 0
M  V30 5149 H 487.908 -2.88822 -3.895 0
M  V30 5150 N 489.251 1.34841 -0.815825 0
M  V30 5151 C 490.497 1.98793 -0.401129 0
M  V30 5152 C 490.83 1.64548 1.03139 0
M  V30 5153 O 490.105 0.913487 1.71714 0
M  V30 5154 C 490.388 3.55143 -0.595409 0
M  V30 5155 C 490.241 3.99155 -2.07352 0
M  V30 5156 C 491.56 4.40092 -0.0268823 0
M  V30 5157 H 488.679 0.722146 -0.14722 0
M  V30 5158 H 491.321 1.59847 -1.02707 0
M  V30 5159 H 489.471 3.8845 -0.0625779 0
M  V30 5160 H 491.143 3.76216 -2.66945 0
M  V30 5161 H 489.386 3.49726 -2.56659 0
M  V30 5162 H 490.057 5.07971 -2.1603 0
M  V30 5163 H 492.533 4.13298 -0.482042 0
M  V30 5164 H 491.409 5.48562 -0.19267 0
M  V30 5165 H 491.67 4.29016 1.06759 0
M  V30 5166 N 490.729 0.570148 1.46925 0
M  V30 5167 C 491.677 -0.183181 2.31878 0
M  V30 5168 C 492.671 -0.896721 1.43719 0
M  V30 5169 O 493.877 -0.816536 1.60414 0
M  V30 5170 H 490.252 -0.077944 0.74795 0
M  V30 5171 H 492.223 0.552312 2.93244 0
M  V30 5172 C 490.972 -1.19172 3.2664 0
M  V30 5173 H 490.295 -0.652088 3.94446 0
M  V30 5174 H 491.735 -1.68946 3.88887 0
M  V30 5175 C 490.194 -2.24627 2.51086 0
M  V30 5176 O 490.724 -3.31773 2.26472 0
M  V30 5177 N 488.93 -1.98898 2.11867 0
M  V30 5178 H 488.477 -1.11777 2.32086 0
M  V30 5179 H 488.435 -2.6967 1.61634 0
M  V30 5180 N 492.207 -1.54576 0.307264 0
M  V30 5181 C 493.437 -2.04378 -0.302158 0
M  V30 5182 C 493.845 -1.18381 -1.47589 0
M  V30 5183 O 493.188 -0.20352 -1.82569 0
M  V30 5184 C 493.25 -3.50133 -0.815305 0
M  V30 5185 C 492.914 -4.56401 0.233977 0
M  V30 5186 C 493.911 -5.08884 1.06456 0
M  V30 5187 C 491.596 -5.0088 0.377478 0
M  V30 5188 C 493.59 -6.04394 2.02452 0
M  V30 5189 C 491.277 -5.96208 1.34088 0
M  V30 5190 C 492.275 -6.47849 2.16288 0
M  V30 5191 O 491.963 -7.41308 3.10994 0
M  V30 5192 H 491.695 -0.672502 -0.0686839 0
M  V30 5193 H 494.249 -2.00484 0.446682 0
M  V30 5194 H 492.479 -3.51371 -1.61478 0
M  V30 5195 H 494.168 -3.83098 -1.34129 0
M  V30 5196 H 494.934 -4.75311 0.964596 0
M  V30 5197 H 490.813 -4.60309 -0.252405 0
M  V30 5198 H 494.357 -6.44626 2.66652 0
M  V30 5199 H 490.254 -6.29198 1.44154 0
M  V30 5200 H 491.022 -7.5913 3.06045 0
M  V30 5201 N 493.685 -0.035106 -1.57561 0
M  V30 5202 C 494.632 0.94474 -2.10578 0
M  V30 5203 C 495.602 1.3192 -1.00927 0
M  V30 5204 O 496.787 1.41147 -1.28382 0
M  V30 5205 C 493.927 2.21982 -2.64231 0
M  V30 5206 C 493.04 1.90128 -3.87911 0
M  V30 5207 C 492.175 3.11975 -4.29936 0
M  V30 5208 C 491.214 2.75968 -5.46359 0
M  V30 5209 N 490.351 3.90459 -5.83512 0
M  V30 5210 H 495.191 0.485717 -2.94015 0
M  V30 5211 H 492.728 0.228143 -1.4532 0
M  V30 5212 H 494.686 2.96572 -2.9343 0
M  V30 5213 H 493.316 2.6549 -1.83616 0
M  V30 5214 H 492.368 1.05755 -3.65404 0
M  V30 5215 H 493.68 1.59613 -4.72573 0
M  V30 5216 H 492.834 3.9488 -4.60603 0
M  V30 5217 H 491.573 3.45657 -3.44053 0
M  V30 5218 H 490.578 1.91478 -5.1538 0
M  V30 5219 H 491.803 2.43497 -6.33945 0
M  V30 5220 H 489.749 4.23971 -5.00584 0
M  V30 5221 H 489.666 3.63588 -6.62827 0
M  V30 5222 H 490.934 4.7405 -6.18787 0
M  V30 5223 N 495.163 1.55791 0.238111 0
M  V30 5224 C 496.44 1.68798 0.98826 0
M  V30 5225 C 496.82 0.577562 2.03045 0
M  V30 5226 O 496.168 -0.41778 2.24648 0
M  V30 5227 C 496.378 3.09454 1.61367 0
M  V30 5228 C 497.726 3.68335 2.11221 0
M  V30 5229 O 498.75 3.1231 1.71292 0
M  V30 5230 O 497.609 4.6657 2.84561 0
M  V30 5231 H 494.703 0.686881 0.460568 0
M  V30 5232 H 497.249 1.68118 0.231202 0
M  V30 5233 H 496.021 3.81726 0.860295 0
M  V30 5234 H 495.644 3.14182 2.4367 0
M  V30 5235 N 496.642 -0.504142 1.49319 0
M  V30 5236 C 497.891 -1.25507 1.57895 0
M  V30 5237 C 498.204 -1.93735 0.269433 0
M  V30 5238 O 499.41 -2.70492 0.233706 0
M  V30 5239 C 497.866 -2.27869 2.78574 0
M  V30 5240 C 497.474 -1.65594 4.16272 0
M  V30 5241 C 499.218 -3.0381 2.96479 0
M  V30 5242 C 497.125 -2.66048 5.28178 0
M  V30 5243 H 496.055 -0.47212 0.587894 0
M  V30 5244 H 498.706 -0.52931 1.757 0
M  V30 5245 H 497.088 -3.03594 2.54257 0
M  V30 5246 H 498.262 -0.958826 4.50714 0
M  V30 5247 H 496.577 -1.02055 4.037 0
M  V30 5248 H 499.174 -3.78925 3.77253 0
M  V30 5249 H 499.517 -3.61235 2.06918 0
M  V30 5250 H 500.05 -2.352 3.20821 0
M  V30 5251 H 496.789 -2.13408 6.19788 0
M  V30 5252 H 496.309 -3.34009 4.98195 0
M  V30 5253 H 497.988 -3.28536 5.57381 0
M  V30 5254 N 498.12 -1.38341 -0.754957 0
M  V30 5255 C 499.397 -1.24995 -1.50451 0
M  V30 5256 C 499.777 0.149244 -2.10572 0
M  V30 5257 O 499.125 1.15861 -1.96948 0
M  V30 5258 C 499.335 -2.35904 -2.57197 0
M  V30 5259 C 500.683 -2.74262 -3.24138 0
M  V30 5260 O 501.707 -2.35205 -2.67501 0
M  V30 5261 O 500.566 -3.4161 -4.26574 0
M  V30 5262 H 497.66 -0.48872 -0.667144 0
M  V30 5263 H 500.206 -1.50165 -0.790486 0
M  V30 5264 H 498.978 -3.2953 -2.11011 0
M  V30 5265 H 498.601 -2.12291 -3.36182 0
M  V30 5266 N 499.598 0.982988 -1.23187 0
M  V30 5267 C 500.546 2.09616 -1.00817 0
M  V30 5268 C 501.54 1.6932 0.0519995 0
M  V30 5269 O 502.746 1.79715 -0.101284 0
M  V30 5270 H 499.121 0.685628 -0.308899 0
M  V30 5271 H 501.092 2.25652 -1.95253 0
M  V30 5272 C 499.841 3.42249 -0.613243 0
M  V30 5273 H 499.164 3.73705 -1.42073 0
M  V30 5274 H 500.604 4.21086 -0.496208 0
M  V30 5275 C 499.063 3.30002 0.678233 0
M  V30 5276 O 499.593 3.6263 1.72807 0
M  V30 5277 N 497.799 2.83164 0.653165 0
M  V30 5278 H 497.346 2.56811 -0.201492 0
M  V30 5279 H 497.304 2.75352 1.51752 0
M  V30 5280 N 501.076 1.04316 1.18135 0
M  V30 5281 C 502.006 0.657299 2.24058 0
M  V30 5282 C 502.987 -0.340678 1.66654 0
M  V30 5283 O 504.172 -0.220223 1.92947 0
M  V30 5284 C 501.302 0.0220715 3.47293 0
M  V30 5285 C 500.256 0.943857 4.17463 0
M  V30 5286 C 499.582 0.172973 5.3442 0
M  V30 5287 C 500.882 2.26409 4.70677 0
M  V30 5288 H 502.576 1.5428 2.56589 0
M  V30 5289 H 500.122 0.743263 1.23335 0
M  V30 5290 H 502.075 -0.259607 4.206 0
M  V30 5291 H 500.799 -0.898323 3.14003 0
M  V30 5292 H 499.458 1.20996 3.46057 0
M  V30 5293 H 499.106 -0.749907 4.97379 0
M  V30 5294 H 498.806 0.787098 5.82304 0
M  V30 5295 H 500.33 -0.101628 6.10515 0
M  V30 5296 H 501.744 2.04294 5.35665 0
M  V30 5297 H 500.141 2.8314 5.29105 0
M  V30 5298 H 501.211 2.90883 3.87962 0
M  V30 5299 N 502.554 -1.34406 0.822964 0
M  V30 5300 C 503.782 -2.02508 0.424039 0
M  V30 5301 C 504.197 -1.61975 -0.970022 0
M  V30 5302 O 503.554 -0.825228 -1.62777 0
M  V30 5303 C 503.605 -3.57789 0.516657 0
M  V30 5304 O 503.326 -3.96853 1.85577 0
M  V30 5305 C 504.827 -4.43157 0.112637 0
M  V30 5306 H 502.047 -0.649063 0.170173 0
M  V30 5307 H 504.591 -1.7168 1.11113 0
M  V30 5308 H 502.746 -3.87207 -0.122353 0
M  V30 5309 H 503.16 -4.91538 1.83005 0
M  V30 5310 H 504.634 -5.51527 0.228526 0
M  V30 5311 H 505.111 -4.28939 -0.943837 0
M  V30 5312 H 505.717 -4.19067 0.725449 0
M  V30 5313 N 504.032 -0.577932 -1.46621 0
M  V30 5314 C 505.278 -0.0617793 -2.02706 0
M  V30 5315 C 505.611 1.29294 -1.44903 0
M  V30 5316 O 504.886 1.8461 -0.61232 0
M  V30 5317 C 505.169 0.00911824 -3.60099 0
M  V30 5318 C 505.022 -1.37416 -4.28295 0
M  V30 5319 C 506.341 0.712159 -4.343 0
M  V30 5320 H 503.46 -0.0239246 -0.736612 0
M  V30 5321 H 506.102 -0.744211 -1.74818 0
M  V30 5322 H 504.252 0.590292 -3.83989 0
M  V30 5323 H 505.924 -2.00013 -4.15683 0
M  V30 5324 H 504.167 -1.94319 -3.87843 0
M  V30 5325 H 504.838 -1.27707 -5.37024 0
M  V30 5326 H 507.314 0.218486 -4.15526 0
M  V30 5327 H 506.19 0.730782 -5.44014 0
M  V30 5328 H 506.451 1.77251 -4.05012 0
M  V30 5329 N 505.51 1.54411 -0.315457 0
M  V30 5330 C 506.738 2.04833 0.291738 0
M  V30 5331 C 507.153 1.19203 1.46411 0
M  V30 5332 O 506.51 0.220867 1.81159 0
M  V30 5333 C 506.561 3.53969 0.73404 0
M  V30 5334 O 506.282 4.36346 -0.391682 0
M  V30 5335 C 507.783 4.2045 1.40489 0
M  V30 5336 H 505.003 0.668195 0.0612947 0
M  V30 5337 H 507.547 1.99276 -0.45929 0
M  V30 5338 H 505.702 3.5984 1.43506 0
M  V30 5339 H 506.116 5.24481 -0.0447088 0
M  V30 5340 H 507.59 5.26278 1.66539 0
M  V30 5341 H 508.067 3.71067 2.3496 0
M  V30 5342 H 508.673 4.18694 0.746662 0
M  V30 5343 N 506.988 0.0434614 1.5754 0
M  V30 5344 C 508.213 -0.645358 1.97104 0
M  V30 5345 C 508.638 -1.64037 0.920521 0
M  V30 5346 O 507.996 -1.80922 -0.11708 0
M  V30 5347 C 508.044 -1.31547 3.35749 0
M  V30 5348 O 507.148 -2.43103 3.33129 0
M  V30 5349 H 506.489 -0.168403 0.64229 0
M  V30 5350 H 509.019 0.109573 2.04306 0
M  V30 5351 H 509.029 -1.66895 3.72304 0
M  V30 5352 H 507.704 -0.586205 4.11748 0
M  V30 5353 H 506.281 -2.0976 3.0831 0
M  V30 5354 N 508.466 -1.55915 -0.229846 0
M  V30 5355 C 509.715 -1.77742 -0.953455 0
M  V30 5356 C 510.028 -0.610524 -1.85828 0
M  V30 5357 O 511.234 -0.712219 -2.61992 0
M  V30 5358 C 509.69 -3.14738 -1.74551 0
M  V30 5359 C 509.298 -4.39126 -0.887242 0
M  V30 5360 C 511.042 -3.45895 -2.46084 0
M  V30 5361 C 508.949 -5.67149 -1.67617 0
M  V30 5362 H 507.879 -0.662648 -0.359741 0
M  V30 5363 H 510.53 -1.82322 -0.207576 0
M  V30 5364 H 508.912 -3.04311 -2.53399 0
M  V30 5365 H 510.086 -4.60588 -0.139892 0
M  V30 5366 H 508.401 -4.15427 -0.284443 0
M  V30 5367 H 510.998 -4.38767 -3.05594 0
M  V30 5368 H 511.341 -2.68007 -3.18556 0
M  V30 5369 H 511.874 -3.57614 -1.74233 0
M  V30 5370 H 508.613 -6.47906 -0.994881 0
M  V30 5371 H 508.133 -5.49763 -2.39836 0
M  V30 5372 H 509.812 -6.07025 -2.23898 0
M  V30 5373 N 509.944 0.496216 -1.49584 0
M  V30 5374 C 511.192 1.24756 -1.58998 0
M  V30 5375 C 511.513 1.92968 -0.280775 0
M  V30 5376 O 510.783 1.82959 0.700198 0
M  V30 5377 H 509.363 0.463471 -0.585836 0
M  V30 5378 H 512.025 0.574678 -1.86235 0
M  V30 5379 H 511.121 2.00895 -2.38847 0
M  V30 5380 N 511.423 1.38739 0.74761 0
M  V30 5381 C 512.386 1.36241 1.84312 0
M  V30 5382 C 513.386 0.261811 1.58654 0
M  V30 5383 O 514.576 0.519031 1.66288 0
M  V30 5384 C 511.708 1.12253 3.21888 0
M  V30 5385 H 512.901 2.33712 1.87933 0
M  V30 5386 H 510.454 1.2412 0.949946 0
M  V30 5387 H 511.189 0.154133 3.23934 0
M  V30 5388 H 510.974 1.91943 3.41907 0
M  V30 5389 H 512.464 1.13215 4.0196 0
M  V30 5390 N 512.901 -0.976442 1.23707 0
M  V30 5391 C 513.864 -2.0511 1.02287 0
M  V30 5392 C 514.864 -1.60791 -0.0167195 0
M  V30 5393 O 516.054 -1.72761 0.223408 0
M  V30 5394 C 513.186 -3.36458 0.548507 0
M  V30 5395 H 514.379 -2.25545 1.9766 0
M  V30 5396 H 511.932 -1.15042 1.05806 0
M  V30 5397 H 512.667 -3.21713 -0.408818 0
M  V30 5398 H 512.452 -3.69967 1.29874 0
M  V30 5399 H 513.942 -4.15489 0.419406 0
M  V30 5400 N 514.379 -1.04941 -1.1758 0
M  V30 5401 C 515.79 -0.784501 -1.69418 0
M  V30 5402 C 516.141 0.693625 -1.8353 0
M  V30 5403 O 515.266 1.53925 -1.52106 0
M  V30 5404 C 515.861 -1.41746 -3.07723 0
M  V30 5405 C 514.42 -1.20066 -3.56737 0
M  V30 5406 C 513.567 -1.5026 -2.33061 0
M  V30 5407 H 516.518 -1.21469 -1.02133 0
M  V30 5408 H 516.539 -0.825381 -3.7144 0
M  V30 5409 H 516.051 -2.49325 -2.9742 0
M  V30 5410 H 514.152 -0.144006 -3.72322 0
M  V30 5411 H 514.265 -1.90384 -4.39648 0
M  V30 5412 H 512.629 -0.922598 -2.37403 0
M  V30 5413 H 513.412 -2.58967 -2.25368 0
M  V30 5414 N 515.857 1.33968 -0.830081 0
M  V30 5415 C 517.104 1.98063 -0.421566 0
M  V30 5416 C 517.432 1.65787 1.0171 0
M  V30 5417 O 516.687 0.925348 1.72441 0
M  V30 5418 C 516.986 3.52679 -0.57898 0
M  V30 5419 C 516.652 4.04884 -1.98443 0
M  V30 5420 C 515.314 4.18852 -2.36888 0
M  V30 5421 C 517.666 4.32879 -2.90285 0
M  V30 5422 C 514.994 4.58145 -3.66497 0
M  V30 5423 C 517.346 4.7362 -4.19364 0
M  V30 5424 C 516.01 4.85794 -4.57778 0
M  V30 5425 H 515.28 0.724765 -0.154262 0
M  V30 5426 H 517.927 1.59792 -1.05541 0
M  V30 5427 H 516.232 3.91556 0.138219 0
M  V30 5428 H 517.929 4.00261 -0.243317 0
M  V30 5429 H 514.519 3.9448 -1.67581 0
M  V30 5430 H 518.703 4.21619 -2.61823 0
M  V30 5431 H 513.959 4.65762 -3.96075 0
M  V30 5432 H 518.133 4.9424 -4.90612 0
M  V30 5433 H 515.76 5.15998 -5.58256 0
M  V30 5434 N 517.335 0.585699 1.46312 0
M  V30 5435 C 518.265 -0.133556 2.33118 0
M  V30 5436 C 519.246 -0.880707 1.45525 0
M  V30 5437 O 520.431 -0.855579 1.74337 0
M  V30 5438 C 517.561 -1.14585 3.27853 0
M  V30 5439 C 516.515 -0.513341 4.2491 0
M  V30 5440 C 515.841 -1.63231 5.09175 0
M  V30 5441 C 517.141 0.551413 5.19381 0
M  V30 5442 H 518.835 0.59121 2.93505 0
M  V30 5443 H 516.381 0.285761 1.41136 0
M  V30 5444 H 518.334 -1.65741 3.87438 0
M  V30 5445 H 517.058 -1.90093 2.65579 0
M  V30 5446 H 515.717 -0.0228349 3.66593 0
M  V30 5447 H 515.365 -2.37713 4.43285 0
M  V30 5448 H 515.065 -1.21473 5.74907 0
M  V30 5449 H 516.589 -2.14658 5.71624 0
M  V30 5450 H 518.003 0.124804 5.73164 0
M  V30 5451 H 516.4 0.889486 5.93471 0
M  V30 5452 H 517.47 1.43655 4.63132 0
M  V30 5453 N 518.813 -1.54241 0.323641 0
M  V30 5454 C 519.763 -2.21071 -0.557833 0
M  V30 5455 C 520.747 -1.19126 -1.08157 0
M  V30 5456 O 521.939 -1.44755 -1.01857 0
M  V30 5457 C 519.068 -2.97208 -1.71821 0
M  V30 5458 C 518.154 -4.06491 -1.20936 0
M  V30 5459 N 518.545 -5.04052 -0.420202 0
M  V30 5460 C 516.843 -4.20443 -1.48808 0
M  V30 5461 C 517.544 -5.81516 -0.146413 0
M  V30 5462 N 516.52 -5.38641 -0.732562 0
M  V30 5463 H 520.322 -2.93853 0.0523921 0
M  V30 5464 H 517.836 -1.61883 0.129502 0
M  V30 5465 H 519.833 -3.4357 -2.36146 0
M  V30 5466 H 518.493 -2.25947 -2.33191 0
M  V30 5467 H 519.504 -5.17862 -0.0630401 0
M  V30 5468 H 516.181 -3.60396 -2.10762 0
M  V30 5469 H 517.571 -6.70119 0.488895 0
M  V30 5470 N 520.291 -0.0518155 -1.57515 0
M  V30 5471 C 521.568 0.661727 -1.84067 0
M  V30 5472 C 521.948 1.88999 -0.940351 0
M  V30 5473 O 521.296 2.285 -0.00155404 0
M  V30 5474 C 521.506 1.01841 -3.3381 0
M  V30 5475 C 522.854 1.40043 -4.00841 0
M  V30 5476 O 523.878 1.11073 -3.38439 0
M  V30 5477 O 522.737 1.94111 -5.10865 0
M  V30 5478 H 519.831 0.326702 -0.759733 0
M  V30 5479 H 522.377 -0.0812277 -1.69505 0
M  V30 5480 H 521.149 0.145202 -3.91031 0
M  V30 5481 H 520.772 1.81879 -3.53562 0
M  V30 5482 N 521.769 1.56035 0.221574 0
M  V30 5483 C 523.017 1.78693 0.944102 0
M  V30 5484 C 523.338 0.620317 1.8487 0
M  V30 5485 O 522.608 -0.362784 1.92512 0
M  V30 5486 H 521.188 0.659082 0.351597 0
M  V30 5487 H 523.85 1.93497 0.233435 0
M  V30 5488 H 522.946 2.70837 1.55093 0
M  V30 5489 N 523.247 -0.488276 1.49845 0
M  V30 5490 C 524.495 -1.23911 1.59657 0
M  V30 5491 C 524.816 -1.92816 0.291005 0
M  V30 5492 O 524.086 -1.83328 -0.690485 0
M  V30 5493 H 522.666 -0.460357 0.588286 0
M  V30 5494 H 525.328 -0.564794 1.86537 0
M  V30 5495 H 524.424 -1.99625 2.39909 0
M  V30 5496 N 524.725 -1.39134 -0.740242 0
M  V30 5497 C 525.971 -1.37278 -1.50088 0
M  V30 5498 C 526.326 0.0329967 -1.92372 0
M  V30 5499 O 525.619 0.998447 -1.63529 0
M  V30 5500 C 525.813 -2.27457 -2.75678 0
M  V30 5501 C 525.642 -3.76662 -2.45674 0
M  V30 5502 C 524.412 -4.45617 -2.38229 0
M  V30 5503 C 526.61 -4.6877 -2.11563 0
M  V30 5504 N 524.592 -5.80187 -2.00641 0
M  V30 5505 C 525.963 -5.91951 -1.84376 0
M  V30 5506 C 528.018 -4.56843 -1.97987 0
M  V30 5507 C 526.721 -7.04538 -1.4498 0
M  V30 5508 C 528.747 -5.69347 -1.59994 0
M  V30 5509 C 528.109 -6.91597 -1.33687 0
M  V30 5510 H 524.208 -0.557611 -0.548265 0
M  V30 5511 H 526.792 -1.74638 -0.860784 0
M  V30 5512 H 524.963 -1.92263 -3.37475 0
M  V30 5513 H 526.695 -2.16631 -3.41838 0
M  V30 5514 H 523.45 -3.98993 -2.5515 0
M  V30 5515 H 523.874 -6.51387 -1.84454 0
M  V30 5516 H 528.516 -3.62868 -2.16995 0
M  V30 5517 H 526.234 -7.98419 -1.24712 0
M  V30 5518 H 529.82 -5.62104 -1.50102 0
M  V30 5519 H 528.7 -7.77176 -1.04728 0
M  V30 5520 N 526.204 0.969867 -1.24223 0
M  V30 5521 C 527.481 1.68774 -0.988664 0
M  V30 5522 C 527.861 2.05342 0.489673 0
M  V30 5523 O 527.209 1.75486 1.46345 0
M  V30 5524 C 527.419 2.92135 -1.90941 0
M  V30 5525 C 528.767 3.64422 -2.17903 0
M  V30 5526 O 529.791 3.02188 -1.88576 0
M  V30 5527 O 528.65 4.76446 -2.67697 0
M  V30 5528 H 525.744 0.737736 -0.37373 0
M  V30 5529 H 528.29 1.02415 -1.35312 0
M  V30 5530 H 527.062 2.61788 -2.90831 0
M  V30 5531 H 526.685 3.66228 -1.54798 0
M  V30 5532 N 527.682 1.05563 1.17022 0
M  V30 5533 C 528.907 0.788437 1.91829 0
M  V30 5534 C 529.332 -0.650356 1.76499 0
M  V30 5535 O 528.69 -1.45229 1.08527 0
M  V30 5536 C 528.738 1.1786 3.40795 0
M  V30 5537 O 527.842 0.312965 4.11211 0
M  V30 5538 H 527.183 0.288794 0.597908 0
M  V30 5539 H 529.713 1.40948 1.48307 0
M  V30 5540 H 529.723 1.14697 3.91546 0
M  V30 5541 H 528.398 2.22666 3.51273 0
M  V30 5542 H 526.975 0.405515 3.70689 0
M  V30 5543 N 529.16 -1.33526 0.837174 0
M  V30 5544 C 530.385 -2.0258 0.444545 0
M  V30 5545 C 530.81 -1.6258 -0.946006 0
M  V30 5546 O 530.168 -0.817548 -1.6182 0
M  V30 5547 C 530.216 -3.5605 0.571006 0
M  V30 5548 O 529.32 -4.10422 -0.403431 0
M  V30 5549 H 528.661 -0.638866 0.180958 0
M  V30 5550 H 531.191 -1.70462 1.13154 0
M  V30 5551 H 531.201 -4.05488 0.452024 0
M  V30 5552 H 529.876 -3.84509 1.58512 0
M  V30 5553 H 528.453 -3.72113 -0.242147 0
M  V30 5554 N 530.638 -0.59345 -1.46 0
M  V30 5555 C 531.588 0.154751 -2.27474 0
M  V30 5556 C 532.572 0.851849 -1.365 0
M  V30 5557 O 533.764 0.744171 -1.60596 0
M  V30 5558 C 530.893 1.16079 -3.2308 0
M  V30 5559 C 529.979 0.465256 -4.2154 0
M  V30 5560 N 530.37 -0.485197 -5.03467 0
M  V30 5561 C 528.668 0.714634 -4.40237 0
M  V30 5562 C 529.369 -0.892709 -5.74809 0
M  V30 5563 N 528.345 -0.239511 -5.43072 0
M  V30 5564 H 532.147 -0.57546 -2.88211 0
M  V30 5565 H 529.661 -0.416046 -1.5698 0
M  V30 5566 H 531.658 1.71108 -3.80168 0
M  V30 5567 H 530.318 1.89171 -2.63903 0
M  V30 5568 H 531.329 -0.861258 -5.10689 0
M  V30 5569 H 528.006 1.43131 -3.92199 0
M  V30 5570 H 529.396 -1.67581 -6.50666 0
M  V30 5571 N 532.116 1.54067 -0.331816 0
M  V30 5572 C 533.532 1.59587 0.0205388 0
M  V30 5573 C 533.732 1.34813 1.49759 0
M  V30 5574 O 532.788 1.13661 2.25471 0
M  V30 5575 C 534.101 2.97959 -0.405103 0
M  V30 5576 C 535.649 3.10964 -0.356454 0
M  V30 5577 C 536.124 4.51694 -0.757384 0
M  V30 5578 N 537.615 4.57709 -0.71111 0
M  V30 5579 C 538.35 5.64729 -0.993427 0
M  V30 5580 N 537.846 6.79652 -1.3433 0
M  V30 5581 N 539.639 5.54546 -0.918442 0
M  V30 5582 H 531.79 1.68426 -1.29407 0
M  V30 5583 H 534.053 0.78819 -0.526745 0
M  V30 5584 H 533.759 3.21115 -1.43451 0
M  V30 5585 H 533.633 3.76524 0.225692 0
M  V30 5586 H 536.02 2.87538 0.663763 0
M  V30 5587 H 536.101 2.34484 -1.02229 0
M  V30 5588 H 535.745 4.75853 -1.77555 0
M  V30 5589 H 535.675 5.26555 -0.0691444 0
M  V30 5590 H 538.166 3.75176 -0.452883 0
M  V30 5591 H 538.479 7.57221 -1.54388 0
M  V30 5592 H 536.824 6.81128 -1.38164 0
M  V30 5593 H 540.015 4.63641 -0.644536 0
M  V30 5594 H 540.188 6.37861 -1.14181 0
M  V30 5595 N 533.594 0.0601682 1.57485 0
M  V30 5596 C 534.824 -0.620037 1.97076 0
M  V30 5597 C 535.232 -1.64381 0.936784 0
M  V30 5598 O 534.575 -1.83497 -0.0863377 0
M  V30 5599 C 534.637 -1.35617 3.32939 0
M  V30 5600 C 534.301 -0.487208 4.54396 0
M  V30 5601 C 535.298 0.250428 5.19297 0
M  V30 5602 C 532.983 -0.415494 5.00579 0
M  V30 5603 C 534.977 1.04812 6.28723 0
M  V30 5604 C 532.664 0.385879 6.0988 0
M  V30 5605 C 533.662 1.11637 6.73815 0
M  V30 5606 O 533.35 1.90454 7.81014 0
M  V30 5607 H 533.082 -0.173664 0.653312 0
M  V30 5608 H 535.636 0.1256 2.05016 0
M  V30 5609 H 533.866 -2.14763 3.2158 0
M  V30 5610 H 535.555 -1.92749 3.57215 0
M  V30 5611 H 536.321 0.204546 4.84568 0
M  V30 5612 H 532.2 -0.973679 4.506 0
M  V30 5613 H 535.744 1.6188 6.78558 0
M  V30 5614 H 531.641 0.433366 6.44044 0
M  V30 5615 H 532.409 1.82762 7.97835 0
M  V30 5616 N 535.072 -1.5615 -0.213296 0
M  V30 5617 C 536.319 -1.79546 -0.936462 0
M  V30 5618 C 536.647 -0.630337 -1.84003 0
M  V30 5619 O 535.902 0.384883 -1.91878 0
M  V30 5620 C 536.201 -3.08772 -1.79985 0
M  V30 5621 C 535.867 -4.38532 -1.04882 0
M  V30 5622 C 534.529 -4.73787 -0.841393 0
M  V30 5623 C 536.881 -5.18609 -0.51907 0
M  V30 5624 C 534.209 -5.86627 -0.0924403 0
M  V30 5625 C 536.561 -6.32229 0.216581 0
M  V30 5626 C 535.225 -6.6608 0.435191 0
M  V30 5627 H 534.495 -0.657004 -0.342676 0
M  V30 5628 H 537.142 -1.9041 -0.204051 0
M  V30 5629 H 535.447 -2.93065 -2.60038 0
M  V30 5630 H 537.144 -3.24077 -2.36168 0
M  V30 5631 H 533.734 -4.10855 -1.22048 0
M  V30 5632 H 537.918 -4.91801 -0.666775 0
M  V30 5633 H 533.174 -6.11338 0.087081 0
M  V30 5634 H 537.348 -6.93503 0.634538 0
M  V30 5635 H 534.975 -7.5336 1.01746 0
M  V30 5636 N 536.55 0.480323 -1.50102 0
M  V30 5637 C 537.483 1.59789 -1.62919 0
M  V30 5638 C 538.461 1.55429 -0.477557 0
M  V30 5639 O 539.645 1.75186 -0.695851 0
M  V30 5640 C 536.772 2.98351 -1.60325 0
M  V30 5641 C 535.818 3.20899 -2.80938 0
M  V30 5642 S 536.651 3.01791 -4.4236 0
M  V30 5643 C 537.807 4.42712 -4.42444 0
M  V30 5644 H 538.04 1.48676 -2.57454 0
M  V30 5645 H 535.573 0.666996 -1.3925 0
M  V30 5646 H 537.531 3.7824 -1.59514 0
M  V30 5647 H 536.192 3.06862 -0.670419 0
M  V30 5648 H 535.385 4.22102 -2.75401 0
M  V30 5649 H 534.987 2.48768 -2.79268 0
M  V30 5650 H 537.279 5.3518 -4.15438 0
M  V30 5651 H 538.222 4.53294 -5.43995 0
M  V30 5652 H 538.63 4.24359 -3.72263 0
M  V30 5653 N 538.028 1.39524 0.732853 0
M  V30 5654 C 539.256 1.40143 1.52209 0
M  V30 5655 C 539.671 -0.00348836 1.888 0
M  V30 5656 O 539.028 -0.975357 1.5425 0
M  V30 5657 C 539.079 2.27632 2.8083 0
M  V30 5658 O 538.8 3.62654 2.45792 0
M  V30 5659 C 540.301 2.36658 3.74844 0
M  V30 5660 H 537.521 0.478604 0.470297 0
M  V30 5661 H 540.065 1.83366 0.905388 0
M  V30 5662 H 538.22 1.87818 3.38826 0
M  V30 5663 H 538.634 4.08941 3.28431 0
M  V30 5664 H 540.108 3.02118 4.61984 0
M  V30 5665 H 540.585 1.38638 4.16745 0
M  V30 5666 H 541.191 2.76951 3.22766 0
M  V30 5667 N 539.506 -0.963266 1.24736 0
M  V30 5668 C 540.469 -2.04013 1.04457 0
M  V30 5669 C 541.469 -1.608 0.000335555 0
M  V30 5670 O 542.659 -1.72515 0.241719 0
M  V30 5671 C 539.791 -3.35858 0.584162 0
M  V30 5672 H 540.984 -2.23436 2.00041 0
M  V30 5673 H 538.537 -1.13914 1.07021 0
M  V30 5674 H 539.272 -3.22128 -0.374673 0
M  V30 5675 H 539.057 -3.68568 1.3379 0
M  V30 5676 H 540.547 -4.1502 0.463451 0
M  V30 5677 N 540.985 -1.06182 -1.16461 0
M  V30 5678 C 541.948 -0.675723 -2.19013 0
M  V30 5679 C 542.948 0.277963 -1.58379 0
M  V30 5680 O 544.138 0.0604962 -1.74095 0
M  V30 5681 C 541.27 0.00591459 -3.40899 0
M  V30 5682 H 542.463 -1.58353 -2.54685 0
M  V30 5683 H 540.016 -0.856908 -1.30716 0
M  V30 5684 H 540.751 0.92652 -3.10783 0
M  V30 5685 H 540.536 -0.67984 -3.86161 0
M  V30 5686 H 542.026 0.26181 -4.16778 0
M  V30 5687 N 542.463 1.3308 -0.844243 0
M  V30 5688 C 543.411 2.31028 -0.269954 0
M  V30 5689 C 544.405 1.58381 0.600997 0
M  V30 5690 O 545.611 1.73203 0.48996 0
M  V30 5691 H 541.986 0.748866 -0.0685782 0
M  V30 5692 H 543.957 2.76967 -1.11049 0
M  V30 5693 C 542.706 3.43549 0.535676 0
M  V30 5694 H 542.029 3.99604 -0.125202 0
M  V30 5695 H 543.469 4.14267 0.903262 0
M  V30 5696 C 541.928 2.8988 1.71672 0
M  V30 5697 O 542.458 2.86511 2.81557 0
M  V30 5698 N 540.664 2.46416 1.54037 0
M  V30 5699 H 540.211 2.49356 0.64649 0
M  V30 5700 H 540.169 2.1086 2.33207 0
M  V30 5701 N 543.941 0.601185 1.45683 0
M  V30 5702 C 544.889 -0.133955 2.32214 0
M  V30 5703 C 545.883 -0.866034 1.45589 0
M  V30 5704 O 547.089 -0.782326 1.6211 0
M  V30 5705 H 543.464 -0.0620613 0.749435 0
M  V30 5706 H 545.435 0.614389 2.92007 0
M  V30 5707 C 544.184 -1.12216 3.29094 0
M  V30 5708 H 543.507 -0.568273 3.95741 0
M  V30 5709 H 544.947 -1.60659 3.92383 0
M  V30 5710 C 543.406 -2.19251 2.55794 0
M  V30 5711 O 543.936 -3.26894 2.33459 0
M  V30 5712 N 542.142 -1.9436 2.16039 0
M  V30 5713 H 541.689 -1.06829 2.34404 0
M  V30 5714 H 541.647 -2.66181 1.67318 0
M  V30 5715 N 545.419 -1.53889 0.339982 0
M  V30 5716 C 546.644 -2.05741 -0.261798 0
M  V30 5717 C 547.069 -1.21354 -1.43718 0
M  V30 5718 O 546.427 -0.22645 -1.7988 0
M  V30 5719 C 546.475 -3.54542 -0.658228 0
M  V30 5720 O 545.579 -3.7302 -1.75869 0
M  V30 5721 H 544.92 -0.662529 -0.0441672 0
M  V30 5722 H 547.45 -1.98568 0.493161 0
M  V30 5723 H 547.46 -3.9711 -0.936368 0
M  V30 5724 H 546.135 -4.15412 0.201358 0
M  V30 5725 H 544.712 -3.42355 -1.47809 0
M  V30 5726 N 546.897 -0.0685191 -1.57451 0
M  V30 5727 C 547.845 0.917577 -2.13736 0
M  V30 5728 C 548.839 1.31049 -1.07344 0
M  V30 5729 O 550.045 1.28811 -1.25728 0
M  V30 5730 H 546.42 0.313835 -0.683382 0
M  V30 5731 H 548.391 0.417903 -2.95459 0
M  V30 5732 C 547.14 2.17686 -2.71123 0
M  V30 5733 H 546.463 1.88336 -3.52661 0
M  V30 5734 H 547.903 2.84803 -3.14107 0
M  V30 5735 C 546.362 2.9332 -1.65726 0
M  V30 5736 O 546.892 3.86901 -1.08031 0
M  V30 5737 N 545.098 2.56367 -1.36837 0
M  V30 5738 H 544.645 1.80341 -1.83943 0
M  V30 5739 H 544.603 3.07276 -0.665501 0
M  V30 5740 N 548.375 1.56261 0.205012 0
M  V30 5741 C 549.322 1.93754 1.25411 0
M  V30 5742 C 550.292 0.796826 1.45739 0
M  V30 5743 O 551.477 1.05414 1.59036 0
M  V30 5744 C 548.617 2.27383 2.59598 0
M  V30 5745 C 547.73 3.5447 2.46931 0
M  V30 5746 C 546.865 3.77468 3.73753 0
M  V30 5747 C 545.904 4.98014 3.55877 0
M  V30 5748 N 545.041 5.17316 4.74688 0
M  V30 5749 H 549.881 2.83203 0.92737 0
M  V30 5750 H 547.418 1.40158 0.446574 0
M  V30 5751 H 549.376 2.44895 3.37761 0
M  V30 5752 H 548.006 1.41088 2.90335 0
M  V30 5753 H 547.058 3.45061 1.60116 0
M  V30 5754 H 548.37 4.42789 2.29651 0
M  V30 5755 H 547.524 3.95165 4.60358 0
M  V30 5756 H 546.263 2.87461 3.93976 0
M  V30 5757 H 545.268 4.80249 2.67657 0
M  V30 5758 H 546.493 5.8952 3.37109 0
M  V30 5759 H 544.439 4.30255 4.95194 0
M  V30 5760 H 544.356 5.99796 4.60197 0
M  V30 5761 H 545.624 5.39463 5.62672 0
M  V30 5762 N 549.853 -0.472356 1.50355 0
M  V30 5763 C 551.099 -1.22634 1.6152 0
M  V30 5764 C 551.432 -1.91645 0.313995 0
M  V30 5765 O 550.707 -1.82059 -0.684446 0
M  V30 5766 C 550.99 -2.27099 2.7946 0
M  V30 5767 C 550.843 -1.62402 4.19459 0
M  V30 5768 C 552.162 -3.28421 2.92964 0
M  V30 5769 H 549.281 -0.444494 0.587873 0
M  V30 5770 H 551.923 -0.520321 1.82737 0
M  V30 5771 H 550.073 -2.87314 2.61501 0
M  V30 5772 H 551.745 -1.05793 4.49005 0
M  V30 5773 H 549.988 -0.927184 4.23776 0
M  V30 5774 H 550.659 -2.38309 4.97909 0
M  V30 5775 H 553.135 -2.78227 3.09401 0
M  V30 5776 H 552.011 -3.98845 3.77113 0
M  V30 5777 H 552.272 -3.92467 2.03525 0
M  V30 5778 N 551.331 -1.39911 -0.725443 0
M  V30 5779 C 552.294 -1.39156 -1.82121 0
M  V30 5780 C 553.294 -0.287018 -1.58218 0
M  V30 5781 O 554.484 -0.545421 -1.65441 0
M  V30 5782 C 551.616 -1.1736 -3.20062 0
M  V30 5783 H 552.809 -2.36672 -1.84191 0
M  V30 5784 H 550.362 -1.25615 -0.930079 0
M  V30 5785 H 551.097 -0.205648 -3.23647 0
M  V30 5786 H 550.882 -1.97358 -3.3881 0
M  V30 5787 H 552.372 -1.19596 -4.00108 0
M  V30 5788 N 552.809 0.956637 -1.25245 0
M  V30 5789 C 554.055 1.70352 -1.10036 0
M  V30 5790 C 554.388 1.90869 0.358156 0
M  V30 5791 O 553.663 1.47819 1.26411 0
M  V30 5792 C 553.946 3.08766 -1.85298 0
M  V30 5793 C 553.799 2.95672 -3.38966 0
M  V30 5794 C 555.118 4.08622 -1.63451 0
M  V30 5795 H 552.237 0.618279 -0.401123 0
M  V30 5796 H 554.879 1.11212 -1.54051 0
M  V30 5797 H 553.029 3.59252 -1.47887 0
M  V30 5798 H 554.701 2.52527 -3.86041 0
M  V30 5799 H 552.944 2.31634 -3.6678 0
M  V30 5800 H 553.615 3.93776 -3.86839 0
M  V30 5801 H 556.091 3.67038 -1.96015 0
M  V30 5802 H 554.967 5.03514 -2.18551 0
M  V30 5803 H 555.228 4.3834 -0.575357 0
M  V30 5804 N 554.287 1.06798 1.15896 0
M  V30 5805 C 555.536 0.782796 1.8589 0
M  V30 5806 C 555.849 -0.693498 1.82893 0
M  V30 5807 O 557.055 -1.09325 2.48516 0
M  V30 5808 C 555.511 1.3502 3.33613 0
M  V30 5809 C 555.119 2.8571 3.45071 0
M  V30 5810 C 556.863 1.14278 4.08829 0
M  V30 5811 C 554.77 3.35669 4.86909 0
M  V30 5812 H 553.7 0.289149 0.696354 0
M  V30 5813 H 556.351 1.28734 1.30766 0
M  V30 5814 H 554.733 0.773407 3.88374 0
M  V30 5815 H 555.907 3.49385 3.00445 0
M  V30 5816 H 554.222 3.05178 2.83294 0
M  V30 5817 H 556.819 1.49087 5.13495 0
M  V30 5818 H 557.162 0.0814575 4.1622 0
M  V30 5819 H 557.695 1.68563 3.60321 0
M  V30 5820 H 554.434 4.41302 4.84698 0
M  V30 5821 H 553.954 2.76745 5.32139 0
M  V30 5822 H 555.633 3.31296 5.55745 0
M  V30 5823 N 555.766 -1.3263 0.851289 0
M  V30 5824 C 557.043 -1.91982 0.374448 0
M  V30 5825 C 557.423 -1.77568 -1.14161 0
M  V30 5826 O 556.771 -1.1717 -1.96172 0
M  V30 5827 C 556.981 -3.38862 0.835088 0
M  V30 5828 C 558.329 -4.15999 0.850309 0
M  V30 5829 O 559.353 -3.47566 0.779505 0
M  V30 5830 O 558.212 -5.38189 0.949481 0
M  V30 5831 H 555.306 -0.819846 0.10854 0
M  V30 5832 H 557.852 -1.41422 0.937966 0
M  V30 5833 H 556.624 -3.43281 1.87814 0
M  V30 5834 H 556.247 -3.96821 0.248833 0
M  V30 5835 N 557.244 -0.608902 -1.45362 0
M  V30 5836 C 558.469 -0.10921 -2.07112 0
M  V30 5837 C 558.894 1.19779 -1.45033 0
M  V30 5838 O 558.252 1.72961 -0.543527 0
M  V30 5839 C 558.3 0.0155745 -3.60597 0
M  V30 5840 O 557.404 1.06546 -3.98399 0
M  V30 5841 H 556.745 -0.0746619 -0.659789 0
M  V30 5842 H 559.275 -0.839283 -1.86594 0
M  V30 5843 H 559.285 0.213364 -4.07442 0
M  V30 5844 H 557.96 -0.938765 -4.05167 0
M  V30 5845 H 556.537 0.844024 -3.63223 0
M  V30 5846 N 558.722 1.53707 -0.348139 0
M  V30 5847 C 559.669 2.25173 0.506518 0
M  V30 5848 C 560.639 1.25174 1.09182 0
M  V30 5849 O 561.824 1.53917 1.12757 0
M  V30 5850 C 558.964 3.03141 1.64923 0
M  V30 5851 C 558.077 4.18002 1.0908 0
M  V30 5852 C 557.212 4.83447 2.20119 0
M  V30 5853 C 556.251 5.90369 1.61651 0
M  V30 5854 N 555.388 6.49575 2.66451 0
M  V30 5855 H 560.228 2.97799 -0.109452 0
M  V30 5856 H 557.765 1.46953 -0.0657866 0
M  V30 5857 H 559.723 3.46607 2.32205 0
M  V30 5858 H 558.353 2.32803 2.23612 0
M  V30 5859 H 557.405 3.79145 0.308783 0
M  V30 5860 H 558.717 4.94892 0.623178 0
M  V30 5861 H 557.871 5.30008 2.95257 0
M  V30 5862 H 556.61 4.05991 2.70227 0
M  V30 5863 H 555.615 5.43186 0.850209 0
M  V30 5864 H 556.84 6.69735 1.1239 0
M  V30 5865 H 554.786 5.74981 3.15805 0
M  V30 5866 H 554.703 7.21952 2.24325 0
M  V30 5867 H 555.971 7.00789 3.41344 0
M  V30 5868 N 560.2 0.0768682 1.57412 0
M  V30 5869 C 561.477 -0.632359 1.85096 0
M  V30 5870 C 561.857 -1.87479 0.9703 0
M  V30 5871 O 561.205 -2.28469 0.0379062 0
M  V30 5872 C 561.415 -0.965174 3.35388 0
M  V30 5873 C 562.763 -1.33648 4.03018 0
M  V30 5874 O 563.787 -1.05675 3.40164 0
M  V30 5875 O 562.646 -1.85959 5.13889 0
M  V30 5876 H 559.74 -0.314574 0.764835 0
M  V30 5877 H 562.286 0.108184 1.69355 0
M  V30 5878 H 561.058 -0.0829745 3.91212 0
M  V30 5879 H 560.681 -1.76231 3.5641 0
M  V30 5880 N 561.678 -1.56367 -0.196722 0
M  V30 5881 C 563.094 -1.49916 -0.54749 0
M  V30 5882 C 563.294 -0.77659 -1.85934 0
M  V30 5883 O 562.35 -0.32644 -2.50381 0
M  V30 5884 C 563.663 -2.94577 -0.603734 0
M  V30 5885 C 565.211 -3.05239 -0.692677 0
M  V30 5886 C 565.686 -4.51308 -0.780046 0
M  V30 5887 N 567.177 -4.55453 -0.843616 0
M  V30 5888 C 567.912 -5.65786 -0.931358 0
M  V30 5889 N 567.408 -6.85812 -0.981503 0
M  V30 5890 N 569.201 -5.53695 -0.968421 0
M  V30 5891 H 561.352 -2.01761 0.663803 0
M  V30 5892 H 563.615 -0.918094 0.236238 0
M  V30 5893 H 563.321 -3.50494 0.29105 0
M  V30 5894 H 563.195 -3.47841 -1.45898 0
M  V30 5895 H 565.582 -2.49372 -1.57789 0
M  V30 5896 H 565.663 -2.55103 0.188736 0
M  V30 5897 H 565.307 -5.078 0.100811 0
M  V30 5898 H 565.237 -4.99176 -1.67724 0
M  V30 5899 H 567.728 -3.69025 -0.814176 0
M  V30 5900 H 568.041 -7.65648 -1.04892 0
M  V30 5901 H 566.386 -6.88474 -0.950208 0
M  V30 5902 H 569.577 -4.58848 -0.926072 0
M  V30 5903 H 569.75 -6.39708 -1.03334 0
M  V30 5904 N 563.156 0.464375 -1.50603 0
M  V30 5905 C 564.572 0.798684 -1.38178 0
M  V30 5906 C 564.772 1.96568 -0.44308 0
M  V30 5907 O 563.828 2.52252 0.111814 0
M  V30 5908 C 565.141 1.10444 -2.79683 0
M  V30 5909 C 566.689 1.2105 -2.88645 0
M  V30 5910 C 567.164 1.54934 -4.30998 0
M  V30 5911 N 568.655 1.61913 -4.3398 0
M  V30 5912 C 569.39 1.8965 -5.41129 0
M  V30 5913 N 568.886 2.15361 -6.58477 0
M  V30 5914 N 570.679 1.91207 -5.28579 0
M  V30 5915 H 562.83 -0.304603 -2.10204 0
M  V30 5916 H 565.093 -0.0737804 -0.945125 0
M  V30 5917 H 564.799 0.319934 -3.50242 0
M  V30 5918 H 564.673 2.03896 -3.17342 0
M  V30 5919 H 567.06 1.98567 -2.18301 0
M  V30 5920 H 567.141 0.255613 -2.5452 0
M  V30 5921 H 566.785 0.779549 -5.01882 0
M  V30 5922 H 566.715 2.51584 -4.62615 0
M  V30 5923 H 569.206 1.44055 -3.49366 0
M  V30 5924 H 569.519 2.35818 -7.35941 0
M  V30 5925 H 567.864 2.1274 -6.6164 0
M  V30 5926 H 571.055 1.70622 -4.35897 0
M  V30 5927 H 571.228 2.12488 -6.12171 0
M  V30 5928 N 564.634 1.40294 0.718013 0
M  V30 5929 C 565.564 1.43118 1.84498 0
M  V30 5930 C 566.545 0.292403 1.67568 0
M  V30 5931 O 567.73 0.500675 1.87635 0
M  V30 5932 C 564.86 1.29065 3.22427 0
M  V30 5933 C 563.814 2.40521 3.54025 0
M  V30 5934 C 563.14 2.11546 4.91073 0
M  V30 5935 C 564.44 3.82859 3.55269 0
M  V30 5936 H 566.134 2.37432 1.82391 0
M  V30 5937 H 563.68 1.14283 0.87609 0
M  V30 5938 H 565.633 1.29658 4.00957 0
M  V30 5939 H 564.357 0.312271 3.25104 0
M  V30 5940 H 563.016 2.39173 2.77834 0
M  V30 5941 H 562.664 1.12104 4.90348 0
M  V30 5942 H 562.364 2.86216 5.1318 0
M  V30 5943 H 563.888 2.13817 5.71939 0
M  V30 5944 H 565.302 3.86044 4.23843 0
M  V30 5945 H 563.699 4.57029 3.88902 0
M  V30 5946 H 564.769 4.12617 2.54706 0
M  V30 5947 N 566.112 -0.949982 1.2575 0
M  V30 5948 C 567.337 -1.73503 1.13628 0
M  V30 5949 C 567.762 -1.85601 -0.30559 0
M  V30 5950 O 567.12 -1.33984 -1.22139 0
M  V30 5951 C 567.168 -3.1243 1.80055 0
M  V30 5952 O 566.272 -3.97916 1.08336 0
M  V30 5953 H 565.613 -0.532665 0.396439 0
M  V30 5954 H 568.143 -1.19043 1.66403 0
M  V30 5955 H 568.153 -3.62866 1.86527 0
M  V30 5956 H 566.828 -3.02941 2.84956 0
M  V30 5957 H 565.405 -3.56375 1.09777 0
M  V30 5958 N 567.59 -1.07411 -1.15328 0
M  V30 5959 C 568.553 -0.698914 -2.18284 0
M  V30 5960 C 569.553 0.261149 -1.58665 0
M  V30 5961 O 570.743 0.0420277 -1.74149 0
M  V30 5962 C 567.875 -0.0302427 -3.40887 0
M  V30 5963 H 569.068 -1.61045 -2.52991 0
M  V30 5964 H 566.621 -0.870724 -1.298 0
M  V30 5965 H 567.356 0.893505 -3.11748 0
M  V30 5966 H 567.141 -0.720759 -3.85419 0
M  V30 5967 H 568.631 0.21759 -4.17033 0
M  V30 5968 N 569.068 1.32177 -0.85831 0
M  V30 5969 C 569.998 2.31282 -0.321041 0
M  V30 5970 C 570.979 1.59841 0.581786 0
M  V30 5971 O 572.164 1.87619 0.501262 0
M  V30 5972 C 569.294 3.4385 0.48832 0
M  V30 5973 C 568.248 4.26799 -0.320391 0
M  V30 5974 C 567.574 5.31164 0.613934 0
M  V30 5975 C 568.874 4.98829 -1.54813 0
M  V30 5976 H 570.568 2.76469 -1.14915 0
M  V30 5977 H 568.114 1.32916 -0.554028 0
M  V30 5978 H 570.067 4.12224 0.874626 0
M  V30 5979 H 568.791 2.97401 1.34983 0
M  V30 5980 H 567.45 3.60077 -0.688497 0
M  V30 5981 H 567.098 4.80967 1.47239 0
M  V30 5982 H 566.798 5.8755 0.0768097 0
M  V30 5983 H 568.322 6.024 0.997336 0
M  V30 5984 H 569.736 5.59864 -1.23392 0
M  V30 5985 H 568.133 5.64957 -2.02346 0
M  V30 5986 H 569.203 4.26483 -2.30739 0
M  V30 5987 N 570.547 0.616602 1.45037 0
M  V30 5988 C 571.793 0.115501 2.02471 0
M  V30 5989 C 572.126 -1.25406 1.4828 0
M  V30 5990 O 571.401 -1.82922 0.661051 0
M  V30 5991 C 571.684 0.0863588 3.59996 0
M  V30 5992 C 571.537 1.48723 4.24501 0
M  V30 5993 C 572.856 -0.596762 4.36035 0
M  V30 5994 H 569.975 0.0434461 0.735718 0
M  V30 5995 H 572.617 0.7903 1.72784 0
M  V30 5996 H 570.767 -0.488277 3.85419 0
M  V30 5997 H 572.439 2.10964 4.10234 0
M  V30 5998 H 570.682 2.04534 3.82555 0
M  V30 5999 H 571.353 1.419 5.3345 0
M  V30 6000 H 573.829 -0.10824 4.15959 0
M  V30 6001 H 572.705 -0.586289 5.4576 0
M  V30 6002 H 572.966 -1.66451 4.09569 0
M  V30 6003 N 572.025 -1.5352 0.356285 0
M  V30 6004 C 573.302 -1.93405 -0.292223 0
M  V30 6005 C 573.682 -1.28901 -1.67176 0
M  V30 6006 O 573.03 -0.444632 -2.24132 0
M  V30 6007 C 573.24 -3.47223 -0.35175 0
M  V30 6008 C 574.588 -4.20389 -0.596534 0
M  V30 6009 O 575.612 -3.53554 -0.433344 0
M  V30 6010 O 574.471 -5.3881 -0.913589 0
M  V30 6011 H 571.565 -0.808666 -0.173172 0
M  V30 6012 H 574.111 -1.64713 0.408391 0
M  V30 6013 H 572.883 -3.86423 0.615841 0
M  V30 6014 H 572.506 -3.8212 -1.09864 0
M  V30 6015 N 573.503 -0.0852151 -1.57369 0
M  V30 6016 C 574.749 0.581666 -1.94279 0
M  V30 6017 C 575.082 1.68444 -0.966446 0
M  V30 6018 O 574.357 1.945 0.00215277 0
M  V30 6019 C 574.64 1.14609 -3.41375 0
M  V30 6020 C 574.493 0.0490414 -4.49773 0
M  V30 6021 C 575.812 2.04751 -3.8957 0
M  V30 6022 H 572.931 0.209972 -0.706456 0
M  V30 6023 H 575.573 -0.153915 -1.89376 0
M  V30 6024 H 573.723 1.77297 -3.45685 0
M  V30 6025 H 575.395 -0.584721 -4.57579 0
M  V30 6026 H 573.638 -0.618638 -4.29366 0
M  V30 6027 H 574.309 0.484601 -5.49869 0
M  V30 6028 H 576.785 1.51981 -3.87351 0
M  V30 6029 H 575.661 2.41173 -4.93079 0
M  V30 6030 H 575.922 2.96107 -3.28288 0
M  V30 6031 N 574.981 1.5647 0.188427 0
M  V30 6032 C 576.229 1.80655 0.905986 0
M  V30 6033 C 576.55 0.659391 1.83513 0
M  V30 6034 O 575.82 -0.321868 1.93238 0
M  V30 6035 H 574.4 0.666391 0.337538 0
M  V30 6036 H 577.062 1.93949 0.192339 0
M  V30 6037 H 576.158 2.74066 1.49313 0
M  V30 6038 N 576.459 -0.456382 1.50847 0
M  V30 6039 C 577.406 -1.55249 1.70782 0
M  V30 6040 C 578.376 -1.56757 0.549231 0
M  V30 6041 O 579.561 -1.74061 0.7815 0
M  V30 6042 C 576.701 -2.93118 1.82143 0
M  V30 6043 C 575.814 -3.01285 3.09598 0
M  V30 6044 C 574.949 -4.30159 3.11667 0
M  V30 6045 C 573.988 -4.32124 4.33515 0
M  V30 6046 N 573.125 -5.52492 4.3324 0
M  V30 6047 H 577.965 -1.37555 2.64353 0
M  V30 6048 H 575.502 -0.668543 1.3103 0
M  V30 6049 H 577.46 -3.73088 1.86711 0
M  V30 6050 H 576.09 -3.09413 0.919978 0
M  V30 6051 H 575.142 -2.14096 3.14431 0
M  V30 6052 H 576.454 -2.98597 3.99551 0
M  V30 6053 H 575.608 -5.18489 3.15046 0
M  V30 6054 H 574.347 -4.35477 2.1957 0
M  V30 6055 H 573.352 -3.42189 4.30333 0
M  V30 6056 H 574.577 -4.28485 5.26856 0
M  V30 6057 H 572.523 -5.58567 3.44004 0
M  V30 6058 H 572.44 -5.51605 5.16979 0
M  V30 6059 H 573.708 -6.42906 4.40786 0
M  V30 6060 N 577.937 -1.40673 -0.710563 0
M  V30 6061 C 579.165 -1.42547 -1.4996 0
M  V30 6062 C 579.58 -0.0265485 -1.88781 0
M  V30 6063 O 578.937 0.950694 -1.55782 0
M  V30 6064 C 578.988 -2.32071 -2.77173 0
M  V30 6065 O 578.709 -3.66518 -2.39992 0
M  V30 6066 C 580.21 -2.42591 -3.71032 0
M  V30 6067 H 577.43 -0.486025 -0.462623 0
M  V30 6068 H 579.974 -1.84783 -0.876102 0
M  V30 6069 H 578.129 -1.93184 -3.35795 0
M  V30 6070 H 578.543 -4.14115 -3.21884 0
M  V30 6071 H 580.017 -3.09429 -4.57119 0
M  V30 6072 H 580.494 -1.4525 -4.14486 0
M  V30 6073 H 581.1 -2.82051 -3.18319 0
M  V30 6074 N 579.415 0.9433 -1.26252 0
M  V30 6075 C 580.826 1.50404 -1.10614 0
M  V30 6076 C 581.177 1.93666 0.31429 0
M  V30 6077 O 580.302 1.79709 1.20555 0
M  V30 6078 C 580.897 2.73336 -2.00182 0
M  V30 6079 C 579.456 3.25686 -1.88695 0
M  V30 6080 C 578.603 1.98474 -1.93658 0
M  V30 6081 H 581.554 0.759006 -1.39373 0
M  V30 6082 H 581.575 3.47567 -1.54847 0
M  V30 6083 H 581.087 2.41818 -3.03555 0
M  V30 6084 H 579.188 3.61998 -0.882489 0
M  V30 6085 H 579.301 3.92935 -2.74115 0
M  V30 6086 H 577.665 2.14278 -1.37684 0
M  V30 6087 H 578.448 1.6929 -2.98657 0
M  V30 6088 N 580.893 1.08022 1.14757 0
M  V30 6089 C 581.843 0.676345 2.17737 0
M  V30 6090 C 582.827 -0.302018 1.5804 0
M  V30 6091 O 584.019 -0.11466 1.76628 0
M  V30 6092 C 581.148 0.082984 3.432 0
M  V30 6093 C 580.234 1.0869 4.09936 0
M  V30 6094 N 580.625 2.26891 4.52055 0
M  V30 6095 C 578.923 0.921768 4.36371 0
M  V30 6096 C 579.624 2.90636 5.0389 0
M  V30 6097 N 578.6 2.18266 4.97856 0
M  V30 6098 H 582.402 1.5765 2.4804 0
M  V30 6099 H 579.916 0.954374 1.31398 0
M  V30 6100 H 581.913 -0.224289 4.16296 0
M  V30 6101 H 580.573 -0.812206 3.14378 0
M  V30 6102 H 581.584 2.6457 4.45223 0
M  V30 6103 H 578.261 0.0800499 4.17423 0
M  V30 6104 H 579.651 3.9104 5.46386 0
M  V30 6105 N 582.371 -1.3172 0.865308 0
M  V30 6106 C 583.782 -1.79104 0.527126 0
M  V30 6107 C 584.133 -1.7135 -0.955695 0
M  V30 6108 O 583.258 -1.27845 -1.74598 0
M  V30 6109 C 583.853 -3.25207 0.950061 0
M  V30 6110 C 582.412 -3.70504 0.663611 0
M  V30 6111 C 581.559 -2.52605 1.14395 0
M  V30 6112 H 584.51 -1.18868 1.05148 0
M  V30 6113 H 584.531 -3.79535 0.270805 0
M  V30 6114 H 584.043 -3.30818 2.02931 0
M  V30 6115 H 582.144 -3.70398 -0.404474 0
M  V30 6116 H 582.257 -4.62845 1.23737 0
M  V30 6117 H 580.621 -2.4838 0.563859 0
M  V30 6118 H 581.404 -2.60964 2.23053 0
M  V30 6119 N 583.85 -0.624285 -1.44708 0
M  V30 6120 C 585.098 -0.125802 -2.01708 0
M  V30 6121 C 585.418 1.2543 -1.49306 0
M  V30 6122 O 584.689 1.83198 -0.693924 0
M  V30 6123 H 583.269 -0.0435161 -0.745731 0
M  V30 6124 H 585.931 -0.809446 -1.77296 0
M  V30 6125 H 585.027 -0.0882734 -3.11975 0
M  V30 6126 N 585.328 1.53329 -0.364422 0
M  V30 6127 C 586.744 1.59594 -0.0133165 0
M  V30 6128 C 586.944 1.37959 1.46865 0
M  V30 6129 O 586 1.18418 2.2301 0
M  V30 6130 C 587.313 2.97032 -0.468213 0
M  V30 6131 C 588.861 3.10138 -0.422334 0
M  V30 6132 C 589.336 4.49986 -0.853024 0
M  V30 6133 N 590.827 4.56098 -0.808037 0
M  V30 6134 C 591.562 5.62495 -1.11299 0
M  V30 6135 N 591.058 6.7665 -1.48717 0
M  V30 6136 N 592.851 5.52473 -1.03586 0
M  V30 6137 H 585.002 1.65644 -1.32951 0
M  V30 6138 H 587.265 0.77684 -0.543345 0
M  V30 6139 H 586.971 3.18 -1.5023 0
M  V30 6140 H 586.845 3.76918 0.145775 0
M  V30 6141 H 589.232 2.88881 0.602622 0
M  V30 6142 H 589.313 2.32263 -1.0718 0
M  V30 6143 H 588.957 4.7198 -1.87609 0
M  V30 6144 H 588.887 5.26289 -0.180819 0
M  V30 6145 H 591.378 3.74131 -0.532361 0
M  V30 6146 H 591.691 7.53776 -1.70415 0
M  V30 6147 H 590.036 6.78044 -1.52581 0
M  V30 6148 H 593.227 4.6217 -0.742736 0
M  V30 6149 H 593.4 6.35295 -1.27686 0
M  V30 6150 N 586.806 0.0935595 1.57322 0
M  V30 6151 C 588.054 -0.569383 1.93913 0
M  V30 6152 C 588.375 -1.68817 0.976009 0
M  V30 6153 O 587.645 -1.9588 0.0278099 0
M  V30 6154 H 586.225 -0.21332 0.715894 0
M  V30 6155 H 588.887 0.156531 1.9427 0
M  V30 6156 H 587.983 -0.980577 2.96296 0
M  V30 6157 N 588.284 -1.56567 -0.180126 0
M  V30 6158 C 589.247 -1.94852 -1.20686 0
M  V30 6159 C 590.247 -0.831212 -1.3765 0
M  V30 6160 O 591.437 -1.09841 -1.35206 0
M  V30 6161 C 588.569 -2.23565 -2.57355 0
M  V30 6162 H 589.762 -2.86722 -0.879225 0
M  V30 6163 H 587.315 -1.50489 -0.422237 0
M  V30 6164 H 588.05 -1.34381 -2.95148 0
M  V30 6165 H 587.835 -3.04999 -2.46411 0
M  V30 6166 H 589.325 -2.54137 -3.31367 0
M  V30 6167 N 589.762 0.448376 -1.51087 0
M  V30 6168 C 590.71 1.56407 -1.72161 0
M  V30 6169 C 591.704 1.58878 -0.587721 0
M  V30 6170 O 592.91 1.62755 -0.768822 0
M  V30 6171 H 589.285 0.519423 -0.543786 0
M  V30 6172 H 591.256 1.35803 -2.65707 0
M  V30 6173 C 590.005 2.94163 -1.85373 0
M  V30 6174 H 589.328 2.9299 -2.72024 0
M  V30 6175 H 590.768 3.71625 -2.04135 0
M  V30 6176 C 589.227 3.31317 -0.610803 0
M  V30 6177 O 589.757 4.00985 0.239636 0
M  V30 6178 N 587.963 2.86966 -0.458127 0
M  V30 6179 H 587.51 2.30443 -1.15124 0
M  V30 6180 H 587.468 3.12188 0.372289 0
M  V30 6181 N 591.24 1.41047 0.703093 0
M  V30 6182 C 592.487 1.4 1.46309 0
M  V30 6183 C 592.815 0.00654574 1.94499 0
M  V30 6184 O 592.07 -0.980255 1.6938 0
M  V30 6185 C 592.369 2.34686 2.6955 0
M  V30 6186 C 592.035 3.81684 2.40058 0
M  V30 6187 C 590.697 4.21731 2.31725 0
M  V30 6188 C 593.049 4.74525 2.15581 0
M  V30 6189 C 590.377 5.52637 1.97001 0
M  V30 6190 C 592.729 6.05744 1.82366 0
M  V30 6191 C 591.393 6.44819 1.72524 0
M  V30 6192 H 590.663 0.512295 0.535382 0
M  V30 6193 H 593.31 1.73792 0.804275 0
M  V30 6194 H 591.615 1.94122 3.40329 0
M  V30 6195 H 593.312 2.31152 3.27673 0
M  V30 6196 H 589.902 3.49963 2.47435 0
M  V30 6197 H 594.086 4.44395 2.20968 0
M  V30 6198 H 589.342 5.81802 1.87928 0
M  V30 6199 H 593.516 6.77189 1.62444 0
M  V30 6200 H 591.143 7.46168 1.45385 0
M  V30 6201 N 592.718 -0.936591 1.26751 0
M  V30 6202 C 593.964 -1.6858 1.12733 0
M  V30 6203 C 594.297 -1.91414 -0.327745 0
M  V30 6204 O 593.572 -1.49812 -1.24043 0
M  V30 6205 C 593.855 -3.05779 1.90187 0
M  V30 6206 C 593.708 -2.90242 3.43627 0
M  V30 6207 C 595.027 -4.0597 1.69931 0
M  V30 6208 H 592.146 -0.61182 0.410908 0
M  V30 6209 H 594.788 -1.08747 1.55801 0
M  V30 6210 H 592.938 -3.56853 1.53584 0
M  V30 6211 H 594.61 -2.46354 3.9001 0
M  V30 6212 H 592.853 -2.2577 3.70419 0
M  V30 6213 H 593.524 -3.87572 3.93055 0
M  V30 6214 H 596 -3.63874 2.0183 0
M  V30 6215 H 594.876 -4.99974 2.26534 0
M  V30 6216 H 595.137 -4.37369 0.64502 0
M  V30 6217 N 594.196 -1.08629 -1.14182 0
M  V30 6218 C 595.146 -0.687882 -2.17376 0
M  V30 6219 C 596.13 0.293632 -1.58198 0
M  V30 6220 O 597.322 0.105292 -1.76687 0
M  V30 6221 C 594.451 -0.101184 -3.43151 0
M  V30 6222 C 593.537 -1.10862 -4.09354 0
M  V30 6223 N 593.928 -2.29285 -4.50846 0
M  V30 6224 C 592.226 -0.944897 -4.35876 0
M  V30 6225 C 592.927 -2.93305 -5.02342 0
M  V30 6226 N 591.903 -2.20903 -4.96692 0
M  V30 6227 H 595.705 -1.58963 -2.472 0
M  V30 6228 H 593.219 -0.961329 -1.3089 0
M  V30 6229 H 595.216 0.202209 -4.16409 0
M  V30 6230 H 593.876 0.795522 -3.14804 0
M  V30 6231 H 594.887 -2.66927 -4.43813 0
M  V30 6232 H 591.564 -0.102186 -4.17375 0
M  V30 6233 H 592.954 -3.93932 -5.44304 0
M  V30 6234 N 595.674 1.31259 -0.872281 0
M  V30 6235 C 597.085 1.78822 -0.536617 0
M  V30 6236 C 597.436 1.71855 0.946594 0
M  V30 6237 O 596.561 1.28769 1.73918 0
M  V30 6238 C 597.156 3.24698 -0.967294 0
M  V30 6239 C 595.715 3.70147 -0.683251 0
M  V30 6240 C 594.862 2.51994 -1.15733 0
M  V30 6241 H 597.813 1.18308 -1.05777 0
M  V30 6242 H 597.834 3.79386 -0.290929 0
M  V30 6243 H 597.346 3.29737 -2.04683 0
M  V30 6244 H 595.447 3.70607 0.384825 0
M  V30 6245 H 595.56 4.62183 -1.2619 0
M  V30 6246 H 593.924 2.48078 -0.577024 0
M  V30 6247 H 594.707 2.59778 -2.24434 0
M  V30 6248 N 597.152 0.631951 1.44375 0
M  V30 6249 C 598.099 -0.0724807 2.30686 0
M  V30 6250 C 599.069 -0.835975 1.43529 0
M  V30 6251 O 600.254 -0.816849 1.7243 0
M  V30 6252 C 597.394 -1.04753 3.28817 0
M  V30 6253 C 596.507 -0.282367 4.31076 0
M  V30 6254 C 595.642 -1.2493 5.163 0
M  V30 6255 C 594.681 -0.473349 6.10267 0
M  V30 6256 N 593.818 -1.39079 6.88187 0
M  V30 6257 H 598.658 0.669477 2.90383 0
M  V30 6258 H 596.195 0.341927 1.43071 0
M  V30 6259 H 598.153 -1.62623 3.842 0
M  V30 6260 H 596.783 -1.75661 2.70819 0
M  V30 6261 H 595.835 0.412268 3.78159 0
M  V30 6262 H 597.147 0.321955 4.9776 0
M  V30 6263 H 596.301 -1.89931 5.76204 0
M  V30 6264 H 595.04 -1.88755 4.49692 0
M  V30 6265 H 594.045 0.190142 5.49471 0
M  V30 6266 H 595.27 0.16019 6.78911 0
M  V30 6267 H 593.216 -2.01623 6.24247 0
M  V30 6268 H 593.133 -0.840513 7.51313 0
M  V30 6269 H 594.401 -2.02961 7.52613 0
M  V30 6270 N 598.631 -1.53133 0.372548 0
M  V30 6271 C 599.861 -2.05476 -0.215202 0
M  V30 6272 C 600.269 -1.24534 -1.42436 0
M  V30 6273 O 599.612 -0.280771 -1.81542 0
M  V30 6274 C 599.674 -3.53276 -0.666068 0
M  V30 6275 C 599.338 -4.54998 0.427342 0
M  V30 6276 C 600.335 -5.03911 1.27944 0
M  V30 6277 C 598.02 -4.98828 0.589579 0
M  V30 6278 C 600.014 -5.95263 2.27905 0
M  V30 6279 C 597.701 -5.89984 1.59255 0
M  V30 6280 C 598.699 -6.38093 2.43571 0
M  V30 6281 O 598.387 -7.27451 3.42156 0
M  V30 6282 H 598.119 -0.67481 -0.040099 0
M  V30 6283 H 600.673 -1.98409 0.531312 0
M  V30 6284 H 598.903 -3.57904 -1.4643 0
M  V30 6285 H 600.592 -3.88442 -1.1776 0
M  V30 6286 H 601.358 -4.70792 1.16532 0
M  V30 6287 H 597.237 -4.60965 -0.0569456 0
M  V30 6288 H 600.781 -6.32736 2.93753 0
M  V30 6289 H 596.678 -6.22518 1.70711 0
M  V30 6290 H 597.446 -7.45467 3.37967 0
M  V30 6291 N 600.109 -0.101901 -1.5727 0
M  V30 6292 C 601.357 0.559091 -1.94213 0
M  V30 6293 C 601.678 1.68297 -0.984948 0
M  V30 6294 O 600.948 1.95863 -0.0381975 0
M  V30 6295 H 599.528 0.20952 -0.717015 0
M  V30 6296 H 602.19 -0.166831 -1.94185 0
M  V30 6297 H 601.286 0.96485 -2.96811 0
M  V30 6298 N 601.587 1.56661 0.17182 0
M  V30 6299 C 602.998 1.71652 0.734329 0
M  V30 6300 C 603.349 0.712335 1.82812 0
M  V30 6301 O 602.474 -0.126401 2.16031 0
M  V30 6302 C 603.069 3.11226 1.3388 0
M  V30 6303 C 601.628 3.27904 1.84813 0
M  V30 6304 C 600.775 2.67603 0.726917 0
M  V30 6305 H 603.726 1.5861 -0.0535665 0
M  V30 6306 H 603.747 3.09849 2.20849 0
M  V30 6307 H 603.259 3.8429 0.54249 0
M  V30 6308 H 601.36 2.59796 2.6709 0
M  V30 6309 H 601.473 4.35637 1.99392 0
M  V30 6310 H 599.837 2.274 1.14723 0
M  V30 6311 H 600.62 3.43252 -0.0575334 0
M  V30 6312 N 603.065 -0.440357 1.51323 0
M  V30 6313 C 604.311 -1.19181 1.64085 0
M  V30 6314 C 604.644 -1.90936 0.354575 0
M  V30 6315 O 603.919 -1.8347 -0.645675 0
M  V30 6316 C 604.202 -2.2112 2.84215 0
M  V30 6317 C 604.055 -1.53468 4.22809 0
M  V30 6318 C 605.374 -3.22133 2.99864 0
M  V30 6319 H 602.493 -0.431924 0.597169 0
M  V30 6320 H 605.135 -0.481443 1.83799 0
M  V30 6321 H 603.285 -2.81703 2.67537 0
M  V30 6322 H 604.957 -0.962455 4.51148 0
M  V30 6323 H 603.2 -0.837086 4.25647 0
M  V30 6324 H 603.871 -2.27694 5.02852 0
M  V30 6325 H 606.347 -2.71601 3.15233 0
M  V30 6326 H 605.223 -3.90756 3.85488 0
M  V30 6327 H 605.484 -3.88061 2.11804 0
M  V30 6328 N 604.543 -1.41418 -0.695603 0
M  V30 6329 C 605.789 -1.41983 -1.45645 0
M  V30 6330 C 606.144 -0.0282216 -1.92379 0
M  V30 6331 O 605.437 0.945916 -1.66622 0
M  V30 6332 C 605.631 -2.36112 -2.68302 0
M  V30 6333 C 605.46 -3.84288 -2.33566 0
M  V30 6334 C 604.23 -4.52971 -2.23932 0
M  V30 6335 C 606.428 -4.75264 -1.96543 0
M  V30 6336 N 604.41 -5.86276 -1.82081 0
M  V30 6337 C 605.781 -5.97517 -1.6545 0
M  V30 6338 C 607.836 -4.62911 -1.83352 0
M  V30 6339 C 606.539 -7.08793 -1.22492 0
M  V30 6340 C 608.565 -5.74149 -1.41799 0
M  V30 6341 C 607.927 -6.95501 -1.11617 0
M  V30 6342 H 604.026 -0.574771 -0.530247 0
M  V30 6343 H 606.61 -1.77289 -0.804788 0
M  V30 6344 H 604.781 -2.02902 -3.31188 0
M  V30 6345 H 606.513 -2.27397 -3.34773 0
M  V30 6346 H 603.268 -4.06909 -2.42327 0
M  V30 6347 H 603.692 -6.56926 -1.63638 0
M  V30 6348 H 608.334 -3.69588 -2.05341 0
M  V30 6349 H 606.052 -8.01982 -0.992482 0
M  V30 6350 H 609.638 -5.66595 -1.32143 0
M  V30 6351 H 608.518 -7.80114 -0.799493 0
M  V30 6352 N 606.021 0.929856 -1.27246 0
M  V30 6353 C 607.246 1.71674 -1.16374 0
M  V30 6354 C 607.671 1.86064 0.276024 0
M  V30 6355 O 607.029 1.3591 1.19992 0
M  V30 6356 C 607.077 3.09526 -1.85003 0
M  V30 6357 O 606.181 3.96142 -1.14653 0
M  V30 6358 H 605.522 0.52629 -0.404863 0
M  V30 6359 H 608.052 1.16381 -1.68276 0
M  V30 6360 H 608.062 3.59852 -1.92276 0
M  V30 6361 H 606.737 2.98369 -2.89739 0
M  V30 6362 H 605.314 3.54584 -1.15433 0
M  V30 6363 N 607.499 1.09233 1.13605 0
M  V30 6364 C 608.727 0.848908 1.88683 0
M  V30 6365 C 609.142 -0.599667 1.79024 0
M  V30 6366 O 608.499 -1.41265 1.15544 0
M  V30 6367 C 608.55 1.27273 3.38355 0
M  V30 6368 O 608.271 2.66449 3.47759 0
M  V30 6369 C 609.772 1.0614 4.30406 0
M  V30 6370 H 606.992 0.305549 0.597395 0
M  V30 6371 H 609.536 1.4538 1.43823 0
M  V30 6372 H 607.691 0.711776 3.80805 0
M  V30 6373 H 608.105 2.84264 4.40788 0
M  V30 6374 H 609.579 1.40725 5.33761 0
M  V30 6375 H 610.056 -0.000960332 4.392 0
M  V30 6376 H 610.662 1.60821 3.93722 0
M  V30 6377 N 608.977 -1.30795 0.87923 0
M  V30 6378 C 610.202 -2.01063 0.508769 0
M  V30 6379 C 610.627 -1.65508 -0.893803 0
M  V30 6380 O 609.985 -0.868616 -1.59138 0
M  V30 6381 C 610.033 -3.54054 0.683991 0
M  V30 6382 O 609.137 -4.11498 -0.272654 0
M  V30 6383 H 608.478 -0.632786 0.201191 0
M  V30 6384 H 611.008 -1.66776 1.18519 0
M  V30 6385 H 611.018 -4.03845 0.580798 0
M  V30 6386 H 609.693 -3.79271 1.70665 0
M  V30 6387 H 608.27 -3.72695 -0.12364 0
M  V30 6388 N 610.455 -0.639598 -1.44038 0
M  V30 6389 C 611.405 0.0823038 -2.27851 0
M  V30 6390 C 612.389 0.807991 -1.39141 0
M  V30 6391 O 613.581 0.692702 -1.62882 0
M  V30 6392 C 610.71 1.05742 -3.26609 0
M  V30 6393 C 609.796 0.330911 -4.22807 0
M  V30 6394 N 610.187 -0.645126 -5.01669 0
M  V30 6395 C 608.485 0.574214 -4.42288 0
M  V30 6396 C 609.186 -1.07513 -5.71678 0
M  V30 6397 N 608.162 -0.412164 -5.42035 0
M  V30 6398 H 611.964 -0.666861 -2.86234 0
M  V30 6399 H 609.478 -0.465777 -1.55577 0
M  V30 6400 H 611.475 1.58927 -3.85419 0
M  V30 6401 H 610.135 1.80679 -2.69787 0
M  V30 6402 H 611.146 -1.02329 -5.0769 0
M  V30 6403 H 607.823 1.30581 -3.96554 0
M  V30 6404 H 609.213 -1.88196 -6.45005 0
M  V30 6405 N 611.933 1.52934 -0.380664 0
M  V30 6406 C 612.863 2.29118 0.450268 0
M  V30 6407 C 613.844 1.32153 1.07096 0
M  V30 6408 O 615.029 1.61038 1.08537 0
M  V30 6409 C 612.159 3.09161 1.58231 0
M  V30 6410 C 611.113 4.13938 1.0881 0
M  V30 6411 C 610.439 4.82153 2.31155 0
M  V30 6412 C 611.739 5.22048 0.162146 0
M  V30 6413 H 613.433 2.98826 -0.185361 0
M  V30 6414 H 610.979 1.43715 -0.0905886 0
M  V30 6415 H 612.932 3.61211 2.17036 0
M  V30 6416 H 611.656 2.3717 2.2454 0
M  V30 6417 H 610.315 3.62855 0.522633 0
M  V30 6418 H 609.963 4.06719 2.95953 0
M  V30 6419 H 609.663 5.52966 1.98752 0
M  V30 6420 H 611.187 5.37004 2.90618 0
M  V30 6421 H 612.601 5.6951 0.658126 0
M  V30 6422 H 610.998 6.00057 -0.0717122 0
M  V30 6423 H 612.068 4.78398 -0.791438 0
M  V30 6424 N 613.412 0.11024 1.57214 0
M  V30 6425 C 614.66 -0.548783 1.94506 0
M  V30 6426 C 614.981 -1.67772 0.99386 0
M  V30 6427 O 614.251 -1.9584 0.0485841 0
M  V30 6428 H 612.831 -0.205715 0.718116 0
M  V30 6429 H 615.493 0.177127 1.94093 0
M  V30 6430 H 614.589 -0.949096 2.97319 0
M  V30 6431 N 614.89 -1.56749 -0.16351 0
M  V30 6432 C 616.167 -1.73321 -0.906599 0
M  V30 6433 C 616.547 -0.673779 -2.00059 0
M  V30 6434 O 615.895 0.310121 -2.26386 0
M  V30 6435 C 616.105 -3.168 -1.46419 0
M  V30 6436 C 617.453 -3.77993 -1.93407 0
M  V30 6437 O 618.477 -3.20127 -1.56196 0
M  V30 6438 O 617.336 -4.79615 -2.61976 0
M  V30 6439 H 614.43 -0.708073 -0.427272 0
M  V30 6440 H 616.976 -1.69029 -0.150727 0
M  V30 6441 H 615.748 -3.85396 -0.677189 0
M  V30 6442 H 615.371 -3.2545 -2.28403 0
M  V30 6443 N 616.368 0.432326 -1.51554 0
M  V30 6444 C 617.616 1.17901 -1.64146 0
M  V30 6445 C 617.937 1.91604 -0.362367 0
M  V30 6446 O 617.207 1.85764 0.621968 0
M  V30 6447 H 615.787 0.438206 -0.604966 0
M  V30 6448 H 618.449 0.495172 -1.88505 0
M  V30 6449 H 617.545 1.90584 -2.47152 0
M  V30 6450 N 617.846 1.41785 0.688094 0
M  V30 6451 C 619.071 1.45117 1.48175 0
M  V30 6452 C 619.496 0.060129 1.88004 0
M  V30 6453 O 618.854 -0.938385 1.55126 0
M  V30 6454 C 618.902 2.37224 2.71583 0
M  V30 6455 O 618.006 1.83443 3.69354 0
M  V30 6456 H 617.347 0.492208 0.445676 0
M  V30 6457 H 619.877 1.86329 0.845145 0
M  V30 6458 H 619.887 2.53353 3.19806 0
M  V30 6459 H 618.562 3.38293 2.41931 0
M  V30 6460 H 617.139 1.76802 3.28322 0
M  V30 6461 N 619.324 -0.923095 1.27737 0
M  V30 6462 C 620.573 -1.66581 1.13727 0
M  V30 6463 C 620.886 -1.9304 -0.315433 0
M  V30 6464 O 622.092 -2.65309 -0.57651 0
M  V30 6465 C 620.548 -3.00047 1.98745 0
M  V30 6466 C 620.156 -2.8127 3.48699 0
M  V30 6467 C 621.9 -3.77887 1.93395 0
M  V30 6468 C 619.807 -4.1032 4.25901 0
M  V30 6469 H 618.737 -0.624834 0.422017 0
M  V30 6470 H 621.388 -1.02514 1.52194 0
M  V30 6471 H 619.77 -3.65197 1.53125 0
M  V30 6472 H 620.944 -2.24859 4.02213 0
M  V30 6473 H 619.259 -2.16854 3.55476 0
M  V30 6474 H 621.856 -4.73526 2.48348 0
M  V30 6475 H 622.199 -4.06264 0.908605 0
M  V30 6476 H 622.732 -3.19541 2.36935 0
M  V30 6477 H 619.471 -3.8712 5.28978 0
M  V30 6478 H 618.991 -4.66377 3.77163 0
M  V30 6479 H 620.67 -4.78648 4.35321 0
M  V30 6480 N 620.802 -1.09834 -1.13024 0
M  V30 6481 C 622.027 -0.85909 -1.88771 0
M  V30 6482 C 622.452 0.584402 -1.78791 0
M  V30 6483 O 621.81 1.41101 -1.13842 0
M  V30 6484 C 621.858 -1.30427 -3.36186 0
M  V30 6485 O 620.962 -0.465368 -4.09766 0
M  V30 6486 H 620.303 -0.310786 -0.586778 0
M  V30 6487 H 622.833 -1.46355 -1.42973 0
M  V30 6488 H 622.843 -1.2915 -3.8702 0
M  V30 6489 H 621.518 -2.3555 -3.42767 0
M  V30 6490 H 620.095 -0.542814 -3.68928 0
M  V30 6491 N 622.28 1.30327 -0.886154 0
M  V30 6492 C 623.21 2.30549 -0.370028 0
M  V30 6493 C 624.191 1.61039 0.547751 0
M  V30 6494 O 625.376 1.8864 0.461353 0
M  V30 6495 C 622.506 3.44808 0.415275 0
M  V30 6496 C 621.46 4.26024 -0.41085 0
M  V30 6497 C 620.786 5.32347 0.501128 0
M  V30 6498 C 622.086 4.95433 -1.65359 0
M  V30 6499 H 623.78 2.73969 -1.20754 0
M  V30 6500 H 621.326 1.3171 -0.582097 0
M  V30 6501 H 623.279 4.13986 0.78699 0
M  V30 6502 H 622.003 3.00197 1.28644 0
M  V30 6503 H 620.662 3.58535 -0.764719 0
M  V30 6504 H 620.31 4.83982 1.37004 0
M  V30 6505 H 620.01 5.87581 -0.0478356 0
M  V30 6506 H 621.534 6.0438 0.869333 0
M  V30 6507 H 622.948 5.5712 -1.35239 0
M  V30 6508 H 621.345 5.60537 -2.14284 0
M  V30 6509 H 622.415 4.21493 -2.39733 0
M  V30 6510 N 623.758 0.647228 1.43697 0
M  V30 6511 C 625.007 0.155552 2.01099 0
M  V30 6512 C 625.32 -1.23569 1.51624 0
M  V30 6513 O 626.526 -1.82226 2.01261 0
M  V30 6514 C 624.982 0.227296 3.59182 0
M  V30 6515 C 624.59 1.62086 4.17651 0
M  V30 6516 C 626.334 -0.207085 4.23995 0
M  V30 6517 C 624.241 1.64685 5.68008 0
M  V30 6518 H 623.171 0.0543895 0.752036 0
M  V30 6519 H 625.822 0.808386 1.64734 0
M  V30 6520 H 624.204 -0.492937 3.9292 0
M  V30 6521 H 625.378 2.36597 3.95422 0
M  V30 6522 H 623.693 2.0007 3.65186 0
M  V30 6523 H 626.29 -0.207426 5.34298 0
M  V30 6524 H 626.633 -1.23742 3.97484 0
M  V30 6525 H 627.166 0.461193 3.95118 0
M  V30 6526 H 623.905 2.65608 5.99277 0
M  V30 6527 H 623.425 0.944914 5.9231 0
M  V30 6528 H 625.104 1.38792 6.31938 0
M  V30 6529 N 625.236 -1.5273 0.388769 0
M  V30 6530 C 626.484 -2.01174 -0.193208 0
M  V30 6531 C 626.805 -1.27705 -1.47365 0
M  V30 6532 O 626.075 -0.396966 -1.91836 0
M  V30 6533 H 624.655 -0.743287 -0.0743871 0
M  V30 6534 H 627.317 -1.87826 0.520336 0
M  V30 6535 H 626.413 -3.09477 -0.403803 0
M  V30 6536 N 626.714 -0.118576 -1.57153 0
M  V30 6537 C 627.942 0.54726 -1.99531 0
M  V30 6538 C 628.357 1.60251 -0.998246 0
M  V30 6539 O 627.714 1.82498 0.00893106 0
M  V30 6540 C 627.765 1.17378 -3.41913 0
M  V30 6541 O 627.486 0.160703 -4.37805 0
M  V30 6542 C 628.987 1.92297 -3.9942 0
M  V30 6543 H 626.207 0.144919 -0.655164 0
M  V30 6544 H 628.751 -0.20479 -2.03472 0
M  V30 6545 H 626.906 1.87661 -3.38913 0
M  V30 6546 H 627.32 0.61586 -5.20872 0
M  V30 6547 H 628.794 2.31462 -5.01128 0
M  V30 6548 H 629.271 2.79801 -3.38538 0
M  V30 6549 H 629.877 1.26777 -4.05965 0
M  V30 6550 N 628.193 1.56834 0.155195 0
M  V30 6551 C 629.47 1.73799 0.897395 0
M  V30 6552 C 629.85 0.684379 1.99698 0
M  V30 6553 O 629.198 -0.298111 2.26547 0
M  V30 6554 C 629.408 3.17572 1.44737 0
M  V30 6555 C 630.756 3.79014 1.91399 0
M  V30 6556 O 631.78 3.20951 1.54496 0
M  V30 6557 O 630.639 4.80998 2.59429 0
M  V30 6558 H 627.733 0.710329 0.423511 0
M  V30 6559 H 630.279 1.69107 0.141761 0
M  V30 6560 H 629.051 3.85749 0.656741 0
M  V30 6561 H 628.674 3.26657 2.26674 0
M  V30 6562 N 629.671 -0.424282 1.51781 0
M  V30 6563 C 631.082 -1.00368 1.57427 0
M  V30 6564 C 631.433 -1.91962 0.40558 0
M  V30 6565 O 630.558 -2.111 -0.47601 0
M  V30 6566 C 631.153 -1.82707 2.85313 0
M  V30 6567 C 629.712 -2.35675 2.93487 0
M  V30 6568 C 628.859 -1.1524 2.5222 0
M  V30 6569 H 631.81 -0.205064 1.5737 0
M  V30 6570 H 631.831 -2.68294 2.69812 0
M  V30 6571 H 631.343 -1.16017 3.70353 0
M  V30 6572 H 629.444 -3.05781 2.12906 0
M  V30 6573 H 629.557 -2.67578 3.97415 0
M  V30 6574 H 627.921 -1.50174 2.05718 0
M  V30 6575 H 628.704 -0.5014 3.39619 0
M  V30 6576 N 631.149 -1.42148 -0.680565 0
M  V30 6577 C 632.096 -1.45175 -1.79424 0
M  V30 6578 C 633.066 -0.304352 -1.63288 0
M  V30 6579 O 634.251 -0.507591 -1.83924 0
M  V30 6580 C 631.391 -1.35429 -3.17416 0
M  V30 6581 C 630.504 -2.60158 -3.4488 0
M  V30 6582 C 629.639 -2.42596 -4.72568 0
M  V30 6583 C 628.678 -3.62727 -4.93047 0
M  V30 6584 N 627.815 -3.44143 -6.11973 0
M  V30 6585 H 632.655 -2.40349 -1.76172 0
M  V30 6586 H 630.192 -1.19334 -0.860107 0
M  V30 6587 H 632.15 -1.27777 -3.97151 0
M  V30 6588 H 630.78 -0.438536 -3.19807 0
M  V30 6589 H 629.832 -2.78199 -2.5944 0
M  V30 6590 H 631.144 -3.49473 -3.55908 0
M  V30 6591 H 630.298 -2.32497 -5.60384 0
M  V30 6592 H 629.037 -1.50761 -4.63813 0
M  V30 6593 H 628.042 -3.73264 -4.03676 0
M  V30 6594 H 629.267 -4.55534 -5.03652 0
M  V30 6595 H 627.213 -2.5502 -6.04401 0
M  V30 6596 H 627.13 -4.27041 -6.23836 0
M  V30 6597 H 628.398 -3.37845 -7.02482 0
M  V30 6598 N 632.627 0.916307 -1.28225 0
M  V30 6599 C 633.575 2.03977 -1.11786 0
M  V30 6600 C 634.569 1.69358 -0.0378265 0
M  V30 6601 O 635.775 1.78925 -0.196405 0
M  V30 6602 H 632.15 0.66829 -0.344809 0
M  V30 6603 H 634.121 2.14985 -2.06939 0
M  V30 6604 C 632.87 3.38518 -0.7938 0
M  V30 6605 H 632.193 3.65649 -1.61682 0
M  V30 6606 H 633.633 4.17864 -0.718719 0
M  V30 6607 C 632.092 3.33134 0.502353 0
M  V30 6608 O 632.622 3.71281 1.53341 0
M  V30 6609 N 630.828 2.86229 0.502147 0
M  V30 6610 H 630.375 2.55382 -0.337338 0
M  V30 6611 H 630.333 2.83009 1.36942 0
M  V30 6612 N 634.105 1.10431 1.1244 0
M  V30 6613 C 635.055 0.722378 2.16254 0
M  V30 6614 C 636.039 -0.268427 1.58645 0
M  V30 6615 O 637.231 -0.077169 1.76832 0
M  V30 6616 C 634.36 0.155763 3.42946 0
M  V30 6617 C 633.446 1.17361 4.07538 0
M  V30 6618 N 633.837 2.36429 4.47141 0
M  V30 6619 C 632.135 1.01412 4.34317 0
M  V30 6620 C 632.836 3.01259 4.97612 0
M  V30 6621 N 631.812 2.28777 4.93115 0
M  V30 6622 H 635.614 1.62876 2.4464 0
M  V30 6623 H 633.128 0.982031 1.29344 0
M  V30 6624 H 635.125 -0.135936 4.16678 0
M  V30 6625 H 633.785 -0.745339 3.1603 0
M  V30 6626 H 634.796 2.73954 4.39511 0
M  V30 6627 H 631.473 0.168574 4.1716 0
M  V30 6628 H 632.863 4.02541 5.37968 0
M  V30 6629 N 635.583 -1.29855 0.893053 0
M  V30 6630 C 636.994 -1.77946 0.564998 0
M  V30 6631 C 637.345 -1.73339 -0.919134 0
M  V30 6632 O 636.47 -1.3152 -1.71847 0
M  V30 6633 C 637.065 -3.23118 1.01883 0
M  V30 6634 C 635.624 -3.69013 0.742051 0
M  V30 6635 C 634.771 -2.50121 1.19727 0
M  V30 6636 H 637.722 -1.16611 1.07646 0
M  V30 6637 H 637.743 -3.78875 0.351249 0
M  V30 6638 H 637.255 -3.26439 2.09903 0
M  V30 6639 H 635.356 -3.71173 -0.325816 0
M  V30 6640 H 635.469 -4.60117 1.33527 0
M  V30 6641 H 633.833 -2.47128 0.616418 0
M  V30 6642 H 634.616 -2.56174 2.28538 0
M  V30 6643 N 637.061 -0.65484 -1.43351 0
M  V30 6644 C 637.993 0.0744757 -2.29079 0
M  V30 6645 C 639.006 0.7855 -1.42596 0
M  V30 6646 O 640.195 0.642986 -1.66517 0
M  V30 6647 C 637.295 1.12859 -3.19556 0
M  V30 6648 C 636.468 0.495381 -4.34586 0
M  V30 6649 C 635.527 1.44659 -5.05925 0
M  V30 6650 O 634.553 0.954567 -5.61139 0
M  V30 6651 N 635.755 2.78051 -5.09576 0
M  V30 6652 H 638.52 -0.661346 -2.92312 0
M  V30 6653 H 636.081 -0.497744 -1.54059 0
M  V30 6654 H 638.073 1.76577 -3.64147 0
M  V30 6655 H 636.643 1.76636 -2.57912 0
M  V30 6656 H 635.863 -0.32092 -3.92892 0
M  V30 6657 H 637.151 0.0534203 -5.08772 0
M  V30 6658 H 636.549 3.20584 -4.66093 0
M  V30 6659 H 635.106 3.37068 -5.57878 0
M  V30 6660 N 638.539 1.52521 -0.396863 0
M  V30 6661 C 639.769 2.05792 0.182485 0
M  V30 6662 C 640.177 1.26784 1.40436 0
M  V30 6663 O 639.52 0.309617 1.81072 0
M  V30 6664 C 639.582 3.54291 0.609781 0
M  V30 6665 C 639.246 4.5426 -0.499674 0
M  V30 6666 C 640.243 5.01812 -1.35944 0
M  V30 6667 C 637.928 4.97827 -0.668864 0
M  V30 6668 C 639.922 5.91562 -2.37346 0
M  V30 6669 C 637.609 5.87376 -1.68621 0
M  V30 6670 C 638.607 6.34137 -2.53692 0
M  V30 6671 O 638.295 7.21915 -3.53686 0
M  V30 6672 H 638.027 0.675362 0.0293583 0
M  V30 6673 H 640.581 1.97539 -0.56281 0
M  V30 6674 H 638.811 3.60188 1.40717 0
M  V30 6675 H 640.5 3.90267 1.11565 0
M  V30 6676 H 641.266 4.68879 -1.24008 0
M  V30 6677 H 637.145 4.60997 -0.0163971 0
M  V30 6678 H 640.689 6.27983 -3.03782 0
M  V30 6679 H 636.586 6.19723 -1.80593 0
M  V30 6680 H 637.354 7.39996 -3.49784 0
M  V30 6681 N 640.017 0.126909 1.57088 0
M  V30 6682 C 640.98 -0.806097 2.14557 0
M  V30 6683 C 641.98 -1.18918 1.08236 0
M  V30 6684 O 643.17 -1.11339 1.33975 0
M  V30 6685 C 640.302 -2.09116 2.69227 0
M  V30 6686 H 641.495 -0.306522 2.98329 0
M  V30 6687 H 639.048 -0.122393 1.5582 0
M  V30 6688 H 639.783 -2.63486 1.89065 0
M  V30 6689 H 639.568 -1.82588 3.46993 0
M  V30 6690 H 641.058 -2.75794 3.13572 0
M  V30 6691 N 641.495 -1.56914 -0.146875 0
M  V30 6692 C 642.741 -1.84515 -0.855914 0
M  V30 6693 C 643.096 -0.710909 -1.78784 0
M  V30 6694 O 642.389 0.291123 -1.89375 0
M  V30 6695 C 642.583 -3.16128 -1.66727 0
M  V30 6696 C 642.412 -4.42246 -0.815405 0
M  V30 6697 C 641.182 -5.03006 -0.480976 0
M  V30 6698 C 643.38 -5.14094 -0.145684 0
M  V30 6699 N 641.362 -6.12695 0.384476 0
M  V30 6700 C 642.733 -6.17282 0.579902 0
M  V30 6701 C 644.788 -4.97856 -0.0663705 0
M  V30 6702 C 643.491 -7.0599 1.37731 0
M  V30 6703 C 645.517 -5.87028 0.71778 0
M  V30 6704 C 644.879 -6.89698 1.43165 0
M  V30 6705 H 640.978 -0.725829 -0.291026 0
M  V30 6706 H 643.562 -1.94322 -0.121279 0
M  V30 6707 H 641.733 -3.07468 -2.37315 0
M  V30 6708 H 643.465 -3.31635 -2.31949 0
M  V30 6709 H 640.22 -4.66504 -0.816789 0
M  V30 6710 H 640.644 -6.72158 0.80823 0
M  V30 6711 H 645.286 -4.18465 -0.603929 0
M  V30 6712 H 643.004 -7.84809 1.92613 0
M  V30 6713 H 646.59 -5.76532 0.781141 0
M  V30 6714 H 645.47 -7.57505 2.02868 0
M  V30 6715 N 642.974 0.416227 -1.52004 0
M  V30 6716 C 643.921 1.50666 -1.74838 0
M  V30 6717 C 644.891 1.55245 -0.590599 0
M  V30 6718 O 646.076 1.71928 -0.827374 0
M  V30 6719 C 643.216 2.88185 -1.89851 0
M  V30 6720 C 642.329 2.92971 -3.17478 0
M  V30 6721 C 641.464 4.21745 -3.22962 0
M  V30 6722 C 640.503 4.20478 -4.4482 0
M  V30 6723 N 639.64 5.40811 -4.47736 0
M  V30 6724 H 644.48 1.30498 -2.67907 0
M  V30 6725 H 642.017 0.633568 -1.32757 0
M  V30 6726 H 643.975 3.68007 -1.96537 0
M  V30 6727 H 642.605 3.06865 -1.00169 0
M  V30 6728 H 641.657 2.05684 -3.19997 0
M  V30 6729 H 642.969 2.87899 -4.07328 0
M  V30 6730 H 642.123 5.09954 -3.28682 0
M  V30 6731 H 640.862 4.29503 -2.31038 0
M  V30 6732 H 639.867 3.30659 -4.39254 0
M  V30 6733 H 641.092 4.14366 -5.38031 0
M  V30 6734 H 639.038 5.4925 -3.58692 0
M  V30 6735 H 638.955 5.37705 -5.31422 0
M  V30 6736 H 640.223 6.30993 -4.57676 0
M  V30 6737 N 644.452 1.42507 0.673017 0
M  V30 6738 C 645.399 1.46124 1.78651 0
M  V30 6739 C 646.369 0.313007 1.63124 0
M  V30 6740 O 647.554 0.517337 1.83653 0
M  V30 6741 C 644.694 1.3711 3.16694 0
M  V30 6742 C 643.807 2.61983 3.43495 0
M  V30 6743 C 642.942 2.45098 4.71275 0
M  V30 6744 C 641.981 3.65336 4.91117 0
M  V30 6745 N 641.118 3.47383 6.10139 0
M  V30 6746 H 645.958 2.4128 1.74895 0
M  V30 6747 H 643.495 1.19788 0.853766 0
M  V30 6748 H 645.453 1.29881 3.96468 0
M  V30 6749 H 644.083 0.45549 3.1957 0
M  V30 6750 H 643.135 2.79571 2.57961 0
M  V30 6751 H 644.447 3.51355 3.5405 0
M  V30 6752 H 643.601 2.35466 5.59143 0
M  V30 6753 H 642.34 1.53219 4.63007 0
M  V30 6754 H 641.345 3.754 4.0169 0
M  V30 6755 H 642.57 4.58199 5.01229 0
M  V30 6756 H 640.516 2.58222 6.0304 0
M  V30 6757 H 640.433 4.30344 6.21563 0
M  V30 6758 H 641.701 3.41565 7.00681 0
M  V30 6759 N 645.93 -0.909495 1.28709 0
M  V30 6760 C 647.176 -1.66151 1.16283 0
M  V30 6761 C 647.509 -1.92067 -0.287069 0
M  V30 6762 O 646.784 -1.52409 -1.20837 0
M  V30 6763 C 647.067 -3.01676 1.9663 0
M  V30 6764 C 646.92 -2.82888 3.49707 0
M  V30 6765 C 648.239 -4.02274 1.78504 0
M  V30 6766 H 645.358 -0.602966 0.423793 0
M  V30 6767 H 648 -1.05418 1.58073 0
M  V30 6768 H 646.15 -3.53515 1.61119 0
M  V30 6769 H 647.822 -2.38026 3.95147 0
M  V30 6770 H 646.065 -2.17862 3.75125 0
M  V30 6771 H 646.736 -3.79147 4.01187 0
M  V30 6772 H 649.212 -3.59511 2.09503 0
M  V30 6773 H 648.088 -4.95056 2.37088 0
M  V30 6774 H 648.349 -4.35903 0.737647 0
M  V30 6775 N 647.408 -1.11026 -1.11852 0
M  V30 6776 C 648.371 -0.768006 -2.1595 0
M  V30 6777 C 649.371 0.210538 -1.59416 0
M  V30 6778 O 650.561 -0.0133978 -1.74195 0
M  V30 6779 C 647.693 -0.138678 -3.40618 0
M  V30 6780 H 648.886 -1.69012 -2.4774 0
M  V30 6781 H 646.439 -0.911578 -1.26964 0
M  V30 6782 H 647.174 0.793872 -3.14433 0
M  V30 6783 H 646.959 -0.843012 -3.8293 0
M  V30 6784 H 648.449 0.0848039 -4.17514 0
M  V30 6785 N 648.886 1.2938 -0.899927 0
M  V30 6786 C 649.796 2.31462 -0.382437 0
M  V30 6787 C 650.812 1.65956 0.522929 0
M  V30 6788 O 651.988 1.97131 0.412454 0
M  V30 6789 C 649.053 3.44595 0.381472 0
M  V30 6790 C 648.114 4.25692 -0.555444 0
M  V30 6791 C 647.347 5.33422 0.172102 0
M  V30 6792 O 647.57 5.53053 1.396 0
M  V30 6793 O 646.504 5.99939 -0.485491 0
M  V30 6794 H 650.33 2.77706 -1.22934 0
M  V30 6795 H 647.915 1.33821 -0.664259 0
M  V30 6796 H 649.797 4.13474 0.813442 0
M  V30 6797 H 648.472 3.00458 1.20443 0
M  V30 6798 H 647.379 3.59453 -1.03653 0
M  V30 6799 H 648.712 4.73471 -1.34483 0
M  V30 6800 N 650.364 0.662433 1.43002 0
M  V30 6801 C 651.294 -0.00979809 2.33498 0
M  V30 6802 C 652.275 -0.802329 1.49989 0
M  V30 6803 O 653.46 -0.761964 1.78627 0
M  V30 6804 C 650.59 -0.970446 3.33466 0
M  V30 6805 C 649.544 -0.287383 4.27034 0
M  V30 6806 C 648.87 -1.36012 5.17112 0
M  V30 6807 C 650.17 0.82595 5.15728 0
M  V30 6808 H 651.864 0.745959 2.89958 0
M  V30 6809 H 649.41 0.360172 1.39423 0
M  V30 6810 H 651.363 -1.44971 3.95679 0
M  V30 6811 H 650.087 -1.75748 2.75282 0
M  V30 6812 H 648.746 0.17152 3.66199 0
M  V30 6813 H 648.394 -2.13882 4.55262 0
M  V30 6814 H 648.094 -0.908276 5.80538 0
M  V30 6815 H 649.618 -1.84056 5.82199 0
M  V30 6816 H 651.032 0.42845 5.71697 0
M  V30 6817 H 649.429 1.20282 5.87922 0
M  V30 6818 H 650.499 1.68003 4.54866 0
M  V30 6819 N 651.842 -1.52309 0.404946 0
M  V30 6820 C 652.774 -2.24579 -0.45791 0
M  V30 6821 C 653.787 -1.2739 -1.01369 0
M  V30 6822 O 654.976 -1.53363 -0.91335 0
M  V30 6823 C 652.076 -2.9608 -1.64893 0
M  V30 6824 C 651.249 -4.20106 -1.21777 0
M  V30 6825 C 650.308 -4.74468 -2.27523 0
M  V30 6826 O 649.334 -5.37157 -1.88285 0
M  V30 6827 N 650.536 -4.55678 -3.59635 0
M  V30 6828 H 653.301 -2.99265 0.161341 0
M  V30 6829 H 650.862 -1.60228 0.232107 0
M  V30 6830 H 652.854 -3.29344 -2.35191 0
M  V30 6831 H 651.424 -2.24606 -2.17419 0
M  V30 6832 H 650.644 -3.92704 -0.343071 0
M  V30 6833 H 651.932 -5.00658 -0.906596 0
M  V30 6834 H 651.33 -4.05673 -3.94266 0
M  V30 6835 H 649.887 -4.9339 -4.25922 0
M  V30 6836 N 653.32 -0.135238 -1.57019 0
M  V30 6837 C 654.568 0.51777 -1.95355 0
M  V30 6838 C 654.889 1.6617 -1.02042 0
M  V30 6839 O 654.159 1.95738 -0.0797343 0
M  V30 6840 H 652.739 0.194264 -0.721298 0
M  V30 6841 H 655.401 -0.207983 -1.93787 0
M  V30 6842 H 654.497 0.901675 -2.98791 0
M  V30 6843 N 654.798 1.5699 0.138552 0
M  V30 6844 C 655.73 1.95515 1.1961 0
M  V30 6845 C 656.743 0.852002 1.38726 0
M  V30 6846 O 657.932 1.13038 1.38147 0
M  V30 6847 C 655.032 2.2213 2.55952 0
M  V30 6848 C 654.205 3.53424 2.57702 0
M  V30 6849 C 653.264 3.6848 3.75645 0
M  V30 6850 O 652.29 4.4079 3.60129 0
M  V30 6851 N 653.492 3.05777 4.93438 0
M  V30 6852 H 656.257 2.86838 0.868557 0
M  V30 6853 H 653.818 1.58542 0.328033 0
M  V30 6854 H 655.81 2.29435 3.33379 0
M  V30 6855 H 654.38 1.3703 2.80965 0
M  V30 6856 H 653.6 3.57484 1.6613 0
M  V30 6857 H 654.888 4.39759 2.55909 0
M  V30 6858 H 654.286 2.46961 5.08947 0
M  V30 6859 H 652.843 3.18631 5.6861 0
M  V30 6860 N 656.276 -0.40816 1.52223 0
M  V30 6861 C 657.524 -1.15274 1.66001 0
M  V30 6862 C 657.845 -1.91003 0.392803 0
M  V30 6863 O 657.115 -1.8673 -0.592336 0
M  V30 6864 H 655.695 -0.428526 0.611861 0
M  V30 6865 H 658.357 -0.46512 1.89269 0
M  V30 6866 H 657.453 -1.86628 2.50153 0
M  V30 6867 N 657.755 -1.42862 -0.66545 0
M  V30 6868 C 659.003 -1.43546 -1.42264 0
M  V30 6869 C 659.324 -0.0563116 -1.94919 0
M  V30 6870 O 658.594 0.906568 -1.73661 0
M  V30 6871 H 657.174 -0.528464 -0.527953 0
M  V30 6872 H 659.836 -1.78363 -0.785665 0
M  V30 6873 H 658.932 -2.14079 -2.27105 0
M  V30 6874 N 659.233 0.902656 -1.29189 0
M  V30 6875 C 660.481 1.6496 -1.16758 0
M  V30 6876 C 660.802 1.92952 0.28188 0
M  V30 6877 O 660.072 1.55351 1.19344 0
M  V30 6878 H 658.652 0.611447 -0.429118 0
M  V30 6879 H 661.314 1.0825 -1.62074 0
M  V30 6880 H 660.41 2.60728 -1.71544 0
M  V30 6881 N 660.711 1.11618 1.11262 0
M  V30 6882 C 661.936 0.889013 1.8738 0
M  V30 6883 C 662.361 -0.555884 1.79698 0
M  V30 6884 O 661.719 -1.39272 1.16073 0
M  V30 6885 C 661.767 1.35759 3.34069 0
M  V30 6886 O 660.871 0.530499 4.08974 0
M  V30 6887 H 660.212 0.320082 0.581759 0
M  V30 6888 H 662.742 1.48611 1.40627 0
M  V30 6889 H 662.752 1.35291 3.84916 0
M  V30 6890 H 661.427 2.40973 3.38976 0
M  V30 6891 H 660.004 0.601439 3.68018 0
M  V30 6892 N 662.189 -1.289 0.906776 0
M  V30 6893 C 663.119 -2.29932 0.406659 0
M  V30 6894 C 664.1 -1.6189 -0.522061 0
M  V30 6895 O 665.285 -1.8935 -0.431283 0
M  V30 6896 C 662.415 -3.45425 -0.360366 0
M  V30 6897 C 661.369 -4.25316 0.478574 0
M  V30 6898 C 660.695 -5.33076 -0.416373 0
M  V30 6899 C 661.995 -4.92739 1.7322 0
M  V30 6900 H 663.689 -2.72013 1.25097 0
M  V30 6901 H 661.235 -1.30768 0.602977 0
M  V30 6902 H 663.188 -4.15186 -0.721029 0
M  V30 6903 H 661.912 -3.02206 -1.23852 0
M  V30 6904 H 660.571 -3.57273 0.821662 0
M  V30 6905 H 660.219 -4.86101 -1.29287 0
M  V30 6906 H 659.919 -5.8743 0.141309 0
M  V30 6907 H 661.443 -6.05686 -0.773072 0
M  V30 6908 H 662.857 -5.54898 1.44086 0
M  V30 6909 H 661.254 -5.57057 2.23175 0
M  V30 6910 H 662.324 -4.17625 2.46408 0
M  V30 6911 N 663.667 -0.670007 -1.42649 0
M  V30 6912 C 664.914 -0.190286 -2.01604 0
M  V30 6913 C 665.242 1.20155 -1.52948 0
M  V30 6914 O 664.497 1.81964 -0.72026 0
M  V30 6915 C 664.796 -0.168298 -3.57004 0
M  V30 6916 C 664.462 -1.50415 -4.25072 0
M  V30 6917 C 663.124 -1.86992 -4.43382 0
M  V30 6918 C 665.476 -2.38414 -4.63474 0
M  V30 6919 C 662.804 -3.11203 -4.97363 0
M  V30 6920 C 665.156 -3.61933 -5.18833 0
M  V30 6921 C 663.82 -3.98685 -5.35356 0
M  V30 6922 H 663.09 -0.0696305 -0.737721 0
M  V30 6923 H 665.737 -0.864044 -1.70899 0
M  V30 6924 H 664.042 0.588958 -3.87348 0
M  V30 6925 H 665.739 0.22001 -4.00396 0
M  V30 6926 H 662.329 -1.20959 -4.11177 0
M  V30 6927 H 666.513 -2.11442 -4.49006 0
M  V30 6928 H 661.769 -3.39705 -5.08341 0
M  V30 6929 H 665.943 -4.30326 -5.47533 0
M  V30 6930 H 663.57 -4.95009 -5.76949 0
M  V30 6931 N 665.145 1.52092 -0.413018 0
M  V30 6932 C 666.394 2.01041 0.16287 0
M  V30 6933 C 666.707 1.30288 1.45892 0
M  V30 6934 O 667.913 1.70075 2.11629 0
M  V30 6935 C 666.369 3.58283 0.340806 0
M  V30 6936 C 665.977 4.37955 -0.943377 0
M  V30 6937 C 667.721 4.15452 0.871774 0
M  V30 6938 C 665.628 5.86847 -0.732417 0
M  V30 6939 H 664.558 0.751224 0.0646414 0
M  V30 6940 H 667.209 1.75404 -0.539059 0
M  V30 6941 H 665.591 3.80266 1.10516 0
M  V30 6942 H 666.765 4.2773 -1.71418 0
M  V30 6943 H 665.08 3.92122 -1.40105 0
M  V30 6944 H 667.677 5.24375 1.0457 0
M  V30 6945 H 668.02 3.73057 1.84755 0
M  V30 6946 H 668.553 3.97452 0.166377 0
M  V30 6947 H 665.292 6.33609 -1.67986 0
M  V30 6948 H 664.812 5.998 -0.000980058 0
M  V30 6949 H 666.491 6.45906 -0.376105 0
M  V30 6950 N 666.623 0.143563 1.56945 0
M  V30 6951 C 667.57 -0.797433 2.16586 0
M  V30 6952 C 668.54 -1.24654 1.09775 0
M  V30 6953 O 669.725 -1.31968 1.37801 0
M  V30 6954 C 666.865 -2.03253 2.78895 0
M  V30 6955 C 665.978 -1.62954 4.00087 0
M  V30 6956 C 665.113 -2.81617 4.50406 0
M  V30 6957 C 664.152 -2.37675 5.64072 0
M  V30 6958 N 663.289 -3.49335 6.09023 0
M  V30 6959 H 668.129 -0.282023 2.96662 0
M  V30 6960 H 665.666 -0.127494 1.46546 0
M  V30 6961 H 667.624 -2.75653 3.13163 0
M  V30 6962 H 666.254 -2.52211 2.01469 0
M  V30 6963 H 665.306 -0.803322 3.71821 0
M  V30 6964 H 666.618 -1.26679 4.82446 0
M  V30 6965 H 665.772 -3.62212 4.86711 0
M  V30 6966 H 664.511 -3.21134 3.67048 0
M  V30 6967 H 663.516 -1.55519 5.27346 0
M  V30 6968 H 664.741 -1.99247 6.49213 0
M  V30 6969 H 662.687 -3.8848 5.28601 0
M  V30 6970 H 662.604 -3.17064 6.86299 0
M  V30 6971 H 663.872 -4.30297 6.49973 0
M  V30 6972 N 668.101 -1.57061 -0.130224 0
M  V30 6973 C 669.329 -1.88432 -0.854456 0
M  V30 6974 C 669.744 -0.733608 -1.73964 0
M  V30 6975 O 669.101 0.296029 -1.80083 0
M  V30 6976 C 669.152 -3.1918 -1.69724 0
M  V30 6977 O 668.873 -4.2982 -0.847705 0
M  V30 6978 C 670.374 -3.6418 -2.5276 0
M  V30 6979 H 667.594 -0.624193 -0.246221 0
M  V30 6980 H 670.138 -2.04159 -0.11798 0
M  V30 6981 H 668.293 -3.05156 -2.3866 0
M  V30 6982 H 668.707 -5.04689 -1.42792 0
M  V30 6983 H 670.181 -4.58457 -3.07443 0
M  V30 6984 H 670.658 -2.90285 -3.29592 0
M  V30 6985 H 671.264 -3.80954 -1.89087 0
M  V30 6986 N 669.579 0.400081 -1.52437 0
M  V30 6987 C 670.529 1.48734 -1.72807 0
M  V30 6988 C 671.513 1.50004 -0.582032 0
M  V30 6989 O 672.705 1.55828 -0.839449 0
M  V30 6990 C 669.834 2.86568 -1.89034 0
M  V30 6991 C 668.92 2.8991 -3.09537 0
M  V30 6992 N 669.311 2.62937 -4.32086 0
M  V30 6993 C 667.609 3.21078 -3.09556 0
M  V30 6994 C 668.31 2.73079 -5.13617 0
M  V30 6995 N 667.286 3.06342 -4.49061 0
M  V30 6996 H 671.088 1.26689 -2.65193 0
M  V30 6997 H 668.602 0.607902 -1.50593 0
M  V30 6998 H 670.599 3.64834 -2.01746 0
M  V30 6999 H 669.259 3.09604 -0.978547 0
M  V30 7000 H 670.27 2.37163 -4.60406 0
M  V30 7001 H 666.947 3.49651 -2.28146 0
M  V30 7002 H 668.337 2.55863 -6.21276 0
M  V30 7003 N 671.057 1.43213 0.657864 0
M  V30 7004 C 672.468 1.39669 1.23893 0
M  V30 7005 C 672.819 0.0984217 1.95953 0
M  V30 7006 O 671.944 -0.8023 2.00978 0
M  V30 7007 C 672.539 2.53004 2.25332 0
M  V30 7008 C 671.098 2.5274 2.78926 0
M  V30 7009 C 670.245 2.30941 1.53497 0
M  V30 7010 H 673.196 1.52181 0.450172 0
M  V30 7011 H 673.217 2.24226 3.07413 0
M  V30 7012 H 672.729 3.4748 1.72856 0
M  V30 7013 H 670.83 1.6213 3.35477 0
M  V30 7014 H 670.943 3.50352 3.26787 0
M  V30 7015 H 669.307 1.7952 1.80678 0
M  V30 7016 H 670.09 3.27496 1.02963 0
M  V30 7017 N 672.536 -0.895792 1.29666 0
M  V30 7018 C 673.483 -2.00035 1.15129 0
M  V30 7019 C 674.453 -1.66043 0.0435819 0
M  V30 7020 O 675.638 -1.89621 0.211811 0
M  V30 7021 C 672.778 -3.34774 0.83787 0
M  V30 7022 C 671.891 -3.81525 2.0264 0
M  V30 7023 C 671.026 -5.04858 1.65201 0
M  V30 7024 C 670.065 -5.43988 2.80612 0
M  V30 7025 N 669.202 -6.58507 2.43544 0
M  V30 7026 H 674.042 -2.11802 2.09628 0
M  V30 7027 H 671.579 -1.03719 1.04311 0
M  V30 7028 H 673.537 -4.12311 0.636824 0
M  V30 7029 H 672.167 -3.22724 -0.0702314 0
M  V30 7030 H 671.219 -2.9999 2.33903 0
M  V30 7031 H 672.531 -4.06472 2.89106 0
M  V30 7032 H 671.685 -5.8999 1.41408 0
M  V30 7033 H 670.424 -4.81759 0.758893 0
M  V30 7034 H 669.429 -4.57388 3.05083 0
M  V30 7035 H 670.654 -5.69066 3.70595 0
M  V30 7036 H 668.6 -6.37004 1.56724 0
M  V30 7037 H 668.517 -6.83269 3.23542 0
M  V30 7038 H 669.785 -7.46897 2.2308 0
M  V30 7039 N 674.014 -1.12206 -1.10668 0
M  V30 7040 C 675.239 -0.898938 -1.86906 0
M  V30 7041 C 675.664 0.546346 -1.79991 0
M  V30 7042 O 675.022 1.38655 -1.1681 0
M  V30 7043 C 675.07 -1.37529 -3.33344 0
M  V30 7044 O 674.174 -0.55218 -4.08687 0
M  V30 7045 H 673.515 -0.323163 -0.580053 0
M  V30 7046 H 676.045 -1.49355 -1.39837 0
M  V30 7047 H 676.055 -1.3733 -3.84193 0
M  V30 7048 H 674.73 -2.42767 -3.37693 0
M  V30 7049 H 673.307 -0.620947 -3.67694 0
M  V30 7050 N 675.492 1.28418 -0.913599 0
M  V30 7051 C 676.717 1.99643 -0.561899 0
M  V30 7052 C 677.142 1.67819 0.849608 0
M  V30 7053 O 676.5 0.910503 1.56779 0
M  V30 7054 C 676.548 3.52116 -0.777622 0
M  V30 7055 O 675.652 4.12076 0.163457 0
M  V30 7056 H 674.993 0.627229 -0.217898 0
M  V30 7057 H 677.523 1.63575 -1.229 0
M  V30 7058 H 677.533 4.02163 -0.687666 0
M  V30 7059 H 676.208 3.74613 -1.8066 0
M  V30 7060 H 674.785 3.72892 0.0247827 0
M  V30 7061 N 676.97 0.677563 1.42291 0
M  V30 7062 C 677.92 -0.0218641 2.2799 0
M  V30 7063 C 678.904 -0.770816 1.41235 0
M  V30 7064 O 680.096 -0.649273 1.64662 0
M  V30 7065 C 677.225 -0.970449 3.29298 0
M  V30 7066 C 676.311 -0.218695 4.23536 0
M  V30 7067 N 676.702 0.777908 4.99782 0
M  V30 7068 C 675 -0.456748 4.43655 0
M  V30 7069 C 675.701 1.22632 5.68627 0
M  V30 7070 N 674.677 0.55573 5.40752 0
M  V30 7071 H 678.479 0.742516 2.84366 0
M  V30 7072 H 675.993 0.506862 1.54288 0
M  V30 7073 H 677.99 -1.48652 3.89497 0
M  V30 7074 H 676.65 -1.73463 2.74483 0
M  V30 7075 H 677.661 1.15754 5.04798 0
M  V30 7076 H 674.338 -1.20021 3.99877 0
M  V30 7077 H 675.728 2.05231 6.39789 0
M  V30 7078 N 678.448 -1.51871 0.421078 0
M  V30 7079 C 679.378 -2.30231 -0.389363 0
M  V30 7080 C 680.359 -1.34946 -1.03555 0
M  V30 7081 O 681.544 -1.63859 -1.04229 0
M  V30 7082 C 678.674 -3.13247 -1.49979 0
M  V30 7083 C 677.628 -4.16677 -0.977966 0
M  V30 7084 C 676.954 -4.88112 -2.1829 0
M  V30 7085 C 678.254 -5.22295 -0.0236775 0
M  V30 7086 H 679.948 -2.98229 0.264524 0
M  V30 7087 H 677.494 -1.43424 0.12866 0
M  V30 7088 H 679.447 -3.66838 -2.07383 0
M  V30 7089 H 678.171 -2.4304 -2.18173 0
M  V30 7090 H 676.83 -3.64114 -0.426245 0
M  V30 7091 H 676.478 -4.14423 -2.85066 0
M  V30 7092 H 676.178 -5.58041 -1.84021 0
M  V30 7093 H 677.702 -5.44521 -2.76278 0
M  V30 7094 H 679.116 -5.71055 -0.506899 0
M  V30 7095 H 677.513 -5.99656 0.230782 0
M  V30 7096 H 678.583 -4.76131 0.917999 0
M  V30 7097 N 679.926 -0.151884 -1.56866 0
M  V30 7098 C 681.156 0.504081 -2.00356 0
M  V30 7099 C 681.564 1.58639 -1.03103 0
M  V30 7100 O 680.907 1.83688 -0.0207931 0
M  V30 7101 C 680.969 1.15975 -3.40279 0
M  V30 7102 C 680.633 0.221453 -4.56463 0
M  V30 7103 C 681.63 -0.552766 -5.16953 0
M  V30 7104 C 679.315 0.122936 -5.0215 0
M  V30 7105 C 681.309 -1.4129 -6.21543 0
M  V30 7106 C 678.996 -0.740801 -6.06593 0
M  V30 7107 C 679.994 -1.50732 -6.6616 0
M  V30 7108 O 679.682 -2.35666 -7.68581 0
M  V30 7109 H 679.414 0.135279 -0.662326 0
M  V30 7110 H 681.968 -0.244916 -2.03935 0
M  V30 7111 H 680.198 1.95649 -3.33554 0
M  V30 7112 H 681.887 1.71594 -3.67846 0
M  V30 7113 H 682.653 -0.486716 -4.82552 0
M  V30 7114 H 678.532 0.70931 -4.5551 0
M  V30 7115 H 682.076 -2.01166 -6.67966 0
M  V30 7116 H 677.973 -0.808125 -6.40421 0
M  V30 7117 H 678.741 -2.28967 -7.85822 0
M  V30 7118 N 681.404 1.57128 0.121893 0
M  V30 7119 C 682.65 1.84974 0.831418 0
M  V30 7120 C 682.983 0.737204 1.79663 0
M  V30 7121 O 682.258 -0.257199 1.92792 0
M  V30 7122 C 682.541 3.23397 1.58386 0
M  V30 7123 C 682.394 4.45246 0.638445 0
M  V30 7124 C 683.713 3.59355 2.54071 0
M  V30 7125 H 680.832 0.67282 0.300803 0
M  V30 7126 H 683.474 1.89759 0.0957587 0
M  V30 7127 H 681.624 3.19449 2.21098 0
M  V30 7128 H 683.296 4.61295 0.0203925 0
M  V30 7129 H 681.539 4.33771 -0.05023 0
M  V30 7130 H 682.21 5.38765 1.20151 0
M  V30 7131 H 684.686 3.64075 2.01465 0
M  V30 7132 H 683.562 4.57193 3.03752 0
M  V30 7133 H 683.823 2.86622 3.36601 0
M  V30 7134 N 682.882 -0.391992 1.52647 0
M  V30 7135 C 684.159 -1.15136 1.58123 0
M  V30 7136 C 684.539 -2.07786 0.372597 0
M  V30 7137 O 683.887 -2.19374 -0.639304 0
M  V30 7138 C 684.097 -1.91367 2.91856 0
M  V30 7139 C 685.445 -2.46833 3.45483 0
M  V30 7140 O 686.469 -2.01527 2.9371 0
M  V30 7141 O 685.328 -3.29587 4.3593 0
M  V30 7142 H 682.422 -0.526649 0.637629 0
M  V30 7143 H 684.968 -0.397386 1.64982 0
M  V30 7144 H 683.74 -1.23597 3.71268 0
M  V30 7145 H 683.363 -2.73732 2.88369 0
M  V30 7146 N 684.36 -1.4356 -0.65026 0
M  V30 7147 C 685.588 -1.48779 -1.43779 0
M  V30 7148 C 686.003 -0.106593 -1.88499 0
M  V30 7149 O 685.36 0.883766 -1.59674 0
M  V30 7150 C 685.411 -2.43618 -2.67081 0
M  V30 7151 O 685.132 -3.76367 -2.24231 0
M  V30 7152 C 686.633 -2.5811 -3.60409 0
M  V30 7153 H 683.853 -0.50521 -0.441593 0
M  V30 7154 H 686.397 -1.88332 -0.796941 0
M  V30 7155 H 684.552 -2.07253 -3.273 0
M  V30 7156 H 684.966 -4.27394 -3.0403 0
M  V30 7157 H 686.44 -3.28539 -4.43583 0
M  V30 7158 H 686.917 -1.627 -4.07953 0
M  V30 7159 H 687.523 -2.95298 -3.0607 0
M  V30 7160 N 685.838 0.888903 -1.30139 0
M  V30 7161 C 687.066 1.67358 -1.21651 0
M  V30 7162 C 687.481 1.87499 0.221246 0
M  V30 7163 O 686.838 1.41969 1.14677 0
M  V30 7164 C 686.889 3.05213 -1.93719 0
M  V30 7165 O 686.61 2.85984 -3.31881 0
M  V30 7166 C 688.111 3.9964 -1.9184 0
M  V30 7167 H 685.331 0.522365 -0.42116 0
M  V30 7168 H 687.875 1.11086 -1.71698 0
M  V30 7169 H 686.03 3.5823 -1.4748 0
M  V30 7170 H 686.444 3.73411 -3.68327 0
M  V30 7171 H 687.918 4.93749 -2.46811 0
M  V30 7172 H 688.395 4.29955 -0.896409 0
M  V30 7173 H 689.001 3.52558 -2.37872 0
M  V30 7174 N 687.317 1.12792 1.10072 0
M  V30 7175 C 688.564 0.885545 1.82111 0
M  V30 7176 C 688.892 -0.588519 1.85383 0
M  V30 7177 O 688.147 -1.45124 1.31292 0
M  V30 7178 C 688.446 1.4102 3.28403 0
M  V30 7179 C 688.112 2.89995 3.45273 0
M  V30 7180 C 686.774 3.30671 3.49585 0
M  V30 7181 C 689.126 3.85874 3.50358 0
M  V30 7182 C 686.454 4.65925 3.56553 0
M  V30 7183 C 688.806 5.20963 3.58859 0
M  V30 7184 C 687.47 5.61177 3.61437 0
M  V30 7185 H 686.74 0.324044 0.666391 0
M  V30 7186 H 689.387 1.40874 1.29718 0
M  V30 7187 H 687.692 0.807551 3.83387 0
M  V30 7188 H 689.389 1.19882 3.82661 0
M  V30 7189 H 685.979 2.57537 3.42597 0
M  V30 7190 H 690.163 3.5554 3.46273 0
M  V30 7191 H 685.419 4.96468 3.56833 0
M  V30 7192 H 689.593 5.95079 3.61738 0
M  V30 7193 H 687.22 6.6597 3.66589 0
M  V30 7194 N 688.795 -1.27931 0.920396 0
M  V30 7195 C 689.743 -2.29061 0.404191 0
M  V30 7196 C 690.737 -1.61615 -0.507634 0
M  V30 7197 O 691.943 -1.75765 -0.388144 0
M  V30 7198 H 688.318 -0.743594 0.112123 0
M  V30 7199 H 690.289 -2.70021 1.27008 0
M  V30 7200 C 689.038 -3.46088 -0.334466 0
M  V30 7201 H 688.361 -3.98194 0.35797 0
M  V30 7202 H 689.801 -4.18829 -0.660196 0
M  V30 7203 C 688.26 -2.99396 -1.54479 0
M  V30 7204 O 688.79 -3.02439 -2.64374 0
M  V30 7205 N 686.996 -2.54978 -1.39408 0
M  V30 7206 H 686.543 -2.52701 -0.500009 0
M  V30 7207 H 686.501 -2.24098 -2.20516 0
M  V30 7208 N 690.273 -0.685099 -1.4193 0
M  V30 7209 C 691.684 -0.287699 -1.8447 0
M  V30 7210 C 692.035 1.17215 -1.57338 0
M  V30 7211 O 691.16 1.89856 -1.03845 0
M  V30 7212 C 691.755 -0.515385 -3.34857 0
M  V30 7213 C 690.314 -0.172006 -3.76007 0
M  V30 7214 C 689.461 -0.802808 -2.65425 0
M  V30 7215 H 692.412 -0.88652 -1.3163 0
M  V30 7216 H 692.433 0.229251 -3.79809 0
M  V30 7217 H 691.945 -1.57796 -3.54573 0
M  V30 7218 H 690.046 0.886716 -3.61895 0
M  V30 7219 H 690.159 -0.619717 -4.75075 0
M  V30 7220 H 688.523 -0.233267 -2.5363 0
M  V30 7221 H 689.306 -1.86904 -2.87961 0
M  V30 7222 N 691.751 1.51645 -0.429126 0
M  V30 7223 C 693.028 1.94579 0.199614 0
M  V30 7224 C 693.408 1.3673 1.60836 0
M  V30 7225 O 692.756 0.551062 2.21756 0
M  V30 7226 C 692.966 3.48506 0.185685 0
M  V30 7227 C 694.314 4.22756 0.395282 0
M  V30 7228 O 695.338 3.55219 0.264165 0
M  V30 7229 O 694.197 5.42555 0.655475 0
M  V30 7230 H 691.291 0.816007 0.134393 0
M  V30 7231 H 693.837 1.62577 -0.486513 0
M  V30 7232 H 692.609 3.83045 -0.799508 0
M  V30 7233 H 692.232 3.86927 0.91507 0
M  V30 7234 N 693.229 0.160201 1.56784 0
M  V30 7235 C 694.192 -0.760405 2.16219 0
M  V30 7236 C 695.192 -1.16595 1.10735 0
M  V30 7237 O 696.382 -1.08472 1.36306 0
M  V30 7238 C 693.514 -2.03358 2.73603 0
M  V30 7239 H 694.707 -0.243173 2.98912 0
M  V30 7240 H 692.26 -0.0893139 1.56045 0
M  V30 7241 H 692.995 -2.59416 1.94612 0
M  V30 7242 H 692.78 -1.75186 3.50788 0
M  V30 7243 H 694.27 -2.69081 3.19351 0
M  V30 7244 N 694.707 -1.5719 -0.113559 0
M  V30 7245 C 696.123 -1.52607 -0.467253 0
M  V30 7246 C 696.323 -0.874058 -1.81556 0
M  V30 7247 O 695.379 -0.458703 -2.48299 0
M  V30 7248 C 696.692 -2.97363 -0.446736 0
M  V30 7249 C 698.24 -3.08482 -0.529903 0
M  V30 7250 C 698.715 -4.54809 -0.539721 0
M  V30 7251 N 700.206 -4.59284 -0.601005 0
M  V30 7252 C 700.941 -5.69927 -0.630138 0
M  V30 7253 N 700.437 -6.90051 -0.616589 0
M  V30 7254 N 702.23 -5.5805 -0.673558 0
M  V30 7255 H 694.381 -1.97958 0.769819 0
M  V30 7256 H 696.644 -0.90428 0.284572 0
M  V30 7257 H 696.35 -3.48458 0.47643 0
M  V30 7258 H 696.224 -3.55086 -1.27254 0
M  V30 7259 H 698.611 -2.57386 -1.44349 0
M  V30 7260 H 698.692 -2.53744 0.323695 0
M  V30 7261 H 698.336 -5.06552 0.369843 0
M  V30 7262 H 698.266 -5.07364 -1.41028 0
M  V30 7263 H 700.757 -3.72822 -0.617419 0
M  V30 7264 H 701.07 -7.70132 -0.641592 0
M  V30 7265 H 699.415 -6.92543 -0.583927 0
M  V30 7266 H 702.606 -4.63112 -0.681544 0
M  V30 7267 H 702.779 -6.44286 -0.692794 0
M  V30 7268 N 696.185 0.383891 -1.52853 0
M  V30 7269 C 697.434 1.12563 -1.67369 0
M  V30 7270 C 697.747 1.90982 -0.422533 0
M  V30 7271 O 698.953 2.6778 -0.447914 0
M  V30 7272 C 697.409 2.05011 -2.95801 0
M  V30 7273 C 697.017 1.31991 -4.28115 0
M  V30 7274 C 698.761 2.79289 -3.19684 0
M  V30 7275 C 696.668 2.23235 -5.4765 0
M  V30 7276 H 695.598 0.42391 -0.623552 0
M  V30 7277 H 698.249 0.388016 -1.79351 0
M  V30 7278 H 696.631 2.82429 -2.77578 0
M  V30 7279 H 697.805 0.597633 -4.56908 0
M  V30 7280 H 696.12 0.696517 -4.10533 0
M  V30 7281 H 698.717 3.47749 -4.06171 0
M  V30 7282 H 699.06 3.43649 -2.3497 0
M  V30 7283 H 699.593 2.08962 -3.38496 0
M  V30 7284 H 696.332 1.63482 -6.34786 0
M  V30 7285 H 695.852 2.93364 -5.23161 0
M  V30 7286 H 697.531 2.83205 -5.81725 0
M  V30 7287 N 697.663 1.43903 0.642637 0
M  V30 7288 C 698.888 1.49758 1.43483 0
M  V30 7289 C 699.313 0.119911 1.87717 0
M  V30 7290 O 698.671 -0.888558 1.58033 0
M  V30 7291 C 698.719 2.45744 2.63898 0
M  V30 7292 O 697.823 1.95101 3.63331 0
M  V30 7293 H 697.164 0.506138 0.429791 0
M  V30 7294 H 699.694 1.88923 0.785438 0
M  V30 7295 H 699.704 2.63399 3.11584 0
M  V30 7296 H 698.379 3.45818 2.31046 0
M  V30 7297 H 696.956 1.87158 3.22531 0
M  V30 7298 N 699.141 -0.881989 1.30609 0
M  V30 7299 C 700.073 -1.99375 1.13058 0
M  V30 7300 C 701.086 -1.62636 0.0729879 0
M  V30 7301 O 702.275 -1.75621 0.319301 0
M  V30 7302 C 699.375 -3.31536 0.702651 0
M  V30 7303 C 698.548 -3.96693 1.84265 0
M  V30 7304 C 697.607 -5.07158 1.40277 0
M  V30 7305 O 696.633 -5.28628 2.11048 0
M  V30 7306 N 697.835 -5.79808 0.283449 0
M  V30 7307 H 700.6 -2.14981 2.08814 0
M  V30 7308 H 698.161 -1.05526 1.22784 0
M  V30 7309 H 700.153 -4.02804 0.391331 0
M  V30 7310 H 698.723 -3.12175 -0.162954 0
M  V30 7311 H 697.943 -3.1856 2.32192 0
M  V30 7312 H 699.231 -4.36964 2.60653 0
M  V30 7313 H 698.629 -5.64871 -0.306189 0
M  V30 7314 H 697.186 -6.51792 0.0315985 0
M  V30 7315 N 700.619 -1.13374 -1.09472 0
M  V30 7316 C 701.844 -0.918711 -1.85942 0
M  V30 7317 C 702.269 0.527225 -1.8056 0
M  V30 7318 O 701.627 1.37408 -1.18274 0
M  V30 7319 C 701.675 -1.41056 -3.31867 0
M  V30 7320 O 700.779 -0.595496 -4.08078 0
M  V30 7321 H 700.12 -0.329297 -0.576593 0
M  V30 7322 H 702.65 -1.50829 -1.38245 0
M  V30 7323 H 702.66 -1.41398 -3.82715 0
M  V30 7324 H 701.335 -2.46335 -3.35099 0
M  V30 7325 H 699.912 -0.659911 -3.67014 0
M  V30 7326 N 702.098 1.27442 -0.927168 0
M  V30 7327 C 703.344 1.94679 -0.568164 0
M  V30 7328 C 703.677 1.72697 0.888219 0
M  V30 7329 O 702.952 1.05573 1.63354 0
M  V30 7330 C 703.235 3.4882 -0.894253 0
M  V30 7331 C 703.088 3.80146 -2.40435 0
M  V30 7332 C 704.407 4.38281 -0.399766 0
M  V30 7333 H 701.526 0.707071 -0.207892 0
M  V30 7334 H 704.168 1.50568 -1.15885 0
M  V30 7335 H 702.318 3.86522 -0.391566 0
M  V30 7336 H 703.99 3.52238 -2.97869 0
M  V30 7337 H 702.233 3.26716 -2.85375 0
M  V30 7338 H 702.904 4.87835 -2.58304 0
M  V30 7339 H 705.38 4.07726 -0.83058 0
M  V30 7340 H 704.256 5.44955 -0.656885 0
M  V30 7341 H 704.517 4.36521 0.700153 0
M  V30 7342 N 703.576 0.692616 1.41565 0
M  V30 7343 C 704.539 0.0344174 2.29174 0
M  V30 7344 C 705.539 -0.710961 1.44229 0
M  V30 7345 O 706.729 -0.546293 1.65412 0
M  V30 7346 C 703.861 -0.961682 3.27054 0
M  V30 7347 H 705.054 0.805755 2.88873 0
M  V30 7348 H 702.607 0.455947 1.49502 0
M  V30 7349 H 703.342 -1.76089 2.72329 0
M  V30 7350 H 703.127 -0.430375 3.89731 0
M  V30 7351 H 704.617 -1.4201 3.92712 0
M  V30 7352 N 705.054 -1.51416 0.437162 0
M  V30 7353 C 706.3 -2.02386 -0.129555 0
M  V30 7354 C 706.633 -1.32071 -1.42376 0
M  V30 7355 O 705.908 -0.43559 -1.8956 0
M  V30 7356 C 706.191 -3.5841 -0.348487 0
M  V30 7357 C 706.044 -4.39341 0.964352 0
M  V30 7358 C 707.363 -4.25654 -1.11834 0
M  V30 7359 H 704.482 -0.735587 -0.0456109 0
M  V30 7360 H 707.124 -1.81055 0.576124 0
M  V30 7361 H 705.274 -3.76716 -0.949592 0
M  V30 7362 H 706.946 -4.32685 1.59942 0
M  V30 7363 H 705.189 -4.04432 1.56898 0
M  V30 7364 H 705.86 -5.4667 0.765212 0
M  V30 7365 H 708.336 -4.11617 -0.609165 0
M  V30 7366 H 707.212 -5.34704 -1.24029 0
M  V30 7367 H 707.473 -3.86502 -2.14636 0
M  V30 7368 N 706.532 -0.168513 -1.56696 0
M  V30 7369 C 707.779 0.477158 -1.96798 0
M  V30 7370 C 708.107 1.63442 -1.05437 0
M  V30 7371 O 707.362 1.95503 -0.0878903 0
M  V30 7372 C 707.661 1.00441 -3.42996 0
M  V30 7373 C 707.327 -0.0366556 -4.50885 0
M  V30 7374 C 705.989 -0.322785 -4.80116 0
M  V30 7375 C 708.341 -0.743447 -5.1587 0
M  V30 7376 C 705.669 -1.32114 -5.71632 0
M  V30 7377 C 708.021 -1.73077 -6.08463 0
M  V30 7378 C 706.685 -2.02437 -6.36062 0
M  V30 7379 H 705.955 0.174604 -0.720135 0
M  V30 7380 H 708.602 -0.259884 -1.89728 0
M  V30 7381 H 706.907 1.81922 -3.47004 0
M  V30 7382 H 708.604 1.51294 -3.71364 0
M  V30 7383 H 705.194 0.196532 -4.28149 0
M  V30 7384 H 709.378 -0.535602 -4.93401 0
M  V30 7385 H 704.634 -1.55482 -5.913 0
M  V30 7386 H 708.808 -2.28382 -6.57886 0
M  V30 7387 H 706.435 -2.79946 -7.06777 0
M  V30 7388 N 708.01 1.57248 0.105221 0
M  V30 7389 C 709.287 1.76566 0.841647 0
M  V30 7390 C 709.667 0.747566 1.9742 0
M  V30 7391 O 709.015 -0.225886 2.27381 0
M  V30 7392 C 709.225 3.22016 1.3456 0
M  V30 7393 C 710.573 3.84911 1.79244 0
M  V30 7394 O 711.597 3.25703 1.44207 0
M  V30 7395 O 710.456 4.89008 2.43995 0
M  V30 7396 H 707.55 0.723443 0.400698 0
M  V30 7397 H 710.096 1.69472 0.0878893 0
M  V30 7398 H 708.868 3.87644 0.533685 0
M  V30 7399 H 708.491 3.33703 2.16167 0
M  V30 7400 N 709.488 -0.375779 1.53054 0
M  V30 7401 C 710.418 -1.46598 1.81745 0
M  V30 7402 C 711.399 -1.56337 0.670286 0
M  V30 7403 O 712.584 -1.71071 0.919158 0
M  V30 7404 C 709.714 -2.84058 1.99821 0
M  V30 7405 C 708.668 -2.8915 3.15557 0
M  V30 7406 C 707.994 -4.29187 3.18908 0
M  V30 7407 C 709.294 -2.57595 4.54359 0
M  V30 7408 H 710.988 -1.22837 2.73041 0
M  V30 7409 H 708.534 -0.589485 1.31381 0
M  V30 7410 H 710.487 -3.60342 2.18475 0
M  V30 7411 H 709.211 -3.09184 1.05226 0
M  V30 7412 H 707.87 -2.15316 2.96706 0
M  V30 7413 H 707.518 -4.51374 2.2197 0
M  V30 7414 H 707.218 -4.33512 3.96662 0
M  V30 7415 H 708.742 -5.07359 3.39734 0
M  V30 7416 H 710.156 -3.23595 4.73243 0
M  V30 7417 H 708.553 -2.73252 5.34279 0
M  V30 7418 H 709.623 -1.52882 4.60169 0
M  V30 7419 N 710.966 -1.44241 -0.634997 0
M  V30 7420 C 711.913 -1.5081 -1.74714 0
M  V30 7421 C 712.883 -0.356147 -1.62237 0
M  V30 7422 O 714.068 -0.565848 -1.82216 0
M  V30 7423 C 711.208 -1.45458 -3.12947 0
M  V30 7424 C 710.321 -2.70998 -3.36428 0
M  V30 7425 C 709.456 -2.57507 -4.64611 0
M  V30 7426 C 708.495 -3.78229 -4.81258 0
M  V30 7427 N 707.632 -3.63438 -6.00714 0
M  V30 7428 H 712.472 -2.45832 -1.68436 0
M  V30 7429 H 710.009 -1.2201 -0.821706 0
M  V30 7430 H 711.967 -1.40347 -3.92885 0
M  V30 7431 H 710.597 -0.540058 -3.1825 0
M  V30 7432 H 709.649 -2.86312 -2.50458 0
M  V30 7433 H 710.961 -3.60619 -3.44609 0
M  V30 7434 H 710.115 -2.50207 -5.52703 0
M  V30 7435 H 708.854 -1.65441 -4.58782 0
M  V30 7436 H 707.859 -3.85918 -3.91596 0
M  V30 7437 H 709.084 -4.71327 -4.88904 0
M  V30 7438 H 707.03 -2.7412 -5.95982 0
M  V30 7439 H 706.947 -4.46672 -6.09934 0
M  V30 7440 H 708.215 -3.60022 -6.91378 0
M  V30 7441 N 712.444 0.87505 -1.31075 0
M  V30 7442 C 713.392 2.00317 -1.18219 0
M  V30 7443 C 714.386 1.69152 -0.0916872 0
M  V30 7444 O 715.592 1.7821 -0.253229 0
M  V30 7445 H 711.967 0.656981 -0.365895 0
M  V30 7446 H 713.938 2.08293 -2.13674 0
M  V30 7447 C 712.687 3.35821 -0.901095 0
M  V30 7448 H 712.01 3.6032 -1.73233 0
M  V30 7449 H 713.45 4.15366 -0.851295 0
M  V30 7450 C 711.909 3.34563 0.396114 0
M  V30 7451 O 712.439 3.75971 1.41452 0
M  V30 7452 N 710.645 2.87681 0.410832 0
M  V30 7453 H 710.192 2.54179 -0.418415 0
M  V30 7454 H 710.15 2.87223 1.27869 0
M  V30 7455 N 713.922 1.13953 1.08869 0
M  V30 7456 C 714.852 0.844824 2.17681 0
M  V30 7457 C 715.833 -0.198213 1.68941 0
M  V30 7458 O 717.018 -0.0559073 1.9412 0
M  V30 7459 C 714.148 0.316325 3.45856 0
M  V30 7460 C 713.102 1.29426 4.07962 0
M  V30 7461 C 712.428 0.625275 5.31031 0
M  V30 7462 C 713.728 2.65484 4.49795 0
M  V30 7463 H 715.422 1.75471 2.42591 0
M  V30 7464 H 712.968 0.845116 1.16592 0
M  V30 7465 H 714.921 0.0977876 4.21287 0
M  V30 7466 H 713.645 -0.628972 3.20486 0
M  V30 7467 H 712.304 1.49889 3.34558 0
M  V30 7468 H 711.952 -0.325678 5.01945 0
M  V30 7469 H 711.652 1.27777 5.73539 0
M  V30 7470 H 713.176 0.416152 6.0918 0
M  V30 7471 H 714.59 2.48957 5.16424 0
M  V30 7472 H 712.987 3.26963 5.03205 0
M  V30 7473 H 714.057 3.22717 3.61914 0
M  V30 7474 N 715.4 -1.26948 0.933913 0
M  V30 7475 C 716.677 -1.89212 0.495784 0
M  V30 7476 C 717.057 -1.84469 -1.02637 0
M  V30 7477 O 716.405 -1.29409 -1.88323 0
M  V30 7478 C 716.615 -3.32865 1.0489 0
M  V30 7479 C 717.963 -4.09749 1.11315 0
M  V30 7480 O 718.987 -3.41905 0.998966 0
M  V30 7481 O 717.846 -5.31061 1.28983 0
M  V30 7482 H 714.94 -0.811284 0.160459 0
M  V30 7483 H 717.486 -1.35171 1.02601 0
M  V30 7484 H 716.258 -3.30642 2.09265 0
M  V30 7485 H 715.881 -3.94435 0.500692 0
M  V30 7486 N 716.879 -0.700114 -1.41195 0
M  V30 7487 C 717.842 -0.0465706 -2.29153 0
M  V30 7488 C 718.842 0.703302 -1.44604 0
M  V30 7489 O 720.032 0.537513 -1.657 0
M  V30 7490 C 717.164 0.944324 -3.2756 0
M  V30 7491 H 718.357 -0.821064 -2.88442 0
M  V30 7492 H 715.91 -0.463869 -1.49258 0
M  V30 7493 H 716.645 1.74642 -2.73259 0
M  V30 7494 H 716.43 0.409701 -3.89954 0
M  V30 7495 H 717.92 1.39925 -3.9346 0
M  V30 7496 N 718.357 1.51182 -0.445186 0
M  V30 7497 C 719.304 2.27939 0.362291 0
M  V30 7498 C 720.274 1.31864 1.01 0
M  V30 7499 O 721.459 1.60776 1.02741 0
M  V30 7500 C 718.599 3.13016 1.45311 0
M  V30 7501 C 717.712 4.24093 0.822757 0
M  V30 7502 C 716.847 4.96467 1.88928 0
M  V30 7503 C 715.886 5.99454 1.23778 0
M  V30 7504 N 715.023 6.65206 2.24602 0
M  V30 7505 H 719.863 2.965 -0.29862 0
M  V30 7506 H 717.4 1.46237 -0.15911 0
M  V30 7507 H 719.358 3.60673 2.09692 0
M  V30 7508 H 717.988 2.46553 2.08354 0
M  V30 7509 H 717.04 3.80341 0.0670364 0
M  V30 7510 H 718.352 4.97853 0.307184 0
M  V30 7511 H 717.506 5.47712 2.60953 0
M  V30 7512 H 716.245 4.22355 2.4386 0
M  V30 7513 H 715.25 5.47494 0.503042 0
M  V30 7514 H 716.475 6.75527 0.695694 0
M  V30 7515 H 714.421 5.93901 2.78599 0
M  V30 7516 H 714.338 7.34756 1.77958 0
M  V30 7517 H 715.606 7.21078 2.96085 0
M  V30 7518 N 719.835 0.176821 1.56605 0
M  V30 7519 C 721.065 -0.472142 2.01133 0
M  V30 7520 C 721.473 -1.56979 1.05614 0
M  V30 7521 O 720.816 -1.83632 0.0500137 0
M  V30 7522 C 720.878 -1.10547 3.42081 0
M  V30 7523 C 720.542 -0.148806 4.56758 0
M  V30 7524 C 721.539 0.634939 5.16008 0
M  V30 7525 C 719.224 -0.0430325 5.02282 0
M  V30 7526 C 721.218 1.5116 6.19217 0
M  V30 7527 C 718.905 0.83721 6.05338 0
M  V30 7528 C 719.903 1.61311 6.63677 0
M  V30 7529 O 719.591 2.47863 7.64735 0
M  V30 7530 H 719.323 -0.124725 0.664394 0
M  V30 7531 H 721.877 0.277329 2.03519 0
M  V30 7532 H 720.107 -1.90318 3.36625 0
M  V30 7533 H 721.796 -1.6572 3.70529 0
M  V30 7534 H 722.562 0.563424 4.81716 0
M  V30 7535 H 718.441 -0.636753 4.56581 0
M  V30 7536 H 721.985 2.11767 6.64681 0
M  V30 7537 H 717.882 0.909908 6.39055 0
M  V30 7538 H 718.65 2.4144 7.8208 0
M  V30 7539 N 721.313 -1.57302 -0.09688 0
M  V30 7540 C 722.245 -1.98618 -1.14384 0
M  V30 7541 C 723.258 -0.888483 -1.36418 0
M  V30 7542 O 724.447 -1.16661 -1.35101 0
M  V30 7543 C 721.547 -2.28838 -2.49973 0
M  V30 7544 C 720.72 -3.60132 -2.48241 0
M  V30 7545 C 719.779 -3.7831 -3.65743 0
M  V30 7546 O 718.805 -4.50183 -3.48316 0
M  V30 7547 N 720.007 -3.18752 -4.85157 0
M  V30 7548 H 722.772 -2.8904 -0.792202 0
M  V30 7549 H 720.333 -1.59356 -0.285883 0
M  V30 7550 H 722.325 -2.38193 -3.27179 0
M  V30 7551 H 720.895 -1.44431 -2.77233 0
M  V30 7552 H 720.115 -3.61763 -1.56593 0
M  V30 7553 H 721.403 -4.46389 -2.4416 0
M  V30 7554 H 720.801 -2.60368 -5.0222 0
M  V30 7555 H 719.358 -3.33595 -5.59962 0
M  V30 7556 N 722.791 0.367657 -1.53252 0
M  V30 7557 C 724.037 1.11216 -1.69584 0
M  V30 7558 C 724.37 1.89026 -0.445269 0
M  V30 7559 O 723.645 1.86342 0.557404 0
M  V30 7560 C 723.928 2.07308 -2.94441 0
M  V30 7561 C 723.781 1.3312 -4.2965 0
M  V30 7562 C 725.1 3.07459 -3.14892 0
M  V30 7563 H 722.219 0.40294 -0.617096 0
M  V30 7564 H 724.861 0.393201 -1.85887 0
M  V30 7565 H 723.011 2.68617 -2.80673 0
M  V30 7566 H 724.683 0.746111 -4.55226 0
M  V30 7567 H 722.926 0.633051 -4.29156 0
M  V30 7568 H 723.597 2.03443 -5.13142 0
M  V30 7569 H 726.073 2.56252 -3.27832 0
M  V30 7570 H 724.949 3.71919 -4.03693 0
M  V30 7571 H 725.21 3.77514 -2.30077 0
M  V30 7572 N 724.269 1.44576 0.627338 0
M  V30 7573 C 725.199 1.54562 1.75022 0
M  V30 7574 C 726.18 0.398378 1.65369 0
M  V30 7575 O 727.365 0.61899 1.84071 0
M  V30 7576 C 724.495 1.49309 3.13567 0
M  V30 7577 C 723.449 2.62549 3.38012 0
M  V30 7578 C 722.775 2.42348 4.76625 0
M  V30 7579 C 724.075 4.04678 3.30202 0
M  V30 7580 H 725.769 2.4855 1.66922 0
M  V30 7581 H 723.315 1.19624 0.801636 0
M  V30 7582 H 725.268 1.54895 3.919 0
M  V30 7583 H 723.992 0.518392 3.2246 0
M  V30 7584 H 722.651 2.56358 2.62061 0
M  V30 7585 H 722.299 1.43062 4.82226 0
M  V30 7586 H 721.999 3.18273 4.93939 0
M  V30 7587 H 723.523 2.49758 5.57183 0
M  V30 7588 H 724.937 4.12217 3.98435 0
M  V30 7589 H 723.334 4.80836 3.5905 0
M  V30 7590 H 724.404 4.2798 2.27949 0
M  V30 7591 N 725.747 -0.868086 1.31537 0
M  V30 7592 C 727.158 -1.437 1.19195 0
M  V30 7593 C 727.509 -1.95169 -0.200842 0
M  V30 7594 O 726.634 -1.86432 -1.09872 0
M  V30 7595 C 727.229 -2.612 2.15778 0
M  V30 7596 C 725.788 -3.1413 2.07363 0
M  V30 7597 C 724.935 -1.86845 2.049 0
M  V30 7598 H 727.886 -0.676457 1.43561 0
M  V30 7599 H 727.907 -3.37948 1.74847 0
M  V30 7600 H 727.419 -2.23709 3.17137 0
M  V30 7601 H 725.52 -3.56238 1.09204 0
M  V30 7602 H 725.633 -3.76285 2.96557 0
M  V30 7603 H 723.997 -2.05886 1.49943 0
M  V30 7604 H 724.78 -1.51589 3.08019 0
M  V30 7605 N 727.225 -1.14528 -1.08264 0
M  V30 7606 C 728.474 -0.908992 -1.80056 0
M  V30 7607 C 728.787 0.565859 -1.87236 0
M  V30 7608 O 729.993 0.919454 -2.55457 0
M  V30 7609 C 728.449 -1.57681 -3.23519 0
M  V30 7610 C 728.057 -3.08803 -3.24569 0
M  V30 7611 C 729.801 -1.4217 -3.99985 0
M  V30 7612 C 727.708 -3.68414 -4.62629 0
M  V30 7613 H 726.638 -0.336432 -0.674781 0
M  V30 7614 H 729.289 -1.37437 -1.21587 0
M  V30 7615 H 727.671 -1.03911 -3.82124 0
M  V30 7616 H 728.845 -3.69252 -2.75663 0
M  V30 7617 H 727.16 -3.23968 -2.61598 0
M  V30 7618 H 729.757 -1.84106 -5.02005 0
M  V30 7619 H 730.1 -0.367989 -4.1467 0
M  V30 7620 H 730.633 -1.92984 -3.47853 0
M  V30 7621 H 727.372 -4.73644 -4.53147 0
M  V30 7622 H 726.892 -3.12746 -5.11811 0
M  V30 7623 H 728.571 -3.68793 -5.31602 0
M  V30 7624 N 728.703 1.26451 -0.940633 0
M  V30 7625 C 729.666 2.24651 -0.454378 0
M  V30 7626 C 730.666 1.54826 0.434222 0
M  V30 7627 O 731.856 1.72628 0.233477 0
M  V30 7628 C 728.988 3.39148 0.345192 0
M  V30 7629 H 730.181 2.69182 -1.32217 0
M  V30 7630 H 727.734 1.38596 -0.722547 0
M  V30 7631 H 728.469 3.00018 1.23125 0
M  V30 7632 H 728.254 3.9101 -0.292107 0
M  V30 7633 H 729.744 4.12103 0.675341 0
M  V30 7634 N 730.181 0.707592 1.40822 0
M  V30 7635 C 731.091 0.0507246 2.34545 0
M  V30 7636 C 732.107 -0.752727 1.56876 0
M  V30 7637 O 733.283 -0.687524 1.89302 0
M  V30 7638 C 730.348 -0.865731 3.35717 0
M  V30 7639 C 729.409 -0.0531313 4.29267 0
M  V30 7640 C 728.642 -0.925939 5.25606 0
M  V30 7641 O 728.865 -2.16531 5.27703 0
M  V30 7642 O 727.799 -0.369194 6.00767 0
M  V30 7643 H 731.625 0.823587 2.9232 0
M  V30 7644 H 729.21 0.46801 1.4188 0
M  V30 7645 H 731.092 -1.39091 3.97783 0
M  V30 7646 H 729.767 -1.61788 2.80368 0
M  V30 7647 H 728.674 0.516931 3.70511 0
M  V30 7648 H 730.007 0.660617 4.87747 0
M  V30 7649 N 731.66 -1.50943 0.453197 0
M  V30 7650 C 732.906 -2.03153 -0.100277 0
M  V30 7651 C 733.261 -1.33032 -1.38997 0
M  V30 7652 O 732.554 -0.441423 -1.86446 0
M  V30 7653 C 732.748 -3.55603 -0.357944 0
M  V30 7654 C 732.577 -4.40495 0.905223 0
M  V30 7655 C 731.347 -4.84247 1.44337 0
M  V30 7656 C 733.545 -4.81931 1.79575 0
M  V30 7657 N 731.527 -5.53403 2.65742 0
M  V30 7658 C 732.898 -5.50314 2.85577 0
M  V30 7659 C 734.953 -4.63903 1.80828 0
M  V30 7660 C 733.656 -6.02581 3.92797 0
M  V30 7661 C 735.682 -5.17097 2.86993 0
M  V30 7662 C 735.044 -5.8544 3.91713 0
M  V30 7663 H 731.143 -0.781995 0.00287755 0
M  V30 7664 H 733.727 -1.84651 0.617411 0
M  V30 7665 H 731.898 -3.74087 -1.04467 0
M  V30 7666 H 733.63 -3.9447 -0.904175 0
M  V30 7667 H 730.385 -4.63029 0.995045 0
M  V30 7668 H 730.809 -5.92598 3.27348 0
M  V30 7669 H 735.451 -4.10512 1.0119 0
M  V30 7670 H 733.169 -6.55018 4.73262 0
M  V30 7671 H 736.755 -5.0499 2.88923 0
M  V30 7672 H 735.635 -6.25861 4.72512 0
M  V30 7673 N 733.138 -0.185124 -1.56509 0
M  V30 7674 C 734.101 0.72591 -2.17401 0
M  V30 7675 C 735.101 1.14819 -1.12575 0
M  V30 7676 O 736.291 1.0629 -1.38015 0
M  V30 7677 C 733.423 1.98979 -2.76803 0
M  V30 7678 H 734.616 0.195588 -2.99262 0
M  V30 7679 H 732.169 0.0644772 -1.56167 0
M  V30 7680 H 732.904 2.56287 -1.98714 0
M  V30 7681 H 732.689 1.69583 -3.53531 0
M  V30 7682 H 734.179 2.63966 -3.23592 0
M  V30 7683 N 734.616 1.57351 0.0885366 0
M  V30 7684 C 735.893 1.77449 0.822873 0
M  V30 7685 C 736.273 0.768463 1.96616 0
M  V30 7686 O 735.621 -0.201757 2.27608 0
M  V30 7687 C 735.831 3.23425 1.31137 0
M  V30 7688 C 737.179 3.86791 1.75152 0
M  V30 7689 O 738.203 3.27215 1.40745 0
M  V30 7690 O 737.062 4.91568 2.38794 0
M  V30 7691 H 734.156 0.727653 0.393002 0
M  V30 7692 H 736.702 1.69556 0.0699095 0
M  V30 7693 H 735.474 3.88188 0.49254 0
M  V30 7694 H 735.097 3.35977 2.12615 0
M  V30 7695 N 736.094 -0.359525 1.53444 0
M  V30 7696 C 737.024 -1.44662 1.8329 0
M  V30 7697 C 738.005 -1.55617 0.68683 0
M  V30 7698 O 739.19 -1.70086 0.93725 0
M  V30 7699 C 736.32 -2.81923 2.02822 0
M  V30 7700 C 735.274 -2.85787 3.18606 0
M  V30 7701 C 734.6 -4.25781 3.23442 0
M  V30 7702 C 735.9 -2.52762 4.57065 0
M  V30 7703 H 737.594 -1.19934 2.74329 0
M  V30 7704 H 735.14 -0.575517 1.31999 0
M  V30 7705 H 737.093 -3.58005 2.22285 0
M  V30 7706 H 735.817 -3.08051 1.085 0
M  V30 7707 H 734.476 -2.12157 2.98973 0
M  V30 7708 H 734.124 -4.48994 2.26745 0
M  V30 7709 H 733.824 -4.29281 4.01238 0
M  V30 7710 H 735.348 -5.03727 3.45096 0
M  V30 7711 H 736.762 -3.18557 4.76649 0
M  V30 7712 H 735.159 -2.67569 5.37147 0
M  V30 7713 H 736.229 -1.47993 4.61764 0
M  V30 7714 N 737.572 -1.44907 -0.619662 0
M  V30 7715 C 738.82 -1.47999 -1.37625 0
M  V30 7716 C 739.141 -0.118295 -1.94641 0
M  V30 7717 O 738.411 0.85086 -1.76457 0
M  V30 7718 H 736.991 -0.544993 -0.510873 0
M  V30 7719 H 739.653 -1.80772 -0.728522 0
M  V30 7720 H 738.749 -2.21196 -2.20179 0
M  V30 7721 N 739.05 0.861098 -1.31996 0
M  V30 7722 C 739.96 2.00154 -1.22374 0
M  V30 7723 C 740.976 1.73447 -0.138631 0
M  V30 7724 O 742.152 1.98191 -0.358104 0
M  V30 7725 C 739.217 3.33696 -0.940645 0
M  V30 7726 C 738.278 3.73668 -2.11355 0
M  V30 7727 C 737.511 5.00837 -1.84386 0
M  V30 7728 O 737.734 5.64996 -0.783287 0
M  V30 7729 O 736.668 5.37787 -2.70313 0
M  V30 7730 H 740.494 2.11207 -2.18233 0
M  V30 7731 H 738.079 0.990768 -1.11822 0
M  V30 7732 H 739.961 4.13756 -0.798987 0
M  V30 7733 H 738.636 3.23698 -0.0121636 0
M  V30 7734 H 737.543 2.94211 -2.31065 0
M  V30 7735 H 738.876 3.88303 -3.02459 0
M  V30 7736 N 740.528 1.15101 1.07655 0
M  V30 7737 C 741.776 0.922149 1.79836 0
M  V30 7738 C 742.097 -0.552346 1.87014 0
M  V30 7739 O 741.367 -1.40145 1.3688 0
M  V30 7740 H 739.947 0.338182 0.666064 0
M  V30 7741 H 742.609 1.45107 1.30115 0
M  V30 7742 H 741.705 1.32883 2.82398 0
M  V30 7743 N 742.006 -1.2595 0.947325 0
M  V30 7744 C 742.969 -2.24407 0.466285 0
M  V30 7745 C 743.969 -1.55054 -0.426005 0
M  V30 7746 O 745.159 -1.7275 -0.224319 0
M  V30 7747 C 742.291 -3.39326 -0.327201 0
M  V30 7748 H 743.484 -2.68477 1.33642 0
M  V30 7749 H 741.037 -1.38211 0.729887 0
M  V30 7750 H 741.772 -3.00667 -1.21532 0
M  V30 7751 H 741.557 -3.9085 0.312839 0
M  V30 7752 H 743.047 -4.12455 -0.653477 0
M  V30 7753 N 743.484 -0.715051 -1.40445 0
M  V30 7754 C 744.431 -0.0621393 -2.30716 0
M  V30 7755 C 745.401 0.750871 -1.48159 0
M  V30 7756 O 746.586 0.714928 -1.76899 0
M  V30 7757 C 743.726 0.854036 -3.34365 0
M  V30 7758 C 742.839 0.0305565 -4.31989 0
M  V30 7759 C 741.974 0.946162 -5.22706 0
M  V30 7760 C 741.013 0.116741 -6.11989 0
M  V30 7761 N 740.15 0.987194 -6.95125 0
M  V30 7762 H 744.99 -0.83764 -2.85985 0
M  V30 7763 H 742.527 -0.424759 -1.40834 0
M  V30 7764 H 744.485 1.39946 -3.93028 0
M  V30 7765 H 743.115 1.59572 -2.806 0
M  V30 7766 H 742.167 -0.632044 -3.75112 0
M  V30 7767 H 743.479 -0.611615 -4.95036 0
M  V30 7768 H 742.633 1.56014 -5.86297 0
M  V30 7769 H 741.372 1.62216 -4.59932 0
M  V30 7770 H 740.377 -0.510176 -5.47428 0
M  V30 7771 H 741.602 -0.555742 -6.76822 0
M  V30 7772 H 739.548 1.64885 -6.3494 0
M  V30 7773 H 739.465 0.401046 -7.54936 0
M  V30 7774 H 740.733 1.58737 -7.63166 0
M  V30 7775 N 744.962 1.50701 -0.461195 0
M  V30 7776 C 746.378 1.59187 -0.114786 0
M  V30 7777 C 746.578 1.4702 1.37794 0
M  V30 7778 O 745.634 1.32361 2.15027 0
M  V30 7779 C 746.947 2.93453 -0.656167 0
M  V30 7780 C 748.495 3.06824 -0.618715 0
M  V30 7781 C 748.97 4.4365 -1.13747 0
M  V30 7782 N 750.461 4.50035 -1.09646 0
M  V30 7783 C 751.196 5.54278 -1.46846 0
M  V30 7784 N 750.692 6.65822 -1.91448 0
M  V30 7785 N 752.485 5.44767 -1.38512 0
M  V30 7786 H 744.636 1.56853 -1.43216 0
M  V30 7787 H 746.899 0.740712 -0.59165 0
M  V30 7788 H 746.605 3.07802 -1.7015 0
M  V30 7789 H 746.479 3.77082 -0.0942261 0
M  V30 7790 H 748.866 2.92129 0.417685 0
M  V30 7791 H 748.947 2.24976 -1.21734 0
M  V30 7792 H 748.591 4.59093 -2.17245 0
M  V30 7793 H 748.521 5.24074 -0.515153 0
M  V30 7794 H 751.012 3.69988 -0.769217 0
M  V30 7795 H 751.325 7.41413 -2.18007 0
M  V30 7796 H 749.67 6.66968 -1.95393 0
M  V30 7797 H 752.861 4.56511 -1.03516 0
M  V30 7798 H 753.034 6.25889 -1.6783 0
M  V30 7799 N 746.441 0.193421 1.56409 0
M  V30 7800 C 747.687 -0.446449 1.97825 0
M  V30 7801 C 748.02 -1.61386 1.08019 0
M  V30 7802 O 747.295 -1.94053 0.131839 0
M  V30 7803 C 747.578 -0.908199 3.48459 0
M  V30 7804 C 747.431 0.260914 4.49043 0
M  V30 7805 C 748.75 -1.77428 4.0275 0
M  V30 7806 H 745.869 -0.160807 0.719243 0
M  V30 7807 H 748.511 0.284006 1.87865 0
M  V30 7808 H 746.661 -1.53062 3.57077 0
M  V30 7809 H 748.333 0.898548 4.52464 0
M  V30 7810 H 746.576 0.912949 4.24085 0
M  V30 7811 H 747.247 -0.104657 5.51901 0
M  V30 7812 H 749.723 -1.24936 3.96901 0
M  V30 7813 H 748.599 -2.06633 5.08521 0
M  V30 7814 H 748.86 -2.72788 3.47907 0
M  V30 7815 N 747.919 -1.57396 -0.0801906 0
M  V30 7816 C 749.165 -1.87113 -0.782083 0
M  V30 7817 C 749.498 -0.78458 -1.77646 0
M  V30 7818 O 748.773 0.205993 -1.93406 0
M  V30 7819 C 749.056 -3.27483 -1.49756 0
M  V30 7820 C 748.909 -4.46782 -0.520171 0
M  V30 7821 C 750.228 -3.65965 -2.44454 0
M  V30 7822 H 747.347 -0.680559 -0.282858 0
M  V30 7823 H 749.989 -1.89946 -0.0454139 0
M  V30 7824 H 748.139 -3.25199 -2.12551 0
M  V30 7825 H 749.811 -4.61187 0.101919 0
M  V30 7826 H 748.054 -4.33485 0.165219 0
M  V30 7827 H 748.725 -5.41761 -1.05824 0
M  V30 7828 H 751.201 -3.69289 -1.91742 0
M  V30 7829 H 750.077 -4.65086 -2.91524 0
M  V30 7830 H 750.338 -2.95446 -3.28883 0
M  V30 7831 N 749.397 0.351382 -1.53633 0
M  V30 7832 C 750.329 1.45159 -1.77374 0
M  V30 7833 C 751.342 1.4905 -0.654826 0
M  V30 7834 O 752.531 1.52274 -0.931396 0
M  V30 7835 C 749.631 2.83858 -1.85143 0
M  V30 7836 C 748.804 3.03498 -3.14972 0
M  V30 7837 C 747.863 4.22393 -3.138 0
M  V30 7838 O 746.889 4.16885 -3.87551 0
M  V30 7839 N 748.091 5.30533 -2.35617 0
M  V30 7840 H 750.856 1.25167 -2.72311 0
M  V30 7841 H 748.417 0.54121 -1.52586 0
M  V30 7842 H 750.409 3.61557 -1.8182 0
M  V30 7843 H 748.979 2.9703 -0.974275 0
M  V30 7844 H 748.199 2.13336 -3.31484 0
M  V30 7845 H 749.487 3.13498 -4.00745 0
M  V30 7846 H 748.885 5.37875 -1.75235 0
M  V30 7847 H 747.442 6.06756 -2.38098 0
M  V30 7848 N 750.875 1.45233 0.611969 0
M  V30 7849 C 752.286 1.4354 1.19387 0
M  V30 7850 C 752.637 0.160713 1.95541 0
M  V30 7851 O 751.762 -0.737954 2.03429 0
M  V30 7852 C 752.357 2.60045 2.17169 0
M  V30 7853 C 750.916 2.61486 2.70744 0
M  V30 7854 C 750.063 2.35708 1.46072 0
M  V30 7855 H 753.014 1.53536 0.401529 0
M  V30 7856 H 753.035 2.33893 3.00124 0
M  V30 7857 H 752.547 3.52803 1.61714 0
M  V30 7858 H 750.648 1.72721 3.30149 0
M  V30 7859 H 750.761 3.60572 3.15476 0
M  V30 7860 H 749.125 1.85178 1.74875 0
M  V30 7861 H 749.908 3.30606 0.924922 0
M  V30 7862 N 752.353 -0.854086 1.3245 0
M  V30 7863 C 753.263 -1.99503 1.23434 0
M  V30 7864 C 754.279 -1.73371 0.147828 0
M  V30 7865 O 755.455 -1.97998 0.368609 0
M  V30 7866 C 752.52 -3.33192 0.958328 0
M  V30 7867 C 751.581 -3.72542 2.13333 0
M  V30 7868 C 750.814 -4.99852 1.8704 0
M  V30 7869 O 751.037 -5.64573 0.813239 0
M  V30 7870 O 749.971 -5.36345 2.73161 0
M  V30 7871 H 753.797 -2.10046 2.1935 0
M  V30 7872 H 751.382 -0.984823 1.12346 0
M  V30 7873 H 753.264 -4.13327 0.820918 0
M  V30 7874 H 751.939 -3.23687 0.0293299 0
M  V30 7875 H 750.846 -2.92981 2.32622 0
M  V30 7876 H 752.179 -3.86694 3.04514 0
M  V30 7877 N 753.831 -1.1567 -1.07043 0
M  V30 7878 C 755.061 -0.956083 -1.83146 0
M  V30 7879 C 755.469 0.498969 -1.82502 0
M  V30 7880 O 754.812 1.35791 -1.23719 0
M  V30 7881 C 754.874 -1.39704 -3.31245 0
M  V30 7882 C 754.538 -2.87045 -3.55604 0
M  V30 7883 C 755.535 -3.85092 -3.49285 0
M  V30 7884 C 753.22 -3.24787 -3.8317 0
M  V30 7885 C 755.214 -5.18885 -3.70185 0
M  V30 7886 C 752.901 -4.58751 -4.03721 0
M  V30 7887 C 753.899 -5.55609 -3.97224 0
M  V30 7888 O 753.587 -6.87154 -4.17223 0
M  V30 7889 H 753.319 -0.339473 -0.58458 0
M  V30 7890 H 755.873 -1.53922 -1.36005 0
M  V30 7891 H 754.103 -0.757326 -3.79212 0
M  V30 7892 H 755.792 -1.16503 -3.88821 0
M  V30 7893 H 756.558 -3.5728 -3.27988 0
M  V30 7894 H 752.437 -2.49979 -3.87339 0
M  V30 7895 H 755.981 -5.94473 -3.6503 0
M  V30 7896 H 751.878 -4.86277 -4.24505 0
M  V30 7897 H 752.646 -6.93618 -4.34553 0
M  V30 7898 N 755.309 1.25446 -0.953992 0
M  V30 7899 C 756.257 2.27909 -0.46478 0
M  V30 7900 C 757.251 1.62904 0.464607 0
M  V30 7901 O 758.457 1.76733 0.341407 0
M  V30 7902 H 754.832 0.74036 -0.131798 0
M  V30 7903 H 756.803 2.66559 -1.34122 0
M  V30 7904 C 755.552 3.46853 0.242589 0
M  V30 7905 H 754.875 3.97105 -0.463418 0
M  V30 7906 H 756.315 4.20432 0.548919 0
M  V30 7907 C 754.774 3.03386 1.46487 0
M  V30 7908 O 755.304 3.09342 2.56262 0
M  V30 7909 N 753.51 2.58584 1.32599 0
M  V30 7910 H 753.057 2.53938 0.432834 0
M  V30 7911 H 753.015 2.29866 2.14497 0
M  V30 7912 N 756.787 0.722489 1.40064 0
M  V30 7913 C 757.734 0.0743738 2.3068 0
M  V30 7914 C 758.704 -0.743004 1.48555 0
M  V30 7915 O 759.889 -0.705536 1.77276 0
M  V30 7916 C 757.029 -0.836292 3.34814 0
M  V30 7917 C 756.142 -0.00764663 4.31999 0
M  V30 7918 C 755.277 -0.918428 5.232 0
M  V30 7919 C 754.316 -0.0842838 6.12042 0
M  V30 7920 N 753.453 -0.950316 6.95639 0
M  V30 7921 H 758.293 0.852794 2.85537 0
M  V30 7922 H 755.83 0.432222 1.40607 0
M  V30 7923 H 757.788 -1.3786 3.93765 0
M  V30 7924 H 756.418 -1.58082 2.81443 0
M  V30 7925 H 755.47 0.651928 3.74772 0
M  V30 7926 H 756.782 0.63786 4.94705 0
M  V30 7927 H 755.936 -1.52902 5.87116 0
M  V30 7928 H 754.675 -1.59774 4.60786 0
M  V30 7929 H 753.68 0.5392 5.4715 0
M  V30 7930 H 754.905 0.591628 6.76518 0
M  V30 7931 H 752.851 -1.61515 6.35806 0
M  V30 7932 H 752.768 -0.361004 7.55138 0
M  V30 7933 H 754.036 -1.54687 7.63997 0
M  V30 7934 N 758.265 -1.50454 0.469181 0
M  V30 7935 C 759.681 -1.59124 0.123226 0
M  V30 7936 C 759.881 -1.47749 -1.37013 0
M  V30 7937 O 758.937 -1.335 -2.14322 0
M  V30 7938 C 760.25 -2.93101 0.67172 0
M  V30 7939 C 761.798 -3.06491 0.634978 0
M  V30 7940 C 762.273 -4.43041 1.16098 0
M  V30 7941 N 763.764 -4.49448 1.12031 0
M  V30 7942 C 764.499 -5.53491 1.49784 0
M  V30 7943 N 763.995 -6.64798 1.94976 0
M  V30 7944 N 765.788 -5.44025 1.41399 0
M  V30 7945 H 757.939 -1.56091 1.44046 0
M  V30 7946 H 760.202 -0.737564 0.59557 0
M  V30 7947 H 759.908 -3.06895 1.7178 0
M  V30 7948 H 759.782 -3.77027 0.114222 0
M  V30 7949 H 762.169 -2.92346 -0.402187 0
M  V30 7950 H 762.25 -2.24328 1.22926 0
M  V30 7951 H 761.894 -4.57935 2.19677 0
M  V30 7952 H 761.824 -5.23794 0.542939 0
M  V30 7953 H 764.315 -3.69575 0.788828 0
M  V30 7954 H 764.628 -7.40246 2.21936 0
M  V30 7955 H 762.973 -6.65923 1.98927 0
M  V30 7956 H 766.164 -4.55955 1.05935 0
M  V30 7957 H 766.337 -6.2499 1.71147 0
M  V30 7958 N 759.743 -0.201713 -1.56304 0
M  V30 7959 C 760.991 0.434447 -1.97375 0
M  V30 7960 C 761.312 1.61692 -1.08998 0
M  V30 7961 O 760.582 1.95223 -0.162682 0
M  V30 7962 H 759.162 0.163497 -0.728888 0
M  V30 7963 H 761.824 -0.289988 -1.92731 0
M  V30 7964 H 760.92 0.774136 -3.02347 0
M  V30 7965 N 761.222 1.57436 0.0718424 0
M  V30 7966 C 762.499 1.78312 0.804006 0
M  V30 7967 C 762.879 0.789273 1.9579 0
M  V30 7968 O 762.227 -0.177605 2.27809 0
M  V30 7969 C 762.437 3.24798 1.277 0
M  V30 7970 C 763.785 3.88627 1.71039 0
M  V30 7971 O 764.809 3.28689 1.37266 0
M  V30 7972 O 763.668 4.94073 2.33567 0
M  V30 7973 H 760.762 0.73178 0.385262 0
M  V30 7974 H 763.308 1.69621 0.0519219 0
M  V30 7975 H 762.08 3.88688 0.45134 0
M  V30 7976 H 761.703 3.38213 2.0904 0
M  V30 7977 N 762.7 -0.34323 1.53817 0
M  V30 7978 C 763.61 -1.44493 1.84821 0
M  V30 7979 C 764.626 -1.57556 0.738381 0
M  V30 7980 O 765.802 -1.73026 1.03072 0
M  V30 7981 C 762.867 -2.79478 2.05166 0
M  V30 7982 C 761.928 -2.75756 3.29025 0
M  V30 7983 C 761.161 -4.04302 3.4839 0
M  V30 7984 O 761.384 -5.01595 2.71586 0
M  V30 7985 O 760.318 -4.08754 4.41819 0
M  V30 7986 H 764.144 -1.21209 2.78464 0
M  V30 7987 H 761.729 -0.535437 1.39476 0
M  V30 7988 H 763.611 -3.59419 2.19991 0
M  V30 7989 H 762.286 -3.02692 1.14713 0
M  V30 7990 H 761.193 -1.94434 3.19603 0
M  V30 7991 H 762.526 -2.57495 4.19472 0
M  V30 7992 N 764.178 -1.45556 -0.604258 0
M  V30 7993 C 765.424 -1.49968 -1.36519 0
M  V30 7994 C 765.757 -0.142236 -1.93678 0
M  V30 7995 O 765.032 0.843717 -1.75247 0
M  V30 7996 C 765.315 -2.58146 -2.51063 0
M  V30 7997 C 765.168 -4.03346 -1.99078 0
M  V30 7998 C 766.487 -2.62581 -3.53184 0
M  V30 7999 H 763.606 -0.545993 -0.495036 0
M  V30 8000 H 766.248 -1.77382 -0.680845 0
M  V30 8001 H 764.398 -2.34901 -3.09441 0
M  V30 8002 H 766.07 -4.37811 -1.45323 0
M  V30 8003 H 764.313 -4.13845 -1.30055 0
M  V30 8004 H 764.984 -4.74731 -2.81664 0
M  V30 8005 H 767.46 -2.83419 -3.04652 0
M  V30 8006 H 766.336 -3.40131 -4.30816 0
M  V30 8007 H 766.597 -1.67798 -4.09019 0
M  V30 8008 N 765.656 0.84705 -1.32902 0
M  V30 8009 C 766.902 1.60389 -1.25088 0
M  V30 8010 C 767.257 1.91521 0.183723 0
M  V30 8011 O 766.55 1.55197 1.12359 0
M  V30 8012 C 766.744 2.92663 -2.05142 0
M  V30 8013 C 766.573 2.74449 -3.56241 0
M  V30 8014 C 765.343 2.72434 -4.25567 0
M  V30 8015 C 767.541 2.47666 -4.5074 0
M  V30 8016 N 765.523 2.45512 -5.62669 0
M  V30 8017 C 766.894 2.30219 -5.75673 0
M  V30 8018 C 768.949 2.33196 -4.39914 0
M  V30 8019 C 767.652 1.99772 -6.91002 0
M  V30 8020 C 769.678 2.0414 -5.5505 0
M  V30 8021 C 769.04 1.875 -6.78987 0
M  V30 8022 H 765.139 0.590296 -0.512908 0
M  V30 8023 H 767.723 0.995058 -1.67352 0
M  V30 8024 H 765.894 3.51511 -1.65211 0
M  V30 8025 H 767.626 3.5777 -1.89163 0
M  V30 8026 H 764.381 2.85647 -3.7776 0
M  V30 8027 H 764.805 2.34958 -6.3492 0
M  V30 8028 H 769.447 2.44777 -3.44738 0
M  V30 8029 H 767.165 1.86928 -7.86183 0
M  V30 8030 H 770.751 1.93711 -5.48605 0
M  V30 8031 H 769.631 1.65339 -7.66572 0
M  V30 8032 N 767.134 1.16236 1.06428 0
M  V30 8033 C 768.381 0.943034 1.79201 0
M  V30 8034 C 768.709 -0.529243 1.87161 0
M  V30 8035 O 767.964 -1.40874 1.35842 0
M  V30 8036 C 768.263 1.51396 3.2375 0
M  V30 8037 C 767.929 3.00833 3.35873 0
M  V30 8038 C 766.591 3.41626 3.38888 0
M  V30 8039 C 768.943 3.96825 3.37904 0
M  V30 8040 C 766.271 4.77033 3.4155 0
M  V30 8041 C 768.623 5.32116 3.42104 0
M  V30 8042 C 767.287 5.72392 3.43401 0
M  V30 8043 H 766.557 0.34508 0.655744 0
M  V30 8044 H 769.204 1.44929 1.25171 0
M  V30 8045 H 767.509 0.929114 3.80624 0
M  V30 8046 H 769.206 1.31996 3.78653 0
M  V30 8047 H 765.796 2.68306 3.3423 0
M  V30 8048 H 769.98 3.66376 3.34787 0
M  V30 8049 H 765.236 5.07569 3.40858 0
M  V30 8050 H 769.41 6.06286 3.42623 0
M  V30 8051 H 767.037 6.77296 3.45216 0
M  V30 8052 N 768.612 -1.24939 0.960631 0
M  V30 8053 C 769.837 -1.9742 0.635608 0
M  V30 8054 C 770.262 -1.70857 -0.786737 0
M  V30 8055 O 769.62 -0.968063 -1.53291 0
M  V30 8056 C 769.668 -3.48987 0.907771 0
M  V30 8057 O 768.772 -4.12399 -0.0104053 0
M  V30 8058 H 768.113 -0.61871 0.241027 0
M  V30 8059 H 770.643 -1.58901 1.28886 0
M  V30 8060 H 770.653 -3.99334 0.836453 0
M  V30 8061 H 769.328 -3.6765 1.94439 0
M  V30 8062 H 767.905 -3.72727 0.113631 0
M  V30 8063 N 770.09 -0.729906 -1.39679 0
M  V30 8064 C 771.336 -0.27603 -2.00913 0
M  V30 8065 C 771.669 1.13227 -1.57776 0
M  V30 8066 O 770.944 1.7709 -0.804319 0
M  V30 8067 C 771.227 -0.372157 -3.58172 0
M  V30 8068 C 771.08 -1.81986 -4.11341 0
M  V30 8069 C 772.399 0.248378 -4.39399 0
M  V30 8070 H 769.518 -0.101773 -0.729939 0
M  V30 8071 H 772.16 -0.925104 -1.65957 0
M  V30 8072 H 770.31 0.180459 -3.88081 0
M  V30 8073 H 771.982 -2.42896 -3.92172 0
M  V30 8074 H 770.225 -2.34287 -3.65092 0
M  V30 8075 H 770.896 -1.83842 -5.20486 0
M  V30 8076 H 773.372 -0.222645 -4.15504 0
M  V30 8077 H 772.248 0.150746 -5.48693 0
M  V30 8078 H 772.509 1.33378 -4.21501 0
M  V30 8079 N 771.568 1.50203 -0.477153 0
M  V30 8080 C 772.814 2.03286 0.0679442 0
M  V30 8081 C 773.169 1.35227 1.36863 0
M  V30 8082 O 772.462 0.471029 1.8572 0
M  V30 8083 C 772.656 3.56127 0.301325 0
M  V30 8084 C 772.485 4.38999 -0.975188 0
M  V30 8085 C 771.255 4.81889 -1.52022 0
M  V30 8086 C 773.453 4.79013 -1.8722 0
M  V30 8087 N 771.435 5.49105 -2.74513 0
M  V30 8088 C 772.806 5.45701 -2.94296 0
M  V30 8089 C 774.861 4.60967 -1.88185 0
M  V30 8090 C 773.564 5.96255 -4.02333 0
M  V30 8091 C 775.59 5.12466 -2.95183 0
M  V30 8092 C 774.952 5.79134 -4.00977 0
M  V30 8093 H 771.051 0.78185 -0.015318 0
M  V30 8094 H 773.635 1.83646 -0.64671 0
M  V30 8095 H 771.806 3.75702 0.985021 0
M  V30 8096 H 773.538 3.95859 0.841304 0
M  V30 8097 H 770.293 4.61387 -1.06858 0
M  V30 8098 H 770.717 5.87315 -3.36734 0
M  V30 8099 H 775.359 4.0885 -1.07708 0
M  V30 8100 H 773.077 6.47406 -4.83623 0
M  V30 8101 H 776.663 5.00329 -2.96921 0
M  V30 8102 H 775.543 6.18265 -4.82409 0
M  V30 8103 N 773.046 0.209999 1.56195 0
M  V30 8104 C 773.994 -0.721416 2.2113 0
M  V30 8105 C 774.988 -1.20852 1.18706 0
M  V30 8106 O 776.194 -1.16968 1.36815 0
M  V30 8107 H 772.569 -0.251033 0.708863 0
M  V30 8108 H 774.54 -0.150193 2.98022 0
M  V30 8109 C 773.289 -1.92392 2.89621 0
M  V30 8110 H 772.612 -1.5582 3.68185 0
M  V30 8111 H 774.052 -2.55367 3.38473 0
M  V30 8112 C 772.511 -2.77208 1.91461 0
M  V30 8113 O 773.041 -3.75603 1.42426 0
M  V30 8114 N 771.247 -2.43006 1.59363 0
M  V30 8115 H 770.794 -1.63047 1.99433 0
M  V30 8116 H 770.752 -3.00036 0.939449 0
M  V30 8117 N 774.524 -1.57472 -0.0634922 0
M  V30 8118 C 775.772 -1.87283 -0.759563 0
M  V30 8119 C 776.093 -0.803135 -1.77693 0
M  V30 8120 O 775.363 0.167293 -1.95184 0
M  V30 8121 H 773.943 -0.691106 -0.283516 0
M  V30 8122 H 776.605 -1.94864 -0.0376091 0
M  V30 8123 H 775.701 -2.85064 -1.27062 0
M  V30 8124 N 776.003 0.335068 -1.53997 0
M  V30 8125 C 776.95 1.41187 -1.82579 0
M  V30 8126 C 777.92 1.51897 -0.672061 0
M  V30 8127 O 779.105 1.673 -0.917346 0
M  V30 8128 C 776.245 2.77717 -2.0486 0
M  V30 8129 C 775.358 2.7573 -3.32561 0
M  V30 8130 C 774.493 4.04032 -3.44864 0
M  V30 8131 C 773.532 3.96308 -4.66483 0
M  V30 8132 N 772.669 5.16317 -4.75774 0
M  V30 8133 H 777.509 1.16113 -2.74448 0
M  V30 8134 H 775.046 0.562305 -1.35928 0
M  V30 8135 H 777.004 3.57071 -2.15768 0
M  V30 8136 H 775.634 3.01124 -1.16294 0
M  V30 8137 H 774.686 1.88432 -3.3045 0
M  V30 8138 H 775.998 2.65902 -4.22016 0
M  V30 8139 H 775.152 4.91814 -3.55251 0
M  V30 8140 H 773.891 4.16652 -2.53481 0
M  V30 8141 H 772.896 3.06911 -4.56164 0
M  V30 8142 H 774.121 3.85263 -5.5924 0
M  V30 8143 H 772.067 5.29464 -3.87303 0
M  V30 8144 H 771.984 5.08779 -5.59178 0
M  V30 8145 H 773.252 6.05846 -4.9048 0
M  V30 8146 N 777.481 1.45874 0.596531 0
M  V30 8147 C 778.429 1.55739 1.72766 0
M  V30 8148 C 779.423 0.426666 1.63939 0
M  V30 8149 O 780.629 0.60301 1.69599 0
M  V30 8150 H 777.004 0.489386 0.570968 0
M  V30 8151 H 778.975 2.50871 1.61575 0
M  V30 8152 C 777.724 1.55174 3.11153 0
M  V30 8153 H 777.047 2.41511 3.1861 0
M  V30 8154 H 778.487 1.66133 3.90097 0
M  V30 8155 C 776.946 0.278001 3.35751 0
M  V30 8156 O 777.476 -0.637557 3.96608 0
M  V30 8157 N 775.682 0.170227 2.90101 0
M  V30 8158 H 775.229 0.916159 2.40758 0
M  V30 8159 H 775.187 -0.68117 3.06932 0
M  V30 8160 N 778.959 -0.83999 1.33349 0
M  V30 8161 C 780.236 -1.57973 1.15342 0
M  V30 8162 C 780.616 -2.09226 -0.280632 0
M  V30 8163 O 779.964 -1.89317 -1.2795 0
M  V30 8164 C 780.174 -2.71446 2.19359 0
M  V30 8165 C 781.522 -3.40654 2.53456 0
M  V30 8166 O 782.546 -2.81686 2.18017 0
M  V30 8167 O 781.405 -4.47101 3.14266 0
M  V30 8168 H 778.499 -0.6964 0.446044 0
M  V30 8169 H 781.045 -0.882843 1.44927 0
M  V30 8170 H 779.817 -2.31205 3.1569 0
M  V30 8171 H 779.44 -3.488 1.90852 0
M  V30 8172 N 780.437 -1.16799 -1.0581 0
M  V30 8173 C 781.662 -0.977402 -1.82925 0
M  V30 8174 C 782.087 0.469514 -1.82146 0
M  V30 8175 O 781.445 1.33576 -1.22585 0
M  V30 8176 C 781.493 -1.51543 -3.27211 0
M  V30 8177 O 780.597 -0.725021 -4.05977 0
M  V30 8178 H 779.938 -0.347474 -0.565825 0
M  V30 8179 H 782.468 -1.55151 -1.33376 0
M  V30 8180 H 782.478 -1.53502 -3.78023 0
M  V30 8181 H 781.153 -2.56872 -3.27093 0
M  V30 8182 H 779.73 -0.77634 -3.64729 0
M  V30 8183 N 781.915 1.24427 -0.967243 0
M  V30 8184 C 783.14 1.9708 -0.646069 0
M  V30 8185 C 783.565 1.71272 0.777665 0
M  V30 8186 O 782.923 0.976179 1.52776 0
M  V30 8187 C 782.971 3.48501 -0.926266 0
M  V30 8188 O 782.075 4.12398 -0.0114653 0
M  V30 8189 H 781.416 0.617423 -0.244304 0
M  V30 8190 H 783.946 1.58215 -1.29727 0
M  V30 8191 H 783.956 3.98885 -0.857619 0
M  V30 8192 H 782.631 3.66613 -1.96386 0
M  V30 8193 H 781.208 3.72661 -0.133396 0
M  V30 8194 N 783.393 0.737304 1.3929 0
M  V30 8195 C 784.356 0.10731 2.28949 0
M  V30 8196 C 785.356 -0.664716 1.46418 0
M  V30 8197 O 786.546 -0.493392 1.67067 0
M  V30 8198 C 783.678 -0.857145 3.29948 0
M  V30 8199 H 784.871 0.89725 2.86163 0
M  V30 8200 H 782.424 0.503279 1.47976 0
M  V30 8201 H 783.159 -1.67336 2.77794 0
M  V30 8202 H 782.944 -0.306167 3.90903 0
M  V30 8203 H 784.434 -1.29444 3.97031 0
M  V30 8204 N 784.871 -1.49948 0.485112 0
M  V30 8205 C 785.801 -2.31675 -0.291364 0
M  V30 8206 C 786.782 -1.39216 -0.977383 0
M  V30 8207 O 787.967 -1.68133 -0.971855 0
M  V30 8208 C 785.097 -3.19326 -1.36558 0
M  V30 8209 C 784.051 -4.2045 -0.800359 0
M  V30 8210 C 783.377 -4.96931 -1.97391 0
M  V30 8211 C 784.677 -5.21925 0.197867 0
M  V30 8212 H 786.371 -2.96839 0.390775 0
M  V30 8213 H 783.917 -1.42749 0.189375 0
M  V30 8214 H 785.87 -3.75304 -1.91638 0
M  V30 8215 H 784.594 -2.52074 -2.07668 0
M  V30 8216 H 783.253 -3.65594 -0.271428 0
M  V30 8217 H 782.901 -4.26141 -2.67232 0
M  V30 8218 H 782.601 -5.65344 -1.60187 0
M  V30 8219 H 784.125 -5.55749 -2.52935 0
M  V30 8220 H 785.539 -5.72691 -0.264239 0
M  V30 8221 H 783.936 -5.98138 0.484908 0
M  V30 8222 H 785.006 -4.71809 1.11912 0
M  V30 8223 N 786.349 -0.21828 -1.56081 0
M  V30 8224 C 787.595 0.414921 -1.9851 0
M  V30 8225 C 787.928 1.59648 -1.10573 0
M  V30 8226 O 787.203 1.93818 -0.162695 0
M  V30 8227 C 787.486 0.852647 -3.4986 0
M  V30 8228 C 787.339 -0.33232 -4.48571 0
M  V30 8229 C 788.658 1.70998 -4.05521 0
M  V30 8230 H 785.777 0.149344 -0.72171 0
M  V30 8231 H 788.419 -0.313858 -1.8739 0
M  V30 8232 H 786.569 1.47362 -3.59467 0
M  V30 8233 H 788.241 -0.970418 -4.50977 0
M  V30 8234 H 786.484 -0.980302 -4.22578 0
M  V30 8235 H 787.155 0.0168407 -5.51997 0
M  V30 8236 H 789.631 1.18606 -3.98838 0
M  V30 8237 H 788.507 1.98517 -5.11744 0
M  V30 8238 H 788.768 2.67219 -3.52202 0
M  V30 8239 N 787.827 1.57504 0.0551401 0
M  V30 8240 C 789.073 1.88334 0.752216 0
M  V30 8241 C 789.406 0.812742 1.76375 0
M  V30 8242 O 788.681 -0.175198 1.93709 0
M  V30 8243 C 788.964 3.29824 1.44528 0
M  V30 8244 C 788.817 4.47553 0.449026 0
M  V30 8245 C 790.136 3.69808 2.38601 0
M  V30 8246 H 787.255 0.684973 0.271995 0
M  V30 8247 H 789.897 1.89994 0.0151895 0
M  V30 8248 H 788.047 3.28539 2.07351 0
M  V30 8249 H 789.719 4.60967 -0.175277 0
M  V30 8250 H 787.962 4.33168 -0.234162 0
M  V30 8251 H 788.633 5.43376 0.971917 0
M  V30 8252 H 791.109 3.72293 1.85842 0
M  V30 8253 H 789.985 4.69665 2.84088 0
M  V30 8254 H 790.246 3.00641 3.24141 0
M  V30 8255 N 789.305 -0.326896 1.54172 0
M  V30 8256 C 790.551 -1.06681 1.72473 0
M  V30 8257 C 790.884 -1.87779 0.49523 0
M  V30 8258 O 790.159 -1.87754 -0.507803 0
M  V30 8259 C 790.442 -1.99429 2.99834 0
M  V30 8260 C 790.295 -1.21682 4.33028 0
M  V30 8261 C 791.614 -2.99002 3.22933 0
M  V30 8262 H 788.733 -0.386438 0.627563 0
M  V30 8263 H 791.375 -0.343779 1.86864 0
M  V30 8264 H 789.525 -2.61081 2.87696 0
M  V30 8265 H 791.197 -0.625153 4.57044 0
M  V30 8266 H 789.44 -0.519045 4.30684 0
M  V30 8267 H 790.111 -1.89766 5.18356 0
M  V30 8268 H 792.587 -2.4747 3.34511 0
M  V30 8269 H 791.463 -3.61085 4.13412 0
M  V30 8270 H 791.724 -3.71281 2.40006 0
M  V30 8271 N 790.784 -1.46188 -0.588786 0
M  V30 8272 C 792.061 -1.41659 -1.34878 0
M  V30 8273 C 792.441 -0.0968913 -2.10878 0
M  V30 8274 O 791.789 0.921468 -2.09096 0
M  V30 8275 C 791.999 -2.6424 -2.27988 0
M  V30 8276 C 793.347 -3.1013 -2.90008 0
M  V30 8277 O 794.371 -2.64745 -2.38303 0
M  V30 8278 O 793.23 -3.88944 -3.83908 0
M  V30 8279 H 790.324 -0.563058 -0.605718 0
M  V30 8280 H 792.87 -1.58346 -0.610309 0
M  V30 8281 H 791.642 -3.51853 -1.71217 0
M  V30 8282 H 791.265 -2.49982 -3.09184 0
M  V30 8283 N 792.262 0.832906 -1.33792 0
M  V30 8284 C 793.539 1.57359 -1.16178 0
M  V30 8285 C 793.919 2.09372 0.269532 0
M  V30 8286 O 793.267 1.89993 1.26944 0
M  V30 8287 C 793.477 2.70279 -2.20795 0
M  V30 8288 C 794.825 3.39305 -2.55259 0
M  V30 8289 O 795.849 2.80526 -2.19508 0
M  V30 8290 O 794.708 4.45428 -3.16632 0
M  V30 8291 H 791.802 0.694025 -0.449731 0
M  V30 8292 H 794.348 0.875144 -1.45394 0
M  V30 8293 H 793.12 2.29527 -3.16911 0
M  V30 8294 H 792.743 3.47782 -1.927 0
M  V30 8295 N 793.74 1.17359 1.05189 0
M  V30 8296 C 794.687 0.890325 2.12936 0
M  V30 8297 C 795.657 -0.165779 1.65271 0
M  V30 8298 O 796.842 -0.0285672 1.90779 0
M  V30 8299 C 793.982 0.409793 3.42658 0
M  V30 8300 C 793.095 1.53002 4.03998 0
M  V30 8301 C 792.23 1.00336 5.21638 0
M  V30 8302 C 791.269 2.09903 5.74984 0
M  V30 8303 N 790.406 1.58714 6.83926 0
M  V30 8304 H 795.246 1.81299 2.36505 0
M  V30 8305 H 792.783 0.904249 1.16025 0
M  V30 8306 H 794.741 0.112743 4.17048 0
M  V30 8307 H 793.371 -0.475915 3.19272 0
M  V30 8308 H 792.423 1.9428 3.27047 0
M  V30 8309 H 793.735 2.3564 4.39631 0
M  V30 8310 H 792.889 0.660158 6.03098 0
M  V30 8311 H 791.628 0.14642 4.8748 0
M  V30 8312 H 790.633 2.45081 4.92154 0
M  V30 8313 H 791.858 2.96013 6.1119 0
M  V30 8314 H 789.804 0.752915 6.51665 0
M  V30 8315 H 789.721 2.34959 7.18561 0
M  V30 8316 H 790.989 1.27287 7.69037 0
M  V30 8317 N 795.218 -1.23913 0.973828 0
M  V30 8318 C 796.446 -1.96195 0.656891 0
M  V30 8319 C 796.861 -1.72166 -0.774876 0
M  V30 8320 O 796.218 -1.0091 -1.52064 0
M  V30 8321 C 796.269 -3.49342 0.929638 0
M  V30 8322 O 795.99 -3.72553 2.30512 0
M  V30 8323 C 797.491 -4.38833 0.627739 0
M  V30 8324 H 794.711 -0.624841 0.244572 0
M  V30 8325 H 797.255 -1.57579 1.30343 0
M  V30 8326 H 795.41 -3.85999 0.329216 0
M  V30 8327 H 795.824 -4.66893 2.3898 0
M  V30 8328 H 797.298 -5.45117 0.868991 0
M  V30 8329 H 797.775 -4.37009 -0.438104 0
M  V30 8330 H 798.381 -4.07773 1.20834 0
M  V30 8331 N 796.696 -0.74468 -1.38897 0
M  V30 8332 C 797.626 -0.126355 -2.33158 0
M  V30 8333 C 798.607 0.713517 -1.54412 0
M  V30 8334 O 799.792 0.656523 -1.82766 0
M  V30 8335 C 796.922 0.774375 -3.38557 0
M  V30 8336 C 795.876 0.0379214 -4.27983 0
M  V30 8337 C 795.202 1.05631 -5.24162 0
M  V30 8338 C 796.502 -1.12523 -5.10035 0
M  V30 8339 H 798.196 -0.913744 -2.85116 0
M  V30 8340 H 795.742 -0.440847 -1.37086 0
M  V30 8341 H 797.695 1.21655 -4.03458 0
M  V30 8342 H 796.419 1.59399 -2.85061 0
M  V30 8343 H 795.078 -0.384733 -3.64576 0
M  V30 8344 H 794.726 1.86975 -4.66958 0
M  V30 8345 H 794.426 0.568261 -5.84846 0
M  V30 8346 H 795.95 1.49799 -5.9194 0
M  V30 8347 H 797.364 -0.761037 -5.68226 0
M  V30 8348 H 795.761 -1.54355 -5.79909 0
M  V30 8349 H 796.831 -1.94237 -4.44297 0
M  V30 8350 N 798.174 1.49689 -0.493057 0
M  V30 8351 C 799.121 2.28976 0.28959 0
M  V30 8352 C 800.091 1.35011 0.967536 0
M  V30 8353 O 801.276 1.63964 0.975736 0
M  V30 8354 C 798.416 3.1748 1.35279 0
M  V30 8355 C 797.529 4.26496 0.687418 0
M  V30 8356 C 796.664 5.02226 1.73038 0
M  V30 8357 C 795.703 6.03089 1.04645 0
M  V30 8358 N 794.84 6.72014 2.03325 0
M  V30 8359 H 799.68 2.954 -0.392798 0
M  V30 8360 H 797.217 1.45657 -0.205554 0
M  V30 8361 H 799.175 3.67162 1.98111 0
M  V30 8362 H 797.805 2.53057 2.00405 0
M  V30 8363 H 796.857 3.80362 -0.0540001 0
M  V30 8364 H 798.169 4.98578 0.14864 0
M  V30 8365 H 797.323 5.55737 2.43395 0
M  V30 8366 H 796.062 4.29899 2.303 0
M  V30 8367 H 795.067 5.48817 0.328606 0
M  V30 8368 H 796.292 6.77398 0.480428 0
M  V30 8369 H 794.238 6.02464 2.59564 0
M  V30 8370 H 794.155 7.40046 1.54492 0
M  V30 8371 H 795.423 7.30133 2.72995 0
M  V30 8372 N 799.652 0.226554 1.55963 0
M  V30 8373 C 800.582 -0.676079 2.23498 0
M  V30 8374 C 801.563 -1.19718 1.20837 0
M  V30 8375 O 802.748 -1.24027 1.49436 0
M  V30 8376 C 799.878 -1.88217 2.91876 0
M  V30 8377 C 798.832 -1.4947 4.01052 0
M  V30 8378 C 798.158 -2.77997 4.56751 0
M  V30 8379 C 799.458 -0.680951 5.17842 0
M  V30 8380 H 801.152 -0.112989 2.99187 0
M  V30 8381 H 798.698 -0.0529046 1.43903 0
M  V30 8382 H 800.651 -2.51911 3.37815 0
M  V30 8383 H 799.375 -2.47031 2.13643 0
M  V30 8384 H 798.034 -0.881199 3.55852 0
M  V30 8385 H 797.682 -3.34966 3.75243 0
M  V30 8386 H 797.382 -2.52803 5.30438 0
M  V30 8387 H 798.906 -3.42625 5.05411 0
M  V30 8388 H 800.32 -1.22171 5.60131 0
M  V30 8389 H 798.717 -0.525898 5.97791 0
M  V30 8390 H 799.787 0.311346 4.83899 0
M  V30 8391 N 801.13 -1.57531 -0.0467866 0
M  V30 8392 C 802.077 -2.05387 -1.05285 0
M  V30 8393 C 803.047 -0.939385 -1.36985 0
M  V30 8394 O 804.232 -1.20877 -1.47626 0
M  V30 8395 C 801.372 -2.52343 -2.35408 0
M  V30 8396 C 800.485 -3.77512 -2.10022 0
M  V30 8397 C 799.62 -4.1315 -3.33887 0
M  V30 8398 C 798.659 -5.31286 -3.03976 0
M  V30 8399 N 797.796 -5.62441 -4.20243 0
M  V30 8400 H 802.636 -2.91095 -0.637788 0
M  V30 8401 H 800.173 -1.43939 -0.303322 0
M  V30 8402 H 802.131 -2.77628 -3.11413 0
M  V30 8403 H 800.761 -1.69577 -2.7467 0
M  V30 8404 H 799.813 -3.59417 -1.24594 0
M  V30 8405 H 801.125 -4.63644 -1.83945 0
M  V30 8406 H 800.279 -4.39469 -4.18273 0
M  V30 8407 H 799.018 -3.25634 -3.63062 0
M  V30 8408 H 798.023 -5.04738 -2.17991 0
M  V30 8409 H 799.248 -6.20441 -2.76098 0
M  V30 8410 H 797.194 -4.77885 -4.49402 0
M  V30 8411 H 797.111 -6.43046 -3.97528 0
M  V30 8412 H 798.379 -5.93327 -5.05553 0
M  V30 8413 N 802.608 0.318715 -1.54344 0
M  V30 8414 C 803.571 1.37545 -1.83342 0
M  V30 8415 C 804.571 1.445 -0.705444 0
M  V30 8416 O 805.761 1.44443 -0.973752 0
M  V30 8417 C 802.893 2.76225 -1.99781 0
M  V30 8418 H 804.086 1.13084 -2.77762 0
M  V30 8419 H 801.639 0.554457 -1.46135 0
M  V30 8420 H 802.374 3.05934 -1.07588 0
M  V30 8421 H 802.159 2.7257 -2.81865 0
M  V30 8422 H 803.649 3.52664 -2.23647 0
M  V30 8423 N 804.086 1.46499 0.581025 0
M  V30 8424 C 805.332 1.52121 1.34116 0
M  V30 8425 C 805.665 0.173031 1.93428 0
M  V30 8426 O 804.94 -0.815729 1.76568 0
M  V30 8427 C 805.223 2.62108 2.46924 0
M  V30 8428 C 805.076 4.06462 1.92636 0
M  V30 8429 C 806.395 2.68167 3.48962 0
M  V30 8430 H 803.514 0.5538 0.486287 0
M  V30 8431 H 806.156 1.78443 0.652538 0
M  V30 8432 H 804.306 2.39794 3.05665 0
M  V30 8433 H 805.978 4.40068 1.3834 0
M  V30 8434 H 804.221 4.15862 1.23455 0
M  V30 8435 H 804.892 4.79152 2.74076 0
M  V30 8436 H 807.368 2.8823 3.00104 0
M  V30 8437 H 806.244 3.46942 4.2535 0
M  V30 8438 H 806.505 1.74284 4.06297 0
M  V30 8439 N 805.565 -0.825799 1.34232 0
M  V30 8440 C 806.811 -1.58419 1.26614 0
M  V30 8441 C 807.144 -1.93503 -0.164341 0
M  V30 8442 O 806.419 -1.59785 -1.109 0
M  V30 8443 C 806.702 -2.8856 2.15418 0
M  V30 8444 C 806.555 -2.60075 3.66989 0
M  V30 8445 C 807.874 -3.90107 2.03726 0
M  V30 8446 H 804.993 -0.574794 0.461282 0
M  V30 8447 H 807.635 -0.951519 1.64457 0
M  V30 8448 H 805.785 -3.42553 1.83275 0
M  V30 8449 H 807.457 -2.12414 4.09485 0
M  V30 8450 H 805.7 -1.93565 3.88221 0
M  V30 8451 H 806.371 -3.52866 4.24488 0
M  V30 8452 H 808.847 -3.45459 2.31942 0
M  V30 8453 H 807.723 -4.78976 2.68092 0
M  V30 8454 H 807.984 -4.30329 1.01337 0
M  V30 8455 N 807.043 -1.17915 -1.04565 0
M  V30 8456 C 807.99 -0.901605 -2.12461 0
M  V30 8457 C 808.96 0.157011 -1.65356 0
M  V30 8458 O 810.145 0.0184494 -1.90791 0
M  V30 8459 C 807.285 -0.42796 -3.42436 0
M  V30 8460 C 806.398 -1.55142 -4.03181 0
M  V30 8461 C 805.533 -1.03101 -5.21098 0
M  V30 8462 C 804.572 -2.1295 -5.73863 0
M  V30 8463 N 803.709 -1.62339 -6.83074 0
M  V30 8464 H 808.549 -1.82551 -2.3554 0
M  V30 8465 H 806.086 -0.910389 -1.15544 0
M  V30 8466 H 808.044 -0.134859 -4.16982 0
M  V30 8467 H 806.674 0.458977 -3.1952 0
M  V30 8468 H 805.726 -1.96011 -3.26012 0
M  V30 8469 H 807.038 -2.37968 -4.38375 0
M  V30 8470 H 806.192 -0.692132 -6.02739 0
M  V30 8471 H 804.931 -0.17227 -4.87396 0
M  V30 8472 H 803.936 -2.47687 -4.90847 0
M  V30 8473 H 805.161 -2.9925 -6.09611 0
M  V30 8474 H 803.107 -0.787464 -6.51256 0
M  V30 8475 H 803.024 -2.38767 -7.17305 0
M  V30 8476 H 804.292 -1.31363 -7.68351 0
M  V30 8477 N 808.521 1.23394 -0.980386 0
M  V30 8478 C 809.798 1.87242 -0.565667 0
M  V30 8479 C 810.178 1.88151 0.957197 0
M  V30 8480 O 809.526 1.36309 1.8339 0
M  V30 8481 C 809.736 3.28743 -1.17172 0
M  V30 8482 C 811.084 4.05335 -1.26446 0
M  V30 8483 O 812.108 3.37962 -1.12517 0
M  V30 8484 O 810.967 5.25908 -1.48604 0
M  V30 8485 H 808.061 0.80477 -0.190459 0
M  V30 8486 H 810.607 1.3127 -1.07547 0
M  V30 8487 H 809.379 3.22647 -2.21392 0
M  V30 8488 H 809.002 3.92305 -0.646739 0
M  V30 8489 N 809.999 0.752036 1.385 0
M  V30 8490 C 811.41 0.375385 1.82887 0
M  V30 8491 C 811.761 -1.09575 1.62751 0
M  V30 8492 O 810.886 -1.84685 1.12785 0
M  V30 8493 C 811.481 0.674563 3.32017 0
M  V30 8494 C 810.04 0.351208 3.74758 0
M  V30 8495 C 809.187 0.928531 2.61292 0
M  V30 8496 H 812.138 0.948313 1.27251 0
M  V30 8497 H 812.159 -0.0477781 3.8047 0
M  V30 8498 H 811.671 1.74533 3.46641 0
M  V30 8499 H 809.772 -0.713042 3.65714 0
M  V30 8500 H 809.885 0.845675 4.71577 0
M  V30 8501 H 808.249 0.354012 2.52228 0
M  V30 8502 H 809.032 2.0043 2.78716 0
M  V30 8503 N 811.477 -1.49425 0.500989 0
M  V30 8504 C 812.893 -1.58826 0.156951 0
M  V30 8505 C 813.093 -1.50622 -1.33848 0
M  V30 8506 O 812.149 -1.38016 -2.11442 0
M  V30 8507 C 813.462 -2.91611 0.73374 0
M  V30 8508 C 815.01 -3.05076 0.699846 0
M  V30 8509 C 815.485 -4.40479 1.2547 0
M  V30 8510 N 816.976 -4.4697 1.2154 0
M  V30 8511 C 817.711 -5.50189 1.6149 0
M  V30 8512 N 817.207 -6.60512 2.09034 0
M  V30 8513 N 819 -5.40903 1.52907 0
M  V30 8514 H 811.151 -1.53001 1.47324 0
M  V30 8515 H 813.414 -0.724765 0.61108 0
M  V30 8516 H 813.12 -3.03182 1.78251 0
M  V30 8517 H 812.994 -3.767 0.19417 0
M  V30 8518 H 815.381 -2.93134 -0.340085 0
M  V30 8519 H 815.462 -2.2167 1.27656 0
M  V30 8520 H 815.106 -4.53172 2.29341 0
M  V30 8521 H 815.036 -5.22524 0.653921 0
M  V30 8522 H 817.527 -3.67819 0.867043 0
M  V30 8523 H 817.84 -7.35372 2.37588 0
M  V30 8524 H 816.185 -6.61553 2.13008 0
M  V30 8525 H 819.376 -4.53606 1.15583 0
M  V30 8526 H 819.549 -6.21219 1.84365 0
M  V30 8527 N 812.955 -0.234822 -1.55841 0
M  V30 8528 C 813.885 0.664217 -2.23854 0
M  V30 8529 C 814.866 1.19076 -1.2147 0
M  V30 8530 O 816.051 1.23232 -1.50091 0
M  V30 8531 C 813.181 1.86666 -2.9287 0
M  V30 8532 C 812.135 1.47341 -4.01839 0
M  V30 8533 C 811.461 2.75571 -4.58219 0
M  V30 8534 C 812.761 0.653479 -5.18196 0
M  V30 8535 H 814.455 0.0971213 -2.99242 0
M  V30 8536 H 812.001 0.0452724 -1.43929 0
M  V30 8537 H 813.954 2.50116 -3.39146 0
M  V30 8538 H 812.678 2.45894 -2.1495 0
M  V30 8539 H 811.337 0.862314 -3.56314 0
M  V30 8540 H 810.985 3.32971 -3.77014 0
M  V30 8541 H 810.685 2.49987 -5.31771 0
M  V30 8542 H 812.209 3.39939 -5.07221 0
M  V30 8543 H 813.623 1.19198 -5.60771 0
M  V30 8544 H 812.02 0.494188 -5.98062 0
M  V30 8545 H 813.09 -0.337004 -4.83728 0
M  V30 8546 N 814.433 1.57553 0.0384317 0
M  V30 8547 C 815.682 1.88022 0.730108 0
M  V30 8548 C 815.995 0.83209 1.77019 0
M  V30 8549 O 817.201 1.0257 2.51379 0
M  V30 8550 C 815.657 3.33637 1.3496 0
M  V30 8551 C 815.265 4.46659 0.346352 0
M  V30 8552 C 817.009 3.73266 2.02169 0
M  V30 8553 C 814.916 5.8333 0.973652 0
M  V30 8554 H 813.846 0.701496 0.276442 0
M  V30 8555 H 816.497 1.83493 -0.0158028 0
M  V30 8556 H 814.879 3.32882 2.1449 0
M  V30 8557 H 816.053 4.58868 -0.421558 0
M  V30 8558 H 814.368 4.15802 -0.223133 0
M  V30 8559 H 816.965 4.72689 2.49938 0
M  V30 8560 H 817.308 3.04776 2.8358 0
M  V30 8561 H 817.841 3.76156 1.29427 0
M  V30 8562 H 814.58 6.55197 0.199163 0
M  V30 8563 H 814.1 5.7486 1.71162 0
M  V30 8564 H 815.779 6.29757 1.48376 0
M  V30 8565 N 815.911 -0.310526 1.54511 0
M  V30 8566 C 817.139 -1.06611 1.77318 0
M  V30 8567 C 817.554 -1.81265 0.528043 0
M  V30 8568 O 816.911 -1.75466 -0.50178 0
M  V30 8569 C 816.962 -2.05409 2.97472 0
M  V30 8570 O 816.683 -1.33785 4.17173 0
M  V30 8571 C 818.184 -2.93082 3.32593 0
M  V30 8572 H 815.404 -0.316578 0.591624 0
M  V30 8573 H 817.948 -0.352691 2.01436 0
M  V30 8574 H 816.103 -2.72266 2.7559 0
M  V30 8575 H 816.517 -2.00055 4.84849 0
M  V30 8576 H 817.991 -3.58274 4.19933 0
M  V30 8577 H 818.468 -3.60877 2.50329 0
M  V30 8578 H 819.074 -2.31768 3.566 0
M  V30 8579 N 817.389 -1.46805 -0.573248 0
M  V30 8580 C 818.8 -1.46655 -1.15539 0
M  V30 8581 C 819.151 -0.2125 -1.95046 0
M  V30 8582 O 818.276 0.683759 -2.05314 0
M  V30 8583 C 818.871 -2.65711 -2.10198 0
M  V30 8584 C 817.43 -2.68572 -2.63716 0
M  V30 8585 C 816.577 -2.39498 -1.39772 0
M  V30 8586 H 819.528 -1.54547 -0.36068 0
M  V30 8587 H 819.549 -2.41768 -2.93817 0
M  V30 8588 H 819.061 -3.56967 -1.52303 0
M  V30 8589 H 817.162 -1.81414 -3.25453 0
M  V30 8590 H 817.275 -3.68809 -3.05805 0
M  V30 8591 H 815.639 -1.89749 -1.69904 0
M  V30 8592 H 816.422 -3.32942 -0.836943 0
M  V30 8593 N 818.867 0.818669 -1.34668 0
M  V30 8594 C 820.095 1.60674 -1.30351 0
M  V30 8595 C 820.51 1.88408 0.121546 0
M  V30 8596 O 819.867 1.47849 1.06991 0
M  V30 8597 C 819.918 2.94516 -2.09625 0
M  V30 8598 O 819.639 2.6799 -3.46573 0
M  V30 8599 C 821.14 3.8891 -2.12754 0
M  V30 8600 H 818.36 0.499306 -0.448258 0
M  V30 8601 H 820.904 1.01828 -1.77345 0
M  V30 8602 H 819.059 3.49908 -1.66262 0
M  V30 8603 H 819.473 3.53361 -3.87603 0
M  V30 8604 H 820.947 4.79972 -2.72637 0
M  V30 8605 H 821.424 4.24599 -1.12306 0
M  V30 8606 H 822.03 3.39453 -2.56225 0
M  V30 8607 N 820.346 1.18468 1.03938 0
M  V30 8608 C 821.594 0.978895 1.76811 0
M  V30 8609 C 821.915 -0.49257 1.88676 0
M  V30 8610 O 821.185 -1.3572 1.41269 0
M  V30 8611 H 819.765 0.359201 0.654968 0
M  V30 8612 H 822.427 1.49173 1.25433 0
M  V30 8613 H 821.523 1.418 2.78027 0
M  V30 8614 N 821.824 -1.22873 0.986916 0
M  V30 8615 C 822.771 -2.2458 0.532215 0
M  V30 8616 C 823.741 -1.60375 -0.432322 0
M  V30 8617 O 824.926 -1.87775 -0.338416 0
M  V30 8618 C 822.066 -3.44761 -0.152864 0
M  V30 8619 C 821.179 -4.23501 0.852704 0
M  V30 8620 C 820.314 -5.31011 0.14176 0
M  V30 8621 C 819.353 -6.01464 1.1361 0
M  V30 8622 N 818.49 -7.00631 0.453871 0
M  V30 8623 H 823.33 -2.62838 1.40428 0
M  V30 8624 H 820.867 -1.29185 0.703543 0
M  V30 8625 H 822.825 -4.1333 -0.566926 0
M  V30 8626 H 821.455 -3.07284 -0.988756 0
M  V30 8627 H 820.507 -3.54286 1.38512 0
M  V30 8628 H 821.819 -4.72097 1.61014 0
M  V30 8629 H 820.973 -6.05805 -0.329337 0
M  V30 8630 H 819.712 -4.83373 -0.648229 0
M  V30 8631 H 818.717 -5.25456 1.61789 0
M  V30 8632 H 819.942 -6.5119 1.92686 0
M  V30 8633 H 817.888 -6.55235 -0.316791 0
M  V30 8634 H 817.805 -7.47204 1.14986 0
M  V30 8635 H 819.073 -7.795 0.00537823 0
M  V30 8636 N 823.302 -0.75937 -1.38099 0
M  V30 8637 C 824.549 -0.318113 -1.99986 0
M  V30 8638 C 824.877 1.10184 -1.6028 0
M  V30 8639 O 824.132 1.77015 -0.834524 0
M  V30 8640 C 824.431 -0.394999 -3.55211 0
M  V30 8641 C 824.097 -1.77143 -4.14646 0
M  V30 8642 C 822.759 -2.14811 -4.30592 0
M  V30 8643 C 825.111 -2.67407 -4.47373 0
M  V30 8644 C 822.439 -3.42203 -4.76565 0
M  V30 8645 C 824.791 -3.94196 -4.94765 0
M  V30 8646 C 823.455 -4.31925 -5.08918 0
M  V30 8647 H 822.725 -0.116406 -0.7318 0
M  V30 8648 H 825.372 -0.97098 -1.65058 0
M  V30 8649 H 823.677 0.341426 -3.9031 0
M  V30 8650 H 825.374 -0.0350722 -4.00985 0
M  V30 8651 H 821.964 -1.46864 -4.02652 0
M  V30 8652 H 826.148 -2.39569 -4.3465 0
M  V30 8653 H 821.404 -3.71346 -4.85708 0
M  V30 8654 H 825.578 -4.64276 -5.19057 0
M  V30 8655 H 823.205 -5.30699 -5.443 0
M  V30 8656 N 824.78 1.49157 -0.508906 0
M  V30 8657 C 825.728 2.30922 0.278906 0
M  V30 8658 C 826.722 1.39889 0.955382 0
M  V30 8659 O 827.928 1.56901 0.882169 0
M  V30 8660 H 824.303 0.744087 0.108805 0
M  V30 8661 H 826.274 2.95277 -0.430583 0
M  V30 8662 C 825.023 3.21432 1.32576 0
M  V30 8663 H 824.346 3.91413 0.814634 0
M  V30 8664 H 825.786 3.81568 1.84882 0
M  V30 8665 C 824.245 2.41583 2.34817 0
M  V30 8666 O 824.775 2.1256 3.40854 0
M  V30 8667 N 822.981 2.03462 2.07489 0
M  V30 8668 H 822.528 2.27265 1.21278 0
M  V30 8669 H 822.486 1.50345 2.76123 0
M  V30 8670 N 826.258 0.243083 1.55714 0
M  V30 8671 C 827.504 -0.383287 1.99145 0
M  V30 8672 C 827.837 -1.57868 1.13098 0
M  V30 8673 O 827.112 -1.93535 0.193509 0
M  V30 8674 C 827.395 -0.796879 3.51172 0
M  V30 8675 C 827.248 0.403642 4.47985 0
M  V30 8676 C 828.567 -1.64525 4.08191 0
M  V30 8677 H 825.686 -0.137843 0.723995 0
M  V30 8678 H 828.328 0.343631 1.86867 0
M  V30 8679 H 826.478 -1.41625 3.61766 0
M  V30 8680 H 828.15 1.04204 4.49376 0
M  V30 8681 H 826.393 1.04741 4.20965 0
M  V30 8682 H 827.064 0.0709794 5.51954 0
M  V30 8683 H 829.54 -1.12246 4.00674 0
M  V30 8684 H 828.416 -1.9035 5.14838 0
M  V30 8685 H 828.677 -2.61582 3.56409 0
M  V30 8686 N 827.736 -1.57571 -0.0300757 0
M  V30 8687 C 828.966 -1.93204 -0.731828 0
M  V30 8688 C 829.374 -0.841156 -1.69473 0
M  V30 8689 O 828.717 0.191231 -1.82702 0
M  V30 8690 C 828.779 -3.2463 -1.54453 0
M  V30 8691 C 828.443 -4.50862 -0.746507 0
M  V30 8692 C 829.44 -5.19879 -0.0472309 0
M  V30 8693 C 827.125 -4.9738 -0.701347 0
M  V30 8694 C 829.119 -6.33692 0.686518 0
M  V30 8695 C 826.806 -6.11089 0.036148 0
M  V30 8696 C 827.804 -6.791 0.728841 0
M  V30 8697 O 827.492 -7.90635 1.45436 0
M  V30 8698 H 827.224 -0.6423 -0.210775 0
M  V30 8699 H 829.778 -2.05398 0.00804194 0
M  V30 8700 H 828.008 -3.0876 -2.32818 0
M  V30 8701 H 829.697 -3.45597 -2.1288 0
M  V30 8702 H 830.463 -4.84945 -0.0731582 0
M  V30 8703 H 826.342 -4.44288 -1.23001 0
M  V30 8704 H 829.886 -6.86711 1.22773 0
M  V30 8705 H 825.783 -6.45468 0.064002 0
M  V30 8706 H 826.551 -8.06988 1.36794 0
M  V30 8707 N 829.214 0.302327 -1.54673 0
M  V30 8708 C 830.162 1.39286 -1.86285 0
M  V30 8709 C 831.156 1.52553 -0.736478 0
M  V30 8710 O 832.362 1.54686 -0.92045 0
M  V30 8711 H 828.737 0.465228 -0.590819 0
M  V30 8712 H 830.708 1.09859 -2.77441 0
M  V30 8713 C 829.457 2.75155 -2.12567 0
M  V30 8714 H 828.78 2.65728 -2.98712 0
M  V30 8715 H 830.22 3.50476 -2.38627 0
M  V30 8716 C 828.679 3.23987 -0.923813 0
M  V30 8717 O 829.209 4.01443 -0.143649 0
M  V30 8718 N 827.415 2.81293 -0.72956 0
M  V30 8719 H 826.962 2.18421 -1.36565 0
M  V30 8720 H 826.92 3.14315 0.0730351 0
M  V30 8721 N 830.692 1.47107 0.565454 0
M  V30 8722 C 831.92 1.56909 1.3486 0
M  V30 8723 C 832.335 0.216312 1.87557 0
M  V30 8724 O 831.692 -0.789168 1.64555 0
M  V30 8725 C 831.743 2.58776 2.52423 0
M  V30 8726 O 831.464 3.888 2.01906 0
M  V30 8727 C 832.965 2.78683 3.44747 0
M  V30 8728 H 830.185 0.530096 0.411387 0
M  V30 8729 H 832.729 1.92658 0.685782 0
M  V30 8730 H 830.884 2.25983 3.1466 0
M  V30 8731 H 831.298 4.44393 2.78595 0
M  V30 8732 H 832.772 3.53842 4.23674 0
M  V30 8733 H 833.249 1.86208 3.97773 0
M  V30 8734 H 833.855 3.12641 2.88333 0
M  V30 8735 N 832.17 -0.811516 1.35101 0
M  V30 8736 C 833.102 -1.93102 1.23468 0
M  V30 8737 C 834.115 -1.62021 0.159095 0
M  V30 8738 O 835.304 -1.73682 0.411945 0
M  V30 8739 C 832.404 -3.27345 0.877404 0
M  V30 8740 C 831.577 -3.86368 2.05033 0
M  V30 8741 C 830.636 -4.99009 1.66963 0
M  V30 8742 O 829.662 -5.16698 2.38772 0
M  V30 8743 N 830.864 -5.7749 0.590394 0
M  V30 8744 H 833.629 -2.0361 2.19916 0
M  V30 8745 H 831.19 -0.988687 1.28205 0
M  V30 8746 H 833.182 -4.00163 0.604298 0
M  V30 8747 H 831.752 -3.126 0.00275267 0
M  V30 8748 H 830.972 -3.05804 2.48752 0
M  V30 8749 H 832.26 -4.22533 2.83449 0
M  V30 8750 H 831.658 -5.657 -0.00633259 0
M  V30 8751 H 830.215 -6.50708 0.377055 0
M  V30 8752 N 833.648 -1.19017 -1.03309 0
M  V30 8753 C 834.598 -0.89194 -2.0983 0
M  V30 8754 C 835.582 0.14151 -1.60277 0
M  V30 8755 O 836.774 -0.0635946 -1.76886 0
M  V30 8756 C 833.903 -0.427793 -3.40624 0
M  V30 8757 C 832.989 -1.49374 -3.96923 0
M  V30 8758 N 833.38 -2.71213 -4.26939 0
M  V30 8759 C 831.678 -1.35605 -4.24885 0
M  V30 8760 C 832.379 -3.39849 -4.72099 0
M  V30 8761 N 831.355 -2.67239 -4.73375 0
M  V30 8762 H 835.157 -1.81801 -2.30923 0
M  V30 8763 H 832.671 -1.08171 -1.21131 0
M  V30 8764 H 834.668 -0.195608 -4.16441 0
M  V30 8765 H 833.328 0.491848 -3.20953 0
M  V30 8766 H 834.339 -3.08014 -4.16351 0
M  V30 8767 H 831.016 -0.499537 -4.14501 0
M  V30 8768 H 832.406 -4.44018 -5.04279 0
M  V30 8769 N 835.127 1.22348 -0.993418 0
M  V30 8770 C 836.404 1.86632 -0.585495 0
M  V30 8771 C 836.784 1.89156 0.937187 0
M  V30 8772 O 836.132 1.38247 1.81934 0
M  V30 8773 C 836.342 3.27481 -1.20652 0
M  V30 8774 C 837.69 4.03971 -1.30738 0
M  V30 8775 O 838.714 3.3675 -1.16096 0
M  V30 8776 O 837.573 5.24302 -1.54173 0
M  V30 8777 H 834.667 0.802704 -0.198984 0
M  V30 8778 H 837.213 1.30122 -1.08933 0
M  V30 8779 H 835.985 3.20281 -2.24802 0
M  V30 8780 H 835.608 3.91597 -0.688312 0
M  V30 8781 N 836.605 0.766683 1.37694 0
M  V30 8782 C 837.851 0.329201 2.0011 0
M  V30 8783 C 838.184 -1.09004 1.60723 0
M  V30 8784 O 837.459 -1.74895 0.850989 0
M  V30 8785 C 837.742 0.466989 3.57059 0
M  V30 8786 C 837.595 1.92828 4.06371 0
M  V30 8787 C 838.914 -0.131792 4.39903 0
M  V30 8788 H 836.033 0.12109 0.726984 0
M  V30 8789 H 838.675 0.968779 1.63446 0
M  V30 8790 H 836.825 -0.0775023 3.88423 0
M  V30 8791 H 838.497 2.53208 3.85595 0
M  V30 8792 H 836.74 2.43884 3.58752 0
M  V30 8793 H 837.411 1.97577 5.15429 0
M  V30 8794 H 839.887 0.332731 4.14768 0
M  V30 8795 H 838.763 -0.005217 5.489 0
M  V30 8796 H 839.024 -1.22156 4.24889 0
M  V30 8797 N 838.083 -1.48885 0.516809 0
M  V30 8798 C 839.313 -2.06592 -0.018375 0
M  V30 8799 C 839.721 -1.37543 -1.29917 0
M  V30 8800 O 839.064 -0.452527 -1.78039 0
M  V30 8801 C 839.126 -3.58016 -0.326315 0
M  V30 8802 C 838.79 -4.48853 0.859072 0
M  V30 8803 C 839.787 -4.89422 1.75391 0
M  V30 8804 C 837.472 -4.90937 1.06235 0
M  V30 8805 C 839.466 -5.70831 2.83604 0
M  V30 8806 C 837.153 -5.72119 2.14763 0
M  V30 8807 C 838.151 -6.11972 3.03281 0
M  V30 8808 O 837.839 -6.91527 4.09934 0
M  V30 8809 H 837.571 -0.675559 0.0244023 0
M  V30 8810 H 840.125 -1.92442 0.718005 0
M  V30 8811 H 838.355 -3.70231 -1.1165 0
M  V30 8812 H 840.044 -3.97898 -0.801999 0
M  V30 8813 H 840.81 -4.57542 1.60875 0
M  V30 8814 H 836.689 -4.59409 0.382677 0
M  V30 8815 H 840.233 -6.01857 3.52724 0
M  V30 8816 H 836.13 -6.03412 2.29268 0
M  V30 8817 H 836.898 -7.0986 4.07482 0
M  V30 8818 O 839.6 -0.393142 -1.56642 0
M  V30 8819 H 840.291 0.151122 -1.9311 0
M  V30 END ATOM
M  V30 BEGIN BOND
M  V30 END BOND
M  V30 END CTAB
M  END
$$$$
