drugbank_target|P24630 Glutamate-1-semialdehyde 2,1-aminomutase (DB02054; DB02142)
 OpenBabel12092119563D

  0  0  0     0  0            999 V3000
M  V30 BEGIN CTAB
M  V30 COUNTS 6464 6534 0 0 0
M  V30 BEGIN ATOM
M  V30 1 H -0.908 1.98254 -0.117106 0
M  V30 2 N 0 1.576 0 0
M  V30 3 C 0.933 2.03868 1.02534 0
M  V30 4 C 1.911 0.928543 1.3348 0
M  V30 5 O 3.095 1.19667 1.45644 0
M  V30 6 C 0.222 2.43627 2.35294 0
M  V30 7 C -0.732 3.65373 2.2001 0
M  V30 8 S 0.101 5.13292 1.52614 0
M  V30 9 C 1.257 5.56322 2.86805 0
M  V30 10 H 1.49 2.90518 0.631377 0
M  V30 11 H -0.977 1.52953 0.210867 0
M  V30 12 H 0.981 2.67203 3.11629 0
M  V30 13 H -0.358 1.57376 2.7183 0
M  V30 14 H -1.165 3.90944 3.18086 0
M  V30 15 H -1.563 3.418 1.51819 0
M  V30 16 H 0.729 5.58782 3.83104 0
M  V30 17 H 1.672 6.56266 2.65933 0
M  V30 18 H 2.08 4.83886 2.90714 0
M  V30 19 N 1.4781 -0.272755 1.55222 0
M  V30 20 C 2.7241 -1.00581 1.761 0
M  V30 21 C 3.0571 -1.85932 0.560625 0
M  V30 22 O 2.3321 -1.89416 -0.441801 0
M  V30 23 C 2.6151 -1.88816 3.06628 0
M  V30 24 C 2.4681 -1.06457 4.37021 0
M  V30 25 C 3.7871 -2.8752 3.33197 0
M  V30 26 H 0.9061 -0.364244 0.640699 0
M  V30 27 H 3.5481 -0.278189 1.87952 0
M  V30 28 H 1.6981 -2.50856 2.96654 0
M  V30 29 H 3.3701 -0.464863 4.58952 0
M  V30 30 H 1.6131 -0.368043 4.32236 0
M  V30 31 H 2.2841 -1.71514 5.24678 0
M  V30 32 H 4.7601 -2.35615 3.42965 0
M  V30 33 H 3.6361 -3.46399 4.25792 0
M  V30 34 H 3.8971 -3.62657 2.52849 0
M  V30 35 N 2.9562 -1.48159 -0.537278 0
M  V30 36 C 4.1842 -1.59454 -1.31841 0
M  V30 37 C 4.5992 -0.252065 -1.8711 0
M  V30 38 O 3.9562 0.757621 -1.66031 0
M  V30 39 C 4.0072 -2.63546 -2.47439 0
M  V30 40 O 3.7282 -3.92583 -1.94449 0
M  V30 41 C 5.2292 -2.85212 -3.39366 0
M  V30 42 H 2.4492 -0.53785 -0.401196 0
M  V30 43 H 4.9932 -1.93932 -0.648891 0
M  V30 44 H 3.1482 -2.31946 -3.1029 0
M  V30 45 H 3.5622 -4.49629 -2.70063 0
M  V30 46 H 5.0362 -3.61863 -4.16844 0
M  V30 47 H 5.5132 -1.93765 -3.94147 0
M  V30 48 H 6.1192 -3.18086 -2.82314 0
M  V30 49 N 4.4343 0.785586 -1.36625 0
M  V30 50 C 5.6593 1.57963 -1.34397 0
M  V30 51 C 6.0843 1.87964 0.071526 0
M  V30 52 O 5.4423 1.48182 1.0446 0
M  V30 53 C 5.4903 2.87511 -2.17646 0
M  V30 54 O 4.5943 3.81281 -1.57158 0
M  V30 55 H 3.9353 0.479014 -0.459828 0
M  V30 56 H 6.4653 0.973411 -1.79961 0
M  V30 57 H 6.4753 3.36745 -2.30362 0
M  V30 58 H 5.1503 2.65002 -3.20541 0
M  V30 59 H 3.7273 3.39885 -1.53403 0
M  V30 60 N 5.9124 1.20967 1.01018 0
M  V30 61 C 7.1374 1.0503 1.78839 0
M  V30 62 C 7.5624 -0.395752 1.8389 0
M  V30 63 O 6.9204 -1.28529 1.27867 0
M  V30 64 C 6.9684 1.64602 3.2084 0
M  V30 65 O 6.0724 0.887988 4.02726 0
M  V30 66 H 5.4134 0.369987 0.551367 0
M  V30 67 H 7.9434 1.60399 1.27018 0
M  V30 68 H 7.9534 1.68607 3.71532 0
M  V30 69 H 6.6284 2.69841 3.16479 0
M  V30 70 H 5.2054 0.922648 3.61305 0
M  V30 71 N 7.3905 -1.2043 1.01659 0
M  V30 72 C 8.8015 -1.71517 0.737482 0
M  V30 73 C 9.1525 -1.81547 -0.743973 0
M  V30 74 O 8.2775 -1.47803 -1.58061 0
M  V30 75 C 8.8725 -3.11515 1.33206 0
M  V30 76 C 7.4315 -3.59912 1.10183 0
M  V30 77 C 6.5785 -2.37116 1.43776 0
M  V30 78 H 9.5295 -1.05444 1.18606 0
M  V30 79 H 9.5505 -3.73575 0.722636 0
M  V30 80 H 9.0625 -3.04182 2.41028 0
M  V30 81 H 7.1635 -3.72577 0.0412756 0
M  V30 82 H 7.2765 -4.44731 1.78188 0
M  V30 83 H 5.6405 -2.39857 0.856778 0
M  V30 84 H 6.4235 -2.32424 2.52654 0
M  V30 85 N 8.8686 -0.792821 -1.36206 0
M  V30 86 C 10.1156 -0.366786 -1.99151 0
M  V30 87 C 10.4436 1.06243 -1.62919 0
M  V30 88 O 9.6986 1.74927 -0.877442 0
M  V30 89 C 9.9976 -0.481501 -3.54142 0
M  V30 90 C 9.6636 -1.87202 -4.10203 0
M  V30 91 C 8.3256 -2.25248 -4.25226 0
M  V30 92 C 10.6776 -2.78237 -4.40719 0
M  V30 93 C 8.0056 -3.53723 -4.68078 0
M  V30 94 C 10.3576 -4.06144 -4.85005 0
M  V30 95 C 9.0216 -4.44207 -4.98234 0
M  V30 96 H 8.2916 -0.134217 -0.728743 0
M  V30 97 H 10.9386 -1.01094 -1.62641 0
M  V30 98 H 9.2436 0.246146 -3.91026 0
M  V30 99 H 10.9406 -0.132844 -4.0078 0
M  V30 100 H 7.5306 -1.56639 -3.98951 0
M  V30 101 H 11.7146 -2.50097 -4.28679 0
M  V30 102 H 6.9706 -3.8308 -4.76508 0
M  V30 103 H 11.1446 -4.76796 -5.07581 0
M  V30 104 H 8.7716 -5.43814 -5.31197 0
M  V30 105 N 10.3467 1.47872 -0.545128 0
M  V30 106 C 11.2937 2.29849 0.2093 0
M  V30 107 C 12.2637 1.38313 0.919707 0
M  V30 108 O 13.4487 1.67277 0.917772 0
M  V30 109 C 10.5887 3.22019 1.24088 0
M  V30 110 C 9.7017 4.2864 0.537778 0
M  V30 111 C 8.8367 5.07973 1.5536 0
M  V30 112 C 7.8757 6.06381 0.8348 0
M  V30 113 N 7.0127 6.78717 1.79688 0
M  V30 114 H 11.8527 2.93845 -0.49591 0
M  V30 115 H 9.3897 1.44848 -0.256389 0
M  V30 116 H 11.3477 3.73868 1.85144 0
M  V30 117 H 9.9777 2.59914 1.91428 0
M  V30 118 H 9.0297 3.7994 -0.187046 0
M  V30 119 H 10.3417 4.98793 -0.0258907 0
M  V30 120 H 9.4957 5.63912 2.23803 0
M  V30 121 H 8.2347 4.37693 2.15118 0
M  V30 122 H 7.2397 5.49631 0.136388 0
M  V30 123 H 8.4647 6.78665 0.24313 0
M  V30 124 H 6.4107 6.11177 2.38326 0
M  V30 125 H 6.3277 7.44998 1.28505 0
M  V30 126 H 7.5957 7.39237 2.47282 0
M  V30 127 N 11.8248 0.280983 1.55075 0
M  V30 128 C 13.0528 -0.337293 2.04132 0
M  V30 129 C 13.4678 -1.4903 1.15912 0
M  V30 130 O 12.8248 -1.81606 0.180459 0
M  V30 131 C 12.8758 -0.812706 3.52246 0
M  V30 132 O 12.5968 0.294387 4.3711 0
M  V30 133 C 14.0978 -1.4982 4.17216 0
M  V30 134 H 11.3178 -0.0761638 0.666663 0
M  V30 135 H 13.8618 0.414787 2.00249 0
M  V30 136 H 12.0168 -1.51486 3.56554 0
M  V30 137 H 12.4308 -0.0721325 5.2445 0
M  V30 138 H 13.9048 -1.7822 5.22438 0
M  V30 139 H 14.3818 -2.43168 3.65741 0
M  V30 140 H 14.9878 -0.839742 4.16927 0
M  V30 141 N 13.3029 -1.57598 0.00835791 0
M  V30 142 C 14.5519 -1.90107 -0.673968 0
M  V30 143 C 14.8649 -0.884275 -1.7447 0
M  V30 144 O 16.0709 -1.09987 -2.48224 0
M  V30 145 C 14.5269 -3.37497 -1.24995 0
M  V30 146 C 14.1349 -4.47491 -0.2136 0
M  V30 147 C 15.8789 -3.79104 -1.90999 0
M  V30 148 C 13.7859 -5.85963 -0.80005 0
M  V30 149 H 12.7159 -0.709393 -0.255495 0
M  V30 150 H 15.3669 -1.83365 0.0702693 0
M  V30 151 H 13.7489 -3.39102 -2.04513 0
M  V30 152 H 14.9229 -4.57414 0.557596 0
M  V30 153 H 13.2379 -4.14956 0.346474 0
M  V30 154 H 15.8349 -4.79901 -2.35795 0
M  V30 155 H 16.1779 -3.1306 -2.74407 0
M  V30 156 H 16.7109 -3.79833 -1.18203 0
M  V30 157 H 13.4499 -6.555 -0.00456708 0
M  V30 158 H 12.9699 -5.79687 -1.54021 0
M  V30 159 H 14.6489 -6.33884 -1.29615 0
M  V30 160 N 14.781 0.264519 -1.55364 0
M  V30 161 C 15.728 1.32717 -1.88825 0
M  V30 162 C 16.698 1.48675 -0.740605 0
M  V30 163 O 17.883 1.62945 -0.992657 0
M  V30 164 C 15.023 2.68089 -2.17307 0
M  V30 165 C 14.136 2.60284 -3.44785 0
M  V30 166 C 13.271 3.87892 -3.62924 0
M  V30 167 C 12.31 3.74631 -4.84064 0
M  V30 168 N 11.447 4.94092 -4.98816 0
M  V30 169 H 16.287 1.03481 -2.79456 0
M  V30 170 H 13.824 0.499757 -1.3835 0
M  V30 171 H 15.782 3.46864 -2.31821 0
M  V30 172 H 14.412 2.95509 -1.299 0
M  V30 173 H 13.464 1.73173 -3.38697 0
M  V30 174 H 14.776 2.46388 -4.33698 0
M  V30 175 H 13.93 4.75109 -3.77302 0
M  V30 176 H 12.669 4.04664 -2.7221 0
M  V30 177 H 11.674 2.85797 -4.69681 0
M  V30 178 H 12.899 3.5937 -5.76221 0
M  V30 179 H 10.845 5.11259 -4.11036 0
M  V30 180 H 10.762 4.8276 -5.81789 0
M  V30 181 H 12.03 5.82857 -5.17588 0
M  V30 182 N 16.2591 1.48442 0.529413 0
M  V30 183 C 17.4841 1.60406 1.31471 0
M  V30 184 C 17.9091 0.264738 1.86228 0
M  V30 185 O 17.2671 -0.763668 1.64432 0
M  V30 186 C 17.3151 2.65419 2.44101 0
M  V30 187 O 16.4191 2.22618 3.47153 0
M  V30 188 H 15.7601 0.537863 0.389357 0
M  V30 189 H 18.2901 1.94432 0.636965 0
M  V30 190 H 18.3001 2.86709 2.90279 0
M  V30 191 H 16.9751 3.62652 2.03608 0
M  V30 192 H 15.5521 2.11543 3.0709 0
M  V30 193 N 17.7372 -0.778329 1.37039 0
M  V30 194 C 19.0142 -1.52551 1.22424 0
M  V30 195 C 19.3942 -2.10288 -0.184964 0
M  V30 196 O 18.7422 -1.94953 -1.19187 0
M  V30 197 C 18.9522 -2.61164 2.31504 0
M  V30 198 C 20.3002 -3.28746 2.68721 0
M  V30 199 O 21.3242 -2.71455 2.30631 0
M  V30 200 O 20.1832 -4.3231 3.3432 0
M  V30 201 H 17.2772 -0.675343 0.477326 0
M  V30 202 H 19.8232 -0.815859 1.48801 0
M  V30 203 H 18.5952 -2.16574 3.25901 0
M  V30 204 H 18.2182 -3.39737 2.06554 0
M  V30 205 N 19.2153 -1.21501 -1.00376 0
M  V30 206 C 20.1253 -0.991447 -2.12621 0
M  V30 207 C 21.1413 0.0568446 -1.73907 0
M  V30 208 O 22.3173 -0.13348 -2.00957 0
M  V30 209 C 19.3823 -0.560312 -3.42142 0
M  V30 210 C 18.4433 -1.68096 -3.95022 0
M  V30 211 C 17.6763 -1.2703 -5.18362 0
M  V30 212 O 17.8993 -0.144438 -5.70217 0
M  V30 213 O 16.8333 -2.08269 -5.64719 0
M  V30 214 H 20.6593 -1.93158 -2.34358 0
M  V30 215 H 18.2443 -0.999999 -1.10997 0
M  V30 216 H 20.1263 -0.329724 -4.20108 0
M  V30 217 H 18.8013 0.351089 -3.2179 0
M  V30 218 H 17.7083 -1.96597 -3.18278 0
M  V30 219 H 19.0413 -2.56983 -4.19786 0
M  V30 220 N 20.6934 1.19889 -1.02296 0
M  V30 221 C 21.9424 1.88743 -0.711257 0
M  V30 222 C 22.2554 1.80112 0.762817 0
M  V30 223 O 23.4614 2.44161 1.18733 0
M  V30 224 C 21.9174 3.38525 -1.22185 0
M  V30 225 C 21.5254 3.55727 -2.72328 0
M  V30 226 C 23.2694 4.12893 -0.985864 0
M  V30 227 C 21.1764 4.99369 -3.16835 0
M  V30 228 H 20.1064 0.706885 -0.262353 0
M  V30 229 H 22.7574 1.35586 -1.23648 0
M  V30 230 H 21.1394 3.91044 -0.624571 0
M  V30 231 H 22.3134 3.13564 -3.3766 0
M  V30 232 H 20.6284 2.94739 -2.9414 0
M  V30 233 H 23.2254 5.18813 -1.29374 0
M  V30 234 H 23.5684 4.16228 0.0775055 0
M  V30 235 H 24.1014 3.66494 -1.54684 0
M  V30 236 H 20.8404 5.01193 -4.22476 0
M  V30 237 H 20.3604 5.42317 -2.56228 0
M  V30 238 H 22.0394 5.67988 -3.09837 0
M  V30 239 N 22.1715 0.800033 1.35784 0
M  V30 240 C 23.4185 0.377342 1.98953 0
M  V30 241 C 23.7465 -1.05378 1.6348 0
M  V30 242 O 23.0015 -1.74459 0.886707 0
M  V30 243 C 23.3005 0.500276 3.53881 0
M  V30 244 C 22.9665 1.89375 4.09204 0
M  V30 245 C 21.6285 2.27499 4.24025 0
M  V30 246 C 23.9805 2.8057 4.39238 0
M  V30 247 C 21.3085 3.562 4.66195 0
M  V30 248 C 23.6605 4.0871 4.82844 0
M  V30 249 C 22.3245 4.46843 4.95871 0
M  V30 250 H 21.5945 0.138079 0.728021 0
M  V30 251 H 24.2415 1.01955 1.62103 0
M  V30 252 H 22.5465 -0.225405 3.91151 0
M  V30 253 H 24.2435 0.154097 4.00704 0
M  V30 254 H 20.8335 1.58753 3.98115 0
M  V30 255 H 25.0175 2.52367 4.27346 0
M  V30 256 H 20.2735 3.85602 4.74469 0
M  V30 257 H 24.4475 4.79481 5.05046 0
M  V30 258 H 22.0745 5.46623 5.28306 0
M  V30 259 N 23.6496 -1.47581 0.552962 0
M  V30 260 C 24.6126 -2.28439 -0.186605 0
M  V30 261 C 25.6126 -1.36706 -0.84665 0
M  V30 262 O 26.8026 -1.59378 -0.703164 0
M  V30 263 C 23.9346 -3.16264 -1.2724 0
M  V30 264 H 25.1276 -2.95294 0.523609 0
M  V30 265 H 22.6806 -1.532 0.309745 0
M  V30 266 H 23.4156 -2.54091 -2.01514 0
M  V30 267 H 23.2006 -3.83769 -0.803968 0
M  V30 268 H 24.6906 -3.77198 -1.79196 0
M  V30 269 N 25.1277 -0.289203 -1.54924 0
M  V30 270 C 26.0907 0.579144 -2.21762 0
M  V30 271 C 27.0907 1.07047 -1.1999 0
M  V30 272 O 28.2807 0.968384 -1.44803 0
M  V30 273 C 25.4127 1.80055 -2.8947 0
M  V30 274 H 26.6057 -0.00464908 -2.999 0
M  V30 275 H 24.1587 -0.0399306 -1.56249 0
M  V30 276 H 24.8937 2.42449 -2.15381 0
M  V30 277 H 24.6787 1.45602 -3.64064 0
M  V30 278 H 26.1687 2.41773 -3.40493 0
M  V30 279 N 26.6058 1.57591 -0.0167156 0
M  V30 280 C 27.5688 2.08393 0.954204 0
M  V30 281 C 28.5688 0.996531 1.26198 0
M  V30 282 O 29.7588 1.25858 1.20438 0
M  V30 283 C 26.8908 2.5394 2.27436 0
M  V30 284 H 28.0838 2.95455 0.514451 0
M  V30 285 H 25.6368 1.54582 0.231089 0
M  V30 286 H 26.3718 1.70171 2.76066 0
M  V30 287 H 26.1568 3.33371 2.06412 0
M  V30 288 H 27.6468 2.93512 2.97053 0
M  V30 289 N 28.0839 -0.256276 1.55502 0
M  V30 290 C 29.0159 -1.33981 1.85962 0
M  V30 291 C 30.0289 -1.44743 0.745212 0
M  V30 292 O 31.2179 -1.4626 1.02324 0
M  V30 293 C 28.3179 -2.7194 2.02242 0
M  V30 294 C 27.4909 -2.83562 3.33033 0
M  V30 295 C 26.5499 -4.02304 3.39172 0
M  V30 296 O 25.5759 -3.92273 4.12444 0
M  V30 297 N 26.7779 -5.15045 2.67784 0
M  V30 298 H 29.5429 -1.08191 2.7949 0
M  V30 299 H 27.1039 -0.446388 1.55624 0
M  V30 300 H 29.0959 -3.49697 2.03701 0
M  V30 301 H 27.6659 -2.90479 1.15502 0
M  V30 302 H 26.8859 -1.92555 3.43971 0
M  V30 303 H 28.1739 -2.88271 4.19258 0
M  V30 304 H 27.5719 -5.26085 2.07968 0
M  V30 305 H 26.1289 -5.90972 2.74947 0
M  V30 306 N 29.562 -1.4872 -0.521534 0
M  V30 307 C 30.509 -1.63871 -1.62527 0
M  V30 308 C 31.479 -0.480559 -1.58996 0
M  V30 309 O 32.664 -0.705085 -1.77294 0
M  V30 310 C 29.804 -1.69227 -3.00759 0
M  V30 311 C 28.917 -2.96207 -3.14461 0
M  V30 312 C 28.052 -2.92671 -4.43303 0
M  V30 313 C 27.091 -4.14318 -4.50563 0
M  V30 314 N 26.228 -4.0881 -5.70805 0
M  V30 315 H 31.068 -2.58123 -1.48918 0
M  V30 316 H 28.605 -1.28 -0.724878 0
M  V30 317 H 30.563 -1.70314 -3.80853 0
M  V30 318 H 29.193 -0.784586 -3.1312 0
M  V30 319 H 28.245 -3.04826 -2.27564 0
M  V30 320 H 29.557 -3.86192 -3.15686 0
M  V30 321 H 28.711 -2.92206 -5.31696 0
M  V30 322 H 27.45 -2.00429 -4.44612 0
M  V30 323 H 26.455 -4.15049 -3.60575 0
M  V30 324 H 27.68 -5.07729 -4.50986 0
M  V30 325 H 25.626 -3.19394 -5.72995 0
M  V30 326 H 25.543 -4.92509 -5.7356 0
M  V30 327 H 26.811 -4.12418 -6.61462 0
M  V30 328 N 31.0401 0.771051 -1.3745 0
M  V30 329 C 31.9701 1.89827 -1.3597 0
M  V30 330 C 32.9511 1.68562 -0.228216 0
M  V30 331 O 34.1361 1.8941 -0.428675 0
M  V30 332 C 31.2661 3.2712 -1.16662 0
M  V30 333 C 30.2201 3.6295 -2.2683 0
M  V30 334 C 29.5461 4.98791 -1.92644 0
M  V30 335 C 30.8461 3.69627 -3.69017 0
M  V30 336 H 32.5401 1.91323 -2.30295 0
M  V30 337 H 30.0861 0.919082 -1.10855 0
M  V30 338 H 32.0391 4.05615 -1.14256 0
M  V30 339 H 30.7631 3.26059 -0.187926 0
M  V30 340 H 29.4221 2.86763 -2.28392 0
M  V30 341 H 29.0701 4.94271 -0.933021 0
M  V30 342 H 28.7701 5.23733 -2.66416 0
M  V30 343 H 30.2941 5.79685 -1.91826 0
M  V30 344 H 31.7081 4.38273 -3.69581 0
M  V30 345 H 30.1051 4.06067 -4.41848 0
M  V30 346 H 31.1751 2.70273 -4.02592 0
M  V30 347 N 32.5182 1.22032 0.997298 0
M  V30 348 C 33.4512 0.929735 2.08401 0
M  V30 349 C 34.4292 -0.125681 1.62114 0
M  V30 350 O 35.6132 0.00495409 1.88499 0
M  V30 351 C 32.7402 0.397488 3.3636 0
M  V30 352 C 31.7862 1.4369 4.01566 0
M  V30 353 S 32.6192 3.00874 4.42984 0
M  V30 354 C 33.7752 2.49276 5.74119 0
M  V30 355 H 34.0082 1.84998 2.32729 0
M  V30 356 H 31.5412 1.0509 1.13117 0
M  V30 357 H 33.4992 0.0969846 4.10385 0
M  V30 358 H 32.1602 -0.501571 3.10069 0
M  V30 359 H 31.3532 1.01427 4.93689 0
M  V30 360 H 30.9552 1.68588 3.33847 0
M  V30 361 H 33.2472 1.90242 6.50242 0
M  V30 362 H 34.1902 3.39872 6.21203 0
M  V30 363 H 34.5982 1.90714 5.31308 0
M  V30 364 N 33.9963 -1.19345 1.0293 0
M  V30 365 C 35.4073 -1.70725 0.755633 0
M  V30 366 C 35.7583 -1.82326 -0.724676 0
M  V30 367 O 34.8833 -1.49471 -1.56484 0
M  V30 368 C 35.4783 -3.10084 1.36503 0
M  V30 369 C 34.0373 -3.58723 1.13994 0
M  V30 370 C 33.1843 -2.35577 1.46283 0
M  V30 371 H 36.1353 -1.0418 1.19718 0
M  V30 372 H 36.1563 -3.72787 0.762217 0
M  V30 373 H 35.6683 -3.01609 2.44241 0
M  V30 374 H 33.7693 -3.72512 0.0807901 0
M  V30 375 H 33.8823 -4.42816 1.82894 0
M  V30 376 H 32.2463 -2.38935 0.88217 0
M  V30 377 H 33.0293 -2.29731 2.55105 0
M  V30 378 N 35.4744 -0.807222 -1.35358 0
M  V30 379 C 36.7224 -0.387122 -1.98358 0
M  V30 380 C 37.0434 1.04942 -1.64354 0
M  V30 381 O 36.3134 1.72615 -0.926339 0
M  V30 382 H 34.8934 -0.140154 -0.733734 0
M  V30 383 H 37.5554 -1.0332 -1.6526 0
M  V30 384 H 36.6514 -0.493352 -3.08176 0
M  V30 385 N 36.9525 1.47285 -0.560781 0
M  V30 386 C 38.2005 2.02064 -0.0379868 0
M  V30 387 C 38.5215 1.43711 1.31803 0
M  V30 388 O 37.7915 0.61362 1.86042 0
M  V30 389 H 36.3715 0.746918 -0.0110531 0
M  V30 390 H 39.0335 1.80648 -0.731598 0
M  V30 391 H 38.1295 3.12064 0.0474463 0
M  V30 392 N 38.4306 0.297415 1.54768 0
M  V30 393 C 39.6766 -0.313376 2.00364 0
M  V30 394 C 40.0096 -1.53815 1.18553 0
M  V30 395 O 39.2846 -1.92739 0.261103 0
M  V30 396 C 39.5676 -0.673525 3.53745 0
M  V30 397 C 39.4206 0.560133 4.46299 0
M  V30 398 C 40.7396 -1.50143 4.13697 0
M  V30 399 H 37.8586 -0.112428 0.728374 0
M  V30 400 H 40.5006 0.4088 1.8555 0
M  V30 401 H 38.6506 -1.28881 3.665 0
M  V30 402 H 40.3226 1.19863 4.45455 0
M  V30 403 H 38.5656 1.19405 4.17043 0
M  V30 404 H 39.2366 0.26405 5.51368 0
M  V30 405 H 41.7126 -0.981588 4.04356 0
M  V30 406 H 40.5886 -1.72221 5.21182 0
M  V30 407 H 40.8496 -2.48952 3.65343 0
M  V30 408 N 39.9087 -1.5758 0.0250728 0
M  V30 409 C 41.1337 -1.96337 -0.668317 0
M  V30 410 C 41.5587 -0.901314 -1.651 0
M  V30 411 O 40.9167 0.138187 -1.80773 0
M  V30 412 C 40.9647 -3.34191 -1.35457 0
M  V30 413 O 40.0687 -3.30269 -2.46974 0
M  V30 414 H 39.4097 -0.640281 -0.175887 0
M  V30 415 H 41.9397 -2.0442 0.0857224 0
M  V30 416 H 41.9497 -3.70331 -1.71228 0
M  V30 417 H 40.6247 -4.11036 -0.634218 0
M  V30 418 H 39.2017 -3.05841 -2.13344 0
M  V30 419 N 41.3868 0.248026 -1.55636 0
M  V30 420 C 42.6118 0.998028 -1.81808 0
M  V30 421 C 43.0368 1.78207 -0.601979 0
M  V30 422 O 42.3948 1.75653 0.448961 0
M  V30 423 C 42.4428 1.9125 -3.05705 0
M  V30 424 O 41.5468 3.00406 -2.82542 0
M  V30 425 H 40.8878 0.284045 -0.600179 0
M  V30 426 H 43.4178 0.269357 -2.02819 0
M  V30 427 H 43.4278 2.32737 -3.35108 0
M  V30 428 H 42.1028 1.33602 -3.93857 0
M  V30 429 H 40.6798 2.63056 -2.64303 0
M  V30 430 N 42.8649 1.48995 0.513639 0
M  V30 431 C 44.2759 1.5119 1.09537 0
M  V30 432 C 44.6269 0.290906 1.94031 0
M  V30 433 O 43.7519 -0.60049 2.07902 0
M  V30 434 C 44.3469 2.73964 1.99322 0
M  V30 435 C 42.9059 2.78978 2.52682 0
M  V30 436 C 42.0529 2.44934 1.30009 0
M  V30 437 H 45.0039 1.55875 0.298125 0
M  V30 438 H 45.0249 2.53409 2.83838 0
M  V30 439 H 44.5369 3.62813 1.37799 0
M  V30 440 H 42.6379 1.94378 3.1788 0
M  V30 441 H 42.7509 3.8083 2.90698 0
M  V30 442 H 41.1149 1.9644 1.62122 0
M  V30 443 H 41.8979 3.36043 0.702131 0
M  V30 444 N 44.343 -0.763751 1.37857 0
M  V30 445 C 45.589 -1.52483 1.33704 0
M  V30 446 C 45.922 -1.94051 -0.0759612 0
M  V30 447 O 45.197 -1.64675 -1.03501 0
M  V30 448 C 45.48 -2.78441 2.28348 0
M  V30 449 C 45.333 -2.43075 3.78463 0
M  V30 450 C 46.652 -3.80415 2.21298 0
M  V30 451 H 43.771 -0.553169 0.487005 0
M  V30 452 H 46.413 -0.875562 1.68624 0
M  V30 453 H 44.563 -3.33842 1.987 0
M  V30 454 H 46.235 -1.93527 4.18742 0
M  V30 455 H 44.478 -1.75666 3.96641 0
M  V30 456 H 45.149 -3.33149 4.40132 0
M  V30 457 H 47.625 -3.34527 2.47449 0
M  V30 458 H 46.501 -4.66257 2.89647 0
M  V30 459 H 46.762 -4.25262 1.20849 0
M  V30 460 N 45.8211 -1.22559 -0.990812 0
M  V30 461 C 47.2371 -0.985996 -1.255 0
M  V30 462 C 47.4371 0.319173 -1.98956 0
M  V30 463 O 46.4931 1.04127 -2.3003 0
M  V30 464 C 47.8061 -2.18607 -2.06474 0
M  V30 465 C 49.3541 -2.22985 -2.19651 0
M  V30 466 C 49.8291 -3.4255 -3.04012 0
M  V30 467 N 51.3201 -3.42725 -3.11599 0
M  V30 468 C 52.0551 -4.31892 -3.7717 0
M  V30 469 N 51.5511 -5.31279 -4.44651 0
M  V30 470 N 53.3441 -4.19662 -3.73952 0
M  V30 471 H 45.4951 -2.06469 -0.49841 0
M  V30 472 H 47.7581 -0.904853 -0.282747 0
M  V30 473 H 47.4641 -3.13267 -1.59865 0
M  V30 474 H 47.3381 -2.18838 -3.07229 0
M  V30 475 H 49.7251 -1.28871 -2.65474 0
M  V30 476 H 49.8061 -2.26791 -1.18319 0
M  V30 477 H 49.4501 -4.36965 -2.58889 0
M  V30 478 H 49.3801 -3.35984 -4.0549 0
M  V30 479 H 51.8711 -2.70807 -2.63575 0
M  V30 480 H 52.1841 -5.95593 -4.92431 0
M  V30 481 H 50.5291 -5.3519 -4.43392 0
M  V30 482 H 53.7201 -3.41268 -3.20396 0
M  V30 483 H 53.8931 -4.89358 -4.24774 0
M  V30 484 N 47.2992 1.18797 -1.03562 0
M  V30 485 C 48.2622 2.20464 -0.626769 0
M  V30 486 C 49.2622 1.57721 0.313173 0
M  V30 487 O 50.4522 1.73917 0.0992615 0
M  V30 488 C 47.5842 3.40802 0.0818498 0
M  V30 489 H 48.7772 2.58149 -1.5264 0
M  V30 490 H 46.3302 1.32593 -0.827578 0
M  V30 491 H 47.0652 3.08642 0.995518 0
M  V30 492 H 46.8502 3.8758 -0.593652 0
M  V30 493 H 48.3402 4.16092 0.354584 0
M  V30 494 N 48.7773 0.814389 1.34928 0
M  V30 495 C 50.0243 0.398423 1.98542 0
M  V30 496 C 50.3523 -1.03638 1.64589 0
M  V30 497 O 49.6073 -1.73509 0.90516 0
M  V30 498 C 49.9063 0.537781 3.53331 0
M  V30 499 C 49.5723 1.93704 4.07172 0
M  V30 500 C 48.2343 2.31984 4.21589 0
M  V30 501 C 50.5863 2.85213 4.36237 0
M  V30 502 C 47.9143 3.61125 4.62391 0
M  V30 503 C 50.2663 4.13809 4.78482 0
M  V30 504 C 48.9303 4.52077 4.91104 0
M  V30 505 H 48.2003 0.145793 0.726516 0
M  V30 506 H 50.8473 1.03669 1.61012 0
M  V30 507 H 49.1523 -0.183906 3.91368 0
M  V30 508 H 50.8493 0.196588 4.00518 0
M  V30 509 H 47.4393 1.62966 3.96409 0
M  V30 510 H 51.6233 2.56885 4.24645 0
M  V30 511 H 46.8793 3.90612 4.70353 0
M  V30 512 H 51.0533 4.84811 4.99932 0
M  V30 513 H 48.6803 5.52196 5.22478 0
M  V30 514 N 50.2554 -1.46986 0.568584 0
M  V30 515 C 51.2024 -2.30153 -0.172707 0
M  V30 516 C 52.1724 -1.39759 -0.897586 0
M  V30 517 O 53.3574 -1.68716 -0.891044 0
M  V30 518 C 50.4974 -3.23952 -1.1895 0
M  V30 519 C 49.6104 -4.29441 -0.469517 0
M  V30 520 C 48.7454 -5.1038 -1.47259 0
M  V30 521 C 47.7844 -6.07632 -0.738225 0
M  V30 522 N 46.9214 -6.8149 -1.68868 0
M  V30 523 H 51.7614 -2.93019 0.542596 0
M  V30 524 H 49.2984 -1.44422 0.279401 0
M  V30 525 H 51.2564 -3.76767 -1.79173 0
M  V30 526 H 49.8864 -2.62926 -1.87269 0
M  V30 527 H 48.9384 -3.79594 0.247467 0
M  V30 528 H 50.2504 -4.98689 0.105241 0
M  V30 529 H 49.4044 -5.67402 -2.14803 0
M  V30 530 H 48.1434 -4.4106 -2.08128 0
M  V30 531 H 47.1484 -5.49778 -0.0489293 0
M  V30 532 H 48.3734 -6.78966 -0.135129 0
M  V30 533 H 46.3194 -6.14891 -2.28573 0
M  V30 534 H 46.2364 -7.46948 -1.16636 0
M  V30 535 H 47.5044 -7.43078 -2.3549 0
M  V30 536 N 51.7335 -0.305618 -1.54608 0
M  V30 537 C 52.9585 0.307562 -2.05107 0
M  V30 538 C 53.3835 1.46385 -1.18123 0
M  V30 539 O 52.7415 1.8034 -0.186324 0
M  V30 540 C 52.7895 0.73704 -3.52987 0
M  V30 541 O 51.8935 1.84134 -3.6901 0
M  V30 542 H 51.2345 0.0589143 -0.661381 0
M  V30 543 H 53.7645 -0.448807 -1.99617 0
M  V30 544 H 53.7745 1.02459 -3.94925 0
M  V30 545 H 52.4495 -0.108773 -4.15758 0
M  V30 546 H 51.0265 1.55398 -3.38978 0
M  V30 547 N 53.2116 1.57565 -0.0334293 0
M  V30 548 C 54.4576 1.92262 0.645226 0
M  V30 549 C 54.7906 0.910543 1.71531 0
M  V30 550 O 54.0656 -0.066099 1.94388 0
M  V30 551 C 54.3486 3.37422 1.2577 0
M  V30 552 C 54.2016 4.49369 0.196891 0
M  V30 553 C 55.5206 3.82628 2.17449 0
M  V30 554 H 52.6396 0.699171 0.233085 0
M  V30 555 H 55.2816 1.89779 -0.0915694 0
M  V30 556 H 53.4316 3.39669 1.88566 0
M  V30 557 H 55.1036 4.59254 -0.433962 0
M  V30 558 H 53.3466 4.31168 -0.477137 0
M  V30 559 H 54.0176 5.47978 0.665124 0
M  V30 560 H 56.4936 3.82145 1.64634 0
M  V30 561 H 55.3696 4.84883 2.57254 0
M  V30 562 H 55.6306 3.18376 3.0674 0
M  V30 563 N 54.6897 -0.239769 1.55765 0
M  V30 564 C 55.9377 -0.964892 1.77579 0
M  V30 565 C 56.2587 -1.85582 0.598699 0
M  V30 566 O 55.5287 -1.92075 -0.385226 0
M  V30 567 H 54.1087 -0.359265 0.654933 0
M  V30 568 H 56.7707 -0.256001 1.93211 0
M  V30 569 H 55.8667 -1.58243 2.69009 0
M  V30 570 N 56.1678 -1.49265 -0.50573 0
M  V30 571 C 57.4158 -1.582 -1.25766 0
M  V30 572 C 57.7368 -0.268482 -1.93143 0
M  V30 573 O 57.0068 0.711833 -1.8251 0
M  V30 574 H 55.5868 -0.582873 -0.467191 0
M  V30 575 H 58.2488 -1.85865 -0.586525 0
M  V30 576 H 57.3448 -2.37563 -2.02412 0
M  V30 577 N 57.6459 0.756429 -1.3826 0
M  V30 578 C 58.5779 1.87971 -1.31147 0
M  V30 579 C 59.5909 1.61248 -0.224239 0
M  V30 580 O 60.7799 1.71881 -0.481581 0
M  V30 581 C 57.8799 3.23545 -1.00857 0
M  V30 582 C 57.0529 3.77794 -2.20432 0
M  V30 583 C 56.1119 4.91877 -1.86931 0
M  V30 584 O 55.1379 5.06659 -2.59395 0
M  V30 585 N 56.3399 5.74643 -0.822568 0
M  V30 586 H 59.1049 1.94585 -2.2794 0
M  V30 587 H 56.6659 0.936234 -1.32084 0
M  V30 588 H 58.6579 3.97403 -0.765021 0
M  V30 589 H 57.2279 3.12335 -0.128687 0
M  V30 590 H 56.4479 2.95534 -2.6087 0
M  V30 591 H 57.7359 4.10771 -3.00241 0
M  V30 592 H 57.1339 5.65266 -0.221575 0
M  V30 593 H 55.6909 6.48661 -0.638899 0
M  V30 594 N 59.124 1.23083 0.984299 0
M  V30 595 C 60.535 1.05609 1.5396 0
M  V30 596 C 60.886 -0.377793 1.92528 0
M  V30 597 O 60.011 -1.26398 1.75649 0
M  V30 598 C 60.606 1.91087 2.7977 0
M  V30 599 C 59.165 1.77885 3.31713 0
M  V30 600 C 58.312 1.87028 2.04733 0
M  V30 601 H 61.263 1.36802 0.804419 0
M  V30 602 H 61.284 1.43336 3.5247 0
M  V30 603 H 60.796 2.9544 2.51668 0
M  V30 604 H 58.897 0.762995 3.64704 0
M  V30 605 H 59.01 2.61047 4.01735 0
M  V30 606 H 57.374 1.30565 2.18689 0
M  V30 607 H 58.157 2.92929 1.79017 0
M  V30 608 N 60.6021 -1.18246 1.0419 0
M  V30 609 C 61.8511 -1.87588 0.741194 0
M  V30 610 C 62.1641 -1.81303 -0.734066 0
M  V30 611 O 63.3701 -2.46019 -1.14834 0
M  V30 612 C 61.8261 -3.36538 1.27555 0
M  V30 613 C 61.4341 -3.51349 2.77953 0
M  V30 614 C 63.1781 -4.11273 1.05143 0
M  V30 615 C 61.0851 -4.94265 3.2474 0
M  V30 616 H 60.0151 -0.702622 0.273565 0
M  V30 617 H 62.6661 -1.33601 1.25789 0
M  V30 618 H 61.0481 -3.9 0.686703 0
M  V30 619 H 62.2221 -3.08153 3.42605 0
M  V30 620 H 60.5371 -2.90022 2.98791 0
M  V30 621 H 63.1341 -5.16689 1.37611 0
M  V30 622 H 63.4771 -4.16298 -0.0112774 0
M  V30 623 H 64.0101 -3.63987 1.60495 0
M  V30 624 H 60.7491 -4.94408 4.30396 0
M  V30 625 H 60.2691 -5.38172 2.64823 0
M  V30 626 H 61.9481 -5.62987 3.18834 0
M  V30 627 N 62.0802 -0.821533 -1.34494 0
M  V30 628 C 63.3262 -0.409552 -1.98622 0
M  V30 629 C 63.6592 1.0244 -1.64984 0
M  V30 630 O 62.9342 1.71325 -0.920758 0
M  V30 631 C 63.2172 -0.610458 -3.54888 0
M  V30 632 C 63.0702 -2.09043 -3.98273 0
M  V30 633 C 64.3892 -0.0455379 -4.40076 0
M  V30 634 H 61.5082 -0.15028 -0.721516 0
M  V30 635 H 64.1502 -1.03384 -1.59411 0
M  V30 636 H 62.3002 -0.079044 -3.8842 0
M  V30 637 H 63.9722 -2.68537 -3.75081 0
M  V30 638 H 62.2152 -2.58139 -3.48635 0
M  V30 639 H 62.8862 -2.18182 -5.07051 0
M  V30 640 H 65.3622 -0.499557 -4.1309 0
M  V30 641 H 64.2382 -0.215922 -5.48475 0
M  V30 642 H 64.4992 1.04939 -4.29465 0
M  V30 643 N 63.5583 1.46682 -0.576371 0
M  V30 644 C 64.8053 2.02412 -0.0595339 0
M  V30 645 C 65.1333 1.44859 1.29793 0
M  V30 646 O 64.3883 0.601099 1.8624 0
M  V30 647 C 64.6873 3.57345 0.062886 0
M  V30 648 C 64.3533 4.33908 -1.22616 0
M  V30 649 C 63.0153 4.54544 -1.57933 0
M  V30 650 C 65.3673 4.77919 -2.07948 0
M  V30 651 C 62.6953 5.16444 -2.78393 0
M  V30 652 C 65.0473 5.41149 -3.27629 0
M  V30 653 C 63.7113 5.60014 -3.63236 0
M  V30 654 H 62.9813 0.74068 -0.021785 0
M  V30 655 H 65.6283 1.76128 -0.751735 0
M  V30 656 H 63.9333 3.82729 0.838178 0
M  V30 657 H 65.6303 3.98136 0.478439 0
M  V30 658 H 62.2203 4.18138 -0.941202 0
M  V30 659 H 66.4043 4.61738 -1.81967 0
M  V30 660 H 61.6603 5.29242 -3.06126 0
M  V30 661 H 65.8343 5.74211 -3.94023 0
M  V30 662 H 63.4613 6.07748 -4.56669 0
M  V30 663 N 65.0364 0.313813 1.54444 0
M  V30 664 C 66.3134 -0.345447 1.92525 0
M  V30 665 C 66.6934 -1.70667 1.24242 0
M  V30 666 O 66.0414 -2.25273 0.382654 0
M  V30 667 C 66.2514 -0.44737 3.46121 0
M  V30 668 C 67.5994 -0.712238 4.18584 0
M  V30 669 O 68.6234 -0.530678 3.52225 0
M  V30 670 O 67.4824 -1.06183 5.36085 0
M  V30 671 H 64.5764 -0.195407 0.803583 0
M  V30 672 H 67.1224 0.362813 1.65776 0
M  V30 673 H 65.8944 0.509043 3.87975 0
M  V30 674 H 65.5174 -1.20359 3.78945 0
M  V30 675 N 66.5145 -1.57545 0.0417849 0
M  V30 676 C 67.9305 -1.56467 -0.314704 0
M  V30 677 C 68.1305 -1.04859 -1.72066 0
M  V30 678 O 67.1865 -0.700983 -2.42575 0
M  V30 679 C 68.4995 -3.00317 -0.15174 0
M  V30 680 C 70.0475 -3.12201 -0.223553 0
M  V30 681 C 70.5225 -4.57913 -0.0892295 0
M  V30 682 N 72.0135 -4.6297 -0.145808 0
M  V30 683 C 72.7485 -5.73362 -0.0658459 0
M  V30 684 N 72.2445 -6.92769 0.0659282 0
M  V30 685 N 74.0375 -5.6197 -0.12075 0
M  V30 686 H 66.1885 -1.89416 0.961014 0
M  V30 687 H 68.4515 -0.871862 0.372237 0
M  V30 688 H 68.1575 -3.42073 0.817254 0
M  V30 689 H 68.0315 -3.65892 -0.916692 0
M  V30 690 H 70.4185 -2.70349 -1.18301 0
M  V30 691 H 70.4995 -2.49323 0.571994 0
M  V30 692 H 70.1435 -5.00448 0.866867 0
M  V30 693 H 70.0735 -5.18786 -0.903802 0
M  V30 694 H 72.5645 -3.7709 -0.247286 0
M  V30 695 H 72.8775 -7.72707 0.119905 0
M  V30 696 H 71.2225 -6.94927 0.100885 0
M  V30 697 H 74.4135 -4.67572 -0.222187 0
M  V30 698 H 74.5865 -6.47977 -0.0549735 0
M  V30 699 N 67.9926 0.231505 -1.5589 0
M  V30 700 C 69.2386 0.95877 -1.78705 0
M  V30 701 C 69.5716 1.8438 -0.609725 0
M  V30 702 O 68.8466 1.90521 0.391426 0
M  V30 703 C 69.1296 1.8062 -3.11526 0
M  V30 704 C 68.9826 0.948328 -4.39689 0
M  V30 705 C 70.3016 2.78585 -3.40703 0
M  V30 706 H 67.4206 0.347129 -0.650131 0
M  V30 707 H 70.0626 0.228259 -1.88624 0
M  V30 708 H 68.2126 2.42902 -3.03201 0
M  V30 709 H 69.8846 0.343016 -4.60023 0
M  V30 710 H 68.1276 0.253314 -4.3306 0
M  V30 711 H 68.7986 1.57543 -5.29041 0
M  V30 712 H 71.2746 2.26439 -3.49091 0
M  V30 713 H 70.1506 3.34988 -4.34826 0
M  V30 714 H 70.4116 3.55825 -2.62375 0
M  V30 715 N 69.4707 1.49531 0.497807 0
M  V30 716 C 70.4177 1.66436 1.59899 0
M  V30 717 C 71.3877 0.505793 1.58212 0
M  V30 718 O 72.5727 0.733202 1.7615 0
M  V30 719 C 69.7127 1.7399 2.98029 0
M  V30 720 C 68.8257 3.01172 3.09708 0
M  V30 721 C 67.9607 2.99686 4.38591 0
M  V30 722 C 66.9997 4.21434 4.43914 0
M  V30 723 N 66.1367 4.1784 5.64229 0
M  V30 724 H 70.9767 2.60459 1.44793 0
M  V30 725 H 68.5137 1.29137 0.704423 0
M  V30 726 H 70.4717 1.76352 3.78095 0
M  V30 727 H 69.1017 0.834301 3.11832 0
M  V30 728 H 68.1537 3.08408 2.22685 0
M  V30 729 H 69.4657 3.91165 3.09502 0
M  V30 730 H 68.6197 3.00628 5.2698 0
M  V30 731 H 67.3587 2.07477 4.41367 0
M  V30 732 H 66.3637 4.20733 3.53926 0
M  V30 733 H 67.5887 5.14839 4.42851 0
M  V30 734 H 65.5347 3.28469 5.67841 0
M  V30 735 H 65.4517 5.01571 5.65652 0
M  V30 736 H 66.7197 4.22889 6.54817 0
M  V30 737 N 70.9488 -0.749086 1.3866 0
M  V30 738 C 72.2258 -1.4992 1.25632 0
M  V30 739 C 72.6058 -2.10633 -0.140317 0
M  V30 740 O 71.9538 -1.97437 -1.15025 0
M  V30 741 C 72.1638 -2.56195 2.36992 0
M  V30 742 C 73.5118 -3.22972 2.75634 0
M  V30 743 O 74.5358 -2.66502 2.36337 0
M  V30 744 O 73.3948 -4.25122 3.43415 0
M  V30 745 H 70.4888 -0.665067 0.491544 0
M  V30 746 H 73.0348 -0.784113 1.50498 0
M  V30 747 H 71.8068 -2.09612 3.30422 0
M  V30 748 H 71.4298 -3.35279 2.13714 0
M  V30 749 N 72.4269 -1.23603 -0.977757 0
M  V30 750 C 73.3899 -1.02069 -2.05218 0
M  V30 751 C 74.3899 0.0184305 -1.60789 0
M  V30 752 O 75.5799 -0.221569 -1.72785 0
M  V30 753 C 72.7119 -0.544926 -3.36517 0
M  V30 754 H 73.9049 -1.9742 -2.25755 0
M  V30 755 H 71.4579 -1.05684 -1.15155 0
M  V30 756 H 72.1929 0.412241 -3.21669 0
M  V30 757 H 71.9779 -1.2948 -3.70105 0
M  V30 758 H 73.4679 -0.414985 -4.15533 0
M  V30 759 N 73.905 1.17692 -1.04816 0
M  V30 760 C 75.135 1.91508 -0.775128 0
M  V30 761 C 75.543 1.76844 0.67253 0
M  V30 762 O 74.886 1.10057 1.47082 0
M  V30 763 C 74.948 3.43167 -1.0713 0
M  V30 764 C 74.612 3.81612 -2.51438 0
M  V30 765 C 75.609 3.84772 -3.49638 0
M  V30 766 C 73.294 4.12687 -2.86348 0
M  V30 767 C 75.288 4.18469 -4.80794 0
M  V30 768 C 72.975 4.46053 -4.17708 0
M  V30 769 C 73.973 4.48921 -5.14741 0
M  V30 770 O 73.661 4.81504 -6.43746 0
M  V30 771 H 73.393 0.614575 -0.281555 0
M  V30 772 H 75.947 1.50206 -1.40098 0
M  V30 773 H 74.177 3.84745 -0.388342 0
M  V30 774 H 75.866 3.98239 -0.784883 0
M  V30 775 H 76.632 3.60893 -3.24008 0
M  V30 776 H 72.511 4.09627 -2.11486 0
M  V30 777 H 76.055 4.20623 -5.56527 0
M  V30 778 H 71.952 4.69393 -4.43103 0
M  V30 779 H 72.72 4.99377 -6.4851 0
M  V30 780 N 75.3831 0.828654 1.34056 0
M  V30 781 C 76.3461 0.259927 2.27721 0
M  V30 782 C 77.3461 -0.565478 1.50529 0
M  V30 783 O 78.5361 -0.38075 1.69988 0
M  V30 784 C 75.6681 -0.634944 3.34935 0
M  V30 785 H 76.8611 1.0863 2.79534 0
M  V30 786 H 74.4141 0.600951 1.44285 0
M  V30 787 H 75.1491 -1.48416 2.88346 0
M  V30 788 H 74.9341 -0.0444999 3.92075 0
M  V30 789 H 76.4241 -1.02648 4.04788 0
M  V30 790 N 76.8612 -1.46375 0.584142 0
M  V30 791 C 78.1072 -2.03248 0.0787103 0
M  V30 792 C 78.4622 -1.44737 -1.26763 0
M  V30 793 O 77.7552 -0.603625 -1.81843 0
M  V30 794 C 77.9492 -3.57373 -0.0439342 0
M  V30 795 C 77.7782 -4.30831 1.28897 0
M  V30 796 C 76.5482 -4.69683 1.8635 0
M  V30 797 C 78.7462 -4.64278 2.21248 0
M  V30 798 N 76.7282 -5.27898 3.13365 0
M  V30 799 C 78.0992 -5.23078 3.32851 0
M  V30 800 C 80.1542 -4.46209 2.20911 0
M  V30 801 C 78.8572 -5.65715 4.44251 0
M  V30 802 C 80.8832 -4.89864 3.31341 0
M  V30 803 C 80.2452 -5.48736 4.41665 0
M  V30 804 H 76.3442 -0.778714 0.0716144 0
M  V30 805 H 78.9282 -1.78509 0.777355 0
M  V30 806 H 77.0992 -3.81823 -0.711749 0
M  V30 807 H 78.8312 -4.00892 -0.553881 0
M  V30 808 H 75.5862 -4.52488 1.39826 0
M  V30 809 H 76.0102 -5.61525 3.78178 0
M  V30 810 H 80.6522 -4.00027 1.36888 0
M  V30 811 H 78.3702 -6.10875 5.29015 0
M  V30 812 H 81.9562 -4.77634 3.322 0
M  V30 813 H 80.8362 -5.81898 5.25704 0
M  V30 814 N 78.3393 -0.321999 -1.54275 0
M  V30 815 C 79.6163 0.335232 -1.92706 0
M  V30 816 C 79.9963 1.70006 -1.25145 0
M  V30 817 O 79.3443 2.25067 -0.394596 0
M  V30 818 C 79.5543 0.429008 -3.46353 0
M  V30 819 C 80.9023 0.690029 -4.18956 0
M  V30 820 O 81.9263 0.511992 -3.52501 0
M  V30 821 O 80.7853 1.03338 -5.36641 0
M  V30 822 H 77.8793 0.191143 -0.804608 0
M  V30 823 H 80.4253 -0.3716 -1.65581 0
M  V30 824 H 79.1973 -0.529611 -3.87699 0
M  V30 825 H 78.8203 1.18348 -3.79578 0
M  V30 826 N 79.8174 1.5752 -0.0501392 0
M  V30 827 C 81.0634 1.92936 0.624798 0
M  V30 828 C 81.3964 0.928685 1.70555 0
M  V30 829 O 80.6714 -0.0454779 1.94447 0
M  V30 830 C 80.9544 3.38737 1.22185 0
M  V30 831 C 80.8074 4.49552 0.149218 0
M  V30 832 C 82.1264 3.84913 2.13378 0
M  V30 833 H 79.2454 0.701604 0.225657 0
M  V30 834 H 81.8874 1.89671 -0.111693 0
M  V30 835 H 80.0374 3.4165 1.84953 0
M  V30 836 H 81.7094 4.58768 -0.482648 0
M  V30 837 H 79.9524 4.30638 -0.522841 0
M  V30 838 H 80.6234 5.48653 0.606966 0
M  V30 839 H 83.0994 3.8387 1.60572 0
M  V30 840 H 81.9754 4.87584 2.52097 0
M  V30 841 H 82.2364 3.21611 3.03346 0
M  V30 842 N 81.2955 -0.223234 1.56011 0
M  V30 843 C 82.5725 -0.972108 1.69733 0
M  V30 844 C 82.9525 -2.02485 0.59691 0
M  V30 845 O 82.3005 -2.25037 -0.396324 0
M  V30 846 C 82.5105 -1.58407 3.10979 0
M  V30 847 C 83.8585 -2.07696 3.70334 0
M  V30 848 O 84.8825 -1.68304 3.1393 0
M  V30 849 O 83.7415 -2.80096 4.69264 0
M  V30 850 H 80.8355 -0.453993 0.691245 0
M  V30 851 H 83.3815 -0.215149 1.68331 0
M  V30 852 H 82.1535 -0.823831 3.82529 0
M  V30 853 H 81.7765 -2.40661 3.16493 0
M  V30 854 N 82.7736 -1.49793 -0.48987 0
M  V30 855 C 84.0216 -1.59525 -1.24081 0
M  V30 856 C 84.3426 -0.288953 -1.92847 0
M  V30 857 O 83.6126 0.692436 -1.83254 0
M  V30 858 H 82.1926 -0.587796 -0.460983 0
M  V30 859 H 84.8546 -1.86477 -0.566778 0
M  V30 860 H 83.9506 -2.39696 -1.99881 0
M  V30 861 N 84.2517 0.741722 -1.39055 0
M  V30 862 C 85.1997 1.87702 -1.3737 0
M  V30 863 C 86.1937 1.67427 -0.257812 0
M  V30 864 O 87.3997 1.7485 -0.427489 0
M  V30 865 H 83.7747 0.617757 -0.428812 0
M  V30 866 H 85.7457 1.86239 -2.33147 0
M  V30 867 C 84.4947 3.25315 -1.22741 0
M  V30 868 H 83.8177 3.41509 -2.07873 0
M  V30 869 H 85.2577 4.04964 -1.25618 0
M  V30 870 C 83.7167 3.36838 0.0647316 0
M  V30 871 O 84.2467 3.88073 1.03741 0
M  V30 872 N 82.4527 2.90329 0.125544 0
M  V30 873 H 81.9997 2.48823 -0.666682 0
M  V30 874 H 81.9577 2.98418 0.989639 0
M  V30 875 N 85.7298 1.2412 0.971189 0
M  V30 876 C 87.1458 1.00584 1.23916 0
M  V30 877 C 87.3458 -0.287481 1.99439 0
M  V30 878 O 86.4018 -1.00454 2.31658 0
M  V30 879 C 87.7148 2.21864 2.0297 0
M  V30 880 C 89.2628 2.26452 2.16076 0
M  V30 881 C 89.7378 3.47343 2.98524 0
M  V30 882 N 91.2288 3.47639 3.06107 0
M  V30 883 C 91.9638 4.37837 3.70251 0
M  V30 884 N 91.4598 5.38286 4.36142 0
M  V30 885 N 93.2528 4.25558 3.67228 0
M  V30 886 H 85.4038 2.07236 0.465499 0
M  V30 887 H 87.6668 0.909236 0.268315 0
M  V30 888 H 87.3728 3.15771 1.54861 0
M  V30 889 H 87.2468 2.23698 3.03709 0
M  V30 890 H 89.6338 1.33078 2.6339 0
M  V30 891 H 89.7148 2.28645 1.14696 0
M  V30 892 H 89.3588 4.41029 2.51905 0
M  V30 893 H 89.2888 3.42393 4.00093 0
M  V30 894 H 91.7798 2.74966 2.59233 0
M  V30 895 H 92.0928 6.03352 4.82894 0
M  V30 896 H 90.4378 5.42176 4.34822 0
M  V30 897 H 93.6288 3.46322 3.14927 0
M  V30 898 H 93.8018 4.96054 4.16935 0
M  V30 899 N 87.2079 -1.17134 1.05439 0
M  V30 900 C 88.4379 -1.91094 0.785274 0
M  V30 901 C 88.8459 -1.77198 -0.663142 0
M  V30 902 O 88.1889 -1.10835 -1.46497 0
M  V30 903 C 88.2509 -3.42594 1.08949 0
M  V30 904 C 87.9149 -3.80274 2.53458 0
M  V30 905 C 88.9119 -3.82912 3.51673 0
M  V30 906 C 86.5969 -4.11162 2.88532 0
M  V30 907 C 88.5909 -4.15913 4.83006 0
M  V30 908 C 86.2779 -4.43831 4.20068 0
M  V30 909 C 87.2759 -4.46185 5.17115 0
M  V30 910 O 86.9639 -4.78083 6.46291 0
M  V30 911 H 86.6959 -0.613073 0.284811 0
M  V30 912 H 89.2499 -1.49461 1.40893 0
M  V30 913 H 87.4799 -3.84534 0.408741 0
M  V30 914 H 89.1689 -3.97817 0.805991 0
M  V30 915 H 89.9349 -3.5917 3.25917 0
M  V30 916 H 85.8139 -4.085 2.13656 0
M  V30 917 H 89.3579 -4.17665 5.5875 0
M  V30 918 H 85.2549 -4.67037 4.45586 0
M  V30 919 H 86.0229 -4.9593 6.51149 0
M  V30 920 N 88.686 -0.835752 -1.33615 0
M  V30 921 C 89.935 -0.426289 -1.97144 0
M  V30 922 C 90.248 1.01912 -1.66953 0
M  V30 923 O 91.454 1.53311 -2.24072 0
M  V30 924 C 89.91 -0.711321 -3.52801 0
M  V30 925 C 89.518 -2.1712 -3.91871 0
M  V30 926 C 91.262 -0.368654 -4.22896 0
M  V30 927 C 89.169 -2.40044 -5.40493 0
M  V30 928 H 88.099 -0.15567 -0.737755 0
M  V30 929 H 90.75 -1.0239 -1.52278 0
M  V30 930 H 89.132 -0.0433766 -3.95976 0
M  V30 931 H 90.306 -2.87936 -3.59763 0
M  V30 932 H 88.621 -2.47654 -3.34749 0
M  V30 933 H 91.218 -0.517601 -5.32189 0
M  V30 934 H 91.561 0.688078 -4.10574 0
M  V30 935 H 92.094 -0.991702 -3.8524 0
M  V30 936 H 88.833 -3.44271 -5.57815 0
M  V30 937 H 88.353 -1.73785 -5.74072 0
M  V30 938 H 90.032 -2.23042 -6.0734 0
M  V30 939 N 90.1641 1.46063 -0.591896 0
M  V30 940 C 91.4411 1.95595 -0.0137119 0
M  V30 941 C 91.8211 1.5345 1.4497 0
M  V30 942 O 91.1691 0.789543 2.14426 0
M  V30 943 C 91.3791 3.48453 -0.195373 0
M  V30 944 C 92.7271 4.24546 -0.0679765 0
M  V30 945 O 93.7511 3.55982 -0.124681 0
M  V30 946 O 92.6101 5.46467 0.0600579 0
M  V30 947 H 89.7041 0.825795 0.0446279 0
M  V30 948 H 92.2501 1.56303 -0.660859 0
M  V30 949 H 91.0221 3.72045 -1.21235 0
M  V30 950 H 90.6451 3.94597 0.487775 0
M  V30 951 N 91.6422 0.330177 1.54103 0
M  V30 952 C 92.8722 -0.271784 2.04805 0
M  V30 953 C 93.2802 -1.45816 1.20559 0
M  V30 954 O 92.6232 -1.82247 0.2306 0
M  V30 955 C 92.6852 -0.763238 3.51305 0
M  V30 956 C 92.3492 0.301705 4.56003 0
M  V30 957 C 93.3462 1.13999 5.07248 0
M  V30 958 C 91.0312 0.451793 5.00264 0
M  V30 959 C 93.0252 2.11402 6.01322 0
M  V30 960 C 90.7122 1.42924 5.94151 0
M  V30 961 C 91.7102 2.25882 6.44567 0
M  V30 962 O 91.3982 3.21965 7.3661 0
M  V30 963 H 91.1302 -0.058693 0.673447 0
M  V30 964 H 93.6842 0.476395 1.99799 0
M  V30 965 H 91.9142 -1.56244 3.5373 0
M  V30 966 H 93.6032 -1.28427 3.85047 0
M  V30 967 H 94.3692 1.03505 4.73827 0
M  V30 968 H 90.2482 -0.184044 4.60632 0
M  V30 969 H 93.7922 2.76192 6.40596 0
M  V30 970 H 89.6892 1.53479 6.26988 0
M  V30 971 H 90.4572 3.17281 7.54503 0
M  V30 972 N 93.1203 -1.57491 0.0584922 0
M  V30 973 C 94.3663 -1.93264 -0.614558 0
M  V30 974 C 94.6993 -0.937717 -1.7006 0
M  V30 975 O 93.9743 0.0351652 -1.94468 0
M  V30 976 C 94.2573 -3.3938 -1.20386 0
M  V30 977 C 94.1103 -4.49625 -0.125375 0
M  V30 978 C 95.4293 -3.86039 -2.11334 0
M  V30 979 H 92.5483 -0.702791 -0.221933 0
M  V30 980 H 95.1903 -1.8961 0.12175 0
M  V30 981 H 93.3403 -3.42626 -1.83139 0
M  V30 982 H 95.0123 -4.58506 0.506971 0
M  V30 983 H 93.2553 -4.30354 0.545672 0
M  V30 984 H 93.9263 -5.48967 -0.577861 0
M  V30 985 H 96.4023 -3.84716 -1.58534 0
M  V30 986 H 95.2783 -4.88914 -2.49507 0
M  V30 987 H 95.5393 -3.23215 -3.01636 0
M  V30 988 N 94.5984 0.214957 -1.56127 0
M  V30 989 C 95.8464 0.936518 -1.79091 0
M  V30 990 C 96.1674 1.84606 -0.628148 0
M  V30 991 O 95.4374 1.92664 0.35462 0
M  V30 992 H 94.0174 0.3488 -0.660566 0
M  V30 993 H 96.6794 0.22523 -1.93594 0
M  V30 994 H 95.7754 1.53943 -2.71492 0
M  V30 995 N 96.0765 1.50051 0.48192 0
M  V30 996 C 97.3045 1.64237 1.25832 0
M  V30 997 C 97.7195 0.321336 1.86045 0
M  V30 998 O 97.0765 -0.695478 1.68729 0
M  V30 999 C 97.1275 2.72548 2.37487 0
M  V30 1000 O 96.8485 3.99529 1.79745 0
M  V30 1001 C 98.3495 2.9761 3.28547 0
M  V30 1002 H 95.5695 0.55237 0.380957 0
M  V30 1003 H 98.1135 1.96207 0.576467 0
M  V30 1004 H 96.2685 2.43303 3.01467 0
M  V30 1005 H 96.6825 4.59342 2.5319 0
M  V30 1006 H 98.1565 3.77084 4.03127 0
M  V30 1007 H 98.6335 2.0826 3.86684 0
M  V30 1008 H 99.2395 3.28345 2.70314 0
M  V30 1009 N 97.5546 -0.734337 1.39446 0
M  V30 1010 C 98.8006 -1.49505 1.37913 0
M  V30 1011 C 99.1556 -1.92384 -0.0248416 0
M  V30 1012 O 98.4486 -1.6395 -0.991506 0
M  V30 1013 C 98.6426 -2.74711 2.28623 0
M  V30 1014 C 98.4716 -2.44075 3.777 0
M  V30 1015 C 97.2416 -2.36338 4.46623 0
M  V30 1016 C 99.4396 -2.09574 4.69663 0
M  V30 1017 N 97.4216 -1.9818 5.81032 0
M  V30 1018 C 98.7926 -1.81865 5.92727 0
M  V30 1019 C 100.848 -1.96048 4.57678 0
M  V30 1020 C 99.5506 -1.41992 7.05146 0
M  V30 1021 C 101.577 -1.57579 5.7002 0
M  V30 1022 C 100.939 -1.30754 6.92158 0
M  V30 1023 H 97.0376 -0.545896 0.55993 0
M  V30 1024 H 99.6216 -0.853373 1.75002 0
M  V30 1025 H 97.7926 -3.36657 1.93692 0
M  V30 1026 H 99.5246 -3.40916 2.18078 0
M  V30 1027 H 96.2796 -2.53456 4.00071 0
M  V30 1028 H 96.7036 -1.81691 6.52163 0
M  V30 1029 H 101.346 -2.15455 3.63784 0
M  V30 1030 H 99.0636 -1.21327 7.9894 0
M  V30 1031 H 102.65 -1.47718 5.62735 0
M  V30 1032 H 101.53 -1.01432 7.77612 0
M  V30 1033 N 99.0327 -1.24633 -0.964593 0
M  V30 1034 C 100.281 -1.08573 -1.70459 0
M  V30 1035 C 100.602 0.375655 -1.91347 0
M  V30 1036 O 99.8717 1.26779 -1.49345 0
M  V30 1037 H 98.4517 -0.398784 -0.631649 0
M  V30 1038 H 101.114 -1.56601 -1.16026 0
M  V30 1039 H 100.21 -1.58623 -2.68785 0
M  V30 1040 N 100.511 1.16574 -1.06058 0
M  V30 1041 C 101.922 1.68662 -0.800632 0
M  V30 1042 C 102.273 1.84184 0.67608 0
M  V30 1043 O 101.398 1.53568 1.52466 0
M  V30 1044 C 101.993 3.06356 -1.44676 0
M  V30 1045 C 100.552 3.55575 -1.23465 0
M  V30 1046 C 99.6988 2.31616 -1.52477 0
M  V30 1047 H 102.65 1.00969 -1.22438 0
M  V30 1048 H 102.671 3.70636 -0.860788 0
M  V30 1049 H 102.183 2.95027 -2.52152 0
M  V30 1050 H 100.284 3.72167 -0.179527 0
M  V30 1051 H 100.397 4.37812 -1.94571 0
M  V30 1052 H 98.7608 2.36512 -0.945209 0
M  V30 1053 H 99.5438 2.22887 -2.61106 0
M  V30 1054 N 101.989 0.842826 1.3317 0
M  V30 1055 C 102.952 0.284065 2.27433 0
M  V30 1056 C 103.952 -0.54948 1.5112 0
M  V30 1057 O 105.142 -0.362699 1.70382 0
M  V30 1058 C 102.274 -0.599384 3.35589 0
M  V30 1059 H 103.467 1.11589 2.78366 0
M  V30 1060 H 101.02 0.616221 1.4364 0
M  V30 1061 H 101.755 -1.45349 2.89904 0
M  V30 1062 H 101.54 -0.00291266 3.921 0
M  V30 1063 H 103.03 -0.983488 4.05854 0
M  V30 1064 N 103.467 -1.45747 0.599634 0
M  V30 1065 C 104.716 -2.01502 0.0893511 0
M  V30 1066 C 105.029 -1.4748 -1.28488 0
M  V30 1067 O 106.235 -1.95161 -1.88745 0
M  V30 1068 C 104.691 -3.59735 0.109082 0
M  V30 1069 C 104.299 -4.22754 1.48267 0
M  V30 1070 C 106.043 -4.23085 -0.346374 0
M  V30 1071 C 103.95 -5.73115 1.45921 0
M  V30 1072 H 102.88 -0.753417 0.0296347 0
M  V30 1073 H 105.531 -1.67303 0.753788 0
M  V30 1074 H 103.913 -3.91087 -0.621854 0
M  V30 1075 H 105.087 -4.02987 2.23468 0
M  V30 1076 H 103.402 -3.71567 1.87955 0
M  V30 1077 H 105.999 -5.33327 -0.38298 0
M  V30 1078 H 106.342 -3.93201 -1.36743 0
M  V30 1079 H 106.875 -3.9642 0.331038 0
M  V30 1080 H 103.614 -6.07685 2.45762 0
M  V30 1081 H 103.134 -5.95097 0.749665 0
M  V30 1082 H 104.813 -6.3616 1.17941 0
M  V30 1083 N 104.945 -0.338344 -1.53925 0
M  V30 1084 C 106.185 0.260168 -2.02737 0
M  V30 1085 C 106.549 1.48181 -1.22092 0
M  V30 1086 O 107.75 2.15416 -1.60777 0
M  V30 1087 C 106.021 0.571627 -3.52799 0
M  V30 1088 S 107.58 1.14769 -4.23525 0
M  V30 1089 H 104.398 0.077791 -0.706732 0
M  V30 1090 H 107 -0.474899 -1.89644 0
M  V30 1091 H 105.704 -0.325392 -4.09108 0
M  V30 1092 H 105.235 1.3365 -3.70002 0
M  V30 1093 H 107.25 2.43372 -4.32417 0
M  V30 1094 N 106.423 1.57458 -0.0668435 0
M  V30 1095 C 107.671 1.92919 0.602214 0
M  V30 1096 C 107.992 0.947215 1.70449 0
M  V30 1097 O 107.262 -0.00544117 1.95899 0
M  V30 1098 H 105.842 0.71217 0.22544 0
M  V30 1099 H 108.504 1.94508 -0.123535 0
M  V30 1100 H 107.6 2.94589 1.03073 0
M  V30 1101 N 107.901 -0.206675 1.56239 0
M  V30 1102 C 108.851 -1.26 1.90021 0
M  V30 1103 C 109.835 -1.41566 0.764721 0
M  V30 1104 O 111.027 -1.44131 1.02739 0
M  V30 1105 C 108.156 -2.6073 2.23326 0
M  V30 1106 C 107.242 -2.49005 3.43304 0
M  V30 1107 N 107.633 -2.06946 4.61527 0
M  V30 1108 C 105.931 -2.79927 3.47213 0
M  V30 1109 C 106.632 -2.06832 5.43687 0
M  V30 1110 N 105.608 -2.47892 4.83788 0
M  V30 1111 H 109.41 -0.925955 2.78932 0
M  V30 1112 H 106.924 -0.415172 1.57003 0
M  V30 1113 H 108.921 -3.36798 2.45708 0
M  V30 1114 H 107.581 -2.94968 1.35735 0
M  V30 1115 H 108.592 -1.77839 4.86409 0
M  V30 1116 H 105.269 -3.18438 2.70006 0
M  V30 1117 H 106.659 -1.76312 6.48354 0
M  V30 1118 N 109.379 -1.50304 -0.473955 0
M  V30 1119 C 110.342 -1.6841 -1.55469 0
M  V30 1120 C 111.342 -0.554905 -1.50922 0
M  V30 1121 O 112.532 -0.821882 -1.53593 0
M  V30 1122 C 109.664 -1.70667 -2.95102 0
M  V30 1123 H 110.857 -2.64828 -1.40733 0
M  V30 1124 H 108.41 -1.39742 -0.700132 0
M  V30 1125 H 109.145 -0.75932 -3.15285 0
M  V30 1126 H 108.93 -2.52698 -2.9981 0
M  V30 1127 H 110.42 -1.8664 -3.73571 0
M  V30 1128 N 110.857 0.726932 -1.39834 0
M  V30 1129 C 111.807 1.83232 -1.35683 0
M  V30 1130 C 112.791 1.59155 -0.236295 0
M  V30 1131 O 113.983 1.70522 -0.474488 0
M  V30 1132 C 111.112 3.21246 -1.21062 0
M  V30 1133 C 110.198 3.51125 -2.37849 0
M  V30 1134 N 110.589 3.51889 -3.63329 0
M  V30 1135 C 108.887 3.81527 -2.30982 0
M  V30 1136 C 109.588 3.79791 -4.40606 0
M  V30 1137 N 108.564 3.97971 -3.70297 0
M  V30 1138 H 112.366 1.8214 -2.30656 0
M  V30 1139 H 109.88 0.925545 -1.33444 0
M  V30 1140 H 111.877 4.00387 -1.16171 0
M  V30 1141 H 110.537 3.23572 -0.270458 0
M  V30 1142 H 111.548 3.33008 -3.96643 0
M  V30 1143 H 108.225 3.91411 -1.45272 0
M  V30 1144 H 109.615 3.86783 -5.49408 0
M  V30 1145 N 112.336 1.25143 0.95797 0
M  V30 1146 C 113.747 1.08851 1.51685 0
M  V30 1147 C 114.098 -0.33687 1.93286 0
M  V30 1148 O 113.223 -1.22644 1.7829 0
M  V30 1149 C 113.818 1.96978 2.75654 0
M  V30 1150 C 112.377 1.84881 3.27866 0
M  V30 1151 C 111.524 1.91329 2.0072 0
M  V30 1152 H 114.475 1.38478 0.77522 0
M  V30 1153 H 114.496 1.5078 3.4935 0
M  V30 1154 H 114.008 3.00712 2.45345 0
M  V30 1155 H 112.109 0.840182 3.63004 0
M  V30 1156 H 112.222 2.6951 3.96107 0
M  V30 1157 H 110.586 1.35174 2.15871 0
M  V30 1158 H 111.369 2.96661 1.72764 0
M  V30 1159 N 113.814 -1.1601 1.06675 0
M  V30 1160 C 114.724 -2.24156 0.692179 0
M  V30 1161 C 115.74 -1.71507 -0.293513 0
M  V30 1162 O 116.916 -2.009 -0.141861 0
M  V30 1163 C 113.981 -3.46587 0.0884131 0
M  V30 1164 C 113.042 -4.14257 1.12646 0
M  V30 1165 C 112.275 -5.30844 0.551416 0
M  V30 1166 O 112.498 -5.66858 -0.634656 0
M  V30 1167 O 111.432 -5.87848 1.29298 0
M  V30 1168 H 115.258 -2.58513 1.59388 0
M  V30 1169 H 112.843 -1.23599 0.83926 0
M  V30 1170 H 114.725 -4.20679 -0.246361 0
M  V30 1171 H 113.4 -3.13994 -0.786712 0
M  V30 1172 H 112.307 -3.42118 1.51348 0
M  V30 1173 H 113.64 -4.50914 1.97325 0
M  V30 1174 N 115.292 -0.849877 -1.32721 0
M  V30 1175 C 116.538 -0.451591 -1.97708 0
M  V30 1176 C 116.871 0.989175 -1.6712 0
M  V30 1177 O 116.146 1.69334 -0.956891 0
M  V30 1178 C 116.429 -0.685598 -3.53513 0
M  V30 1179 C 116.282 -2.17444 -3.93749 0
M  V30 1180 C 117.601 -0.138874 -4.39881 0
M  V30 1181 H 114.72 -0.16555 -0.718166 0
M  V30 1182 H 117.362 -1.06742 -1.57182 0
M  V30 1183 H 115.512 -0.161416 -3.88165 0
M  V30 1184 H 117.184 -2.76433 -3.693 0
M  V30 1185 H 115.427 -2.65476 -3.43081 0
M  V30 1186 H 116.098 -2.28888 -5.02309 0
M  V30 1187 H 118.574 -0.587068 -4.11938 0
M  V30 1188 H 117.45 -0.332213 -5.47894 0
M  V30 1189 H 117.711 0.95806 -4.31594 0
M  V30 1190 N 116.77 1.45427 -0.607355 0
M  V30 1191 C 118.019 2.01452 -0.100036 0
M  V30 1192 C 118.332 1.48159 1.27704 0
M  V30 1193 O 119.538 1.96159 1.87707 0
M  V30 1194 C 117.994 3.59672 -0.128158 0
M  V30 1195 C 117.602 4.21962 -1.50507 0
M  V30 1196 C 119.346 4.23262 0.323932 0
M  V30 1197 C 117.253 5.72333 -1.48959 0
M  V30 1198 H 116.183 0.75325 -0.0336299 0
M  V30 1199 H 118.834 1.66901 -0.76265 0
M  V30 1200 H 117.216 3.91411 0.601105 0
M  V30 1201 H 118.39 4.01796 -2.25602 0
M  V30 1202 H 116.705 3.70565 -1.89923 0
M  V30 1203 H 119.302 5.33522 0.354691 0
M  V30 1204 H 119.645 3.93921 1.34656 0
M  V30 1205 H 120.178 3.96239 -0.352056 0
M  V30 1206 H 116.917 6.06373 -2.48981 0
M  V30 1207 H 116.437 5.94691 -0.781214 0
M  V30 1208 H 118.116 6.35525 -1.21313 0
M  V30 1209 N 118.248 0.346503 1.53744 0
M  V30 1210 C 119.158 -0.517293 2.28826 0
M  V30 1211 C 120.174 -1.10935 1.3405 0
M  V30 1212 O 121.35 -1.1244 1.6709 0
M  V30 1213 C 118.415 -1.65098 3.04866 0
M  V30 1214 C 117.476 -1.0884 4.15274 0
M  V30 1215 C 116.709 -2.16806 4.87679 0
M  V30 1216 O 116.932 -3.3758 4.59778 0
M  V30 1217 O 115.866 -1.80934 5.74061 0
M  V30 1218 H 119.692 0.0931396 3.03557 0
M  V30 1219 H 117.277 0.111458 1.48984 0
M  V30 1220 H 119.159 -2.31053 3.5241 0
M  V30 1221 H 117.834 -2.24717 2.32989 0
M  V30 1222 H 116.741 -0.3933 3.72027 0
M  V30 1223 H 118.074 -0.537036 4.89261 0
M  V30 1224 N 119.726 -1.57421 0.075193 0
M  V30 1225 C 120.689 -2.11791 -0.876203 0
M  V30 1226 C 121.689 -1.04268 -1.22412 0
M  V30 1227 O 122.879 -1.30242 -1.15684 0
M  V30 1228 C 120.011 -2.62207 -2.17854 0
M  V30 1229 H 121.204 -2.9716 -0.40444 0
M  V30 1230 H 118.757 -1.55333 -0.173557 0
M  V30 1231 H 119.492 -1.803 -2.6956 0
M  V30 1232 H 119.277 -3.40802 -1.93897 0
M  V30 1233 H 120.767 -3.04335 -2.85955 0
M  V30 1234 N 121.204 0.198386 -1.56346 0
M  V30 1235 C 122.134 1.24865 -1.9731 0
M  V30 1236 C 123.115 1.47651 -0.844576 0
M  V30 1237 O 124.3 1.59444 -1.10866 0
M  V30 1238 C 121.43 2.59358 -2.30977 0
M  V30 1239 C 120.384 2.5119 -3.46537 0
M  V30 1240 C 119.71 3.89926 -3.65871 0
M  V30 1241 C 121.01 2.03977 -4.80823 0
M  V30 1242 H 122.704 0.908252 -2.85291 0
M  V30 1243 H 120.25 0.435462 -1.37258 0
M  V30 1244 H 122.203 3.33011 -2.58228 0
M  V30 1245 H 120.927 2.95132 -1.39874 0
M  V30 1246 H 119.586 1.79993 -3.19371 0
M  V30 1247 H 119.234 4.23046 -2.72105 0
M  V30 1248 H 118.934 3.85336 -4.4361 0
M  V30 1249 H 120.458 4.65205 -3.95495 0
M  V30 1250 H 121.872 2.67386 -5.07127 0
M  V30 1251 H 120.269 2.10397 -5.62008 0
M  V30 1252 H 121.339 0.992861 -4.74626 0
M  V30 1253 N 122.682 1.50554 0.465978 0
M  V30 1254 C 123.629 1.6979 1.56333 0
M  V30 1255 C 124.599 0.539239 1.57103 0
M  V30 1256 O 125.784 0.770401 1.74555 0
M  V30 1257 C 122.924 1.80273 2.94271 0
M  V30 1258 C 122.037 3.07674 3.0325 0
M  V30 1259 C 121.172 3.08922 4.32135 0
M  V30 1260 C 120.211 4.30755 4.34875 0
M  V30 1261 N 119.348 4.29714 5.55239 0
M  V30 1262 H 124.188 2.63472 1.39235 0
M  V30 1263 H 121.725 1.30602 0.676873 0
M  V30 1264 H 123.683 1.84332 3.74269 0
M  V30 1265 H 122.313 0.900258 3.09992 0
M  V30 1266 H 121.365 3.13062 2.16094 0
M  V30 1267 H 122.677 3.97642 3.01135 0
M  V30 1268 H 121.831 3.11738 5.20485 0
M  V30 1269 H 120.57 2.16792 4.36866 0
M  V30 1270 H 119.575 4.28146 3.44922 0
M  V30 1271 H 120.8 5.24117 4.31831 0
M  V30 1272 H 118.746 3.4044 5.60746 0
M  V30 1273 H 118.663 5.13456 5.54886 0
M  V30 1274 H 119.931 4.36683 6.457 0
M  V30 1275 N 124.16 -0.719506 1.40217 0
M  V30 1276 C 125.406 -1.48152 1.38488 0
M  V30 1277 C 125.739 -1.94195 -0.0141867 0
M  V30 1278 O 125.014 -1.67884 -0.982096 0
M  V30 1279 C 125.297 -2.71035 2.37091 0
M  V30 1280 C 125.15 -2.30912 3.86005 0
M  V30 1281 C 126.469 -3.73182 2.33288 0
M  V30 1282 H 123.588 -0.537395 0.504357 0
M  V30 1283 H 126.23 -0.821472 1.71324 0
M  V30 1284 H 124.38 -3.27352 2.0922 0
M  V30 1285 H 126.052 -1.80107 4.24687 0
M  V30 1286 H 124.295 -1.62958 4.02029 0
M  V30 1287 H 124.966 -3.18978 4.50508 0
M  V30 1288 H 127.442 -3.26485 2.57966 0
M  V30 1289 H 126.318 -4.56806 3.04334 0
M  V30 1290 H 126.579 -4.21202 1.34317 0
M  V30 1291 N 125.638 -1.25649 -0.95132 0
M  V30 1292 C 126.601 -1.06399 -2.03007 0
M  V30 1293 C 127.601 -0.0156794 -1.60792 0
M  V30 1294 O 128.791 -0.25817 -1.72276 0
M  V30 1295 C 125.923 -0.616184 -3.35285 0
M  V30 1296 H 127.116 -2.02164 -2.21517 0
M  V30 1297 H 124.669 -1.08103 -1.12887 0
M  V30 1298 H 125.404 0.343917 -3.22471 0
M  V30 1299 H 125.189 -1.37301 -3.67275 0
M  V30 1300 H 126.679 -0.503032 -4.14559 0
M  V30 1301 N 127.117 1.15442 -1.07289 0
M  V30 1302 C 128.05 2.19135 -0.636798 0
M  V30 1303 C 129.028 1.58884 0.34562 0
M  V30 1304 O 130.212 1.86805 0.252195 0
M  V30 1305 C 127.339 3.38638 0.0650014 0
M  V30 1306 C 126.385 4.17412 -0.87576 0
M  V30 1307 S 127.218 4.79882 -2.37642 0
M  V30 1308 C 128.374 6.02753 -1.6864 0
M  V30 1309 H 128.607 2.55787 -1.51526 0
M  V30 1310 H 126.14 1.26394 -0.886793 0
M  V30 1311 H 128.098 4.07873 0.463664 0
M  V30 1312 H 126.759 3.00331 0.919801 0
M  V30 1313 H 125.952 5.02909 -0.33143 0
M  V30 1314 H 125.554 3.53722 -1.21478 0
M  V30 1315 H 127.846 6.70113 -0.997753 0
M  V30 1316 H 128.789 6.61754 -2.51967 0
M  V30 1317 H 129.197 5.52355 -1.16465 0
M  V30 1318 N 128.595 0.856903 1.32268 0
M  V30 1319 C 129.505 0.306131 2.32594 0
M  V30 1320 C 130.521 -0.577209 1.64147 0
M  V30 1321 O 131.697 -0.477043 1.95669 0
M  V30 1322 C 128.762 -0.494561 3.43154 0
M  V30 1323 C 127.823 0.415186 4.27288 0
M  V30 1324 C 127.056 -0.347387 5.32568 0
M  V30 1325 O 127.279 -1.57708 5.48165 0
M  V30 1326 O 126.213 0.287982 6.01211 0
M  V30 1327 H 130.039 1.13737 2.81598 0
M  V30 1328 H 127.624 0.619902 1.35932 0
M  V30 1329 H 129.506 -0.948944 4.10576 0
M  V30 1330 H 128.181 -1.30257 2.96336 0
M  V30 1331 H 127.088 0.917793 3.62667 0
M  V30 1332 H 128.421 1.18844 4.77637 0
M  V30 1333 N 130.073 -1.45103 0.615059 0
M  V30 1334 C 131.02 -2.30586 -0.0993978 0
M  V30 1335 C 131.99 -1.42544 -0.852669 0
M  V30 1336 O 133.175 -1.71465 -0.836917 0
M  V30 1337 C 130.315 -3.27572 -1.08583 0
M  V30 1338 C 129.428 -4.30717 -0.332656 0
M  V30 1339 C 128.563 -5.14807 -1.30947 0
M  V30 1340 C 127.602 -6.09673 -0.544538 0
M  V30 1341 N 126.739 -6.86517 -1.47101 0
M  V30 1342 H 131.579 -2.91144 0.635542 0
M  V30 1343 H 129.116 -1.4346 0.325206 0
M  V30 1344 H 131.074 -3.82276 -1.67095 0
M  V30 1345 H 129.704 -2.68751 -1.78809 0
M  V30 1346 H 128.756 -3.78615 0.368107 0
M  V30 1347 H 130.068 -4.98102 0.263842 0
M  V30 1348 H 129.222 -5.73948 -1.96643 0
M  V30 1349 H 127.961 -4.47458 -1.9399 0
M  V30 1350 H 126.966 -5.49656 0.126003 0
M  V30 1351 H 128.191 -6.79052 0.080947 0
M  V30 1352 H 126.137 -6.21851 -2.08895 0
M  V30 1353 H 126.054 -7.50281 -0.928137 0
M  V30 1354 H 127.322 -7.50194 -2.11731 0
M  V30 1355 N 131.551 -0.354651 -1.53558 0
M  V30 1356 C 132.799 0.237972 -2.00694 0
M  V30 1357 C 133.12 1.50173 -1.24391 0
M  V30 1358 O 132.39 1.92673 -0.354135 0
M  V30 1359 H 130.97 0.0909256 -0.741446 0
M  V30 1360 H 133.632 -0.478368 -1.88938 0
M  V30 1361 H 132.728 0.47264 -3.085 0
M  V30 1362 N 133.029 1.57378 -0.0835403 0
M  V30 1363 C 134.257 1.98263 0.59157 0
M  V30 1364 C 134.672 0.962302 1.62435 0
M  V30 1365 O 134.029 -0.049581 1.82433 0
M  V30 1366 C 134.08 3.39214 1.24965 0
M  V30 1367 O 133.801 4.37339 0.258186 0
M  V30 1368 C 135.302 3.95038 2.01147 0
M  V30 1369 H 132.522 0.651773 0.159477 0
M  V30 1370 H 135.066 2.03878 -0.159415 0
M  V30 1371 H 133.221 3.34649 1.95164 0
M  V30 1372 H 133.635 5.19371 0.731734 0
M  V30 1373 H 135.109 4.95848 2.42567 0
M  V30 1374 H 135.586 3.32222 2.87272 0
M  V30 1375 H 136.192 4.0304 1.35789 0
M  V30 1376 N 134.507 -0.190092 1.56449 0
M  V30 1377 C 135.732 -0.929864 1.85387 0
M  V30 1378 C 136.157 -1.7585 0.667704 0
M  V30 1379 O 135.515 -1.77198 -0.383459 0
M  V30 1380 C 135.563 -1.79773 3.12593 0
M  V30 1381 O 134.667 -2.89713 2.93496 0
M  V30 1382 H 134.008 -0.261574 0.610307 0
M  V30 1383 H 136.538 -0.193896 2.03679 0
M  V30 1384 H 136.548 -2.20139 3.43515 0
M  V30 1385 H 135.223 -1.18892 3.98544 0
M  V30 1386 H 133.8 -2.53065 2.73884 0
M  V30 1387 N 135.985 -1.50799 -0.457987 0
M  V30 1388 C 137.232 -1.62442 -1.20908 0
M  V30 1389 C 137.56 -0.330865 -1.91665 0
M  V30 1390 O 136.815 0.68401 -1.83357 0
M  V30 1391 C 137.114 -2.76358 -2.2663 0
M  V30 1392 C 136.78 -4.16378 -1.73033 0
M  V30 1393 C 135.442 -4.54473 -1.58138 0
M  V30 1394 C 137.794 -5.03836 -1.33413 0
M  V30 1395 C 135.122 -5.77754 -1.02065 0
M  V30 1396 C 137.474 -6.27676 -0.78778 0
M  V30 1397 C 136.138 -6.64562 -0.625561 0
M  V30 1398 H 135.408 -0.594417 -0.442435 0
M  V30 1399 H 138.055 -1.84772 -0.503136 0
M  V30 1400 H 136.36 -2.48167 -3.03184 0
M  V30 1401 H 138.057 -2.82568 -2.84528 0
M  V30 1402 H 134.647 -3.86331 -1.85598 0
M  V30 1403 H 138.831 -4.75026 -1.4375 0
M  V30 1404 H 134.087 -6.04997 -0.882547 0
M  V30 1405 H 138.261 -6.94797 -0.472177 0
M  V30 1406 H 135.888 -7.59965 -0.188926 0
M  V30 1407 N 137.463 0.71206 -1.40597 0
M  V30 1408 C 138.711 1.46907 -1.38791 0
M  V30 1409 C 139.032 1.94998 0.00780391 0
M  V30 1410 O 138.302 1.70587 0.963174 0
M  V30 1411 H 136.882 0.545043 -0.51082 0
M  V30 1412 H 139.544 0.843882 -1.75683 0
M  V30 1413 H 138.64 2.34021 -2.06496 0
M  V30 1414 N 138.941 1.26152 0.944643 0
M  V30 1415 C 139.904 1.07474 2.0244 0
M  V30 1416 C 140.904 0.0242064 1.60782 0
M  V30 1417 O 142.094 0.267302 1.72137 0
M  V30 1418 C 139.226 0.633956 3.34953 0
M  V30 1419 H 140.419 2.03336 2.20442 0
M  V30 1420 H 137.972 1.087 1.12312 0
M  V30 1421 H 138.707 -0.326811 3.22649 0
M  V30 1422 H 138.492 1.39247 3.66542 0
M  V30 1423 H 139.982 0.52501 4.14287 0
M  V30 1424 N 140.419 -1.14872 1.07899 0
M  V30 1425 C 141.83 -1.67367 0.827363 0
M  V30 1426 C 142.181 -1.85236 -0.646693 0
M  V30 1427 O 141.306 -1.55974 -1.50004 0
M  V30 1428 C 141.901 -3.04016 1.49532 0
M  V30 1429 C 140.46 -3.53566 1.29106 0
M  V30 1430 C 139.607 -2.29161 1.56143 0
M  V30 1431 H 142.558 -0.990083 1.24028 0
M  V30 1432 H 142.579 -3.69219 0.919643 0
M  V30 1433 H 142.091 -2.90978 2.56814 0
M  V30 1434 H 140.192 -3.71835 0.238713 0
M  V30 1435 H 140.305 -4.34661 2.01511 0
M  V30 1436 H 138.669 -2.34978 0.982717 0
M  V30 1437 H 139.452 -2.18705 2.64619 0
M  V30 1438 N 141.898 -0.863906 -1.31812 0
M  V30 1439 C 143.138 -0.47825 -1.98726 0
M  V30 1440 C 143.502 0.950397 -1.66828 0
M  V30 1441 O 144.703 1.44109 -2.26905 0
M  V30 1442 C 142.974 -0.721134 -3.50049 0
M  V30 1443 S 144.533 -0.434432 -4.36644 0
M  V30 1444 H 141.351 -0.178773 -0.688158 0
M  V30 1445 H 143.953 -1.11862 -1.60334 0
M  V30 1446 H 142.657 -1.75981 -3.70755 0
M  V30 1447 H 142.188 -0.0675315 -3.93342 0
M  V30 1448 H 144.203 0.735786 -4.90714 0
M  V30 1449 N 143.376 1.44774 -0.622745 0
M  V30 1450 C 144.339 2.29069 0.0774015 0
M  V30 1451 C 145.339 1.4059 0.780461 0
M  V30 1452 O 146.529 1.62551 0.626322 0
M  V30 1453 C 143.661 3.21974 1.12006 0
M  V30 1454 H 144.854 2.92459 -0.663901 0
M  V30 1455 H 142.407 1.51548 -0.382486 0
M  V30 1456 H 143.142 2.63417 1.89162 0
M  V30 1457 H 142.927 3.87168 0.619951 0
M  V30 1458 H 144.417 3.85318 1.60995 0
M  V30 1459 N 144.854 0.36279 1.53368 0
M  V30 1460 C 145.784 -0.476976 2.28576 0
M  V30 1461 C 146.765 -1.08631 1.30894 0
M  V30 1462 O 147.95 -1.10409 1.59761 0
M  V30 1463 C 145.08 -1.61828 3.07293 0
M  V30 1464 C 144.034 -1.13633 4.1264 0
M  V30 1465 C 143.36 -2.36766 4.79423 0
M  V30 1466 C 144.66 -0.223061 5.21823 0
M  V30 1467 H 146.354 0.150474 2.99022 0
M  V30 1468 H 143.9 0.0738103 1.43811 0
M  V30 1469 H 145.853 -2.21237 3.58653 0
M  V30 1470 H 144.577 -2.27292 2.34533 0
M  V30 1471 H 143.236 -0.564945 3.62221 0
M  V30 1472 H 142.884 -3.0068 4.03238 0
M  V30 1473 H 142.584 -2.05192 5.50609 0
M  V30 1474 H 144.108 -2.96865 5.33576 0
M  V30 1475 H 145.522 -0.724545 5.68703 0
M  V30 1476 H 143.919 0.001678 6.001 0
M  V30 1477 H 144.989 0.735553 4.79289 0
M  V30 1478 N 146.332 -1.57332 0.0918853 0
M  V30 1479 C 147.242 -2.17368 -0.882505 0
M  V30 1480 C 148.258 -1.14226 -1.31257 0
M  V30 1481 O 149.434 -1.46582 -1.38115 0
M  V30 1482 C 146.499 -2.73962 -2.12476 0
M  V30 1483 C 145.56 -3.92048 -1.7492 0
M  V30 1484 C 144.793 -4.45933 -2.93223 0
M  V30 1485 O 145.016 -3.98764 -4.07852 0
M  V30 1486 O 143.95 -5.36999 -2.71875 0
M  V30 1487 H 147.776 -3.01031 -0.40172 0
M  V30 1488 H 145.361 -1.48813 -0.132291 0
M  V30 1489 H 147.243 -3.10147 -2.85283 0
M  V30 1490 H 145.918 -1.93347 -2.59613 0
M  V30 1491 H 144.825 -3.6068 -0.993025 0
M  V30 1492 H 146.158 -4.74017 -1.32548 0
M  V30 1493 N 147.81 0.181792 -1.56548 0
M  V30 1494 C 148.758 1.24461 -1.965 0
M  V30 1495 C 149.752 1.464 -0.852261 0
M  V30 1496 O 150.958 1.47103 -1.03733 0
M  V30 1497 H 147.333 0.418138 -0.625031 0
M  V30 1498 H 149.304 0.880714 -2.85107 0
M  V30 1499 C 148.053 2.57891 -2.33212 0
M  V30 1500 H 147.376 2.41829 -3.18369 0
M  V30 1501 H 148.816 3.3097 -2.65019 0
M  V30 1502 C 147.275 3.15871 -1.17163 0
M  V30 1503 O 147.805 3.9913 -0.453708 0
M  V30 1504 N 146.011 2.74808 -0.944936 0
M  V30 1505 H 145.558 2.07205 -1.53049 0
M  V30 1506 H 145.516 3.13939 -0.170286 0
M  V30 1507 N 149.288 1.51039 0.449983 0
M  V30 1508 C 150.534 1.63322 1.20223 0
M  V30 1509 C 150.867 0.34241 1.91158 0
M  V30 1510 O 150.142 -0.657344 1.83055 0
M  V30 1511 C 150.425 2.82801 2.22925 0
M  V30 1512 C 150.278 4.21823 1.56157 0
M  V30 1513 C 151.597 2.97807 3.24035 0
M  V30 1514 H 148.716 0.594407 0.435718 0
M  V30 1515 H 151.358 1.83489 0.493136 0
M  V30 1516 H 149.508 2.65738 2.834 0
M  V30 1517 H 151.18 4.50526 0.991162 0
M  V30 1518 H 149.423 4.25105 0.864172 0
M  V30 1519 H 150.094 5.01391 2.30891 0
M  V30 1520 H 152.57 3.13497 2.73603 0
M  V30 1521 H 151.446 3.82992 3.93202 0
M  V30 1522 H 151.707 2.09328 3.89402 0
M  V30 1523 N 150.766 -0.704594 1.40972 0
M  V30 1524 C 151.696 -1.83124 1.44872 0
M  V30 1525 C 152.677 -1.67281 0.30838 0
M  V30 1526 O 153.862 -1.87149 0.518556 0
M  V30 1527 C 150.992 -3.21181 1.32136 0
M  V30 1528 C 149.946 -3.51714 2.43888 0
M  V30 1529 C 149.272 -4.89032 2.16222 0
M  V30 1530 C 150.572 -3.516 3.86232 0
M  V30 1531 H 152.266 -1.80117 2.39161 0
M  V30 1532 H 149.812 -0.865145 1.15114 0
M  V30 1533 H 151.765 -3.99702 1.33479 0
M  V30 1534 H 150.489 -3.24791 0.343279 0
M  V30 1535 H 149.148 -2.75539 2.41813 0
M  V30 1536 H 148.796 -4.89256 1.16778 0
M  V30 1537 H 148.496 -5.10426 2.911 0
M  V30 1538 H 150.02 -5.69873 2.19265 0
M  V30 1539 H 151.434 -4.2014 3.9007 0
M  V30 1540 H 149.831 -3.84523 4.60719 0
M  V30 1541 H 150.901 -2.50757 4.15029 0
M  V30 1542 N 152.244 -1.26651 -0.937939 0
M  V30 1543 C 153.207 -1.08546 -2.01867 0
M  V30 1544 C 154.207 -0.0327327 -1.60767 0
M  V30 1545 O 155.397 -0.276427 -1.71993 0
M  V30 1546 C 152.529 -0.651711 -3.34613 0
M  V30 1547 H 153.722 -2.04502 -2.1936 0
M  V30 1548 H 151.275 -1.09294 -1.11734 0
M  V30 1549 H 152.01 0.309696 -3.22818 0
M  V30 1550 H 151.795 -1.41189 -3.65798 0
M  V30 1551 H 153.285 -0.546973 -4.14002 0
M  V30 1552 N 153.722 1.14298 -1.08507 0
M  V30 1553 C 154.632 2.23027 -0.727753 0
M  V30 1554 C 155.648 1.71952 0.26619 0
M  V30 1555 O 156.824 2.011 0.109882 0
M  V30 1556 C 153.889 3.46403 -0.143541 0
M  V30 1557 C 152.95 4.12413 -1.19223 0
M  V30 1558 C 152.183 5.29899 -0.635798 0
M  V30 1559 O 152.406 5.67796 0.544393 0
M  V30 1560 O 151.34 5.85717 -1.38634 0
M  V30 1561 H 155.166 2.55945 -1.63481 0
M  V30 1562 H 152.751 1.22248 -0.858817 0
M  V30 1563 H 154.633 4.21018 0.179404 0
M  V30 1564 H 153.308 3.15206 0.736659 0
M  V30 1565 H 152.215 3.39667 -1.56772 0
M  V30 1566 H 153.548 4.47718 -2.04474 0
M  V30 1567 N 155.201 0.870884 1.31352 0
M  V30 1568 C 156.134 0.271983 2.26573 0
M  V30 1569 C 157.112 -0.599385 1.51149 0
M  V30 1570 O 158.296 -0.552605 1.80218 0
M  V30 1571 C 155.423 -0.614801 3.33073 0
M  V30 1572 C 154.469 0.185342 4.26097 0
M  V30 1573 S 155.302 1.56444 5.12138 0
M  V30 1574 C 156.458 0.683807 6.22153 0
M  V30 1575 H 156.691 1.07916 2.77023 0
M  V30 1576 H 154.224 0.669459 1.39132 0
M  V30 1577 H 156.182 -1.12074 3.94905 0
M  V30 1578 H 154.843 -1.39593 2.81376 0
M  V30 1579 H 154.036 -0.490771 5.01605 0
M  V30 1580 H 153.638 0.623415 3.68768 0
M  V30 1581 H 155.93 -0.10521 6.77418 0
M  V30 1582 H 156.873 1.41004 6.93919 0
M  V30 1583 H 157.281 0.250952 5.63942 0
M  V30 1584 N 156.679 -1.44442 0.630414 0
M  V30 1585 C 157.925 -2.02351 0.134816 0
M  V30 1586 C 158.258 -1.4947 -1.23986 0
M  V30 1587 O 157.533 -0.678475 -1.82283 0
M  V30 1588 C 157.816 -3.59898 0.120707 0
M  V30 1589 C 157.669 -4.23063 1.52767 0
M  V30 1590 C 158.988 -4.36585 -0.555127 0
M  V30 1591 H 156.107 -0.73527 0.0504646 0
M  V30 1592 H 158.749 -1.72022 0.806751 0
M  V30 1593 H 156.899 -3.85868 -0.451477 0
M  V30 1594 H 158.571 -4.08202 2.14869 0
M  V30 1595 H 156.814 -3.80586 2.08175 0
M  V30 1596 H 157.485 -5.32071 1.46984 0
M  V30 1597 H 159.961 -4.16044 -0.0685429 0
M  V30 1598 H 158.837 -5.46294 -0.534185 0
M  V30 1599 H 159.098 -4.11138 -1.62535 0
M  V30 1600 N 158.157 -0.370918 -1.53173 0
M  V30 1601 C 159.406 0.218249 -2.00516 0
M  V30 1602 C 159.719 1.49429 -1.26215 0
M  V30 1603 O 160.925 2.16239 -1.64174 0
M  V30 1604 C 159.381 0.43948 -3.57207 0
M  V30 1605 C 158.989 -0.822244 -4.4039 0
M  V30 1606 C 160.733 0.986012 -4.1289 0
M  V30 1607 C 158.64 -0.570304 -5.88644 0
M  V30 1608 H 157.57 0.0853333 -0.749156 0
M  V30 1609 H 160.221 -0.490483 -1.76823 0
M  V30 1610 H 158.603 1.20961 -3.77074 0
M  V30 1611 H 159.777 -1.59557 -4.32294 0
M  V30 1612 H 158.092 -1.29238 -3.95836 0
M  V30 1613 H 160.689 1.18991 -5.21292 0
M  V30 1614 H 161.032 1.94972 -3.6782 0
M  V30 1615 H 161.565 0.27592 -3.96842 0
M  V30 1616 H 158.304 -1.50449 -6.38001 0
M  V30 1617 H 157.824 0.164427 -5.99575 0
M  V30 1618 H 159.503 -0.19784 -6.46697 0
M  V30 1619 N 159.635 1.57281 -0.100228 0
M  V30 1620 C 160.912 1.86014 0.604812 0
M  V30 1621 C 161.292 0.998025 1.86018 0
M  V30 1622 O 160.64 0.0718184 2.28387 0
M  V30 1623 C 160.85 3.36784 0.915278 0
M  V30 1624 C 162.198 4.04957 1.27651 0
M  V30 1625 O 163.222 3.41695 1.00613 0
M  V30 1626 O 162.081 5.16593 1.7831 0
M  V30 1627 H 159.175 0.76942 0.303185 0
M  V30 1628 H 161.721 1.69176 -0.133313 0
M  V30 1629 H 160.493 3.91292 0.0248896 0
M  V30 1630 H 160.116 3.58987 1.70921 0
M  V30 1631 N 161.113 -0.173488 1.56642 0
M  V30 1632 C 162.076 -1.19859 1.95362 0
M  V30 1633 C 163.076 -1.37296 0.83704 0
M  V30 1634 O 164.266 -1.34739 1.10413 0
M  V30 1635 C 161.398 -2.56405 2.24654 0
M  V30 1636 H 162.591 -0.867062 2.87092 0
M  V30 1637 H 160.144 -0.415853 1.50666 0
M  V30 1638 H 160.879 -2.94576 1.35631 0
M  V30 1639 H 160.664 -2.45115 3.06041 0
M  V30 1640 H 162.154 -3.30287 2.5554 0
M  V30 1641 N 162.591 -1.51276 -0.441967 0
M  V30 1642 C 163.837 -1.63958 -1.19355 0
M  V30 1643 C 164.17 -0.352543 -1.90973 0
M  V30 1644 O 163.445 0.647627 -1.83401 0
M  V30 1645 C 163.728 -2.83979 -2.21422 0
M  V30 1646 C 163.581 -4.22646 -1.53918 0
M  V30 1647 C 164.9 -2.99521 -3.22451 0
M  V30 1648 H 162.019 -0.596709 -0.432559 0
M  V30 1649 H 164.661 -1.83748 -0.483398 0
M  V30 1650 H 162.811 -2.67237 -2.81987 0
M  V30 1651 H 164.483 -4.51045 -0.967256 0
M  V30 1652 H 162.726 -4.25558 -0.841615 0
M  V30 1653 H 163.397 -5.02609 -2.28229 0
M  V30 1654 H 165.873 -3.14944 -2.71937 0
M  V30 1655 H 164.749 -3.85072 -3.91166 0
M  V30 1656 H 165.01 -2.11391 -3.88287 0
M  V30 1657 N 164.069 0.697108 -1.41344 0
M  V30 1658 C 165.48 1.27697 -1.36199 0
M  V30 1659 C 165.831 1.9615 -0.0443463 0
M  V30 1660 O 164.956 1.98689 0.857419 0
M  V30 1661 C 165.551 2.32223 -2.46694 0
M  V30 1662 C 164.11 2.8579 -2.44952 0
M  V30 1663 C 163.257 1.59807 -2.26621 0
M  V30 1664 H 166.208 0.491968 -1.50882 0
M  V30 1665 H 166.229 3.1348 -2.15664 0
M  V30 1666 H 165.741 1.82373 -3.42581 0
M  V30 1667 H 163.842 3.3982 -1.52817 0
M  V30 1668 H 163.955 3.36325 -3.41207 0
M  V30 1669 H 162.319 1.8556 -1.7447 0
M  V30 1670 H 163.102 1.11956 -3.24532 0
M  V30 1671 N 165.547 1.27147 0.931209 0
M  V30 1672 C 166.772 1.16191 1.71797 0
M  V30 1673 C 167.197 -0.278004 1.86034 0
M  V30 1674 O 166.555 -1.20137 1.35782 0
M  V30 1675 C 166.603 1.84673 3.09723 0
M  V30 1676 O 165.707 1.14231 3.96264 0
M  V30 1677 H 165.048 0.404303 0.526721 0
M  V30 1678 H 167.578 1.68152 1.1656 0
M  V30 1679 H 167.588 1.91893 3.60057 0
M  V30 1680 H 166.263 2.89421 2.98677 0
M  V30 1681 H 164.84 1.15056 3.54706 0
M  V30 1682 N 167.025 -1.13721 1.09112 0
M  V30 1683 C 168.274 -1.84275 0.82009 0
M  V30 1684 C 168.587 -1.84253 -0.656509 0
M  V30 1685 O 169.793 -2.50668 -1.04296 0
M  V30 1686 C 168.249 -3.30825 1.41714 0
M  V30 1687 C 167.857 -3.39244 2.92605 0
M  V30 1688 C 169.601 -4.06443 1.22492 0
M  V30 1689 C 167.508 -4.80047 3.45411 0
M  V30 1690 H 166.438 -0.690387 0.30312 0
M  V30 1691 H 169.089 -1.28146 1.31343 0
M  V30 1692 H 167.471 -3.86737 0.851498 0
M  V30 1693 H 168.645 -2.93344 3.55367 0
M  V30 1694 H 166.96 -2.77088 3.10823 0
M  V30 1695 H 169.557 -5.10387 1.59402 0
M  V30 1696 H 169.9 -4.15972 0.165299 0
M  V30 1697 H 170.433 -3.56852 1.75788 0
M  V30 1698 H 167.172 -4.75709 4.50978 0
M  V30 1699 H 166.692 -5.26455 2.87411 0
M  V30 1700 H 168.371 -5.48957 3.42425 0
M  V30 1701 N 168.503 -0.877838 -1.30888 0
M  V30 1702 C 169.413 -0.343096 -2.32078 0
M  V30 1703 C 170.429 0.551022 -1.65045 0
M  V30 1704 O 171.605 0.445854 -1.96403 0
M  V30 1705 C 168.67 0.439905 -3.43898 0
M  V30 1706 C 167.731 -0.483111 -4.26573 0
M  V30 1707 C 166.964 0.262616 -5.33053 0
M  V30 1708 O 167.187 1.48967 -5.50604 0
M  V30 1709 O 166.121 -0.383593 -6.00676 0
M  V30 1710 H 169.947 -1.18203 -2.79753 0
M  V30 1711 H 167.532 -0.64145 -1.34929 0
M  V30 1712 H 169.414 0.883504 -4.12034 0
M  V30 1713 H 168.089 1.25526 -2.98371 0
M  V30 1714 H 166.996 -0.975374 -3.61161 0
M  V30 1715 H 168.329 -1.26427 -4.75686 0
M  V30 1716 N 169.982 1.44106 -0.638065 0
M  V30 1717 C 170.915 2.27924 0.112161 0
M  V30 1718 C 171.893 1.38945 0.844574 0
M  V30 1719 O 173.077 1.68386 0.847248 0
M  V30 1720 C 170.204 3.18029 1.16512 0
M  V30 1721 C 169.25 4.23163 0.532458 0
M  V30 1722 S 170.083 5.31131 -0.682666 0
M  V30 1723 C 171.239 6.24805 0.37013 0
M  V30 1724 H 171.472 2.91205 -0.598887 0
M  V30 1725 H 169.005 1.48394 -0.426441 0
M  V30 1726 H 170.963 3.70492 1.76766 0
M  V30 1727 H 169.624 2.53955 1.8484 0
M  V30 1728 H 168.817 4.86252 1.32571 0
M  V30 1729 H 168.419 3.74 0.00437644 0
M  V30 1730 H 170.711 6.66042 1.24071 0
M  V30 1731 H 171.654 7.07741 -0.225349 0
M  V30 1732 H 172.062 5.60154 0.699141 0
M  V30 1733 N 171.46 0.379036 1.52974 0
M  V30 1734 C 172.706 -0.206727 2.01744 0
M  V30 1735 C 173.039 -1.47314 1.26539 0
M  V30 1736 O 172.314 -1.91084 0.362903 0
M  V30 1737 C 172.597 -0.485066 3.56818 0
M  V30 1738 C 172.45 0.795919 4.42702 0
M  V30 1739 C 173.769 -1.28003 4.21074 0
M  V30 1740 H 170.888 -0.0736607 0.73331 0
M  V30 1741 H 173.53 0.506581 1.83122 0
M  V30 1742 H 171.68 -1.09272 3.72816 0
M  V30 1743 H 173.352 1.43307 4.38476 0
M  V30 1744 H 171.595 1.41344 4.10127 0
M  V30 1745 H 172.266 0.555947 5.49193 0
M  V30 1746 H 174.742 -0.765867 4.08991 0
M  V30 1747 H 173.618 -1.44352 5.29579 0
M  V30 1748 H 173.879 -2.29236 3.78026 0
M  V30 1749 N 172.938 -1.57226 0.108567 0
M  V30 1750 C 174.354 -1.5766 -0.248058 0
M  V30 1751 C 174.554 -1.12063 -1.67464 0
M  V30 1752 O 173.61 -0.803236 -2.39383 0
M  V30 1753 C 174.923 -3.0069 -0.0242287 0
M  V30 1754 C 176.471 -3.12868 -0.0909372 0
M  V30 1755 C 176.946 -4.57879 0.105067 0
M  V30 1756 N 178.437 -4.63172 0.0506846 0
M  V30 1757 C 179.172 -5.73126 0.177396 0
M  V30 1758 N 178.668 -6.91866 0.359696 0
M  V30 1759 N 180.461 -5.61977 0.117709 0
M  V30 1760 H 172.612 -1.85169 1.04049 0
M  V30 1761 H 174.875 -0.85529 0.40888 0
M  V30 1762 H 174.581 -3.38299 0.961604 0
M  V30 1763 H 174.455 -3.6945 -0.76068 0
M  V30 1764 H 176.842 -2.75124 -1.06729 0
M  V30 1765 H 176.923 -2.46672 0.677225 0
M  V30 1766 H 176.567 -4.96321 1.07834 0
M  V30 1767 H 176.497 -5.22153 -0.682954 0
M  V30 1768 H 178.988 -3.778 -0.0871266 0
M  V30 1769 H 179.301 -7.71503 0.447529 0
M  V30 1770 H 177.646 -6.93874 0.395536 0
M  V30 1771 H 180.837 -4.68094 -0.0236741 0
M  V30 1772 H 181.01 -6.47627 0.219905 0
M  V30 1773 N 174.416 0.165178 -1.56732 0
M  V30 1774 C 175.663 0.880807 -1.8234 0
M  V30 1775 C 175.991 1.81977 -0.686621 0
M  V30 1776 O 175.246 1.92971 0.325697 0
M  V30 1777 C 175.545 1.70405 -3.1416 0
M  V30 1778 C 175.211 0.913475 -4.4155 0
M  V30 1779 C 173.873 0.695303 -4.7615 0
M  V30 1780 C 176.225 0.359349 -5.1996 0
M  V30 1781 C 173.553 -0.0879947 -5.86634 0
M  V30 1782 C 175.905 -0.410893 -6.31264 0
M  V30 1783 C 174.569 -0.639808 -6.64427 0
M  V30 1784 H 173.839 0.32231 -0.667231 0
M  V30 1785 H 176.486 0.145402 -1.90947 0
M  V30 1786 H 174.791 2.50903 -3.00923 0
M  V30 1787 H 176.488 2.26091 -3.31186 0
M  V30 1788 H 173.078 1.09357 -4.14414 0
M  V30 1789 H 177.262 0.515228 -4.93618 0
M  V30 1790 H 172.518 -0.27503 -6.10781 0
M  V30 1791 H 176.692 -0.847494 -6.91224 0
M  V30 1792 H 174.319 -1.24864 -7.49875 0
M  V30 1793 N 175.894 1.51508 0.433938 0
M  V30 1794 C 177.14 1.64588 1.18484 0
M  V30 1795 C 177.473 0.362666 1.90784 0
M  V30 1796 O 176.748 -0.637892 1.83742 0
M  V30 1797 C 177.031 2.85149 2.19913 0
M  V30 1798 C 176.884 4.23456 1.51674 0
M  V30 1799 C 178.203 3.01227 3.20858 0
M  V30 1800 H 175.322 0.598994 0.429389 0
M  V30 1801 H 177.964 1.84002 0.473647 0
M  V30 1802 H 176.114 2.68729 2.80566 0
M  V30 1803 H 177.786 4.51552 0.943322 0
M  V30 1804 H 176.029 4.25998 0.819035 0
M  V30 1805 H 176.7 5.03812 2.2556 0
M  V30 1806 H 179.176 3.16382 2.70263 0
M  V30 1807 H 178.052 3.87141 3.89118 0
M  V30 1808 H 178.313 2.13447 3.8716 0
M  V30 1809 N 177.372 -0.689602 1.41712 0
M  V30 1810 C 178.32 -1.82475 1.44242 0
M  V30 1811 C 179.314 -1.66354 0.319774 0
M  V30 1812 O 180.52 -1.73143 0.492089 0
M  V30 1813 H 176.895 -0.601416 0.451445 0
M  V30 1814 H 178.866 -1.77458 2.39899 0
M  V30 1815 C 177.615 -3.20535 1.3473 0
M  V30 1816 H 176.938 -3.33559 2.20405 0
M  V30 1817 H 178.378 -4.00023 1.40562 0
M  V30 1818 C 176.837 -3.36846 0.0603281 0
M  V30 1819 O 177.367 -3.91656 -0.892663 0
M  V30 1820 N 175.573 -2.90595 -0.0177039 0
M  V30 1821 H 175.12 -2.46178 0.758572 0
M  V30 1822 H 175.078 -3.01886 -0.878201 0
M  V30 1823 N 178.85 -1.27639 -0.924453 0
M  V30 1824 C 180.075 -1.17101 -1.71179 0
M  V30 1825 C 180.5 0.268134 -1.86179 0
M  V30 1826 O 179.858 1.19415 -1.36418 0
M  V30 1827 C 179.906 -1.86313 -3.08739 0
M  V30 1828 O 179.01 -1.16331 -3.95652 0
M  V30 1829 H 178.351 -0.407091 -0.524569 0
M  V30 1830 H 180.881 -1.68767 -1.15666 0
M  V30 1831 H 180.891 -1.938 -3.59034 0
M  V30 1832 H 179.566 -2.91001 -2.97138 0
M  V30 1833 H 178.143 -1.16935 -3.54091 0
M  V30 1834 N 180.328 1.1314 -1.09713 0
M  V30 1835 C 181.576 1.84119 -0.833338 0
M  V30 1836 C 181.897 1.84097 0.642904 0
M  V30 1837 O 181.167 1.29881 1.46655 0
M  V30 1838 H 179.747 0.681766 -0.305293 0
M  V30 1839 H 182.409 1.37038 -1.38588 0
M  V30 1840 H 181.505 2.88543 -1.18951 0
M  V30 1841 N 181.806 0.884767 1.30421 0
M  V30 1842 C 183.034 0.518044 2.0031 0
M  V30 1843 C 183.449 -0.893408 1.66324 0
M  V30 1844 O 182.806 -1.5875 0.900262 0
M  V30 1845 C 182.857 0.682997 3.54989 0
M  V30 1846 O 182.578 2.03888 3.87764 0
M  V30 1847 C 184.079 0.31924 4.42149 0
M  V30 1848 H 181.299 0.200265 0.640418 0
M  V30 1849 H 183.843 1.19001 1.6631 0
M  V30 1850 H 181.998 0.0584052 3.87356 0
M  V30 1851 H 182.412 2.05735 4.82466 0
M  V30 1852 H 183.886 0.485555 5.4986 0
M  V30 1853 H 184.363 -0.742717 4.32875 0
M  V30 1854 H 184.969 0.920147 4.15227 0
M  V30 1855 N 183.284 -1.43765 0.645699 0
M  V30 1856 C 184.194 -2.34544 -0.0512957 0
M  V30 1857 C 185.21 -1.53455 -0.82022 0
M  V30 1858 O 186.386 -1.86133 -0.769176 0
M  V30 1859 C 183.451 -3.31636 -1.01087 0
M  V30 1860 C 182.512 -4.2863 -0.239712 0
M  V30 1861 C 181.745 -5.21084 -1.15358 0
M  V30 1862 O 181.968 -5.1779 -2.39269 0
M  V30 1863 O 180.902 -5.98593 -0.630038 0
M  V30 1864 H 184.728 -2.95624 0.695718 0
M  V30 1865 H 182.313 -1.43781 0.405882 0
M  V30 1866 H 184.195 -3.9136 -1.56254 0
M  V30 1867 H 182.87 -2.73069 -1.73824 0
M  V30 1868 H 181.777 -3.72408 0.355356 0
M  V30 1869 H 183.11 -4.90157 0.447936 0
M  V30 1870 N 184.763 -0.387143 -1.52771 0
M  V30 1871 C 185.726 0.436939 -2.24997 0
M  V30 1872 C 186.726 0.991991 -1.26555 0
M  V30 1873 O 187.916 0.874335 -1.50669 0
M  V30 1874 C 185.048 1.61281 -3.00335 0
M  V30 1875 H 186.241 -0.195365 -2.99263 0
M  V30 1876 H 183.794 -0.139218 -1.55679 0
M  V30 1877 H 184.529 2.2826 -2.30364 0
M  V30 1878 H 184.314 1.22154 -3.72587 0
M  V30 1879 H 185.804 2.19629 -3.5518 0
M  V30 1880 N 186.241 1.57166 -0.116904 0
M  V30 1881 C 187.481 1.97008 0.544715 0
M  V30 1882 C 187.845 0.998713 1.63981 0
M  V30 1883 O 189.046 1.28644 2.36018 0
M  V30 1884 C 187.317 3.41145 1.06559 0
M  V30 1885 S 188.876 4.02998 1.73603 0
M  V30 1886 H 185.694 0.688587 0.177112 0
M  V30 1887 H 188.296 1.94459 -0.201487 0
M  V30 1888 H 187 4.09592 0.257374 0
M  V30 1889 H 186.531 3.4734 1.84712 0
M  V30 1890 H 188.546 3.93585 3.02168 0
M  V30 1891 N 187.719 -0.156864 1.56817 0
M  V30 1892 C 188.652 -1.22316 1.9265 0
M  V30 1893 C 189.63 -1.42059 0.791076 0
M  V30 1894 O 190.814 -1.56831 1.04576 0
M  V30 1895 C 187.941 -2.58375 2.18998 0
M  V30 1896 C 186.987 -2.55284 3.41661 0
M  V30 1897 S 187.82 -2.02946 4.95553 0
M  V30 1898 C 188.976 -3.40753 5.25013 0
M  V30 1899 H 189.209 -0.917403 2.82791 0
M  V30 1900 H 186.742 -0.362059 1.50095 0
M  V30 1901 H 188.7 -3.36677 2.34859 0
M  V30 1902 H 187.361 -2.86145 1.29538 0
M  V30 1903 H 186.554 -3.55418 3.57343 0
M  V30 1904 H 186.156 -1.85086 3.24991 0
M  V30 1905 H 188.448 -4.36819 5.17876 0
M  V30 1906 H 189.391 -3.29933 6.26538 0
M  V30 1907 H 189.799 -3.37433 4.52548 0
M  V30 1908 N 189.197 -1.51736 -0.425897 0
M  V30 1909 C 190.16 -1.73271 -1.50032 0
M  V30 1910 C 191.16 -0.602639 -1.4908 0
M  V30 1911 O 192.35 -0.87033 -1.509 0
M  V30 1912 C 189.482 -1.79969 -2.89523 0
M  V30 1913 H 190.675 -2.69172 -1.32237 0
M  V30 1914 H 188.228 -1.41899 -0.65532 0
M  V30 1915 H 188.963 -0.859241 -3.1271 0
M  V30 1916 H 188.748 -2.62109 -2.91619 0
M  V30 1917 H 190.238 -1.9843 -3.67444 0
M  V30 1918 N 190.675 0.682077 -1.42076 0
M  V30 1919 C 191.921 1.44428 -1.42367 0
M  V30 1920 C 192.254 1.94164 -0.0373056 0
M  V30 1921 O 191.529 1.70429 0.937239 0
M  V30 1922 C 191.812 2.64654 -2.44194 0
M  V30 1923 C 191.665 2.20596 -3.91991 0
M  V30 1924 C 192.984 3.66865 -2.431 0
M  V30 1925 H 190.103 0.523834 -0.518428 0
M  V30 1926 H 192.745 0.77576 -1.73442 0
M  V30 1927 H 190.895 3.2169 -2.17826 0
M  V30 1928 H 192.567 1.68783 -4.29313 0
M  V30 1929 H 190.81 1.52242 -4.06208 0
M  V30 1930 H 191.481 3.06921 -4.58807 0
M  V30 1931 H 193.957 3.19531 -2.66532 0
M  V30 1932 H 192.833 4.48577 -3.16339 0
M  V30 1933 H 193.094 4.17493 -1.45437 0
M  V30 1934 N 192.153 1.28127 0.917671 0
M  V30 1935 C 193.083 1.14248 2.03641 0
M  V30 1936 C 194.064 0.0412748 1.7005 0
M  V30 1937 O 195.249 0.217566 1.92977 0
M  V30 1938 C 192.379 0.799431 3.37974 0
M  V30 1939 C 191.333 1.85497 3.85713 0
M  V30 1940 C 190.659 1.36565 5.16966 0
M  V30 1941 C 191.959 3.26085 4.08002 0
M  V30 1942 H 193.653 2.07835 2.15511 0
M  V30 1943 H 191.199 1.00064 1.03553 0
M  V30 1944 H 193.152 0.689114 4.15727 0
M  V30 1945 H 191.876 -0.172145 3.26146 0
M  V30 1946 H 190.535 1.95437 3.10161 0
M  V30 1947 H 190.183 0.383253 5.01538 0
M  V30 1948 H 189.883 2.07143 5.49878 0
M  V30 1949 H 191.407 1.26848 5.97279 0
M  V30 1950 H 192.821 3.19089 4.76293 0
M  V30 1951 H 191.218 3.94462 4.52238 0
M  V30 1952 H 192.288 3.70394 3.12948 0
M  V30 1953 N 193.631 -1.12557 1.10312 0
M  V30 1954 C 195.047 -1.36036 0.834649 0
M  V30 1955 C 195.247 -1.93946 -0.546539 0
M  V30 1956 O 194.303 -2.16484 -1.29966 0
M  V30 1957 C 195.616 -2.30312 1.9333 0
M  V30 1958 C 197.164 -2.43906 1.9616 0
M  V30 1959 C 197.639 -3.41496 3.05195 0
M  V30 1960 N 199.13 -3.49053 3.04494 0
M  V30 1961 C 199.865 -4.24471 3.85502 0
M  V30 1962 N 199.361 -5.02966 4.76442 0
M  V30 1963 N 201.154 -4.19864 3.73725 0
M  V30 1964 H 193.305 -0.733246 1.99342 0
M  V30 1965 H 195.568 -0.385234 0.866198 0
M  V30 1966 H 195.274 -1.94933 2.92735 0
M  V30 1967 H 195.148 -3.30421 1.81939 0
M  V30 1968 H 197.535 -2.78567 0.973886 0
M  V30 1969 H 197.616 -1.4369 2.11629 0
M  V30 1970 H 197.26 -3.07565 4.04186 0
M  V30 1971 H 197.19 -4.41539 2.86968 0
M  V30 1972 H 199.681 -2.93053 2.38596 0
M  V30 1973 H 199.994 -5.57846 5.34815 0
M  V30 1974 H 198.339 -5.02167 4.80472 0
M  V30 1975 H 201.53 -3.57623 3.02032 0
M  V30 1976 H 201.703 -4.78386 4.37093 0
M  V30 1977 N 195.109 -0.891671 -1.2995 0
M  V30 1978 C 196.039 -0.379797 -2.30391 0
M  V30 1979 C 197.02 0.540919 -1.6127 0
M  V30 1980 O 198.205 0.453352 -1.88834 0
M  V30 1981 C 195.335 0.400654 -3.44981 0
M  V30 1982 C 194.289 -0.428905 -4.25846 0
M  V30 1983 C 193.615 0.478557 -5.32554 0
M  V30 1984 C 194.915 -1.67458 -4.94727 0
M  V30 1985 H 196.609 -1.21914 -2.73454 0
M  V30 1986 H 194.155 -0.587675 -1.31462 0
M  V30 1987 H 196.108 0.769434 -4.14316 0
M  V30 1988 H 194.832 1.27371 -3.0074 0
M  V30 1989 H 193.491 -0.779911 -3.58208 0
M  V30 1990 H 193.139 1.34951 -4.84559 0
M  V30 1991 H 192.839 -0.0727433 -5.87555 0
M  V30 1992 H 194.363 0.843705 -6.04743 0
M  V30 1993 H 195.777 -1.376 -5.56542 0
M  V30 1994 H 194.174 -2.16659 -5.59624 0
M  V30 1995 H 195.244 -2.41518 -4.20473 0
M  V30 1996 N 196.587 1.43421 -0.653314 0
M  V30 1997 C 197.52 2.2803 0.0879804 0
M  V30 1998 C 198.498 1.39833 0.82979 0
M  V30 1999 O 199.682 1.69275 0.829341 0
M  V30 2000 C 196.809 3.19247 1.13132 0
M  V30 2001 C 195.855 4.23704 0.487546 0
M  V30 2002 S 196.688 5.30377 -0.738961 0
M  V30 2003 C 197.844 6.25162 0.30384 0
M  V30 2004 H 198.077 2.90554 -0.629739 0
M  V30 2005 H 195.61 1.47934 -0.442156 0
M  V30 2006 H 197.568 3.72346 1.72827 0
M  V30 2007 H 196.229 2.55901 1.82136 0
M  V30 2008 H 195.422 4.87631 1.27407 0
M  V30 2009 H 195.024 3.73983 -0.0352915 0
M  V30 2010 H 197.316 6.67321 1.17 0
M  V30 2011 H 198.259 7.07463 -0.300402 0
M  V30 2012 H 198.667 5.60864 0.63969 0
M  V30 2013 N 198.065 0.39524 1.52563 0
M  V30 2014 C 199.481 0.0454682 1.59535 0
M  V30 2015 C 199.681 -1.44056 1.4089 0
M  V30 2016 O 198.737 -2.20579 1.22888 0
M  V30 2017 C 200.05 0.527963 2.96029 0
M  V30 2018 C 201.598 0.484733 3.09224 0
M  V30 2019 C 202.073 0.943512 4.48176 0
M  V30 2020 N 203.564 0.899765 4.54377 0
M  V30 2021 C 204.299 1.22609 5.60138 0
M  V30 2022 N 203.795 1.62319 6.73516 0
M  V30 2023 N 205.588 1.14696 5.50274 0
M  V30 2024 H 197.739 1.36261 1.62931 0
M  V30 2025 H 200.002 0.558887 0.765735 0
M  V30 2026 H 199.708 1.56607 3.14908 0
M  V30 2027 H 199.582 -0.0698056 3.77135 0
M  V30 2028 H 201.969 -0.544298 2.90037 0
M  V30 2029 H 202.05 1.11838 2.30056 0
M  V30 2030 H 201.694 1.9708 4.68104 0
M  V30 2031 H 201.624 0.286817 5.25818 0
M  V30 2032 H 204.115 0.607632 3.72983 0
M  V30 2033 H 204.428 1.85567 7.5019 0
M  V30 2034 H 202.773 1.66211 6.74833 0
M  V30 2035 H 205.964 0.835701 4.6058 0
M  V30 2036 H 206.137 1.40459 6.32594 0
M  V30 2037 N 199.544 -1.57102 0.125237 0
M  V30 2038 C 200.507 -2.14471 -0.80838 0
M  V30 2039 C 201.507 -1.0811 -1.19033 0
M  V30 2040 O 202.697 -1.33856 -1.11482 0
M  V30 2041 C 199.829 -2.69005 -2.09402 0
M  V30 2042 H 201.022 -2.98297 -0.309696 0
M  V30 2043 H 198.575 -1.55807 -0.124051 0
M  V30 2044 H 199.31 -1.88785 -2.63687 0
M  V30 2045 H 199.095 -3.46799 -1.82957 0
M  V30 2046 H 200.585 -3.13278 -2.76128 0
M  V30 2047 N 201.022 0.148545 -1.56898 0
M  V30 2048 C 202.252 0.875118 -1.8715 0
M  V30 2049 C 202.66 1.75322 -0.711262 0
M  V30 2050 O 202.003 1.80745 0.328151 0
M  V30 2051 C 202.065 1.7844 -3.12089 0
M  V30 2052 C 201.729 1.08361 -4.43967 0
M  V30 2053 C 202.726 0.438247 -5.1805 0
M  V30 2054 C 200.411 1.07358 -4.90693 0
M  V30 2055 C 202.405 -0.20779 -6.37061 0
M  V30 2056 C 200.092 0.42373 -6.09629 0
M  V30 2057 C 201.09 -0.215829 -6.82659 0
M  V30 2058 O 200.778 -0.855378 -7.99336 0
M  V30 2059 H 200.51 0.258504 -0.624621 0
M  V30 2060 H 203.064 0.14652 -2.04877 0
M  V30 2061 H 201.294 2.55389 -2.90367 0
M  V30 2062 H 202.983 2.38279 -3.286 0
M  V30 2063 H 203.749 0.437817 -4.8302 0
M  V30 2064 H 199.628 1.5608 -4.33774 0
M  V30 2065 H 203.172 -0.70758 -6.94002 0
M  V30 2066 H 199.069 0.421822 -6.4412 0
M  V30 2067 H 199.837 -0.756892 -8.14993 0
M  V30 2068 N 202.5 1.5196 0.417844 0
M  V30 2069 C 203.728 1.69426 1.18753 0
M  V30 2070 C 204.143 0.399955 1.84515 0
M  V30 2071 O 203.5 -0.623288 1.71527 0
M  V30 2072 C 203.551 2.82375 2.25714 0
M  V30 2073 O 203.272 4.06793 1.62638 0
M  V30 2074 C 204.773 3.11277 3.15628 0
M  V30 2075 H 201.993 0.568031 0.357186 0
M  V30 2076 H 204.537 1.98475 0.49273 0
M  V30 2077 H 202.692 2.5587 2.90877 0
M  V30 2078 H 203.106 4.69667 2.3348 0
M  V30 2079 H 204.58 3.93843 3.86771 0
M  V30 2080 H 205.057 2.24473 3.77503 0
M  V30 2081 H 205.663 3.39515 2.56144 0
M  V30 2082 N 203.978 -0.674533 1.42435 0
M  V30 2083 C 205.226 -1.43175 1.42637 0
M  V30 2084 C 205.547 -1.94951 0.0438992 0
M  V30 2085 O 204.817 -1.7308 -0.917607 0
M  V30 2086 H 203.397 -0.531307 0.525092 0
M  V30 2087 H 206.059 -0.797006 1.77859 0
M  V30 2088 H 205.155 -2.28463 2.12629 0
M  V30 2089 N 205.456 -1.28612 -0.910864 0
M  V30 2090 C 206.872 -1.06381 -1.18976 0
M  V30 2091 C 207.072 0.191998 -2.00583 0
M  V30 2092 O 206.128 0.892869 -2.36187 0
M  V30 2093 C 207.441 -2.31295 -1.92154 0
M  V30 2094 C 208.989 -2.36503 -2.05025 0
M  V30 2095 C 209.464 -3.61191 -2.81612 0
M  V30 2096 N 210.955 -3.61847 -2.89172 0
M  V30 2097 C 211.69 -4.55004 -3.4894 0
M  V30 2098 N 211.186 -5.58482 -4.09963 0
M  V30 2099 N 212.979 -4.42594 -3.46506 0
M  V30 2100 H 205.13 -2.09221 -0.366094 0
M  V30 2101 H 207.393 -0.921003 -0.224629 0
M  V30 2102 H 207.099 -3.228 -1.39618 0
M  V30 2103 H 206.973 -2.37934 -2.9269 0
M  V30 2104 H 209.36 -1.45494 -2.5674 0
M  V30 2105 H 209.441 -2.33857 -1.03657 0
M  V30 2106 H 209.085 -4.52545 -2.30576 0
M  V30 2107 H 209.015 -3.61092 -3.83302 0
M  V30 2108 H 211.506 -2.87022 -2.45819 0
M  V30 2109 H 211.819 -6.25704 -4.53557 0
M  V30 2110 H 210.164 -5.62305 -4.08459 0
M  V30 2111 H 213.355 -3.60953 -2.98045 0
M  V30 2112 H 213.528 -5.15381 -3.92793 0
M  V30 2113 N 206.934 1.1197 -1.10907 0
M  V30 2114 C 208.211 1.79959 -0.766432 0
M  V30 2115 C 208.591 1.97466 0.746363 0
M  V30 2116 O 207.939 1.55491 1.67436 0
M  V30 2117 C 208.149 3.14009 -1.52314 0
M  V30 2118 C 209.497 3.89134 -1.69883 0
M  V30 2119 O 210.521 3.2368 -1.48692 0
M  V30 2120 O 209.38 5.06572 -2.05054 0
M  V30 2121 H 206.474 0.779208 -0.277062 0
M  V30 2122 H 209.02 1.18762 -1.21217 0
M  V30 2123 H 207.792 2.96587 -2.55249 0
M  V30 2124 H 207.415 3.82915 -1.07059 0
M  V30 2125 N 208.412 0.89855 1.29475 0
M  V30 2126 C 209.359 0.373819 2.27753 0
M  V30 2127 C 210.329 -0.543444 1.56958 0
M  V30 2128 O 211.514 -0.468934 1.84948 0
M  V30 2129 C 208.654 -0.393648 3.42848 0
M  V30 2130 C 207.767 0.554379 4.28428 0
M  V30 2131 C 206.902 -0.230026 5.30702 0
M  V30 2132 C 205.941 0.712599 6.07938 0
M  V30 2133 N 205.078 -0.0373283 7.0209 0
M  V30 2134 H 209.918 1.21699 2.72017 0
M  V30 2135 H 207.455 0.611456 1.33789 0
M  V30 2136 H 209.413 -0.85466 4.08352 0
M  V30 2137 H 208.043 -1.20128 2.99615 0
M  V30 2138 H 207.095 1.13391 3.63107 0
M  V30 2139 H 208.407 1.27597 4.82204 0
M  V30 2140 H 207.561 -0.752288 6.02018 0
M  V30 2141 H 206.3 -0.984758 4.77654 0
M  V30 2142 H 205.305 1.24637 5.35486 0
M  V30 2143 H 206.53 1.46664 6.63074 0
M  V30 2144 H 204.476 -0.774348 6.51414 0
M  V30 2145 H 204.393 0.624374 7.53417 0
M  V30 2146 H 205.661 -0.539891 7.77628 0
M  V30 2147 N 209.89 -1.43072 0.660911 0
M  V30 2148 C 211.139 -2.00942 0.174735 0
M  V30 2149 C 211.452 -1.52797 -1.22117 0
M  V30 2150 O 212.658 -2.02991 -1.80297 0
M  V30 2151 C 211.114 -3.58948 0.261559 0
M  V30 2152 C 210.722 -4.16085 1.66064 0
M  V30 2153 C 212.466 -4.24173 -0.166617 0
M  V30 2154 C 210.373 -5.6641 1.70098 0
M  V30 2155 H 209.303 -0.751483 0.0615631 0
M  V30 2156 H 211.954 -1.63955 0.824069 0
M  V30 2157 H 210.336 -3.93372 -0.455421 0
M  V30 2158 H 211.51 -3.93147 2.40359 0
M  V30 2159 H 209.825 -3.6326 2.03546 0
M  V30 2160 H 212.422 -5.34471 -0.156433 0
M  V30 2161 H 212.765 -3.98647 -1.19943 0
M  V30 2162 H 213.298 -3.94659 0.498875 0
M  V30 2163 H 210.037 -5.96715 2.71315 0
M  V30 2164 H 209.557 -5.91382 1.00139 0
M  V30 2165 H 211.236 -6.30585 1.44816 0
M  V30 2166 N 211.368 -0.403325 -1.52352 0
M  V30 2167 C 212.617 0.175668 -2.00934 0
M  V30 2168 C 212.93 1.46718 -1.29356 0
M  V30 2169 O 214.136 2.12708 -1.68724 0
M  V30 2170 C 212.592 0.363612 -3.58058 0
M  V30 2171 C 212.2 -0.915472 -4.38547 0
M  V30 2172 C 213.944 0.89821 -4.14888 0
M  V30 2173 C 211.851 -0.695035 -5.87302 0
M  V30 2174 H 210.781 0.0694234 -0.750797 0
M  V30 2175 H 213.432 -0.527879 -1.75743 0
M  V30 2176 H 211.814 1.12935 -3.79555 0
M  V30 2177 H 212.988 -1.68691 -4.28812 0
M  V30 2178 H 211.303 -1.37606 -3.93006 0
M  V30 2179 H 213.9 1.07907 -5.23699 0
M  V30 2180 H 214.243 1.87126 -3.71873 0
M  V30 2181 H 214.776 0.191681 -3.97338 0
M  V30 2182 H 211.515 -1.63948 -6.34666 0
M  V30 2183 H 211.035 0.0372116 -5.99788 0
M  V30 2184 H 212.714 -0.33497 -6.46132 0
M  V30 2185 N 212.846 1.57033 -0.133567 0
M  V30 2186 C 213.793 2.16074 0.811208 0
M  V30 2187 C 214.763 1.08979 1.2535 0
M  V30 2188 O 215.948 1.36958 1.32843 0
M  V30 2189 C 213.088 2.77595 2.05024 0
M  V30 2190 C 212.201 3.99042 1.65498 0
M  V30 2191 C 211.336 4.48603 2.84479 0
M  V30 2192 C 210.375 5.62547 2.41262 0
M  V30 2193 N 209.512 6.06787 3.53206 0
M  V30 2194 H 214.352 2.96477 0.300906 0
M  V30 2195 H 211.889 1.46462 0.136822 0
M  V30 2196 H 213.847 3.11402 2.77642 0
M  V30 2197 H 212.477 1.99859 2.53488 0
M  V30 2198 H 211.529 3.71302 0.826981 0
M  V30 2199 H 212.841 4.81629 1.29748 0
M  V30 2200 H 211.995 4.84395 3.65303 0
M  V30 2201 H 210.734 3.64995 3.23465 0
M  V30 2202 H 209.739 5.26345 1.58874 0
M  V30 2203 H 210.964 6.47931 2.03377 0
M  V30 2204 H 208.91 5.26117 3.91838 0
M  V30 2205 H 208.827 6.84266 3.21427 0
M  V30 2206 H 210.095 6.4722 4.34427 0
M  V30 2207 N 214.325 -0.140222 1.56975 0
M  V30 2208 C 215.572 -0.851687 1.83719 0
M  V30 2209 C 215.9 -1.80862 0.715485 0
M  V30 2210 O 215.155 -1.93464 -0.294956 0
M  V30 2211 C 215.454 -1.65386 3.16832 0
M  V30 2212 C 215.12 -0.843112 4.42947 0
M  V30 2213 C 213.782 -0.619464 4.77196 0
M  V30 2214 C 216.134 -0.276582 5.20466 0
M  V30 2215 C 213.462 0.181312 5.8642 0
M  V30 2216 C 215.814 0.51127 6.30531 0
M  V30 2217 C 214.478 0.745432 6.63325 0
M  V30 2218 H 213.748 -0.311654 0.672274 0
M  V30 2219 H 216.395 -0.115006 1.91154 0
M  V30 2220 H 214.7 -2.46084 3.04877 0
M  V30 2221 H 216.397 -2.20793 3.34741 0
M  V30 2222 H 212.987 -1.0275 4.16101 0
M  V30 2223 H 217.171 -0.436632 4.94376 0
M  V30 2224 H 212.427 0.372165 6.10266 0
M  V30 2225 H 216.601 0.957354 6.89788 0
M  V30 2226 H 214.228 1.36778 7.47794 0
M  V30 2227 N 215.803 -1.52179 -0.40978 0
M  V30 2228 C 216.713 -1.78364 -1.52392 0
M  V30 2229 C 217.729 -0.669183 -1.60617 0
M  V30 2230 O 218.905 -0.954518 -1.77344 0
M  V30 2231 C 215.97 -1.92822 -2.88133 0
M  V30 2232 C 215.031 -3.16725 -2.898 0
M  V30 2233 C 214.264 -3.30483 -4.19067 0
M  V30 2234 O 214.487 -2.49522 -5.12928 0
M  V30 2235 O 213.421 -4.2363 -4.27576 0
M  V30 2236 H 217.247 -2.72931 -1.33201 0
M  V30 2237 H 214.832 -1.37016 -0.59557 0
M  V30 2238 H 216.714 -2.04157 -3.68643 0
M  V30 2239 H 215.389 -1.01444 -3.07393 0
M  V30 2240 H 214.296 -3.10848 -2.08146 0
M  V30 2241 H 215.629 -4.07881 -2.75489 0
M  V30 2242 N 217.281 0.66697 -1.42791 0
M  V30 2243 C 218.529 1.42417 -1.43394 0
M  V30 2244 C 218.85 1.94925 -0.0542373 0
M  V30 2245 O 218.12 1.73564 0.908415 0
M  V30 2246 H 216.7 0.528515 -0.527902 0
M  V30 2247 H 219.362 0.787562 -1.78279 0
M  V30 2248 H 218.458 2.27333 -2.13837 0
M  V30 2249 N 218.759 1.29093 0.90403 0
M  V30 2250 C 219.999 1.18076 1.66845 0
M  V30 2251 C 220.363 -0.26436 1.90171 0
M  V30 2252 O 221.564 -0.497423 2.64157 0
M  V30 2253 C 219.835 1.96722 2.98388 0
M  V30 2254 S 221.394 2.0219 3.89441 0
M  V30 2255 H 218.212 0.421104 0.572881 0
M  V30 2256 H 220.814 1.63322 1.07453 0
M  V30 2257 H 219.518 3.00866 2.7912 0
M  V30 2258 H 219.049 1.52064 3.62823 0
M  V30 2259 H 221.064 1.13545 4.83034 0
M  V30 2260 N 220.237 -1.11381 1.11499 0
M  V30 2261 C 221.467 -1.86663 0.885464 0
M  V30 2262 C 221.875 -1.80464 -0.568281 0
M  V30 2263 O 221.218 -1.18445 -1.40415 0
M  V30 2264 C 221.28 -3.36337 1.26956 0
M  V30 2265 C 220.944 -3.66304 2.73259 0
M  V30 2266 C 221.941 -3.63733 3.71476 0
M  V30 2267 C 219.626 -3.9529 3.09921 0
M  V30 2268 C 221.62 -3.89725 5.04374 0
M  V30 2269 C 219.307 -4.20941 4.43004 0
M  V30 2270 C 220.305 -4.18147 5.40039 0
M  V30 2271 O 219.993 -4.43153 6.70724 0
M  V30 2272 H 219.725 -0.597114 0.316908 0
M  V30 2273 H 222.279 -1.41782 1.48617 0
M  V30 2274 H 220.509 -3.81826 0.611999 0
M  V30 2275 H 222.198 -3.92986 1.01573 0
M  V30 2276 H 222.964 -3.41389 3.44498 0
M  V30 2277 H 218.843 -3.966 2.35009 0
M  V30 2278 H 222.387 -3.8746 5.80104 0
M  V30 2279 H 218.284 -4.42761 4.69716 0
M  V30 2280 H 219.052 -4.60717 6.76522 0
M  V30 2281 N 221.715 -0.905404 -1.28997 0
M  V30 2282 C 222.665 -0.358713 -2.25161 0
M  V30 2283 C 223.649 0.524449 -1.52113 0
M  V30 2284 O 224.841 0.365534 -1.73184 0
M  V30 2285 C 221.97 0.407609 -3.40872 0
M  V30 2286 C 221.056 -0.490797 -4.21251 0
M  V30 2287 N 221.447 -1.60061 -4.79806 0
M  V30 2288 C 219.745 -0.289636 -4.45059 0
M  V30 2289 C 220.446 -2.15757 -5.40207 0
M  V30 2290 N 219.422 -1.44988 -5.23908 0
M  V30 2291 H 223.224 -1.20642 -2.67998 0
M  V30 2292 H 220.738 -0.757103 -1.43672 0
M  V30 2293 H 222.735 0.816046 -4.08835 0
M  V30 2294 H 221.395 1.25251 -2.9957 0
M  V30 2295 H 222.406 -1.98329 -4.7842 0
M  V30 2296 H 219.083 0.51643 -4.14294 0
M  V30 2297 H 220.473 -3.09069 -5.96595 0
M  V30 2298 N 223.193 1.4272 -0.668489 0
M  V30 2299 C 224.441 2.01226 -0.187769 0
M  V30 2300 C 224.762 1.53092 1.2078 0
M  V30 2301 O 224.032 0.74993 1.80977 0
M  V30 2302 H 222.612 0.744041 -0.0664272 0
M  V30 2303 H 225.274 1.74723 -0.863583 0
M  V30 2304 H 224.37 3.11556 -0.184166 0
M  V30 2305 N 224.671 0.411399 1.52136 0
M  V30 2306 C 225.621 -0.430376 2.23901 0
M  V30 2307 C 226.605 -1.0116 1.25121 0
M  V30 2308 O 227.797 -0.934044 1.50348 0
M  V30 2309 C 224.926 -1.54527 3.06556 0
M  V30 2310 C 224.012 -0.9747 4.12747 0
M  V30 2311 N 224.403 -0.130991 5.0563 0
M  V30 2312 C 222.701 -1.24497 4.28271 0
M  V30 2313 C 223.402 0.186689 5.814 0
M  V30 2314 N 222.378 -0.42304 5.41951 0
M  V30 2315 H 226.18 0.220509 2.93072 0
M  V30 2316 H 223.694 0.221952 1.60876 0
M  V30 2317 H 225.691 -2.16093 3.56524 0
M  V30 2318 H 224.351 -2.19875 2.38925 0
M  V30 2319 H 225.362 0.23349 5.17373 0
M  V30 2320 H 222.039 -1.89787 3.7187 0
M  V30 2321 H 223.429 0.871673 6.66222 0
M  V30 2322 N 226.149 -1.5696 0.141893 0
M  V30 2323 C 227.112 -2.15316 -0.785587 0
M  V30 2324 C 228.112 -1.09366 -1.1788 0
M  V30 2325 O 229.302 -1.35031 -1.10056 0
M  V30 2326 C 226.434 -2.71211 -2.06537 0
M  V30 2327 H 227.627 -2.98608 -0.278041 0
M  V30 2328 H 225.18 -1.5593 -0.107519 0
M  V30 2329 H 225.915 -1.91571 -2.6167 0
M  V30 2330 H 225.7 -3.4872 -1.79268 0
M  V30 2331 H 227.19 -3.16189 -2.72789 0
M  V30 2332 N 227.627 0.131896 -1.57047 0
M  V30 2333 C 228.904 0.871495 -1.75112 0
M  V30 2334 C 229.284 1.9866 -0.713949 0
M  V30 2335 O 228.632 2.26965 0.264447 0
M  V30 2336 C 228.842 1.40007 -3.19686 0
M  V30 2337 C 230.19 1.85752 -3.81813 0
M  V30 2338 O 231.214 1.49715 -3.23209 0
M  V30 2339 O 230.073 2.5226 -4.84796 0
M  V30 2340 H 227.167 0.412919 -0.716538 0
M  V30 2341 H 229.713 0.116641 -1.69299 0
M  V30 2342 H 228.485 0.599404 -3.86682 0
M  V30 2343 H 228.108 2.218 -3.29986 0
M  V30 2344 N 229.106 1.52395 0.401703 0
M  V30 2345 C 230.039 1.70999 1.51111 0
M  V30 2346 C 231.017 0.55765 1.52738 0
M  V30 2347 O 232.201 0.785912 1.71335 0
M  V30 2348 C 229.328 1.75607 2.8962 0
M  V30 2349 C 228.374 2.97227 3.05873 0
M  V30 2350 S 229.207 4.57439 2.78405 0
M  V30 2351 C 230.363 4.64844 4.19131 0
M  V30 2352 H 230.596 2.6483 1.35102 0
M  V30 2353 H 228.129 1.42527 0.593762 0
M  V30 2354 H 230.087 1.78947 3.69443 0
M  V30 2355 H 228.748 0.828914 3.02965 0
M  V30 2356 H 227.941 2.96955 4.07227 0
M  V30 2357 H 227.543 2.91813 2.33925 0
M  V30 2358 H 229.835 4.42677 5.12877 0
M  V30 2359 H 230.778 5.66807 4.24424 0
M  V30 2360 H 231.186 3.93804 4.04448 0
M  V30 2361 N 230.584 -0.659388 1.43143 0
M  V30 2362 C 231.831 -1.41935 1.44433 0
M  V30 2363 C 232.159 -1.94387 0.0663522 0
M  V30 2364 O 231.414 -1.72314 -0.927706 0
M  V30 2365 C 231.713 -2.62206 2.42864 0
M  V30 2366 C 231.379 -2.28208 3.88886 0
M  V30 2367 C 230.041 -2.18647 4.28657 0
M  V30 2368 C 232.393 -2.00887 4.8093 0
M  V30 2369 C 229.721 -1.79914 5.58433 0
M  V30 2370 C 232.073 -1.63653 6.11065 0
M  V30 2371 C 230.737 -1.52614 6.49819 0
M  V30 2372 H 230.007 -0.519376 0.528517 0
M  V30 2373 H 232.654 -0.750453 1.76183 0
M  V30 2374 H 230.959 -3.34199 2.04495 0
M  V30 2375 H 232.656 -3.2041 2.41119 0
M  V30 2376 H 229.246 -2.36557 3.57406 0
M  V30 2377 H 233.43 -2.07198 4.5098 0
M  V30 2378 H 228.686 -1.69948 5.87305 0
M  V30 2379 H 232.86 -1.41543 6.81864 0
M  V30 2380 H 230.487 -1.22371 7.50286 0
M  V30 2381 N 232.062 -1.29571 -0.897171 0
M  V30 2382 C 232.992 -1.17473 -2.01798 0
M  V30 2383 C 233.973 -0.068323 -1.69963 0
M  V30 2384 O 235.158 -0.248239 -1.92607 0
M  V30 2385 C 232.288 -0.853099 -3.36659 0
M  V30 2386 C 231.242 -1.9161 -3.82713 0
M  V30 2387 C 230.568 -1.44773 -5.14728 0
M  V30 2388 C 231.868 -3.32535 -4.02763 0
M  V30 2389 H 233.562 -2.11237 -2.12177 0
M  V30 2390 H 231.108 -1.01699 -1.01948 0
M  V30 2391 H 233.061 -0.755165 -4.14578 0
M  V30 2392 H 231.785 0.120236 -3.26379 0
M  V30 2393 H 230.444 -2.00346 -3.07013 0
M  V30 2394 H 230.092 -0.462995 -5.00865 0
M  V30 2395 H 229.792 -2.15865 -5.46513 0
M  V30 2396 H 231.316 -1.36334 -5.95185 0
M  V30 2397 H 232.73 -3.26626 -4.71156 0
M  V30 2398 H 231.127 -4.01607 -4.45905 0
M  V30 2399 H 232.197 -3.75326 -3.07016 0
M  V30 2400 N 233.54 1.10788 -1.12088 0
M  V30 2401 C 234.786 1.82942 -0.875226 0
M  V30 2402 C 235.119 1.84779 0.597538 0
M  V30 2403 O 234.394 1.30578 1.44152 0
M  V30 2404 C 234.677 3.29789 -1.44606 0
M  V30 2405 C 234.53 3.36307 -2.98693 0
M  V30 2406 C 235.849 4.26064 -1.10261 0
M  V30 2407 H 232.968 0.664195 -0.319397 0
M  V30 2408 H 235.61 1.29867 -1.38689 0
M  V30 2409 H 233.76 3.75118 -1.01089 0
M  V30 2410 H 235.432 2.99487 -3.50864 0
M  V30 2411 H 233.675 2.76318 -3.34411 0
M  V30 2412 H 234.346 4.39694 -3.33726 0
M  V30 2413 H 236.822 3.88951 -1.4784 0
M  V30 2414 H 235.698 5.27183 -1.52869 0
M  V30 2415 H 235.959 4.42098 -0.0142953 0
M  V30 2416 N 235.018 0.912232 1.28515 0
M  V30 2417 C 235.965 0.397954 2.27343 0
M  V30 2418 C 236.935 -0.526766 1.57526 0
M  V30 2419 O 238.12 -0.449292 1.85435 0
M  V30 2420 C 235.26 -0.357263 3.43246 0
M  V30 2421 C 234.373 0.599788 4.27816 0
M  V30 2422 C 233.508 -0.173725 5.30916 0
M  V30 2423 C 232.547 0.777039 6.07148 0
M  V30 2424 N 231.684 0.0371398 7.0209 0
M  V30 2425 H 236.524 1.24577 2.70711 0
M  V30 2426 H 234.061 0.625612 1.33133 0
M  V30 2427 H 236.019 -0.8113 4.09236 0
M  V30 2428 H 234.649 -1.16943 3.00872 0
M  V30 2429 H 233.701 1.17235 3.61884 0
M  V30 2430 H 235.013 1.32704 4.80823 0
M  V30 2431 H 234.167 -0.688394 6.02782 0
M  V30 2432 H 232.906 -0.934041 4.78672 0
M  V30 2433 H 231.911 1.3031 5.34134 0
M  V30 2434 H 233.136 1.53689 6.61481 0
M  V30 2435 H 231.082 -0.705213 6.52198 0
M  V30 2436 H 230.999 0.704249 7.52713 0
M  V30 2437 H 232.267 -0.457383 7.78157 0
M  V30 2438 N 236.496 -1.42363 0.676048 0
M  V30 2439 C 237.459 -2.29199 0.00766941 0
M  V30 2440 C 238.459 -1.43389 -0.727745 0
M  V30 2441 O 239.649 -1.64764 -0.56556 0
M  V30 2442 C 236.781 -3.2591 -0.999785 0
M  V30 2443 H 237.974 -2.89794 0.771988 0
M  V30 2444 H 235.527 -1.50024 0.438468 0
M  V30 2445 H 236.262 -2.70256 -1.79255 0
M  V30 2446 H 236.047 -3.89202 -0.475829 0
M  V30 2447 H 237.537 -3.91028 -1.46583 0
M  V30 2448 N 237.974 -0.419461 -1.51915 0
M  V30 2449 C 239.222 0.152637 -2.01523 0
M  V30 2450 C 239.543 1.44762 -1.30649 0
M  V30 2451 O 238.813 1.90997 -0.435535 0
M  V30 2452 H 237.393 0.0593966 -0.744635 0
M  V30 2453 H 240.055 -0.558073 -1.86739 0
M  V30 2454 H 239.151 0.341369 -3.10227 0
M  V30 2455 N 239.452 1.56882 -0.150215 0
M  V30 2456 C 240.677 2.01027 0.510184 0
M  V30 2457 C 241.102 1.02966 1.57415 0
M  V30 2458 O 240.46 0.00590158 1.81299 0
M  V30 2459 C 240.508 3.43899 1.08472 0
M  V30 2460 O 239.612 3.4885 2.19948 0
M  V30 2461 H 238.953 0.652233 0.124451 0
M  V30 2462 H 241.483 2.03093 -0.247894 0
M  V30 2463 H 241.493 3.82766 1.41259 0
M  V30 2464 H 240.168 4.14776 0.305582 0
M  V30 2465 H 238.745 3.21827 1.88366 0
M  V30 2466 N 240.93 -0.123565 1.57115 0
M  V30 2467 C 242.178 -0.83051 1.84247 0
M  V30 2468 C 242.499 -1.80629 0.73471 0
M  V30 2469 O 241.769 -1.94403 -0.241688 0
M  V30 2470 H 240.349 -0.309694 0.679778 0
M  V30 2471 H 243.011 -0.111976 1.94578 0
M  V30 2472 H 242.107 -1.37852 2.80006 0
M  V30 2473 N 242.408 -1.52605 -0.393616 0
M  V30 2474 C 243.654 -1.67672 -1.14079 0
M  V30 2475 C 243.987 -0.413121 -1.89755 0
M  V30 2476 O 243.262 0.588952 -1.85369 0
M  V30 2477 C 243.545 -2.9088 -2.12276 0
M  V30 2478 C 243.398 -4.27329 -1.40394 0
M  V30 2479 C 244.717 -3.09628 -3.12759 0
M  V30 2480 H 241.836 -0.610168 -0.413356 0
M  V30 2481 H 244.478 -1.85193 -0.424696 0
M  V30 2482 H 242.628 -2.76073 -2.73342 0
M  V30 2483 H 244.3 -4.53894 -0.82327 0
M  V30 2484 H 242.543 -4.2802 -0.705801 0
M  V30 2485 H 243.214 -5.09615 -2.12123 0
M  V30 2486 H 245.69 -3.23436 -2.61779 0
M  V30 2487 H 244.566 -3.97322 -3.78717 0
M  V30 2488 H 244.827 -2.23637 -3.81365 0
M  V30 2489 N 243.887 0.651787 -1.4349 0
M  V30 2490 C 244.85 1.74647 -1.48429 0
M  V30 2491 C 245.85 1.56513 -0.368817 0
M  V30 2492 O 247.04 1.62385 -0.630623 0
M  V30 2493 C 244.172 3.13533 -1.33827 0
M  V30 2494 H 245.365 1.71649 -2.4592 0
M  V30 2495 H 242.918 0.863573 -1.30277 0
M  V30 2496 H 243.653 3.22142 -0.37349 0
M  V30 2497 H 243.438 3.28101 -2.14691 0
M  V30 2498 H 244.928 3.93356 -1.40218 0
M  V30 2499 N 245.365 1.30045 0.890287 0
M  V30 2500 C 246.593 1.21472 1.67487 0
M  V30 2501 C 247.008 -0.223241 1.87476 0
M  V30 2502 O 246.365 -1.14828 1.41847 0
M  V30 2503 C 246.416 1.93394 3.05419 0
M  V30 2504 O 246.137 3.31576 2.86337 0
M  V30 2505 C 247.638 1.91414 3.99844 0
M  V30 2506 H 244.858 0.420604 0.522813 0
M  V30 2507 H 247.402 1.7158 1.11268 0
M  V30 2508 H 245.557 1.47099 3.58386 0
M  V30 2509 H 245.971 3.67929 3.73802 0
M  V30 2510 H 247.445 2.46285 4.94012 0
M  V30 2511 H 247.922 0.891833 4.3005 0
M  V30 2512 H 248.528 2.37496 3.52811 0
M  V30 2513 N 246.843 -1.10192 1.12674 0
M  V30 2514 C 247.773 -2.18652 0.819362 0
M  V30 2515 C 248.754 -1.68698 -0.217915 0
M  V30 2516 O 249.939 -1.94041 -0.0785581 0
M  V30 2517 C 247.069 -3.46202 0.27594 0
M  V30 2518 C 246.023 -4.09444 1.24656 0
M  V30 2519 C 245.349 -5.31725 0.563258 0
M  V30 2520 C 246.649 -4.52863 2.60217 0
M  V30 2521 H 248.343 -2.44622 1.72628 0
M  V30 2522 H 245.889 -1.17571 0.831451 0
M  V30 2523 H 247.842 -4.21372 0.0486149 0
M  V30 2524 H 246.566 -3.1973 -0.666331 0
M  V30 2525 H 245.225 -3.36284 1.45974 0
M  V30 2526 H 244.873 -5.0153 -0.384235 0
M  V30 2527 H 244.573 -5.74991 1.21075 0
M  V30 2528 H 246.097 -6.09624 0.34503 0
M  V30 2529 H 247.511 -5.19294 2.42913 0
M  V30 2530 H 245.908 -5.06986 3.21068 0
M  V30 2531 H 246.978 -3.65656 3.18471 0
M  V30 2532 N 248.321 -0.919034 -1.28029 0
M  V30 2533 C 249.569 -0.553838 -1.94363 0
M  V30 2534 C 249.89 0.906357 -1.72656 0
M  V30 2535 O 249.16 1.64143 -1.0693 0
M  V30 2536 H 247.74 -0.201834 -0.719216 0
M  V30 2537 H 250.402 -1.16954 -1.55909 0
M  V30 2538 H 249.498 -0.752758 -3.02886 0
M  V30 2539 N 249.799 1.42003 -0.683588 0
M  V30 2540 C 250.729 2.33487 -0.024866 0
M  V30 2541 C 251.71 1.51163 0.779975 0
M  V30 2542 O 252.895 1.79739 0.735362 0
M  V30 2543 C 250.025 3.3487 0.920836 0
M  V30 2544 C 248.979 4.27414 0.223958 0
M  V30 2545 C 248.305 5.19074 1.2832 0
M  V30 2546 C 249.605 5.14445 -0.90242 0
M  V30 2547 H 251.299 2.88819 -0.788921 0
M  V30 2548 H 248.845 1.38873 -0.38083 0
M  V30 2549 H 250.798 3.97787 1.39081 0
M  V30 2550 H 249.522 2.77861 1.71642 0
M  V30 2551 H 248.181 3.65904 -0.225864 0
M  V30 2552 H 247.829 4.58387 2.071 0
M  V30 2553 H 247.529 5.81822 0.821995 0
M  V30 2554 H 249.053 5.84867 1.75392 0
M  V30 2555 H 250.467 5.70998 -0.513272 0
M  V30 2556 H 248.864 5.86072 -1.28997 0
M  V30 2557 H 249.934 4.52322 -1.74737 0
M  V30 2558 N 251.277 0.427512 1.51691 0
M  V30 2559 C 252.688 -0.0378867 1.86662 0
M  V30 2560 C 253.039 -1.42819 1.34525 0
M  V30 2561 O 252.164 -2.05037 0.692014 0
M  V30 2562 C 252.759 -0.0755266 3.38716 0
M  V30 2563 C 251.318 -0.485309 3.73258 0
M  V30 2564 C 250.465 0.328399 2.75349 0
M  V30 2565 H 253.416 0.64379 1.45055 0
M  V30 2566 H 253.437 -0.887056 3.70016 0
M  V30 2567 H 252.949 0.936487 3.76632 0
M  V30 2568 H 251.05 -1.50329 3.40928 0
M  V30 2569 H 251.163 -0.21693 4.78609 0
M  V30 2570 H 249.527 -0.211905 2.53817 0
M  V30 2571 H 250.31 1.3391 3.16106 0
M  V30 2572 N 252.755 -1.56801 0.158532 0
M  V30 2573 C 254.032 -1.88131 -0.535357 0
M  V30 2574 C 254.412 -1.06638 -1.82186 0
M  V30 2575 O 253.76 -0.156533 -2.27963 0
M  V30 2576 C 253.97 -3.39949 -0.789653 0
M  V30 2577 C 255.318 -4.09416 -1.12533 0
M  V30 2578 O 256.342 -3.45194 -0.878622 0
M  V30 2579 O 255.201 -5.22855 -1.59014 0
M  V30 2580 H 252.295 -0.780143 -0.27442 0
M  V30 2581 H 254.841 -1.68564 0.19601 0
M  V30 2582 H 253.613 -3.91115 0.120353 0
M  V30 2583 H 253.236 -3.65084 -1.57479 0
M  V30 2584 N 254.233 0.115231 -1.57178 0
M  V30 2585 C 255.458 0.840354 -1.89612 0
M  V30 2586 C 255.883 1.72464 -0.750845 0
M  V30 2587 O 255.241 1.78826 0.298478 0
M  V30 2588 C 255.289 1.64654 -3.20814 0
M  V30 2589 O 254.393 2.7538 -3.06985 0
M  V30 2590 H 253.734 0.232158 -0.622092 0
M  V30 2591 H 256.264 0.0964977 -2.04372 0
M  V30 2592 H 256.274 2.03499 -3.53627 0
M  V30 2593 H 254.949 0.997416 -4.03763 0
M  V30 2594 H 253.526 2.3971 -2.85646 0
M  V30 2595 N 255.711 1.52812 0.385517 0
M  V30 2596 C 257.122 1.5993 0.963293 0
M  V30 2597 C 257.473 0.454302 1.90868 0
M  V30 2598 O 256.598 -0.422132 2.12243 0
M  V30 2599 C 257.193 2.89871 1.75387 0
M  V30 2600 C 255.752 2.99389 2.28129 0
M  V30 2601 C 254.899 2.55071 1.08783 0
M  V30 2602 H 257.85 1.5784 0.164948 0
M  V30 2603 H 257.871 2.76553 2.61341 0
M  V30 2604 H 257.383 3.73186 1.06554 0
M  V30 2605 H 255.484 2.20619 3.00263 0
M  V30 2606 H 255.597 4.04096 2.57377 0
M  V30 2607 H 253.961 2.09473 1.4489 0
M  V30 2608 H 254.744 3.40785 0.414807 0
M  V30 2609 N 257.189 -0.644168 1.43834 0
M  V30 2610 C 258.437 -1.40117 1.45642 0
M  V30 2611 C 258.758 -1.94814 0.0852413 0
M  V30 2612 O 258.028 -1.74988 -0.880688 0
M  V30 2613 H 256.608 -0.52005 0.536243 0
M  V30 2614 H 259.27 -0.7591 1.7951 0
M  V30 2615 H 258.366 -2.23902 2.17427 0
M  V30 2616 N 258.668 -1.30515 -0.883378 0
M  V30 2617 C 259.914 -1.19607 -1.63774 0
M  V30 2618 C 260.247 0.248314 -1.92606 0
M  V30 2619 O 259.522 1.17742 -1.54813 0
M  V30 2620 C 259.805 -2.02669 -2.97653 0
M  V30 2621 C 259.658 -3.55335 -2.75784 0
M  V30 2622 C 260.977 -1.86573 -3.98596 0
M  V30 2623 H 258.096 -0.435856 -0.594305 0
M  V30 2624 H 260.738 -1.60165 -1.02212 0
M  V30 2625 H 258.888 -1.68208 -3.50197 0
M  V30 2626 H 260.56 -3.99863 -2.30016 0
M  V30 2627 H 258.803 -3.79438 -2.1026 0
M  V30 2628 H 259.474 -4.08745 -3.70988 0
M  V30 2629 H 261.95 -2.16703 -3.55217 0
M  V30 2630 H 260.826 -2.47014 -4.90179 0
M  V30 2631 H 261.087 -0.825321 -4.34328 0
M  V30 2632 N 260.146 1.09593 -1.13257 0
M  V30 2633 C 261.557 1.63229 -0.906274 0
M  V30 2634 C 261.908 1.8811 0.557578 0
M  V30 2635 O 261.033 1.62953 1.42391 0
M  V30 2636 C 261.628 2.96535 -1.63867 0
M  V30 2637 C 260.187 3.47003 -1.45828 0
M  V30 2638 C 259.334 2.2145 -1.66898 0
M  V30 2639 H 262.285 0.92978 -1.28611 0
M  V30 2640 H 262.306 3.64411 -1.09476 0
M  V30 2641 H 261.818 2.78394 -2.70404 0
M  V30 2642 H 259.919 3.70272 -0.415848 0
M  V30 2643 H 260.032 4.24551 -2.2202 0
M  V30 2644 H 258.396 2.30022 -1.09371 0
M  V30 2645 H 259.179 2.0583 -2.74752 0
M  V30 2646 N 261.624 0.925811 1.2754 0
M  V30 2647 C 262.571 0.422045 2.26908 0
M  V30 2648 C 263.541 -0.510029 1.58076 0
M  V30 2649 O 264.726 -0.429599 1.85901 0
M  V30 2650 C 261.866 -0.320837 3.43605 0
M  V30 2651 C 260.979 0.64513 4.27156 0
M  V30 2652 C 260.114 -0.117405 5.3107 0
M  V30 2653 C 259.153 0.841391 6.0629 0
M  V30 2654 N 258.29 0.111604 7.02011 0
M  V30 2655 H 263.13 1.27441 2.69375 0
M  V30 2656 H 260.667 0.639697 1.32462 0
M  V30 2657 H 262.625 -0.76785 4.10073 0
M  V30 2658 H 261.255 -1.13745 3.02096 0
M  V30 2659 H 260.307 1.21067 3.6062 0
M  V30 2660 H 261.619 1.37797 4.79389 0
M  V30 2661 H 260.773 -0.624422 6.03478 0
M  V30 2662 H 259.512 -0.883219 4.79636 0
M  V30 2663 H 258.517 1.35967 5.32722 0
M  V30 2664 H 259.742 1.60696 6.59813 0
M  V30 2665 H 257.688 -0.635999 6.5291 0
M  V30 2666 H 257.605 0.784044 7.51923 0
M  V30 2667 H 258.873 -0.374823 7.78598 0
M  V30 2668 N 263.102 -1.41638 0.69111 0
M  V30 2669 C 264.327 -2.06148 0.227583 0
M  V30 2670 C 264.752 -1.51652 -1.11281 0
M  V30 2671 O 264.11 -0.64164 -1.69566 0
M  V30 2672 C 264.158 -3.60095 0.190858 0
M  V30 2673 O 263.262 -4.03845 -0.835664 0
M  V30 2674 H 262.603 -0.654434 0.112306 0
M  V30 2675 H 265.133 -1.81484 0.944714 0
M  V30 2676 H 265.143 -4.07995 0.020207 0
M  V30 2677 H 263.818 -3.99129 1.16915 0
M  V30 2678 H 262.395 -3.67458 -0.63473 0
M  V30 2679 N 264.58 -0.43555 -1.51462 0
M  V30 2680 C 265.808 0.130242 -2.0649 0
M  V30 2681 C 266.223 1.36614 -1.30315 0
M  V30 2682 O 265.58 1.78869 -0.362223 0
M  V30 2683 C 265.631 0.454253 -3.58635 0
M  V30 2684 O 265.352 -0.73259 -4.31931 0
M  V30 2685 C 266.853 1.07091 -4.3017 0
M  V30 2686 H 264.073 0.00871669 -0.670943 0
M  V30 2687 H 266.617 -0.614117 -1.95061 0
M  V30 2688 H 264.772 1.14851 -3.69984 0
M  V30 2689 H 265.186 -0.455787 -5.22516 0
M  V30 2690 H 266.66 1.24764 -5.37716 0
M  V30 2691 H 267.137 2.05144 -3.88346 0
M  V30 2692 H 267.743 0.416089 -4.2326 0
M  V30 2693 N 266.058 1.56714 -0.166846 0
M  V30 2694 C 267.286 2.0112 0.485644 0
M  V30 2695 C 267.701 1.04705 1.57106 0
M  V30 2696 O 267.058 0.0471923 1.82439 0
M  V30 2697 C 267.109 3.45361 1.06808 0
M  V30 2698 O 266.83 4.38092 0.0259995 0
M  V30 2699 C 268.331 4.05145 1.79924 0
M  V30 2700 H 265.551 0.65931 0.124704 0
M  V30 2701 H 268.095 2.02746 -0.267262 0
M  V30 2702 H 266.25 3.44524 1.7715 0
M  V30 2703 H 266.664 5.22519 0.455398 0
M  V30 2704 H 268.138 5.08009 2.15942 0
M  V30 2705 H 268.615 3.46982 2.69258 0
M  V30 2706 H 269.221 4.09672 1.14234 0
M  V30 2707 N 267.536 -0.106894 1.57237 0
M  V30 2708 C 268.499 -1.11466 2.0027 0
M  V30 2709 C 269.499 -1.33623 0.894519 0
M  V30 2710 O 270.689 -1.29935 1.16028 0
M  V30 2711 C 267.821 -2.46646 2.35327 0
M  V30 2712 H 269.014 -0.744516 2.90512 0
M  V30 2713 H 266.567 -0.351576 1.52295 0
M  V30 2714 H 267.302 -2.88558 1.48003 0
M  V30 2715 H 267.087 -2.31915 3.16161 0
M  V30 2716 H 268.577 -3.19151 2.69318 0
M  V30 2717 N 269.014 -1.53014 -0.377408 0
M  V30 2718 C 269.962 -1.7927 -1.48206 0
M  V30 2719 C 270.956 -0.661195 -1.55963 0
M  V30 2720 O 272.162 -0.843908 -1.58991 0
M  V30 2721 H 268.537 -0.567425 -0.493491 0
M  V30 2722 H 270.508 -2.71753 -1.2326 0
M  V30 2723 C 269.257 -1.98894 -2.85196 0
M  V30 2724 H 268.58 -2.85395 -2.79981 0
M  V30 2725 H 270.02 -2.21249 -3.61698 0
M  V30 2726 C 268.479 -0.764691 -3.28107 0
M  V30 2727 O 269.009 0.0523226 -4.01666 0
M  V30 2728 N 267.215 -0.591493 -2.84517 0
M  V30 2729 H 266.762 -1.25749 -2.24822 0
M  V30 2730 H 266.72 0.226253 -3.13585 0
M  V30 2731 N 270.492 0.636531 -1.44174 0
M  V30 2732 C 271.72 1.42353 -1.50144 0
M  V30 2733 C 272.135 1.88389 -0.124575 0
M  V30 2734 O 271.492 1.6051 0.868489 0
M  V30 2735 C 271.543 2.64744 -2.46156 0
M  V30 2736 O 271.264 2.20629 -3.7849 0
M  V30 2737 C 272.765 3.57929 -2.61537 0
M  V30 2738 H 269.985 0.436752 -0.5094 0
M  V30 2739 H 272.529 0.778933 -1.89084 0
M  V30 2740 H 270.684 3.25307 -2.10366 0
M  V30 2741 H 271.098 2.99938 -4.30276 0
M  V30 2742 H 272.572 4.40428 -3.32757 0
M  V30 2743 H 273.049 4.06382 -1.66585 0
M  V30 2744 H 273.655 3.03238 -2.98206 0
M  V30 2745 N 271.97 1.30982 0.876444 0
M  V30 2746 C 272.9 1.20668 1.99903 0
M  V30 2747 C 273.881 0.095354 1.69833 0
M  V30 2748 O 275.066 0.27885 1.92188 0
M  V30 2749 C 272.196 0.90655 3.3526 0
M  V30 2750 C 271.15 1.97675 3.79617 0
M  V30 2751 C 270.476 1.52943 5.1236 0
M  V30 2752 C 271.776 3.389 3.97422 0
M  V30 2753 H 273.47 2.14586 2.0879 0
M  V30 2754 H 271.016 1.03308 1.00317 0
M  V30 2755 H 272.969 0.821025 4.13324 0
M  V30 2756 H 271.693 -0.0682969 3.26529 0
M  V30 2757 H 270.352 2.05205 3.03787 0
M  V30 2758 H 270 0.54262 5.00065 0
M  V30 2759 H 269.7 2.24532 5.43009 0
M  V30 2760 H 271.224 1.45786 5.92941 0
M  V30 2761 H 272.638 3.34081 4.659 0
M  V30 2762 H 271.035 4.0865 4.3946 0
M  V30 2763 H 272.105 3.80163 3.01006 0
M  V30 2764 N 273.449 -1.08991 1.13837 0
M  V30 2765 C 274.677 -1.85011 0.926202 0
M  V30 2766 C 275.092 -1.8135 -0.525127 0
M  V30 2767 O 274.449 -1.21287 -1.36366 0
M  V30 2768 C 274.5 -3.32802 1.41155 0
M  V30 2769 O 274.221 -3.36444 2.80601 0
M  V30 2770 C 275.722 -4.25649 1.23847 0
M  V30 2771 H 272.942 -0.584249 0.32999 0
M  V30 2772 H 275.486 -1.37688 1.51202 0
M  V30 2773 H 273.641 -3.77536 0.868631 0
M  V30 2774 H 274.055 -4.28657 3.02248 0
M  V30 2775 H 275.529 -5.27485 1.62675 0
M  V30 2776 H 276.006 -4.38828 0.18065 0
M  V30 2777 H 276.612 -3.86735 1.76964 0
M  V30 2778 N 274.927 -0.932562 -1.27047 0
M  V30 2779 C 275.89 -0.440064 -2.24936 0
M  V30 2780 C 276.89 0.444071 -1.54547 0
M  V30 2781 O 278.08 0.244465 -1.72476 0
M  V30 2782 C 275.212 0.36678 -3.38921 0
M  V30 2783 H 276.405 -1.305 -2.70018 0
M  V30 2784 H 273.958 -0.713707 -1.39054 0
M  V30 2785 H 274.693 1.25033 -2.99228 0
M  V30 2786 H 274.478 -0.267204 -3.91188 0
M  V30 2787 H 275.968 0.701567 -4.11665 0
M  V30 2788 N 276.405 1.4127 -0.698611 0
M  V30 2789 C 277.816 1.84187 -0.305289 0
M  V30 2790 C 278.167 1.58449 1.15708 0
M  V30 2791 O 277.292 1.05651 1.88856 0
M  V30 2792 C 277.887 3.3435 -0.547314 0
M  V30 2793 C 276.446 3.75826 -0.207878 0
M  V30 2794 C 275.593 2.64647 -0.828099 0
M  V30 2795 H 278.544 1.30778 -0.89904 0
M  V30 2796 H 278.565 3.8001 0.192998 0
M  V30 2797 H 278.077 3.53051 -1.61172 0
M  V30 2798 H 276.178 3.62725 0.852143 0
M  V30 2799 H 276.291 4.74462 -0.665021 0
M  V30 2800 H 274.655 2.53395 -0.257458 0
M  V30 2801 H 275.438 2.86165 -1.89643 0
M  V30 2802 N 277.883 0.443576 1.51229 0
M  V30 2803 C 279.113 -0.119117 2.06256 0
M  V30 2804 C 279.521 -1.36471 1.31043 0
M  V30 2805 O 278.864 -1.80034 0.365151 0
M  V30 2806 C 278.926 -0.500546 3.55998 0
M  V30 2807 C 278.59 0.639125 4.52509 0
M  V30 2808 C 279.587 1.51311 4.97394 0
M  V30 2809 C 277.272 0.821632 4.95535 0
M  V30 2810 C 279.266 2.55425 5.83984 0
M  V30 2811 C 276.953 1.86603 5.81913 0
M  V30 2812 C 277.951 2.73072 6.26036 0
M  V30 2813 O 277.639 3.75718 7.10698 0
M  V30 2814 H 277.371 -0.00857665 0.675946 0
M  V30 2815 H 279.925 0.623288 1.95715 0
M  V30 2816 H 278.155 -1.29575 3.64345 0
M  V30 2817 H 279.844 -0.995116 3.93513 0
M  V30 2818 H 280.61 1.38367 4.64844 0
M  V30 2819 H 276.489 0.158149 4.60729 0
M  V30 2820 H 280.033 3.22949 6.18344 0
M  V30 2821 H 275.93 1.99564 6.13876 0
M  V30 2822 H 276.698 3.72374 7.2889 0
M  V30 2823 N 279.361 -1.56624 0.175154 0
M  V30 2824 C 280.309 -2.19468 -0.770495 0
M  V30 2825 C 281.303 -1.15985 -1.23466 0
M  V30 2826 O 282.509 -1.34176 -1.19987 0
M  V30 2827 H 278.884 -0.703095 -0.266761 0
M  V30 2828 H 280.855 -2.97613 -0.216542 0
M  V30 2829 C 279.604 -2.85264 -1.98796 0
M  V30 2830 H 278.927 -3.64623 -1.63983 0
M  V30 2831 H 280.367 -3.327 -2.62843 0
M  V30 2832 C 278.826 -1.85239 -2.81404 0
M  V30 2833 O 279.356 -1.34024 -3.78682 0
M  V30 2834 N 277.562 -1.53911 -2.46495 0
M  V30 2835 H 277.109 -1.95751 -1.67449 0
M  V30 2836 H 277.067 -0.872382 -3.02054 0
M  V30 2837 N 280.839 0.0985539 -1.57292 0
M  V30 2838 C 282.116 0.834155 -1.76921 0
M  V30 2839 C 282.496 1.97101 -0.755928 0
M  V30 2840 O 281.844 2.27474 0.216245 0
M  V30 2841 C 282.054 1.33194 -3.22584 0
M  V30 2842 C 283.402 1.77611 -3.85668 0
M  V30 2843 O 284.426 1.42825 -3.26312 0
M  V30 2844 O 283.285 2.4192 -4.90038 0
M  V30 2845 H 280.379 0.397628 -0.725135 0
M  V30 2846 H 282.925 0.0807044 -1.69508 0
M  V30 2847 H 281.697 0.517248 -3.87866 0
M  V30 2848 H 281.32 2.1475 -3.34616 0
M  V30 2849 N 282.317 1.53212 0.369288 0
M  V30 2850 C 283.247 1.82365 1.45826 0
M  V30 2851 C 284.228 0.676907 1.56051 0
M  V30 2852 O 285.413 0.926401 1.70679 0
M  V30 2853 C 282.543 2.01023 2.83208 0
M  V30 2854 C 281.497 3.1678 2.8781 0
M  V30 2855 C 280.823 3.20724 4.27832 0
M  V30 2856 C 282.123 4.55447 2.55667 0
M  V30 2857 H 283.817 2.73559 1.21678 0
M  V30 2858 H 281.363 1.3163 0.583911 0
M  V30 2859 H 283.316 2.20001 3.59413 0
M  V30 2860 H 282.04 1.06536 3.08736 0
M  V30 2861 H 280.699 2.97616 2.14056 0
M  V30 2862 H 280.347 2.23882 4.50429 0
M  V30 2863 H 280.047 3.98496 4.31827 0
M  V30 2864 H 281.571 3.41881 5.05915 0
M  V30 2865 H 282.985 4.74611 3.21586 0
M  V30 2866 H 281.382 5.35432 2.70984 0
M  V30 2867 H 282.452 4.60812 1.5093 0
M  V30 2868 N 283.795 -0.628877 1.44509 0
M  V30 2869 C 284.705 -1.7694 1.54044 0
M  V30 2870 C 285.721 -1.68705 0.425987 0
M  V30 2871 O 286.897 -1.89442 0.683656 0
M  V30 2872 C 283.962 -3.13332 1.48405 0
M  V30 2873 C 283.023 -3.33181 2.70719 0
M  V30 2874 C 282.256 -4.63067 2.6534 0
M  V30 2875 O 282.479 -5.44017 1.71469 0
M  V30 2876 O 281.413 -4.85167 3.56226 0
M  V30 2877 H 285.239 -1.71848 2.50403 0
M  V30 2878 H 282.824 -0.790378 1.26781 0
M  V30 2879 H 284.706 -3.94634 1.47791 0
M  V30 2880 H 283.381 -3.1896 0.551898 0
M  V30 2881 H 282.288 -2.51549 2.769 0
M  V30 2882 H 283.621 -3.32416 3.62988 0
M  V30 2883 N 285.273 -1.31445 -0.869486 0
M  V30 2884 C 286.236 -1.19094 -1.9583 0
M  V30 2885 C 287.236 -0.117906 -1.60367 0
M  V30 2886 O 288.426 -0.367208 -1.70286 0
M  V30 2887 C 285.558 -0.828165 -3.30688 0
M  V30 2888 H 286.751 -2.15842 -2.08212 0
M  V30 2889 H 284.304 -1.15063 -1.05784 0
M  V30 2890 H 285.039 0.138142 -3.24006 0
M  V30 2891 H 284.824 -1.6038 -3.578 0
M  V30 2892 H 286.314 -0.765658 -4.10521 0
M  V30 2893 N 286.751 1.08385 -1.14413 0
M  V30 2894 C 287.997 1.81044 -0.913834 0
M  V30 2895 C 288.33 1.86004 0.558209 0
M  V30 2896 O 287.605 1.33606 1.4135 0
M  V30 2897 C 287.888 3.26648 -1.51569 0
M  V30 2898 C 287.741 3.29895 -3.0576 0
M  V30 2899 C 289.06 4.23629 -1.19273 0
M  V30 2900 H 286.179 0.65727 -0.333414 0
M  V30 2901 H 288.821 1.26896 -1.41412 0
M  V30 2902 H 286.971 3.72889 -1.09023 0
M  V30 2903 H 288.643 2.91977 -3.57137 0
M  V30 2904 H 286.886 2.69163 -3.40197 0
M  V30 2905 H 287.557 4.32516 -3.42977 0
M  V30 2906 H 290.033 3.85727 -1.56057 0
M  V30 2907 H 288.909 5.23822 -1.64017 0
M  V30 2908 H 289.17 4.41968 -0.108068 0
M  V30 2909 N 288.23 0.939286 1.26551 0
M  V30 2910 C 289.177 0.446088 2.26448 0
M  V30 2911 C 290.147 -0.493234 1.58608 0
M  V30 2912 O 291.332 -0.409857 1.86346 0
M  V30 2913 C 288.472 -0.284375 3.43926 0
M  V30 2914 C 287.585 0.690399 4.26448 0
M  V30 2915 C 286.72 -0.0610712 5.31165 0
M  V30 2916 C 285.759 0.905649 6.05363 0
M  V30 2917 N 284.896 0.186055 7.01853 0
M  V30 2918 H 289.736 1.30291 2.68008 0
M  V30 2919 H 287.273 0.65371 1.31776 0
M  V30 2920 H 289.231 -0.724313 4.10864 0
M  V30 2921 H 287.861 -1.10535 3.03285 0
M  V30 2922 H 286.913 1.24885 3.59316 0
M  V30 2923 H 288.225 1.42873 4.779 0
M  V30 2924 H 287.379 -0.56038 6.04106 0
M  V30 2925 H 286.118 -0.832297 4.80546 0
M  V30 2926 H 285.123 1.4161 5.3125 0
M  V30 2927 H 286.348 1.67685 6.58072 0
M  V30 2928 H 284.294 -0.566714 6.53548 0
M  V30 2929 H 284.211 0.863752 7.51049 0
M  V30 2930 H 285.479 -0.292221 7.78952 0
M  V30 2931 N 289.708 -1.40897 0.706093 0
M  V30 2932 C 290.671 -2.29131 0.0562841 0
M  V30 2933 C 291.671 -1.44901 -0.697166 0
M  V30 2934 O 292.861 -1.65926 -0.530484 0
M  V30 2935 C 289.993 -3.27957 -0.93043 0
M  V30 2936 H 291.186 -2.88091 0.833284 0
M  V30 2937 H 288.739 -1.4906 0.470192 0
M  V30 2938 H 289.474 -2.73997 -1.73482 0
M  V30 2939 H 289.259 -3.90124 -0.393166 0
M  V30 2940 H 290.749 -3.94049 -1.38256 0
M  V30 2941 N 291.186 -0.45159 -1.50991 0
M  V30 2942 C 292.116 0.342898 -2.30969 0
M  V30 2943 C 293.097 1.00815 -1.37005 0
M  V30 2944 O 294.282 1.00907 -1.65926 0
M  V30 2945 C 291.412 1.43637 -3.16205 0
M  V30 2946 C 290.366 0.893818 -4.18563 0
M  V30 2947 C 289.692 2.08411 -4.92411 0
M  V30 2948 C 290.992 -0.0815568 -5.22236 0
M  V30 2949 H 292.686 -0.324556 -2.97636 0
M  V30 2950 H 290.232 -0.157531 -1.43136 0
M  V30 2951 H 292.185 1.9995 -3.70942 0
M  V30 2952 H 290.909 2.13232 -2.47386 0
M  V30 2953 H 289.568 0.352798 -3.64898 0
M  V30 2954 H 289.216 2.76658 -4.20082 0
M  V30 2955 H 288.916 1.72741 -5.61636 0
M  V30 2956 H 290.44 2.65251 -5.49976 0
M  V30 2957 H 291.854 0.391742 -5.7196 0
M  V30 2958 H 290.251 -0.351551 -5.99069 0
M  V30 2959 H 291.321 -1.01374 -4.74185 0
M  V30 2960 N 292.664 1.56529 -0.183458 0
M  V30 2961 C 293.911 1.97244 0.458357 0
M  V30 2962 C 294.239 1.06992 1.62428 0
M  V30 2963 O 293.494 0.106542 1.9541 0
M  V30 2964 C 293.793 3.43939 0.971637 0
M  V30 2965 C 293.459 4.5083 -0.0796784 0
M  V30 2966 C 292.121 4.79786 -0.368584 0
M  V30 2967 C 294.473 5.15138 -0.792638 0
M  V30 2968 C 291.801 5.70345 -1.37563 0
M  V30 2969 C 294.153 6.06784 -1.78875 0
M  V30 2970 C 292.817 6.34102 -2.08497 0
M  V30 2971 H 292.087 0.721768 0.167725 0
M  V30 2972 H 294.734 1.89472 -0.277976 0
M  V30 2973 H 293.039 3.48724 1.78602 0
M  V30 2974 H 294.736 3.72791 1.47744 0
M  V30 2975 H 291.326 4.28317 0.155668 0
M  V30 2976 H 295.51 4.92868 -0.582659 0
M  V30 2977 H 290.766 5.89789 -1.61118 0
M  V30 2978 H 294.94 6.55677 -2.3465 0
M  V30 2979 H 292.567 7.04074 -2.86678 0
M  V30 2980 N 294.142 -0.090211 1.57342 0
M  V30 2981 C 295.105 -1.09335 2.01441 0
M  V30 2982 C 296.105 -1.32666 0.908641 0
M  V30 2983 O 297.295 -1.28697 1.174 0
M  V30 2984 C 294.427 -2.44136 2.3793 0
M  V30 2985 H 295.62 -0.713662 2.91285 0
M  V30 2986 H 293.173 -0.335404 1.52659 0
M  V30 2987 H 293.908 -2.86972 1.51055 0
M  V30 2988 H 293.693 -2.28548 3.18603 0
M  V30 2989 H 295.183 -3.16277 2.72688 0
M  V30 2990 N 295.62 -1.53406 -0.361157 0
M  V30 2991 C 296.53 -1.83122 -1.4664 0
M  V30 2992 C 297.546 -0.719943 -1.58407 0
M  V30 2993 O 298.722 -1.01046 -1.74218 0
M  V30 2994 C 295.787 -2.01891 -2.81853 0
M  V30 2995 C 294.848 -3.25784 -2.79577 0
M  V30 2996 C 294.081 -3.43648 -4.0834 0
M  V30 2997 O 294.304 -2.65714 -5.0473 0
M  V30 2998 O 293.238 -4.37018 -4.13883 0
M  V30 2999 H 297.064 -2.7703 -1.24451 0
M  V30 3000 H 294.649 -1.38841 -0.551678 0
M  V30 3001 H 296.531 -2.15782 -3.61962 0
M  V30 3002 H 295.206 -1.11173 -3.0401 0
M  V30 3003 H 294.113 -3.17312 -1.98151 0
M  V30 3004 H 295.446 -4.16439 -2.62373 0
M  V30 3005 N 297.098 0.621204 -1.44841 0
M  V30 3006 C 298.046 1.75385 -1.52784 0
M  V30 3007 C 299.04 1.64639 -0.398779 0
M  V30 3008 O 300.246 1.70598 -0.574137 0
M  V30 3009 H 296.621 0.579193 -0.479625 0
M  V30 3010 H 298.592 1.6581 -2.48092 0
M  V30 3011 C 297.341 3.13742 -1.4987 0
M  V30 3012 H 296.664 3.22663 -2.36069 0
M  V30 3013 H 298.104 3.92861 -1.59487 0
M  V30 3014 C 296.563 3.36175 -0.220973 0
M  V30 3015 O 297.093 3.95469 0.704782 0
M  V30 3016 N 295.299 2.90348 -0.120963 0
M  V30 3017 H 294.846 2.42278 -0.875162 0
M  V30 3018 H 294.804 3.05732 0.733168 0
M  V30 3019 N 298.576 1.31904 0.862503 0
M  V30 3020 C 299.987 1.19803 1.43193 0
M  V30 3021 C 300.338 -0.192567 1.95253 0
M  V30 3022 O 299.463 -1.09081 1.86896 0
M  V30 3023 C 300.058 2.16883 2.60283 0
M  V30 3024 C 298.617 2.08692 3.13248 0
M  V30 3025 C 297.764 2.05691 1.85975 0
M  V30 3026 H 300.715 1.43846 0.670365 0
M  V30 3027 H 300.736 1.76278 3.37204 0
M  V30 3028 H 300.248 3.18083 2.22363 0
M  V30 3029 H 298.349 1.10713 3.55771 0
M  V30 3030 H 298.462 2.9815 3.75025 0
M  V30 3031 H 296.826 1.50814 2.05249 0
M  V30 3032 H 297.609 3.08659 1.50282 0
M  V30 3033 N 300.054 -1.07777 1.14986 0
M  V30 3034 C 301.302 -1.79934 0.920235 0
M  V30 3035 C 301.623 -1.86955 -0.554336 0
M  V30 3036 O 300.893 -1.36731 -1.40291 0
M  V30 3037 H 299.473 -0.666424 0.337473 0
M  V30 3038 H 302.135 -1.3027 1.44968 0
M  V30 3039 H 301.231 -2.82539 1.32583 0
M  V30 3040 N 301.532 -0.945985 -1.26051 0
M  V30 3041 C 302.442 -0.465633 -2.29933 0
M  V30 3042 C 303.458 0.462761 -1.67733 0
M  V30 3043 O 304.634 0.341118 -1.9849 0
M  V30 3044 C 301.699 0.256994 -3.45746 0
M  V30 3045 C 300.76 -0.708549 -4.23412 0
M  V30 3046 C 299.993 -0.0203135 -5.33696 0
M  V30 3047 O 300.216 1.19571 -5.57726 0
M  V30 3048 O 299.15 -0.701459 -5.97799 0
M  V30 3049 H 302.976 -1.32866 -2.73094 0
M  V30 3050 H 300.561 -0.712071 -1.31339 0
M  V30 3051 H 302.443 0.663852 -4.16138 0
M  V30 3052 H 301.118 1.09533 -3.04605 0
M  V30 3053 H 300.025 -1.16545 -3.55483 0
M  V30 3054 H 301.358 -1.51465 -4.68315 0
M  V30 3055 N 303.011 1.40521 -0.713556 0
M  V30 3056 C 304.26 2.00155 -0.249192 0
M  V30 3057 C 304.573 1.57224 1.16362 0
M  V30 3058 O 305.779 2.09542 1.72639 0
M  V30 3059 C 304.235 3.5773 -0.3946 0
M  V30 3060 C 303.843 4.09635 -1.81392 0
M  V30 3061 C 305.587 4.24499 0.00907364 0
M  V30 3062 C 303.494 5.59707 -1.91003 0
M  V30 3063 H 302.424 0.74868 -0.0894114 0
M  V30 3064 H 305.075 1.60784 -0.884352 0
M  V30 3065 H 303.457 3.94792 0.30911 0
M  V30 3066 H 304.631 3.83955 -2.54785 0
M  V30 3067 H 302.946 3.55456 -2.16888 0
M  V30 3068 H 305.543 5.34683 -0.0420404 0
M  V30 3069 H 305.886 4.02824 1.05065 0
M  V30 3070 H 306.419 3.92536 -0.645007 0
M  V30 3071 H 303.158 5.86234 -2.93275 0
M  V30 3072 H 302.678 5.87258 -1.22019 0
M  V30 3073 H 304.357 6.24776 -1.6812 0
M  V30 3074 N 304.489 0.459591 1.5075 0
M  V30 3075 C 305.452 -0.329093 2.26825 0
M  V30 3076 C 306.452 -0.930481 1.31144 0
M  V30 3077 O 307.642 -0.801453 1.54669 0
M  V30 3078 C 304.774 -1.46768 3.07688 0
M  V30 3079 H 305.967 0.337924 2.9799 0
M  V30 3080 H 303.52 0.213336 1.54837 0
M  V30 3081 H 304.255 -2.17009 2.40993 0
M  V30 3082 H 304.04 -1.04238 3.77991 0
M  V30 3083 H 305.53 -2.02433 3.65254 0
M  V30 3084 N 305.967 -1.56429 0.191757 0
M  V30 3085 C 307.215 -1.97095 -0.447006 0
M  V30 3086 C 307.536 -1.07967 -1.62383 0
M  V30 3087 O 306.806 -0.150248 -1.95323 0
M  V30 3088 H 305.386 -0.727832 -0.168135 0
M  V30 3089 H 308.048 -1.92911 0.27771 0
M  V30 3090 H 307.144 -3.01848 -0.793371 0
M  V30 3091 N 307.445 0.0818655 -1.57387 0
M  V30 3092 C 308.691 0.784074 -1.8703 0
M  V30 3093 C 309.024 1.77729 -0.782689 0
M  V30 3094 O 308.299 1.93384 0.208051 0
M  V30 3095 C 308.582 1.50105 -3.27323 0
M  V30 3096 C 308.435 0.524925 -4.46727 0
M  V30 3097 C 309.754 2.44843 -3.65705 0
M  V30 3098 H 306.873 0.283582 -0.680257 0
M  V30 3099 H 309.515 0.0474352 -1.89941 0
M  V30 3100 H 307.665 2.12897 -3.24972 0
M  V30 3101 H 309.337 -0.0970111 -4.61198 0
M  V30 3102 H 307.58 -0.160606 -4.33503 0
M  V30 3103 H 308.251 1.064 -5.41648 0
M  V30 3104 H 310.727 1.92135 -3.69085 0
M  V30 3105 H 309.603 2.92018 -4.64776 0
M  V30 3106 H 309.864 3.29197 -2.95096 0
M  V30 3107 N 308.923 1.53595 0.353017 0
M  V30 3108 C 310.172 1.69603 1.09168 0
M  V30 3109 C 310.485 0.460925 1.90092 0
M  V30 3110 O 311.691 0.501774 2.66823 0
M  V30 3111 C 310.147 2.99872 1.9901 0
M  V30 3112 C 309.755 4.30687 1.23339 0
M  V30 3113 C 311.499 3.25246 2.72792 0
M  V30 3114 C 309.406 5.52036 2.12156 0
M  V30 3115 H 308.336 0.631966 0.411261 0
M  V30 3116 H 310.987 1.80096 0.351802 0
M  V30 3117 H 309.369 2.83212 2.7678 0
M  V30 3118 H 310.543 4.58019 0.505456 0
M  V30 3119 H 308.858 4.11853 0.613663 0
M  V30 3120 H 311.455 4.13095 3.39495 0
M  V30 3121 H 311.798 2.41846 3.38846 0
M  V30 3122 H 312.331 3.42638 2.021 0
M  V30 3123 H 309.07 6.37951 1.50659 0
M  V30 3124 H 308.59 5.28966 2.82764 0
M  V30 3125 H 310.269 5.87313 2.71427 0
M  V30 3126 N 310.401 -0.613514 1.45168 0
M  V30 3127 C 311.331 -1.7354 1.56225 0
M  V30 3128 C 312.312 -1.64981 0.41414 0
M  V30 3129 O 313.497 -1.83472 0.636526 0
M  V30 3130 C 310.627 -3.12128 1.52295 0
M  V30 3131 C 309.581 -3.35491 2.65762 0
M  V30 3132 C 308.907 -4.74291 2.46885 0
M  V30 3133 C 310.207 -3.26325 4.0781 0
M  V30 3134 H 311.901 -1.64543 2.50132 0
M  V30 3135 H 309.447 -0.790185 1.20383 0
M  V30 3136 H 311.4 -3.90404 1.58628 0
M  V30 3137 H 310.124 -3.2195 0.549139 0
M  V30 3138 H 308.783 -2.59603 2.58847 0
M  V30 3139 H 308.431 -4.80839 1.47657 0
M  V30 3140 H 308.131 -4.9088 3.22972 0
M  V30 3141 H 309.655 -5.54775 2.55063 0
M  V30 3142 H 311.069 -3.94483 4.16 0
M  V30 3143 H 309.466 -3.54445 4.8424 0
M  V30 3144 H 310.536 -2.23855 4.30136 0
M  V30 3145 N 311.879 -1.3236 -0.855495 0
M  V30 3146 C 312.789 -1.23221 -1.99634 0
M  V30 3147 C 313.805 -0.145983 -1.73387 0
M  V30 3148 O 314.981 -0.366502 -1.98037 0
M  V30 3149 C 312.046 -0.954782 -3.33294 0
M  V30 3150 C 311.107 -2.12937 -3.72769 0
M  V30 3151 C 310.34 -1.86508 -5.00051 0
M  V30 3152 O 310.563 -0.807231 -5.64659 0
M  V30 3153 O 309.497 -2.72591 -5.36636 0
M  V30 3154 H 313.323 -2.19126 -2.1028 0
M  V30 3155 H 310.908 -1.12241 -0.986018 0
M  V30 3156 H 312.79 -0.816519 -4.13414 0
M  V30 3157 H 311.465 -0.0258854 -3.2369 0
M  V30 3158 H 310.372 -2.3231 -2.93228 0
M  V30 3159 H 311.705 -3.04102 -3.87018 0
M  V30 3160 N 313.357 1.07166 -1.15556 0
M  V30 3161 C 314.768 1.6127 -0.940693 0
M  V30 3162 C 315.119 1.89251 0.517551 0
M  V30 3163 O 314.244 1.65937 1.38903 0
M  V30 3164 C 314.839 2.92993 -1.7012 0
M  V30 3165 C 313.398 3.43832 -1.53156 0
M  V30 3166 C 312.545 2.1786 -1.71558 0
M  V30 3167 H 315.496 0.90229 -1.30554 0
M  V30 3168 H 315.517 3.62007 -1.17181 0
M  V30 3169 H 315.029 2.72596 -2.76248 0
M  V30 3170 H 313.13 3.69307 -0.494294 0
M  V30 3171 H 313.243 4.19747 -2.30975 0
M  V30 3172 H 311.607 2.2765 -1.14225 0
M  V30 3173 H 312.39 1.99956 -2.79056 0
M  V30 3174 N 314.835 0.952656 1.25548 0
M  V30 3175 C 316.084 0.602053 1.92505 0
M  V30 3176 C 316.397 -0.864663 1.75451 0
M  V30 3177 O 317.603 -1.32514 2.36965 0
M  V30 3178 C 316.059 1.02607 3.44963 0
M  V30 3179 C 315.667 2.51519 3.70732 0
M  V30 3180 C 317.411 0.747905 4.1786 0
M  V30 3181 C 315.318 2.87732 5.16686 0
M  V30 3182 H 314.248 0.22146 0.720744 0
M  V30 3183 H 316.899 1.15684 1.42441 0
M  V30 3184 H 315.281 0.399712 3.93978 0
M  V30 3185 H 316.455 3.19157 3.32378 0
M  V30 3186 H 314.77 2.76786 3.11092 0
M  V30 3187 H 317.367 0.994647 5.25367 0
M  V30 3188 H 317.71 -0.315629 4.15102 0
M  V30 3189 H 318.243 1.33452 3.74747 0
M  V30 3190 H 314.982 3.93095 5.24554 0
M  V30 3191 H 314.502 2.24765 5.56094 0
M  V30 3192 H 316.181 2.76817 5.84792 0
M  V30 3193 N 316.313 -1.40141 0.720998 0
M  V30 3194 C 317.559 -2.01084 0.263231 0
M  V30 3195 C 317.892 -1.57052 -1.14229 0
M  V30 3196 O 317.167 -0.793027 -1.77599 0
M  V30 3197 C 317.45 -3.58401 0.349344 0
M  V30 3198 C 317.303 -4.12491 1.79363 0
M  V30 3199 C 318.622 -4.39231 -0.276351 0
M  V30 3200 H 315.741 -0.730572 0.0971228 0
M  V30 3201 H 318.383 -1.66543 0.914518 0
M  V30 3202 H 316.533 -3.87958 -0.205165 0
M  V30 3203 H 318.205 -3.93711 2.40394 0
M  V30 3204 H 316.448 -3.66576 2.31958 0
M  V30 3205 H 317.119 -5.21646 1.80524 0
M  V30 3206 H 319.595 -4.15637 0.196184 0
M  V30 3207 H 318.471 -5.48586 -0.185681 0
M  V30 3208 H 318.732 -4.20643 -1.36059 0
M  V30 3209 N 317.792 -0.46758 -1.50504 0
M  V30 3210 C 319.04 0.0884469 -2.01906 0
M  V30 3211 C 319.361 1.40532 -1.35188 0
M  V30 3212 O 318.631 1.89515 -0.496079 0
M  V30 3213 H 317.211 0.0356765 -0.746148 0
M  V30 3214 H 319.873 -0.6172 -1.84869 0
M  V30 3215 H 318.969 0.2425 -3.11156 0
M  V30 3216 N 319.27 1.56325 -0.20005 0
M  V30 3217 C 320.218 2.20666 0.735482 0
M  V30 3218 C 321.212 1.17934 1.21605 0
M  V30 3219 O 322.418 1.36068 1.17837 0
M  V30 3220 H 318.793 0.70725 0.255542 0
M  V30 3221 H 320.764 2.9792 0.169166 0
M  V30 3222 C 319.513 2.88391 1.94232 0
M  V30 3223 H 318.836 3.67185 1.58161 0
M  V30 3224 H 320.276 3.3684 2.57517 0
M  V30 3225 C 318.735 1.89692 2.78421 0
M  V30 3226 O 319.265 1.40032 3.76502 0
M  V30 3227 N 317.471 1.57813 2.44015 0
M  V30 3228 H 317.018 1.9839 1.64314 0
M  V30 3229 H 316.976 0.920325 3.00628 0
M  V30 3230 N 320.748 -0.0735177 1.57428 0
M  V30 3231 C 321.973 -0.789787 1.91774 0
M  V30 3232 C 322.398 -1.70413 0.796306 0
M  V30 3233 O 321.756 -1.79555 -0.250961 0
M  V30 3234 C 321.804 -1.5609 3.25067 0
M  V30 3235 O 320.908 -2.67144 3.14178 0
M  V30 3236 H 320.249 -0.215582 0.628029 0
M  V30 3237 H 322.779 -0.0422781 2.04556 0
M  V30 3238 H 322.789 -1.94052 3.58898 0
M  V30 3239 H 321.464 -0.890015 4.06265 0
M  V30 3240 H 320.041 -2.32052 2.91901 0
M  V30 3241 N 322.226 -1.5378 -0.344866 0
M  V30 3242 C 323.474 -1.70625 -1.08311 0
M  V30 3243 C 323.795 -0.471447 -1.89215 0
M  V30 3244 O 323.065 0.514616 -1.8902 0
M  V30 3245 H 321.645 -0.629058 -0.402859 0
M  V30 3246 H 324.307 -1.9103 -0.386459 0
M  V30 3247 H 323.403 -2.57656 -1.76124 0
M  V30 3248 N 323.704 0.605807 -1.45491 0
M  V30 3249 C 324.951 1.36476 -1.49601 0
M  V30 3250 C 325.279 1.94007 -0.138452 0
M  V30 3251 O 324.534 1.75638 0.863114 0
M  V30 3252 C 324.833 2.53012 -2.52428 0
M  V30 3253 C 324.499 2.13617 -3.97087 0
M  V30 3254 C 323.161 2.02587 -4.36477 0
M  V30 3255 C 325.513 1.82899 -4.88055 0
M  V30 3256 C 322.841 1.59064 -5.64726 0
M  V30 3257 C 325.193 1.40861 -6.16718 0
M  V30 3258 C 323.857 1.28391 -6.55036 0
M  V30 3259 H 323.127 0.499402 -0.547429 0
M  V30 3260 H 325.774 0.684546 -1.78847 0
M  V30 3261 H 324.079 3.26379 -2.16758 0
M  V30 3262 H 325.776 3.1124 -2.52845 0
M  V30 3263 H 322.366 2.23129 -3.65939 0
M  V30 3264 H 326.55 1.90317 -4.58359 0
M  V30 3265 H 321.806 1.48034 -5.93208 0
M  V30 3266 H 325.98 1.16138 -6.86648 0
M  V30 3267 H 323.607 0.944403 -7.54311 0
M  V30 3268 N 325.182 1.32811 0.848464 0
M  V30 3269 C 326.431 1.23075 1.59798 0
M  V30 3270 C 326.744 -0.204419 1.94529 0
M  V30 3271 O 327.95 -0.423701 2.68173 0
M  V30 3272 C 326.406 2.15594 2.88179 0
M  V30 3273 C 326.014 3.64228 2.60849 0
M  V30 3274 C 327.758 2.14709 3.66197 0
M  V30 3275 C 325.665 4.48689 3.85269 0
M  V30 3276 H 324.595 0.457091 0.599653 0
M  V30 3277 H 327.246 1.57813 0.936342 0
M  V30 3278 H 325.628 1.73778 3.55833 0
M  V30 3279 H 326.802 4.14424 2.01467 0
M  V30 3280 H 325.117 3.67306 1.96151 0
M  V30 3281 H 327.714 2.75046 4.58534 0
M  V30 3282 H 328.057 1.13966 4.00397 0
M  V30 3283 H 328.59 2.54837 3.05455 0
M  V30 3284 H 325.329 5.5027 3.56207 0
M  V30 3285 H 324.849 4.03241 4.44024 0
M  V30 3286 H 326.528 4.62006 4.52946 0
M  V30 3287 N 326.66 -1.06551 1.16123 0
M  V30 3288 C 327.906 -1.79567 0.94252 0
M  V30 3289 C 328.239 -1.86869 -0.528547 0
M  V30 3290 O 327.514 -1.35838 -1.39206 0
M  V30 3291 C 327.797 -3.24195 1.56747 0
M  V30 3292 C 327.65 -3.24989 3.10969 0
M  V30 3293 C 328.969 -4.21678 1.25998 0
M  V30 3294 H 326.088 -0.651883 0.343828 0
M  V30 3295 H 328.73 -1.2463 1.43413 0
M  V30 3296 H 326.88 -3.71107 1.14942 0
M  V30 3297 H 328.552 -2.86258 3.61737 0
M  V30 3298 H 326.795 -2.63716 3.44436 0
M  V30 3299 H 327.466 -4.27005 3.49815 0
M  V30 3300 H 329.942 -3.83196 1.62174 0
M  V30 3301 H 328.818 -5.21146 1.7233 0
M  V30 3302 H 329.079 -4.4174 0.178367 0
M  V30 3303 N 328.138 -0.959301 -1.25041 0
M  V30 3304 C 329.549 -0.65667 -1.74771 0
M  V30 3305 C 329.9 0.827852 -1.77879 0
M  V30 3306 O 329.025 1.64783 -1.40269 0
M  V30 3307 C 329.62 -1.1853 -3.1739 0
M  V30 3308 C 328.179 -0.932734 -3.6466 0
M  V30 3309 C 327.326 -1.32558 -2.43564 0
M  V30 3310 H 330.277 -1.13558 -1.10862 0
M  V30 3311 H 330.298 -0.547582 -3.76539 0
M  V30 3312 H 329.81 -2.26576 -3.15095 0
M  V30 3313 H 327.911 0.13257 -3.72364 0
M  V30 3314 H 328.024 -1.57248 -4.52559 0
M  V30 3315 H 326.388 -0.743956 -2.43593 0
M  V30 3316 H 327.171 -2.41537 -2.43957 0
M  V30 3317 N 329.616 1.39756 -0.72842 0
M  V30 3318 C 330.893 1.94574 -0.200079 0
M  V30 3319 C 331.273 1.66569 1.29684 0
M  V30 3320 O 330.621 0.990326 2.05924 0
M  V30 3321 C 330.831 3.45004 -0.526608 0
M  V30 3322 C 332.179 4.21965 -0.472318 0
M  V30 3323 O 333.203 3.53173 -0.463413 0
M  V30 3324 O 332.062 5.44552 -0.461075 0
M  V30 3325 H 329.156 0.826289 -0.0342851 0
M  V30 3326 H 331.702 1.49293 -0.806829 0
M  V30 3327 H 330.474 3.58796 -1.56144 0
M  V30 3328 H 330.097 3.97449 0.109449 0
M  V30 3329 N 331.094 0.475555 1.50254 0
M  V30 3330 C 332.057 -0.305016 2.27161 0
M  V30 3331 C 333.057 -0.916519 1.32123 0
M  V30 3332 O 334.247 -0.785003 1.5551 0
M  V30 3333 C 331.379 -1.43496 3.09227 0
M  V30 3334 H 332.572 0.369511 2.97615 0
M  V30 3335 H 330.125 0.229747 1.54602 0
M  V30 3336 H 330.86 -2.14441 2.43281 0
M  V30 3337 H 330.645 -1.00223 3.79075 0
M  V30 3338 H 332.135 -1.98548 3.67381 0
M  V30 3339 N 332.573 -1.56217 0.208337 0
M  V30 3340 C 333.821 -1.97558 -0.426076 0
M  V30 3341 C 334.142 -1.09683 -1.61229 0
M  V30 3342 O 333.412 -0.170956 -1.95153 0
M  V30 3343 H 331.992 -0.729575 -0.160405 0
M  V30 3344 H 334.654 -1.92606 0.298155 0
M  V30 3345 H 333.75 -3.02672 -0.761312 0
M  V30 3346 N 334.051 0.0651679 -1.57465 0
M  V30 3347 C 335.298 0.763063 -1.87573 0
M  V30 3348 C 335.626 1.77242 -0.800961 0
M  V30 3349 O 334.881 1.94651 0.202316 0
M  V30 3350 C 335.18 1.50081 -3.24362 0
M  V30 3351 C 334.846 0.630816 -4.46466 0
M  V30 3352 C 333.508 0.391082 -4.79608 0
M  V30 3353 C 335.86 0.0279465 -5.21193 0
M  V30 3354 C 333.188 -0.460894 -5.84887 0
M  V30 3355 C 335.54 -0.811522 -6.27373 0
M  V30 3356 C 334.204 -1.06106 -6.59013 0
M  V30 3357 H 333.474 0.279224 -0.686378 0
M  V30 3358 H 336.121 0.0236726 -1.91485 0
M  V30 3359 H 334.426 2.31258 -3.16271 0
M  V30 3360 H 336.123 2.04571 -3.44894 0
M  V30 3361 H 332.713 0.8278 -4.2053 0
M  V30 3362 H 336.897 0.200262 -4.95896 0
M  V30 3363 H 332.153 -0.662907 -6.07796 0
M  V30 3364 H 336.327 -1.28537 -6.84435 0
M  V30 3365 H 333.954 -1.723 -7.40417 0
M  V30 3366 N 335.529 1.53961 0.336706 0
M  V30 3367 C 336.459 1.85417 1.41925 0
M  V30 3368 C 337.44 0.709856 1.5458 0
M  V30 3369 O 338.625 0.962396 1.68676 0
M  V30 3370 C 335.755 2.06985 2.78881 0
M  V30 3371 C 334.709 3.22813 2.81026 0
M  V30 3372 C 334.035 3.29727 4.20932 0
M  V30 3373 C 335.335 4.60767 2.45949 0
M  V30 3374 H 337.029 2.76079 1.15848 0
M  V30 3375 H 334.575 1.32839 0.555859 0
M  V30 3376 H 336.528 2.27575 3.54665 0
M  V30 3377 H 335.252 1.13061 3.06406 0
M  V30 3378 H 333.911 3.0209 2.07695 0
M  V30 3379 H 333.559 2.33385 4.45579 0
M  V30 3380 H 333.259 4.07566 4.23277 0
M  V30 3381 H 334.783 3.52536 4.98549 0
M  V30 3382 H 336.197 4.81325 3.11446 0
M  V30 3383 H 334.594 5.4106 2.59566 0
M  V30 3384 H 335.664 4.6391 1.41122 0
M  V30 3385 N 337.007 -0.598083 1.45811 0
M  V30 3386 C 337.917 -1.73632 1.57763 0
M  V30 3387 C 338.933 -1.67763 0.461676 0
M  V30 3388 O 340.109 -1.87949 0.723685 0
M  V30 3389 C 337.174 -3.10114 1.55018 0
M  V30 3390 C 336.235 -3.27364 2.77726 0
M  V30 3391 C 335.468 -4.57334 2.75102 0
M  V30 3392 O 335.691 -5.40258 1.8297 0
M  V30 3393 O 334.625 -4.77502 3.66437 0
M  V30 3394 H 338.451 -1.66498 2.53992 0
M  V30 3395 H 336.036 -0.763308 1.28429 0
M  V30 3396 H 337.918 -3.9141 1.56129 0
M  V30 3397 H 336.593 -3.17718 0.619431 0
M  V30 3398 H 335.5 -2.45619 2.82174 0
M  V30 3399 H 336.833 -3.24641 3.69958 0
M  V30 3400 N 338.485 -1.33259 -0.841409 0
M  V30 3401 C 339.733 -1.24326 -1.59334 0
M  V30 3402 C 340.054 0.191564 -1.94057 0
M  V30 3403 O 339.324 1.11967 -1.60749 0
M  V30 3404 H 337.904 -0.457174 -0.590763 0
M  V30 3405 H 340.566 -1.66947 -1.00571 0
M  V30 3406 H 339.662 -1.8352 -2.52442 0
M  V30 3407 N 339.963 1.05934 -1.16686 0
M  V30 3408 C 340.893 2.1546 -0.899949 0
M  V30 3409 C 341.874 1.69391 0.155154 0
M  V30 3410 O 343.059 1.94199 0.00648693 0
M  V30 3411 C 340.189 3.44939 -0.404241 0
M  V30 3412 C 339.143 4.04536 -1.39767 0
M  V30 3413 C 338.469 5.29268 -0.760216 0
M  V30 3414 C 339.769 4.42893 -2.76845 0
M  V30 3415 H 341.463 2.38046 -1.81588 0
M  V30 3416 H 339.009 1.14404 -0.874514 0
M  V30 3417 H 340.962 4.20901 -0.204971 0
M  V30 3418 H 339.686 3.21983 0.547206 0
M  V30 3419 H 338.345 3.30635 -1.58355 0
M  V30 3420 H 337.993 5.02611 0.197831 0
M  V30 3421 H 337.693 5.70101 -1.42332 0
M  V30 3422 H 339.217 6.07924 -0.57105 0
M  V30 3423 H 340.631 5.09921 -2.62019 0
M  V30 3424 H 339.028 4.94721 -3.39663 0
M  V30 3425 H 340.098 3.53584 -3.31823 0
M  V30 3426 N 341.441 0.965919 1.2453 0
M  V30 3427 C 342.857 0.67216 1.44756 0
M  V30 3428 C 343.057 -0.766609 1.86347 0
M  V30 3429 O 342.113 -1.5407 2.00047 0
M  V30 3430 C 343.426 1.65473 2.51076 0
M  V30 3431 C 344.974 1.66716 2.64905 0
M  V30 3432 C 345.449 2.63766 3.74421 0
M  V30 3433 N 346.94 2.62198 3.81846 0
M  V30 3434 C 347.675 3.33966 4.66106 0
M  V30 3435 N 347.171 4.15245 5.54566 0
M  V30 3436 N 348.964 3.22799 4.60171 0
M  V30 3437 H 341.115 1.89553 0.958293 0
M  V30 3438 H 343.378 0.815979 0.482579 0
M  V30 3439 H 343.084 2.68296 2.27399 0
M  V30 3440 H 342.958 1.4261 3.49202 0
M  V30 3441 H 345.345 0.646057 2.87941 0
M  V30 3442 H 345.426 1.93642 1.67142 0
M  V30 3443 H 345.07 3.6601 3.52135 0
M  V30 3444 H 345 2.34121 4.71694 0
M  V30 3445 H 347.491 2.032 3.18619 0
M  V30 3446 H 347.804 4.66898 6.15814 0
M  V30 3447 H 346.149 4.1934 5.54237 0
M  V30 3448 H 349.34 2.58764 3.90075 0
M  V30 3449 H 349.513 3.78994 5.25612 0
M  V30 3450 N 342.919 -1.39368 0.735821 0
M  V30 3451 C 343.829 -2.34395 0.0979693 0
M  V30 3452 C 344.845 -1.58361 -0.720968 0
M  V30 3453 O 346.021 -1.90648 -0.649245 0
M  V30 3454 C 343.086 -3.37393 -0.797916 0
M  V30 3455 C 342.147 -4.29287 0.0333662 0
M  V30 3456 C 341.38 -5.27365 -0.819854 0
M  V30 3457 O 341.603 -5.31959 -2.05855 0
M  V30 3458 O 340.537 -6.01389 -0.248079 0
M  V30 3459 H 344.363 -2.90601 0.882315 0
M  V30 3460 H 341.948 -1.40909 0.4965 0
M  V30 3461 H 343.83 -4.00505 -1.31048 0
M  V30 3462 H 342.505 -2.83571 -1.56106 0
M  V30 3463 H 341.412 -3.69395 0.591475 0
M  V30 3464 H 342.745 -4.86317 0.758752 0
M  V30 3465 N 344.397 -0.483516 -1.5 0
M  V30 3466 C 345.646 0.0689102 -2.01582 0
M  V30 3467 C 345.959 1.39655 -1.36952 0
M  V30 3468 O 347.165 2.03465 -1.79762 0
M  V30 3469 C 345.621 0.173302 -3.59483 0
M  V30 3470 C 345.229 -1.14665 -4.33077 0
M  V30 3471 C 346.973 0.677024 -4.19066 0
M  V30 3472 C 344.88 -1.00537 -5.82792 0
M  V30 3473 H 343.81 0.0295277 -0.753422 0
M  V30 3474 H 346.461 -0.620295 -1.72698 0
M  V30 3475 H 344.843 0.926569 -3.85007 0
M  V30 3476 H 346.017 -1.91184 -4.19268 0
M  V30 3477 H 344.332 -1.58244 -3.85159 0
M  V30 3478 H 346.929 0.799952 -5.28682 0
M  V30 3479 H 347.272 1.67151 -3.81269 0
M  V30 3480 H 347.805 -0.0192083 -3.97795 0
M  V30 3481 H 344.544 -1.9736 -6.25083 0
M  V30 3482 H 344.064 -0.280776 -5.99142 0
M  V30 3483 H 345.743 -0.677 -6.43448 0
M  V30 3484 N 345.875 1.56104 -0.216619 0
M  V30 3485 C 347.103 2.02563 0.421413 0
M  V30 3486 C 347.518 1.0965 1.53695 0
M  V30 3487 O 346.875 0.10521 1.82196 0
M  V30 3488 C 346.926 3.48584 0.957665 0
M  V30 3489 O 346.647 4.37953 -0.113389 0
M  V30 3490 C 348.148 4.10664 1.66943 0
M  V30 3491 H 345.368 0.662944 0.103665 0
M  V30 3492 H 347.912 2.01793 -0.331629 0
M  V30 3493 H 346.067 3.49985 1.661 0
M  V30 3494 H 346.481 5.23704 0.288932 0
M  V30 3495 H 347.955 5.14622 1.99671 0
M  V30 3496 H 348.432 3.55373 2.58083 0
M  V30 3497 H 349.038 4.13098 1.01142 0
M  V30 3498 N 347.353 -0.0568162 1.57498 0
M  V30 3499 C 348.283 -1.06593 2.0775 0
M  V30 3500 C 349.264 -1.39448 0.974082 0
M  V30 3501 O 350.449 -1.48815 1.24771 0
M  V30 3502 C 347.579 -2.37509 2.5339 0
M  V30 3503 C 346.533 -2.1897 3.67745 0
M  V30 3504 C 345.859 -3.55402 3.99492 0
M  V30 3505 C 347.159 -1.59859 4.97235 0
M  V30 3506 H 348.853 -0.647706 2.9231 0
M  V30 3507 H 346.399 -0.310116 1.40621 0
M  V30 3508 H 348.352 -3.08409 2.87162 0
M  V30 3509 H 347.076 -2.8134 1.65878 0
M  V30 3510 H 345.735 -1.50508 3.3428 0
M  V30 3511 H 345.383 -3.9683 3.09088 0
M  V30 3512 H 345.083 -3.43831 4.76502 0
M  V30 3513 H 346.607 -4.27708 4.35773 0
M  V30 3514 H 348.021 -2.20642 5.29141 0
M  V30 3515 H 346.418 -1.58942 5.78669 0
M  V30 3516 H 347.488 -0.561506 4.81638 0
M  V30 3517 N 348.832 -1.54138 -0.328536 0
M  V30 3518 C 349.742 -1.86192 -1.42723 0
M  V30 3519 C 350.758 -0.753382 -1.56844 0
M  V30 3520 O 351.934 -1.04718 -1.72035 0
M  V30 3521 C 348.999 -2.07824 -2.77507 0
M  V30 3522 C 348.06 -3.31641 -2.72603 0
M  V30 3523 C 347.293 -3.52232 -4.00959 0
M  V30 3524 O 347.516 -2.7636 -4.9898 0
M  V30 3525 O 346.45 -4.45699 -4.0452 0
M  V30 3526 H 350.276 -2.79608 -1.18547 0
M  V30 3527 H 347.861 -1.3998 -0.522104 0
M  V30 3528 H 349.743 -2.23411 -3.57303 0
M  V30 3529 H 348.418 -1.17596 -3.01584 0
M  V30 3530 H 347.325 -3.21444 -1.91376 0
M  V30 3531 H 348.658 -4.2191 -2.53481 0
M  V30 3532 N 350.31 0.590341 -1.46126 0
M  V30 3533 C 351.26 1.69466 -1.5253 0
M  V30 3534 C 352.244 1.56179 -0.386917 0
M  V30 3535 O 353.436 1.65223 -0.634858 0
M  V30 3536 C 350.565 3.08245 -1.5113 0
M  V30 3537 C 349.651 3.26856 -2.70233 0
M  V30 3538 N 350.042 3.15657 -3.95214 0
M  V30 3539 C 348.34 3.57775 -2.66296 0
M  V30 3540 C 349.041 3.36066 -4.74799 0
M  V30 3541 N 348.017 3.60865 -4.06543 0
M  V30 3542 H 351.819 1.59326 -2.46966 0
M  V30 3543 H 349.333 0.79414 -1.41659 0
M  V30 3544 H 351.33 3.87492 -1.53804 0
M  V30 3545 H 349.99 3.19521 -0.577636 0
M  V30 3546 H 351.001 2.93686 -4.26578 0
M  V30 3547 H 347.678 3.75782 -1.81918 0
M  V30 3548 H 349.068 3.32655 -5.83772 0
M  V30 3549 N 351.788 1.33704 0.83433 0
M  V30 3550 C 353.065 1.16011 1.57483 0
M  V30 3551 C 353.445 -0.27176 2.09343 0
M  V30 3552 O 352.793 -1.27146 1.89858 0
M  V30 3553 C 353.003 2.20507 2.70514 0
M  V30 3554 C 354.351 2.54898 3.39577 0
M  V30 3555 O 355.375 2.19209 2.80759 0
M  V30 3556 O 354.234 3.16158 4.45765 0
M  V30 3557 H 351.328 0.448992 0.694503 0
M  V30 3558 H 353.874 1.453 0.876691 0
M  V30 3559 H 352.646 3.16667 2.29865 0
M  V30 3560 H 352.269 1.92329 3.47987 0
M  V30 3561 N 353.266 -1.05314 1.17247 0
M  V30 3562 C 354.229 -2.112 0.890357 0
M  V30 3563 C 355.229 -1.60359 -0.118943 0
M  V30 3564 O 356.419 -1.73833 0.113086 0
M  V30 3565 C 353.551 -3.39266 0.333422 0
M  V30 3566 H 354.744 -2.37659 1.82916 0
M  V30 3567 H 352.297 -1.21538 0.982758 0
M  V30 3568 H 353.032 -3.18462 -0.612587 0
M  V30 3569 H 352.817 -3.77477 1.06082 0
M  V30 3570 H 354.307 -4.17315 0.154322 0
M  V30 3571 N 354.744 -0.972509 -1.24016 0
M  V30 3572 C 355.674 -0.525548 -2.27509 0
M  V30 3573 C 356.655 0.437262 -1.64384 0
M  V30 3574 O 357.84 0.332343 -1.91335 0
M  V30 3575 C 354.97 0.180448 -3.46831 0
M  V30 3576 C 353.924 -0.698859 -4.22256 0
M  V30 3577 C 353.25 0.138903 -5.3452 0
M  V30 3578 C 354.55 -1.98582 -4.83076 0
M  V30 3579 H 356.244 -1.39058 -2.65148 0
M  V30 3580 H 353.79 -0.67009 -1.27459 0
M  V30 3581 H 355.743 0.504387 -4.18371 0
M  V30 3582 H 354.467 1.07987 -3.08231 0
M  V30 3583 H 353.126 -1.00614 -3.52523 0
M  V30 3584 H 352.774 1.03862 -4.9216 0
M  V30 3585 H 352.474 -0.446259 -5.85903 0
M  V30 3586 H 353.998 0.457404 -6.08884 0
M  V30 3587 H 355.412 -1.72715 -5.46665 0
M  V30 3588 H 353.809 -2.5181 -5.44713 0
M  V30 3589 H 354.879 -2.67769 -4.04262 0
M  V30 3590 N 356.222 1.38976 -0.743202 0
M  V30 3591 C 357.152 2.33171 -0.123873 0
M  V30 3592 C 358.133 1.54336 0.71516 0
M  V30 3593 O 359.318 1.82696 0.658467 0
M  V30 3594 C 356.448 3.38474 0.777978 0
M  V30 3595 C 355.402 4.27979 0.0424758 0
M  V30 3596 C 354.728 5.2405 1.06189 0
M  V30 3597 C 356.028 5.10155 -1.1198 0
M  V30 3598 H 357.722 2.85213 -0.910709 0
M  V30 3599 H 355.268 1.37133 -0.439388 0
M  V30 3600 H 357.221 4.03328 1.22084 0
M  V30 3601 H 355.945 2.84891 1.59702 0
M  V30 3602 H 354.604 3.64616 -0.380853 0
M  V30 3603 H 354.252 4.66758 1.87472 0
M  V30 3604 H 353.952 5.84785 0.574485 0
M  V30 3605 H 355.476 5.9178 1.50428 0
M  V30 3606 H 356.89 5.68307 -0.75499 0
M  V30 3607 H 355.287 5.80073 -1.53738 0
M  V30 3608 H 356.357 4.44504 -1.93764 0
M  V30 3609 N 357.7 0.491464 1.49741 0
M  V30 3610 C 358.946 -0.0565092 2.02721 0
M  V30 3611 C 359.279 -1.37522 1.37118 0
M  V30 3612 O 358.554 -1.87866 0.503645 0
M  V30 3613 C 358.837 -0.219051 3.59433 0
M  V30 3614 C 358.69 1.12211 4.35579 0
M  V30 3615 C 360.009 -0.964157 4.29409 0
M  V30 3616 H 357.128 -0.0190627 0.736753 0
M  V30 3617 H 359.77 0.641021 1.7886 0
M  V30 3618 H 357.92 -0.813165 3.79895 0
M  V30 3619 H 359.592 1.75437 4.26637 0
M  V30 3620 H 357.835 1.71377 3.98513 0
M  V30 3621 H 358.506 0.961794 5.43556 0
M  V30 3622 H 360.982 -0.460378 4.13545 0
M  V30 3623 H 359.858 -1.04671 5.38828 0
M  V30 3624 H 360.119 -2.00563 3.93988 0
M  V30 3625 N 359.178 -1.55987 0.224894 0
M  V30 3626 C 360.425 -1.9839 -0.4059 0
M  V30 3627 C 360.753 -1.11261 -1.59535 0
M  V30 3628 O 360.008 -0.158314 -1.95059 0
M  V30 3629 C 360.307 -3.46394 -0.880106 0
M  V30 3630 C 359.973 -4.5046 0.19918 0
M  V30 3631 C 358.635 -4.7864 0.495661 0
M  V30 3632 C 360.987 -5.12855 0.928939 0
M  V30 3633 C 358.315 -5.66497 1.52636 0
M  V30 3634 C 360.667 -6.01828 1.949 0
M  V30 3635 C 359.331 -6.28351 2.25236 0
M  V30 3636 H 358.601 -0.725961 -0.148529 0
M  V30 3637 H 361.248 -1.88668 0.328113 0
M  V30 3638 H 359.553 -3.53337 -1.69294 0
M  V30 3639 H 361.25 -3.76577 -1.37808 0
M  V30 3640 H 357.84 -4.28579 -0.0420526 0
M  V30 3641 H 362.024 -4.9115 0.713129 0
M  V30 3642 H 357.28 -5.8531 1.76698 0
M  V30 3643 H 361.454 -6.49225 2.51951 0
M  V30 3644 H 359.081 -6.96226 3.05244 0
M  V30 3645 N 360.656 0.0484629 -1.57525 0
M  V30 3646 C 361.933 0.777447 -1.79486 0
M  V30 3647 C 362.313 1.94597 -0.818251 0
M  V30 3648 O 361.661 2.28047 0.143767 0
M  V30 3649 C 361.871 1.22864 -3.26658 0
M  V30 3650 C 363.219 1.65251 -3.91123 0
M  V30 3651 O 364.243 1.32372 -3.3069 0
M  V30 3652 O 363.102 2.26207 -4.97486 0
M  V30 3653 H 360.196 0.374357 -0.737419 0
M  V30 3654 H 362.742 0.0267359 -1.69679 0
M  V30 3655 H 361.514 0.393589 -3.89316 0
M  V30 3656 H 361.137 2.03996 -3.41279 0
M  V30 3657 N 362.134 1.5431 0.320358 0
M  V30 3658 C 363.044 1.86946 1.41734 0
M  V30 3659 C 364.06 0.761689 1.56443 0
M  V30 3660 O 365.236 1.05629 1.71477 0
M  V30 3661 C 362.301 2.09293 2.76401 0
M  V30 3662 C 361.362 3.33082 2.70841 0
M  V30 3663 C 360.595 3.54353 3.99086 0
M  V30 3664 O 360.818 2.79002 4.97508 0
M  V30 3665 O 359.752 4.47838 4.0215 0
M  V30 3666 H 363.578 2.80232 1.17062 0
M  V30 3667 H 361.163 1.40255 0.514673 0
M  V30 3668 H 363.045 2.25303 3.56113 0
M  V30 3669 H 361.72 1.19194 3.00956 0
M  V30 3670 H 360.627 3.22454 1.89668 0
M  V30 3671 H 361.96 4.23249 2.5124 0
M  V30 3672 N 363.613 -0.582584 1.46437 0
M  V30 3673 C 364.859 -1.34278 1.51978 0
M  V30 3674 C 365.192 -1.93446 0.170973 0
M  V30 3675 O 364.467 -1.76481 -0.817608 0
M  V30 3676 C 364.75 -2.47203 2.61845 0
M  V30 3677 C 364.603 -1.93069 4.06257 0
M  V30 3678 C 365.922 -3.49247 2.67795 0
M  V30 3679 H 363.041 -0.486876 0.553282 0
M  V30 3680 H 365.683 -0.654437 1.78374 0
M  V30 3681 H 363.833 -3.0592 2.39469 0
M  V30 3682 H 365.505 -1.38808 4.3992 0
M  V30 3683 H 363.748 -1.23898 4.1573 0
M  V30 3684 H 364.419 -2.74586 4.7886 0
M  V30 3685 H 366.895 -3.00411 2.8791 0
M  V30 3686 H 365.771 -4.25719 3.46489 0
M  V30 3687 H 366.032 -4.06482 1.73852 0
M  V30 3688 N 365.091 -1.34144 -0.827227 0
M  V30 3689 C 366.024 -1.19707 -1.94282 0
M  V30 3690 C 367.002 -0.0897256 -1.62352 0
M  V30 3691 O 368.186 -0.254095 -1.8678 0
M  V30 3692 C 365.313 -0.838646 -3.28153 0
M  V30 3693 C 364.359 -1.95514 -3.79047 0
M  V30 3694 S 365.192 -3.56793 -3.99323 0
M  V30 3695 C 366.348 -3.22983 -5.36127 0
M  V30 3696 H 366.581 -2.1414 -2.06231 0
M  V30 3697 H 364.114 -1.19121 -0.982321 0
M  V30 3698 H 366.072 -0.638637 -4.05502 0
M  V30 3699 H 364.733 0.0872776 -3.13979 0
M  V30 3700 H 363.926 -1.658 -4.75948 0
M  V30 3701 H 363.528 -2.11241 -3.08631 0
M  V30 3702 H 365.82 -2.74531 -6.19386 0
M  V30 3703 H 366.763 -4.19008 -5.70822 0
M  V30 3704 H 367.171 -2.59276 -5.01434 0
M  V30 3705 N 366.569 1.04691 -1.17803 0
M  V30 3706 C 367.797 1.81446 -0.99423 0
M  V30 3707 C 368.212 1.83174 0.457459 0
M  V30 3708 O 367.569 1.26265 1.31771 0
M  V30 3709 C 367.62 3.27334 -1.5341 0
M  V30 3710 O 367.341 3.25798 -2.92895 0
M  V30 3711 C 368.842 4.20759 -1.39559 0
M  V30 3712 H 366.062 0.571599 -0.351447 0
M  V30 3713 H 368.606 1.31982 -1.56208 0
M  V30 3714 H 366.761 3.74052 -1.00815 0
M  V30 3715 H 367.175 4.17144 -3.17949 0
M  V30 3716 H 368.649 5.21084 -1.82141 0
M  V30 3717 H 369.126 4.37856 -0.343394 0
M  V30 3718 H 369.732 3.79901 -1.91195 0
M  V30 3719 N 368.047 0.979072 1.23499 0
M  V30 3720 C 369.295 0.645941 1.91499 0
M  V30 3721 C 369.616 -0.822948 1.76784 0
M  V30 3722 O 368.886 -1.58854 1.14639 0
M  V30 3723 H 367.466 0.235919 0.708767 0
M  V30 3724 H 370.128 1.2426 1.50152 0
M  V30 3725 H 369.224 0.896411 2.9895 0
M  V30 3726 N 369.525 -1.3858 0.750561 0
M  V30 3727 C 370.772 -2.00184 0.305373 0
M  V30 3728 C 371.1 -1.59575 -1.11203 0
M  V30 3729 O 370.355 -0.823236 -1.77542 0
M  V30 3730 C 370.654 -3.55455 0.372373 0
M  V30 3731 C 370.32 -4.15765 1.745 0
M  V30 3732 C 368.982 -4.31951 2.12065 0
M  V30 3733 C 371.334 -4.49067 2.64553 0
M  V30 3734 C 368.662 -4.78734 3.39162 0
M  V30 3735 C 371.014 -4.97265 3.91038 0
M  V30 3736 C 369.678 -5.11658 4.28676 0
M  V30 3737 H 368.948 -0.732526 0.111744 0
M  V30 3738 H 371.595 -1.65673 0.960451 0
M  V30 3739 H 369.9 -3.90084 -0.366272 0
M  V30 3740 H 371.597 -4.00999 0.00953918 0
M  V30 3741 H 368.187 -4.03579 1.44297 0
M  V30 3742 H 372.371 -4.36166 2.36796 0
M  V30 3743 H 367.627 -4.88062 3.68246 0
M  V30 3744 H 371.801 -5.22003 4.60962 0
M  V30 3745 H 369.428 -5.47668 5.27222 0
M  V30 3746 N 371.003 -0.499398 -1.49478 0
M  V30 3747 C 372.419 -0.155261 -1.58843 0
M  V30 3748 C 372.619 1.34008 -1.50479 0
M  V30 3749 O 371.675 2.11589 -1.37791 0
M  V30 3750 C 372.988 -0.730636 -2.91689 0
M  V30 3751 C 374.536 -0.696599 -3.0515 0
M  V30 3752 C 375.011 -1.25001 -4.40612 0
M  V30 3753 N 376.502 -1.21064 -4.47099 0
M  V30 3754 C 377.237 -1.60905 -5.50361 0
M  V30 3755 N 376.733 -2.08331 -6.60735 0
M  V30 3756 N 378.526 -1.52331 -5.41065 0
M  V30 3757 H 370.677 -1.47162 -1.53158 0
M  V30 3758 H 372.94 -0.610309 -0.725415 0
M  V30 3759 H 372.646 -1.77928 -3.03372 0
M  V30 3760 H 372.52 -0.190161 -3.7672 0
M  V30 3761 H 374.907 0.343204 -2.93097 0
M  V30 3762 H 374.988 -1.2742 -2.21806 0
M  V30 3763 H 374.632 -2.28859 -4.53416 0
M  V30 3764 H 374.562 -0.64836 -5.22593 0
M  V30 3765 H 377.053 -0.863128 -3.67911 0
M  V30 3766 H 377.366 -2.36805 -7.35624 0
M  V30 3767 H 375.711 -2.12304 -6.6178 0
M  V30 3768 H 378.902 -1.151 -4.53729 0
M  V30 3769 H 379.075 -1.83704 -6.21415 0
M  V30 3770 N 372.481 1.55866 -0.233164 0
M  V30 3771 C 373.73 1.97779 0.39579 0
M  V30 3772 C 374.043 1.12419 1.60066 0
M  V30 3773 O 375.249 1.44283 2.29988 0
M  V30 3774 C 373.705 3.5188 0.755556 0
M  V30 3775 C 373.313 4.45959 -0.427152 0
M  V30 3776 C 375.057 4.02479 1.34946 0
M  V30 3777 C 372.964 5.91383 -0.0443043 0
M  V30 3778 H 371.894 0.738592 0.15165 0
M  V30 3779 H 374.545 1.80486 -0.331212 0
M  V30 3780 H 372.927 3.64816 1.5403 0
M  V30 3781 H 374.101 4.44776 -1.20462 0
M  V30 3782 H 372.416 4.05765 -0.935068 0
M  V30 3783 H 375.013 5.08637 1.649 0
M  V30 3784 H 375.356 3.49014 2.26925 0
M  V30 3785 H 375.889 3.92813 0.62791 0
M  V30 3786 H 372.628 6.48857 -0.930874 0
M  V30 3787 H 372.148 5.95734 0.697238 0
M  V30 3788 H 373.827 6.45893 0.378334 0
M  V30 3789 N 373.959 -0.0401083 1.57549 0
M  V30 3790 C 374.922 -1.02871 2.04817 0
M  V30 3791 C 375.922 -1.29708 0.950388 0
M  V30 3792 O 377.112 -1.24897 1.21435 0
M  V30 3793 C 374.244 -2.36443 2.45576 0
M  V30 3794 H 375.437 -0.620631 2.93408 0
M  V30 3795 H 372.99 -0.286667 1.53649 0
M  V30 3796 H 373.725 -2.82021 1.60108 0
M  V30 3797 H 373.51 -2.18296 3.25713 0
M  V30 3798 H 375 -3.07441 2.82612 0
M  V30 3799 N 375.437 -1.54477 -0.31217 0
M  V30 3800 C 376.667 -1.76948 -1.06645 0
M  V30 3801 C 377.075 -0.523593 -1.81811 0
M  V30 3802 O 376.418 0.51578 -1.76311 0
M  V30 3803 C 376.48 -2.91668 -2.10166 0
M  V30 3804 C 376.144 -4.30165 -1.54296 0
M  V30 3805 C 377.141 -5.10603 -0.978793 0
M  V30 3806 C 374.826 -4.76738 -1.58196 0
M  V30 3807 C 376.82 -6.3573 -0.461048 0
M  V30 3808 C 374.507 -6.01831 -1.06034 0
M  V30 3809 C 375.505 -6.81161 -0.500844 0
M  V30 3810 O 375.193 -8.03899 0.0128958 0
M  V30 3811 H 374.925 -0.594088 -0.322546 0
M  V30 3812 H 377.479 -2.02213 -0.360441 0
M  V30 3813 H 375.709 -2.62001 -2.84416 0
M  V30 3814 H 377.398 -3.01817 -2.71406 0
M  V30 3815 H 378.164 -4.75771 -0.941651 0
M  V30 3816 H 374.043 -4.15027 -2.00683 0
M  V30 3817 H 377.587 -6.97596 -0.0236894 0
M  V30 3818 H 373.484 -6.36152 -1.09459 0
M  V30 3819 H 374.252 -8.18437 -0.101457 0
M  V30 3820 N 376.915 0.57481 -1.46744 0
M  V30 3821 C 378.163 1.33009 -1.52161 0
M  V30 3822 C 378.484 1.94185 -0.178092 0
M  V30 3823 O 377.754 1.7899 0.796196 0
M  V30 3824 H 376.334 0.493873 -0.560445 0
M  V30 3825 H 378.996 0.672589 -1.82927 0
M  V30 3826 H 378.092 2.13273 -2.27862 0
M  V30 3827 N 378.394 1.34581 0.820102 0
M  V30 3828 C 379.642 1.26845 1.57336 0
M  V30 3829 C 379.963 -0.160667 1.94337 0
M  V30 3830 O 379.233 -1.09396 1.6251 0
M  V30 3831 H 377.813 0.466514 0.583415 0
M  V30 3832 H 380.475 1.68526 0.979027 0
M  V30 3833 H 379.571 1.87513 2.4949 0
M  V30 3834 N 379.872 -1.04064 1.18357 0
M  V30 3835 C 381.118 -1.77528 0.980397 0
M  V30 3836 C 381.451 -1.87948 -0.48879 0
M  V30 3837 O 380.726 -1.3876 -1.36293 0
M  V30 3838 C 381.009 -3.20797 1.63588 0
M  V30 3839 C 380.862 -3.1832 3.17793 0
M  V30 3840 C 382.181 -4.18911 1.34914 0
M  V30 3841 H 379.3 -0.644443 0.357578 0
M  V30 3842 H 381.942 -1.2156 1.46024 0
M  V30 3843 H 380.092 -3.68586 1.22788 0
M  V30 3844 H 381.764 -2.78521 3.67728 0
M  V30 3845 H 380.007 -2.56351 3.49952 0
M  V30 3846 H 380.678 -4.19489 3.58794 0
M  V30 3847 H 383.154 -3.7967 1.70265 0
M  V30 3848 H 382.03 -5.17374 1.83346 0
M  V30 3849 H 382.291 -4.41262 0.272027 0
M  V30 3850 N 381.35 -0.985608 -1.22978 0
M  V30 3851 C 382.282 -0.488154 -2.23941 0
M  V30 3852 C 383.295 0.41282 -1.57479 0
M  V30 3853 O 384.484 0.216121 -1.77187 0
M  V30 3854 C 381.584 0.312611 -3.37455 0
M  V30 3855 C 380.757 -0.582741 -4.33501 0
M  V30 3856 C 379.816 0.165064 -5.25941 0
M  V30 3857 O 378.842 -0.447077 -5.67442 0
M  V30 3858 N 380.044 1.44953 -5.62111 0
M  V30 3859 H 382.809 -1.3563 -2.67254 0
M  V30 3860 H 380.37 -0.859477 -1.37203 0
M  V30 3861 H 382.362 0.821357 -3.96277 0
M  V30 3862 H 380.932 1.0818 -2.93285 0
M  V30 3863 H 380.152 -1.27225 -3.73105 0
M  V30 3864 H 381.44 -1.19275 -4.94622 0
M  V30 3865 H 380.838 1.9683 -5.30353 0
M  V30 3866 H 379.395 1.90361 -6.23383 0
M  V30 3867 N 382.828 1.3818 -0.7579 0
M  V30 3868 C 383.738 2.3421 -0.135247 0
M  V30 3869 C 384.754 1.59487 0.695683 0
M  V30 3870 O 385.93 1.91657 0.618832 0
M  V30 3871 C 382.995 3.3862 0.744139 0
M  V30 3872 C 382.056 4.2918 -0.101658 0
M  V30 3873 C 381.289 5.28603 0.735851 0
M  V30 3874 O 381.512 5.35166 1.97366 0
M  V30 3875 O 380.446 6.01707 0.152372 0
M  V30 3876 H 384.272 2.8916 -0.928436 0
M  V30 3877 H 381.857 1.40101 -0.518855 0
M  V30 3878 H 383.739 4.02539 1.2466 0
M  V30 3879 H 382.414 2.86019 1.51575 0
M  V30 3880 H 381.321 3.68407 -0.650167 0
M  V30 3881 H 382.654 4.85048 -0.836024 0
M  V30 3882 N 384.306 0.507319 1.49211 0
M  V30 3883 C 385.253 -0.267728 2.29242 0
M  V30 3884 C 386.223 -0.954609 1.35928 0
M  V30 3885 O 387.408 -0.960046 1.64887 0
M  V30 3886 C 384.548 -1.32243 3.18756 0
M  V30 3887 C 383.661 -0.64669 4.27132 0
M  V30 3888 C 382.796 -1.68238 5.03855 0
M  V30 3889 C 381.835 -0.98885 6.0406 0
M  V30 3890 N 380.972 -1.96903 6.73924 0
M  V30 3891 H 385.812 0.420968 2.95012 0
M  V30 3892 H 383.349 0.219443 1.45454 0
M  V30 3893 H 385.307 -1.94599 3.69036 0
M  V30 3894 H 383.937 -1.97981 2.54958 0
M  V30 3895 H 382.989 0.0902926 3.80293 0
M  V30 3896 H 384.301 -0.101058 4.98698 0
M  V30 3897 H 383.455 -2.38081 5.58034 0
M  V30 3898 H 382.194 -2.26187 4.32077 0
M  V30 3899 H 381.199 -0.276222 5.49106 0
M  V30 3900 H 382.424 -0.415767 6.77826 0
M  V30 3901 H 380.37 -2.53803 6.04913 0
M  V30 3902 H 380.287 -1.47423 7.41487 0
M  V30 3903 H 381.555 -2.66015 7.32705 0
M  V30 3904 N 385.784 -1.5574 0.241426 0
M  V30 3905 C 387.031 -1.9881 -0.384836 0
M  V30 3906 C 387.359 -1.12947 -1.58346 0
M  V30 3907 O 386.614 -0.178993 -1.9488 0
M  V30 3908 C 386.913 -3.47308 -0.843317 0
M  V30 3909 C 386.579 -4.50223 0.246946 0
M  V30 3910 C 385.241 -4.78088 0.546399 0
M  V30 3911 C 387.593 -5.11841 0.983282 0
M  V30 3912 C 384.921 -5.64846 1.58636 0
M  V30 3913 C 387.273 -5.99727 2.01272 0
M  V30 3914 C 385.937 -6.25927 2.31888 0
M  V30 3915 H 385.207 -0.727496 -0.140821 0
M  V30 3916 H 387.854 -1.8831 0.348106 0
M  V30 3917 H 386.159 -3.55112 -1.65537 0
M  V30 3918 H 387.856 -3.78017 -1.33806 0
M  V30 3919 H 384.446 -4.286 0.00340639 0
M  V30 3920 H 388.63 -4.90366 0.765182 0
M  V30 3921 H 383.886 -5.83403 1.82896 0
M  V30 3922 H 388.06 -6.46517 2.58823 0
M  V30 3923 H 385.687 -6.92949 3.12611 0
M  V30 3924 N 387.262 0.0317525 -1.57568 0
M  V30 3925 C 388.51 0.721676 -1.88776 0
M  V30 3926 C 388.831 1.76039 -0.838772 0
M  V30 3927 O 388.101 1.95482 0.127935 0
M  V30 3928 H 386.681 0.269534 -0.696678 0
M  V30 3929 H 389.343 -0.00165879 -1.949 0
M  V30 3930 H 388.439 1.21293 -2.87566 0
M  V30 3931 N 388.74 1.54641 0.303973 0
M  V30 3932 C 389.986 1.74038 1.04109 0
M  V30 3933 C 390.319 0.523051 1.87024 0
M  V30 3934 O 389.594 -0.479874 1.88487 0
M  V30 3935 C 389.877 3.02761 1.94955 0
M  V30 3936 C 389.73 4.34787 1.1524 0
M  V30 3937 C 391.049 3.27336 2.94175 0
M  V30 3938 H 388.168 0.63323 0.377079 0
M  V30 3939 H 390.81 1.87354 0.316001 0
M  V30 3940 H 388.96 2.9154 2.56782 0
M  V30 3941 H 390.632 4.57922 0.557236 0
M  V30 3942 H 388.875 4.31407 0.455053 0
M  V30 3943 H 389.546 5.21116 1.8205 0
M  V30 3944 H 392.022 3.38148 2.42477 0
M  V30 3945 H 390.898 4.18726 3.54908 0
M  V30 3946 H 391.159 2.45491 3.67677 0
M  V30 3947 N 390.218 -0.567019 1.47046 0
M  V30 3948 C 391.446 -1.35027 1.56765 0
M  V30 3949 C 391.861 -1.8758 0.214316 0
M  V30 3950 O 391.218 -1.64471 -0.790919 0
M  V30 3951 C 391.269 -2.52698 2.58507 0
M  V30 3952 O 390.99 -2.0232 3.88585 0
M  V30 3953 C 392.491 -3.45043 2.78316 0
M  V30 3954 H 389.711 -0.41195 0.529658 0
M  V30 3955 H 392.255 -0.687832 1.92585 0
M  V30 3956 H 390.41 -3.149 2.25648 0
M  V30 3957 H 390.824 -2.79068 4.44096 0
M  V30 3958 H 392.298 -4.2405 3.53391 0
M  V30 3959 H 392.775 -3.97971 1.85784 0
M  V30 3960 H 393.381 -2.88665 3.12334 0
M  V30 3961 N 391.696 -1.35014 -0.812953 0
M  V30 3962 C 393.107 -1.25035 -1.38648 0
M  V30 3963 C 393.458 0.119967 -1.95833 0
M  V30 3964 O 392.583 1.02069 -1.90816 0
M  V30 3965 C 393.178 -2.26394 -2.52054 0
M  V30 3966 C 391.737 -2.20175 -3.05287 0
M  V30 3967 C 390.884 -2.12451 -1.78213 0
M  V30 3968 H 393.835 -1.46235 -0.616516 0
M  V30 3969 H 393.856 -1.88672 -3.30429 0
M  V30 3970 H 393.368 -3.26116 -2.10404 0
M  V30 3971 H 391.469 -1.23841 -3.51417 0
M  V30 3972 H 391.582 -3.11863 -3.63701 0
M  V30 3973 H 389.946 -1.58328 -1.9951 0
M  V30 3974 H 390.729 -3.14024 -1.38723 0
M  V30 3975 N 393.175 1.03435 -1.18907 0
M  V30 3976 C 394.452 1.73778 -0.89781 0
M  V30 3977 C 394.832 2.02458 0.597832 0
M  V30 3978 O 394.18 1.67482 1.55441 0
M  V30 3979 C 394.39 3.01845 -1.75187 0
M  V30 3980 C 395.738 3.7546 -1.9828 0
M  V30 3981 O 396.762 3.11759 -1.72293 0
M  V30 3982 O 395.621 4.89966 -2.42065 0
M  V30 3983 H 392.715 0.75651 -0.334098 0
M  V30 3984 H 395.261 1.09444 -1.29693 0
M  V30 3985 H 394.033 2.76836 -2.76545 0
M  V30 3986 H 393.656 3.73919 -1.35167 0
M  V30 3987 N 394.653 0.992116 1.22453 0
M  V30 3988 C 395.583 0.561677 2.26644 0
M  V30 3989 C 396.564 -0.411055 1.65059 0
M  V30 3990 O 397.749 -0.301861 1.9184 0
M  V30 3991 C 394.879 -0.125247 3.47074 0
M  V30 3992 C 393.833 0.765948 4.21091 0
M  V30 3993 C 393.159 -0.0538484 5.34673 0
M  V30 3994 C 394.459 2.06242 4.79856 0
M  V30 3995 H 396.153 1.43259 2.62902 0
M  V30 3996 H 393.699 0.690283 1.26377 0
M  V30 3997 H 395.652 -0.437764 4.1912 0
M  V30 3998 H 394.376 -1.03069 3.0991 0
M  V30 3999 H 393.035 1.0621 3.50878 0
M  V30 4000 H 392.683 -0.960188 4.9375 0
M  V30 4001 H 392.383 0.539415 5.85119 0
M  V30 4002 H 393.907 -0.360477 6.09535 0
M  V30 4003 H 395.321 1.8139 5.43848 0
M  V30 4004 H 393.718 2.60444 5.40638 0
M  V30 4005 H 394.788 2.74167 3.99951 0
M  V30 4006 N 396.131 -1.37776 0.765217 0
M  V30 4007 C 397.359 -2.04124 0.337767 0
M  V30 4008 C 397.774 -1.57715 -1.03785 0
M  V30 4009 O 397.131 -0.755447 -1.6613 0
M  V30 4010 C 397.182 -3.59658 0.364442 0
M  V30 4011 O 396.903 -4.04367 1.68579 0
M  V30 4012 C 398.404 -4.43236 -0.0754221 0
M  V30 4013 H 395.624 -0.655696 0.142491 0
M  V30 4014 H 398.168 -1.76238 1.03732 0
M  V30 4015 H 396.323 -3.86339 -0.286471 0
M  V30 4016 H 396.737 -4.98857 1.61993 0
M  V30 4017 H 398.211 -5.52 -0.00560067 0
M  V30 4018 H 398.688 -4.2455 -1.12491 0
M  V30 4019 H 399.294 -4.21767 0.547055 0
M  V30 4020 N 397.609 -0.515225 -1.4894 0
M  V30 4021 C 398.837 0.0206034 -2.0689 0
M  V30 4022 C 399.252 1.29514 -1.37374 0
M  V30 4023 O 398.609 1.76698 -0.456529 0
M  V30 4024 C 398.66 0.26351 -3.60538 0
M  V30 4025 O 398.381 -0.960517 -4.27441 0
M  V30 4026 C 399.882 0.841383 -4.35242 0
M  V30 4027 H 397.102 -0.0268608 -0.670462 0
M  V30 4028 H 399.646 -0.716651 -1.91532 0
M  V30 4029 H 397.801 0.950777 -3.75552 0
M  V30 4030 H 398.215 -0.73212 -5.19365 0
M  V30 4031 H 399.689 0.96085 -5.43573 0
M  V30 4032 H 400.166 1.8427 -3.98674 0
M  V30 4033 H 400.772 0.191143 -4.2487 0
M  V30 4034 N 399.087 1.5561 -0.249682 0
M  V30 4035 C 400.017 2.24477 0.642826 0
M  V30 4036 C 400.998 1.22601 1.17911 0
M  V30 4037 O 402.183 1.5126 1.21795 0
M  V30 4038 C 399.313 2.94638 1.83863 0
M  V30 4039 C 398.267 4.03227 1.435 0
M  V30 4040 C 397.593 4.60828 2.71186 0
M  V30 4041 C 398.893 5.18796 0.604002 0
M  V30 4042 H 400.587 2.99321 0.0685625 0
M  V30 4043 H 398.133 1.43965 0.0315363 0
M  V30 4044 H 400.086 3.41517 2.46868 0
M  V30 4045 H 398.81 2.17287 2.43832 0
M  V30 4046 H 397.469 3.57121 0.828275 0
M  V30 4047 H 397.117 3.80174 3.29358 0
M  V30 4048 H 396.817 5.34132 2.44901 0
M  V30 4049 H 398.341 5.10442 3.35084 0
M  V30 4050 H 399.755 5.61883 1.13842 0
M  V30 4051 H 398.152 5.98506 0.437097 0
M  V30 4052 H 399.222 4.83384 -0.383147 0
M  V30 4053 N 400.565 -0.0233959 1.57583 0
M  V30 4054 C 401.813 -0.711654 1.89156 0
M  V30 4055 C 402.134 -1.75591 0.848096 0
M  V30 4056 O 401.404 -1.95547 -0.117566 0
M  V30 4057 H 399.984 -0.265835 0.698098 0
M  V30 4058 H 402.646 0.0119948 1.94896 0
M  V30 4059 H 401.742 -1.19766 2.88206 0
M  V30 4060 N 402.043 -1.548 -0.295768 0
M  V30 4061 C 402.99 -1.86113 -1.36494 0
M  V30 4062 C 403.96 -0.7105 -1.50137 0
M  V30 4063 O 405.145 -0.959626 -1.64912 0
M  V30 4064 C 402.285 -2.11861 -2.72413 0
M  V30 4065 C 401.398 -3.39471 -2.67177 0
M  V30 4066 C 400.533 -3.55035 -3.95125 0
M  V30 4067 C 399.572 -4.76418 -3.84308 0
M  V30 4068 N 398.709 -4.8876 -5.04042 0
M  V30 4069 H 403.549 -2.77314 -1.09091 0
M  V30 4070 H 401.086 -1.37315 -0.52753 0
M  V30 4071 H 403.044 -2.24786 -3.51464 0
M  V30 4072 H 401.674 -1.2392 -2.98066 0
M  V30 4073 H 400.726 -3.35139 -1.79962 0
M  V30 4074 H 402.038 -4.28646 -2.55076 0
M  V30 4075 H 401.192 -3.67653 -4.82614 0
M  V30 4076 H 399.931 -2.64002 -4.10066 0
M  V30 4077 H 398.936 -4.63827 -2.95202 0
M  V30 4078 H 400.161 -5.68863 -3.70906 0
M  V30 4079 H 398.107 -4.00652 -5.19436 0
M  V30 4080 H 398.024 -5.71945 -4.94384 0
M  V30 4081 H 399.292 -5.0574 -5.93167 0
M  V30 4082 N 403.521 0.559213 -1.47345 0
M  V30 4083 C 404.77 1.31281 -1.53128 0
M  V30 4084 C 405.083 1.94602 -0.197344 0
M  V30 4085 O 406.289 2.71173 -0.133154 0
M  V30 4086 C 404.745 2.38051 -2.69925 0
M  V30 4087 C 404.353 1.8093 -4.0984 0
M  V30 4088 C 406.097 3.14604 -2.84999 0
M  V30 4089 C 404.004 2.85468 -5.1794 0
M  V30 4090 H 402.934 0.493614 -0.569966 0
M  V30 4091 H 405.585 0.594155 -1.73615 0
M  V30 4092 H 403.967 3.12822 -2.42814 0
M  V30 4093 H 405.141 1.12544 -4.46845 0
M  V30 4094 H 403.456 1.16967 -3.99634 0
M  V30 4095 H 406.053 3.92666 -3.62929 0
M  V30 4096 H 406.396 3.68665 -1.93369 0
M  V30 4097 H 406.929 2.46945 -3.1187 0
M  V30 4098 H 403.668 2.36264 -6.1144 0
M  V30 4099 H 403.188 3.52269 -4.85455 0
M  V30 4100 H 404.867 3.48996 -5.44803 0
M  V30 4101 N 404.999 1.35443 0.805782 0
M  V30 4102 C 406.248 1.28097 1.55801 0
M  V30 4103 C 406.561 -0.142428 1.95081 0
M  V30 4104 O 407.767 -0.33817 2.69386 0
M  V30 4105 C 406.223 2.24653 2.81174 0
M  V30 4106 C 405.831 3.72342 2.49129 0
M  V30 4107 C 407.575 2.2625 3.59181 0
M  V30 4108 C 405.482 4.60719 3.70799 0
M  V30 4109 H 404.412 0.475937 0.584808 0
M  V30 4110 H 407.063 1.60712 0.885661 0
M  V30 4111 H 405.445 1.85011 3.50124 0
M  V30 4112 H 406.619 4.20624 1.88181 0
M  V30 4113 H 404.934 3.73361 1.84366 0
M  V30 4114 H 407.531 2.89495 4.49552 0
M  V30 4115 H 407.874 1.26647 3.96568 0
M  V30 4116 H 408.407 2.64426 2.97193 0
M  V30 4117 H 405.146 5.61324 3.3852 0
M  V30 4118 H 404.666 4.17163 4.3097 0
M  V30 4119 H 406.345 4.76182 4.38018 0
M  V30 4120 N 406.477 -1.02803 1.19454 0
M  V30 4121 C 407.725 -1.75869 0.995722 0
M  V30 4122 C 408.046 -1.89138 -0.474543 0
M  V30 4123 O 407.316 -1.42558 -1.34366 0
M  V30 4124 H 405.896 -0.651511 0.365435 0
M  V30 4125 H 408.558 -1.24004 1.50363 0
M  V30 4126 H 407.654 -2.76661 1.44447 0
M  V30 4127 N 407.956 -0.998596 -1.21925 0
M  V30 4128 C 409.204 -0.676325 -1.90448 0
M  V30 4129 C 409.525 0.794719 -1.78071 0
M  V30 4130 O 408.795 1.5701 -1.17152 0
M  V30 4131 H 407.375 -0.247165 -0.704925 0
M  V30 4132 H 410.037 -1.26633 -1.48156 0
M  V30 4133 H 409.133 -0.943858 -2.97486 0
M  V30 4134 N 409.434 1.37368 -0.772513 0
M  V30 4135 C 410.682 1.99279 -0.336516 0
M  V30 4136 C 411.003 1.6163 1.09091 0
M  V30 4137 O 410.273 0.882109 1.74916 0
M  V30 4138 H 408.853 0.737063 -0.121435 0
M  V30 4139 H 411.515 1.67836 -0.990809 0
M  V30 4140 H 410.611 3.09332 -0.414763 0
M  V30 4141 N 410.912 0.523116 1.48665 0
M  V30 4142 C 411.842 -0.23231 2.32342 0
M  V30 4143 C 412.823 -0.941637 1.41659 0
M  V30 4144 O 414.008 -0.928751 1.70552 0
M  V30 4145 C 411.138 -1.28387 3.22698 0
M  V30 4146 C 410.092 -0.693098 4.22351 0
M  V30 4147 C 409.418 -1.8468 5.01794 0
M  V30 4148 C 410.718 0.33063 5.21252 0
M  V30 4149 H 412.412 0.466192 2.95748 0
M  V30 4150 H 409.958 0.225643 1.42221 0
M  V30 4151 H 411.911 -1.82024 3.80059 0
M  V30 4152 H 410.635 -2.01186 2.57278 0
M  V30 4153 H 409.294 -0.178299 3.66166 0
M  V30 4154 H 408.942 -2.56301 4.32804 0
M  V30 4155 H 408.642 -1.45747 5.69238 0
M  V30 4156 H 410.166 -2.38709 5.62006 0
M  V30 4157 H 411.58 -0.118407 5.73178 0
M  V30 4158 H 409.977 0.636974 5.9671 0
M  V30 4159 H 411.047 1.23883 4.68808 0
M  V30 4160 N 412.39 -1.55475 0.257931 0
M  V30 4161 C 413.801 -1.8511 -0.243135 0
M  V30 4162 C 414.152 -1.17986 -1.5676 0
M  V30 4163 O 413.277 -0.462102 -2.11409 0
M  V30 4164 C 413.872 -3.35826 -0.447929 0
M  V30 4165 C 412.431 -3.65647 -0.893245 0
M  V30 4166 C 411.578 -2.7729 0.0232965 0
M  V30 4167 H 414.529 -1.51261 0.480199 0
M  V30 4168 H 414.55 -3.58002 -1.28898 0
M  V30 4169 H 414.062 -3.84652 0.516196 0
M  V30 4170 H 412.163 -3.22308 -1.86945 0
M  V30 4171 H 412.276 -4.73312 -0.742469 0
M  V30 4172 H 410.64 -2.49942 -0.490021 0
M  V30 4173 H 411.423 -3.28926 0.982994 0
M  V30 4174 N 413.868 0.0150385 -1.57593 0
M  V30 4175 C 415.114 0.704043 -1.90187 0
M  V30 4176 C 415.447 1.74249 -0.857366 0
M  V30 4177 O 414.722 1.94092 0.125843 0
M  V30 4178 C 415.005 1.36087 -3.33395 0
M  V30 4179 C 414.858 0.334981 -4.48551 0
M  V30 4180 C 416.177 2.29112 -3.7576 0
M  V30 4181 H 413.296 0.254475 -0.691673 0
M  V30 4182 H 415.938 -0.0331678 -1.89971 0
M  V30 4183 H 414.088 1.98922 -3.3371 0
M  V30 4184 H 415.76 -0.292534 -4.60372 0
M  V30 4185 H 414.003 -0.344325 -4.32431 0
M  V30 4186 H 414.674 0.833316 -5.45674 0
M  V30 4187 H 417.15 1.76308 -3.76902 0
M  V30 4188 H 416.026 2.72043 -4.76743 0
M  V30 4189 H 416.287 3.16385 -3.08793 0
M  V30 4190 N 415.346 1.54954 0.287554 0
M  V30 4191 C 416.594 1.74528 1.01904 0
M  V30 4192 C 416.915 0.541349 1.87335 0
M  V30 4193 O 416.185 -0.444108 1.908 0
M  V30 4194 H 414.765 0.643576 0.379235 0
M  V30 4195 H 417.427 1.92333 0.315294 0
M  V30 4196 H 416.523 2.64015 1.6644 0
M  V30 4197 N 416.824 -0.551391 1.4764 0
M  V30 4198 C 417.787 -1.64007 1.60107 0
M  V30 4199 C 418.787 -1.53601 0.47576 0
M  V30 4200 O 419.977 -1.57655 0.740988 0
M  V30 4201 C 417.109 -3.03569 1.55108 0
M  V30 4202 H 418.302 -1.543 2.57161 0
M  V30 4203 H 415.855 -0.771776 1.35917 0
M  V30 4204 H 416.59 -3.18804 0.594519 0
M  V30 4205 H 416.375 -3.12532 2.36783 0
M  V30 4206 H 417.865 -3.82762 1.66982 0
M  V30 4207 N 418.302 -1.35869 -0.798587 0
M  V30 4208 C 419.532 -1.32529 -1.58491 0
M  V30 4209 C 419.94 0.0975405 -1.88948 0
M  V30 4210 O 419.283 1.06224 -1.49874 0
M  V30 4211 C 419.345 -2.07247 -2.9375 0
M  V30 4212 C 419.009 -3.56391 -2.86068 0
M  V30 4213 C 420.006 -4.50824 -2.58947 0
M  V30 4214 C 417.691 -3.9915 -3.04933 0
M  V30 4215 C 419.685 -5.85993 -2.5078 0
M  V30 4216 C 417.372 -5.34413 -2.96389 0
M  V30 4217 C 418.37 -6.27646 -2.69349 0
M  V30 4218 O 418.058 -7.60426 -2.60782 0
M  V30 4219 H 417.79 -0.456529 -0.498556 0
M  V30 4220 H 420.344 -1.79425 -0.999799 0
M  V30 4221 H 418.574 -1.55001 -3.54276 0
M  V30 4222 H 420.263 -1.96883 -3.54954 0
M  V30 4223 H 421.029 -4.19104 -2.44084 0
M  V30 4224 H 416.908 -3.26961 -3.24989 0
M  V30 4225 H 420.452 -6.58735 -2.29595 0
M  V30 4226 H 416.349 -5.65743 -3.10813 0
M  V30 4227 H 417.117 -7.70444 -2.76331 0
M  V30 4228 N 419.78 1.02168 -1.19998 0
M  V30 4229 C 421.028 1.75338 -1.00504 0
M  V30 4230 C 421.349 1.89387 0.464506 0
M  V30 4231 O 420.619 1.43268 1.33608 0
M  V30 4232 H 419.199 0.649564 -0.368885 0
M  V30 4233 H 421.861 1.23205 -1.51018 0
M  V30 4234 H 420.957 2.75892 -1.45912 0
M  V30 4235 N 421.258 1.00505 1.21394 0
M  V30 4236 C 422.506 0.686415 1.90086 0
M  V30 4237 C 422.827 -0.785264 1.7849 0
M  V30 4238 O 422.097 -1.56387 1.17983 0
M  V30 4239 H 420.677 0.2509 0.703604 0
M  V30 4240 H 423.339 1.27417 1.47482 0
M  V30 4241 H 422.435 0.959621 2.96981 0
M  V30 4242 N 422.737 -1.36956 0.779787 0
M  V30 4243 C 423.684 -2.30175 0.169697 0
M  V30 4244 C 424.654 -1.51501 -0.68094 0
M  V30 4245 O 425.839 -1.80042 -0.631629 0
M  V30 4246 C 422.979 -3.37985 -0.697131 0
M  V30 4247 C 422.092 -4.31661 0.170992 0
M  V30 4248 C 421.227 -5.2655 -0.701298 0
M  V30 4249 C 420.266 -6.11867 0.168869 0
M  V30 4250 N 419.403 -6.98973 -0.661855 0
M  V30 4251 H 424.243 -2.81767 0.970135 0
M  V30 4252 H 421.78 -1.38699 0.489994 0
M  V30 4253 H 423.738 -3.99128 -1.2146 0
M  V30 4254 H 422.368 -2.87739 -1.46309 0
M  V30 4255 H 421.42 -3.71756 0.80634 0
M  V30 4256 H 422.732 -4.91644 0.841875 0
M  V30 4257 H 421.886 -5.92937 -1.28494 0
M  V30 4258 H 420.625 -4.66998 -1.40584 0
M  V30 4259 H 419.63 -5.44452 0.764986 0
M  V30 4260 H 420.855 -6.73493 0.870863 0
M  V30 4261 H 418.801 -6.41941 -1.35086 0
M  V30 4262 H 418.718 -7.55984 -0.0484447 0
M  V30 4263 H 419.986 -7.6974 -1.22963 0
M  V30 4264 N 424.215 -0.530993 -1.48385 0
M  V30 4265 C 425.631 -0.188919 -1.58478 0
M  V30 4266 C 425.831 1.30786 -1.53288 0
M  V30 4267 O 424.887 2.08619 -1.42248 0
M  V30 4268 C 426.2 -0.792343 -2.90073 0
M  V30 4269 C 427.748 -0.76117 -3.03604 0
M  V30 4270 C 428.223 -1.34319 -4.37861 0
M  V30 4271 N 429.714 -1.3052 -4.44431 0
M  V30 4272 C 430.449 -1.72543 -5.46824 0
M  V30 4273 N 429.945 -2.22299 -6.56167 0
M  V30 4274 N 431.738 -1.63773 -5.37712 0
M  V30 4275 H 423.889 -1.50377 -1.50002 0
M  V30 4276 H 426.152 -0.625559 -0.712306 0
M  V30 4277 H 425.858 -1.84323 -2.99529 0
M  V30 4278 H 425.732 -0.270026 -3.76232 0
M  V30 4279 H 428.119 0.280957 -2.93759 0
M  V30 4280 H 428.2 -1.32097 -2.19053 0
M  V30 4281 H 427.844 -2.38425 -4.4846 0
M  V30 4282 H 427.774 -0.759064 -5.21101 0
M  V30 4283 H 430.265 -0.940973 -3.65997 0
M  V30 4284 H 430.578 -2.52356 -7.30436 0
M  V30 4285 H 428.923 -2.26293 -6.57127 0
M  V30 4286 H 432.114 -1.24698 -4.51185 0
M  V30 4287 H 432.287 -1.96844 -6.17379 0
M  V30 4288 N 425.693 1.55336 -0.266172 0
M  V30 4289 C 426.603 2.2583 0.635458 0
M  V30 4290 C 427.619 1.28106 1.17749 0
M  V30 4291 O 428.795 1.61024 1.20968 0
M  V30 4292 C 425.86 2.95879 1.80712 0
M  V30 4293 C 424.921 4.09059 1.30265 0
M  V30 4294 C 424.154 4.75759 2.41846 0
M  V30 4295 O 424.377 4.41622 3.61007 0
M  V30 4296 O 423.311 5.63888 2.1051 0
M  V30 4297 H 427.137 3.03631 0.0646693 0
M  V30 4298 H 424.722 1.49361 -0.0339177 0
M  V30 4299 H 426.604 3.39932 2.49047 0
M  V30 4300 H 425.279 2.21002 2.36516 0
M  V30 4301 H 424.186 3.69482 0.586019 0
M  V30 4302 H 425.519 4.85811 0.790458 0
M  V30 4303 N 427.171 -0.0066808 1.57599 0
M  V30 4304 C 428.42 -0.692078 1.89455 0
M  V30 4305 C 428.733 -1.75306 0.867586 0
M  V30 4306 O 429.939 -2.49262 1.07614 0
M  V30 4307 C 428.395 -1.2821 3.36289 0
M  V30 4308 C 428.003 -0.256291 4.47266 0
M  V30 4309 C 429.747 -1.94608 3.77264 0
M  V30 4310 C 427.654 -0.855927 5.85173 0
M  V30 4311 H 426.584 -0.262252 0.706923 0
M  V30 4312 H 429.235 0.052769 1.83424 0
M  V30 4313 H 427.617 -2.0774 3.37135 0
M  V30 4314 H 428.791 0.513923 4.57925 0
M  V30 4315 H 427.106 0.306862 4.15268 0
M  V30 4316 H 429.703 -2.40364 4.77629 0
M  V30 4317 H 430.046 -2.77382 3.10427 0
M  V30 4318 H 430.579 -1.21822 3.78688 0
M  V30 4319 H 427.318 -0.0671161 6.55466 0
M  V30 4320 H 426.838 -1.59546 5.78191 0
M  V30 4321 H 428.517 -1.35658 6.32618 0
M  V30 4322 N 428.649 -1.55105 -0.279332 0
M  V30 4323 C 429.582 -1.82467 -1.37044 0
M  V30 4324 C 430.56 -0.677261 -1.47824 0
M  V30 4325 O 431.744 -0.919578 -1.64548 0
M  V30 4326 C 428.871 -1.98066 -2.7475 0
M  V30 4327 C 427.917 -3.20594 -2.81286 0
M  V30 4328 S 428.75 -4.78116 -2.41175 0
M  V30 4329 C 429.906 -4.9668 -3.80867 0
M  V30 4330 H 430.139 -2.74728 -1.1363 0
M  V30 4331 H 427.672 -1.46794 -0.478625 0
M  V30 4332 H 429.63 -2.07739 -3.54055 0
M  V30 4333 H 428.291 -1.06704 -2.9542 0
M  V30 4334 H 427.484 -3.28376 -3.82341 0
M  V30 4335 H 427.086 -3.09479 -2.09996 0
M  V30 4336 H 429.378 -4.82033 -4.76078 0
M  V30 4337 H 430.321 -5.98741 -3.78041 0
M  V30 4338 H 430.729 -4.24698 -3.71876 0
M  V30 4339 N 430.127 0.543554 -1.4793 0
M  V30 4340 C 431.059 1.665 -1.57513 0
M  V30 4341 C 432.072 1.56156 -0.460333 0
M  V30 4342 O 433.261 1.62865 -0.730573 0
M  V30 4343 C 430.361 3.05063 -1.47614 0
M  V30 4344 C 429.534 3.41024 -2.739 0
M  V30 4345 C 428.593 4.58809 -2.57645 0
M  V30 4346 O 427.619 4.62707 -3.31498 0
M  V30 4347 N 428.821 5.56149 -1.66368 0
M  V30 4348 H 431.586 1.5872 -2.5422 0
M  V30 4349 H 429.147 0.730517 -1.44482 0
M  V30 4350 H 431.139 3.81712 -1.34455 0
M  V30 4351 H 429.709 3.06994 -0.589359 0
M  V30 4352 H 428.929 2.53687 -3.01723 0
M  V30 4353 H 430.217 3.61831 -3.57709 0
M  V30 4354 H 429.615 5.55767 -1.05543 0
M  V30 4355 H 428.172 6.32071 -1.59154 0
M  V30 4356 N 431.605 1.3629 0.791371 0
M  V30 4357 C 432.535 1.33137 1.91825 0
M  V30 4358 C 433.516 0.203168 1.68882 0
M  V30 4359 O 434.701 0.400509 1.90025 0
M  V30 4360 C 431.831 1.11793 3.28816 0
M  V30 4361 C 430.785 2.21417 3.66277 0
M  V30 4362 C 430.111 1.85218 5.01596 0
M  V30 4363 C 431.411 3.63489 3.75064 0
M  V30 4364 H 433.105 2.2743 1.9472 0
M  V30 4365 H 430.651 1.09479 0.935437 0
M  V30 4366 H 432.604 1.08222 4.07266 0
M  V30 4367 H 431.328 0.139501 3.26302 0
M  V30 4368 H 429.987 2.2411 2.90121 0
M  V30 4369 H 429.635 0.859544 4.95602 0
M  V30 4370 H 429.335 2.58611 5.27631 0
M  V30 4371 H 430.859 1.832 5.82469 0
M  V30 4372 H 432.273 3.63034 4.43711 0
M  V30 4373 H 430.67 4.35771 4.12582 0
M  V30 4374 H 431.74 3.98536 2.76219 0
M  V30 4375 N 433.083 -1.0153 1.20538 0
M  V30 4376 C 434.329 -1.75408 1.01783 0
M  V30 4377 C 434.662 -1.88943 -0.448814 0
M  V30 4378 O 433.937 -1.4162 -1.33319 0
M  V30 4379 C 434.22 -3.17255 1.70356 0
M  V30 4380 C 434.073 -3.11508 3.24473 0
M  V30 4381 C 435.392 -4.15955 1.43769 0
M  V30 4382 H 432.511 -0.636713 0.371167 0
M  V30 4383 H 435.153 -1.18436 1.4857 0
M  V30 4384 H 433.303 -3.65898 1.30578 0
M  V30 4385 H 434.975 -2.70658 3.73553 0
M  V30 4386 H 433.218 -2.4887 3.55311 0
M  V30 4387 H 433.889 -4.11784 3.67611 0
M  V30 4388 H 436.365 -3.75973 1.7828 0
M  V30 4389 H 435.241 -5.13368 1.94279 0
M  V30 4390 H 435.502 -4.40586 0.365564 0
M  V30 4391 N 434.561 -1.01147 -1.20859 0
M  V30 4392 C 435.524 -0.582224 -2.21682 0
M  V30 4393 C 436.524 0.344887 -1.57058 0
M  V30 4394 O 437.714 0.134281 -1.73682 0
M  V30 4395 C 434.846 0.150496 -3.40568 0
M  V30 4396 H 436.039 -1.47408 -2.61172 0
M  V30 4397 H 433.592 -0.800695 -1.34233 0
M  V30 4398 H 434.327 1.0575 -3.06574 0
M  V30 4399 H 434.112 -0.515444 -3.88697 0
M  V30 4400 H 435.602 0.438344 -4.15293 0
M  V30 4401 N 436.039 1.36541 -0.78704 0
M  V30 4402 C 437.45 1.81873 -0.421807 0
M  V30 4403 C 437.801 1.65487 1.05397 0
M  V30 4404 O 436.926 1.17448 1.81755 0
M  V30 4405 C 437.521 3.30192 -0.758841 0
M  V30 4406 C 436.08 3.73743 -0.446468 0
M  V30 4407 C 435.227 2.58844 -0.994728 0
M  V30 4408 H 438.178 1.24796 -0.98039 0
M  V30 4409 H 438.199 3.80468 -0.0490648 0
M  V30 4410 H 437.711 3.42087 -1.83299 0
M  V30 4411 H 435.812 3.6741 0.619739 0
M  V30 4412 H 435.925 4.69272 -0.965415 0
M  V30 4413 H 434.289 2.51245 -0.418087 0
M  V30 4414 H 435.072 2.73525 -2.07458 0
M  V30 4415 N 437.518 0.538854 1.48102 0
M  V30 4416 C 438.481 -0.208395 2.28251 0
M  V30 4417 C 439.481 -0.859656 1.35892 0
M  V30 4418 O 440.671 -0.71834 1.58699 0
M  V30 4419 C 437.803 -1.30252 3.15035 0
M  V30 4420 H 438.996 0.495407 2.9578 0
M  V30 4421 H 436.549 0.295112 1.53489 0
M  V30 4422 H 437.284 -2.0393 2.52157 0
M  V30 4423 H 437.069 -0.840551 3.82985 0
M  V30 4424 H 438.559 -1.82787 3.75471 0
M  V30 4425 N 438.996 -1.55193 0.274407 0
M  V30 4426 C 440.244 -1.99187 -0.341902 0
M  V30 4427 C 440.565 -1.16422 -1.56431 0
M  V30 4428 O 439.835 -0.253573 -1.94252 0
M  V30 4429 H 438.415 -0.735721 -0.129317 0
M  V30 4430 H 441.077 -1.91168 0.379578 0
M  V30 4431 H 440.173 -3.05629 -0.632253 0
M  V30 4432 N 440.474 -0.00167713 -1.576 0
M  V30 4433 C 441.885 0.54091 -1.78693 0
M  V30 4434 C 442.236 1.7386 -0.909247 0
M  V30 4435 O 441.361 2.16109 -0.112176 0
M  V30 4436 C 441.956 0.98806 -3.24072 0
M  V30 4437 C 440.515 1.47594 -3.46256 0
M  V30 4438 C 439.662 0.42792 -2.73978 0
M  V30 4439 H 442.613 -0.22784 -1.57056 0
M  V30 4440 H 442.634 1.85398 -3.32277 0
M  V30 4441 H 442.146 0.116164 -3.87926 0
M  V30 4442 H 440.247 2.36868 -2.87618 0
M  V30 4443 H 440.36 1.50225 -4.54939 0
M  V30 4444 H 438.724 0.889934 -2.38647 0
M  V30 4445 H 439.507 -0.435038 -3.40532 0
M  V30 4446 N 441.952 1.55251 0.271103 0
M  V30 4447 C 442.885 1.83191 1.36075 0
M  V30 4448 C 443.863 0.685091 1.47463 0
M  V30 4449 O 445.047 0.928292 1.64058 0
M  V30 4450 C 442.174 1.99521 2.73696 0
M  V30 4451 C 441.22 3.22081 2.79582 0
M  V30 4452 S 442.053 4.79388 2.38636 0
M  V30 4453 C 443.209 4.98693 3.78228 0
M  V30 4454 H 443.442 2.75327 1.12171 0
M  V30 4455 H 440.975 1.47046 0.470833 0
M  V30 4456 H 442.933 2.09613 3.52948 0
M  V30 4457 H 441.594 1.0827 2.9485 0
M  V30 4458 H 440.787 3.304 3.80594 0
M  V30 4459 H 440.389 3.10589 2.08352 0
M  V30 4460 H 442.681 4.84551 4.73515 0
M  V30 4461 H 443.624 6.00738 3.7486 0
M  V30 4462 H 444.032 4.26665 3.69618 0
M  V30 4463 N 443.43 -0.535701 1.48216 0
M  V30 4464 C 444.66 -1.3148 1.59363 0
M  V30 4465 C 445.068 -1.8753 0.250844 0
M  V30 4466 O 444.411 -1.66821 -0.769174 0
M  V30 4467 C 444.473 -2.50731 2.57632 0
M  V30 4468 C 444.137 -2.15811 4.02833 0
M  V30 4469 C 445.134 -1.71822 4.90686 0
M  V30 4470 C 442.819 -2.26509 4.48329 0
M  V30 4471 C 444.813 -1.3899 6.22062 0
M  V30 4472 C 442.5 -1.93289 5.79726 0
M  V30 4473 C 443.498 -1.49599 6.66415 0
M  V30 4474 O 443.186 -1.16812 7.95368 0
M  V30 4475 H 442.918 -0.406315 0.540263 0
M  V30 4476 H 445.472 -0.653569 1.94725 0
M  V30 4477 H 443.702 -3.19817 2.1738 0
M  V30 4478 H 445.391 -3.12797 2.58675 0
M  V30 4479 H 446.157 -1.63031 4.56778 0
M  V30 4480 H 442.036 -2.59471 3.81045 0
M  V30 4481 H 445.58 -1.04816 6.89681 0
M  V30 4482 H 441.477 -2.01718 6.13172 0
M  V30 4483 H 442.245 -1.30259 8.08069 0
M  V30 4484 N 444.908 -1.36708 -0.784132 0
M  V30 4485 C 445.84 -1.27333 -1.90575 0
M  V30 4486 C 446.853 -0.191706 -1.61667 0
M  V30 4487 O 448.042 -0.446854 -1.72816 0
M  V30 4488 C 445.142 -0.943177 -3.25511 0
M  V30 4489 C 444.315 -2.12776 -3.82158 0
M  V30 4490 C 443.374 -1.76983 -4.95544 0
M  V30 4491 O 442.4 -2.49134 -5.11782 0
M  V30 4492 N 443.602 -0.706624 -5.76183 0
M  V30 4493 H 446.367 -2.23974 -1.99138 0
M  V30 4494 H 443.928 -1.30171 -0.962656 0
M  V30 4495 H 445.92 -0.684799 -3.98864 0
M  V30 4496 H 444.49 -0.0657333 -3.12531 0
M  V30 4497 H 443.71 -2.54863 -3.0073 0
M  V30 4498 H 444.998 -2.91904 -4.16737 0
M  V30 4499 H 444.396 -0.107643 -5.65598 0
M  V30 4500 H 442.953 -0.50808 -6.49817 0
M  V30 4501 N 446.386 1.0089 -1.21074 0
M  V30 4502 C 447.349 2.0775 -0.968129 0
M  V30 4503 C 448.349 1.6069 0.0593445 0
M  V30 4504 O 449.539 1.73293 -0.177525 0
M  V30 4505 C 446.671 3.37794 -0.459108 0
M  V30 4506 H 447.864 2.30707 -1.9161 0
M  V30 4507 H 445.417 1.17807 -1.02719 0
M  V30 4508 H 446.152 3.20516 0.49397 0
M  V30 4509 H 445.937 3.7328 -1.20019 0
M  V30 4510 H 447.427 4.16454 -0.309099 0
M  V30 4511 N 447.864 1.01787 1.20321 0
M  V30 4512 C 449.112 0.706538 1.89347 0
M  V30 4513 C 449.433 -0.766289 1.79313 0
M  V30 4514 O 448.703 -1.55126 1.19635 0
M  V30 4515 H 447.283 0.258348 0.700903 0
M  V30 4516 H 449.945 1.28974 1.46122 0
M  V30 4517 H 449.041 0.991066 2.95946 0
M  V30 4518 N 449.342 -1.36122 0.79427 0
M  V30 4519 C 450.57 -2.03362 0.380989 0
M  V30 4520 C 450.985 -1.59881 -1.00416 0
M  V30 4521 O 450.342 -0.790515 -1.6449 0
M  V30 4522 C 450.393 -3.58804 0.440649 0
M  V30 4523 O 450.114 -4.007 1.77118 0
M  V30 4524 C 451.615 -4.43296 0.0186117 0
M  V30 4525 H 448.835 -0.652526 0.156367 0
M  V30 4526 H 451.379 -1.73998 1.07447 0
M  V30 4527 H 449.534 -3.8686 -0.204458 0
M  V30 4528 H 449.948 -4.95309 1.72538 0
M  V30 4529 H 451.422 -5.51887 0.111488 0
M  V30 4530 H 451.899 -4.2684 -1.03461 0
M  V30 4531 H 452.505 -4.20512 0.636395 0
M  V30 4532 N 450.82 -0.546701 -1.47814 0
M  V30 4533 C 451.75 0.195317 -2.32682 0
M  V30 4534 C 452.731 0.918981 -1.43139 0
M  V30 4535 O 453.916 0.901501 -1.72008 0
M  V30 4536 C 451.046 1.23237 -3.247 0
M  V30 4537 C 450 0.625818 -4.234 0
M  V30 4538 C 449.326 1.76674 -5.04669 0
M  V30 4539 C 450.626 -0.413515 -5.2066 0
M  V30 4540 H 452.32 -0.513184 -2.94969 0
M  V30 4541 H 449.866 -0.248241 -1.41844 0
M  V30 4542 H 451.819 1.75955 -3.82907 0
M  V30 4543 H 450.543 1.97067 -2.60446 0
M  V30 4544 H 449.202 0.120023 -3.66403 0
M  V30 4545 H 448.85 2.49383 -4.36826 0
M  V30 4546 H 448.55 1.36673 -5.71484 0
M  V30 4547 H 450.074 2.29738 -5.65732 0
M  V30 4548 H 451.488 0.0272042 -5.73294 0
M  V30 4549 H 449.885 -0.731825 -5.95621 0
M  V30 4550 H 450.955 -1.31325 -4.66778 0
M  V30 4551 N 452.299 1.55045 -0.282633 0
M  V30 4552 C 453.524 2.04628 0.337977 0
M  V30 4553 C 453.949 1.15937 1.48123 0
M  V30 4554 O 453.307 0.159532 1.80597 0
M  V30 4555 C 453.355 3.51854 0.78936 0
M  V30 4556 O 452.459 3.66236 1.89592 0
M  V30 4557 H 451.8 0.660434 0.0687261 0
M  V30 4558 H 454.33 2.00261 -0.419124 0
M  V30 4559 H 454.34 3.93361 1.08311 0
M  V30 4560 H 453.015 4.15873 -0.0470419 0
M  V30 4561 H 451.592 3.36633 1.60413 0
M  V30 4562 N 453.777 0.010035 1.57597 0
M  V30 4563 C 455.025 -0.671371 1.90623 0
M  V30 4564 C 455.346 -1.73753 0.885151 0
M  V30 4565 O 454.616 -1.95752 -0.0760611 0
M  V30 4566 H 453.196 -0.250968 0.703579 0
M  V30 4567 H 455.858 0.0533325 1.94827 0
M  V30 4568 H 454.954 -1.13626 2.90681 0
M  V30 4569 N 455.255 -1.55392 -0.262866 0
M  V30 4570 C 456.203 -1.8977 -1.345 0
M  V30 4571 C 457.197 -0.775063 -1.50629 0
M  V30 4572 O 458.403 -0.959519 -1.52293 0
M  V30 4573 H 454.778 -0.602467 -0.450041 0
M  V30 4574 H 456.749 -2.80147 -1.02762 0
M  V30 4575 C 455.498 -2.19501 -2.69657 0
M  V30 4576 H 454.821 -3.05378 -2.5804 0
M  V30 4577 H 456.261 -2.47469 -3.44289 0
M  V30 4578 C 454.72 -1.00597 -3.21531 0
M  V30 4579 O 455.25 -0.245768 -4.00947 0
M  V30 4580 N 453.456 -0.800911 -2.79345 0
M  V30 4581 H 453.003 -1.42079 -2.14875 0
M  V30 4582 H 452.961 -0.00697996 -3.14399 0
M  V30 4583 N 456.733 0.527833 -1.48498 0
M  V30 4584 C 458.144 1.10975 -1.50138 0
M  V30 4585 C 458.495 1.943 -0.272378 0
M  V30 4586 O 457.62 2.07319 0.620301 0
M  V30 4587 C 458.215 2.01927 -2.72049 0
M  V30 4588 C 456.774 2.55332 -2.76554 0
M  V30 4589 C 455.921 1.32341 -2.43683 0
M  V30 4590 H 458.872 0.312986 -1.55583 0
M  V30 4591 H 458.893 2.86244 -2.50689 0
M  V30 4592 H 458.405 1.41254 -3.61481 0
M  V30 4593 H 456.506 3.19721 -1.91336 0
M  V30 4594 H 456.619 2.94319 -3.78038 0
M  V30 4595 H 454.983 1.63989 -1.94884 0
M  V30 4596 H 455.766 0.734165 -3.35358 0
M  V30 4597 N 458.211 1.37122 0.776871 0
M  V30 4598 C 459.141 1.35164 1.90402 0
M  V30 4599 C 460.122 0.221069 1.68657 0
M  V30 4600 O 461.307 0.420642 1.8959 0
M  V30 4601 C 458.437 1.15274 3.27611 0
M  V30 4602 C 457.391 2.25289 3.63908 0
M  V30 4603 C 456.717 1.90527 4.99603 0
M  V30 4604 C 458.017 3.67446 3.71188 0
M  V30 4605 H 459.711 2.29482 1.92297 0
M  V30 4606 H 457.257 1.10465 0.923773 0
M  V30 4607 H 459.21 1.12536 4.06096 0
M  V30 4608 H 457.934 0.174102 3.26136 0
M  V30 4609 H 456.593 2.27174 2.87728 0
M  V30 4610 H 456.241 0.91206 4.94662 0
M  V30 4611 H 455.941 2.64193 5.24858 0
M  V30 4612 H 457.465 1.89367 5.80493 0
M  V30 4613 H 458.879 3.67719 4.39836 0
M  V30 4614 H 457.276 4.40123 4.07936 0
M  V30 4615 H 458.346 4.01443 2.71977 0
M  V30 4616 N 459.689 -1.00246 1.21608 0
M  V30 4617 C 460.652 -2.07233 0.979133 0
M  V30 4618 C 461.652 -1.6072 -0.0508219 0
M  V30 4619 O 462.842 -1.73196 0.186712 0
M  V30 4620 C 459.974 -3.37546 0.477016 0
M  V30 4621 H 461.167 -2.29687 1.92831 0
M  V30 4622 H 458.72 -1.17261 1.03342 0
M  V30 4623 H 459.455 -3.20773 -0.476966 0
M  V30 4624 H 459.24 -3.72638 1.21997 0
M  V30 4625 H 460.73 -4.16285 0.331181 0
M  V30 4626 N 461.167 -1.02423 -1.1978 0
M  V30 4627 C 462.1 -0.545641 -2.21581 0
M  V30 4628 C 463.078 0.411024 -1.57319 0
M  V30 4629 O 464.262 0.329223 -1.85603 0
M  V30 4630 C 461.389 0.204973 -3.38079 0
M  V30 4631 C 460.435 -0.70241 -4.20676 0
M  V30 4632 S 461.268 -2.17595 -4.89298 0
M  V30 4633 C 462.424 -1.43572 -6.09211 0
M  V30 4634 H 462.657 -1.4082 -2.61834 0
M  V30 4635 H 460.19 -0.833771 -1.29952 0
M  V30 4636 H 462.148 0.631924 -4.05607 0
M  V30 4637 H 460.809 1.0432 -2.9627 0
M  V30 4638 H 460.002 -0.123193 -5.03849 0
M  V30 4639 H 459.604 -1.06747 -3.58442 0
M  V30 4640 H 461.896 -0.719806 -6.73665 0
M  V30 4641 H 462.839 -2.24388 -6.71607 0
M  V30 4642 H 463.247 -0.935252 -5.56699 0
M  V30 4643 N 462.645 1.35699 -0.801477 0
M  V30 4644 C 463.873 2.03157 -0.391768 0
M  V30 4645 C 464.288 1.60412 0.995668 0
M  V30 4646 O 463.645 0.799228 1.64069 0
M  V30 4647 C 463.696 3.58566 -0.459671 0
M  V30 4648 O 463.417 3.99756 -1.7924 0
M  V30 4649 C 464.918 4.4328 -0.0421205 0
M  V30 4650 H 462.138 0.651688 -0.159825 0
M  V30 4651 H 464.682 1.73426 -1.08368 0
M  V30 4652 H 462.837 3.86963 0.183939 0
M  V30 4653 H 463.251 4.94387 -1.75162 0
M  V30 4654 H 464.725 5.51821 -0.140754 0
M  V30 4655 H 465.202 4.27383 1.01196 0
M  V30 4656 H 465.808 4.20168 -0.658687 0
M  V30 4657 N 464.123 0.554532 1.47522 0
M  V30 4658 C 465.086 -0.184174 2.28459 0
M  V30 4659 C 466.086 -0.845195 1.36796 0
M  V30 4660 O 467.276 -0.701467 1.59452 0
M  V30 4661 C 464.408 -1.26903 3.16399 0
M  V30 4662 H 465.601 0.526751 2.95238 0
M  V30 4663 H 463.154 0.311375 1.53167 0
M  V30 4664 H 463.889 -2.01244 2.54306 0
M  V30 4665 H 463.674 -0.799883 3.83854 0
M  V30 4666 H 465.164 -1.78794 3.77389 0
M  V30 4667 N 465.601 -1.54893 0.290851 0
M  V30 4668 C 466.849 -1.99538 -0.320756 0
M  V30 4669 C 467.17 -1.18075 -1.55188 0
M  V30 4670 O 466.44 -0.274162 -1.93972 0
M  V30 4671 H 465.02 -0.737052 -0.121507 0
M  V30 4672 H 467.682 -1.90755 0.399832 0
M  V30 4673 H 466.778 -3.06282 -0.599802 0
M  V30 4674 N 467.08 -0.0183926 -1.57589 0
M  V30 4675 C 468.329 0.66185 -1.90532 0
M  V30 4676 C 468.642 1.73904 -0.895366 0
M  V30 4677 O 469.848 2.47518 -1.11566 0
M  V30 4678 C 468.304 1.22844 -3.38286 0
M  V30 4679 C 467.912 0.185103 -4.47617 0
M  V30 4680 C 469.656 1.88581 -3.80312 0
M  V30 4681 C 467.563 0.762723 -5.86461 0
M  V30 4682 H 466.493 0.250972 -0.711006 0
M  V30 4683 H 469.144 -0.0819435 -1.83317 0
M  V30 4684 H 467.526 2.0235 -3.40398 0
M  V30 4685 H 468.7 -0.58671 -4.5705 0
M  V30 4686 H 467.015 -0.372889 -4.14727 0
M  V30 4687 H 469.612 2.32735 -4.81392 0
M  V30 4688 H 469.955 2.72408 -3.14801 0
M  V30 4689 H 470.488 1.15782 -3.80578 0
M  V30 4690 H 467.227 -0.0371713 -6.55489 0
M  V30 4691 H 466.747 1.50327 -5.80656 0
M  V30 4692 H 468.426 1.25576 -6.34697 0
M  V30 4693 N 468.558 1.5553 0.254621 0
M  V30 4694 C 469.505 1.89666 1.31512 0
M  V30 4695 C 470.475 0.750057 1.482 0
M  V30 4696 O 471.66 1.00301 1.62309 0
M  V30 4697 C 468.8 2.19009 2.667 0
M  V30 4698 C 467.913 3.46435 2.58083 0
M  V30 4699 C 467.048 3.65386 3.85573 0
M  V30 4700 C 466.087 4.8644 3.71541 0
M  V30 4701 N 465.224 5.01952 4.90906 0
M  V30 4702 H 470.064 2.80109 1.017 0
M  V30 4703 H 467.601 1.38666 0.490938 0
M  V30 4704 H 469.559 2.34025 3.45381 0
M  V30 4705 H 468.189 1.31779 2.94676 0
M  V30 4706 H 467.241 3.39792 1.71013 0
M  V30 4707 H 468.553 4.35258 2.43622 0
M  V30 4708 H 467.707 3.80319 4.72697 0
M  V30 4709 H 466.446 2.74781 4.02922 0
M  V30 4710 H 465.451 4.71491 2.82801 0
M  V30 4711 H 466.676 5.78497 3.55694 0
M  V30 4712 H 464.622 4.14283 5.08631 0
M  V30 4713 H 464.539 5.84851 4.79046 0
M  V30 4714 H 465.807 5.21289 5.7955 0
M  V30 4715 N 470.036 -0.519951 1.48776 0
M  V30 4716 C 471.264 -1.29971 1.60982 0
M  V30 4717 C 471.679 -1.86803 0.273885 0
M  V30 4718 O 471.036 -1.66904 -0.738193 0
M  V30 4719 C 471.087 -2.44346 2.66415 0
M  V30 4720 O 470.808 -1.89855 3.94825 0
M  V30 4721 C 472.309 -3.36014 2.89153 0
M  V30 4722 H 469.529 -0.394891 0.542496 0
M  V30 4723 H 472.073 -0.626214 1.94676 0
M  V30 4724 H 470.228 -3.07562 2.35552 0
M  V30 4725 H 470.642 -2.64798 4.5275 0
M  V30 4726 H 472.116 -4.12593 3.66703 0
M  V30 4727 H 472.593 -3.91859 1.98351 0
M  V30 4728 H 473.199 -2.78582 3.21359 0
M  V30 4729 N 471.514 -1.37532 -0.769588 0
M  V30 4730 C 472.444 -1.36172 -1.89682 0
M  V30 4731 C 473.425 -0.23001 -1.68538 0
M  V30 4732 O 474.61 -0.43069 -1.89364 0
M  V30 4733 C 471.74 -1.1701 -3.26995 0
M  V30 4734 C 470.694 -2.27216 -3.62708 0
M  V30 4735 C 470.02 -1.93174 -4.98586 0
M  V30 4736 C 471.32 -3.6941 -3.69234 0
M  V30 4737 H 473.014 -2.30499 -1.91078 0
M  V30 4738 H 470.56 -1.10953 -0.917902 0
M  V30 4739 H 472.513 -1.14688 -4.05493 0
M  V30 4740 H 471.237 -0.191395 -3.26039 0
M  V30 4741 H 469.896 -2.28697 -2.86519 0
M  V30 4742 H 469.544 -0.938281 -4.94171 0
M  V30 4743 H 469.244 -2.66973 -5.23449 0
M  V30 4744 H 470.768 -1.92443 -5.79481 0
M  V30 4745 H 472.182 -3.70047 -4.37879 0
M  V30 4746 H 470.579 -4.4228 -4.05597 0
M  V30 4747 H 471.649 -4.0288 -2.69844 0
M  V30 4748 N 472.992 0.995999 -1.22138 0
M  V30 4749 C 473.902 2.11985 -1.00496 0
M  V30 4750 C 474.918 1.7394 0.0457701 0
M  V30 4751 O 476.094 2.00868 -0.146273 0
M  V30 4752 C 473.159 3.41779 -0.582086 0
M  V30 4753 C 472.22 3.93943 -1.70608 0
M  V30 4754 C 471.453 5.17542 -1.30328 0
M  V30 4755 O 471.676 5.70114 -0.180743 0
M  V30 4756 O 470.61 5.63382 -2.11861 0
M  V30 4757 H 474.436 2.33123 -1.94647 0
M  V30 4758 H 472.021 1.10358 -1.00705 0
M  V30 4759 H 473.903 4.1989 -0.356467 0
M  V30 4760 H 472.578 3.22007 0.330592 0
M  V30 4761 H 471.485 3.17019 -1.98619 0
M  V30 4762 H 472.818 4.18141 -2.59651 0
M  V30 4763 N 474.47 1.03057 1.19235 0
M  V30 4764 C 475.4 0.633497 2.24742 0
M  V30 4765 C 476.381 -0.358335 1.66283 0
M  V30 4766 O 477.566 -0.240676 1.92703 0
M  V30 4767 C 474.696 -0.0147648 3.47297 0
M  V30 4768 C 473.65 0.899527 4.18441 0
M  V30 4769 C 472.976 0.116281 5.34574 0
M  V30 4770 C 474.276 2.21404 4.73051 0
M  V30 4771 H 475.97 1.5155 2.58211 0
M  V30 4772 H 473.516 0.73014 1.24117 0
M  V30 4773 H 475.469 -0.304202 4.20301 0
M  V30 4774 H 474.193 -0.931577 3.13032 0
M  V30 4775 H 472.852 1.17319 3.47321 0
M  V30 4776 H 472.5 -0.802619 4.96555 0
M  V30 4777 H 472.2 0.725293 5.83107 0
M  V30 4778 H 473.724 -0.166376 6.10373 0
M  V30 4779 H 475.138 1.98601 5.37802 0
M  V30 4780 H 473.535 2.77512 5.32078 0
M  V30 4781 H 474.605 2.86752 3.91026 0
M  V30 4782 N 475.948 -1.35272 0.808662 0
M  V30 4783 C 476.878 -2.32315 0.234981 0
M  V30 4784 C 477.859 -1.57572 -0.64071 0
M  V30 4785 O 479.044 -1.8563 -0.570551 0
M  V30 4786 C 476.174 -3.41801 -0.615601 0
M  V30 4787 C 475.128 -4.27694 0.161767 0
M  V30 4788 C 474.454 -5.28519 -0.810649 0
M  V30 4789 C 475.754 -5.04231 1.36193 0
M  V30 4790 H 477.448 -2.80543 1.04575 0
M  V30 4791 H 474.994 -1.3488 0.504315 0
M  V30 4792 H 476.947 -4.08693 -1.02702 0
M  V30 4793 H 475.671 -2.92186 -1.45928 0
M  V30 4794 H 474.33 -3.62384 0.554382 0
M  V30 4795 H 473.978 -4.75171 -1.64988 0
M  V30 4796 H 473.678 -5.8686 -0.294822 0
M  V30 4797 H 475.202 -5.98283 -1.22023 0
M  V30 4798 H 476.616 -5.64058 1.02528 0
M  V30 4799 H 475.013 -5.72077 1.81239 0
M  V30 4800 H 476.083 -4.34753 2.14751 0
M  V30 4801 N 477.426 -0.562348 -1.47226 0
M  V30 4802 C 478.842 -0.222492 -1.58042 0
M  V30 4803 C 479.042 1.27505 -1.56028 0
M  V30 4804 O 478.098 2.05555 -1.46641 0
M  V30 4805 C 479.411 -0.853694 -2.88327 0
M  V30 4806 C 480.959 -0.825397 -3.01921 0
M  V30 4807 C 481.434 -1.43576 -4.34914 0
M  V30 4808 N 482.925 -1.39918 -4.41562 0
M  V30 4809 C 483.66 -1.84103 -5.43041 0
M  V30 4810 N 483.156 -2.36167 -6.51304 0
M  V30 4811 N 484.949 -1.75142 -5.34118 0
M  V30 4812 H 477.1 -1.53525 -1.46778 0
M  V30 4813 H 479.363 -0.640527 -0.698877 0
M  V30 4814 H 479.069 -1.90635 -2.95552 0
M  V30 4815 H 478.943 -0.34977 -3.75575 0
M  V30 4816 H 481.33 0.218583 -2.94289 0
M  V30 4817 H 481.411 -1.36713 -2.16202 0
M  V30 4818 H 481.055 -2.47884 -4.43301 0
M  V30 4819 H 480.985 -0.869427 -5.19373 0
M  V30 4820 H 483.476 -1.0184 -3.63919 0
M  V30 4821 H 483.789 -2.67793 -7.24919 0
M  V30 4822 H 482.134 -2.40181 -6.52179 0
M  V30 4823 H 485.325 -1.34241 -4.48439 0
M  V30 4824 H 485.498 -2.09895 -6.13065 0
M  V30 4825 N 478.904 1.54736 -0.299062 0
M  V30 4826 C 479.836 2.20891 0.61153 0
M  V30 4827 C 480.849 1.20104 1.09904 0
M  V30 4828 O 482.038 1.46707 1.01683 0
M  V30 4829 C 479.138 2.84018 1.84897 0
M  V30 4830 C 478.311 4.10719 1.50428 0
M  V30 4831 C 477.37 4.57667 2.59667 0
M  V30 4832 O 476.396 5.2291 2.24842 0
M  V30 4833 N 477.598 4.29821 3.90172 0
M  V30 4834 H 480.363 2.99666 0.0452001 0
M  V30 4835 H 477.924 1.61446 -0.121178 0
M  V30 4836 H 479.916 3.1236 2.5732 0
M  V30 4837 H 478.486 2.09095 2.32375 0
M  V30 4838 H 477.706 3.89408 0.612781 0
M  V30 4839 H 478.994 4.93223 1.24934 0
M  V30 4840 H 478.392 3.77549 4.21276 0
M  V30 4841 H 476.949 4.62877 4.58899 0
M  V30 4842 N 480.382 0.0267497 1.57577 0
M  V30 4843 C 481.793 -0.512413 1.79531 0
M  V30 4844 C 482.144 -1.72391 0.936791 0
M  V30 4845 O 481.269 -2.15903 0.146543 0
M  V30 4846 C 481.864 -0.936378 3.25603 0
M  V30 4847 C 480.423 -1.42067 3.4856 0
M  V30 4848 C 479.57 -0.384278 2.74624 0
M  V30 4849 H 482.521 0.252797 1.56674 0
M  V30 4850 H 482.542 -1.80088 3.35184 0
M  V30 4851 H 482.054 -0.0544332 3.88062 0
M  V30 4852 H 480.155 -2.32262 2.9135 0
M  V30 4853 H 480.268 -1.42968 4.57271 0
M  V30 4854 H 478.632 -0.851855 2.40032 0
M  V30 4855 H 479.415 0.489159 3.39797 0
M  V30 4856 N 481.861 -1.55662 -0.24637 0
M  V30 4857 C 482.824 -1.89558 -1.28842 0
M  V30 4858 C 483.824 -0.772082 -1.41052 0
M  V30 4859 O 485.014 -1.04007 -1.39743 0
M  V30 4860 C 482.146 -2.12449 -2.66605 0
M  V30 4861 H 483.339 -2.82735 -1.00004 0
M  V30 4862 H 480.892 -1.48562 -0.485684 0
M  V30 4863 H 481.627 -1.21742 -3.00582 0
M  V30 4864 H 481.412 -2.94273 -2.59125 0
M  V30 4865 H 482.902 -2.39854 -3.41847 0
M  V30 4866 N 483.339 0.512053 -1.4905 0
M  V30 4867 C 484.567 1.29116 -1.61669 0
M  V30 4868 C 484.982 1.86655 -0.283787 0
M  V30 4869 O 484.339 1.67293 0.729331 0
M  V30 4870 C 484.39 2.4293 -2.67707 0
M  V30 4871 O 484.111 1.87758 -3.95826 0
M  V30 4872 C 485.612 3.34476 -2.90931 0
M  V30 4873 H 482.832 0.392009 -0.544583 0
M  V30 4874 H 485.376 0.615881 -1.95006 0
M  V30 4875 H 483.531 3.06308 -2.37179 0
M  V30 4876 H 483.945 2.62393 -4.54148 0
M  V30 4877 H 485.419 4.10642 -3.68886 0
M  V30 4878 H 485.896 3.90801 -2.00427 0
M  V30 4879 H 486.502 2.76874 -3.22832 0
M  V30 4880 N 484.817 1.37938 0.762283 0
M  V30 4881 C 486.047 1.36685 1.54922 0
M  V30 4882 C 486.455 -0.0474099 1.89141 0
M  V30 4883 O 485.798 -1.02213 1.52638 0
M  V30 4884 C 485.86 2.14963 2.88152 0
M  V30 4885 C 485.524 3.6385 2.76518 0
M  V30 4886 C 486.521 4.57531 2.46904 0
M  V30 4887 C 484.206 4.07095 2.94243 0
M  V30 4888 C 486.2 5.92436 2.35156 0
M  V30 4889 C 483.887 5.42083 2.82116 0
M  V30 4890 C 484.885 6.34567 2.52614 0
M  V30 4891 O 484.573 7.67073 2.40529 0
M  V30 4892 H 484.305 0.469586 0.486276 0
M  V30 4893 H 486.859 1.82012 0.951876 0
M  V30 4894 H 485.089 1.6434 3.50042 0
M  V30 4895 H 486.778 2.06224 3.49609 0
M  V30 4896 H 487.544 4.25428 2.32886 0
M  V30 4897 H 483.423 3.35462 3.16206 0
M  V30 4898 H 486.967 6.64591 2.12049 0
M  V30 4899 H 482.864 5.73785 2.95704 0
M  V30 4900 H 483.632 7.77499 2.55807 0
M  V30 4901 N 486.295 -0.989507 1.22664 0
M  V30 4902 C 487.205 -2.11449 1.01619 0
M  V30 4903 C 488.221 -1.73962 -0.036545 0
M  V30 4904 O 489.397 -2.00788 0.156924 0
M  V30 4905 C 486.462 -3.41465 0.600204 0
M  V30 4906 C 485.523 -3.93033 1.72695 0
M  V30 4907 C 484.756 -5.16844 1.33071 0
M  V30 4908 O 484.979 -5.7001 0.210975 0
M  V30 4909 O 483.913 -5.6225 2.14845 0
M  V30 4910 H 487.739 -2.32088 1.9588 0
M  V30 4911 H 485.324 -1.09823 1.01289 0
M  V30 4912 H 487.206 -4.19695 0.37873 0
M  V30 4913 H 485.881 -3.22178 -0.313511 0
M  V30 4914 H 484.788 -3.15961 2.00298 0
M  V30 4915 H 486.121 -4.16758 2.61865 0
M  V30 4916 N 487.773 -1.03688 -1.18687 0
M  V30 4917 C 489.003 -0.756819 -1.92239 0
M  V30 4918 C 489.411 0.689374 -1.76194 0
M  V30 4919 O 488.754 1.48126 -1.08648 0
M  V30 4920 C 488.816 -1.03851 -3.44173 0
M  V30 4921 C 488.48 -2.47785 -3.83994 0
M  V30 4922 C 489.477 -3.4595 -3.88091 0
M  V30 4923 C 487.162 -2.82397 -4.154 0
M  V30 4924 C 489.156 -4.76779 -4.23038 0
M  V30 4925 C 486.843 -4.13433 -4.50018 0
M  V30 4926 C 487.841 -5.10434 -4.53813 0
M  V30 4927 O 487.529 -6.39122 -4.87625 0
M  V30 4928 H 487.261 -0.275678 -0.617234 0
M  V30 4929 H 489.815 -1.38658 -1.51536 0
M  V30 4930 H 488.045 -0.351612 -3.85098 0
M  V30 4931 H 489.734 -0.746846 -3.9897 0
M  V30 4932 H 490.5 -3.20549 -3.63969 0
M  V30 4933 H 486.379 -2.07568 -4.11627 0
M  V30 4934 H 489.923 -5.52488 -4.25914 0
M  V30 4935 H 485.82 -4.38604 -4.736 0
M  V30 4936 H 486.588 -6.43715 -5.05542 0
M  V30 4937 N 489.251 1.34841 -0.815825 0
M  V30 4938 C 490.181 2.32187 -0.247298 0
M  V30 4939 C 491.162 1.5791 0.632344 0
M  V30 4940 O 492.347 1.8593 0.560698 0
M  V30 4941 C 489.477 3.42122 0.597466 0
M  V30 4942 C 488.431 4.27602 -0.184446 0
M  V30 4943 C 487.757 5.28942 0.782609 0
M  V30 4944 C 489.057 5.03502 -1.38865 0
M  V30 4945 H 490.751 2.79985 -1.06061 0
M  V30 4946 H 488.297 1.34611 -0.511461 0
M  V30 4947 H 490.25 4.09232 1.00533 0
M  V30 4948 H 488.974 2.92956 1.44376 0
M  V30 4949 H 487.633 3.62085 -0.573592 0
M  V30 4950 H 487.281 4.7604 1.62466 0
M  V30 4951 H 486.981 5.87008 0.263695 0
M  V30 4952 H 488.505 5.98922 1.18848 0
M  V30 4953 H 489.919 5.63506 -1.05518 0
M  V30 4954 H 488.316 5.71108 -1.8427 0
M  V30 4955 H 489.386 4.33608 -2.17054 0
M  V30 4956 N 490.729 0.570148 1.46925 0
M  V30 4957 C 492.006 -0.0153259 1.95594 0
M  V30 4958 C 492.386 -1.47232 1.51281 0
M  V30 4959 O 491.734 -2.15574 0.757624 0
M  V30 4960 C 491.944 0.143624 3.48704 0
M  V30 4961 C 493.292 0.00494484 4.246 0
M  V30 4962 O 494.316 0.0718214 3.56128 0
M  V30 4963 O 493.175 -0.141175 5.46318 0
M  V30 4964 H 490.269 -0.0568819 0.825041 0
M  V30 4965 H 492.815 0.637583 1.57267 0
M  V30 4966 H 491.587 1.15699 3.73804 0
M  V30 4967 H 491.21 -0.5463 3.93829 0
M  V30 4968 N 492.207 -1.54576 0.307264 0
M  V30 4969 C 493.139 -2.21212 -0.599807 0
M  V30 4970 C 494.152 -1.20685 -1.09266 0
M  V30 4971 O 495.341 -1.47244 -1.00903 0
M  V30 4972 C 492.441 -2.84994 -1.83389 0
M  V30 4973 C 491.614 -4.11511 -1.48248 0
M  V30 4974 C 490.673 -4.59038 -2.57237 0
M  V30 4975 O 489.699 -5.24095 -2.22065 0
M  V30 4976 N 490.901 -4.31884 -3.87887 0
M  V30 4977 H 493.666 -2.99686 -0.0293075 0
M  V30 4978 H 491.227 -1.61379 0.129738 0
M  V30 4979 H 493.219 -3.1372 -2.5566 0
M  V30 4980 H 491.789 -2.10324 -2.31263 0
M  V30 4981 H 491.009 -3.89728 -0.592122 0
M  V30 4982 H 492.297 -4.93879 -1.22316 0
M  V30 4983 H 491.695 -3.79778 -4.19268 0
M  V30 4984 H 490.252 -4.65304 -4.56438 0
M  V30 4985 N 493.685 -0.035106 -1.57561 0
M  V30 4986 C 494.934 0.641604 -1.91223 0
M  V30 4987 C 495.247 1.72944 -0.913761 0
M  V30 4988 O 496.453 2.46321 -1.14185 0
M  V30 4989 C 494.909 1.19249 -3.3957 0
M  V30 4990 C 494.517 0.137616 -4.47789 0
M  V30 4991 C 496.261 1.84537 -3.82291 0
M  V30 4992 C 494.168 0.700478 -5.87237 0
M  V30 4993 H 493.098 0.243417 -0.713627 0
M  V30 4994 H 495.749 -0.101382 -1.8322 0
M  V30 4995 H 494.131 1.98728 -3.42525 0
M  V30 4996 H 495.305 -0.635153 -4.56402 0
M  V30 4997 H 493.62 -0.416855 -4.14308 0
M  V30 4998 H 496.217 2.27616 -4.83834 0
M  V30 4999 H 496.56 2.69054 -3.17672 0
M  V30 5000 H 497.093 1.11739 -3.81784 0
M  V30 5001 H 493.832 -0.106693 -6.55413 0
M  V30 5002 H 493.352 1.4416 -5.82218 0
M  V30 5003 H 495.031 1.18837 -6.35993 0
M  V30 5004 N 495.163 1.55791 0.238111 0
M  V30 5005 C 496.391 1.82098 0.982233 0
M  V30 5006 C 496.806 0.612025 1.78605 0
M  V30 5007 O 496.163 -0.419381 1.77616 0
M  V30 5008 C 496.214 3.0673 1.91309 0
M  V30 5009 O 495.935 4.2296 1.14179 0
M  V30 5010 C 497.436 3.45903 2.77248 0
M  V30 5011 H 494.656 0.605748 0.288635 0
M  V30 5012 H 497.2 2.02862 0.258341 0
M  V30 5013 H 495.355 2.87991 2.59114 0
M  V30 5014 H 495.769 4.93653 1.7722 0
M  V30 5015 H 497.243 4.36189 3.38295 0
M  V30 5016 H 497.72 2.66891 3.48806 0
M  V30 5017 H 498.326 3.67024 2.14881 0
M  V30 5018 N 496.642 -0.504142 1.49319 0
M  V30 5019 C 497.589 -1.60603 1.65756 0
M  V30 5020 C 498.559 -1.58425 0.499082 0
M  V30 5021 O 499.744 -1.76459 0.725728 0
M  V30 5022 C 496.884 -2.98764 1.72726 0
M  V30 5023 C 495.997 -3.10982 2.99857 0
M  V30 5024 C 495.132 -4.39857 2.97824 0
M  V30 5025 C 494.171 -4.45697 4.19548 0
M  V30 5026 N 493.308 -5.65995 4.15444 0
M  V30 5027 H 498.148 -1.45895 2.59843 0
M  V30 5028 H 495.685 -0.709891 1.28837 0
M  V30 5029 H 497.643 -3.78839 1.74747 0
M  V30 5030 H 496.273 -3.12183 0.821075 0
M  V30 5031 H 495.325 -2.23991 3.07461 0
M  V30 5032 H 496.637 -3.11157 3.89849 0
M  V30 5033 H 495.791 -5.2825 2.98391 0
M  V30 5034 H 494.53 -4.42242 2.05604 0
M  V30 5035 H 493.535 -3.55707 4.19229 0
M  V30 5036 H 494.76 -4.4503 5.12957 0
M  V30 5037 H 492.706 -5.69229 3.26059 0
M  V30 5038 H 492.623 -5.67773 4.99169 0
M  V30 5039 H 493.891 -6.56604 4.20109 0
M  V30 5040 N 498.12 -1.38341 -0.754957 0
M  V30 5041 C 499.536 -1.19508 -1.05783 0
M  V30 5042 C 499.736 -0.0428005 -2.01455 0
M  V30 5043 O 498.792 0.611861 -2.44975 0
M  V30 5044 C 500.105 -2.52091 -1.63923 0
M  V30 5045 C 501.653 -2.58762 -1.76101 0
M  V30 5046 C 502.128 -3.91517 -2.37652 0
M  V30 5047 N 503.619 -3.93049 -2.45085 0
M  V30 5048 C 504.354 -4.9253 -2.93602 0
M  V30 5049 N 503.85 -6.02408 -3.42165 0
M  V30 5050 N 505.643 -4.79921 -2.92629 0
M  V30 5051 H 497.794 -2.1206 -0.120056 0
M  V30 5052 H 500.057 -0.94089 -0.11589 0
M  V30 5053 H 499.763 -3.36858 -1.01093 0
M  V30 5054 H 499.637 -2.70388 -2.63003 0
M  V30 5055 H 502.024 -1.74391 -2.38058 0
M  V30 5056 H 502.105 -2.44333 -0.757294 0
M  V30 5057 H 501.749 -4.76309 -1.76329 0
M  V30 5058 H 501.679 -4.03256 -3.38662 0
M  V30 5059 H 504.17 -3.13685 -2.10736 0
M  V30 5060 H 504.483 -6.74248 -3.77637 0
M  V30 5061 H 502.828 -6.0603 -3.40225 0
M  V30 5062 H 506.019 -3.93194 -2.54001 0
M  V30 5063 H 506.192 -5.57601 -3.30128 0
M  V30 5064 N 499.598 0.982988 -1.23187 0
M  V30 5065 C 500.528 2.09301 -1.03515 0
M  V30 5066 C 501.509 1.70035 0.0471136 0
M  V30 5067 O 502.694 1.93847 -0.117029 0
M  V30 5068 C 499.824 3.4167 -0.622791 0
M  V30 5069 C 498.778 3.94828 -1.65211 0
M  V30 5070 C 498.104 5.23362 -1.09527 0
M  V30 5071 C 499.404 4.2439 -3.04451 0
M  V30 5072 H 501.098 2.26016 -1.96359 0
M  V30 5073 H 498.644 1.08611 -0.945501 0
M  V30 5074 H 500.597 4.18746 -0.472233 0
M  V30 5075 H 499.321 3.24811 0.341329 0
M  V30 5076 H 497.98 3.19895 -1.79061 0
M  V30 5077 H 497.628 5.02852 -0.122211 0
M  V30 5078 H 497.328 5.59895 -1.783 0
M  V30 5079 H 498.852 6.03062 -0.956511 0
M  V30 5080 H 500.266 4.92225 -2.93917 0
M  V30 5081 H 498.663 4.72118 -3.70438 0
M  V30 5082 H 499.733 3.31765 -3.53638 0
M  V30 5083 N 501.076 1.04316 1.18135 0
M  V30 5084 C 502.301 0.768047 1.92655 0
M  V30 5085 C 502.726 -0.66904 1.758 0
M  V30 5086 O 502.084 -1.46372 1.06981 0
M  V30 5087 C 502.132 1.14239 3.42026 0
M  V30 5088 O 501.236 0.269333 4.1152 0
M  V30 5089 H 500.577 0.282436 0.600937 0
M  V30 5090 H 503.107 1.39367 1.49793 0
M  V30 5091 H 503.117 1.10538 3.92741 0
M  V30 5092 H 501.792 2.18928 3.53615 0
M  V30 5093 H 500.369 0.366175 3.71098 0
M  V30 5094 N 502.554 -1.34406 0.822964 0
M  V30 5095 C 503.831 -1.92733 0.333641 0
M  V30 5096 C 504.211 -1.75107 -1.17901 0
M  V30 5097 O 503.559 -1.12983 -1.98613 0
M  V30 5098 C 503.769 -3.40557 0.763023 0
M  V30 5099 C 505.117 -4.17709 0.761879 0
M  V30 5100 O 506.141 -3.49141 0.705606 0
M  V30 5101 O 505 -5.40082 0.835109 0
M  V30 5102 H 502.094 -0.821964 0.0911249 0
M  V30 5103 H 504.64 -1.4338 0.907757 0
M  V30 5104 H 503.412 -3.47187 1.8049 0
M  V30 5105 H 503.035 -3.97259 0.164605 0
M  V30 5106 N 504.032 -0.577932 -1.46621 0
M  V30 5107 C 505.28 -0.061566 -2.02006 0
M  V30 5108 C 505.601 1.30117 -1.4524 0
M  V30 5109 O 504.871 1.85313 -0.63529 0
M  V30 5110 H 503.451 -0.0197692 -0.746738 0
M  V30 5111 H 506.113 -0.752631 -1.79782 0
M  V30 5112 H 505.209 0.0110238 -3.12098 0
M  V30 5113 N 505.51 1.54411 -0.315457 0
M  V30 5114 C 506.44 2.27002 0.547039 0
M  V30 5115 C 507.421 1.27492 1.12605 0
M  V30 5116 O 508.606 1.5629 1.15269 0
M  V30 5117 C 505.736 3.02171 1.71201 0
M  V30 5118 C 504.69 4.0895 1.26268 0
M  V30 5119 C 504.016 4.71915 2.51396 0
M  V30 5120 C 505.316 5.20891 0.383419 0
M  V30 5121 H 507.01 2.99343 -0.0584517 0
M  V30 5122 H 504.556 1.4397 -0.0295527 0
M  V30 5123 H 506.509 3.51681 2.32161 0
M  V30 5124 H 505.233 2.27433 2.34397 0
M  V30 5125 H 503.892 3.60312 0.676062 0
M  V30 5126 H 503.54 3.93801 3.12937 0
M  V30 5127 H 503.24 5.44039 2.22026 0
M  V30 5128 H 504.764 5.24195 3.13133 0
M  V30 5129 H 506.178 5.66206 0.899082 0
M  V30 5130 H 504.575 5.99821 0.182857 0
M  V30 5131 H 505.645 4.81324 -0.587821 0
M  V30 5132 N 506.988 0.0434614 1.5754 0
M  V30 5133 C 507.918 -0.931651 2.14109 0
M  V30 5134 C 508.899 -1.32971 1.06079 0
M  V30 5135 O 510.084 -1.40579 1.33982 0
M  V30 5136 C 507.214 -2.20914 2.67982 0
M  V30 5137 C 506.168 -1.95139 3.80926 0
M  V30 5138 C 505.494 -3.29276 4.21285 0
M  V30 5139 C 506.794 -1.27913 5.06395 0
M  V30 5140 H 508.488 -0.460497 2.95837 0
M  V30 5141 H 506.034 -0.220058 1.42309 0
M  V30 5142 H 507.987 -2.89522 3.06194 0
M  V30 5143 H 506.711 -2.70221 1.83434 0
M  V30 5144 H 505.37 -1.28945 3.43175 0
M  V30 5145 H 505.018 -3.76369 3.33699 0
M  V30 5146 H 504.718 -3.12831 4.97404 0
M  V30 5147 H 506.242 -3.99129 4.62091 0
M  V30 5148 H 507.656 -1.86544 5.42102 0
M  V30 5149 H 506.053 -1.2182 5.87605 0
M  V30 5150 H 507.123 -0.254066 4.84234 0
M  V30 5151 N 508.466 -1.55915 -0.229846 0
M  V30 5152 C 509.429 -1.90914 -1.26824 0
M  V30 5153 C 510.429 -0.786999 -1.40225 0
M  V30 5154 O 511.619 -1.05484 -1.38632 0
M  V30 5155 C 508.751 -2.15264 -2.64337 0
M  V30 5156 H 509.944 -2.8378 -0.969998 0
M  V30 5157 H 507.497 -1.49069 -0.4699 0
M  V30 5158 H 508.232 -1.24923 -2.99274 0
M  V30 5159 H 508.017 -2.97005 -2.55989 0
M  V30 5160 H 509.507 -2.43467 -3.39284 0
M  V30 5161 N 509.944 0.496216 -1.49584 0
M  V30 5162 C 511.193 1.24668 -1.58558 0
M  V30 5163 C 511.506 1.9359 -0.279703 0
M  V30 5164 O 512.712 2.70365 -0.248048 0
M  V30 5165 C 511.168 2.26388 -2.79779 0
M  V30 5166 C 510.776 1.63384 -4.17145 0
M  V30 5167 C 512.52 3.02233 -2.98086 0
M  V30 5168 C 510.427 2.63243 -5.29582 0
M  V30 5169 H 509.357 0.468995 -0.590389 0
M  V30 5170 H 512.008 0.519985 -1.75978 0
M  V30 5171 H 510.39 3.02241 -2.55863 0
M  V30 5172 H 511.564 0.93491 -4.51216 0
M  V30 5173 H 509.879 0.999121 -4.04236 0
M  V30 5174 H 512.476 3.76919 -3.79257 0
M  V30 5175 H 512.819 3.60132 -2.08831 0
M  V30 5176 H 513.352 2.33495 -3.22063 0
M  V30 5177 H 510.091 2.10119 -6.20911 0
M  V30 5178 H 509.611 3.31363 -4.99959 0
M  V30 5179 H 511.29 3.25575 -5.59115 0
M  V30 5180 N 511.423 1.38739 0.74761 0
M  V30 5181 C 512.386 1.36241 1.84312 0
M  V30 5182 C 513.386 0.261811 1.58654 0
M  V30 5183 O 514.576 0.519031 1.66288 0
M  V30 5184 C 511.708 1.12253 3.21888 0
M  V30 5185 H 512.901 2.33712 1.87933 0
M  V30 5186 H 510.454 1.2412 0.949946 0
M  V30 5187 H 511.189 0.154133 3.23934 0
M  V30 5188 H 510.974 1.91943 3.41907 0
M  V30 5189 H 512.464 1.13215 4.0196 0
M  V30 5190 N 512.901 -0.976442 1.23707 0
M  V30 5191 C 513.833 -2.07212 0.979574 0
M  V30 5192 C 514.846 -1.6273 -0.0478528 0
M  V30 5193 O 516.035 -1.77506 0.18815 0
M  V30 5194 C 513.135 -3.35835 0.45479 0
M  V30 5195 C 512.308 -4.09268 1.54331 0
M  V30 5196 C 511.367 -5.16166 1.02271 0
M  V30 5197 O 510.393 -5.42827 1.71254 0
M  V30 5198 N 511.595 -5.80313 -0.147419 0
M  V30 5199 H 514.36 -2.29878 1.92292 0
M  V30 5200 H 511.921 -1.14343 1.14618 0
M  V30 5201 H 513.913 -4.04597 0.0914631 0
M  V30 5202 H 512.483 -3.10106 -0.394068 0
M  V30 5203 H 511.703 -3.34906 2.07923 0
M  V30 5204 H 512.991 -4.55095 2.27522 0
M  V30 5205 H 512.389 -5.61043 -0.724353 0
M  V30 5206 H 510.946 -6.50231 -0.451972 0
M  V30 5207 N 514.379 -1.04941 -1.1758 0
M  V30 5208 C 515.289 -0.658826 -2.25159 0
M  V30 5209 C 516.305 0.318941 -1.71052 0
M  V30 5210 O 517.481 0.171669 -2.00667 0
M  V30 5211 C 514.546 -0.0369522 -3.4668 0
M  V30 5212 C 513.607 -1.06484 -4.15884 0
M  V30 5213 C 512.84 -0.472551 -5.31604 0
M  V30 5214 O 513.063 0.718736 -5.65854 0
M  V30 5215 O 511.997 -1.20557 -5.89703 0
M  V30 5216 H 515.823 -1.55533 -2.60851 0
M  V30 5217 H 513.408 -0.820819 -1.24832 0
M  V30 5218 H 515.29 0.308784 -4.20267 0
M  V30 5219 H 513.965 0.833238 -3.12792 0
M  V30 5220 H 512.872 -1.46253 -3.44327 0
M  V30 5221 H 514.205 -1.9061 -4.53794 0
M  V30 5222 N 515.857 1.33968 -0.830081 0
M  V30 5223 C 517.085 2.0228 -0.434773 0
M  V30 5224 C 517.5 1.62487 0.961419 0
M  V30 5225 O 516.857 0.833849 1.62337 0
M  V30 5226 C 516.908 3.5751 -0.535625 0
M  V30 5227 O 516.629 3.95864 -1.87679 0
M  V30 5228 C 518.13 4.43091 -0.136137 0
M  V30 5229 H 515.35 0.648151 -0.173613 0
M  V30 5230 H 517.894 1.71089 -1.12022 0
M  V30 5231 H 516.049 3.87266 0.101817 0
M  V30 5232 H 516.463 4.9056 -1.85609 0
M  V30 5233 H 517.937 5.51398 -0.257772 0
M  V30 5234 H 518.414 4.29433 0.921076 0
M  V30 5235 H 519.02 4.18677 -0.747662 0
M  V30 5236 N 517.335 0.585699 1.46312 0
M  V30 5237 C 518.583 0.072278 2.01971 0
M  V30 5238 C 518.904 -1.29345 1.45928 0
M  V30 5239 O 518.174 -1.84973 0.645109 0
M  V30 5240 H 516.754 0.023729 0.746623 0
M  V30 5241 H 519.416 0.762155 1.7938 0
M  V30 5242 H 518.512 0.00552767 3.121 0
M  V30 5243 N 518.813 -1.54241 0.323641 0
M  V30 5244 C 519.763 -2.21071 -0.557833 0
M  V30 5245 C 520.747 -1.19126 -1.08157 0
M  V30 5246 O 521.939 -1.44755 -1.01857 0
M  V30 5247 C 519.068 -2.97208 -1.71821 0
M  V30 5248 C 518.154 -4.06491 -1.20936 0
M  V30 5249 N 518.545 -5.04052 -0.420202 0
M  V30 5250 C 516.843 -4.20443 -1.48808 0
M  V30 5251 C 517.544 -5.81516 -0.146413 0
M  V30 5252 N 516.52 -5.38641 -0.732562 0
M  V30 5253 H 520.322 -2.93853 0.0523921 0
M  V30 5254 H 517.836 -1.61883 0.129502 0
M  V30 5255 H 519.833 -3.4357 -2.36146 0
M  V30 5256 H 518.493 -2.25947 -2.33191 0
M  V30 5257 H 519.504 -5.17862 -0.0630401 0
M  V30 5258 H 516.181 -3.60396 -2.10762 0
M  V30 5259 H 517.571 -6.70119 0.488895 0
M  V30 5260 N 520.291 -0.0518155 -1.57515 0
M  V30 5261 C 521.254 0.907547 -2.10467 0
M  V30 5262 C 522.254 1.23947 -1.02439 0
M  V30 5263 O 523.444 1.17604 -1.2851 0
M  V30 5264 C 520.576 2.21723 -2.58944 0
M  V30 5265 H 521.769 0.44851 -2.96527 0
M  V30 5266 H 519.322 0.196598 -1.55059 0
M  V30 5267 H 520.057 2.72206 -1.76279 0
M  V30 5268 H 519.842 1.98935 -3.37886 0
M  V30 5269 H 521.332 2.90441 -3.00056 0
M  V30 5270 N 521.769 1.56035 0.221574 0
M  V30 5271 C 522.732 1.91584 1.2581 0
M  V30 5272 C 523.732 0.794425 1.39805 0
M  V30 5273 O 524.922 1.06217 1.38071 0
M  V30 5274 C 522.054 2.16663 2.63192 0
M  V30 5275 H 523.247 2.8429 0.954935 0
M  V30 5276 H 520.8 1.49316 0.461988 0
M  V30 5277 H 521.535 1.26508 2.98607 0
M  V30 5278 H 521.32 2.98358 2.5441 0
M  V30 5279 H 522.81 2.45262 3.37988 0
M  V30 5280 N 523.247 -0.488276 1.49845 0
M  V30 5281 C 524.487 -1.2516 1.61599 0
M  V30 5282 C 524.851 -1.89615 0.301706 0
M  V30 5283 O 526.052 -2.67182 0.29453 0
M  V30 5284 C 524.323 -2.2805 2.75187 0
M  V30 5285 S 525.882 -3.13552 3.0697 0
M  V30 5286 H 522.7 -0.425178 0.569864 0
M  V30 5287 H 525.302 -0.551545 1.87559 0
M  V30 5288 H 524.006 -1.7925 3.69185 0
M  V30 5289 H 523.537 -3.02708 2.5126 0
M  V30 5290 H 525.552 -4.28927 2.49471 0
M  V30 5291 N 524.725 -1.39134 -0.740242 0
M  V30 5292 C 525.973 -1.35803 -1.49673 0
M  V30 5293 C 526.294 0.0470897 -1.94943 0
M  V30 5294 O 525.564 0.997347 -1.68611 0
M  V30 5295 H 524.144 -0.499736 -0.555224 0
M  V30 5296 H 526.806 -1.73947 -0.879107 0
M  V30 5297 H 525.902 -2.0174 -2.38133 0
M  V30 5298 N 526.204 0.969867 -1.24223 0
M  V30 5299 C 527.452 1.70918 -1.0785 0
M  V30 5300 C 527.773 1.91186 0.383763 0
M  V30 5301 O 527.043 1.48806 1.27411 0
M  V30 5302 H 525.623 0.633334 -0.396103 0
M  V30 5303 H 528.285 1.16689 -1.56108 0
M  V30 5304 H 527.381 2.69455 -1.57482 0
M  V30 5305 N 527.682 1.05563 1.17022 0
M  V30 5306 C 528.614 0.617888 2.20714 0
M  V30 5307 C 529.627 -0.320303 1.59618 0
M  V30 5308 O 530.816 -0.112449 1.78145 0
M  V30 5309 C 527.916 -0.115333 3.38704 0
M  V30 5310 C 527.089 0.834493 4.29366 0
M  V30 5311 C 526.148 0.141855 5.26009 0
M  V30 5312 O 525.174 0.777151 5.6387 0
M  V30 5313 N 526.376 -1.11934 5.69606 0
M  V30 5314 H 529.141 1.50981 2.58892 0
M  V30 5315 H 526.702 0.938008 1.31958 0
M  V30 5316 H 528.694 -0.588918 4.00392 0
M  V30 5317 H 527.264 -0.908967 2.99093 0
M  V30 5318 H 526.484 1.48762 3.65053 0
M  V30 5319 H 527.772 1.4791 4.86827 0
M  V30 5320 H 527.17 -1.65574 5.40927 0
M  V30 5321 H 525.727 -1.53692 6.33421 0
M  V30 5322 N 529.16 -1.33526 0.837174 0
M  V30 5323 C 530.406 -1.9813 0.432704 0
M  V30 5324 C 530.739 -1.66168 -1.00508 0
M  V30 5325 O 530.014 -0.94069 -1.70239 0
M  V30 5326 C 530.297 -3.54151 0.651834 0
M  V30 5327 C 530.15 -3.95806 2.13676 0
M  V30 5328 C 531.469 -4.39993 0.0968937 0
M  V30 5329 H 528.588 -0.719713 0.15869 0
M  V30 5330 H 531.23 -1.58193 1.05237 0
M  V30 5331 H 529.38 -3.88301 0.124369 0
M  V30 5332 H 531.052 -3.71921 2.72896 0
M  V30 5333 H 529.295 -3.45599 2.62191 0
M  V30 5334 H 529.966 -5.0447 2.24084 0
M  V30 5335 H 532.442 -4.12479 0.547733 0
M  V30 5336 H 531.318 -5.48186 0.279917 0
M  V30 5337 H 531.579 -4.3066 -0.9992 0
M  V30 5338 N 530.638 -0.59345 -1.46 0
M  V30 5339 C 531.863 -0.0872365 -2.07216 0
M  V30 5340 C 532.288 1.2131 -1.43755 0
M  V30 5341 O 531.646 1.73528 -0.525152 0
M  V30 5342 C 531.694 0.0538197 -3.6056 0
M  V30 5343 O 530.798 1.10765 -3.97247 0
M  V30 5344 H 530.139 -0.0676598 -0.660544 0
M  V30 5345 H 532.669 -0.819445 -1.87473 0
M  V30 5346 H 532.679 0.256567 -4.07193 0
M  V30 5347 H 531.354 -0.895739 -4.0614 0
M  V30 5348 H 529.931 0.882501 -3.62307 0
M  V30 5349 N 532.116 1.54067 -0.331816 0
M  V30 5350 C 533.364 2.00319 0.267739 0
M  V30 5351 C 533.685 1.22148 1.52003 0
M  V30 5352 O 532.955 0.325494 1.93177 0
M  V30 5353 H 531.535 0.740014 0.101922 0
M  V30 5354 H 534.197 1.89628 -0.450267 0
M  V30 5355 H 533.293 3.07765 0.518385 0
M  V30 5356 N 533.594 0.0601682 1.57485 0
M  V30 5357 C 534.527 -0.94676 2.07634 0
M  V30 5358 C 535.505 -1.29837 0.978826 0
M  V30 5359 O 536.689 -1.40969 1.2514 0
M  V30 5360 C 533.816 -2.25822 2.52433 0
M  V30 5361 C 532.862 -2.05901 3.73507 0
M  V30 5362 S 533.695 -1.32907 5.18745 0
M  V30 5363 C 534.851 -2.65356 5.66866 0
M  V30 5364 H 535.084 -0.520003 2.92717 0
M  V30 5365 H 532.617 -0.152319 1.53647 0
M  V30 5366 H 534.575 -3.01201 2.78905 0
M  V30 5367 H 533.236 -2.65624 1.67639 0
M  V30 5368 H 532.429 -3.02929 4.02803 0
M  V30 5369 H 532.031 -1.38659 3.47347 0
M  V30 5370 H 534.323 -3.61492 5.73001 0
M  V30 5371 H 535.266 -2.40685 6.6594 0
M  V30 5372 H 535.674 -2.72028 4.94632 0
M  V30 5373 N 535.072 -1.5615 -0.213296 0
M  V30 5374 C 536.319 -1.79546 -0.936462 0
M  V30 5375 C 536.647 -0.630337 -1.84003 0
M  V30 5376 O 535.902 0.384883 -1.91878 0
M  V30 5377 C 536.201 -3.08772 -1.79985 0
M  V30 5378 C 535.867 -4.38532 -1.04882 0
M  V30 5379 C 534.529 -4.73787 -0.841393 0
M  V30 5380 C 536.881 -5.18609 -0.51907 0
M  V30 5381 C 534.209 -5.86627 -0.0924403 0
M  V30 5382 C 536.561 -6.32229 0.216581 0
M  V30 5383 C 535.225 -6.6608 0.435191 0
M  V30 5384 H 534.495 -0.657004 -0.342676 0
M  V30 5385 H 537.142 -1.9041 -0.204051 0
M  V30 5386 H 535.447 -2.93065 -2.60038 0
M  V30 5387 H 537.144 -3.24077 -2.36168 0
M  V30 5388 H 533.734 -4.10855 -1.22048 0
M  V30 5389 H 537.918 -4.91801 -0.666775 0
M  V30 5390 H 533.174 -6.11338 0.087081 0
M  V30 5391 H 537.348 -6.93503 0.634538 0
M  V30 5392 H 534.975 -7.5336 1.01746 0
M  V30 5393 N 536.55 0.480323 -1.50102 0
M  V30 5394 C 537.798 1.23063 -1.60312 0
M  V30 5395 C 538.119 1.92659 -0.301226 0
M  V30 5396 O 537.389 1.83691 0.680753 0
M  V30 5397 H 535.969 0.457231 -0.590719 0
M  V30 5398 H 538.631 0.554893 -1.86834 0
M  V30 5399 H 537.727 1.9835 -2.40964 0
M  V30 5400 N 538.028 1.39524 0.732853 0
M  V30 5401 C 539.275 1.36865 1.49246 0
M  V30 5402 C 539.603 -0.0347118 1.94469 0
M  V30 5403 O 538.858 -1.01596 1.67262 0
M  V30 5404 C 539.157 2.28916 2.74468 0
M  V30 5405 C 538.823 3.76506 2.481 0
M  V30 5406 C 537.485 4.16721 2.40619 0
M  V30 5407 C 539.837 4.69846 2.25598 0
M  V30 5408 C 537.165 5.48334 2.08679 0
M  V30 5409 C 539.517 6.01739 1.95174 0
M  V30 5410 C 538.181 6.41015 1.86163 0
M  V30 5411 H 537.451 0.500824 0.546129 0
M  V30 5412 H 540.098 1.72047 0.840958 0
M  V30 5413 H 538.403 1.86859 3.4437 0
M  V30 5414 H 540.1 2.2415 3.32502 0
M  V30 5415 H 536.69 3.44635 2.54803 0
M  V30 5416 H 540.874 4.39608 2.30344 0
M  V30 5417 H 536.13 5.77685 2.00226 0
M  V30 5418 H 540.304 6.73591 1.76771 0
M  V30 5419 H 537.931 7.42917 1.61179 0
M  V30 5420 N 539.506 -0.963266 1.24736 0
M  V30 5421 C 540.753 -1.7068 1.0897 0
M  V30 5422 C 541.081 -1.90934 -0.370751 0
M  V30 5423 O 540.336 -1.47155 -1.29011 0
M  V30 5424 C 540.635 -3.09944 1.7796 0
M  V30 5425 C 540.301 -3.09518 3.27887 0
M  V30 5426 C 538.963 -3.09109 3.68789 0
M  V30 5427 C 541.315 -3.03509 4.23712 0
M  V30 5428 C 538.643 -3.00429 5.03944 0
M  V30 5429 C 540.995 -2.96371 5.5888 0
M  V30 5430 C 539.659 -2.94293 5.99123 0
M  V30 5431 H 538.929 -0.624564 0.398749 0
M  V30 5432 H 541.576 -1.12603 1.54896 0
M  V30 5433 H 539.881 -3.71513 1.2444 0
M  V30 5434 H 541.578 -3.66278 1.63222 0
M  V30 5435 H 538.168 -3.10603 2.95337 0
M  V30 5436 H 542.352 -3.0295 3.93109 0
M  V30 5437 H 537.608 -2.97183 5.34314 0
M  V30 5438 H 541.782 -2.90681 6.32833 0
M  V30 5439 H 539.409 -2.87322 7.03811 0
M  V30 5440 N 540.985 -1.06182 -1.16461 0
M  V30 5441 C 542.232 -0.777863 -1.86964 0
M  V30 5442 C 542.56 0.695602 -1.81636 0
M  V30 5443 O 541.815 1.52532 -1.22607 0
M  V30 5444 C 542.114 -1.21633 -3.36066 0
M  V30 5445 C 541.78 -2.69371 -3.61594 0
M  V30 5446 C 540.442 -3.09727 -3.6827 0
M  V30 5447 C 542.794 -3.64791 -3.7226 0
M  V30 5448 C 540.122 -4.44345 -3.83112 0
M  V30 5449 C 542.474 -4.99155 -3.88623 0
M  V30 5450 C 541.138 -5.39149 -3.93541 0
M  V30 5451 H 540.408 -0.28464 -0.68415 0
M  V30 5452 H 543.055 -1.33071 -1.37711 0
M  V30 5453 H 541.36 -0.582651 -3.87443 0
M  V30 5454 H 543.057 -0.973682 -3.88999 0
M  V30 5455 H 539.647 -2.37124 -3.57029 0
M  V30 5456 H 543.831 -3.34746 -3.66413 0
M  V30 5457 H 539.087 -4.74819 -3.85172 0
M  V30 5458 H 543.261 -5.72976 -3.95817 0
M  V30 5459 H 540.888 -6.43464 -4.04794 0
M  V30 5460 N 542.463 1.3308 -0.844243 0
M  V30 5461 C 543.691 2.01808 -0.456203 0
M  V30 5462 C 544.106 1.63498 0.944131 0
M  V30 5463 O 543.463 0.85102 1.61443 0
M  V30 5464 C 543.514 3.56922 -0.573513 0
M  V30 5465 O 543.235 3.93851 -1.91868 0
M  V30 5466 C 544.736 4.42922 -0.183125 0
M  V30 5467 H 541.956 0.646273 -0.180477 0
M  V30 5468 H 544.5 1.69891 -1.1383 0
M  V30 5469 H 542.655 3.87352 0.0607367 0
M  V30 5470 H 543.069 4.88564 -1.90802 0
M  V30 5471 H 544.543 5.51093 -0.316241 0
M  V30 5472 H 545.02 4.30386 0.875477 0
M  V30 5473 H 545.626 4.1786 -0.792027 0
M  V30 5474 N 543.941 0.601185 1.45683 0
M  V30 5475 C 544.851 -0.123395 2.34275 0
M  V30 5476 C 545.867 -0.86702 1.5086 0
M  V30 5477 O 547.043 -0.826049 1.8368 0
M  V30 5478 C 544.108 -1.11237 3.2837 0
M  V30 5479 C 543.169 -0.371405 4.2769 0
M  V30 5480 C 542.402 -1.31327 5.1729 0
M  V30 5481 O 542.625 -2.55078 5.10188 0
M  V30 5482 O 541.559 -0.813811 5.96373 0
M  V30 5483 H 545.385 0.604483 2.97623 0
M  V30 5484 H 542.97 0.361477 1.44961 0
M  V30 5485 H 544.852 -1.68214 3.8637 0
M  V30 5486 H 543.527 -1.82139 2.67595 0
M  V30 5487 H 542.434 0.24067 3.73325 0
M  V30 5488 H 543.767 0.296998 4.91303 0
M  V30 5489 N 545.419 -1.53889 0.339982 0
M  V30 5490 C 546.667 -2.00458 -0.257112 0
M  V30 5491 C 546.988 -1.22953 -1.51353 0
M  V30 5492 O 546.258 -0.335734 -1.93002 0
M  V30 5493 H 544.838 -0.740544 -0.0979965 0
M  V30 5494 H 547.5 -1.89386 0.460317 0
M  V30 5495 H 546.596 -3.08035 -0.502057 0
M  V30 5496 N 546.897 -0.0685191 -1.57451 0
M  V30 5497 C 548.308 0.464634 -1.80826 0
M  V30 5498 C 548.659 1.69847 -0.982169 0
M  V30 5499 O 547.784 2.15439 -0.203734 0
M  V30 5500 C 548.379 0.849721 -3.27971 0
M  V30 5501 C 546.938 1.32776 -3.52204 0
M  V30 5502 C 546.085 0.311332 -2.75547 0
M  V30 5503 H 549.036 -0.294248 -1.55948 0
M  V30 5504 H 549.057 1.71138 -3.39841 0
M  V30 5505 H 548.569 -0.0484736 -3.8807 0
M  V30 5506 H 546.67 2.24456 -2.97406 0
M  V30 5507 H 546.783 1.30794 -4.60901 0
M  V30 5508 H 545.147 0.787915 -2.42206 0
M  V30 5509 H 545.93 -0.579078 -3.38381 0
M  V30 5510 N 548.375 1.56261 0.205012 0
M  V30 5511 C 549.621 1.80306 0.9283 0
M  V30 5512 C 549.954 0.640932 1.83319 0
M  V30 5513 O 549.229 -0.359032 1.91158 0
M  V30 5514 C 549.512 3.14547 1.75306 0
M  V30 5515 C 549.365 4.41236 0.873562 0
M  V30 5516 C 550.684 3.45382 2.72762 0
M  V30 5517 H 547.803 0.655929 0.336044 0
M  V30 5518 H 550.445 1.88984 0.196211 0
M  V30 5519 H 548.595 3.0728 2.37721 0
M  V30 5520 H 550.267 4.60539 0.264887 0
M  V30 5521 H 548.51 4.33427 0.179773 0
M  V30 5522 H 549.181 5.31639 1.48541 0
M  V30 5523 H 551.657 3.52884 2.20481 0
M  V30 5524 H 550.533 4.40449 3.2756 0
M  V30 5525 H 550.794 2.68377 3.51321 0
M  V30 5526 N 549.853 -0.472356 1.50355 0
M  V30 5527 C 550.803 -1.56809 1.65514 0
M  V30 5528 C 551.787 -1.5261 0.509801 0
M  V30 5529 O 552.979 -1.59655 0.764145 0
M  V30 5530 C 550.108 -2.9526 1.75146 0
M  V30 5531 C 549.194 -3.04348 2.95353 0
M  V30 5532 N 549.585 -2.83253 4.19048 0
M  V30 5533 C 547.883 -3.35482 2.93884 0
M  V30 5534 C 548.584 -2.97273 5.00003 0
M  V30 5535 N 547.56 -3.27418 4.33934 0
M  V30 5536 H 551.362 -1.39197 2.58846 0
M  V30 5537 H 548.876 -0.67906 1.47521 0
M  V30 5538 H 550.873 -3.74044 1.8411 0
M  V30 5539 H 549.533 -3.1392 0.829717 0
M  V30 5540 H 550.544 -2.5886 4.48567 0
M  V30 5541 H 547.221 -3.60138 2.11204 0
M  V30 5542 H 548.611 -2.85214 6.08361 0
M  V30 5543 N 551.331 -1.39911 -0.725443 0
M  V30 5544 C 552.279 -1.39552 -1.86086 0
M  V30 5545 C 553.273 -0.277334 -1.67114 0
M  V30 5546 O 554.479 -0.447865 -1.74339 0
M  V30 5547 H 550.854 -0.435993 -0.612711 0
M  V30 5548 H 552.825 -2.35305 -1.83505 0
M  V30 5549 C 551.574 -1.26529 -3.2386 0
M  V30 5550 H 550.897 -2.11845 -3.3906 0
M  V30 5551 H 552.337 -1.30336 -4.03471 0
M  V30 5552 C 550.796 0.0254168 -3.3689 0
M  V30 5553 O 551.326 0.992048 -3.89257 0
M  V30 5554 N 549.532 0.0916528 -2.90455 0
M  V30 5555 H 549.079 -0.695675 -2.48028 0
M  V30 5556 H 549.037 0.954745 -2.99553 0
M  V30 5557 N 552.809 0.956637 -1.25245 0
M  V30 5558 C 554.039 1.7332 -1.12445 0
M  V30 5559 C 554.447 1.86392 0.324732 0
M  V30 5560 O 553.79 1.35967 1.23526 0
M  V30 5561 C 553.852 3.16603 -1.70303 0
M  V30 5562 C 553.516 3.26966 -3.19284 0
M  V30 5563 C 554.513 3.11434 -4.16299 0
M  V30 5564 C 552.198 3.50851 -3.59456 0
M  V30 5565 C 554.192 3.1963 -5.51467 0
M  V30 5566 C 551.879 3.58684 -4.94761 0
M  V30 5567 C 552.877 3.43087 -5.90576 0
M  V30 5568 O 552.565 3.50598 -7.2342 0
M  V30 5569 H 552.297 0.549981 -0.393061 0
M  V30 5570 H 554.851 1.20892 -1.66055 0
M  V30 5571 H 553.081 3.70385 -1.11138 0
M  V30 5572 H 554.77 3.76109 -1.52632 0
M  V30 5573 H 555.536 2.92853 -3.86604 0
M  V30 5574 H 551.415 3.62053 -2.85375 0
M  V30 5575 H 554.959 3.07373 -6.26233 0
M  V30 5576 H 550.856 3.76782 -5.24124 0
M  V30 5577 H 551.624 3.67242 -7.31489 0
M  V30 5578 N 554.287 1.06798 1.15896 0
M  V30 5579 C 555.197 0.694564 2.24083 0
M  V30 5580 C 556.213 -0.291687 1.71538 0
M  V30 5581 O 557.389 -0.139723 2.00915 0
M  V30 5582 C 554.454 0.0921014 3.46578 0
M  V30 5583 C 553.515 1.13087 4.14137 0
M  V30 5584 C 552.748 0.557064 5.30785 0
M  V30 5585 O 552.971 -0.628623 5.66925 0
M  V30 5586 O 551.905 1.29924 5.8771 0
M  V30 5587 H 555.731 1.59663 2.58344 0
M  V30 5588 H 553.316 0.840575 1.2351 0
M  V30 5589 H 555.198 -0.241884 4.20705 0
M  V30 5590 H 553.873 -0.78337 3.14078 0
M  V30 5591 H 552.78 1.51712 3.41957 0
M  V30 5592 H 554.113 1.97805 4.50704 0
M  V30 5593 N 555.766 -1.3263 0.851289 0
M  V30 5594 C 557.043 -1.91982 0.374448 0
M  V30 5595 C 557.423 -1.77568 -1.14161 0
M  V30 5596 O 556.771 -1.1717 -1.96172 0
M  V30 5597 C 556.981 -3.38862 0.835088 0
M  V30 5598 C 558.329 -4.15999 0.850309 0
M  V30 5599 O 559.353 -3.47566 0.779505 0
M  V30 5600 O 558.212 -5.38189 0.949481 0
M  V30 5601 H 555.306 -0.819846 0.10854 0
M  V30 5602 H 557.852 -1.41422 0.937966 0
M  V30 5603 H 556.624 -3.43281 1.87814 0
M  V30 5604 H 556.247 -3.96821 0.248833 0
M  V30 5605 N 557.244 -0.608902 -1.45362 0
M  V30 5606 C 558.207 0.0992563 -2.28985 0
M  V30 5607 C 559.207 0.793841 -1.39838 0
M  V30 5608 O 560.397 0.641804 -1.61946 0
M  V30 5609 C 557.529 1.15073 -3.20891 0
M  V30 5610 H 558.722 -0.635964 -2.93079 0
M  V30 5611 H 556.275 -0.368007 -1.51906 0
M  V30 5612 H 557.01 1.91667 -2.616 0
M  V30 5613 H 556.795 0.656867 -3.86559 0
M  V30 5614 H 558.285 1.64665 -3.83765 0
M  V30 5615 N 558.722 1.53707 -0.348139 0
M  V30 5616 C 559.669 2.25173 0.506518 0
M  V30 5617 C 560.639 1.25174 1.09182 0
M  V30 5618 O 561.824 1.53917 1.12757 0
M  V30 5619 C 558.964 3.03141 1.64923 0
M  V30 5620 C 558.077 4.18002 1.0908 0
M  V30 5621 C 557.212 4.83447 2.20119 0
M  V30 5622 C 556.251 5.90369 1.61651 0
M  V30 5623 N 555.388 6.49575 2.66451 0
M  V30 5624 H 560.228 2.97799 -0.109452 0
M  V30 5625 H 557.765 1.46953 -0.0657866 0
M  V30 5626 H 559.723 3.46607 2.32205 0
M  V30 5627 H 558.353 2.32803 2.23612 0
M  V30 5628 H 557.405 3.79145 0.308783 0
M  V30 5629 H 558.717 4.94892 0.623178 0
M  V30 5630 H 557.871 5.30008 2.95257 0
M  V30 5631 H 556.61 4.05991 2.70227 0
M  V30 5632 H 555.615 5.43186 0.850209 0
M  V30 5633 H 556.84 6.69735 1.1239 0
M  V30 5634 H 554.786 5.74981 3.15805 0
M  V30 5635 H 554.703 7.21952 2.24325 0
M  V30 5636 H 555.971 7.00789 3.41344 0
M  V30 5637 N 560.2 0.0768682 1.57412 0
M  V30 5638 C 561.147 -0.888577 2.13009 0
M  V30 5639 C 562.117 -1.29198 1.0439 0
M  V30 5640 O 563.302 -1.37694 1.3208 0
M  V30 5641 C 560.442 -2.14899 2.70023 0
M  V30 5642 C 559.555 -1.79777 3.92816 0
M  V30 5643 C 558.69 -3.00467 4.38056 0
M  V30 5644 C 557.729 -2.61385 5.53484 0
M  V30 5645 N 556.866 -3.74851 5.93659 0
M  V30 5646 H 561.706 -0.407593 2.95199 0
M  V30 5647 H 559.243 -0.189534 1.45874 0
M  V30 5648 H 561.201 -2.88688 3.0119 0
M  V30 5649 H 559.831 -2.60529 1.9059 0
M  V30 5650 H 558.883 -0.960301 3.68079 0
M  V30 5651 H 560.195 -1.47027 4.76639 0
M  V30 5652 H 559.349 -3.82529 4.7091 0
M  V30 5653 H 558.088 -3.36413 3.53097 0
M  V30 5654 H 557.093 -1.77746 5.20275 0
M  V30 5655 H 558.318 -2.26603 6.40178 0
M  V30 5656 H 556.264 -4.1055 5.11649 0
M  V30 5657 H 556.181 -3.45887 6.72234 0
M  V30 5658 H 557.449 -4.57477 6.31138 0
M  V30 5659 N 561.678 -1.56367 -0.196722 0
M  V30 5660 C 562.903 -1.84991 -0.937714 0
M  V30 5661 C 563.328 -0.660244 -1.76132 0
M  V30 5662 O 562.686 0.390967 -1.77034 0
M  V30 5663 C 562.734 -3.11828 -1.81096 0
M  V30 5664 O 561.838 -2.92266 -2.90955 0
M  V30 5665 H 561.179 -0.609193 -0.264159 0
M  V30 5666 H 563.709 -2.03595 -0.202529 0
M  V30 5667 H 563.719 -3.42579 -2.21594 0
M  V30 5668 H 562.394 -3.98037 -1.2058 0
M  V30 5669 H 560.971 -2.72809 -2.54224 0
M  V30 5670 N 563.156 0.464375 -1.50603 0
M  V30 5671 C 564.433 1.22549 -1.5245 0
M  V30 5672 C 564.813 2.09327 -0.273035 0
M  V30 5673 O 564.161 2.16074 0.743242 0
M  V30 5674 C 564.371 2.05074 -2.82393 0
M  V30 5675 C 565.719 2.63036 -3.33313 0
M  V30 5676 O 566.743 2.1531 -2.8376 0
M  V30 5677 O 565.602 3.5001 -4.19709 0
M  V30 5678 H 562.696 0.556471 -0.611775 0
M  V30 5679 H 565.242 0.475648 -1.62898 0
M  V30 5680 H 564.014 1.41169 -3.64948 0
M  V30 5681 H 563.637 2.87179 -2.7498 0
M  V30 5682 N 564.634 1.40294 0.718013 0
M  V30 5683 C 565.564 1.43118 1.84498 0
M  V30 5684 C 566.545 0.292403 1.67568 0
M  V30 5685 O 567.73 0.500675 1.87635 0
M  V30 5686 C 564.86 1.29065 3.22427 0
M  V30 5687 C 563.814 2.40521 3.54025 0
M  V30 5688 C 563.14 2.11546 4.91073 0
M  V30 5689 C 564.44 3.82859 3.55269 0
M  V30 5690 H 566.134 2.37432 1.82391 0
M  V30 5691 H 563.68 1.14283 0.87609 0
M  V30 5692 H 565.633 1.29658 4.00957 0
M  V30 5693 H 564.357 0.312271 3.25104 0
M  V30 5694 H 563.016 2.39173 2.77834 0
M  V30 5695 H 562.664 1.12104 4.90348 0
M  V30 5696 H 562.364 2.86216 5.1318 0
M  V30 5697 H 563.888 2.13817 5.71939 0
M  V30 5698 H 565.302 3.86044 4.23843 0
M  V30 5699 H 563.699 4.57029 3.88902 0
M  V30 5700 H 564.769 4.12617 2.54706 0
M  V30 5701 N 566.112 -0.949982 1.2575 0
M  V30 5702 C 567.044 -2.05088 1.02331 0
M  V30 5703 C 568.057 -1.62795 -0.0133247 0
M  V30 5704 O 569.246 -1.77067 0.225759 0
M  V30 5705 C 566.346 -3.34794 0.525924 0
M  V30 5706 C 565.519 -4.05903 1.62978 0
M  V30 5707 C 564.578 -5.1388 1.13196 0
M  V30 5708 O 563.604 -5.39072 1.82729 0
M  V30 5709 N 564.806 -5.80495 -0.0242926 0
M  V30 5710 H 567.571 -2.25747 1.97125 0
M  V30 5711 H 565.132 -1.11886 1.17018 0
M  V30 5712 H 567.124 -4.04312 0.177263 0
M  V30 5713 H 565.694 -3.10872 -0.328202 0
M  V30 5714 H 564.914 -3.3042 2.1498 0
M  V30 5715 H 566.202 -4.50166 2.37124 0
M  V30 5716 H 565.6 -5.62454 -0.605184 0
M  V30 5717 H 564.157 -6.51043 -0.313947 0
M  V30 5718 N 567.59 -1.07411 -1.15328 0
M  V30 5719 C 568.537 -0.694995 -2.20087 0
M  V30 5720 C 569.507 0.313904 -1.63107 0
M  V30 5721 O 570.692 0.200216 -1.89747 0
M  V30 5722 C 567.832 -0.0996218 -3.44956 0
M  V30 5723 C 566.945 -1.16007 -4.16133 0
M  V30 5724 C 566.08 -0.529636 -5.28553 0
M  V30 5725 C 565.119 -1.57283 -5.91548 0
M  V30 5726 N 564.256 -0.964932 -6.95438 0
M  V30 5727 H 569.096 -1.5927 -2.51867 0
M  V30 5728 H 566.633 -0.796115 -1.23695 0
M  V30 5729 H 568.591 0.263197 -4.16369 0
M  V30 5730 H 567.221 0.761435 -3.13691 0
M  V30 5731 H 566.273 -1.64045 -3.4321 0
M  V30 5732 H 567.585 -1.95101 -4.59061 0
M  V30 5733 H 566.739 -0.114487 -6.06592 0
M  V30 5734 H 565.478 0.29307 -4.86819 0
M  V30 5735 H 564.483 -1.99775 -5.12221 0
M  V30 5736 H 565.708 -2.39783 -6.35359 0
M  V30 5737 H 563.654 -0.16314 -6.55797 0
M  V30 5738 H 563.571 -1.69311 -7.36797 0
M  V30 5739 H 564.839 -0.575305 -7.77374 0
M  V30 5740 N 569.068 1.32177 -0.85831 0
M  V30 5741 C 570.315 1.97125 -0.463484 0
M  V30 5742 C 570.643 1.67907 0.981705 0
M  V30 5743 O 569.898 0.961717 1.70439 0
M  V30 5744 C 570.197 3.51372 -0.653658 0
M  V30 5745 C 569.863 4.00584 -2.06987 0
M  V30 5746 C 568.525 4.13733 -2.4572 0
M  V30 5747 C 570.877 4.26624 -2.99402 0
M  V30 5748 C 568.205 4.50268 -3.76132 0
M  V30 5749 C 570.557 4.64618 -4.29316 0
M  V30 5750 C 569.221 4.75975 -4.67979 0
M  V30 5751 H 568.491 0.72133 -0.169601 0
M  V30 5752 H 571.138 1.57517 -1.08907 0
M  V30 5753 H 569.443 3.91761 0.0551328 0
M  V30 5754 H 571.14 3.99655 -0.328163 0
M  V30 5755 H 567.73 3.90837 -1.75911 0
M  V30 5756 H 571.914 4.1597 -2.70708 0
M  V30 5757 H 567.17 4.57256 -4.05865 0
M  V30 5758 H 571.344 4.83722 -5.00985 0
M  V30 5759 H 568.971 5.04041 -5.69076 0
M  V30 5760 N 570.547 0.616602 1.45037 0
M  V30 5761 C 571.772 0.120192 2.07051 0
M  V30 5762 C 572.197 -1.19008 1.45666 0
M  V30 5763 O 571.555 -1.7267 0.552692 0
M  V30 5764 C 571.603 0.00354901 3.606 0
M  V30 5765 O 570.707 -1.04431 3.98958 0
M  V30 5766 H 570.048 0.0781599 0.659384 0
M  V30 5767 H 572.578 0.849167 1.86146 0
M  V30 5768 H 572.588 -0.191754 4.07549 0
M  V30 5769 H 571.263 0.960239 4.04663 0
M  V30 5770 H 569.84 -0.824749 3.63665 0
M  V30 5771 N 572.025 -1.5352 0.356285 0
M  V30 5772 C 573.441 -1.59599 0.00485267 0
M  V30 5773 C 573.641 -1.37179 -1.47595 0
M  V30 5774 O 572.697 -1.17234 -2.23635 0
M  V30 5775 C 574.01 -2.97277 0.452454 0
M  V30 5776 C 575.558 -3.10357 0.405881 0
M  V30 5777 C 576.033 -4.50432 0.829148 0
M  V30 5778 N 577.524 -4.5652 0.783838 0
M  V30 5779 C 578.259 -5.63077 1.08315 0
M  V30 5780 N 577.755 -6.77429 1.45126 0
M  V30 5781 N 579.548 -5.53014 1.00655 0
M  V30 5782 H 571.699 -1.66346 1.32071 0
M  V30 5783 H 573.962 -0.77971 0.539218 0
M  V30 5784 H 573.668 -3.18792 1.48542 0
M  V30 5785 H 573.542 -3.76836 -0.165762 0
M  V30 5786 H 575.929 -2.88558 -0.617934 0
M  V30 5787 H 576.01 -2.32828 1.05947 0
M  V30 5788 H 575.654 -4.72968 1.85103 0
M  V30 5789 H 575.584 -5.26378 0.152906 0
M  V30 5790 H 578.075 -3.74408 0.512513 0
M  V30 5791 H 578.388 -7.54669 1.66415 0
M  V30 5792 H 576.733 -6.78844 1.48983 0
M  V30 5793 H 579.924 -4.62557 0.718215 0
M  V30 5794 H 580.097 -6.35964 1.24315 0
M  V30 5795 N 573.503 -0.0852151 -1.57369 0
M  V30 5796 C 574.75 0.580806 -1.93992 0
M  V30 5797 C 575.078 1.68801 -0.966252 0
M  V30 5798 O 574.333 1.95694 0.0158649 0
M  V30 5799 C 574.632 1.18482 -3.3719 0
M  V30 5800 C 574.298 0.2024 -4.50446 0
M  V30 5801 C 572.96 -0.0678318 -4.81152 0
M  V30 5802 C 575.312 -0.46895 -5.19086 0
M  V30 5803 C 572.64 -1.01627 -5.77831 0
M  V30 5804 C 574.992 -1.4058 -6.16782 0
M  V30 5805 C 573.656 -1.68436 -6.45899 0
M  V30 5806 H 572.926 0.212532 -0.709867 0
M  V30 5807 H 575.573 -0.158947 -1.90839 0
M  V30 5808 H 573.878 2.0006 -3.36873 0
M  V30 5809 H 575.575 1.70767 -3.62822 0
M  V30 5810 H 572.165 0.423208 -4.26505 0
M  V30 5811 H 576.349 -0.273307 -4.95547 0
M  V30 5812 H 571.605 -1.2392 -5.9871 0
M  V30 5813 H 575.779 -1.93188 -6.69068 0
M  V30 5814 H 573.406 -2.42088 -7.20623 0
M  V30 5815 N 574.981 1.5647 0.188427 0
M  V30 5816 C 575.931 1.91479 1.23774 0
M  V30 5817 C 576.915 0.78119 1.40664 0
M  V30 5818 O 578.107 1.04414 1.42922 0
M  V30 5819 C 575.236 2.26354 2.58106 0
M  V30 5820 C 574.322 3.46186 2.44981 0
M  V30 5821 N 574.713 4.63911 2.01546 0
M  V30 5822 C 573.011 3.50456 2.75856 0
M  V30 5823 C 573.712 5.46064 2.00472 0
M  V30 5824 N 572.688 4.86648 2.42229 0
M  V30 5825 H 576.49 2.79994 0.893339 0
M  V30 5826 H 574.004 1.57477 0.39682 0
M  V30 5827 H 576.001 2.49622 3.33908 0
M  V30 5828 H 574.661 1.39168 2.93364 0
M  V30 5829 H 575.672 4.88451 1.7215 0
M  V30 5830 H 572.349 2.73704 3.15265 0
M  V30 5831 H 573.739 6.50368 1.68734 0
M  V30 5832 N 576.459 -0.456382 1.50847 0
M  V30 5833 C 577.875 -0.791345 1.386 0
M  V30 5834 C 578.075 -1.9633 0.453498 0
M  V30 5835 O 577.131 -2.52308 -0.0984353 0
M  V30 5836 C 578.444 -1.08959 2.80265 0
M  V30 5837 C 579.992 -1.19517 2.89283 0
M  V30 5838 C 580.467 -1.52647 4.31814 0
M  V30 5839 N 581.958 -1.59609 4.34832 0
M  V30 5840 C 582.693 -1.86777 5.42127 0
M  V30 5841 N 582.189 -2.11866 6.59609 0
M  V30 5842 N 583.982 -1.88402 5.29586 0
M  V30 5843 H 576.133 0.315746 2.1004 0
M  V30 5844 H 578.396 0.0787916 0.94472 0
M  V30 5845 H 578.102 -0.301355 3.50407 0
M  V30 5846 H 577.976 -2.02211 3.18419 0
M  V30 5847 H 580.363 -1.97406 2.19351 0
M  V30 5848 H 580.444 -0.242111 2.54652 0
M  V30 5849 H 580.088 -0.752922 5.02288 0
M  V30 5850 H 580.018 -2.49127 4.63943 0
M  V30 5851 H 582.509 -1.42201 3.50125 0
M  V30 5852 H 582.822 -2.31912 7.37182 0
M  V30 5853 H 581.167 -2.09228 6.62758 0
M  V30 5854 H 584.358 -1.68307 4.36795 0
M  V30 5855 H 584.531 -2.09238 6.13289 0
M  V30 5856 N 577.937 -1.40673 -0.710563 0
M  V30 5857 C 579.185 -1.38947 -1.46759 0
M  V30 5858 C 579.506 0.00572879 -1.94999 0
M  V30 5859 O 578.776 0.961358 -1.70689 0
M  V30 5860 H 577.356 -0.5114 -0.544499 0
M  V30 5861 H 580.018 -1.75773 -0.842012 0
M  V30 5862 H 579.114 -2.06745 -2.33801 0
M  V30 5863 N 579.415 0.9433 -1.26252 0
M  V30 5864 C 580.348 2.04162 -1.01946 0
M  V30 5865 C 581.326 1.62507 0.0550808 0
M  V30 5866 O 582.51 1.883 -0.0869025 0
M  V30 5867 C 579.637 3.34313 -0.54335 0
M  V30 5868 C 578.683 3.94939 -1.61013 0
M  V30 5869 S 579.516 4.29484 -3.19849 0
M  V30 5870 C 580.672 5.62738 -2.74001 0
M  V30 5871 H 580.905 2.24466 -1.94942 0
M  V30 5872 H 578.438 1.08441 -1.09909 0
M  V30 5873 H 580.396 4.09576 -0.275315 0
M  V30 5874 H 579.057 3.11957 0.36629 0
M  V30 5875 H 578.25 4.88812 -1.22795 0
M  V30 5876 H 577.852 3.26202 -1.82943 0
M  V30 5877 H 580.144 6.41356 -2.18333 0
M  V30 5878 H 581.087 6.05839 -3.66558 0
M  V30 5879 H 581.495 5.22514 -2.13634 0
M  V30 5880 N 580.893 1.08022 1.14757 0
M  V30 5881 C 581.823 0.728248 2.21853 0
M  V30 5882 C 582.804 -0.287486 1.67653 0
M  V30 5883 O 583.989 -0.158727 1.9355 0
M  V30 5884 C 581.119 0.132549 3.47047 0
M  V30 5885 C 580.073 1.07619 4.14249 0
M  V30 5886 C 579.399 0.342907 5.33599 0
M  V30 5887 C 580.699 2.41268 4.63235 0
M  V30 5888 H 582.393 1.62365 2.51551 0
M  V30 5889 H 579.939 0.782125 1.20908 0
M  V30 5890 H 581.892 -0.125665 4.21213 0
M  V30 5891 H 580.616 -0.797971 3.16702 0
M  V30 5892 H 579.275 1.31944 3.42033 0
M  V30 5893 H 578.923 -0.59129 4.99513 0
M  V30 5894 H 578.623 0.971955 5.79506 0
M  V30 5895 H 580.147 0.0926538 6.1053 0
M  V30 5896 H 581.561 2.21232 5.28894 0
M  V30 5897 H 579.958 2.9983 5.19829 0
M  V30 5898 H 581.028 3.03079 3.78512 0
M  V30 5899 N 582.371 -1.3172 0.865308 0
M  V30 5900 C 583.281 -2.32394 0.320935 0
M  V30 5901 C 584.297 -1.64511 -0.566746 0
M  V30 5902 O 585.473 -1.95969 -0.464575 0
M  V30 5903 C 582.538 -3.43462 -0.472701 0
M  V30 5904 C 581.599 -4.27015 0.442385 0
M  V30 5905 C 580.832 -5.32779 -0.313469 0
M  V30 5906 O 581.055 -5.49158 -1.54214 0
M  V30 5907 O 579.989 -6.01015 0.326257 0
M  V30 5908 H 583.815 -2.80868 1.15528 0
M  V30 5909 H 581.4 -1.35535 0.628545 0
M  V30 5910 H 583.282 -4.11172 -0.922781 0
M  V30 5911 H 581.957 -2.97159 -1.28367 0
M  V30 5912 H 580.864 -3.62075 0.940866 0
M  V30 5913 H 582.197 -4.76871 1.21882 0
M  V30 5914 N 583.85 -0.624285 -1.44708 0
M  V30 5915 C 584.782 0.12305 -2.28869 0
M  V30 5916 C 585.795 0.81557 -1.40898 0
M  V30 5917 O 586.984 0.678162 -1.65116 0
M  V30 5918 C 584.084 1.19612 -3.1709 0
M  V30 5919 C 583.257 0.587452 -4.33437 0
M  V30 5920 C 582.316 1.55358 -5.02743 0
M  V30 5921 O 581.341 1.07338 -5.58988 0
M  V30 5922 N 582.543 2.88798 -5.03563 0
M  V30 5923 H 585.308 -0.599193 -2.93649 0
M  V30 5924 H 582.87 -0.464954 -1.5508 0
M  V30 5925 H 584.861 1.84261 -3.60319 0
M  V30 5926 H 583.432 1.82067 -2.54107 0
M  V30 5927 H 582.652 -0.237509 -3.93484 0
M  V30 5928 H 583.94 0.161326 -5.08544 0
M  V30 5929 H 583.338 3.30399 -4.59188 0
M  V30 5930 H 581.894 3.48826 -5.50603 0
M  V30 5931 N 585.328 1.53329 -0.364422 0
M  V30 5932 C 586.576 2.00842 0.225189 0
M  V30 5933 C 586.897 1.25345 1.49378 0
M  V30 5934 O 586.167 0.366396 1.92443 0
M  V30 5935 H 584.747 0.742009 0.0862027 0
M  V30 5936 H 587.409 1.8863 -0.490389 0
M  V30 5937 H 586.505 3.08795 0.452987 0
M  V30 5938 N 586.806 0.0935595 1.57322 0
M  V30 5939 C 588.055 -0.570191 1.93473 0
M  V30 5940 C 588.368 -1.69434 0.977318 0
M  V30 5941 O 589.574 -2.41914 1.23248 0
M  V30 5942 C 588.03 -1.06564 3.43762 0
M  V30 5943 C 587.638 0.0286723 4.47991 0
M  V30 5944 C 589.382 -1.70221 3.88877 0
M  V30 5945 C 587.289 -0.482046 5.89432 0
M  V30 5946 H 586.219 -0.216764 0.72217 0
M  V30 5947 H 588.87 0.169313 1.82717 0
M  V30 5948 H 587.252 -1.85878 3.49664 0
M  V30 5949 H 588.426 0.804106 4.5373 0
M  V30 5950 H 586.741 0.570336 4.12476 0
M  V30 5951 H 589.338 -2.09502 4.91948 0
M  V30 5952 H 589.681 -2.57078 3.27439 0
M  V30 5953 H 590.214 -0.974919 3.85668 0
M  V30 5954 H 586.953 0.349871 6.54566 0
M  V30 5955 H 586.473 -1.22452 5.87167 0
M  V30 5956 H 588.152 -0.951508 6.39965 0
M  V30 5957 N 588.284 -1.56567 -0.180126 0
M  V30 5958 C 589.514 -1.85349 -0.912647 0
M  V30 5959 C 589.922 -0.675795 -1.76719 0
M  V30 5960 O 589.265 0.3645 -1.80047 0
M  V30 5961 C 589.327 -3.08431 -1.84691 0
M  V30 5962 C 588.991 -4.41694 -1.17284 0
M  V30 5963 C 589.988 -5.17062 -0.542532 0
M  V30 5964 C 587.673 -4.8843 -1.17223 0
M  V30 5965 C 589.667 -6.37351 0.0793953 0
M  V30 5966 C 587.354 -6.08652 -0.54647 0
M  V30 5967 C 588.352 -6.82955 0.0782458 0
M  V30 5968 O 588.04 -8.00897 0.694158 0
M  V30 5969 H 587.772 -0.619286 -0.271036 0
M  V30 5970 H 590.326 -2.0454 -0.187768 0
M  V30 5971 H 588.556 -2.85163 -2.61188 0
M  V30 5972 H 590.245 -3.23733 -2.44851 0
M  V30 5973 H 591.011 -4.8204 -0.535045 0
M  V30 5974 H 586.89 -4.30542 -1.64788 0
M  V30 5975 H 590.434 -6.95287 0.567612 0
M  V30 5976 H 586.331 -6.4314 -0.55151 0
M  V30 5977 H 587.099 -8.16352 0.592537 0
M  V30 5978 N 589.762 0.448376 -1.51087 0
M  V30 5979 C 590.692 1.55102 -1.74544 0
M  V30 5980 C 591.673 1.59357 -0.594932 0
M  V30 5981 O 592.858 1.75261 -0.836491 0
M  V30 5982 C 589.988 2.93268 -1.86041 0
M  V30 5983 C 588.942 3.03877 -3.01402 0
M  V30 5984 C 588.268 4.43914 -2.98068 0
M  V30 5985 C 589.568 2.7898 -4.41551 0
M  V30 5986 H 591.262 1.35724 -2.66869 0
M  V30 5987 H 588.808 0.651498 -1.28419 0
M  V30 5988 H 590.761 3.70356 -2.01034 0
M  V30 5989 H 589.485 3.13853 -0.903548 0
M  V30 5990 H 588.144 2.29227 -2.86096 0
M  V30 5991 H 587.792 4.6145 -2.00182 0
M  V30 5992 H 587.492 4.51944 -3.75527 0
M  V30 5993 H 589.016 5.22991 -3.1514 0
M  V30 5994 H 590.43 3.45805 -4.57265 0
M  V30 5995 H 588.827 2.98431 -5.20633 0
M  V30 5996 H 589.897 1.74663 -4.5235 0
M  V30 5997 N 591.24 1.41047 0.703093 0
M  V30 5998 C 592.203 1.42036 1.79884 0
M  V30 5999 C 593.203 0.312153 1.57741 0
M  V30 6000 O 594.393 0.571672 1.64553 0
M  V30 6001 C 591.525 1.22437 3.18154 0
M  V30 6002 H 592.718 2.39572 1.80403 0
M  V30 6003 H 590.271 1.27079 0.909977 0
M  V30 6004 H 591.006 0.257112 3.23279 0
M  V30 6005 H 590.791 2.02723 3.35627 0
M  V30 6006 H 592.281 1.25946 3.98155 0
M  V30 6007 N 592.718 -0.936591 1.26751 0
M  V30 6008 C 594.129 -1.49816 1.1141 0
M  V30 6009 C 594.48 -1.9383 -0.304015 0
M  V30 6010 O 593.605 -1.80346 -1.196 0
M  V30 6011 C 594.2 -2.72271 2.01629 0
M  V30 6012 C 592.759 -3.2468 1.9042 0
M  V30 6013 C 591.906 -1.97444 1.94708 0
M  V30 6014 H 594.857 -0.751604 1.39773 0
M  V30 6015 H 594.878 -3.46741 1.56688 0
M  V30 6016 H 594.39 -2.40205 3.04833 0
M  V30 6017 H 592.491 -3.61525 0.901674 0
M  V30 6018 H 592.604 -3.91476 2.76195 0
M  V30 6019 H 590.968 -2.13545 1.38818 0
M  V30 6020 H 591.751 -1.67703 2.9955 0
M  V30 6021 N 594.196 -1.08629 -1.14182 0
M  V30 6022 C 595.421 -0.83902 -1.89671 0
M  V30 6023 C 595.846 0.603332 -1.78161 0
M  V30 6024 O 595.204 1.42301 -1.12339 0
M  V30 6025 C 595.252 -1.26854 -3.37551 0
M  V30 6026 O 594.356 -0.42188 -4.10236 0
M  V30 6027 H 593.697 -0.304545 -0.590041 0
M  V30 6028 H 596.227 -1.4483 -1.44518 0
M  V30 6029 H 596.237 -1.25038 -3.88368 0
M  V30 6030 H 594.912 -2.31901 -3.45246 0
M  V30 6031 H 593.489 -0.503654 -3.69483 0
M  V30 6032 N 595.674 1.31259 -0.872281 0
M  V30 6033 C 596.606 2.27396 -0.28697 0
M  V30 6034 C 597.619 1.53181 0.551297 0
M  V30 6035 O 598.808 1.74561 0.372914 0
M  V30 6036 C 595.908 3.33335 0.611617 0
M  V30 6037 C 595.081 4.36966 -0.194729 0
M  V30 6038 C 594.14 5.22387 0.632358 0
M  V30 6039 O 593.166 5.69169 0.0595691 0
M  V30 6040 N 594.368 5.46985 1.94391 0
M  V30 6041 H 597.133 2.78261 -1.11314 0
M  V30 6042 H 594.694 1.44306 -0.733994 0
M  V30 6043 H 596.686 3.87398 1.17068 0
M  V30 6044 H 595.256 2.82496 1.33846 0
M  V30 6045 H 594.476 3.82945 -0.935241 0
M  V30 6046 H 595.764 5.03273 -0.747935 0
M  V30 6047 H 595.162 5.10737 2.43237 0
M  V30 6048 H 593.719 6.03973 2.45071 0
M  V30 6049 N 597.152 0.631951 1.44375 0
M  V30 6050 C 598.399 0.136767 2.02038 0
M  V30 6051 C 598.727 -1.24168 1.49709 0
M  V30 6052 O 597.982 -1.83809 0.671763 0
M  V30 6053 C 598.281 0.0735861 3.57324 0
M  V30 6054 C 597.947 1.39092 4.28911 0
M  V30 6055 C 596.609 1.75171 4.48184 0
M  V30 6056 C 598.961 2.26042 4.69632 0
M  V30 6057 C 596.289 2.97907 5.05439 0
M  V30 6058 C 598.641 3.4805 5.28246 0
M  V30 6059 C 597.305 3.84351 5.45738 0
M  V30 6060 H 596.575 0.0500466 0.739308 0
M  V30 6061 H 599.222 0.818429 1.7313 0
M  V30 6062 H 597.527 -0.691449 3.8565 0
M  V30 6063 H 599.224 -0.326091 3.99672 0
M  V30 6064 H 595.814 1.10015 4.1424 0
M  V30 6065 H 599.998 1.99463 4.54454 0
M  V30 6066 H 595.254 3.26108 5.17169 0
M  V30 6067 H 599.428 4.15658 5.5875 0
M  V30 6068 H 597.055 4.79538 5.8987 0
M  V30 6069 N 598.631 -1.53133 0.372548 0
M  V30 6070 C 599.541 -2.29671 -0.478379 0
M  V30 6071 C 600.557 -1.35913 -1.08644 0
M  V30 6072 O 601.733 -1.68975 -1.09588 0
M  V30 6073 C 598.798 -3.07625 -1.599 0
M  V30 6074 C 597.859 -4.17061 -1.01776 0
M  V30 6075 C 597.092 -4.91289 -2.08497 0
M  V30 6076 O 597.315 -4.65442 -3.29727 0
M  V30 6077 O 596.249 -5.7705 -1.71164 0
M  V30 6078 H 600.075 -3.03355 0.144649 0
M  V30 6079 H 597.66 -1.48773 0.136729 0
M  V30 6080 H 599.542 -3.56281 -2.25038 0
M  V30 6081 H 598.217 -2.3677 -2.2073 0
M  V30 6082 H 597.124 -3.72641 -0.330098 0
M  V30 6083 H 598.457 -4.90102 -0.453915 0
M  V30 6084 N 600.109 -0.101901 -1.5727 0
M  V30 6085 C 601.072 0.840129 -2.13247 0
M  V30 6086 C 602.072 1.20625 -1.06331 0
M  V30 6087 O 603.262 1.13456 -1.32186 0
M  V30 6088 C 600.394 2.13372 -2.65867 0
M  V30 6089 H 601.587 0.353945 -2.97804 0
M  V30 6090 H 599.14 0.147167 -1.55606 0
M  V30 6091 H 599.875 2.66461 -1.84849 0
M  V30 6092 H 599.66 1.88085 -3.44044 0
M  V30 6093 H 601.15 2.80748 -3.09145 0
M  V30 6094 N 601.587 1.56661 0.17182 0
M  V30 6095 C 602.835 1.81606 0.886774 0
M  V30 6096 C 603.156 0.678818 1.82803 0
M  V30 6097 O 602.426 -0.301354 1.93568 0
M  V30 6098 H 601.006 0.669934 0.330451 0
M  V30 6099 H 603.668 1.94142 0.171757 0
M  V30 6100 H 602.764 2.75634 1.46398 0
M  V30 6101 N 603.065 -0.440357 1.51323 0
M  V30 6102 C 604.312 -1.19004 1.63842 0
M  V30 6103 C 604.64 -1.91266 0.35321 0
M  V30 6104 O 603.895 -1.84143 -0.662565 0
M  V30 6105 C 604.194 -2.2339 2.78984 0
M  V30 6106 C 603.86 -1.68162 4.18369 0
M  V30 6107 C 602.522 -1.52823 4.56288 0
M  V30 6108 C 604.874 -1.27524 5.05358 0
M  V30 6109 C 602.202 -0.953157 5.78906 0
M  V30 6110 C 604.554 -0.714474 6.28552 0
M  V30 6111 C 603.218 -0.547961 6.65247 0
M  V30 6112 H 602.488 -0.435468 0.59954 0
M  V30 6113 H 605.135 -0.481538 1.85347 0
M  V30 6114 H 603.44 -3.00267 2.51688 0
M  V30 6115 H 605.137 -2.81211 2.85869 0
M  V30 6116 H 601.727 -1.81077 3.8847 0
M  V30 6117 H 605.911 -1.38197 4.76671 0
M  V30 6118 H 601.167 -0.811882 6.05986 0
M  V30 6119 H 605.341 -0.391059 6.95301 0
M  V30 6120 H 602.968 -0.100222 7.60134 0
M  V30 6121 N 604.543 -1.41418 -0.695603 0
M  V30 6122 C 605.771 -1.4413 -1.48439 0
M  V30 6123 C 606.186 -0.0465698 -1.88743 0
M  V30 6124 O 605.543 0.934117 -1.56782 0
M  V30 6125 C 605.594 -2.34998 -2.74696 0
M  V30 6126 O 605.315 -3.69043 -2.36091 0
M  V30 6127 C 606.816 -2.46513 -3.68438 0
M  V30 6128 H 604.036 -0.490905 -0.457442 0
M  V30 6129 H 606.58 -1.85702 -0.856454 0
M  V30 6130 H 604.735 -1.96735 -3.33728 0
M  V30 6131 H 605.149 -4.17505 -3.17474 0
M  V30 6132 H 606.623 -3.1426 -4.53811 0
M  V30 6133 H 607.1 -1.49638 -4.12922 0
M  V30 6134 H 607.706 -2.85412 -3.1531 0
M  V30 6135 N 606.021 0.929856 -1.27246 0
M  V30 6136 C 607.246 1.71674 -1.16374 0
M  V30 6137 C 607.671 1.86064 0.276024 0
M  V30 6138 O 607.029 1.3591 1.19992 0
M  V30 6139 C 607.077 3.09526 -1.85003 0
M  V30 6140 O 606.181 3.96142 -1.14653 0
M  V30 6141 H 605.522 0.52629 -0.404863 0
M  V30 6142 H 608.052 1.16381 -1.68276 0
M  V30 6143 H 608.062 3.59852 -1.92276 0
M  V30 6144 H 606.737 2.98369 -2.89739 0
M  V30 6145 H 605.314 3.54584 -1.15433 0
M  V30 6146 N 607.499 1.09233 1.13605 0
M  V30 6147 C 608.429 0.751738 2.21068 0
M  V30 6148 C 609.41 -0.269688 1.67948 0
M  V30 6149 O 610.595 -0.13819 1.93708 0
M  V30 6150 C 607.725 0.16935 3.46887 0
M  V30 6151 C 606.679 1.12007 4.13084 0
M  V30 6152 C 606.005 0.399483 5.33206 0
M  V30 6153 C 607.305 2.46168 4.6065 0
M  V30 6154 H 608.999 1.65024 2.49815 0
M  V30 6155 H 606.545 0.794905 1.20072 0
M  V30 6156 H 608.498 -0.0809824 4.21322 0
M  V30 6157 H 607.222 -0.764335 3.1753 0
M  V30 6158 H 605.881 1.35564 3.40614 0
M  V30 6159 H 605.529 -0.538277 5.00112 0
M  V30 6160 H 605.229 1.03337 5.78442 0
M  V30 6161 H 606.753 0.157403 6.10397 0
M  V30 6162 H 608.167 2.26829 5.26518 0
M  V30 6163 H 606.564 3.05326 5.1662 0
M  V30 6164 H 607.634 3.07076 3.75276 0
M  V30 6165 N 608.977 -1.30795 0.87923 0
M  V30 6166 C 609.94 -2.26563 0.346676 0
M  V30 6167 C 610.94 -1.52578 -0.507597 0
M  V30 6168 O 612.13 -1.71318 -0.315575 0
M  V30 6169 C 609.262 -3.37115 -0.506611 0
M  V30 6170 H 610.455 -2.75183 1.19223 0
M  V30 6171 H 608.008 -1.41886 0.655598 0
M  V30 6172 H 608.743 -2.93802 -1.37299 0
M  V30 6173 H 608.528 -3.91959 0.105218 0
M  V30 6174 H 610.018 -4.08412 -0.871192 0
M  V30 6175 N 610.455 -0.639598 -1.44038 0
M  V30 6176 C 611.405 0.0823038 -2.27851 0
M  V30 6177 C 612.389 0.807991 -1.39141 0
M  V30 6178 O 613.581 0.692702 -1.62882 0
M  V30 6179 C 610.71 1.05742 -3.26609 0
M  V30 6180 C 609.796 0.330911 -4.22807 0
M  V30 6181 N 610.187 -0.645126 -5.01669 0
M  V30 6182 C 608.485 0.574214 -4.42288 0
M  V30 6183 C 609.186 -1.07513 -5.71678 0
M  V30 6184 N 608.162 -0.412164 -5.42035 0
M  V30 6185 H 611.964 -0.666861 -2.86234 0
M  V30 6186 H 609.478 -0.465777 -1.55577 0
M  V30 6187 H 611.475 1.58927 -3.85419 0
M  V30 6188 H 610.135 1.80679 -2.69787 0
M  V30 6189 H 611.146 -1.02329 -5.0769 0
M  V30 6190 H 607.823 1.30581 -3.96554 0
M  V30 6191 H 609.213 -1.88196 -6.45005 0
M  V30 6192 N 611.933 1.52934 -0.380664 0
M  V30 6193 C 613.161 2.05886 0.204599 0
M  V30 6194 C 613.576 1.25305 1.41223 0
M  V30 6195 O 612.933 0.297504 1.80059 0
M  V30 6196 C 612.984 3.56764 0.583249 0
M  V30 6197 O 612.705 4.34292 -0.576398 0
M  V30 6198 C 614.206 4.2603 1.2253 0
M  V30 6199 H 611.426 0.670193 0.0328991 0
M  V30 6200 H 613.97 1.97148 -0.543397 0
M  V30 6201 H 612.125 3.65603 1.28115 0
M  V30 6202 H 612.539 5.23819 -0.267119 0
M  V30 6203 H 614.013 5.32868 1.44068 0
M  V30 6204 H 614.49 3.80698 2.19011 0
M  V30 6205 H 615.096 4.21485 0.568407 0
M  V30 6206 N 613.412 0.11024 1.57214 0
M  V30 6207 C 614.322 -0.857077 2.18383 0
M  V30 6208 C 615.338 -1.29915 1.1575 0
M  V30 6209 O 616.514 -1.36394 1.48184 0
M  V30 6210 C 613.579 -2.09264 2.76423 0
M  V30 6211 C 612.64 -1.70333 3.94063 0
M  V30 6212 C 611.873 -2.87999 4.49324 0
M  V30 6213 O 612.096 -4.0317 4.03497 0
M  V30 6214 O 611.03 -2.6559 5.40135 0
M  V30 6215 H 614.856 -0.366561 3.0148 0
M  V30 6216 H 612.441 -0.114914 1.48957 0
M  V30 6217 H 614.323 -2.81644 3.13456 0
M  V30 6218 H 612.998 -2.57339 1.96363 0
M  V30 6219 H 611.905 -0.950864 3.61814 0
M  V30 6220 H 613.238 -1.27007 4.75531 0
M  V30 6221 N 614.89 -1.56749 -0.16351 0
M  V30 6222 C 615.8 -2.00255 -1.2221 0
M  V30 6223 C 616.816 -0.915194 -1.47987 0
M  V30 6224 O 617.992 -1.22342 -1.59982 0
M  V30 6225 C 615.057 -2.36035 -2.53946 0
M  V30 6226 C 614.118 -3.58637 -2.35962 0
M  V30 6227 C 613.351 -3.92701 -3.61416 0
M  V30 6228 O 613.574 -3.27632 -4.66919 0
M  V30 6229 O 612.508 -4.86019 -3.55062 0
M  V30 6230 H 616.334 -2.90586 -0.882794 0
M  V30 6231 H 613.919 -1.44721 -0.370978 0
M  V30 6232 H 615.801 -2.59982 -3.31643 0
M  V30 6233 H 614.476 -1.48863 -2.8744 0
M  V30 6234 H 613.383 -3.39898 -1.5627 0
M  V30 6235 H 614.716 -4.46374 -2.0739 0
M  V30 6236 N 616.368 0.432326 -1.51554 0
M  V30 6237 C 617.645 1.19288 -1.55015 0
M  V30 6238 C 618.025 2.08701 -0.317375 0
M  V30 6239 O 617.373 2.17602 0.697243 0
M  V30 6240 C 617.583 1.99037 -2.86679 0
M  V30 6241 C 618.931 2.55907 -3.38817 0
M  V30 6242 O 619.955 2.09243 -2.88263 0
M  V30 6243 O 618.814 3.41029 -4.27038 0
M  V30 6244 H 615.908 0.543369 -0.623441 0
M  V30 6245 H 618.454 0.440988 -1.6387 0
M  V30 6246 H 617.226 1.33397 -3.6786 0
M  V30 6247 H 616.849 2.81281 -2.8101 0
M  V30 6248 N 617.846 1.41785 0.688094 0
M  V30 6249 C 619.095 1.4084 1.44385 0
M  V30 6250 C 619.408 0.0234166 1.95586 0
M  V30 6251 O 620.614 -0.108647 2.71283 0
M  V30 6252 C 619.07 2.47675 2.61123 0
M  V30 6253 C 618.678 3.92116 2.16677 0
M  V30 6254 C 620.422 2.55877 3.38714 0
M  V30 6255 C 618.329 4.90487 3.30419 0
M  V30 6256 H 617.259 0.523787 0.542368 0
M  V30 6257 H 619.91 1.6764 0.74627 0
M  V30 6258 H 618.292 2.14018 3.33185 0
M  V30 6259 H 619.466 4.35059 1.51856 0
M  V30 6260 H 617.781 3.87642 1.5206 0
M  V30 6261 H 620.378 3.26553 4.234 0
M  V30 6262 H 620.721 1.59801 3.84408 0
M  V30 6263 H 621.254 2.88662 2.73714 0
M  V30 6264 H 617.993 5.87994 2.89729 0
M  V30 6265 H 617.513 4.52187 3.94065 0
M  V30 6266 H 619.192 5.11591 3.96085 0
M  V30 6267 N 619.324 -0.923095 1.27737 0
M  V30 6268 C 620.601 -1.64989 1.05062 0
M  V30 6269 C 620.981 -2.07018 -0.413124 0
M  V30 6270 O 620.329 -1.80797 -1.39731 0
M  V30 6271 C 620.539 -2.84847 2.01652 0
M  V30 6272 C 621.887 -3.56083 2.31279 0
M  V30 6273 O 622.911 -2.94981 1.99662 0
M  V30 6274 O 621.77 -4.66182 2.85196 0
M  V30 6275 H 618.864 -0.723357 0.400853 0
M  V30 6276 H 621.41 -0.973224 1.3902 0
M  V30 6277 H 620.182 -2.50814 3.00347 0
M  V30 6278 H 619.805 -3.60231 1.68284 0
M  V30 6279 N 620.802 -1.09834 -1.13024 0
M  V30 6280 C 621.765 -0.745058 -2.16752 0
M  V30 6281 C 622.765 0.227435 -1.59183 0
M  V30 6282 O 623.955 0.0050786 -1.74199 0
M  V30 6283 C 621.087 -0.102543 -3.40746 0
M  V30 6284 H 622.28 -1.66375 -2.49518 0
M  V30 6285 H 619.833 -0.898061 -1.27924 0
M  V30 6286 H 620.568 0.827177 -3.13573 0
M  V30 6287 H 620.353 -0.80235 -3.83803 0
M  V30 6288 H 621.843 0.129082 -4.174 0
M  V30 6289 N 622.28 1.30327 -0.886154 0
M  V30 6290 C 623.508 2.00254 -0.520176 0
M  V30 6291 C 623.923 1.66419 0.891637 0
M  V30 6292 O 623.28 0.901951 1.58654 0
M  V30 6293 C 623.331 3.54916 -0.686775 0
M  V30 6294 O 623.052 3.87547 -2.04301 0
M  V30 6295 C 624.553 4.42115 -0.323945 0
M  V30 6296 H 621.773 0.640204 -0.200947 0
M  V30 6297 H 624.317 1.66183 -1.19178 0
M  V30 6298 H 622.472 3.8735 -0.0625273 0
M  V30 6299 H 622.886 4.82247 -2.06249 0
M  V30 6300 H 624.36 5.49808 -0.491407 0
M  V30 6301 H 624.837 4.32953 0.73811 0
M  V30 6302 H 625.443 4.15129 -0.924565 0
M  V30 6303 N 623.758 0.647228 1.43697 0
M  V30 6304 C 624.688 -0.0345631 2.33474 0
M  V30 6305 C 625.669 -0.818193 1.4913 0
M  V30 6306 O 626.854 -0.780867 1.77809 0
M  V30 6307 C 623.984 -1.00576 3.32418 0
M  V30 6308 C 622.938 -0.33266 4.26705 0
M  V30 6309 C 622.264 -1.41489 5.1564 0
M  V30 6310 C 623.564 0.771204 5.16575 0
M  V30 6311 H 625.258 0.715163 2.90733 0
M  V30 6312 H 622.804 0.345364 1.39797 0
M  V30 6313 H 624.757 -1.49159 3.94119 0
M  V30 6314 H 623.481 -1.78657 2.73403 0
M  V30 6315 H 622.14 0.13267 3.6636 0
M  V30 6316 H 621.788 -2.18698 4.52968 0
M  V30 6317 H 621.488 -0.969799 5.79542 0
M  V30 6318 H 623.012 -1.9022 5.80214 0
M  V30 6319 H 624.426 0.36779 5.72119 0
M  V30 6320 H 622.823 1.1404 5.89165 0
M  V30 6321 H 623.893 1.63169 4.56622 0
M  V30 6322 N 625.236 -1.5273 0.388769 0
M  V30 6323 C 626.199 -2.25043 -0.434544 0
M  V30 6324 C 627.199 -1.26661 -0.990644 0
M  V30 6325 O 628.389 -1.50762 -0.872731 0
M  V30 6326 C 625.521 -3.00507 -1.60961 0
M  V30 6327 H 626.714 -2.99242 0.198549 0
M  V30 6328 H 624.267 -1.55664 0.140875 0
M  V30 6329 H 625.002 -2.30607 -2.28015 0
M  V30 6330 H 624.787 -3.72716 -1.21757 0
M  V30 6331 H 626.277 -3.55413 -2.19251 0
M  V30 6332 N 626.714 -0.118576 -1.57153 0
M  V30 6333 C 627.677 0.817464 -2.14127 0
M  V30 6334 C 628.677 1.1949 -1.07604 0
M  V30 6335 O 629.867 1.12048 -1.33382 0
M  V30 6336 C 626.999 2.10541 -2.68115 0
M  V30 6337 H 628.192 0.322339 -2.98163 0
M  V30 6338 H 625.745 0.130655 -1.55753 0
M  V30 6339 H 626.48 2.64485 -1.87665 0
M  V30 6340 H 626.265 1.84425 -3.4602 0
M  V30 6341 H 627.755 2.77453 -3.12105 0
M  V30 6342 N 628.193 1.56834 0.155195 0
M  V30 6343 C 629.156 1.96748 1.17571 0
M  V30 6344 C 630.156 0.853006 1.3631 0
M  V30 6345 O 631.346 1.11978 1.33441 0
M  V30 6346 C 628.478 2.27631 2.53765 0
M  V30 6347 H 629.671 2.88085 0.833498 0
M  V30 6348 H 627.224 1.51141 0.398242 0
M  V30 6349 H 627.959 1.39059 2.92973 0
M  V30 6350 H 627.744 3.0888 2.41527 0
M  V30 6351 H 629.234 2.59377 3.27282 0
M  V30 6352 N 629.671 -0.424282 1.51781 0
M  V30 6353 C 631.087 -0.761768 1.40247 0
M  V30 6354 C 631.287 -1.95324 0.495041 0
M  V30 6355 O 630.343 -2.5246 -0.0448949 0
M  V30 6356 C 631.656 -1.0299 2.82513 0
M  V30 6357 C 633.204 -1.13354 2.91753 0
M  V30 6358 C 633.679 -1.43453 4.34954 0
M  V30 6359 N 635.17 -1.5035 4.3812 0
M  V30 6360 C 635.905 -1.75236 5.45967 0
M  V30 6361 N 635.401 -1.97827 6.63955 0
M  V30 6362 N 637.194 -1.77126 5.33463 0
M  V30 6363 H 629.345 0.360228 2.09323 0
M  V30 6364 H 631.608 0.0988128 0.942836 0
M  V30 6365 H 631.314 -0.226961 3.50967 0
M  V30 6366 H 631.188 -1.95411 3.22637 0
M  V30 6367 H 633.575 -1.92709 2.23489 0
M  V30 6368 H 633.656 -0.188041 2.55108 0
M  V30 6369 H 633.3 -0.646209 5.03772 0
M  V30 6370 H 633.23 -2.3923 4.69123 0
M  V30 6371 H 635.721 -1.34742 3.53062 0
M  V30 6372 H 636.034 -2.16223 7.41935 0
M  V30 6373 H 634.379 -1.95123 6.67047 0
M  V30 6374 H 637.57 -1.59005 4.40267 0
M  V30 6375 H 637.743 -1.96182 6.17589 0
M  V30 6376 N 631.149 -1.42148 -0.680565 0
M  V30 6377 C 632.377 -1.45696 -1.46902 0
M  V30 6378 C 632.792 -0.0665858 -1.88683 0
M  V30 6379 O 632.149 0.917436 -1.57764 0
M  V30 6380 C 632.2 -2.37898 -2.72188 0
M  V30 6381 O 631.921 -3.71526 -2.32163 0
M  V30 6382 C 633.422 -2.50407 -3.65802 0
M  V30 6383 H 630.642 -0.495729 -0.45221 0
M  V30 6384 H 633.186 -1.866 -0.836709 0
M  V30 6385 H 631.341 -2.00263 -3.31622 0
M  V30 6386 H 631.755 -4.20849 -3.13027 0
M  V30 6387 H 633.229 -3.19056 -4.50452 0
M  V30 6388 H 633.706 -1.5401 -4.11312 0
M  V30 6389 H 634.312 -2.8874 -3.12265 0
M  V30 6390 N 632.627 0.916307 -1.28225 0
M  V30 6391 C 633.873 1.66765 -1.154 0
M  V30 6392 C 634.206 1.91912 0.297251 0
M  V30 6393 O 633.481 1.51766 1.21644 0
M  V30 6394 C 633.764 3.02715 -1.95028 0
M  V30 6395 C 633.617 2.84738 -3.48201 0
M  V30 6396 C 634.936 4.03215 -1.76369 0
M  V30 6397 H 632.055 0.605205 -0.42059 0
M  V30 6398 H 634.697 1.06255 -1.57512 0
M  V30 6399 H 632.847 3.54365 -1.59242 0
M  V30 6400 H 634.519 2.40118 -3.9388 0
M  V30 6401 H 632.762 2.19848 -3.73964 0
M  V30 6402 H 633.433 3.8127 -3.99171 0
M  V30 6403 H 635.909 3.60617 -2.07593 0
M  V30 6404 H 634.785 4.96306 -2.34459 0
M  V30 6405 H 635.046 4.36288 -0.71452 0
M  V30 6406 N 634.105 1.10431 1.1244 0
M  V30 6407 C 635.038 0.696987 2.17296 0
M  V30 6408 C 636.016 -0.301673 1.59777 0
M  V30 6409 O 637.2 -0.200583 1.8743 0
M  V30 6410 C 634.327 0.0284094 3.38688 0
M  V30 6411 C 633.373 0.990536 4.14838 0
M  V30 6412 S 634.206 2.50785 4.73146 0
M  V30 6413 C 635.362 1.85198 5.97873 0
M  V30 6414 H 635.595 1.58523 2.51511 0
M  V30 6415 H 633.128 0.921312 1.239 0
M  V30 6416 H 635.086 -0.351009 4.08997 0
M  V30 6417 H 633.747 -0.836629 3.02753 0
M  V30 6418 H 632.94 0.469991 5.01804 0
M  V30 6419 H 632.542 1.31186 3.50237 0
M  V30 6420 H 634.834 1.18217 6.67106 0
M  V30 6421 H 635.777 2.7012 6.54554 0
M  V30 6422 H 636.185 1.31653 5.48933 0
M  V30 6423 N 635.583 -1.29855 0.893053 0
M  V30 6424 C 636.808 -2.00512 0.530066 0
M  V30 6425 C 637.233 -1.66446 -0.876199 0
M  V30 6426 O 636.591 -0.885446 -1.58207 0
M  V30 6427 C 636.639 -3.53308 0.721505 0
M  V30 6428 O 635.743 -4.11764 -0.228994 0
M  V30 6429 H 635.084 -0.630617 0.207891 0
M  V30 6430 H 637.614 -1.6551 1.20282 0
M  V30 6431 H 637.624 -4.03206 0.623599 0
M  V30 6432 H 636.299 -3.77439 1.74678 0
M  V30 6433 H 634.876 -3.72805 -0.0841034 0
M  V30 6434 N 637.061 -0.65484 -1.43351 0
M  V30 6435 C 638.024 0.0263562 -2.29185 0
M  V30 6436 C 639.024 0.748951 -1.42293 0
M  V30 6437 O 640.214 0.589957 -1.63906 0
M  V30 6438 C 637.346 1.04806 -3.2439 0
M  V30 6439 H 638.539 -0.728883 -2.90908 0
M  V30 6440 H 636.092 -0.416149 -1.50658 0
M  V30 6441 H 636.827 1.83247 -2.67565 0
M  V30 6442 H 636.612 0.533554 -3.88453 0
M  V30 6443 H 638.102 1.52372 -3.88809 0
M  V30 6444 N 638.539 1.52521 -0.396863 0
M  V30 6445 C 639.469 2.29582 0.425941 0
M  V30 6446 C 640.45 1.33281 1.05689 0
M  V30 6447 O 641.635 1.62181 1.06823 0
M  V30 6448 C 638.765 3.10821 1.54943 0
M  V30 6449 C 637.719 4.15069 1.04413 0
M  V30 6450 C 637.045 4.84578 2.26028 0
M  V30 6451 C 638.345 5.22191 0.106767 0
M  V30 6452 H 640.039 2.98612 -0.217045 0
M  V30 6453 H 637.585 1.43611 -0.105826 0
M  V30 6454 H 639.538 3.63492 2.13193 0
M  V30 6455 H 638.262 2.39538 2.22011 0
M  V30 6456 H 636.921 3.63389 0.484118 0
M  V30 6457 H 636.569 4.09835 2.91623 0
M  V30 6458 H 636.269 5.55043 1.92876 0
M  V30 6459 H 637.793 5.40056 2.84906 0
M  V30 6460 H 639.207 5.70176 0.597685 0
M  V30 6461 H 637.604 5.99947 -0.135352 0
M  V30 6462 H 638.674 4.77531 -0.842134 0
M  V30 6463 O 640.056 0.267423 1.59271 0
M  V30 6464 H 640.747 -0.304099 1.91298 0
M  V30 END ATOM
M  V30 BEGIN BOND
M  V30 END BOND
M  V30 END CTAB
M  END
$$$$
