drugbank_target|P24666 Low molecular weight phosphotyrosine protein phosphatase (DB00173; DB04214)
 OpenBabel12092120403D

  0  0  0     0  0            999 V3000
M  V30 BEGIN CTAB
M  V30 COUNTS 2494 2517 0 0 0
M  V30 BEGIN ATOM
M  V30 1 H -0.908 1.98254 -0.117106 0
M  V30 2 N 0 1.576 0 0
M  V30 3 C 0.933 2.03868 1.02534 0
M  V30 4 C 1.911 0.928543 1.3348 0
M  V30 5 O 3.095 1.19667 1.45644 0
M  V30 6 C 0.222 2.43627 2.35294 0
M  V30 7 C -0.732 3.65373 2.2001 0
M  V30 8 S 0.101 5.13292 1.52614 0
M  V30 9 C 1.257 5.56322 2.86805 0
M  V30 10 H 1.49 2.90518 0.631377 0
M  V30 11 H -0.977 1.52953 0.210867 0
M  V30 12 H 0.981 2.67203 3.11629 0
M  V30 13 H -0.358 1.57376 2.7183 0
M  V30 14 H -1.165 3.90944 3.18086 0
M  V30 15 H -1.563 3.418 1.51819 0
M  V30 16 H 0.729 5.58782 3.83104 0
M  V30 17 H 1.672 6.56266 2.65933 0
M  V30 18 H 2.08 4.83886 2.90714 0
M  V30 19 N 1.4781 -0.272755 1.55222 0
M  V30 20 C 2.4411 -1.32041 1.87344 0
M  V30 21 C 3.4411 -1.42342 0.74803 0
M  V30 22 O 4.6311 -1.41488 1.0162 0
M  V30 23 C 1.7631 -2.70173 2.07893 0
M  V30 24 H 2.9561 -1.04789 2.80997 0
M  V30 25 H 0.5091 -0.51083 1.47717 0
M  V30 26 H 1.2441 -3.02605 1.16622 0
M  V30 27 H 1.0291 -2.64082 2.89833 0
M  V30 28 H 2.5191 -3.45869 2.34017 0
M  V30 29 N 2.9562 -1.48159 -0.537278 0
M  V30 30 C 3.8662 -1.64807 -1.6696 0
M  V30 31 C 4.8822 -0.530651 -1.65711 0
M  V30 32 O 6.0582 -0.800784 -1.84796 0
M  V30 33 C 3.1232 -1.67708 -3.03438 0
M  V30 34 C 2.1842 -2.91025 -3.156 0
M  V30 35 C 1.4172 -2.93778 -4.45567 0
M  V30 36 O 1.6402 -2.05153 -5.3223 0
M  V30 37 O 0.5742 -3.85868 -4.61941 0
M  V30 38 H 4.4002 -2.6066 -1.55853 0
M  V30 39 H 1.9852 -1.31475 -0.709549 0
M  V30 40 H 3.8672 -1.7218 -3.84619 0
M  V30 41 H 2.5422 -0.750278 -3.14885 0
M  V30 42 H 1.4492 -2.92089 -2.33741 0
M  V30 43 H 2.7822 -3.83065 -3.09066 0
M  V30 44 N 4.4343 0.785586 -1.36625 0
M  V30 45 C 5.3663 1.90711 -1.2713 0
M  V30 46 C 6.3793 1.61688 -0.189986 0
M  V30 47 O 7.5683 1.72864 -0.445014 0
M  V30 48 C 4.6683 3.25611 -0.939713 0
M  V30 49 C 3.8413 3.82385 -2.12369 0
M  V30 50 C 2.9003 4.95732 -1.76456 0
M  V30 51 O 1.9263 5.12047 -2.48589 0
M  V30 52 N 3.1283 5.76258 -0.700492 0
M  V30 53 H 5.8933 1.99376 -2.23762 0
M  V30 54 H 3.4543 0.964041 -1.30069 0
M  V30 55 H 5.4463 3.98937 -0.680554 0
M  V30 56 H 4.0163 3.12538 -0.0624074 0
M  V30 57 H 3.2363 3.01001 -2.54543 0
M  V30 58 H 4.5243 4.17047 -2.9146 0
M  V30 59 H 3.9223 5.65609 -0.101624 0
M  V30 60 H 2.4793 6.4987 -0.501165 0
M  V30 61 N 5.9124 1.20967 1.01018 0
M  V30 62 C 6.8754 0.965918 2.07853 0
M  V30 63 C 7.8754 -0.0610545 1.60684 0
M  V30 64 O 9.0654 0.175681 1.73312 0
M  V30 65 C 6.1974 0.455513 3.37843 0
M  V30 66 H 7.3904 1.91365 2.3091 0
M  V30 67 H 4.9434 1.02594 1.17916 0
M  V30 68 H 5.6784 -0.497381 3.20463 0
M  V30 69 H 5.4634 1.19622 3.73407 0
M  V30 70 H 6.9534 0.304667 4.16487 0
M  V30 71 N 7.3905 -1.2043 1.01659 0
M  V30 72 C 8.6185 -1.93777 0.725132 0
M  V30 73 C 9.0335 -1.74772 -0.714166 0
M  V30 74 O 8.3905 -1.06169 -1.4844 0
M  V30 75 C 8.4415 -3.45876 1.05129 0
M  V30 76 O 8.1625 -3.6426 2.43406 0
M  V30 77 C 9.6635 -4.36368 0.780891 0
M  V30 78 H 6.8835 -0.615901 0.266284 0
M  V30 79 H 9.4275 -1.52922 1.35776 0
M  V30 80 H 7.5825 -3.8461 0.464065 0
M  V30 81 H 7.9965 -4.58246 2.55169 0
M  V30 82 H 9.4705 -5.41743 1.05918 0
M  V30 83 H 9.9475 -4.38275 -0.284937 0
M  V30 84 H 10.5535 -4.03296 1.35027 0
M  V30 85 N 8.8686 -0.792821 -1.36206 0
M  V30 86 C 9.8156 -0.191653 -2.30003 0
M  V30 87 C 10.7856 0.666453 -1.52143 0
M  V30 88 O 11.9706 0.61442 -1.80636 0
M  V30 89 C 9.1106 0.664848 -3.38635 0
M  V30 90 C 8.2236 -0.212175 -4.31479 0
M  V30 91 C 7.3586 0.651022 -5.27196 0
M  V30 92 C 6.3976 -0.227247 -6.11678 0
M  V30 93 N 5.5346 0.595127 -6.99573 0
M  V30 94 H 10.3746 -0.996978 -2.80828 0
M  V30 95 H 7.9116 -0.503206 -1.38225 0
M  V30 96 H 9.8696 1.17645 -4.00269 0
M  V30 97 H 8.4996 1.43557 -2.89122 0
M  V30 98 H 7.5516 -0.841777 -3.70969 0
M  V30 99 H 8.8636 -0.888751 -4.90818 0
M  V30 100 H 8.0176 1.2283 -5.94136 0
M  V30 101 H 6.7566 1.36121 -4.68319 0
M  V30 102 H 5.7616 -0.816904 -5.43697 0
M  V30 103 H 6.9866 -0.93509 -6.72631 0
M  V30 104 H 4.9326 1.28955 -6.432 0
M  V30 105 H 4.8496 -0.0236952 -7.55996 0
M  V30 106 H 6.1176 1.15613 -7.70879 0
M  V30 107 N 10.3467 1.47872 -0.545128 0
M  V30 108 C 11.5717 2.07391 -0.0190611 0
M  V30 109 C 11.9967 1.39688 1.25971 0
M  V30 110 O 11.3547 0.467816 1.7516 0
M  V30 111 C 11.4027 3.60188 0.172335 0
M  V30 112 O 10.5067 3.9339 1.23766 0
M  V30 113 H 9.8477 0.662411 -0.0459059 0
M  V30 114 H 12.3777 1.90066 -0.757365 0
M  V30 115 H 12.3877 4.06129 0.390305 0
M  V30 116 H 11.0627 4.08865 -0.761725 0
M  V30 117 H 9.6397 3.5921 1.00114 0
M  V30 118 N 11.8248 0.280983 1.55075 0
M  V30 119 C 13.0708 -0.33461 2.00021 0
M  V30 120 C 13.4038 -1.55063 1.16915 0
M  V30 121 O 12.6788 -1.93006 0.240646 0
M  V30 122 C 12.9618 -0.711007 3.53011 0
M  V30 123 C 12.8148 0.512766 4.46868 0
M  V30 124 C 14.1338 -1.54522 4.12081 0
M  V30 125 H 11.2528 -0.120147 0.727141 0
M  V30 126 H 13.8948 0.389097 1.85973 0
M  V30 127 H 12.0448 -1.32761 3.65112 0
M  V30 128 H 13.7168 1.15131 4.46702 0
M  V30 129 H 11.9598 1.14975 4.18286 0
M  V30 130 H 12.6308 0.205556 5.51617 0
M  V30 131 H 15.1068 -1.02442 4.03293 0
M  V30 132 H 13.9828 -1.77739 5.19327 0
M  V30 133 H 14.2438 -2.52813 3.62682 0
M  V30 134 N 13.3029 -1.57598 0.00835791 0
M  V30 135 C 14.2329 -2.1198 -0.979113 0
M  V30 136 C 15.2139 -1.03091 -1.35301 0
M  V30 137 O 16.3989 -1.30818 -1.43528 0
M  V30 138 C 13.5289 -2.62995 -2.26828 0
M  V30 139 C 12.4829 -3.76485 -2.03576 0
M  V30 140 C 11.8089 -4.13846 -3.38579 0
M  V30 141 C 13.1089 -5.0342 -1.39161 0
M  V30 142 H 14.8029 -2.94738 -0.526281 0
M  V30 143 H 12.3489 -1.41783 -0.251704 0
M  V30 144 H 14.3019 -2.99669 -2.96271 0
M  V30 145 H 13.0259 -1.7737 -2.7424 0
M  V30 146 H 11.6849 -3.40217 -1.36557 0
M  V30 147 H 11.3329 -3.25232 -3.83709 0
M  V30 148 H 11.0329 -4.90312 -3.23834 0
M  V30 149 H 12.5569 -4.53086 -4.09323 0
M  V30 150 H 13.9709 -5.37812 -1.98573 0
M  V30 151 H 12.3679 -5.84746 -1.34878 0
M  V30 152 H 13.4379 -4.83548 -0.361868 0
M  V30 153 N 14.781 0.264519 -1.55364 0
M  V30 154 C 16.028 0.994986 -1.7637 0
M  V30 155 C 16.356 1.85976 -0.5695 0
M  V30 156 O 15.611 1.90509 0.44776 0
M  V30 157 C 15.91 1.9004 -3.02687 0
M  V30 158 C 15.576 1.19243 -4.34847 0
M  V30 159 C 14.238 0.996709 -4.70764 0
M  V30 160 C 16.59 0.689296 -5.16622 0
M  V30 161 C 13.918 0.285261 -5.86006 0
M  V30 162 C 16.27 -0.00860079 -6.32599 0
M  V30 163 C 14.934 -0.215963 -6.67151 0
M  V30 164 H 14.204 0.364091 -0.645383 0
M  V30 165 H 16.851 0.266543 -1.89636 0
M  V30 166 H 15.156 2.69533 -2.84357 0
M  V30 167 H 16.853 2.46695 -3.16137 0
M  V30 168 H 13.443 1.3549 -4.06621 0
M  V30 169 H 17.627 0.828108 -4.89342 0
M  V30 170 H 12.883 0.113961 -6.11294 0
M  V30 171 H 17.057 -0.406186 -6.95214 0
M  V30 172 H 14.684 -0.769217 -7.56298 0
M  V30 173 N 16.2591 1.48442 0.529413 0
M  V30 174 C 17.5051 1.5672 1.28711 0
M  V30 175 C 17.8381 0.2406 1.92704 0
M  V30 176 O 17.1131 -0.753454 1.79313 0
M  V30 177 C 17.3961 2.70587 2.37603 0
M  V30 178 C 17.2491 4.12953 1.78297 0
M  V30 179 C 18.5681 2.80212 3.39366 0
M  V30 180 H 15.6871 0.570474 0.466613 0
M  V30 181 H 18.3291 1.80617 0.589706 0
M  V30 182 H 16.4791 2.50342 2.97088 0
M  V30 183 H 18.1511 4.44639 1.22858 0
M  V30 184 H 16.3941 4.19927 1.0883 0
M  V30 185 H 17.0651 4.88448 2.57144 0
M  V30 186 H 19.5411 2.98553 2.89836 0
M  V30 187 H 18.4171 3.61611 4.12951 0
M  V30 188 H 18.6781 1.88393 3.99951 0
M  V30 189 N 17.7372 -0.778329 1.37039 0
M  V30 190 C 18.9772 -1.54973 1.33276 0
M  V30 191 C 19.3412 -1.91816 -0.0839376 0
M  V30 192 O 20.5422 -2.6767 -0.246228 0
M  V30 193 C 18.8132 -2.78517 2.23971 0
M  V30 194 S 20.3722 -3.6865 2.37997 0
M  V30 195 H 17.1902 -0.530639 0.473226 0
M  V30 196 H 19.7922 -0.915806 1.72723 0
M  V30 197 H 18.4962 -2.4952 3.25835 0
M  V30 198 H 18.0272 -3.46875 1.85584 0
M  V30 199 H 20.0422 -4.70182 1.58567 0
M  V30 200 N 19.2153 -1.21501 -1.00376 0
M  V30 201 C 20.1453 -0.999478 -2.11028 0
M  V30 202 C 21.1263 0.0759671 -1.6993 0
M  V30 203 O 22.3113 -0.0841106 -1.94018 0
M  V30 204 C 19.4413 -0.564709 -3.42678 0
M  V30 205 C 18.3953 -1.58486 -3.97576 0
M  V30 206 C 17.7213 -1.00628 -5.25146 0
M  V30 207 C 19.0213 -2.97204 -4.29496 0
M  V30 208 H 20.7153 -1.92495 -2.29317 0
M  V30 209 H 18.2613 -0.92693 -1.102 0
M  V30 210 H 20.2143 -0.401091 -4.19487 0
M  V30 211 H 18.9383 0.396411 -3.24185 0
M  V30 212 H 17.5973 -1.73606 -3.22888 0
M  V30 213 H 17.2453 -0.0368439 -5.02987 0
M  V30 214 H 16.9453 -1.68771 -5.62841 0
M  V30 215 H 18.4693 -0.854015 -6.04598 0
M  V30 216 H 19.8833 -2.8552 -4.97143 0
M  V30 217 H 18.2803 -3.62372 -4.78338 0
M  V30 218 H 19.3503 -3.47956 -3.3772 0
M  V30 219 N 20.6934 1.19889 -1.02296 0
M  V30 220 C 21.9414 1.89046 -0.714558 0
M  V30 221 C 22.2624 1.79636 0.758681 0
M  V30 222 O 21.5324 1.20292 1.54618 0
M  V30 223 H 20.1124 0.699802 -0.261317 0
M  V30 224 H 22.7744 1.45574 -1.29592 0
M  V30 225 H 21.8704 2.95524 -1.0036 0
M  V30 226 N 22.1715 0.800033 1.35784 0
M  V30 227 C 23.1195 0.193851 2.31791 0
M  V30 228 C 24.1135 -0.652744 1.56319 0
M  V30 229 O 25.3195 -0.546641 1.71499 0
M  V30 230 H 21.6945 0.04392 0.750716 0
M  V30 231 H 23.6655 1.01883 2.80468 0
M  V30 232 C 22.4145 -0.648338 3.41602 0
M  V30 233 H 21.7375 -0.00624665 3.998 0
M  V30 234 H 23.1775 -1.03898 4.11073 0
M  V30 235 C 21.6365 -1.8111 2.84079 0
M  V30 236 O 22.1665 -2.90825 2.77099 0
M  V30 237 N 20.3725 -1.62056 2.41218 0
M  V30 238 H 19.9195 -0.728123 2.47095 0
M  V30 239 H 19.8775 -2.40013 2.03079 0
M  V30 240 N 23.6496 -1.47581 0.552962 0
M  V30 241 C 24.8986 -2.01684 0.0251995 0
M  V30 242 C 25.2116 -1.43317 -1.33115 0
M  V30 243 O 26.4176 -1.89057 -1.94858 0
M  V30 244 C 24.8736 -3.599 -0.00542052 0
M  V30 245 C 24.4816 -4.27257 1.34742 0
M  V30 246 C 26.2256 -4.21768 -0.4808 0
M  V30 247 C 24.1326 -5.77467 1.27614 0
M  V30 248 H 23.0626 -0.753979 0.00565033 0
M  V30 249 H 25.7136 -1.69616 0.70018 0
M  V30 250 H 24.0956 -3.88911 -0.745961 0
M  V30 251 H 25.2696 -4.09893 2.10534 0
M  V30 252 H 23.5846 -3.77358 1.76039 0
M  V30 253 H 26.1816 -5.31838 -0.55246 0
M  V30 254 H 26.5246 -3.88651 -1.49184 0
M  V30 255 H 27.0576 -3.97273 0.204752 0
M  V30 256 H 23.7966 -6.15196 2.26304 0
M  V30 257 H 23.3166 -5.9718 0.55996 0
M  V30 258 H 24.9956 -6.3959 0.976421 0
M  V30 259 N 25.1277 -0.289203 -1.54924 0
M  V30 260 C 26.3677 0.324536 -2.01807 0
M  V30 261 C 26.7317 1.5199 -1.17316 0
M  V30 262 O 27.9327 2.20422 -1.53843 0
M  V30 263 C 26.2037 0.683578 -3.50802 0
M  V30 264 S 27.7627 1.28185 -4.19659 0
M  V30 265 H 24.5807 0.100236 -0.703899 0
M  V30 266 H 27.1827 -0.414325 -1.91059 0
M  V30 267 H 25.8867 -0.195073 -4.09936 0
M  V30 268 H 25.4177 1.45354 -3.65562 0
M  V30 269 H 27.4327 2.57006 -4.24456 0
M  V30 270 N 26.6058 1.57591 -0.0167156 0
M  V30 271 C 28.0218 1.55946 0.339557 0
M  V30 272 C 28.2218 1.02109 1.73713 0
M  V30 273 O 27.2778 0.662303 2.43659 0
M  V30 274 C 28.5908 3.00037 0.199499 0
M  V30 275 C 30.1388 3.11805 0.273193 0
M  V30 276 C 30.6138 4.57713 0.162068 0
M  V30 277 N 32.1048 4.6268 0.219444 0
M  V30 278 C 32.8398 5.73185 0.157054 0
M  V30 279 N 32.3358 6.92786 0.0442936 0
M  V30 280 N 34.1288 5.61707 0.21014 0
M  V30 281 H 26.2798 1.90921 -0.930758 0
M  V30 282 H 28.5428 0.877674 -0.358319 0
M  V30 283 H 28.2488 3.4333 -0.76273 0
M  V30 284 H 28.1228 3.64387 0.974786 0
M  V30 285 H 30.5098 2.68433 1.22587 0
M  V30 286 H 30.5908 2.50201 -0.532256 0
M  V30 287 H 30.2348 5.01763 -0.78714 0
M  V30 288 H 30.1648 5.17283 0.986222 0
M  V30 289 H 32.6558 3.76649 0.307246 0
M  V30 290 H 32.9688 7.728 0.00304069 0
M  V30 291 H 31.3138 6.94999 0.00968457 0
M  V30 292 H 34.5048 4.6716 0.296546 0
M  V30 293 H 34.6778 6.47807 0.158054 0
M  V30 294 N 28.0839 -0.256276 1.55502 0
M  V30 295 C 29.3089 -1.00766 1.81276 0
M  V30 296 C 29.7339 -1.78524 0.59252 0
M  V30 297 O 29.0919 -1.75413 -0.45827 0
M  V30 298 C 29.1399 -1.92869 3.04687 0
M  V30 299 O 28.2439 -3.019 2.80945 0
M  V30 300 H 27.5849 -0.287224 0.598664 0
M  V30 301 H 30.1149 -0.280109 2.02674 0
M  V30 302 H 30.1249 -2.34511 3.33869 0
M  V30 303 H 28.7999 -1.35689 3.93143 0
M  V30 304 H 27.3769 -2.64454 2.62904 0
M  V30 305 N 29.562 -1.4872 -0.521534 0
M  V30 306 C 30.973 -1.50607 -1.10337 0
M  V30 307 C 31.324 -0.280612 -1.94183 0
M  V30 308 O 30.449 0.611507 -2.0758 0
M  V30 309 C 31.044 -2.72903 -2.00772 0
M  V30 310 C 29.603 -2.77634 -2.54158 0
M  V30 311 C 28.75 -2.44241 -1.31307 0
M  V30 312 H 31.701 -1.55714 -0.306388 0
M  V30 313 H 31.722 -2.519 -2.85178 0
M  V30 314 H 31.234 -3.62077 -1.39721 0
M  V30 315 H 29.335 -1.92689 -3.18907 0
M  V30 316 H 29.448 -3.79283 -2.92714 0
M  V30 317 H 27.812 -1.95577 -1.63161 0
M  V30 318 H 28.595 -3.35666 -0.719943 0
M  V30 319 N 31.0401 0.771051 -1.3745 0
M  V30 320 C 32.2891 1.52491 -1.3202 0
M  V30 321 C 32.6021 1.9538 0.0927347 0
M  V30 322 O 33.8081 2.70159 0.269503 0
M  V30 323 C 32.2641 2.75366 -2.31736 0
M  V30 324 C 31.8721 2.39573 -3.78562 0
M  V30 325 C 33.6161 3.53307 -2.35318 0
M  V30 326 C 31.5231 3.58954 -4.70007 0
M  V30 327 H 30.4531 0.572506 -0.490666 0
M  V30 328 H 33.1041 0.844474 -1.62914 0
M  V30 329 H 31.4861 3.45303 -1.93861 0
M  V30 330 H 32.6601 1.77415 -4.25277 0
M  V30 331 H 30.9751 1.74805 -3.77932 0
M  V30 332 H 33.5721 4.42039 -3.00842 0
M  V30 333 H 33.9151 3.93217 -1.36698 0
M  V30 334 H 34.4481 2.90367 -2.71904 0
M  V30 335 H 31.1871 3.24125 -5.69757 0
M  V30 336 H 30.7071 4.20214 -4.27996 0
M  V30 337 H 32.3861 4.25758 -4.87175 0
M  V30 338 N 32.5182 1.22032 0.997298 0
M  V30 339 C 33.4812 0.987909 2.06816 0
M  V30 340 C 34.4812 -0.0440084 1.6074 0
M  V30 341 O 35.6712 0.194053 1.73116 0
M  V30 342 C 32.8032 0.49132 3.37341 0
M  V30 343 H 33.9962 1.93803 2.28868 0
M  V30 344 H 31.5492 1.03838 1.16822 0
M  V30 345 H 32.2842 -0.463364 3.20973 0
M  V30 346 H 32.0692 1.23575 3.72118 0
M  V30 347 H 33.5592 0.348824 4.16141 0
M  V30 348 N 33.9963 -1.19345 1.0293 0
M  V30 349 C 34.9063 -2.26245 0.620515 0
M  V30 350 C 35.9223 -1.70486 -0.347928 0
M  V30 351 O 37.0983 -2.00347 -0.205704 0
M  V30 352 C 34.1633 -3.46693 -0.0218957 0
M  V30 353 C 33.2243 -4.17632 0.994102 0
M  V30 354 C 32.4573 -5.32329 0.382253 0
M  V30 355 O 32.6803 -5.64552 -0.814676 0
M  V30 356 O 31.6143 -5.91664 1.10531 0
M  V30 357 H 35.4403 -2.63453 1.51083 0
M  V30 358 H 33.0253 -1.26207 0.799513 0
M  V30 359 H 34.9073 -4.19683 -0.380072 0
M  V30 360 H 33.5823 -3.11333 -0.886209 0
M  V30 361 H 32.4893 -3.4676 1.40387 0
M  V30 362 H 33.8223 -4.56964 1.8288 0
M  V30 363 N 35.4744 -0.807222 -1.35358 0
M  V30 364 C 36.4374 -0.223665 -2.28106 0
M  V30 365 C 37.4374 0.589354 -1.4961 0
M  V30 366 O 38.6274 0.407745 -1.69361 0
M  V30 367 C 35.7594 0.688149 -3.33882 0
M  V30 368 H 36.9524 -1.04169 -2.81227 0
M  V30 369 H 34.5054 -0.577921 -1.45223 0
M  V30 370 H 35.2404 1.52984 -2.85948 0
M  V30 371 H 35.0254 0.10687 -3.91954 0
M  V30 372 H 36.5154 1.09075 -4.03104 0
M  V30 373 N 36.9525 1.47285 -0.560781 0
M  V30 374 C 38.1985 2.02764 -0.0381184 0
M  V30 375 C 38.5315 1.43384 1.30976 0
M  V30 376 O 37.8065 0.590733 1.85312 0
M  V30 377 C 38.0895 3.60064 0.0511427 0
M  V30 378 C 37.9425 4.2987 -1.32408 0
M  V30 379 C 39.2615 4.33439 0.762795 0
M  V30 380 H 36.3805 0.736841 -0.0153264 0
M  V30 381 H 39.0225 1.75675 -0.723759 0
M  V30 382 H 37.1725 3.83274 0.635065 0
M  V30 383 H 38.8445 4.17989 -1.95148 0
M  V30 384 H 37.0875 3.90085 -1.8978 0
M  V30 385 H 37.7585 5.38478 -1.21431 0
M  V30 386 H 40.2345 4.15243 0.266965 0
M  V30 387 H 39.1105 5.43124 0.794221 0
M  V30 388 H 39.3715 4.02915 1.81966 0
M  V30 389 N 38.4306 0.297415 1.54768 0
M  V30 390 C 39.6776 -0.312913 2.00068 0
M  V30 391 C 40.0056 -1.54171 1.18582 0
M  V30 392 O 39.2606 -1.94108 0.249133 0
M  V30 393 C 39.5596 -0.717561 3.50123 0
M  V30 394 C 39.2256 0.409095 4.4904 0
M  V30 395 C 37.8876 0.718399 4.75807 0
M  V30 396 C 40.2396 1.16717 5.07963 0
M  V30 397 C 37.5676 1.78896 5.5876 0
M  V30 398 C 39.9196 2.22762 5.92081 0
M  V30 399 C 38.5836 2.54303 6.1716 0
M  V30 400 H 37.8536 -0.114503 0.7321 0
M  V30 401 H 40.5006 0.415767 1.86932 0
M  V30 402 H 38.8056 -1.52627 3.60849 0
M  V30 403 H 40.5026 -1.20091 3.82595 0
M  V30 404 H 37.0926 0.157918 4.28309 0
M  V30 405 H 41.2766 0.941466 4.87289 0
M  V30 406 H 36.5326 2.0381 5.7643 0
M  V30 407 H 40.7066 2.81962 6.36765 0
M  V30 408 H 38.3336 3.3739 6.81229 0
M  V30 409 N 39.9087 -1.5758 0.0250728 0
M  V30 410 C 41.3247 -1.56124 -0.331282 0
M  V30 411 C 41.5247 -1.03029 -1.73169 0
M  V30 412 O 40.5807 -0.675215 -2.43305 0
M  V30 413 C 41.8937 -3.00139 -0.183584 0
M  V30 414 C 43.4417 -3.11946 -0.256654 0
M  V30 415 C 43.9167 -4.57793 -0.137792 0
M  V30 416 N 45.4077 -4.6279 -0.194904 0
M  V30 417 C 46.1427 -5.7326 -0.126655 0
M  V30 418 N 45.6387 -6.928 -0.00755288 0
M  V30 419 N 47.4317 -5.61811 -0.180348 0
M  V30 420 H 39.5827 -1.90424 0.94087 0
M  V30 421 H 41.8457 -0.875761 0.362968 0
M  V30 422 H 41.5517 -3.4292 0.780927 0
M  V30 423 H 41.4257 -3.64899 -0.955448 0
M  V30 424 H 43.8127 -2.69079 -1.21162 0
M  V30 425 H 43.8937 -2.49915 0.545517 0
M  V30 426 H 43.5377 -5.01339 0.813739 0
M  V30 427 H 43.4677 -5.17798 -0.958775 0
M  V30 428 H 45.9587 -3.76807 -0.287267 0
M  V30 429 H 46.2717 -7.72791 0.0379428 0
M  V30 430 H 44.6167 -6.94995 0.0271731 0
M  V30 431 H 47.8077 -4.6731 -0.271767 0
M  V30 432 H 47.9807 -6.47882 -0.123697 0
M  V30 433 N 41.3868 0.248026 -1.55636 0
M  V30 434 C 42.3338 1.30707 -1.90222 0
M  V30 435 C 43.3038 1.47881 -0.756332 0
M  V30 436 O 44.4888 1.61883 -1.00988 0
M  V30 437 C 41.6288 2.65769 -2.20138 0
M  V30 438 C 40.7418 2.56612 -3.47526 0
M  V30 439 C 39.8768 3.8402 -3.67017 0
M  V30 440 C 38.9158 3.69476 -4.8801 0
M  V30 441 N 38.0528 4.88774 -5.04029 0
M  V30 442 H 42.8928 1.00512 -2.80538 0
M  V30 443 H 40.4298 0.485055 -1.38873 0
M  V30 444 H 42.3878 3.44386 -2.35487 0
M  V30 445 H 41.0178 2.94115 -1.33027 0
M  V30 446 H 40.0698 1.69571 -3.40514 0
M  V30 447 H 41.3818 2.41774 -4.36287 0
M  V30 448 H 40.5358 4.7108 -3.8232 0
M  V30 449 H 39.2748 4.01754 -2.76487 0
M  V30 450 H 38.2798 2.80799 -4.72686 0
M  V30 451 H 39.5048 3.53238 -5.8 0
M  V30 452 H 37.4508 5.0687 -4.16435 0
M  V30 453 H 37.3678 4.76562 -5.86877 0
M  V30 454 H 38.6358 5.77335 -5.23741 0
M  V30 455 N 42.8649 1.48995 0.513639 0
M  V30 456 C 43.7949 1.67636 1.62544 0
M  V30 457 C 44.7759 0.525087 1.61793 0
M  V30 458 O 45.9609 0.759502 1.78732 0
M  V30 459 C 43.0909 1.73114 3.01079 0
M  V30 460 C 42.0449 2.87905 3.16693 0
M  V30 461 C 41.3709 2.78486 4.56453 0
M  V30 462 C 42.6709 4.29005 2.97913 0
M  V30 463 H 44.3649 2.60716 1.47198 0
M  V30 464 H 41.9109 1.25465 0.706714 0
M  V30 465 H 43.8639 1.84742 3.78746 0
M  V30 466 H 42.5879 0.766241 3.17484 0
M  V30 467 H 41.2469 2.75859 2.41448 0
M  V30 468 H 40.8949 1.7993 4.69717 0
M  V30 469 H 40.5949 3.55523 4.67843 0
M  V30 470 H 42.1189 2.92104 5.36197 0
M  V30 471 H 43.5329 4.41798 3.65359 0
M  V30 472 H 41.9299 5.07166 3.20785 0
M  V30 473 H 42.9999 4.44329 1.94165 0
M  V30 474 N 44.343 -0.763751 1.37857 0
M  V30 475 C 45.589 -1.52483 1.33704 0
M  V30 476 C 45.922 -1.94051 -0.0759612 0
M  V30 477 O 45.197 -1.64675 -1.03501 0
M  V30 478 C 45.48 -2.78441 2.28348 0
M  V30 479 C 45.333 -2.43075 3.78463 0
M  V30 480 C 46.652 -3.80415 2.21298 0
M  V30 481 H 43.771 -0.553169 0.487005 0
M  V30 482 H 46.413 -0.875562 1.68624 0
M  V30 483 H 44.563 -3.33842 1.987 0
M  V30 484 H 46.235 -1.93527 4.18742 0
M  V30 485 H 44.478 -1.75666 3.96641 0
M  V30 486 H 45.149 -3.33149 4.40132 0
M  V30 487 H 47.625 -3.34527 2.47449 0
M  V30 488 H 46.501 -4.66257 2.89647 0
M  V30 489 H 46.762 -4.25262 1.20849 0
M  V30 490 N 45.8211 -1.22559 -0.990812 0
M  V30 491 C 47.0491 -1.07779 -1.76611 0
M  V30 492 C 47.4641 0.371513 -1.85109 0
M  V30 493 O 46.8211 1.25737 -1.32274 0
M  V30 494 C 46.8721 -1.68512 -3.19822 0
M  V30 495 O 46.5931 -3.07774 -3.1178 0
M  V30 496 C 48.0941 -1.59035 -4.13791 0
M  V30 497 H 45.3141 -0.377729 -0.554583 0
M  V30 498 H 47.8581 -1.62195 -1.24551 0
M  V30 499 H 46.0131 -1.18154 -3.68942 0
M  V30 500 H 46.4271 -3.37062 -4.01858 0
M  V30 501 H 47.9011 -2.0625 -5.1202 0
M  V30 502 H 48.3781 -0.547273 -4.35777 0
M  V30 503 H 48.9841 -2.08709 -3.70568 0
M  V30 504 N 47.2992 1.18797 -1.03562 0
M  V30 505 C 48.5762 1.84469 -0.650434 0
M  V30 506 C 48.9562 1.92319 0.870433 0
M  V30 507 O 48.3042 1.44528 1.76986 0
M  V30 508 C 48.5142 3.2306 -1.32036 0
M  V30 509 C 49.8622 3.9915 -1.44792 0
M  V30 510 O 50.8862 3.32481 -1.27806 0
M  V30 511 O 49.7452 5.18587 -1.72423 0
M  V30 512 H 46.8392 0.795251 -0.226946 0
M  V30 513 H 49.3852 1.26231 -1.13419 0
M  V30 514 H 48.1572 3.1222 -2.3587 0
M  V30 515 H 47.7802 3.88949 -0.8249 0
M  V30 516 N 48.7773 0.814389 1.34928 0
M  V30 517 C 49.7093 0.187834 2.28429 0
M  V30 518 C 50.7223 -0.617374 1.5064 0
M  V30 519 O 51.9113 -0.448454 1.72775 0
M  V30 520 C 49.0113 -0.755962 3.30361 0
M  V30 521 C 48.1843 0.00456686 4.374 0
M  V30 522 C 47.2433 -0.858876 5.19143 0
M  V30 523 O 46.2693 -0.306968 5.68372 0
M  V30 524 N 47.4713 -2.17988 5.38016 0
M  V30 525 H 50.2363 0.991105 2.82838 0
M  V30 526 H 47.7973 0.670561 1.4736 0
M  V30 527 H 49.7893 -1.338 3.81942 0
M  V30 528 H 48.3593 -1.46001 2.7641 0
M  V30 529 H 47.5793 0.767865 3.86649 0
M  V30 530 H 48.8673 0.528422 5.06049 0
M  V30 531 H 48.2653 -2.65212 4.99679 0
M  V30 532 H 46.8223 -2.71098 5.92747 0
M  V30 533 N 50.2554 -1.46986 0.568584 0
M  V30 534 C 51.2034 -2.31858 -0.185649 0
M  V30 535 C 52.1974 -1.43624 -0.898249 0
M  V30 536 O 53.4034 -1.60327 -0.818242 0
M  V30 537 H 49.7784 -0.747866 -0.0787399 0
M  V30 538 H 51.7494 -2.93303 0.549191 0
M  V30 539 C 50.4984 -3.26513 -1.19519 0
M  V30 540 H 49.8214 -3.94377 -0.656285 0
M  V30 541 H 51.2614 -3.88707 -1.6936 0
M  V30 542 C 49.7204 -2.50847 -2.24894 0
M  V30 543 O 50.2504 -2.26119 -3.32014 0
M  V30 544 N 48.4564 -2.11656 -1.99124 0
M  V30 545 H 48.0034 -2.31966 -1.12024 0
M  V30 546 H 47.9614 -1.61347 -2.69842 0
M  V30 547 N 51.7335 -0.305618 -1.54608 0
M  V30 548 C 52.9825 0.303098 -1.9941 0
M  V30 549 C 53.2955 1.54648 -1.19764 0
M  V30 550 O 54.5015 2.23007 -1.54855 0
M  V30 551 C 52.9575 0.590588 -3.55021 0
M  V30 552 C 52.5655 -0.634719 -4.43481 0
M  V30 553 C 54.3095 1.16025 -4.08336 0
M  V30 554 C 52.2165 -0.320126 -5.90533 0
M  V30 555 H 51.1465 0.117031 -0.744862 0
M  V30 556 H 53.7975 -0.415045 -1.78745 0
M  V30 557 H 52.1795 1.36845 -3.71604 0
M  V30 558 H 53.3535 -1.41079 -4.38672 0
M  V30 559 H 51.6685 -1.12333 -4.00962 0
M  V30 560 H 54.2655 1.40994 -5.15776 0
M  V30 561 H 54.6085 2.10397 -3.5922 0
M  V30 562 H 55.1415 0.443985 -3.95315 0
M  V30 563 H 51.8805 -1.23254 -6.43808 0
M  V30 564 H 51.4005 0.418579 -5.98338 0
M  V30 565 H 53.0795 0.0766241 -6.46955 0
M  V30 566 N 53.2116 1.57565 -0.0334293 0
M  V30 567 C 54.4366 1.96689 0.657895 0
M  V30 568 C 54.8616 0.910057 1.64619 0
M  V30 569 O 54.2196 -0.128598 1.80843 0
M  V30 570 C 54.2676 3.34905 1.33683 0
M  V30 571 O 53.3716 3.31574 2.45219 0
M  V30 572 H 52.7126 0.641205 0.172489 0
M  V30 573 H 55.2426 2.04372 -0.0965621 0
M  V30 574 H 55.2526 3.71234 1.69262 0
M  V30 575 H 53.9276 4.11366 0.612411 0
M  V30 576 H 52.5046 3.06968 2.11719 0
M  V30 577 N 54.6897 -0.239769 1.55765 0
M  V30 578 C 55.5997 -1.31831 1.94056 0
M  V30 579 C 56.6157 -1.52275 0.841925 0
M  V30 580 O 57.7917 -1.65759 1.14394 0
M  V30 581 C 54.8567 -2.65156 2.23368 0
M  V30 582 C 53.9177 -2.53173 3.46701 0
M  V30 583 C 53.1507 -3.8014 3.74606 0
M  V30 584 O 53.3737 -4.82343 3.04469 0
M  V30 585 O 52.3077 -3.78344 4.68123 0
M  V30 586 H 56.1337 -1.02347 2.85935 0
M  V30 587 H 53.7187 -0.441123 1.42739 0
M  V30 588 H 55.6007 -3.43929 2.43497 0
M  V30 589 H 54.2757 -2.94358 1.34666 0
M  V30 590 H 53.1827 -1.72662 3.31871 0
M  V30 591 H 54.5157 -2.28915 4.35728 0
M  V30 592 N 56.1678 -1.49265 -0.50573 0
M  V30 593 C 57.1158 -1.66065 -1.62866 0
M  V30 594 C 58.1098 -0.526636 -1.61006 0
M  V30 595 O 59.3158 -0.706126 -1.65571 0
M  V30 596 H 55.6908 -0.52356 -0.539805 0
M  V30 597 H 57.6618 -2.60329 -1.45848 0
M  V30 598 C 56.4108 -1.74008 -3.01026 0
M  V30 599 H 55.7338 -2.6064 -3.03161 0
M  V30 600 H 57.1738 -1.89798 -3.79147 0
M  V30 601 C 55.6328 -0.483868 -3.33407 0
M  V30 602 O 56.1628 0.392548 -3.99777 0
M  V30 603 N 54.3688 -0.348236 -2.88506 0
M  V30 604 H 53.9158 -1.06242 -2.34671 0
M  V30 605 H 53.8738 0.491204 -3.10539 0
M  V30 606 N 57.6459 0.756429 -1.3826 0
M  V30 607 C 58.8919 1.5168 -1.35517 0
M  V30 608 C 59.2469 1.9232 0.0554451 0
M  V30 609 O 58.5399 1.62352 1.01746 0
M  V30 610 C 58.7339 2.78313 -2.24224 0
M  V30 611 C 58.5629 2.50053 -3.7377 0
M  V30 612 C 57.3329 2.43414 -4.42807 0
M  V30 613 C 59.5309 2.1702 -4.66269 0
M  V30 614 N 57.5129 2.07398 -5.77805 0
M  V30 615 C 58.8839 1.91271 -5.89759 0
M  V30 616 C 60.9389 2.03305 -4.54501 0
M  V30 617 C 59.6419 1.53192 -7.02798 0
M  V30 618 C 61.6679 1.66627 -5.67441 0
M  V30 619 C 61.0299 1.4175 -6.8999 0
M  V30 620 H 57.1289 0.554735 -0.551174 0
M  V30 621 H 59.7129 0.881106 -1.73622 0
M  V30 622 H 57.8839 3.39696 -1.88311 0
M  V30 623 H 59.6159 3.44343 -2.12627 0
M  V30 624 H 56.3709 2.59789 -3.95988 0
M  V30 625 H 56.7949 1.92044 -6.4919 0
M  V30 626 H 61.4369 2.21215 -3.60311 0
M  V30 627 H 59.1549 1.34022 -7.96909 0
M  V30 628 H 62.7409 1.56652 -5.60314 0
M  V30 629 H 61.6209 1.1379 -7.759 0
M  V30 630 N 59.124 1.23083 0.984299 0
M  V30 631 C 60.54 0.992637 1.24975 0
M  V30 632 C 60.74 -0.308618 1.99123 0
M  V30 633 O 59.796 -1.02905 2.30579 0
M  V30 634 C 61.109 2.19698 2.05312 0
M  V30 635 C 62.657 2.24147 2.18465 0
M  V30 636 C 63.132 3.44157 3.02192 0
M  V30 637 N 64.623 3.44372 3.09777 0
M  V30 638 C 65.358 4.33886 3.74874 0
M  V30 639 N 64.854 5.3363 4.41827 0
M  V30 640 N 66.647 4.21639 3.71721 0
M  V30 641 H 58.798 2.06731 0.487453 0
M  V30 642 H 61.061 0.906339 0.277944 0
M  V30 643 H 60.767 3.1411 1.58201 0
M  V30 644 H 60.641 2.20465 3.06064 0
M  V30 645 H 63.028 1.30277 2.64786 0
M  V30 646 H 63.109 2.27415 1.17115 0
M  V30 647 H 62.753 4.38332 2.56568 0
M  V30 648 H 62.683 3.3813 4.03702 0
M  V30 649 H 65.174 2.72201 2.62135 0
M  V30 650 H 65.487 5.98196 4.89266 0
M  V30 651 H 63.832 5.37534 4.40548 0
M  V30 652 H 67.023 3.42962 3.18582 0
M  V30 653 H 67.196 4.91604 4.22173 0
M  V30 654 N 60.6021 -1.18246 1.0419 0
M  V30 655 C 61.8481 -1.88536 0.747122 0
M  V30 656 C 62.1811 -1.80223 -0.723409 0
M  V30 657 O 61.4561 -1.20337 -1.52804 0
M  V30 658 C 61.7391 -3.38968 1.21544 0
M  V30 659 C 61.5921 -3.56084 2.74816 0
M  V30 660 C 62.9111 -4.32648 0.806482 0
M  V30 661 H 60.0301 -0.684619 0.272883 0
M  V30 662 H 62.6721 -1.39113 1.29413 0
M  V30 663 H 60.8221 -3.8119 0.750081 0
M  V30 664 H 62.4941 -3.22946 3.29399 0
M  V30 665 H 60.7371 -2.98699 3.14582 0
M  V30 666 H 61.4081 -4.61639 3.02644 0
M  V30 667 H 63.8841 -3.98211 1.20695 0
M  V30 668 H 62.7601 -5.36462 1.1619 0
M  V30 669 H 63.0211 -4.41146 -0.29029 0
M  V30 670 N 62.0802 -0.821533 -1.34494 0
M  V30 671 C 63.3572 -0.33159 -1.92769 0
M  V30 672 C 63.7372 1.18088 -1.74981 0
M  V30 673 O 63.0852 1.98733 -1.12772 0
M  V30 674 C 63.2952 -0.759398 -3.40638 0
M  V30 675 C 64.6432 -0.757433 -4.1779 0
M  V30 676 O 65.6672 -0.70189 -3.49216 0
M  V30 677 O 64.5262 -0.829361 -5.4017 0
M  V30 678 H 61.6202 -0.0902502 -0.822061 0
M  V30 679 H 64.1662 -0.906231 -1.43477 0
M  V30 680 H 62.9382 -1.8012 -3.47379 0
M  V30 681 H 62.5612 -0.160378 -3.97276 0
M  V30 682 N 63.5583 1.46682 -0.576371 0
M  V30 683 C 64.7833 2.07304 -0.0630475 0
M  V30 684 C 65.2083 1.42329 1.2298 0
M  V30 685 O 64.5663 0.504865 1.74129 0
M  V30 686 C 64.6143 3.60472 0.095895 0
M  V30 687 O 63.7183 3.95927 1.15394 0
M  V30 688 H 63.0593 0.661288 -0.0599463 0
M  V30 689 H 65.5893 1.88417 -0.797511 0
M  V30 690 H 65.5993 4.06865 0.304071 0
M  V30 691 H 64.2743 4.07157 -0.84828 0
M  V30 692 H 62.8513 3.61252 0.924724 0
M  V30 693 N 65.0364 0.313813 1.54444 0
M  V30 694 C 65.9994 -0.54379 2.22656 0
M  V30 695 C 66.9994 -1.05124 1.21678 0
M  V30 696 O 68.1894 -0.945225 1.46325 0
M  V30 697 C 65.3214 -1.75427 2.92298 0
M  V30 698 H 66.5144 0.0523599 2.99854 0
M  V30 699 H 64.0674 0.0647834 1.56166 0
M  V30 700 H 64.8024 -2.38991 2.19211 0
M  V30 701 H 64.5874 -1.39791 3.66334 0
M  V30 702 H 66.0774 -2.36325 3.44297 0
M  V30 703 N 66.5145 -1.57545 0.0417849 0
M  V30 704 C 67.4775 -2.09885 -0.92093 0
M  V30 705 C 68.4775 -1.01648 -1.24596 0
M  V30 706 O 69.6675 -1.27759 -1.1842 0
M  V30 707 C 66.7995 -2.57527 -2.23367 0
M  V30 708 H 67.9925 -2.96236 -0.467382 0
M  V30 709 H 65.5455 -1.5493 -0.206467 0
M  V30 710 H 66.2805 -1.74542 -2.73323 0
M  V30 711 H 66.0655 -3.36613 -2.01083 0
M  V30 712 H 67.5555 -2.98201 -2.92346 0
M  V30 713 N 67.9926 0.231505 -1.5589 0
M  V30 714 C 69.2206 0.974505 -1.82513 0
M  V30 715 C 69.6356 1.78344 -0.619591 0
M  V30 716 O 68.9926 1.77792 0.411848 0
M  V30 717 C 69.0436 1.90007 -3.07538 0
M  V30 718 O 68.7646 1.12385 -4.2344 0
M  V30 719 C 70.2656 2.75779 -3.47075 0
M  V30 720 H 67.4856 0.286065 -0.606966 0
M  V30 721 H 70.0296 0.249739 -2.02969 0
M  V30 722 H 68.1846 2.57891 -2.89086 0
M  V30 723 H 68.5986 1.75125 -4.944 0
M  V30 724 H 70.0726 3.36443 -4.37619 0
M  V30 725 H 70.5496 3.47672 -2.68367 0
M  V30 726 H 71.1556 2.13323 -3.67931 0
M  V30 727 N 69.4707 1.49531 0.497807 0
M  V30 728 C 70.6957 1.63159 1.28039 0
M  V30 729 C 71.1207 0.30418 1.85624 0
M  V30 730 O 70.4787 -0.728618 1.66015 0
M  V30 731 C 70.5267 2.70537 2.38416 0
M  V30 732 O 69.6307 2.29931 3.42353 0
M  V30 733 H 68.9717 0.546001 0.377861 0
M  V30 734 H 71.5017 1.9574 0.59558 0
M  V30 735 H 71.5117 2.92802 2.84132 0
M  V30 736 H 70.1867 3.6689 1.95869 0
M  V30 737 H 68.7637 2.18009 3.02533 0
M  V30 738 N 70.9488 -0.749086 1.3866 0
M  V30 739 C 72.1968 -1.50535 1.34847 0
M  V30 740 C 72.5178 -1.94909 -0.0595016 0
M  V30 741 O 71.7878 -1.67973 -1.00806 0
M  V30 742 H 70.3678 -0.558395 0.49619 0
M  V30 743 H 73.0298 -0.890165 1.73384 0
M  V30 744 H 72.1258 -2.39413 2.00219 0
M  V30 745 N 72.4269 -1.23603 -0.977757 0
M  V30 746 C 73.6569 -1.09487 -1.75203 0
M  V30 747 C 74.0649 0.356321 -1.85814 0
M  V30 748 O 73.4079 1.25816 -1.33851 0
M  V30 749 C 73.4699 -1.64905 -3.19447 0
M  V30 750 C 73.1339 -3.13688 -3.32338 0
M  V30 751 C 74.1309 -4.10953 -3.18455 0
M  V30 752 C 71.8159 -3.53449 -3.56902 0
M  V30 753 C 73.8099 -5.45962 -3.28944 0
M  V30 754 C 71.4969 -4.88602 -3.6703 0
M  V30 755 C 72.4949 -5.84668 -3.53062 0
M  V30 756 O 72.1829 -7.17365 -3.62826 0
M  V30 757 H 71.9149 -0.38367 -0.556573 0
M  V30 758 H 74.4689 -1.6398 -1.23693 0
M  V30 759 H 72.6989 -1.04835 -3.72218 0
M  V30 760 H 74.3879 -1.46226 -3.78646 0
M  V30 761 H 75.1539 -3.81577 -2.99372 0
M  V30 762 H 71.0329 -2.79188 -3.66844 0
M  V30 763 H 74.5769 -6.20925 -3.17958 0
M  V30 764 H 70.4739 -5.17653 -3.85623 0
M  V30 765 H 71.2419 -7.2515 -3.79605 0
M  V30 766 N 73.905 1.17692 -1.04816 0
M  V30 767 C 74.815 2.25229 -0.65643 0
M  V30 768 C 75.831 1.71018 0.320761 0
M  V30 769 O 77.007 2.00649 0.173805 0
M  V30 770 C 74.072 3.46684 -0.0332629 0
M  V30 771 C 73.133 4.15997 -1.06042 0
M  V30 772 C 72.366 5.31654 -0.466893 0
M  V30 773 O 72.589 5.65777 0.724758 0
M  V30 774 O 71.523 5.89831 -1.1993 0
M  V30 775 H 75.349 2.61016 -1.55255 0
M  V30 776 H 72.934 1.24919 -0.81949 0
M  V30 777 H 74.816 4.20234 0.313256 0
M  V30 778 H 73.491 3.12703 0.836566 0
M  V30 779 H 72.398 3.44482 -1.45886 0
M  V30 780 H 73.731 4.53996 -1.90127 0
M  V30 781 N 75.3831 0.828654 1.34056 0
M  V30 782 C 76.6321 0.415828 1.97367 0
M  V30 783 C 76.9451 -1.02796 1.6641 0
M  V30 784 O 78.1511 -1.54497 2.23255 0
M  V30 785 C 76.6071 0.692601 3.53173 0
M  V30 786 C 76.2151 2.15038 3.93017 0
M  V30 787 C 77.9591 0.346222 4.23086 0
M  V30 788 C 75.8661 2.37174 5.41758 0
M  V30 789 H 74.7961 0.151755 0.738571 0
M  V30 790 H 77.4471 1.01581 1.52819 0
M  V30 791 H 75.8291 0.0223764 3.95994 0
M  V30 792 H 77.0031 2.86024 3.61285 0
M  V30 793 H 75.3181 2.45875 3.36057 0
M  V30 794 H 77.9151 0.48937 5.32456 0
M  V30 795 H 78.2581 -0.709842 4.10204 0
M  V30 796 H 78.7911 0.971258 3.85761 0
M  V30 797 H 75.5301 3.41308 5.59633 0
M  V30 798 H 75.0501 1.70738 5.74986 0
M  V30 799 H 76.7291 2.19818 6.08514 0
M  V30 800 N 76.8612 -1.46375 0.584142 0
M  V30 801 C 78.1092 -2.01978 0.0701287 0
M  V30 802 C 78.4302 -1.4579 -1.295 0
M  V30 803 O 77.7002 -0.64314 -1.85042 0
M  V30 804 H 76.2802 -0.746648 0.0229345 0
M  V30 805 H 78.9422 -1.79461 0.760245 0
M  V30 806 H 78.0382 -3.121 0.0022064 0
M  V30 807 N 78.3393 -0.321999 -1.54275 0
M  V30 808 C 79.2873 0.560206 -2.25753 0
M  V30 809 C 80.2813 1.11984 -1.27106 0
M  V30 810 O 81.4873 1.06806 -1.44888 0
M  V30 811 H 77.8623 0.199304 -0.725108 0
M  V30 812 H 79.8333 -0.0649365 -2.98329 0
M  V30 813 C 78.5823 1.71023 -3.02731 0
M  V30 814 H 77.9053 1.28885 -3.78456 0
M  V30 815 H 79.3453 2.30314 -3.55993 0
M  V30 816 C 77.8043 2.62692 -2.10938 0
M  V30 817 O 78.3343 3.64364 -1.6912 0
M  V30 818 N 76.5403 2.30891 -1.76459 0
M  V30 819 H 76.0873 1.48253 -2.10663 0
M  V30 820 H 76.0453 2.92487 -1.1532 0
M  V30 821 N 79.8174 1.5752 -0.0501392 0
M  V30 822 C 81.2284 1.80271 0.485705 0
M  V30 823 C 81.5794 0.96228 1.70981 0
M  V30 824 O 80.7044 0.178578 2.15662 0
M  V30 825 C 81.2994 3.26957 0.887938 0
M  V30 826 C 79.8584 3.5063 1.36877 0
M  V30 827 C 79.0054 2.75165 0.343468 0
M  V30 828 H 81.9564 1.56281 -0.276028 0
M  V30 829 H 81.9774 3.37821 1.75093 0
M  V30 830 H 81.4894 3.881 -0.0031809 0
M  V30 831 H 79.5904 2.94766 2.27911 0
M  V30 832 H 79.7034 4.59343 1.36164 0
M  V30 833 H 78.0674 2.4127 0.816128 0
M  V30 834 H 78.8504 3.39034 -0.539548 0
M  V30 835 N 81.2955 -0.223234 1.56011 0
M  V30 836 C 82.7065 -0.790368 1.69145 0
M  V30 837 C 83.0575 -1.85055 0.651845 0
M  V30 838 O 82.1825 -2.15498 -0.197359 0
M  V30 839 C 82.7775 -1.4404 3.06656 0
M  V30 840 C 81.3365 -1.95494 3.2165 0
M  V30 841 C 80.4835 -0.814506 2.65068 0
M  V30 842 H 83.4345 0.00139011 1.587 0
M  V30 843 H 83.4555 -2.30916 3.0242 0
M  V30 844 H 82.9675 -0.668543 3.82298 0
M  V30 845 H 81.0685 -2.75487 2.50874 0
M  V30 846 H 81.1815 -2.13607 4.28846 0
M  V30 847 H 79.5455 -1.22137 2.23505 0
M  V30 848 H 80.3285 -0.0553515 3.43255 0
M  V30 849 N 82.7736 -1.49793 -0.48987 0
M  V30 850 C 84.0506 -1.50348 -1.25119 0
M  V30 851 C 84.4306 -0.237466 -2.0976 0
M  V30 852 O 83.7786 0.77981 -2.14782 0
M  V30 853 C 83.9886 -2.78872 -2.09837 0
M  V30 854 C 85.3366 -3.288 -2.68655 0
M  V30 855 O 86.3606 -2.80065 -2.20096 0
M  V30 856 O 85.2196 -4.13707 -3.57083 0
M  V30 857 H 82.3136 -0.602242 -0.566775 0
M  V30 858 H 84.8596 -1.62067 -0.503229 0
M  V30 859 H 83.6316 -3.62499 -1.47343 0
M  V30 860 H 83.2546 -2.70066 -2.91805 0
M  V30 861 N 84.2517 0.741722 -1.39055 0
M  V30 862 C 85.4817 1.52876 -1.3897 0
M  V30 863 C 85.8897 1.8919 0.0193266 0
M  V30 864 O 85.2327 1.54138 0.999356 0
M  V30 865 C 85.2947 2.84929 -2.19216 0
M  V30 866 C 84.9587 2.71086 -3.67915 0
M  V30 867 C 85.9557 2.40084 -4.61146 0
M  V30 868 C 83.6407 2.88168 -4.11418 0
M  V30 869 C 85.6347 2.26335 -5.95862 0
M  V30 870 C 83.3217 2.74037 -5.46211 0
M  V30 871 C 84.3197 2.43166 -6.38247 0
M  V30 872 O 84.0077 2.29115 -7.70559 0
M  V30 873 H 83.7397 0.479252 -0.476753 0
M  V30 874 H 86.2937 0.924751 -1.83405 0
M  V30 875 H 84.5237 3.47564 -1.69518 0
M  V30 876 H 86.2127 3.46509 -2.11392 0
M  V30 877 H 86.9787 2.26545 -4.28838 0
M  V30 878 H 82.8577 3.11191 -3.40119 0
M  V30 879 H 86.4017 2.0216 -6.67665 0
M  V30 880 H 82.2987 2.87153 -5.78112 0
M  V30 881 H 83.0667 2.44237 -7.81211 0
M  V30 882 N 85.7298 1.2412 0.971189 0
M  V30 883 C 87.1458 1.00584 1.23916 0
M  V30 884 C 87.3458 -0.287481 1.99439 0
M  V30 885 O 86.4018 -1.00454 2.31658 0
M  V30 886 C 87.7148 2.21864 2.0297 0
M  V30 887 C 89.2628 2.26452 2.16076 0
M  V30 888 C 89.7378 3.47343 2.98524 0
M  V30 889 N 91.2288 3.47639 3.06107 0
M  V30 890 C 91.9638 4.37837 3.70251 0
M  V30 891 N 91.4598 5.38286 4.36142 0
M  V30 892 N 93.2528 4.25558 3.67228 0
M  V30 893 H 85.4038 2.07236 0.465499 0
M  V30 894 H 87.6668 0.909236 0.268315 0
M  V30 895 H 87.3728 3.15771 1.54861 0
M  V30 896 H 87.2468 2.23698 3.03709 0
M  V30 897 H 89.6338 1.33078 2.6339 0
M  V30 898 H 89.7148 2.28645 1.14696 0
M  V30 899 H 89.3588 4.41029 2.51905 0
M  V30 900 H 89.2888 3.42393 4.00093 0
M  V30 901 H 91.7798 2.74966 2.59233 0
M  V30 902 H 92.0928 6.03352 4.82894 0
M  V30 903 H 90.4378 5.42176 4.34822 0
M  V30 904 H 93.6288 3.46322 3.14927 0
M  V30 905 H 93.8018 4.96054 4.16935 0
M  V30 906 N 87.2079 -1.17134 1.05439 0
M  V30 907 C 88.4559 -1.87085 0.764429 0
M  V30 908 C 88.7769 -1.81584 -0.710787 0
M  V30 909 O 88.0469 -1.24349 -1.51374 0
M  V30 910 H 86.6269 -0.692627 0.279779 0
M  V30 911 H 89.2889 -1.42087 1.33406 0
M  V30 912 H 88.3849 -2.92759 1.0816 0
M  V30 913 N 88.686 -0.835752 -1.33615 0
M  V30 914 C 89.618 -0.224151 -2.28101 0
M  V30 915 C 90.631 0.593331 -1.51603 0
M  V30 916 O 91.82 0.420911 -1.73466 0
M  V30 917 C 88.92 0.703309 -3.31522 0
M  V30 918 C 88.093 -0.0741528 -4.37337 0
M  V30 919 C 87.152 0.776176 -5.20444 0
M  V30 920 O 86.178 0.216506 -5.68788 0
M  V30 921 N 87.38 2.09401 -5.41416 0
M  V30 922 H 90.145 -1.03598 -2.81225 0
M  V30 923 H 87.706 -0.69392 -1.46275 0
M  V30 924 H 89.698 1.27707 -3.84022 0
M  V30 925 H 88.268 1.41585 -2.78698 0
M  V30 926 H 87.488 -0.82928 -3.85378 0
M  V30 927 H 88.776 -0.608863 -5.05144 0
M  V30 928 H 88.174 2.57229 -5.03835 0
M  V30 929 H 86.731 2.61633 -5.96985 0
M  V30 930 N 90.1641 1.46063 -0.591896 0
M  V30 931 C 91.3891 2.07226 -0.0850314 0
M  V30 932 C 91.8141 1.43625 1.21463 0
M  V30 933 O 91.1721 0.523305 1.73583 0
M  V30 934 C 91.2201 3.60554 0.0576567 0
M  V30 935 O 90.3241 3.97128 1.11188 0
M  V30 936 H 89.6651 0.660615 -0.0669568 0
M  V30 937 H 92.1951 1.8756 -0.81745 0
M  V30 938 H 92.2051 4.07165 0.2609 0
M  V30 939 H 90.8801 4.06235 -0.891416 0
M  V30 940 H 89.4571 3.62213 0.886356 0
M  V30 941 N 91.6422 0.330177 1.54103 0
M  V30 942 C 92.8822 -0.270916 2.02597 0
M  V30 943 C 93.2462 -1.48826 1.21304 0
M  V30 944 O 94.4472 -2.16266 1.59633 0
M  V30 945 C 92.7182 -0.590328 3.52491 0
M  V30 946 S 94.2772 -1.17014 4.2291 0
M  V30 947 H 91.0952 -0.0815379 0.706309 0
M  V30 948 H 93.6972 0.464835 1.89893 0
M  V30 949 H 92.4012 0.303691 4.09275 0
M  V30 950 H 91.9322 -1.3561 3.69288 0
M  V30 951 H 93.9472 -2.45662 4.3112 0
M  V30 952 N 93.1203 -1.57491 0.0584922 0
M  V30 953 C 94.0533 -2.07533 -0.948969 0
M  V30 954 C 95.0313 -0.977444 -1.29942 0
M  V30 955 O 96.2153 -1.2499 -1.41102 0
M  V30 956 C 93.3423 -2.52192 -2.2609 0
M  V30 957 C 92.3883 -3.73287 -2.06298 0
M  V30 958 S 93.2213 -5.18603 -1.33459 0
M  V30 959 C 94.3773 -5.66583 -2.65959 0
M  V30 960 H 94.6103 -2.92662 -0.523118 0
M  V30 961 H 92.1433 -1.53631 -0.153954 0
M  V30 962 H 94.1013 -2.78585 -3.01498 0
M  V30 963 H 92.7623 -1.67356 -2.65802 0
M  V30 964 H 91.9553 -4.0248 -3.03357 0
M  V30 965 H 91.5573 -3.47199 -1.39029 0
M  V30 966 H 93.8493 -5.72616 -3.62101 0
M  V30 967 H 94.7923 -6.65684 -2.41393 0
M  V30 968 H 95.2003 -4.94342 -2.72554 0
M  V30 969 N 94.5984 0.214957 -1.56127 0
M  V30 970 C 95.5454 1.26642 -1.92952 0
M  V30 971 C 96.5154 1.46244 -0.78753 0
M  V30 972 O 97.7004 1.59704 -1.04399 0
M  V30 973 C 94.8404 2.6104 -2.25726 0
M  V30 974 C 93.9534 2.49183 -3.52891 0
M  V30 975 C 93.0884 3.76149 -3.7508 0
M  V30 976 C 92.1274 3.59041 -4.95738 0
M  V30 977 N 91.2644 4.77972 -5.14283 0
M  V30 978 H 96.1044 0.945384 -2.82607 0
M  V30 979 H 93.6414 0.455489 -1.3987 0
M  V30 980 H 95.5994 3.39313 -2.42739 0
M  V30 981 H 94.2294 2.91227 -1.39236 0
M  V30 982 H 93.2814 1.6231 -3.44034 0
M  V30 983 H 94.5934 2.32466 -4.41318 0
M  V30 984 H 93.7474 4.62865 -3.92226 0
M  V30 985 H 92.4864 3.95799 -2.84947 0
M  V30 986 H 91.4914 2.7071 -4.78535 0
M  V30 987 H 92.7164 3.40856 -5.87362 0
M  V30 988 H 90.6624 4.97923 -4.27093 0
M  V30 989 H 90.5794 4.64006 -5.96853 0
M  V30 990 H 91.8474 5.66096 -5.35869 0
M  V30 991 N 96.0765 1.50051 0.48192 0
M  V30 992 C 97.4925 1.37237 0.814756 0
M  V30 993 C 97.6925 0.420109 1.97072 0
M  V30 994 O 96.7485 -0.141246 2.52105 0
M  V30 995 C 98.0615 2.78375 1.13701 0
M  V30 996 C 99.6095 2.87213 1.2441 0
M  V30 997 C 100.084 4.29161 1.59954 0
M  V30 998 N 101.575 4.32061 1.66967 0
M  V30 999 C 102.31 5.38879 1.95952 0
M  V30 1000 N 101.806 6.55918 2.23031 0
M  V30 1001 N 103.599 5.26312 1.97363 0
M  V30 1002 H 95.7505 2.10546 -0.28005 0
M  V30 1003 H 98.0135 0.945921 -0.0627454 0
M  V30 1004 H 97.7195 3.49845 0.360787 0
M  V30 1005 H 97.5935 3.14941 2.07586 0
M  V30 1006 H 99.9805 2.15969 2.01101 0
M  V30 1007 H 100.061 2.54204 0.285299 0
M  V30 1008 H 99.7055 5.00938 0.838067 0
M  V30 1009 H 99.6355 4.59648 2.56966 0
M  V30 1010 H 102.126 3.47661 1.48123 0
M  V30 1011 H 102.439 7.33139 2.44391 0
M  V30 1012 H 100.784 6.59112 2.20447 0
M  V30 1013 H 103.975 4.33876 1.75697 0
M  V30 1014 H 104.148 6.09649 2.19618 0
M  V30 1015 N 97.5546 -0.734337 1.39446 0
M  V30 1016 C 98.5046 -1.83949 1.34709 0
M  V30 1017 C 99.4886 -1.59279 0.227851 0
M  V30 1018 O 100.681 -1.70771 0.465438 0
M  V30 1019 C 97.8096 -3.21884 1.19356 0
M  V30 1020 C 96.8956 -3.52381 2.35984 0
M  V30 1021 N 97.2866 -3.53811 3.61457 0
M  V30 1022 C 95.5846 -3.82747 2.28956 0
M  V30 1023 C 96.2856 -3.82122 4.38586 0
M  V30 1024 N 95.2616 -3.9993 3.68181 0
M  V30 1025 H 99.0636 -1.83361 2.29687 0
M  V30 1026 H 96.5776 -0.932609 1.32952 0
M  V30 1027 H 98.5746 -4.00998 1.14046 0
M  V30 1028 H 97.2346 -3.23711 0.253295 0
M  V30 1029 H 98.2456 -3.35107 3.94872 0
M  V30 1030 H 94.9226 -3.92175 1.43194 0
M  V30 1031 H 96.3126 -3.89691 5.47349 0
M  V30 1032 N 99.0327 -1.24633 -0.964593 0
M  V30 1033 C 100.281 -1.08573 -1.70459 0
M  V30 1034 C 100.602 0.375655 -1.91347 0
M  V30 1035 O 99.8717 1.26779 -1.49345 0
M  V30 1036 H 98.4517 -0.398784 -0.631649 0
M  V30 1037 H 101.114 -1.56601 -1.16026 0
M  V30 1038 H 100.21 -1.58623 -2.68785 0
M  V30 1039 N 100.511 1.16574 -1.06058 0
M  V30 1040 C 101.76 1.86385 -0.770944 0
M  V30 1041 C 102.073 1.82448 0.705129 0
M  V30 1042 O 103.279 2.47815 1.10905 0
M  V30 1043 C 101.735 3.34466 -1.32893 0
M  V30 1044 C 101.343 3.46883 -2.83507 0
M  V30 1045 C 103.087 4.09548 -1.11672 0
M  V30 1046 C 100.994 4.89036 -3.32562 0
M  V30 1047 H 99.9238 0.698181 -0.284709 0
M  V30 1048 H 102.575 1.31583 -1.27899 0
M  V30 1049 H 100.957 3.88859 -0.748662 0
M  V30 1050 H 102.131 3.02663 -3.47465 0
M  V30 1051 H 100.446 2.85232 -3.03368 0
M  V30 1052 H 103.043 5.14434 -1.45814 0
M  V30 1053 H 103.386 4.16264 -0.0549535 0
M  V30 1054 H 103.919 3.61387 -1.66265 0
M  V30 1055 H 100.658 4.87499 -4.38207 0
M  V30 1056 H 100.178 5.3389 -2.73351 0
M  V30 1057 H 101.857 5.57843 -3.2775 0
M  V30 1058 N 101.989 0.842826 1.3317 0
M  V30 1059 C 103.4 0.496651 1.79973 0
M  V30 1060 C 103.751 -0.984641 1.69703 0
M  V30 1061 O 102.876 -1.76743 1.24863 0
M  V30 1062 C 103.471 0.894727 3.26772 0
M  V30 1063 C 102.03 0.600629 3.71577 0
M  V30 1064 C 101.177 1.10091 2.5451 0
M  V30 1065 H 104.128 1.03116 1.20635 0
M  V30 1066 H 104.149 0.206347 3.7994 0
M  V30 1067 H 103.661 1.97287 3.34215 0
M  V30 1068 H 101.762 -0.467284 3.69658 0
M  V30 1069 H 101.875 1.15863 4.64879 0
M  V30 1070 H 100.239 0.52162 2.49301 0
M  V30 1071 H 101.022 2.18591 2.64713 0
M  V30 1072 N 103.467 -1.45747 0.599634 0
M  V30 1073 C 104.4 -2.27547 -0.172552 0
M  V30 1074 C 105.378 -1.36657 -0.881116 0
M  V30 1075 O 106.562 -1.66081 -0.891595 0
M  V30 1076 C 103.689 -3.14829 -1.24903 0
M  V30 1077 C 102.735 -4.21603 -0.644465 0
M  V30 1078 S 103.568 -5.32754 0.541606 0
M  V30 1079 C 104.724 -6.23604 -0.535656 0
M  V30 1080 H 104.957 -2.92691 0.521468 0
M  V30 1081 H 102.49 -1.49473 0.386947 0
M  V30 1082 H 104.448 -3.65675 -1.86527 0
M  V30 1083 H 103.109 -2.48965 -1.91508 0
M  V30 1084 H 102.302 -4.82566 -1.45417 0
M  V30 1085 H 101.904 -3.73857 -0.103534 0
M  V30 1086 H 104.196 -6.62519 -1.41686 0
M  V30 1087 H 105.139 -7.0809 0.0376246 0
M  V30 1088 H 105.547 -5.58103 -0.84741 0
M  V30 1089 N 104.945 -0.338344 -1.53925 0
M  V30 1090 C 106.17 0.263987 -2.05713 0
M  V30 1091 C 106.595 1.43847 -1.21201 0
M  V30 1092 O 105.953 1.79904 -0.224535 0
M  V30 1093 C 106.001 0.662 -3.54471 0
M  V30 1094 O 105.105 1.76265 -3.72833 0
M  V30 1095 H 104.446 0.0448722 -0.662482 0
M  V30 1096 H 106.976 -0.491048 -1.9862 0
M  V30 1097 H 106.986 0.940594 -3.9701 0
M  V30 1098 H 105.661 -0.196937 -4.15433 0
M  V30 1099 H 104.238 1.48173 -3.42198 0
M  V30 1100 N 106.423 1.57458 -0.0668435 0
M  V30 1101 C 107.373 2.0896 0.912119 0
M  V30 1102 C 108.357 0.998186 1.26195 0
M  V30 1103 O 109.549 1.26133 1.24175 0
M  V30 1104 C 106.678 2.6508 2.18145 0
M  V30 1105 C 105.764 3.81218 1.85832 0
M  V30 1106 N 106.155 4.90378 1.23948 0
M  V30 1107 C 104.453 3.9042 2.15612 0
M  V30 1108 C 105.154 5.71279 1.09616 0
M  V30 1109 N 104.13 5.19389 1.60423 0
M  V30 1110 H 107.932 2.90749 0.42924 0
M  V30 1111 H 105.446 1.6182 0.137184 0
M  V30 1112 H 107.443 3.0029 2.89192 0
M  V30 1113 H 106.103 1.84736 2.67025 0
M  V30 1114 H 107.114 5.09847 0.909731 0
M  V30 1115 H 103.791 3.21043 2.66903 0
M  V30 1116 H 105.181 6.69085 0.614425 0
M  V30 1117 N 107.901 -0.206675 1.56239 0
M  V30 1118 C 109.147 -0.930218 1.80208 0
M  V30 1119 C 109.48 -1.83387 0.638981 0
M  V30 1120 O 108.755 -1.91119 -0.361066 0
M  V30 1121 C 109.038 -1.75641 3.1436 0
M  V30 1122 C 108.891 -0.878257 4.41142 0
M  V30 1123 C 110.21 -2.73129 3.45092 0
M  V30 1124 H 107.329 -0.336742 0.655571 0
M  V30 1125 H 109.971 -0.198222 1.88963 0
M  V30 1126 H 108.121 -2.38048 3.07027 0
M  V30 1127 H 109.793 -0.269787 4.6051 0
M  V30 1128 H 108.036 -0.184385 4.33408 0
M  V30 1129 H 108.707 -1.49106 5.3148 0
M  V30 1130 H 111.183 -2.20856 3.52649 0
M  V30 1131 H 110.059 -3.28028 4.40101 0
M  V30 1132 H 110.32 -3.51606 2.68003 0
M  V30 1133 N 109.379 -1.50304 -0.473955 0
M  V30 1134 C 110.342 -1.6841 -1.55469 0
M  V30 1135 C 111.342 -0.554905 -1.50922 0
M  V30 1136 O 112.532 -0.821882 -1.53593 0
M  V30 1137 C 109.664 -1.70667 -2.95102 0
M  V30 1138 H 110.857 -2.64828 -1.40733 0
M  V30 1139 H 108.41 -1.39742 -0.700132 0
M  V30 1140 H 109.145 -0.75932 -3.15285 0
M  V30 1141 H 108.93 -2.52698 -2.9981 0
M  V30 1142 H 110.42 -1.8664 -3.73571 0
M  V30 1143 N 110.857 0.726932 -1.39834 0
M  V30 1144 C 112.273 1.03354 -1.21615 0
M  V30 1145 C 112.473 2.01327 -0.08338 0
M  V30 1146 O 111.529 2.46158 0.56238 0
M  V30 1147 C 112.842 1.58811 -2.55342 0
M  V30 1148 C 114.39 1.70851 -2.62257 0
M  V30 1149 C 114.865 2.29716 -3.96225 0
M  V30 1150 N 116.356 2.37116 -3.97907 0
M  V30 1151 C 117.091 2.83619 -4.98345 0
M  V30 1152 N 116.587 3.29958 -6.09179 0
M  V30 1153 N 118.38 2.82901 -4.8572 0
M  V30 1154 H 110.531 0.0773069 -2.12259 0
M  V30 1155 H 112.794 0.0969102 -0.943034 0
M  V30 1156 H 112.5 0.942855 -3.38826 0
M  V30 1157 H 112.374 2.57502 -2.75632 0
M  V30 1158 H 114.761 2.34497 -1.79152 0
M  V30 1159 H 114.842 0.707913 -2.45809 0
M  V30 1160 H 114.486 1.66696 -4.79765 0
M  V30 1161 H 114.416 3.30469 -4.09997 0
M  V30 1162 H 116.907 2.04374 -3.17868 0
M  V30 1163 H 117.22 3.63976 -6.8172 0
M  V30 1164 H 115.565 3.27946 -6.12761 0
M  V30 1165 H 118.756 2.46027 -3.98231 0
M  V30 1166 H 118.929 3.18827 -5.6414 0
M  V30 1167 N 112.336 1.25143 0.95797 0
M  V30 1168 C 113.268 1.01023 2.05735 0
M  V30 1169 C 114.281 -0.0236902 1.62783 0
M  V30 1170 O 115.47 0.21448 1.77207 0
M  V30 1171 C 112.57 0.504595 3.35122 0
M  V30 1172 C 111.743 1.6039 4.06932 0
M  V30 1173 C 110.802 1.09922 5.14591 0
M  V30 1174 O 109.828 1.79293 5.40225 0
M  V30 1175 N 111.03 -0.0612545 5.80468 0
M  V30 1176 H 113.795 1.95683 2.26998 0
M  V30 1177 H 111.356 1.16303 1.12629 0
M  V30 1178 H 113.348 0.151516 4.04416 0
M  V30 1179 H 111.918 -0.347989 3.10657 0
M  V30 1180 H 111.138 2.12872 3.31782 0
M  V30 1181 H 112.426 2.34252 4.51667 0
M  V30 1182 H 111.824 -0.640985 5.62057 0
M  V30 1183 H 110.381 -0.355395 6.5083 0
M  V30 1184 N 113.814 -1.1601 1.06675 0
M  V30 1185 C 115.063 -1.85973 0.780818 0
M  V30 1186 C 115.376 -1.82819 -0.695444 0
M  V30 1187 O 116.582 -2.484 -1.09589 0
M  V30 1188 C 115.038 -3.33757 1.34665 0
M  V30 1189 C 114.646 -3.45374 2.85343 0
M  V30 1190 C 116.39 -4.0895 1.13843 0
M  V30 1191 C 114.297 -4.87266 3.35151 0
M  V30 1192 H 113.227 -0.696661 0.288407 0
M  V30 1193 H 115.878 -1.30903 1.28595 0
M  V30 1194 H 114.26 -3.88456 0.769274 0
M  V30 1195 H 115.434 -3.00816 3.49065 0
M  V30 1196 H 113.749 -2.83619 3.04876 0
M  V30 1197 H 116.346 -5.13654 1.4854 0
M  V30 1198 H 116.689 -4.16229 0.0770282 0
M  V30 1199 H 117.222 -3.605 1.68179 0
M  V30 1200 H 113.961 -4.85168 4.40786 0
M  V30 1201 H 113.481 -5.32433 2.76179 0
M  V30 1202 H 115.16 -5.56097 3.30704 0
M  V30 1203 N 115.292 -0.849877 -1.32721 0
M  V30 1204 C 116.52 -0.464754 -2.01613 0
M  V30 1205 C 116.935 0.937191 -1.63897 0
M  V30 1206 O 116.292 1.61081 -0.857856 0
M  V30 1207 C 116.343 -0.588638 -3.56675 0
M  V30 1208 O 116.064 -1.93535 -3.93034 0
M  V30 1209 C 117.565 -0.2019 -4.4284 0
M  V30 1210 H 114.785 -0.183215 -0.645502 0
M  V30 1211 H 117.329 -1.1455 -1.69407 0
M  V30 1212 H 115.484 0.0443159 -3.87375 0
M  V30 1213 H 115.898 -1.92871 -4.87751 0
M  V30 1214 H 117.372 -0.339599 -5.50954 0
M  V30 1215 H 117.849 0.857224 -4.30753 0
M  V30 1216 H 118.455 -0.809733 -4.17521 0
M  V30 1217 N 116.77 1.45427 -0.607355 0
M  V30 1218 C 117.717 2.3053 0.111625 0
M  V30 1219 C 118.687 1.4209 0.860216 0
M  V30 1220 O 119.872 1.71019 0.845998 0
M  V30 1221 C 117.012 3.26992 1.10319 0
M  V30 1222 C 116.125 4.30535 0.355493 0
M  V30 1223 C 115.26 5.14105 1.33676 0
M  V30 1224 C 114.299 6.09376 0.576862 0
M  V30 1225 N 113.436 6.85727 1.5074 0
M  V30 1226 H 118.276 2.91477 -0.620093 0
M  V30 1227 H 115.813 1.43631 -0.317594 0
M  V30 1228 H 117.771 3.81385 1.6912 0
M  V30 1229 H 116.401 2.67799 1.80232 0
M  V30 1230 H 115.453 3.78805 -0.348023 0
M  V30 1231 H 116.765 4.98235 -0.237423 0
M  V30 1232 H 115.919 5.72897 1.99684 0
M  V30 1233 H 114.658 4.46423 1.9636 0
M  V30 1234 H 113.663 5.49715 -0.0968519 0
M  V30 1235 H 114.888 6.79085 -0.0449341 0
M  V30 1236 H 112.834 6.20735 2.12189 0
M  V30 1237 H 112.751 7.49778 0.967913 0
M  V30 1238 H 114.019 7.4906 2.15706 0
M  V30 1239 N 118.248 0.346503 1.53744 0
M  V30 1240 C 119.158 -0.517293 2.28826 0
M  V30 1241 C 120.174 -1.10935 1.3405 0
M  V30 1242 O 121.35 -1.1244 1.6709 0
M  V30 1243 C 118.415 -1.65098 3.04866 0
M  V30 1244 C 117.476 -1.0884 4.15274 0
M  V30 1245 C 116.709 -2.16806 4.87679 0
M  V30 1246 O 116.932 -3.3758 4.59778 0
M  V30 1247 O 115.866 -1.80934 5.74061 0
M  V30 1248 H 119.692 0.0931396 3.03557 0
M  V30 1249 H 117.277 0.111458 1.48984 0
M  V30 1250 H 119.159 -2.31053 3.5241 0
M  V30 1251 H 117.834 -2.24717 2.32989 0
M  V30 1252 H 116.741 -0.3933 3.72027 0
M  V30 1253 H 118.074 -0.537036 4.89261 0
M  V30 1254 N 119.726 -1.57421 0.075193 0
M  V30 1255 C 121.003 -1.85029 -0.634329 0
M  V30 1256 C 121.383 -0.968305 -1.87582 0
M  V30 1257 O 120.731 -0.0354749 -2.28472 0
M  V30 1258 C 120.941 -3.35286 -0.968742 0
M  V30 1259 C 122.289 -4.02875 -1.34077 0
M  V30 1260 O 123.313 -3.40051 -1.06037 0
M  V30 1261 O 122.172 -5.13691 -1.86506 0
M  V30 1262 H 119.266 -0.7645 -0.315387 0
M  V30 1263 H 121.812 -1.69366 0.106382 0
M  V30 1264 H 120.584 -3.91203 -0.0871376 0
M  V30 1265 H 120.207 -3.56223 -1.7661 0
M  V30 1266 N 121.204 0.198386 -1.56346 0
M  V30 1267 C 122.451 0.919286 -1.80431 0
M  V30 1268 C 122.779 1.83393 -0.647866 0
M  V30 1269 O 122.034 1.92236 0.366556 0
M  V30 1270 C 122.333 1.77031 -3.10475 0
M  V30 1271 C 121.999 1.00693 -4.39513 0
M  V30 1272 C 120.661 0.796145 -4.74568 0
M  V30 1273 C 123.013 0.469559 -5.19081 0
M  V30 1274 C 120.341 0.0364588 -5.86689 0
M  V30 1275 C 122.693 -0.2769 -6.31994 0
M  V30 1276 C 121.357 -0.49873 -6.65634 0
M  V30 1277 H 120.627 0.336391 -0.660244 0
M  V30 1278 H 123.274 0.185872 -1.90596 0
M  V30 1279 H 121.579 2.5723 -2.95533 0
M  V30 1280 H 123.276 2.33065 -3.26315 0
M  V30 1281 H 119.866 1.18122 -4.12001 0
M  V30 1282 H 124.05 0.619816 -4.92414 0
M  V30 1283 H 119.306 -0.145412 -6.11227 0
M  V30 1284 H 123.48 -0.700684 -6.92866 0
M  V30 1285 H 121.107 -1.0893 -7.52355 0
M  V30 1286 N 122.682 1.50554 0.465978 0
M  V30 1287 C 123.645 1.69233 1.54574 0
M  V30 1288 C 124.645 0.562901 1.50626 0
M  V30 1289 O 125.835 0.830016 1.53155 0
M  V30 1290 C 122.967 1.7223 2.94193 0
M  V30 1291 H 124.16 2.65571 1.39327 0
M  V30 1292 H 121.713 1.40111 0.692711 0
M  V30 1293 H 122.448 0.77603 3.14878 0
M  V30 1294 H 122.233 2.54285 2.98466 0
M  V30 1295 H 123.723 1.88618 3.72576 0
M  V30 1296 N 124.16 -0.719506 1.40217 0
M  V30 1297 C 125.388 -1.50864 1.41589 0
M  V30 1298 C 125.803 -1.88794 0.0145275 0
M  V30 1299 O 125.16 -1.55174 -0.960594 0
M  V30 1300 C 125.211 -2.78646 2.30302 0
M  V30 1301 O 124.932 -2.42321 3.64983 0
M  V30 1302 C 126.433 -3.72569 2.40224 0
M  V30 1303 H 123.653 -0.465709 0.48307 0
M  V30 1304 H 126.197 -0.88785 1.84221 0
M  V30 1305 H 124.352 -3.37019 1.91042 0
M  V30 1306 H 124.766 -3.24514 4.12057 0
M  V30 1307 H 126.24 -4.5908 3.06512 0
M  V30 1308 H 126.717 -4.15403 1.42608 0
M  V30 1309 H 127.323 -3.20109 2.80019 0
M  V30 1310 N 125.638 -1.25649 -0.95132 0
M  V30 1311 C 126.885 -1.10594 -1.69633 0
M  V30 1312 C 127.213 0.352515 -1.91279 0
M  V30 1313 O 126.468 1.27601 -1.4838 0
M  V30 1314 C 126.767 -1.80909 -3.08231 0
M  V30 1315 C 126.433 -3.30825 -3.06375 0
M  V30 1316 C 125.095 -3.71722 -3.05576 0
M  V30 1317 C 127.447 -4.26589 -2.99452 0
M  V30 1318 C 124.775 -5.06788 -2.95606 0
M  V30 1319 C 127.127 -5.61683 -2.91024 0
M  V30 1320 C 125.791 -6.01904 -2.88562 0
M  V30 1321 H 125.061 -0.404691 -0.620731 0
M  V30 1322 H 127.708 -1.55964 -1.11119 0
M  V30 1323 H 126.013 -1.27979 -3.70309 0
M  V30 1324 H 127.71 -1.6671 -3.64704 0
M  V30 1325 H 124.3 -2.98287 -3.07771 0
M  V30 1326 H 128.484 -3.95982 -2.99185 0
M  V30 1327 H 123.74 -5.37126 -2.92071 0
M  V30 1328 H 127.914 -6.35578 -2.84629 0
M  V30 1329 H 125.541 -7.06521 -2.80593 0
M  V30 1330 N 127.117 1.15442 -1.07289 0
M  V30 1331 C 128.394 1.82306 -0.708792 0
M  V30 1332 C 128.774 1.94991 0.808807 0
M  V30 1333 O 128.122 1.50085 1.72298 0
M  V30 1334 C 128.332 3.18695 -1.42247 0
M  V30 1335 C 129.68 3.94341 -1.57417 0
M  V30 1336 O 130.704 3.28247 -1.38319 0
M  V30 1337 O 129.563 5.12839 -1.88834 0
M  V30 1338 H 126.657 0.787628 -0.252132 0
M  V30 1339 H 129.203 1.22559 -1.17377 0
M  V30 1340 H 127.975 3.04557 -2.45684 0
M  V30 1341 H 127.598 3.86128 -0.948223 0
M  V30 1342 N 128.595 0.856903 1.32268 0
M  V30 1343 C 129.825 0.47475 2.01071 0
M  V30 1344 C 130.233 -0.933746 1.64553 0
M  V30 1345 O 129.576 -1.62114 0.863989 0
M  V30 1346 C 129.638 0.536746 3.55471 0
M  V30 1347 C 129.302 1.90453 4.15423 0
M  V30 1348 C 130.299 2.87029 4.33486 0
M  V30 1349 C 127.984 2.20229 4.51447 0
M  V30 1350 C 129.978 4.11532 4.86744 0
M  V30 1351 C 127.665 3.44984 5.0441 0
M  V30 1352 C 128.663 4.40452 5.22007 0
M  V30 1353 O 128.351 5.62998 5.73837 0
M  V30 1354 H 128.083 0.184778 0.650256 0
M  V30 1355 H 130.637 1.15615 1.69771 0
M  V30 1356 H 128.867 -0.20152 3.86175 0
M  V30 1357 H 130.556 0.169875 4.05544 0
M  V30 1358 H 131.322 2.6533 4.05986 0
M  V30 1359 H 127.201 1.46705 4.37034 0
M  V30 1360 H 130.745 4.86056 5.00395 0
M  V30 1361 H 126.642 3.66532 5.31342 0
M  V30 1362 H 127.41 5.64987 5.92226 0
M  V30 1363 N 130.073 -1.45103 0.615059 0
M  V30 1364 C 131.322 -2.01396 0.110718 0
M  V30 1365 C 131.635 -1.48834 -1.26916 0
M  V30 1366 O 132.841 -1.97152 -1.86664 0
M  V30 1367 C 131.297 -3.59599 0.14723 0
M  V30 1368 C 130.905 -4.21158 1.52743 0
M  V30 1369 C 132.649 -4.23428 -0.30148 0
M  V30 1370 C 130.556 -5.71535 1.51992 0
M  V30 1371 H 129.486 -0.753061 0.0376241 0
M  V30 1372 H 132.137 -1.66494 0.77149 0
M  V30 1373 H 130.519 -3.91724 -0.580339 0
M  V30 1374 H 131.693 -4.00594 2.2773 0
M  V30 1375 H 130.008 -3.69552 1.91886 0
M  V30 1376 H 132.605 -5.33703 -0.326392 0
M  V30 1377 H 132.948 -3.94629 -1.32565 0
M  V30 1378 H 133.481 -3.96047 0.373065 0
M  V30 1379 H 130.22 -6.05044 2.52193 0
M  V30 1380 H 129.74 -5.94268 0.81274 0
M  V30 1381 H 131.419 -6.34873 1.24681 0
M  V30 1382 N 131.551 -0.354651 -1.53558 0
M  V30 1383 C 132.481 0.489091 -2.2832 0
M  V30 1384 C 133.462 1.09324 -1.30316 0
M  V30 1385 O 134.647 1.11255 -1.59173 0
M  V30 1386 C 131.777 1.63456 -3.0643 0
M  V30 1387 C 130.731 1.1582 -4.12031 0
M  V30 1388 C 130.057 2.39305 -4.7816 0
M  V30 1389 C 131.357 0.250731 -5.21698 0
M  V30 1390 H 133.051 -0.134614 -2.99097 0
M  V30 1391 H 130.597 -0.0661826 -1.43848 0
M  V30 1392 H 132.55 2.23136 -3.57475 0
M  V30 1393 H 131.274 2.28533 -2.33325 0
M  V30 1394 H 129.933 0.584146 -3.61916 0
M  V30 1395 H 129.581 3.02814 -4.01637 0
M  V30 1396 H 129.281 2.08109 -5.49513 0
M  V30 1397 H 130.805 2.99691 -5.31994 0
M  V30 1398 H 132.219 0.754695 -5.68311 0
M  V30 1399 H 130.616 0.0301468 -6.00092 0
M  V30 1400 H 131.686 -0.710125 -4.79672 0
M  V30 1401 N 133.029 1.57378 -0.0835403 0
M  V30 1402 C 134.269 1.95808 0.586381 0
M  V30 1403 C 134.633 0.963706 1.66062 0
M  V30 1404 O 135.834 1.23608 2.38693 0
M  V30 1405 C 134.105 3.38808 1.13771 0
M  V30 1406 S 135.664 3.99225 1.82112 0
M  V30 1407 H 132.482 0.684675 0.191679 0
M  V30 1408 H 135.084 1.94843 -0.160194 0
M  V30 1409 H 133.788 4.08954 0.344197 0
M  V30 1410 H 133.319 3.43344 1.92038 0
M  V30 1411 H 135.334 3.87087 3.10449 0
M  V30 1412 N 134.507 -0.190092 1.56449 0
M  V30 1413 C 135.44 -1.26375 1.90012 0
M  V30 1414 C 136.418 -1.43705 0.760765 0
M  V30 1415 O 137.602 -1.59014 1.01226 0
M  V30 1416 C 134.729 -2.62962 2.13468 0
M  V30 1417 C 133.775 -2.62474 3.36169 0
M  V30 1418 S 134.608 -2.13412 4.91137 0
M  V30 1419 C 135.764 -3.51812 5.17667 0
M  V30 1420 H 135.997 -0.977181 2.80782 0
M  V30 1421 H 133.53 -0.393814 1.49293 0
M  V30 1422 H 135.488 -3.41583 2.27664 0
M  V30 1423 H 134.149 -2.88828 1.23439 0
M  V30 1424 H 133.342 -3.62918 3.49723 0
M  V30 1425 H 132.944 -1.91937 3.20992 0
M  V30 1426 H 135.236 -4.47706 5.08494 0
M  V30 1427 H 136.179 -3.43148 6.19399 0
M  V30 1428 H 136.587 -3.46956 4.45288 0
M  V30 1429 N 135.985 -1.50799 -0.457987 0
M  V30 1430 C 137.262 -1.52968 -1.21902 0
M  V30 1431 C 137.642 -0.281906 -2.09209 0
M  V30 1432 O 136.99 0.734076 -2.16388 0
M  V30 1433 C 137.2 -2.8326 -2.03875 0
M  V30 1434 C 138.548 -3.34425 -2.6162 0
M  V30 1435 O 139.572 -2.8467 -2.14106 0
M  V30 1436 O 138.431 -4.21188 -3.48228 0
M  V30 1437 H 135.525 -0.614129 -0.553873 0
M  V30 1438 H 138.071 -1.63098 -0.468739 0
M  V30 1439 H 136.843 -3.65543 -1.39621 0
M  V30 1440 H 136.466 -2.76195 -2.8601 0
M  V30 1441 N 137.463 0.71206 -1.40597 0
M  V30 1442 C 138.373 1.8562 -1.43466 0
M  V30 1443 C 139.389 1.70902 -0.326902 0
M  V30 1444 O 140.565 1.93105 -0.572043 0
M  V30 1445 C 137.63 3.21451 -1.29884 0
M  V30 1446 C 136.691 3.48398 -2.50833 0
M  V30 1447 C 135.924 4.77749 -2.3789 0
M  V30 1448 O 136.147 5.53089 -1.39459 0
M  V30 1449 O 135.081 5.05111 -3.27333 0
M  V30 1450 H 138.907 1.86155 -2.39958 0
M  V30 1451 H 136.492 0.86295 -1.21957 0
M  V30 1452 H 138.374 4.02579 -1.24531 0
M  V30 1453 H 137.049 3.21636 -0.364997 0
M  V30 1454 H 135.956 2.67265 -2.61763 0
M  V30 1455 H 137.289 3.53014 -3.4299 0
M  V30 1456 N 138.941 1.26152 0.944643 0
M  V30 1457 C 140.166 1.14363 1.7302 0
M  V30 1458 C 140.591 -0.29772 1.85729 0
M  V30 1459 O 139.949 -1.2157 1.34501 0
M  V30 1460 C 139.997 1.81378 3.11664 0
M  V30 1461 O 139.101 1.10022 3.97453 0
M  V30 1462 H 138.442 0.398694 0.53098 0
M  V30 1463 H 140.972 1.66906 1.18337 0
M  V30 1464 H 140.982 1.88064 3.62072 0
M  V30 1465 H 139.657 2.86237 3.0173 0
M  V30 1466 H 138.234 1.11287 3.55907 0
M  V30 1467 N 140.419 -1.14872 1.07899 0
M  V30 1468 C 141.367 -2.21857 0.698727 0
M  V30 1469 C 142.361 -1.66845 -0.293086 0
M  V30 1470 O 143.567 -1.79321 -0.156204 0
M  V30 1471 H 139.942 -0.722691 0.207899 0
M  V30 1472 H 141.913 -2.51205 1.61054 0
M  V30 1473 C 140.662 -3.47498 0.11858 0
M  V30 1474 H 139.985 -3.90154 0.872914 0
M  V30 1475 H 141.425 -4.23858 -0.109759 0
M  V30 1476 C 139.884 -3.16947 -1.1422 0
M  V30 1477 O 140.414 -3.3426 -2.22785 0
M  V30 1478 N 138.62 -2.70946 -1.05055 0
M  V30 1479 H 138.167 -2.57058 -0.167038 0
M  V30 1480 H 138.125 -2.50879 -1.89491 0
M  V30 1481 N 141.898 -0.863906 -1.31812 0
M  V30 1482 C 142.828 -0.330843 -2.31144 0
M  V30 1483 C 143.809 0.575005 -1.60087 0
M  V30 1484 O 144.994 0.493304 -1.8783 0
M  V30 1485 C 142.124 0.47374 -3.44054 0
M  V30 1486 C 141.078 -0.338481 -4.26659 0
M  V30 1487 C 140.404 0.591412 -5.31419 0
M  V30 1488 C 141.704 -1.56926 -4.98168 0
M  V30 1489 H 143.398 -1.16086 -2.75979 0
M  V30 1490 H 140.944 -0.559657 -1.32679 0
M  V30 1491 H 142.897 0.857143 -4.12591 0
M  V30 1492 H 141.621 1.33721 -2.9797 0
M  V30 1493 H 140.28 -0.703754 -3.59782 0
M  V30 1494 H 139.928 1.45199 -4.81587 0
M  V30 1495 H 139.628 0.0519022 -5.87577 0
M  V30 1496 H 141.152 0.97179 -6.02817 0
M  V30 1497 H 142.566 -1.25764 -5.59336 0
M  V30 1498 H 140.963 -2.04739 -5.64094 0
M  V30 1499 H 142.033 -2.32544 -4.25501 0
M  V30 1500 N 143.376 1.44774 -0.622745 0
M  V30 1501 C 144.792 1.56986 -0.287652 0
M  V30 1502 C 144.992 1.61167 1.20944 0
M  V30 1503 O 144.048 1.55015 1.99315 0
M  V30 1504 C 145.361 2.84551 -0.972188 0
M  V30 1505 C 146.909 2.9825 -0.949536 0
M  V30 1506 C 147.384 4.28605 -1.61437 0
M  V30 1507 N 148.875 4.35399 -1.58057 0
M  V30 1508 C 149.61 5.34964 -2.064 0
M  V30 1509 N 149.106 6.40981 -2.62897 0
M  V30 1510 N 150.899 5.26419 -1.97078 0
M  V30 1511 H 143.05 1.40304 -1.59463 0
M  V30 1512 H 145.313 0.671794 -0.668878 0
M  V30 1513 H 145.019 2.87417 -2.02693 0
M  V30 1514 H 144.893 3.73807 -0.504771 0
M  V30 1515 H 147.28 2.94941 0.0967067 0
M  V30 1516 H 147.361 2.10364 -1.45536 0
M  V30 1517 H 147.005 4.32672 -2.66002 0
M  V30 1518 H 146.935 5.15334 -1.08344 0
M  V30 1519 H 149.426 3.59397 -1.16801 0
M  V30 1520 H 149.739 7.13225 -2.97539 0
M  V30 1521 H 148.084 6.4169 -2.66943 0
M  V30 1522 H 151.275 4.42504 -1.52669 0
M  V30 1523 H 151.448 6.03861 -2.35066 0
M  V30 1524 N 144.854 0.36279 1.53368 0
M  V30 1525 C 146.131 -0.284021 1.93527 0
M  V30 1526 C 146.511 -1.66628 1.29608 0
M  V30 1527 O 145.859 -2.23942 0.45413 0
M  V30 1528 C 146.069 -0.337028 3.47369 0
M  V30 1529 C 147.417 -0.578708 4.20638 0
M  V30 1530 O 148.441 -0.418352 3.53735 0
M  V30 1531 O 147.3 -0.89074 5.39192 0
M  V30 1532 H 144.394 -0.169743 0.809393 0
M  V30 1533 H 146.94 0.41537 1.64538 0
M  V30 1534 H 145.712 0.632217 3.86159 0
M  V30 1535 H 145.335 -1.08243 3.82582 0
M  V30 1536 N 146.332 -1.57332 0.0918853 0
M  V30 1537 C 147.262 -2.16872 -0.865371 0
M  V30 1538 C 148.243 -1.10118 -1.29646 0
M  V30 1539 O 149.428 -1.38242 -1.36392 0
M  V30 1540 C 146.558 -2.74649 -2.12569 0
M  V30 1541 C 145.512 -3.86747 -1.83333 0
M  V30 1542 C 144.838 -4.31212 -3.16166 0
M  V30 1543 C 146.138 -5.10089 -1.1228 0
M  V30 1544 H 147.832 -2.97114 -0.369307 0
M  V30 1545 H 145.378 -1.42918 -0.176194 0
M  V30 1546 H 147.331 -3.14952 -2.7997 0
M  V30 1547 H 146.055 -1.91657 -2.64452 0
M  V30 1548 H 144.714 -3.46978 -1.18331 0
M  V30 1549 H 144.362 -3.45115 -3.6593 0
M  V30 1550 H 144.062 -5.06788 -2.97388 0
M  V30 1551 H 145.586 -4.74146 -3.84731 0
M  V30 1552 H 147 -5.47582 -1.69785 0
M  V30 1553 H 145.397 -5.91073 -1.03693 0
M  V30 1554 H 146.467 -4.84786 -0.105041 0
M  V30 1555 N 147.81 0.181792 -1.56548 0
M  V30 1556 C 148.758 1.24461 -1.965 0
M  V30 1557 C 149.752 1.464 -0.852261 0
M  V30 1558 O 150.958 1.47103 -1.03733 0
M  V30 1559 H 147.333 0.418138 -0.625031 0
M  V30 1560 H 149.304 0.880714 -2.85107 0
M  V30 1561 C 148.053 2.57891 -2.33212 0
M  V30 1562 H 147.376 2.41829 -3.18369 0
M  V30 1563 H 148.816 3.3097 -2.65019 0
M  V30 1564 C 147.275 3.15871 -1.17163 0
M  V30 1565 O 147.805 3.9913 -0.453708 0
M  V30 1566 N 146.011 2.74808 -0.944936 0
M  V30 1567 H 145.558 2.07205 -1.53049 0
M  V30 1568 H 145.516 3.13939 -0.170286 0
M  V30 1569 N 149.288 1.51039 0.449983 0
M  V30 1570 C 150.704 1.38934 0.785462 0
M  V30 1571 C 150.904 0.461817 1.96136 0
M  V30 1572 O 149.96 -0.0877389 2.52348 0
M  V30 1573 C 151.273 2.80724 1.0777 0
M  V30 1574 C 152.821 2.89787 1.1829 0
M  V30 1575 C 153.296 4.32457 1.50815 0
M  V30 1576 N 154.787 4.35505 1.57764 0
M  V30 1577 C 155.522 5.42914 1.84477 0
M  V30 1578 N 155.018 6.60502 2.09068 0
M  V30 1579 N 156.811 5.3038 1.86155 0
M  V30 1580 H 148.962 2.09904 -0.324647 0
M  V30 1581 H 151.225 0.944378 -0.0827957 0
M  V30 1582 H 150.931 3.50531 0.286498 0
M  V30 1583 H 150.805 3.19273 2.00859 0
M  V30 1584 H 153.192 2.20186 1.96474 0
M  V30 1585 H 153.273 2.54752 0.231314 0
M  V30 1586 H 152.917 5.02603 0.731622 0
M  V30 1587 H 152.847 4.64995 2.47158 0
M  V30 1588 H 155.338 3.50724 1.40715 0
M  V30 1589 H 155.651 7.38158 2.28785 0
M  V30 1590 H 153.996 6.63639 2.06416 0
M  V30 1591 H 157.187 4.37505 1.66454 0
M  V30 1592 H 157.36 6.1417 2.06637 0
M  V30 1593 N 150.766 -0.704594 1.40972 0
M  V30 1594 C 151.713 -1.81862 1.42109 0
M  V30 1595 C 152.683 -1.63781 0.276593 0
M  V30 1596 O 153.868 -1.84759 0.4763 0
M  V30 1597 C 151.008 -3.19669 1.30022 0
M  V30 1598 C 150.121 -3.49246 2.54267 0
M  V30 1599 C 149.256 -4.76618 2.3454 0
M  V30 1600 C 148.295 -4.99133 3.54306 0
M  V30 1601 N 147.432 -6.17726 3.33706 0
M  V30 1602 H 152.272 -1.80226 2.37324 0
M  V30 1603 H 149.809 -0.880238 1.17857 0
M  V30 1604 H 151.767 -3.99263 1.21018 0
M  V30 1605 H 150.397 -3.20506 0.384192 0
M  V30 1606 H 149.449 -2.64125 2.73756 0
M  V30 1607 H 150.761 -3.61788 3.43381 0
M  V30 1608 H 149.915 -5.64249 2.22952 0
M  V30 1609 H 148.654 -4.66305 1.42867 0
M  V30 1610 H 147.659 -4.09953 3.66359 0
M  V30 1611 H 148.884 -5.11311 4.4692 0
M  V30 1612 H 146.83 -6.08642 2.44725 0
M  V30 1613 H 146.747 -6.30995 4.16391 0
M  V30 1614 H 148.015 -7.08115 3.25873 0
M  V30 1615 N 152.244 -1.26651 -0.937939 0
M  V30 1616 C 153.469 -1.15279 -1.72411 0
M  V30 1617 C 153.894 0.287866 -1.85884 0
M  V30 1618 O 153.252 1.20855 -1.35143 0
M  V30 1619 C 153.3 -1.83028 -3.10698 0
M  V30 1620 O 152.404 -1.12128 -3.96864 0
M  V30 1621 H 151.745 -0.401504 -0.528858 0
M  V30 1622 H 154.275 -1.67531 -1.1745 0
M  V30 1623 H 154.285 -1.89981 -3.6107 0
M  V30 1624 H 152.96 -2.87833 -3.00208 0
M  V30 1625 H 151.537 -1.13173 -3.55312 0
M  V30 1626 N 153.722 1.14298 -1.08507 0
M  V30 1627 C 154.67 2.21483 -0.710483 0
M  V30 1628 C 155.664 1.66998 0.284234 0
M  V30 1629 O 156.87 1.79401 0.146692 0
M  V30 1630 H 153.245 0.721578 -0.211729 0
M  V30 1631 H 155.216 2.50348 -1.62384 0
M  V30 1632 C 153.965 3.4743 -0.137007 0
M  V30 1633 H 153.288 3.89686 -0.893592 0
M  V30 1634 H 154.728 4.2391 0.0872789 0
M  V30 1635 C 153.187 3.17548 1.12538 0
M  V30 1636 O 153.717 3.35437 2.21009 0
M  V30 1637 N 151.923 2.71499 1.03617 0
M  V30 1638 H 151.47 2.57143 0.153403 0
M  V30 1639 H 151.428 2.51881 1.88158 0
M  V30 1640 N 155.201 0.870884 1.31352 0
M  V30 1641 C 156.133 0.28455 2.27427 0
M  V30 1642 C 157.146 -0.552927 1.53123 0
M  V30 1643 O 158.335 -0.374771 1.74521 0
M  V30 1644 C 155.435 -0.615164 3.3327 0
M  V30 1645 C 154.608 0.190079 4.36987 0
M  V30 1646 C 153.667 -0.637917 5.22319 0
M  V30 1647 O 152.693 -0.065626 5.69162 0
M  V30 1648 N 153.895 -1.94973 5.46778 0
M  V30 1649 H 156.66 1.11017 2.7838 0
M  V30 1650 H 154.221 0.732458 1.44384 0
M  V30 1651 H 156.213 -1.1748 3.87273 0
M  V30 1652 H 154.783 -1.34146 2.82354 0
M  V30 1653 H 154.003 0.931165 3.83044 0
M  V30 1654 H 155.291 0.742579 5.03352 0
M  V30 1655 H 154.689 -2.4378 5.10478 0
M  V30 1656 H 153.246 -2.45713 6.03712 0
M  V30 1657 N 156.679 -1.44442 0.630414 0
M  V30 1658 C 157.925 -2.02351 0.134816 0
M  V30 1659 C 158.258 -1.4947 -1.23986 0
M  V30 1660 O 157.533 -0.678475 -1.82283 0
M  V30 1661 C 157.816 -3.59898 0.120707 0
M  V30 1662 C 157.669 -4.23063 1.52767 0
M  V30 1663 C 158.988 -4.36585 -0.555127 0
M  V30 1664 H 156.107 -0.73527 0.0504646 0
M  V30 1665 H 158.749 -1.72022 0.806751 0
M  V30 1666 H 156.899 -3.85868 -0.451477 0
M  V30 1667 H 158.571 -4.08202 2.14869 0
M  V30 1668 H 156.814 -3.80586 2.08175 0
M  V30 1669 H 157.485 -5.32071 1.46984 0
M  V30 1670 H 159.961 -4.16044 -0.0685429 0
M  V30 1671 H 158.837 -5.46294 -0.534185 0
M  V30 1672 H 159.098 -4.11138 -1.62535 0
M  V30 1673 N 158.157 -0.370918 -1.53173 0
M  V30 1674 C 159.104 0.473035 -2.259 0
M  V30 1675 C 160.074 1.07311 -1.26781 0
M  V30 1676 O 161.259 1.1046 -1.55574 0
M  V30 1677 C 158.399 1.60405 -3.05556 0
M  V30 1678 C 157.512 1.02863 -4.19575 0
M  V30 1679 C 156.647 2.12918 -4.86661 0
M  V30 1680 C 155.686 1.52869 -5.92704 0
M  V30 1681 N 154.823 2.56779 -6.53459 0
M  V30 1682 H 159.663 -0.153649 -2.97604 0
M  V30 1683 H 157.2 -0.0875946 -1.46839 0
M  V30 1684 H 159.158 2.27034 -3.50016 0
M  V30 1685 H 157.788 2.20131 -2.36097 0
M  V30 1686 H 156.84 0.252465 -3.79561 0
M  V30 1687 H 158.152 0.549642 -4.95762 0
M  V30 1688 H 157.306 2.87356 -5.34333 0
M  V30 1689 H 156.045 2.6417 -4.09958 0
M  V30 1690 H 155.05 0.769479 -5.44389 0
M  V30 1691 H 156.275 1.02435 -6.7133 0
M  V30 1692 H 154.221 3.07235 -5.79606 0
M  V30 1693 H 154.138 2.13583 -7.25202 0
M  V30 1694 H 155.406 3.30903 -7.05779 0
M  V30 1695 N 159.635 1.57281 -0.100228 0
M  V30 1696 C 160.863 1.98879 0.570509 0
M  V30 1697 C 161.278 0.979476 1.61405 0
M  V30 1698 O 160.635 -0.0302288 1.82475 0
M  V30 1699 C 160.686 3.4052 1.2136 0
M  V30 1700 O 160.407 4.37588 0.211786 0
M  V30 1701 C 161.908 3.97149 1.96945 0
M  V30 1702 H 159.128 0.653428 0.152555 0
M  V30 1703 H 161.672 2.03697 -0.18103 0
M  V30 1704 H 159.827 3.367 1.91603 0
M  V30 1705 H 160.241 5.20118 0.676607 0
M  V30 1706 H 161.715 4.98393 2.37294 0
M  V30 1707 H 162.192 3.3525 2.83733 0
M  V30 1708 H 162.798 4.04458 1.31506 0
M  V30 1709 N 161.113 -0.173488 1.56642 0
M  V30 1710 C 162.353 -0.896984 1.83667 0
M  V30 1711 C 162.717 -1.79523 0.680842 0
M  V30 1712 O 163.918 -2.55616 0.831488 0
M  V30 1713 C 162.189 -1.67351 3.15798 0
M  V30 1714 S 163.748 -2.44607 3.64298 0
M  V30 1715 H 160.566 -0.300464 0.644393 0
M  V30 1716 H 163.168 -0.158775 1.94854 0
M  V30 1717 H 161.872 -1.00462 3.97914 0
M  V30 1718 H 161.403 -2.45313 3.07546 0
M  V30 1719 H 163.418 -3.69261 3.31452 0
M  V30 1720 N 162.591 -1.51276 -0.441967 0
M  V30 1721 C 163.538 -1.72256 -1.53612 0
M  V30 1722 C 164.508 -0.564164 -1.56225 0
M  V30 1723 O 165.693 -0.798074 -1.73307 0
M  V30 1724 C 162.833 -1.84932 -2.91366 0
M  V30 1725 C 161.946 -3.12459 -2.98317 0
M  V30 1726 C 161.081 -3.15758 -4.27166 0
M  V30 1727 C 160.12 -4.37619 -4.27967 0
M  V30 1728 N 159.257 -4.38493 -5.48333 0
M  V30 1729 H 164.097 -2.65654 -1.35026 0
M  V30 1730 H 161.634 -1.31662 -0.656009 0
M  V30 1731 H 163.592 -1.90263 -3.7129 0
M  V30 1732 H 162.222 -0.949461 -3.08521 0
M  V30 1733 H 161.274 -3.1646 -2.11086 0
M  V30 1734 H 162.586 -4.02382 -2.94771 0
M  V30 1735 H 161.74 -3.19979 -5.15459 0
M  V30 1736 H 160.479 -2.23715 -4.33362 0
M  V30 1737 H 159.484 -4.33579 -3.38067 0
M  V30 1738 H 160.709 -5.30921 -4.23438 0
M  V30 1739 H 158.655 -3.49318 -5.55259 0
M  V30 1740 H 158.572 -5.22219 -5.46647 0
M  V30 1741 H 159.84 -4.469 -6.38671 0
M  V30 1742 N 164.069 0.697108 -1.41344 0
M  V30 1743 C 165.032 1.79281 -1.42797 0
M  V30 1744 C 166.032 1.57607 -0.318837 0
M  V30 1745 O 167.222 1.64309 -0.578642 0
M  V30 1746 C 164.354 3.17632 -1.23785 0
M  V30 1747 H 165.547 1.79385 -2.40335 0
M  V30 1748 H 163.1 0.904582 -1.27464 0
M  V30 1749 H 163.835 3.23167 -0.270814 0
M  V30 1750 H 163.62 3.34765 -2.04144 0
M  V30 1751 H 165.11 3.97617 -1.27633 0
M  V30 1752 N 165.547 1.27147 0.931209 0
M  V30 1753 C 166.494 1.09568 2.03134 0
M  V30 1754 C 167.464 -0.00222433 1.661 0
M  V30 1755 O 168.649 0.159439 1.90133 0
M  V30 1756 C 165.789 0.745231 3.36957 0
M  V30 1757 C 164.902 1.92041 3.86968 0
M  V30 1758 C 164.037 1.51216 5.09222 0
M  V30 1759 C 163.076 2.65504 5.5152 0
M  V30 1760 N 162.213 2.25291 6.64972 0
M  V30 1761 H 167.053 2.03708 2.17502 0
M  V30 1762 H 164.59 1.01411 1.06556 0
M  V30 1763 H 166.548 0.522878 4.1391 0
M  V30 1764 H 165.178 -0.159202 3.22407 0
M  V30 1765 H 164.23 2.25541 3.06326 0
M  V30 1766 H 165.542 2.77787 4.1429 0
M  V30 1767 H 164.696 1.25084 5.93666 0
M  V30 1768 H 163.435 0.625749 4.83669 0
M  V30 1769 H 162.44 2.92354 4.65628 0
M  V30 1770 H 163.665 3.54761 5.7907 0
M  V30 1771 H 161.611 1.39098 6.41083 0
M  V30 1772 H 161.528 3.04577 6.91931 0
M  V30 1773 H 162.796 2.02398 7.52765 0
M  V30 1774 N 167.025 -1.13721 1.09112 0
M  V30 1775 C 168.274 -1.84275 0.82009 0
M  V30 1776 C 168.587 -1.84253 -0.656509 0
M  V30 1777 O 169.793 -2.50668 -1.04296 0
M  V30 1778 C 168.249 -3.30825 1.41714 0
M  V30 1779 C 167.857 -3.39244 2.92605 0
M  V30 1780 C 169.601 -4.06443 1.22492 0
M  V30 1781 C 167.508 -4.80047 3.45411 0
M  V30 1782 H 166.438 -0.690387 0.30312 0
M  V30 1783 H 169.089 -1.28146 1.31343 0
M  V30 1784 H 167.471 -3.86737 0.851498 0
M  V30 1785 H 168.645 -2.93344 3.55367 0
M  V30 1786 H 166.96 -2.77088 3.10823 0
M  V30 1787 H 169.557 -5.10387 1.59402 0
M  V30 1788 H 169.9 -4.15972 0.165299 0
M  V30 1789 H 170.433 -3.56852 1.75788 0
M  V30 1790 H 167.172 -4.75709 4.50978 0
M  V30 1791 H 166.692 -5.26455 2.87411 0
M  V30 1792 H 168.371 -5.48957 3.42425 0
M  V30 1793 N 168.503 -0.877838 -1.30888 0
M  V30 1794 C 169.413 -0.343096 -2.32078 0
M  V30 1795 C 170.429 0.551022 -1.65045 0
M  V30 1796 O 171.605 0.445854 -1.96403 0
M  V30 1797 C 168.67 0.439905 -3.43898 0
M  V30 1798 C 167.731 -0.483111 -4.26573 0
M  V30 1799 C 166.964 0.262616 -5.33053 0
M  V30 1800 O 167.187 1.48967 -5.50604 0
M  V30 1801 O 166.121 -0.383593 -6.00676 0
M  V30 1802 H 169.947 -1.18203 -2.79753 0
M  V30 1803 H 167.532 -0.64145 -1.34929 0
M  V30 1804 H 169.414 0.883504 -4.12034 0
M  V30 1805 H 168.089 1.25526 -2.98371 0
M  V30 1806 H 166.996 -0.975374 -3.61161 0
M  V30 1807 H 168.329 -1.26427 -4.75686 0
M  V30 1808 N 169.982 1.44106 -0.638065 0
M  V30 1809 C 170.912 2.33448 0.0494287 0
M  V30 1810 C 171.893 1.48606 0.827672 0
M  V30 1811 O 173.078 1.77308 0.792173 0
M  V30 1812 C 170.208 3.31771 1.02691 0
M  V30 1813 C 169.162 4.26485 0.359823 0
M  V30 1814 C 168.488 5.14729 1.44769 0
M  V30 1815 C 169.788 5.17056 -0.738296 0
M  V30 1816 H 171.482 2.91183 -0.696636 0
M  V30 1817 H 169.028 1.40014 -0.336456 0
M  V30 1818 H 170.981 3.93161 1.51666 0
M  V30 1819 H 169.705 2.7226 1.80395 0
M  V30 1820 H 168.364 3.66437 -0.10934 0
M  V30 1821 H 168.012 4.51566 2.21578 0
M  V30 1822 H 167.712 5.78913 1.00668 0
M  V30 1823 H 169.236 5.78991 1.93911 0
M  V30 1824 H 170.65 5.72342 -0.331354 0
M  V30 1825 H 169.047 5.89879 -1.10286 0
M  V30 1826 H 170.117 4.57652 -1.60258 0
M  V30 1827 N 171.46 0.379036 1.52974 0
M  V30 1828 C 172.39 -0.452706 2.29069 0
M  V30 1829 C 173.371 -1.07237 1.32039 0
M  V30 1830 O 174.556 -1.08708 1.60923 0
M  V30 1831 C 171.686 -1.5856 3.08992 0
M  V30 1832 C 170.64 -1.0925 4.13822 0
M  V30 1833 C 169.966 -2.31668 4.81907 0
M  V30 1834 C 171.266 -0.167702 5.22031 0
M  V30 1835 H 172.96 0.182181 2.98845 0
M  V30 1836 H 170.506 0.0890592 1.43724 0
M  V30 1837 H 172.459 -2.1742 3.6098 0
M  V30 1838 H 171.183 -2.24792 2.36931 0
M  V30 1839 H 169.842 -0.526494 3.628 0
M  V30 1840 H 169.49 -2.96386 4.06404 0
M  V30 1841 H 169.19 -1.9934 5.52754 0
M  V30 1842 H 170.714 -2.91189 5.36695 0
M  V30 1843 H 172.128 -0.664186 5.6944 0
M  V30 1844 H 170.525 0.0653265 6.00064 0
M  V30 1845 H 171.595 0.786347 4.78482 0
M  V30 1846 N 172.938 -1.57226 0.108567 0
M  V30 1847 C 174.186 -1.94448 -0.550853 0
M  V30 1848 C 174.507 -0.992074 -1.67878 0
M  V30 1849 O 173.777 -0.0465 -1.95845 0
M  V30 1850 H 172.357 -0.717897 -0.206479 0
M  V30 1851 H 175.019 -1.94112 0.175062 0
M  V30 1852 H 174.115 -2.97218 -0.952259 0
M  V30 1853 N 174.416 0.165178 -1.56732 0
M  V30 1854 C 175.641 0.900253 -1.86843 0
M  V30 1855 C 176.066 1.74766 -0.695596 0
M  V30 1856 O 175.424 1.77786 0.35522 0
M  V30 1857 C 175.472 1.74777 -3.15413 0
M  V30 1858 O 174.576 2.85007 -2.98068 0
M  V30 1859 H 173.917 0.251832 -0.614391 0
M  V30 1860 H 176.447 0.161468 -2.03962 0
M  V30 1861 H 176.457 2.14646 -3.46974 0
M  V30 1862 H 175.132 1.12537 -4.00385 0
M  V30 1863 H 173.709 2.48676 -2.77875 0
M  V30 1864 N 175.894 1.51508 0.433938 0
M  V30 1865 C 177.124 1.67914 1.20369 0
M  V30 1866 C 177.532 0.377461 1.85397 0
M  V30 1867 O 176.875 -0.654255 1.71654 0
M  V30 1868 C 176.937 2.74045 2.32679 0
M  V30 1869 C 176.601 4.16543 1.87991 0
M  V30 1870 C 177.598 5.01211 1.38145 0
M  V30 1871 C 175.283 4.6266 1.95579 0
M  V30 1872 C 177.277 6.30056 0.964774 0
M  V30 1873 C 174.964 5.91501 1.53523 0
M  V30 1874 C 175.962 6.75027 1.04055 0
M  V30 1875 O 175.65 8.01459 0.625964 0
M  V30 1876 H 175.382 0.566578 0.368735 0
M  V30 1877 H 177.936 1.98709 0.51999 0
M  V30 1878 H 176.166 2.38572 3.04336 0
M  V30 1879 H 177.855 2.79295 2.94532 0
M  V30 1880 H 178.621 4.66783 1.31675 0
M  V30 1881 H 174.5 3.97767 2.33029 0
M  V30 1882 H 178.044 6.95202 0.57796 0
M  V30 1883 H 173.941 6.25442 1.59665 0
M  V30 1884 H 174.709 8.15043 0.751509 0
M  V30 1885 N 177.372 -0.689602 1.41712 0
M  V30 1886 C 178.649 -1.44457 1.31877 0
M  V30 1887 C 179.029 -2.11039 -0.0508537 0
M  V30 1888 O 178.377 -2.02138 -1.06547 0
M  V30 1889 C 178.587 -2.45913 2.47645 0
M  V30 1890 C 179.935 -3.10991 2.89084 0
M  V30 1891 O 180.959 -2.56238 2.47428 0
M  V30 1892 O 179.818 -4.10174 3.61137 0
M  V30 1893 H 176.912 -0.64362 0.519309 0
M  V30 1894 H 179.458 -0.719576 1.53689 0
M  V30 1895 H 178.23 -1.95409 3.39015 0
M  V30 1896 H 177.853 -3.25913 2.27742 0
M  V30 1897 N 178.85 -1.27639 -0.924453 0
M  V30 1898 C 180.261 -1.12834 -1.48746 0
M  V30 1899 C 180.612 0.285505 -1.94112 0
M  V30 1900 O 179.737 1.17874 -1.81479 0
M  V30 1901 C 180.332 -2.04217 -2.70334 0
M  V30 1902 C 178.891 -1.93509 -3.22848 0
M  V30 1903 C 178.038 -1.96583 -1.95577 0
M  V30 1904 H 180.989 -1.40484 -0.738233 0
M  V30 1905 H 181.01 -1.59989 -3.4523 0
M  V30 1906 H 180.522 -3.07111 -2.37285 0
M  V30 1907 H 178.623 -0.936131 -3.60649 0
M  V30 1908 H 178.736 -2.79917 -3.88823 0
M  V30 1909 H 177.1 -1.4085 -2.12211 0
M  V30 1910 H 177.883 -3.01137 -1.64837 0
M  V30 1911 N 180.328 1.1314 -1.09713 0
M  V30 1912 C 181.26 2.18343 -0.697056 0
M  V30 1913 C 182.273 1.60669 0.262551 0
M  V30 1914 O 183.462 1.78435 0.0481527 0
M  V30 1915 C 180.562 3.38899 -0.00684728 0
M  V30 1916 C 179.735 4.26078 -0.988741 0
M  V30 1917 C 178.794 5.25155 -0.331394 0
M  V30 1918 O 177.82 5.60701 -0.979926 0
M  V30 1919 N 179.022 5.73271 0.913261 0
M  V30 1920 H 181.787 2.5328 -1.60216 0
M  V30 1921 H 179.348 1.28491 -0.984971 0
M  V30 1922 H 181.34 4.02255 0.444191 0
M  V30 1923 H 179.91 3.02175 0.800551 0
M  V30 1924 H 179.13 3.59453 -1.61826 0
M  V30 1925 H 180.418 4.81178 -1.65364 0
M  V30 1926 H 179.816 5.46544 1.45966 0
M  V30 1927 H 178.373 6.3855 1.30757 0
M  V30 1928 N 181.806 0.884767 1.30421 0
M  V30 1929 C 182.753 0.349642 2.28136 0
M  V30 1930 C 183.723 -0.560061 1.56373 0
M  V30 1931 O 184.908 -0.488524 1.8444 0
M  V30 1932 C 182.048 -0.42999 3.42411 0
M  V30 1933 C 181.161 0.508907 4.28992 0
M  V30 1934 C 180.296 -0.286301 5.30428 0
M  V30 1935 C 179.335 0.648079 6.08659 0
M  V30 1936 N 178.472 -0.111792 7.02011 0
M  V30 1937 H 183.312 1.18807 2.73293 0
M  V30 1938 H 180.849 0.597231 1.3443 0
M  V30 1939 H 182.807 -0.897923 4.07423 0
M  V30 1940 H 181.437 -1.23299 2.98324 0
M  V30 1941 H 180.489 1.09533 3.64289 0
M  V30 1942 H 181.801 1.22475 4.8353 0
M  V30 1943 H 180.955 -0.816098 6.01186 0
M  V30 1944 H 179.694 -1.03536 4.76583 0
M  V30 1945 H 178.699 1.18951 5.36778 0
M  V30 1946 H 179.924 1.39623 6.64592 0
M  V30 1947 H 177.87 -0.843395 6.50556 0
M  V30 1948 H 177.787 0.544429 7.54037 0
M  V30 1949 H 179.055 -0.622339 7.77012 0
M  V30 1950 N 183.284 -1.43765 0.645699 0
M  V30 1951 C 184.216 -2.29027 -0.0890605 0
M  V30 1952 C 185.229 -1.42093 -0.794563 0
M  V30 1953 O 186.418 -1.66104 -0.653575 0
M  V30 1954 C 183.518 -3.18831 -1.14891 0
M  V30 1955 C 182.691 -4.34261 -0.523043 0
M  V30 1956 C 181.75 -5.04994 -1.47878 0
M  V30 1957 O 180.776 -5.6052 -0.990277 0
M  V30 1958 N 181.978 -5.07795 -2.81291 0
M  V30 1959 H 184.743 -2.92727 0.64272 0
M  V30 1960 H 182.304 -1.54373 0.487924 0
M  V30 1961 H 184.296 -3.63015 -1.78892 0
M  V30 1962 H 182.866 -2.56782 -1.78275 0
M  V30 1963 H 182.086 -3.93088 0.295896 0
M  V30 1964 H 183.374 -5.08728 -0.0858147 0
M  V30 1965 H 182.772 -4.64042 -3.23546 0
M  V30 1966 H 181.329 -5.55721 -3.40614 0
M  V30 1967 N 184.763 -0.387143 -1.52771 0
M  V30 1968 C 185.693 0.440551 -2.29306 0
M  V30 1969 C 186.674 1.06535 -1.32606 0
M  V30 1970 O 187.859 1.07853 -1.61497 0
M  V30 1971 C 184.989 1.56919 -3.09829 0
M  V30 1972 C 183.943 1.07054 -4.14395 0
M  V30 1973 C 183.269 2.29109 -4.83129 0
M  V30 1974 C 184.569 0.140015 -5.22112 0
M  V30 1975 H 186.263 -0.198026 -2.98744 0
M  V30 1976 H 183.809 -0.09668 -1.43675 0
M  V30 1977 H 185.762 2.15503 -3.62128 0
M  V30 1978 H 184.486 2.23532 -2.3812 0
M  V30 1979 H 183.145 0.507247 -3.63074 0
M  V30 1980 H 182.793 2.94227 -4.0797 0
M  V30 1981 H 182.493 1.96406 -5.53804 0
M  V30 1982 H 184.017 2.88339 -5.38231 0
M  V30 1983 H 185.431 0.633978 -5.69784 0
M  V30 1984 H 183.828 -0.0971485 -6.00021 0
M  V30 1985 H 184.898 -0.811711 -4.78058 0
M  V30 1986 N 186.241 1.57166 -0.116904 0
M  V30 1987 C 187.49 1.94298 0.541407 0
M  V30 1988 C 187.803 1.00236 1.67964 0
M  V30 1989 O 189.009 1.26826 2.40057 0
M  V30 1990 C 187.465 3.45306 1.01449 0
M  V30 1991 C 187.073 4.47899 -0.0951738 0
M  V30 1992 C 188.817 3.91361 1.6443 0
M  V30 1993 C 186.724 5.90083 0.394491 0
M  V30 1994 H 185.654 0.725308 0.206019 0
M  V30 1995 H 188.305 1.82446 -0.196419 0
M  V30 1996 H 186.687 3.52385 1.80667 0
M  V30 1997 H 187.861 4.52486 -0.871374 0
M  V30 1998 H 186.176 4.11583 -0.631505 0
M  V30 1999 H 188.773 4.95004 2.02176 0
M  V30 2000 H 189.116 3.3122 2.52189 0
M  V30 2001 H 189.649 3.87073 0.917559 0
M  V30 2002 H 186.388 6.53974 -0.447004 0
M  V30 2003 H 185.908 5.88921 1.13722 0
M  V30 2004 H 187.587 6.41307 0.856399 0
M  V30 2005 N 187.719 -0.156864 1.56817 0
M  V30 2006 C 188.968 -0.869504 1.81996 0
M  V30 2007 C 189.281 -1.82777 0.696545 0
M  V30 2008 O 190.487 -2.58384 0.833658 0
M  V30 2009 C 188.943 -1.59679 3.22538 0
M  V30 2010 C 188.551 -0.681431 4.42787 0
M  V30 2011 C 190.295 -2.2968 3.56997 0
M  V30 2012 C 188.202 -1.40978 5.74351 0
M  V30 2013 H 187.132 -0.328438 0.678708 0
M  V30 2014 H 189.783 -0.1223 1.83092 0
M  V30 2015 H 188.165 -2.38927 3.158 0
M  V30 2016 H 189.339 0.0751166 4.60739 0
M  V30 2017 H 187.654 -0.0903431 4.16302 0
M  V30 2018 H 190.251 -2.84794 4.52544 0
M  V30 2019 H 190.594 -3.05707 2.82576 0
M  V30 2020 H 191.127 -1.57361 3.65352 0
M  V30 2021 H 187.866 -0.691561 6.51842 0
M  V30 2022 H 187.386 -2.13929 5.60352 0
M  V30 2023 H 189.065 -1.95337 6.16808 0
M  V30 2024 N 189.197 -1.51736 -0.425897 0
M  V30 2025 C 190.107 -1.76738 -1.54275 0
M  V30 2026 C 191.123 -0.65211 -1.61318 0
M  V30 2027 O 192.299 -0.935654 -1.78346 0
M  V30 2028 C 189.364 -1.89755 -2.90162 0
M  V30 2029 C 188.425 -3.13633 -2.93143 0
M  V30 2030 C 187.658 -3.2602 -4.22548 0
M  V30 2031 O 187.881 -2.44067 -5.15546 0
M  V30 2032 O 186.815 -4.19071 -4.32046 0
M  V30 2033 H 190.641 -2.71502 -1.36089 0
M  V30 2034 H 188.226 -1.36376 -0.610069 0
M  V30 2035 H 190.108 -2.00236 -3.70788 0
M  V30 2036 H 188.783 -0.981785 -3.08452 0
M  V30 2037 H 187.69 -3.08622 -2.11431 0
M  V30 2038 H 189.023 -4.04936 -2.798 0
M  V30 2039 N 190.675 0.682077 -1.42076 0
M  V30 2040 C 191.952 1.43755 -1.32642 0
M  V30 2041 C 192.332 2.11063 0.0396611 0
M  V30 2042 O 191.68 2.02701 1.05474 0
M  V30 2043 C 191.89 2.44596 -2.48946 0
M  V30 2044 C 193.238 3.09454 -2.9073 0
M  V30 2045 O 194.262 2.54922 -2.48783 0
M  V30 2046 O 193.121 4.08253 -3.63307 0
M  V30 2047 H 190.215 0.640857 -0.522715 0
M  V30 2048 H 192.761 0.711415 -1.54068 0
M  V30 2049 H 191.533 1.93609 -3.40046 0
M  V30 2050 H 191.156 3.24701 -2.29467 0
M  V30 2051 N 192.153 1.28127 0.917671 0
M  V30 2052 C 193.564 1.13622 1.48145 0
M  V30 2053 C 193.915 -0.275207 1.9426 0
M  V30 2054 O 193.04 -1.1691 1.82102 0
M  V30 2055 C 193.635 2.05648 2.69248 0
M  V30 2056 C 192.194 1.95219 3.21818 0
M  V30 2057 C 191.341 1.97618 1.94532 0
M  V30 2058 H 194.292 1.40874 0.730772 0
M  V30 2059 H 194.313 1.61818 3.44377 0
M  V30 2060 H 193.825 3.08365 2.35653 0
M  V30 2061 H 191.926 0.955244 3.60147 0
M  V30 2062 H 192.039 2.81976 3.87333 0
M  V30 2063 H 190.403 1.41973 2.11461 0
M  V30 2064 H 191.186 3.02007 1.63238 0
M  V30 2065 N 193.631 -1.12557 1.10312 0
M  V30 2066 C 194.861 -1.87592 0.865617 0
M  V30 2067 C 195.269 -1.79851 -0.587389 0
M  V30 2068 O 194.612 -1.16949 -1.41664 0
M  V30 2069 C 194.674 -3.37665 1.23381 0
M  V30 2070 C 194.338 -3.69181 2.69359 0
M  V30 2071 C 195.335 -3.67652 3.67597 0
M  V30 2072 C 193.02 -3.98555 3.05711 0
M  V30 2073 C 195.014 -3.95053 5.00212 0
M  V30 2074 C 192.701 -4.25616 4.38514 0
M  V30 2075 C 193.699 -4.23851 5.35574 0
M  V30 2076 O 193.387 -4.50242 6.65986 0
M  V30 2077 H 193.119 -0.600442 0.310557 0
M  V30 2078 H 195.673 -1.4335 1.47105 0
M  V30 2079 H 193.903 -3.82454 0.571467 0
M  V30 2080 H 195.592 -3.94041 0.973994 0
M  V30 2081 H 196.358 -3.45024 3.40857 0
M  V30 2082 H 192.237 -3.99071 2.30789 0
M  V30 2083 H 195.781 -3.93591 5.75962 0
M  V30 2084 H 191.678 -4.47718 4.64994 0
M  V30 2085 H 192.446 -4.67867 6.71597 0
M  V30 2086 N 195.109 -0.891671 -1.2995 0
M  V30 2087 C 196.339 -0.527893 -1.99742 0
M  V30 2088 C 196.747 0.88979 -1.66971 0
M  V30 2089 O 196.09 1.59766 -0.906667 0
M  V30 2090 C 196.152 -0.630804 -3.53922 0
M  V30 2091 C 195.816 -2.01401 -4.10228 0
M  V30 2092 C 196.813 -2.98422 -4.25724 0
M  V30 2093 C 194.498 -2.32121 -4.45449 0
M  V30 2094 C 196.492 -4.24293 -4.75662 0
M  V30 2095 C 194.179 -3.58237 -4.95086 0
M  V30 2096 C 195.177 -4.54137 -5.10146 0
M  V30 2097 O 194.865 -5.78014 -5.58708 0
M  V30 2098 H 194.597 -0.201953 -0.645129 0
M  V30 2099 H 197.151 -1.20076 -1.66646 0
M  V30 2100 H 195.381 0.0990616 -3.86573 0
M  V30 2101 H 197.07 -0.277338 -4.04951 0
M  V30 2102 H 197.836 -2.76001 -3.98809 0
M  V30 2103 H 193.715 -1.5824 -4.32991 0
M  V30 2104 H 197.259 -4.99153 -4.87332 0
M  V30 2105 H 193.156 -3.80491 -5.21437 0
M  V30 2106 H 193.924 -5.8049 -5.77039 0
M  V30 2107 N 196.587 1.43421 -0.653314 0
M  V30 2108 C 197.835 2.01414 -0.166415 0
M  V30 2109 C 198.156 1.51803 1.22397 0
M  V30 2110 O 197.426 0.730693 1.81763 0
M  V30 2111 H 196.006 0.744703 -0.0585319 0
M  V30 2112 H 198.668 1.75629 -0.845003 0
M  V30 2113 H 197.764 3.11734 -0.151111 0
M  V30 2114 N 198.065 0.39524 1.52563 0
M  V30 2115 C 199.013 -0.451859 2.28169 0
M  V30 2116 C 200.007 -1.05792 1.32304 0
M  V30 2117 O 201.213 -0.997718 1.49818 0
M  V30 2118 H 197.588 -0.164481 0.733792 0
M  V30 2119 H 199.559 0.207199 2.9768 0
M  V30 2120 C 198.308 -1.56385 3.10546 0
M  V30 2121 H 197.631 -1.10682 3.84174 0
M  V30 2122 H 199.071 -2.13067 3.66577 0
M  V30 2123 C 197.53 -2.52328 2.23231 0
M  V30 2124 O 198.06 -3.5588 1.86312 0
M  V30 2125 N 196.266 -2.22209 1.87274 0
M  V30 2126 H 195.813 -1.38033 2.17496 0
M  V30 2127 H 195.771 -2.86652 1.29143 0
M  V30 2128 N 199.544 -1.57102 0.125237 0
M  V30 2129 C 200.821 -1.86953 -0.575142 0
M  V30 2130 C 201.201 -1.02749 -1.84407 0
M  V30 2131 O 200.549 -0.108144 -2.28244 0
M  V30 2132 C 200.759 -3.38198 -0.861583 0
M  V30 2133 C 202.107 -4.06937 -1.21192 0
M  V30 2134 O 203.131 -3.43252 -0.951645 0
M  V30 2135 O 201.99 -5.19364 -1.70068 0
M  V30 2136 H 199.084 -0.774147 -0.290906 0
M  V30 2137 H 201.63 -1.68942 0.160211 0
M  V30 2138 H 200.402 -3.91282 0.0373647 0
M  V30 2139 H 200.025 -3.61661 -1.65188 0
M  V30 2140 N 201.022 0.148545 -1.56898 0
M  V30 2141 C 202.247 0.880385 -1.87787 0
M  V30 2142 C 202.672 1.74018 -0.714093 0
M  V30 2143 O 202.03 1.78153 0.336343 0
M  V30 2144 C 202.078 1.71422 -3.17249 0
M  V30 2145 O 201.182 2.8183 -3.01074 0
M  V30 2146 H 200.523 0.245301 -0.617028 0
M  V30 2147 H 203.053 0.139826 -2.04122 0
M  V30 2148 H 203.063 2.10954 -3.49231 0
M  V30 2149 H 201.738 1.08284 -4.01556 0
M  V30 2150 H 200.315 2.45715 -2.80497 0
M  V30 2151 N 202.5 1.5196 0.417844 0
M  V30 2152 C 203.777 1.56146 1.17803 0
M  V30 2153 C 204.157 0.337275 2.08388 0
M  V30 2154 O 203.505 -0.676447 2.18258 0
M  V30 2155 C 203.715 2.88566 1.96293 0
M  V30 2156 C 205.063 3.41244 2.52662 0
M  V30 2157 O 206.087 2.90247 2.06483 0
M  V30 2158 O 204.946 4.30273 3.36938 0
M  V30 2159 H 202.04 0.628598 0.537395 0
M  V30 2160 H 204.586 1.64283 0.425331 0
M  V30 2161 H 203.358 3.69116 1.2988 0
M  V30 2162 H 202.981 2.83681 2.78587 0
M  V30 2163 N 203.978 -0.674533 1.42435 0
M  V30 2164 C 205.225 -1.43459 1.42919 0
M  V30 2165 C 205.553 -1.94446 0.0457312 0
M  V30 2166 O 204.808 -1.7132 -0.94593 0
M  V30 2167 C 205.107 -2.64767 2.40069 0
M  V30 2168 C 204.773 -2.3232 3.86443 0
M  V30 2169 C 203.435 -2.23182 4.26314 0
M  V30 2170 C 205.787 -2.05977 4.78773 0
M  V30 2171 C 203.115 -1.85827 5.56494 0
M  V30 2172 C 205.467 -1.70125 6.09295 0
M  V30 2173 C 204.131 -1.59498 6.48164 0
M  V30 2174 H 203.401 -0.524952 0.522978 0
M  V30 2175 H 206.048 -0.769097 1.75377 0
M  V30 2176 H 204.353 -3.36349 2.00939 0
M  V30 2177 H 206.05 -3.22949 2.37707 0
M  V30 2178 H 202.64 -2.40334 3.54877 0
M  V30 2179 H 206.824 -2.11969 4.48757 0
M  V30 2180 H 202.08 -1.76168 5.8547 0
M  V30 2181 H 206.254 -1.48767 6.80324 0
M  V30 2182 H 203.881 -1.30322 7.48946 0
M  V30 2183 N 205.456 -1.28612 -0.910864 0
M  V30 2184 C 206.366 -1.14643 -2.0468 0
M  V30 2185 C 207.382 -0.0723121 -1.7385 0
M  V30 2186 O 208.558 -0.282178 -1.99413 0
M  V30 2187 C 205.623 -0.812561 -3.37044 0
M  V30 2188 C 204.684 -1.96935 -3.81465 0
M  V30 2189 C 203.917 -1.65131 -5.07511 0
M  V30 2190 O 204.14 -0.567013 -5.67575 0
M  V30 2191 O 203.074 -2.49585 -5.47714 0
M  V30 2192 H 206.9 -2.1001 -2.19384 0
M  V30 2193 H 204.485 -1.07958 -1.03274 0
M  V30 2194 H 206.367 -0.640441 -4.16505 0
M  V30 2195 H 205.042 0.111426 -3.23508 0
M  V30 2196 H 203.949 -2.19664 -3.02818 0
M  V30 2197 H 205.282 -2.87414 -3.99567 0
M  V30 2198 N 206.934 1.1197 -1.10907 0
M  V30 2199 C 208.162 1.87402 -0.876824 0
M  V30 2200 C 208.577 1.79894 0.573025 0
M  V30 2201 O 207.934 1.17629 1.39534 0
M  V30 2202 C 207.985 3.36428 -1.32282 0
M  V30 2203 O 207.706 3.43765 -2.71582 0
M  V30 2204 C 209.207 4.28783 -1.12518 0
M  V30 2205 H 206.427 0.592793 -0.314384 0
M  V30 2206 H 208.971 1.41649 -1.47499 0
M  V30 2207 H 207.126 3.79706 -0.768229 0
M  V30 2208 H 207.54 4.3652 -2.90776 0
M  V30 2209 H 209.014 5.31613 -1.48633 0
M  V30 2210 H 209.491 4.39153 -0.0642394 0
M  V30 2211 H 210.097 3.91291 -1.66648 0
M  V30 2212 N 208.412 0.89855 1.29475 0
M  V30 2213 C 209.658 0.524658 1.95896 0
M  V30 2214 C 209.991 -0.926468 1.70676 0
M  V30 2215 O 209.266 -1.65665 1.01908 0
M  V30 2216 C 209.549 0.81633 3.50725 0
M  V30 2217 C 209.402 2.31907 3.85408 0
M  V30 2218 C 210.721 0.302038 4.39062 0
M  V30 2219 H 207.84 0.19209 0.711527 0
M  V30 2220 H 210.482 1.12502 1.53112 0
M  V30 2221 H 208.632 0.305369 3.87298 0
M  V30 2222 H 210.304 2.89949 3.58786 0
M  V30 2223 H 208.547 2.78027 3.32992 0
M  V30 2224 H 209.218 2.47373 4.93468 0
M  V30 2225 H 211.694 0.739551 4.09475 0
M  V30 2226 H 210.57 0.535331 5.46283 0
M  V30 2227 H 210.831 -0.797216 4.34853 0
M  V30 2228 N 209.89 -1.43072 0.660911 0
M  V30 2229 C 211.12 -2.05769 0.185153 0
M  V30 2230 C 211.528 -1.49668 -1.15742 0
M  V30 2231 O 210.871 -0.625649 -1.72717 0
M  V30 2232 C 210.933 -3.59489 0.0278237 0
M  V30 2233 C 210.597 -4.38212 1.2969 0
M  V30 2234 C 211.594 -4.69772 2.22734 0
M  V30 2235 C 209.279 -4.7809 1.54063 0
M  V30 2236 C 211.273 -5.40129 3.38437 0
M  V30 2237 C 208.96 -5.4819 2.70058 0
M  V30 2238 C 209.958 -5.79132 3.62071 0
M  V30 2239 O 209.646 -6.47798 4.76039 0
M  V30 2240 H 209.378 -0.669873 0.0908086 0
M  V30 2241 H 211.932 -1.84436 0.90402 0
M  V30 2242 H 210.162 -3.79426 -0.746489 0
M  V30 2243 H 211.851 -4.03862 -0.406275 0
M  V30 2244 H 212.617 -4.39476 2.05149 0
M  V30 2245 H 208.496 -4.53408 0.833215 0
M  V30 2246 H 212.04 -5.64198 4.10277 0
M  V30 2247 H 207.937 -5.77902 2.87574 0
M  V30 2248 H 208.705 -6.66283 4.75404 0
M  V30 2249 N 211.368 -0.403325 -1.52352 0
M  V30 2250 C 212.3 0.4603 -2.2453 0
M  V30 2251 C 213.313 1.01505 -1.27282 0
M  V30 2252 O 214.502 0.914982 -1.53266 0
M  V30 2253 C 211.602 1.65208 -2.95905 0
M  V30 2254 C 210.775 1.22224 -4.19976 0
M  V30 2255 C 209.834 2.28028 -4.74226 0
M  V30 2256 O 208.86 1.88857 -5.36956 0
M  V30 2257 N 210.062 3.6012 -4.55295 0
M  V30 2258 H 212.827 -0.158156 -2.99282 0
M  V30 2259 H 210.388 -0.230402 -1.60252 0
M  V30 2260 H 212.38 2.35541 -3.29093 0
M  V30 2261 H 210.95 2.17658 -2.24374 0
M  V30 2262 H 210.17 0.34725 -3.92668 0
M  V30 2263 H 211.458 0.911924 -5.00561 0
M  V30 2264 H 210.856 3.94698 -4.05253 0
M  V30 2265 H 209.413 4.26447 -4.92936 0
M  V30 2266 N 212.846 1.57033 -0.133567 0
M  V30 2267 C 213.778 2.13176 0.841944 0
M  V30 2268 C 214.791 1.07794 1.22001 0
M  V30 2269 O 215.98 1.35117 1.16643 0
M  V30 2270 C 213.08 2.62847 2.13926 0
M  V30 2271 C 212.253 3.92486 1.93064 0
M  V30 2272 C 211.312 4.27605 3.0666 0
M  V30 2273 O 210.338 4.96168 2.78937 0
M  V30 2274 N 211.54 3.861 4.33483 0
M  V30 2275 H 214.305 2.97503 0.362192 0
M  V30 2276 H 211.866 1.61821 0.05042 0
M  V30 2277 H 213.858 2.83363 2.88942 0
M  V30 2278 H 212.428 1.83319 2.53205 0
M  V30 2279 H 211.648 3.80732 1.02159 0
M  V30 2280 H 212.936 4.77225 1.76447 0
M  V30 2281 H 212.334 3.30828 4.58878 0
M  V30 2282 H 210.891 4.11694 5.05323 0
M  V30 2283 N 214.325 -0.140222 1.56975 0
M  V30 2284 C 215.565 -0.857823 1.85528 0
M  V30 2285 C 215.929 -1.78039 0.718768 0
M  V30 2286 O 217.13 -2.53795 0.885521 0
M  V30 2287 C 215.401 -1.60615 3.19277 0
M  V30 2288 S 216.96 -2.36824 3.69405 0
M  V30 2289 H 213.778 -0.286727 0.650622 0
M  V30 2290 H 216.38 -0.117408 1.95147 0
M  V30 2291 H 215.084 -0.919994 3.99955 0
M  V30 2292 H 214.615 -2.38735 3.12681 0
M  V30 2293 H 216.63 -3.62148 3.3921 0
M  V30 2294 N 215.803 -1.52179 -0.40978 0
M  V30 2295 C 217.049 -1.66453 -1.15851 0
M  V30 2296 C 217.382 -0.392972 -1.90182 0
M  V30 2297 O 216.657 0.608579 -1.84734 0
M  V30 2298 C 216.94 -2.88612 -2.15349 0
M  V30 2299 C 216.793 -4.25815 -1.44918 0
M  V30 2300 C 218.112 -3.06294 -3.16026 0
M  V30 2301 H 215.231 -0.60575 -0.419805 0
M  V30 2302 H 217.873 -1.84732 -0.444314 0
M  V30 2303 H 216.023 -2.73158 -2.76255 0
M  V30 2304 H 217.695 -4.52995 -0.871365 0
M  V30 2305 H 215.938 -4.27247 -0.751159 0
M  V30 2306 H 216.609 -5.07337 -2.17516 0
M  V30 2307 H 219.085 -3.20641 -2.65195 0
M  V30 2308 H 217.961 -3.93283 -3.8291 0
M  V30 2309 H 218.222 -2.19579 -3.83715 0
M  V30 2310 N 217.281 0.66697 -1.42791 0
M  V30 2311 C 218.697 0.981027 -1.25889 0
M  V30 2312 C 218.897 2.00793 -0.168695 0
M  V30 2313 O 217.953 2.48321 0.45747 0
M  V30 2314 C 219.266 1.47838 -2.61848 0
M  V30 2315 C 220.814 1.59575 -2.69267 0
M  V30 2316 C 221.289 2.12704 -4.05612 0
M  V30 2317 N 222.78 2.20026 -4.07606 0
M  V30 2318 C 223.515 2.62227 -5.09926 0
M  V30 2319 N 223.011 3.03824 -6.22626 0
M  V30 2320 N 224.804 2.62045 -4.97281 0
M  V30 2321 H 216.955 -0.0127891 -2.12396 0
M  V30 2322 H 219.218 0.0568258 -0.946295 0
M  V30 2323 H 218.924 0.798299 -3.4252 0
M  V30 2324 H 218.798 2.45579 -2.86305 0
M  V30 2325 H 221.185 2.26687 -1.88936 0
M  V30 2326 H 221.266 0.60302 -2.48591 0
M  V30 2327 H 220.91 1.46198 -4.86404 0
M  V30 2328 H 220.84 3.12782 -4.23645 0
M  V30 2329 H 223.331 1.90708 -3.2625 0
M  V30 2330 H 223.644 3.34734 -6.96544 0
M  V30 2331 H 221.989 3.01662 -6.26119 0
M  V30 2332 H 225.18 2.28916 -4.08308 0
M  V30 2333 H 225.353 2.94613 -5.77154 0
M  V30 2334 N 218.759 1.29093 0.90403 0
M  V30 2335 C 219.999 1.18076 1.66845 0
M  V30 2336 C 220.363 -0.26436 1.90171 0
M  V30 2337 O 221.564 -0.497423 2.64157 0
M  V30 2338 C 219.835 1.96722 2.98388 0
M  V30 2339 S 221.394 2.0219 3.89441 0
M  V30 2340 H 218.212 0.421104 0.572881 0
M  V30 2341 H 220.814 1.63322 1.07453 0
M  V30 2342 H 219.518 3.00866 2.7912 0
M  V30 2343 H 219.049 1.52064 3.62823 0
M  V30 2344 H 221.064 1.13545 4.83034 0
M  V30 2345 N 220.237 -1.11381 1.11499 0
M  V30 2346 C 221.477 -1.84763 0.874188 0
M  V30 2347 C 221.841 -1.82726 -0.589496 0
M  V30 2348 O 223.042 -2.51562 -0.947089 0
M  V30 2349 C 221.313 -3.27931 1.42112 0
M  V30 2350 S 222.872 -4.18557 1.31739 0
M  V30 2351 H 219.69 -0.637115 0.315603 0
M  V30 2352 H 222.292 -1.34097 1.42261 0
M  V30 2353 H 220.996 -3.26978 2.48019 0
M  V30 2354 H 220.527 -3.83665 0.869761 0
M  V30 2355 H 222.542 -4.95396 0.282335 0
M  V30 2356 N 221.715 -0.905404 -1.28997 0
M  V30 2357 C 223.131 -0.60233 -1.47798 0
M  V30 2358 C 223.331 0.854645 -1.82478 0
M  V30 2359 O 222.387 1.63439 -1.92468 0
M  V30 2360 C 223.7 -1.53306 -2.58685 0
M  V30 2361 C 225.248 -1.53887 -2.72558 0
M  V30 2362 C 225.723 -2.45602 -3.86579 0
M  V30 2363 N 227.214 -2.43681 -3.93921 0
M  V30 2364 C 227.949 -3.11347 -4.81509 0
M  V30 2365 N 227.445 -3.88313 -5.73746 0
M  V30 2366 N 229.238 -3.00476 -4.75048 0
M  V30 2367 H 221.389 -1.84765 -1.04764 0
M  V30 2368 H 223.652 -0.792025 -0.520961 0
M  V30 2369 H 223.358 -2.57141 -2.39941 0
M  V30 2370 H 223.232 -1.25787 -3.55609 0
M  V30 2371 H 225.619 -0.507941 -2.90696 0
M  V30 2372 H 225.7 -1.85447 -1.76191 0
M  V30 2373 H 225.344 -3.48792 -3.69197 0
M  V30 2374 H 225.274 -2.11349 -4.82327 0
M  V30 2375 H 227.765 -1.87767 -3.27951 0
M  V30 2376 H 228.078 -4.36985 -6.37389 0
M  V30 2377 H 226.423 -3.92419 -5.73614 0
M  V30 2378 H 229.614 -2.39858 -4.01977 0
M  V30 2379 H 229.787 -3.53485 -5.43095 0
M  V30 2380 N 223.193 1.4272 -0.668489 0
M  V30 2381 C 224.156 2.292 0.00448567 0
M  V30 2382 C 225.156 1.43001 0.735339 0
M  V30 2383 O 226.346 1.64461 0.57429 0
M  V30 2384 C 223.478 3.25375 1.01705 0
M  V30 2385 H 224.671 2.90199 -0.756608 0
M  V30 2386 H 222.224 1.50254 -0.430506 0
M  V30 2387 H 222.959 2.69301 1.80686 0
M  V30 2388 H 222.744 3.88944 0.496463 0
M  V30 2389 H 224.234 3.90245 1.48655 0
M  V30 2390 N 224.671 0.411399 1.52136 0
M  V30 2391 C 225.918 -0.163645 2.01838 0
M  V30 2392 C 226.246 -1.4495 1.29691 0
M  V30 2393 O 225.501 -1.91725 0.392431 0
M  V30 2394 C 225.8 -0.455872 3.54481 0
M  V30 2395 C 225.466 0.741055 4.44769 0
M  V30 2396 C 224.128 1.06936 4.69167 0
M  V30 2397 C 226.48 1.54075 4.97906 0
M  V30 2398 C 223.808 2.19851 5.43951 0
M  V30 2399 C 226.16 2.66067 5.73926 0
M  V30 2400 C 224.824 2.99381 5.96596 0
M  V30 2401 H 224.094 -0.0598821 0.738576 0
M  V30 2402 H 226.741 0.553283 1.83333 0
M  V30 2403 H 225.046 -1.2544 3.71177 0
M  V30 2404 H 226.743 -0.913802 3.90449 0
M  V30 2405 H 223.333 0.475192 4.25958 0
M  V30 2406 H 227.517 1.30033 4.78963 0
M  V30 2407 H 222.773 2.46006 5.59724 0
M  V30 2408 H 226.947 3.28419 6.14096 0
M  V30 2409 H 224.574 3.86992 6.54325 0
M  V30 2410 N 226.149 -1.5696 0.141893 0
M  V30 2411 C 227.079 -2.19516 -0.795936 0
M  V30 2412 C 228.06 -1.14187 -1.26077 0
M  V30 2413 O 229.245 -1.42511 -1.31925 0
M  V30 2414 C 226.375 -2.81272 -2.03723 0
M  V30 2415 C 225.329 -3.92384 -1.70936 0
M  V30 2416 C 224.655 -4.41052 -3.02287 0
M  V30 2417 C 225.955 -5.13403 -0.959954 0
M  V30 2418 H 227.649 -2.98138 -0.274596 0
M  V30 2419 H 225.195 -1.43406 -0.130636 0
M  V30 2420 H 227.148 -3.237 -2.69808 0
M  V30 2421 H 225.872 -1.99973 -2.58221 0
M  V30 2422 H 224.531 -3.50566 -1.07232 0
M  V30 2423 H 224.179 -3.56582 -3.54765 0
M  V30 2424 H 223.879 -5.15993 -2.81114 0
M  V30 2425 H 225.403 -4.86146 -3.69451 0
M  V30 2426 H 226.817 -5.52706 -1.52279 0
M  V30 2427 H 225.214 -5.94073 -0.848357 0
M  V30 2428 H 226.284 -4.84875 0.0492434 0
M  V30 2429 N 227.627 0.131896 -1.57047 0
M  V30 2430 C 228.537 1.1815 -2.02676 0
M  V30 2431 C 229.553 1.46113 -0.944824 0
M  V30 2432 O 230.729 1.57485 -1.25541 0
M  V30 2433 C 227.794 2.49139 -2.41103 0
M  V30 2434 C 226.855 2.28688 -3.63318 0
M  V30 2435 C 226.088 3.53431 -3.99903 0
M  V30 2436 O 226.311 4.60223 -3.36973 0
M  V30 2437 O 225.245 3.45198 -4.93074 0
M  V30 2438 H 229.071 0.824069 -2.92306 0
M  V30 2439 H 226.656 0.341745 -1.45439 0
M  V30 2440 H 228.538 3.26338 -2.66611 0
M  V30 2441 H 227.213 2.84382 -1.54624 0
M  V30 2442 H 226.12 1.4939 -3.42977 0
M  V30 2443 H 227.453 1.98355 -4.50462 0
M  V30 2444 N 229.106 1.52395 0.401703 0
M  V30 2445 C 230.053 1.76268 1.48991 0
M  V30 2446 C 231.023 0.605386 1.54675 0
M  V30 2447 O 232.208 0.843742 1.7113 0
M  V30 2448 C 229.348 1.92592 2.86361 0
M  V30 2449 C 228.461 3.20259 2.89928 0
M  V30 2450 C 227.596 3.26972 4.18644 0
M  V30 2451 C 226.635 4.48812 4.16214 0
M  V30 2452 N 225.772 4.52877 5.36514 0
M  V30 2453 H 230.612 2.6914 1.27935 0
M  V30 2454 H 228.149 1.33355 0.620871 0
M  V30 2455 H 230.107 2.0004 3.66115 0
M  V30 2456 H 228.737 1.03093 3.05895 0
M  V30 2457 H 227.789 3.21945 2.02621 0
M  V30 2458 H 229.101 4.10056 2.83999 0
M  V30 2459 H 228.255 3.33533 5.06794 0
M  V30 2460 H 226.994 2.35126 4.27278 0
M  V30 2461 H 225.999 4.4239 3.26453 0
M  V30 2462 H 227.224 5.41961 4.09213 0
M  V30 2463 H 225.17 3.63917 5.45802 0
M  V30 2464 H 225.087 5.36529 5.32609 0
M  V30 2465 H 226.355 4.63676 6.26597 0
M  V30 2466 N 230.584 -0.659388 1.43143 0
M  V30 2467 C 231.547 -1.75432 1.47501 0
M  V30 2468 C 232.547 -1.56707 0.360512 0
M  V30 2469 O 233.737 -1.62717 0.622002 0
M  V30 2470 C 230.869 -3.14239 1.32162 0
M  V30 2471 H 232.062 -1.7295 2.45006 0
M  V30 2472 H 229.615 -0.870469 1.29817 0
M  V30 2473 H 230.35 -3.22336 0.356401 0
M  V30 2474 H 230.135 -3.29235 2.12948 0
M  V30 2475 H 231.625 -3.94094 1.3813 0
M  V30 2476 N 232.062 -1.29571 -0.897171 0
M  V30 2477 C 233.012 -1.11539 -1.98855 0
M  V30 2478 C 233.996 -0.0340716 -1.60864 0
M  V30 2479 O 235.188 -0.256062 -1.75138 0
M  V30 2480 C 232.317 -0.796603 -3.3393 0
M  V30 2481 C 231.403 -1.91758 -3.78272 0
M  V30 2482 N 231.794 -3.16143 -3.94826 0
M  V30 2483 C 230.092 -1.81119 -4.07568 0
M  V30 2484 C 230.793 -3.89293 -4.32233 0
M  V30 2485 N 229.769 -3.17255 -4.41419 0
M  V30 2486 H 233.571 -2.05894 -2.09726 0
M  V30 2487 H 231.085 -1.20732 -1.08616 0
M  V30 2488 H 233.082 -0.648459 -4.11826 0
M  V30 2489 H 231.742 0.139003 -3.24402 0
M  V30 2490 H 232.753 -3.5157 -3.80288 0
M  V30 2491 H 229.43 -0.948461 -4.06584 0
M  V30 2492 H 230.82 -4.9635 -4.52865 0
M  V30 2493 O 233.579 1.03276 -1.24162 0
M  V30 2494 H 234.27 1.64832 -1.01735 0
M  V30 END ATOM
M  V30 BEGIN BOND
M  V30 END BOND
M  V30 END CTAB
M  END
$$$$
