drugbank_target|P25098 Beta-adrenergic receptor kinase 1 (DB00171)
 OpenBabel12092119293D

  0  0  0     0  0            999 V3000
M  V30 BEGIN CTAB
M  V30 COUNTS 11171 11294 0 0 0
M  V30 BEGIN ATOM
M  V30 1 H -0.908 1.98254 -0.117106 0
M  V30 2 N 0 1.576 0 0
M  V30 3 C 0.933 2.03868 1.02534 0
M  V30 4 C 1.911 0.928543 1.3348 0
M  V30 5 O 3.095 1.19667 1.45644 0
M  V30 6 C 0.222 2.43627 2.35294 0
M  V30 7 C -0.732 3.65373 2.2001 0
M  V30 8 S 0.101 5.13292 1.52614 0
M  V30 9 C 1.257 5.56322 2.86805 0
M  V30 10 H 1.49 2.90518 0.631377 0
M  V30 11 H -0.977 1.52953 0.210867 0
M  V30 12 H 0.981 2.67203 3.11629 0
M  V30 13 H -0.358 1.57376 2.7183 0
M  V30 14 H -1.165 3.90944 3.18086 0
M  V30 15 H -1.563 3.418 1.51819 0
M  V30 16 H 0.729 5.58782 3.83104 0
M  V30 17 H 1.672 6.56266 2.65933 0
M  V30 18 H 2.08 4.83886 2.90714 0
M  V30 19 N 1.4781 -0.272755 1.55222 0
M  V30 20 C 2.4411 -1.32041 1.87344 0
M  V30 21 C 3.4411 -1.42342 0.74803 0
M  V30 22 O 4.6311 -1.41488 1.0162 0
M  V30 23 C 1.7631 -2.70173 2.07893 0
M  V30 24 H 2.9561 -1.04789 2.80997 0
M  V30 25 H 0.5091 -0.51083 1.47717 0
M  V30 26 H 1.2441 -3.02605 1.16622 0
M  V30 27 H 1.0291 -2.64082 2.89833 0
M  V30 28 H 2.5191 -3.45869 2.34017 0
M  V30 29 N 2.9562 -1.48159 -0.537278 0
M  V30 30 C 4.2332 -1.46291 -1.29839 0
M  V30 31 C 4.6132 -0.170613 -2.10409 0
M  V30 32 O 3.9612 0.847746 -2.12192 0
M  V30 33 C 4.1712 -2.72055 -2.18603 0
M  V30 34 C 5.5192 -3.20087 -2.7898 0
M  V30 35 O 6.5432 -2.72921 -2.28894 0
M  V30 36 O 5.4022 -4.02138 -3.70064 0
M  V30 37 H 2.4962 -0.583906 -0.585647 0
M  V30 38 H 5.0422 -1.60384 -0.554534 0
M  V30 39 H 3.8142 -3.57628 -1.58801 0
M  V30 40 H 3.4372 -2.60646 -3.00249 0
M  V30 41 N 4.4343 0.785586 -1.36625 0
M  V30 42 C 5.3643 1.91259 -1.33949 0
M  V30 43 C 6.3453 1.68795 -0.210325 0
M  V30 44 O 7.5303 1.89854 -0.408561 0
M  V30 45 C 4.6603 3.28339 -1.13186 0
M  V30 46 C 3.6143 3.65335 -2.22967 0
M  V30 47 C 2.9403 5.00806 -1.87342 0
M  V30 48 C 4.2403 3.7352 -3.65075 0
M  V30 49 H 5.9343 1.93755 -2.28253 0
M  V30 50 H 3.4803 0.930788 -1.09874 0
M  V30 51 H 5.4333 4.06804 -1.09948 0
M  V30 52 H 4.1573 3.2624 -0.153332 0
M  V30 53 H 2.8163 2.89169 -2.25337 0
M  V30 54 H 2.4643 4.95233 -0.880545 0
M  V30 55 H 2.1643 5.26529 -2.60846 0
M  V30 56 H 3.6883 5.81687 -1.85667 0
M  V30 57 H 5.1023 4.42168 -3.64911 0
M  V30 58 H 3.4993 4.10731 -4.37516 0
M  V30 59 H 4.5693 2.74527 -3.99703 0
M  V30 60 N 5.9124 1.20967 1.01018 0
M  V30 61 C 6.8224 0.980157 2.13143 0
M  V30 62 C 7.8384 -0.0660665 1.73875 0
M  V30 63 O 9.0144 0.122821 2.01025 0
M  V30 64 C 6.0794 0.54216 3.42435 0
M  V30 65 C 5.1404 1.65999 3.95908 0
M  V30 66 C 4.3734 1.2428 5.19028 0
M  V30 67 O 4.5964 0.114196 5.70286 0
M  V30 68 O 3.5304 2.05271 5.65816 0
M  V30 69 H 7.3564 1.91913 2.35379 0
M  V30 70 H 4.9414 0.994099 1.11526 0
M  V30 71 H 6.8234 0.30744 4.20277 0
M  V30 72 H 5.4984 -0.36815 3.216 0
M  V30 73 H 4.4054 1.94906 3.19316 0
M  V30 74 H 5.7384 2.54753 4.21143 0
M  V30 75 N 7.3905 -1.2043 1.01659 0
M  V30 76 C 8.3535 -2.21433 0.591616 0
M  V30 77 C 9.3535 -1.57203 -0.338226 0
M  V30 78 O 10.5435 -1.73737 -0.126918 0
M  V30 79 C 7.6755 -3.40628 -0.136058 0
M  V30 80 H 8.8685 -2.60545 1.48514 0
M  V30 81 H 6.4215 -1.33893 0.806379 0
M  V30 82 H 7.1565 -3.07019 -1.04449 0
M  V30 83 H 6.9415 -3.88475 0.531917 0
M  V30 84 H 8.4315 -4.15475 -0.420735 0
M  V30 85 N 8.8686 -0.792821 -1.36206 0
M  V30 86 C 10.1146 -0.36733 -1.99446 0
M  V30 87 C 10.4476 1.05917 -1.62774 0
M  V30 88 O 9.7226 1.7324 -0.88421 0
M  V30 89 C 10.0056 -0.535044 -3.56103 0
M  V30 90 C 9.8586 -2.00548 -4.02617 0
M  V30 91 C 11.1776 0.0478191 -4.40074 0
M  V30 92 H 8.2966 -0.134941 -0.724541 0
M  V30 93 H 10.9386 -0.999794 -1.61568 0
M  V30 94 H 9.0886 0.00336329 -3.885 0
M  V30 95 H 10.7606 -2.60521 -3.80692 0
M  V30 96 H 9.0036 -2.50686 -3.54032 0
M  V30 97 H 9.6746 -2.07377 -5.11565 0
M  V30 98 H 12.1506 -0.411822 -4.14057 0
M  V30 99 H 11.0266 -0.0995336 -5.4881 0
M  V30 100 H 11.2876 1.14025 -4.27142 0
M  V30 101 N 10.3467 1.47872 -0.545128 0
M  V30 102 C 11.2767 2.32661 0.197793 0
M  V30 103 C 12.2577 1.43041 0.920504 0
M  V30 104 O 13.4427 1.71912 0.90333 0
M  V30 105 C 10.5727 3.24569 1.23582 0
M  V30 106 C 9.5267 4.23333 0.630323 0
M  V30 107 C 8.8527 5.0448 1.77211 0
M  V30 108 C 10.1527 5.20704 -0.407974 0
M  V30 109 H 11.8467 2.95024 -0.510045 0
M  V30 110 H 9.3927 1.4187 -0.246731 0
M  V30 111 H 11.3457 3.8272 1.76362 0
M  V30 112 H 10.0697 2.60236 1.97344 0
M  V30 113 H 8.7287 3.6639 0.123922 0
M  V30 114 H 8.3767 4.36561 2.49847 0
M  V30 115 H 8.0767 5.71339 1.37281 0
M  V30 116 H 9.6007 5.65487 2.3034 0
M  V30 117 H 11.0147 5.7329 0.033305 0
M  V30 118 H 9.4117 5.95699 -0.725486 0
M  V30 119 H 10.4817 4.66917 -1.30828 0
M  V30 120 N 11.8248 0.280983 1.55075 0
M  V30 121 C 12.7878 -0.590896 2.21452 0
M  V30 122 C 13.7878 -1.07682 1.19421 0
M  V30 123 O 14.9778 -0.97605 1.44288 0
M  V30 124 C 12.1098 -1.81587 2.88511 0
M  V30 125 H 13.3028 -0.0112554 2.99898 0
M  V30 126 H 10.8558 0.0316438 1.56268 0
M  V30 127 H 11.5908 -2.43587 2.14093 0
M  V30 128 H 11.3758 -1.4753 3.63287 0
M  V30 129 H 12.8658 -2.43575 3.39206 0
M  V30 130 N 13.3029 -1.57598 0.00835791 0
M  V30 131 C 14.5799 -1.82172 -0.712235 0
M  V30 132 C 14.9599 -0.887873 -1.9152 0
M  V30 133 O 14.3079 0.06146 -2.28417 0
M  V30 134 C 14.5179 -3.30875 -1.11008 0
M  V30 135 C 15.8659 -3.96826 -1.51044 0
M  V30 136 O 16.8899 -3.35248 -1.20364 0
M  V30 137 O 15.7489 -5.05318 -2.08125 0
M  V30 138 H 12.8429 -0.750435 -0.347529 0
M  V30 139 H 15.3889 -1.69665 0.0344523 0
M  V30 140 H 14.1609 -3.90481 -0.252982 0
M  V30 141 H 13.7839 -3.48412 -1.9156 0
M  V30 142 N 14.781 0.264519 -1.55364 0
M  V30 143 C 16.027 0.99646 -1.76631 0
M  V30 144 C 16.36 1.85632 -0.570478 0
M  V30 145 O 15.635 1.89647 0.43175 0
M  V30 146 C 15.918 1.87187 -3.07625 0
M  V30 147 C 15.771 1.04138 -4.37579 0
M  V30 148 C 17.09 2.85749 -3.34717 0
M  V30 149 H 14.209 0.360841 -0.642622 0
M  V30 150 H 16.851 0.268218 -1.88097 0
M  V30 151 H 15.001 2.49279 -2.9798 0
M  V30 152 H 16.673 0.440517 -4.59192 0
M  V30 153 H 14.916 0.345115 -4.32425 0
M  V30 154 H 15.587 1.68729 -5.2558 0
M  V30 155 H 18.063 2.33793 -3.4421 0
M  V30 156 H 16.939 3.44136 -4.27623 0
M  V30 157 H 17.2 3.61311 -2.54768 0
M  V30 158 N 16.2591 1.48442 0.529413 0
M  V30 159 C 17.4841 1.60406 1.31471 0
M  V30 160 C 17.9091 0.264738 1.86228 0
M  V30 161 O 17.2671 -0.763668 1.64432 0
M  V30 162 C 17.3151 2.65419 2.44101 0
M  V30 163 O 16.4191 2.22618 3.47153 0
M  V30 164 H 15.7601 0.537863 0.389357 0
M  V30 165 H 18.2901 1.94432 0.636965 0
M  V30 166 H 18.3001 2.86709 2.90279 0
M  V30 167 H 16.9751 3.62652 2.03608 0
M  V30 168 H 15.5521 2.11543 3.0709 0
M  V30 169 N 17.7372 -0.778329 1.37039 0
M  V30 170 C 18.9672 -1.56507 1.34868 0
M  V30 171 C 19.3752 -1.89072 -0.0694802 0
M  V30 172 O 18.7182 -1.51434 -1.03987 0
M  V30 173 C 18.7802 -2.90641 2.11585 0
M  V30 174 C 18.4442 -2.80746 3.60598 0
M  V30 175 C 19.4412 -2.52226 4.54618 0
M  V30 176 C 17.1262 -2.98974 4.03633 0
M  V30 177 C 19.1202 -2.42054 5.89651 0
M  V30 178 C 16.8072 -2.88423 5.38754 0
M  V30 179 C 17.8052 -2.60002 6.31576 0
M  V30 180 O 17.4932 -2.49465 7.64214 0
M  V30 181 H 17.2252 -0.491723 0.463879 0
M  V30 182 H 19.7792 -0.973053 1.80889 0
M  V30 183 H 18.0092 -3.51936 1.60243 0
M  V30 184 H 19.6982 -3.51992 2.0213 0
M  V30 185 H 20.4642 -2.37835 4.22681 0
M  V30 186 H 16.3432 -3.20099 3.31749 0
M  V30 187 H 19.8872 -2.19791 6.62071 0
M  V30 188 H 15.7842 -3.0238 5.70295 0
M  V30 189 H 16.5522 -2.64864 7.74461 0
M  V30 190 N 19.2153 -1.21501 -1.00376 0
M  V30 191 C 20.1453 -0.999478 -2.11028 0
M  V30 192 C 21.1263 0.0759671 -1.6993 0
M  V30 193 O 22.3113 -0.0841106 -1.94018 0
M  V30 194 C 19.4413 -0.564709 -3.42678 0
M  V30 195 C 18.3953 -1.58486 -3.97576 0
M  V30 196 C 17.7213 -1.00628 -5.25146 0
M  V30 197 C 19.0213 -2.97204 -4.29496 0
M  V30 198 H 20.7153 -1.92495 -2.29317 0
M  V30 199 H 18.2613 -0.92693 -1.102 0
M  V30 200 H 20.2143 -0.401091 -4.19487 0
M  V30 201 H 18.9383 0.396411 -3.24185 0
M  V30 202 H 17.5973 -1.73606 -3.22888 0
M  V30 203 H 17.2453 -0.0368439 -5.02987 0
M  V30 204 H 16.9453 -1.68771 -5.62841 0
M  V30 205 H 18.4693 -0.854015 -6.04598 0
M  V30 206 H 19.8833 -2.8552 -4.97143 0
M  V30 207 H 18.2803 -3.62372 -4.78338 0
M  V30 208 H 19.3503 -3.47956 -3.3772 0
M  V30 209 N 20.6934 1.19889 -1.02296 0
M  V30 210 C 21.6264 2.21639 -0.543282 0
M  V30 211 C 22.6044 1.57275 0.412698 0
M  V30 212 O 23.7884 1.85568 0.331198 0
M  V30 213 C 20.9154 3.38057 0.208571 0
M  V30 214 C 19.9614 4.20751 -0.697933 0
M  V30 215 S 20.7944 4.89529 -2.17075 0
M  V30 216 C 21.9504 6.09363 -1.42923 0
M  V30 217 H 22.1834 2.61984 -1.40541 0
M  V30 218 H 19.7164 1.30041 -0.832387 0
M  V30 219 H 21.6744 4.05539 0.63624 0
M  V30 220 H 20.3354 2.96159 1.04635 0
M  V30 221 H 19.5284 5.03862 -0.117831 0
M  V30 222 H 19.1304 3.58556 -1.06366 0
M  V30 223 H 21.4224 6.73742 -0.712637 0
M  V30 224 H 22.3654 6.71845 -2.23673 0
M  V30 225 H 22.7734 5.56798 -0.929327 0
M  V30 226 N 22.1715 0.800033 1.35784 0
M  V30 227 C 23.1345 0.211565 2.28221 0
M  V30 228 C 24.1345 -0.59728 1.49296 0
M  V30 229 O 25.3245 -0.416721 1.69142 0
M  V30 230 C 22.4565 -0.705846 3.33513 0
M  V30 231 H 23.6495 1.02677 2.81776 0
M  V30 232 H 21.2025 0.570211 1.45528 0
M  V30 233 H 21.9375 -1.54498 2.85133 0
M  V30 234 H 21.7225 -0.127655 3.91892 0
M  V30 235 H 23.2125 -1.11211 4.02519 0
M  V30 236 N 23.6496 -1.47581 0.552962 0
M  V30 237 C 24.5826 -2.26883 -0.244857 0
M  V30 238 C 25.5606 -1.33784 -0.924147 0
M  V30 239 O 26.7446 -1.6316 -0.943981 0
M  V30 240 C 23.8716 -3.10695 -1.34856 0
M  V30 241 C 22.9176 -4.19339 -0.778268 0
M  V30 242 S 23.7506 -5.34207 0.37184 0
M  V30 243 C 24.9066 -6.21584 -0.733779 0
M  V30 244 H 25.1396 -2.94202 0.428087 0
M  V30 245 H 22.6726 -1.50628 0.339197 0
M  V30 246 H 24.6306 -3.59555 -1.98066 0
M  V30 247 H 23.2916 -2.42746 -1.99332 0
M  V30 248 H 22.4846 -4.77695 -1.60696 0
M  V30 249 H 22.0866 -3.73338 -0.222422 0
M  V30 250 H 24.3786 -6.57676 -1.62692 0
M  V30 251 H 25.3216 -7.07851 -0.187668 0
M  V30 252 H 25.7296 -5.55125 -1.02454 0
M  V30 253 N 25.1277 -0.289203 -1.54924 0
M  V30 254 C 26.0377 0.601863 -2.26748 0
M  V30 255 C 27.0537 1.15834 -1.2984 0
M  V30 256 O 28.2297 1.18564 -1.62802 0
M  V30 257 C 25.2947 1.76299 -2.98529 0
M  V30 258 C 24.3557 1.24178 -4.10948 0
M  V30 259 C 23.5887 2.34757 -4.79296 0
M  V30 260 O 23.8117 3.54411 -4.46933 0
M  V30 261 O 22.7457 2.02115 -5.66951 0
M  V30 262 H 26.5717 0.0195879 -3.03694 0
M  V30 263 H 24.1567 -0.0560868 -1.49295 0
M  V30 264 H 26.0387 2.43973 -3.43592 0
M  V30 265 H 24.7137 2.33209 -2.24488 0
M  V30 266 H 23.6207 0.531104 -3.70311 0
M  V30 267 H 24.9537 0.718252 -4.86931 0
M  V30 268 N 26.6058 1.57591 -0.0167156 0
M  V30 269 C 27.5528 2.09462 0.969251 0
M  V30 270 C 28.5228 0.99381 1.33089 0
M  V30 271 O 29.7078 1.26726 1.42636 0
M  V30 272 C 26.8478 2.61622 2.25051 0
M  V30 273 C 25.9608 3.85666 1.94642 0
M  V30 274 C 25.0958 4.26266 3.16972 0
M  V30 275 C 24.1348 5.43101 2.82326 0
M  V30 276 N 23.2718 5.78915 3.97243 0
M  V30 277 H 28.1118 2.93428 0.519997 0
M  V30 278 H 25.6488 1.45044 0.245087 0
M  V30 279 H 27.6068 2.89949 2.99976 0
M  V30 280 H 26.2368 1.80505 2.67615 0
M  V30 281 H 25.2888 3.64145 1.10013 0
M  V30 282 H 26.6008 4.70678 1.65117 0
M  V30 283 H 25.7548 4.55963 4.00228 0
M  V30 284 H 24.4938 3.39996 3.49648 0
M  V30 285 H 23.4988 5.1311 1.97479 0
M  V30 286 H 24.7238 6.3106 2.50879 0
M  V30 287 H 22.6698 4.95602 4.29785 0
M  V30 288 H 22.5868 6.58539 3.71299 0
M  V30 289 H 23.8548 6.13212 4.81239 0
M  V30 290 N 28.0839 -0.256276 1.55502 0
M  V30 291 C 29.3089 -1.00766 1.81276 0
M  V30 292 C 29.7339 -1.78524 0.59252 0
M  V30 293 O 29.0919 -1.75413 -0.45827 0
M  V30 294 C 29.1399 -1.92869 3.04687 0
M  V30 295 O 28.2439 -3.019 2.80945 0
M  V30 296 H 27.5849 -0.287224 0.598664 0
M  V30 297 H 30.1149 -0.280109 2.02674 0
M  V30 298 H 30.1249 -2.34511 3.33869 0
M  V30 299 H 28.7999 -1.35689 3.93143 0
M  V30 300 H 27.3769 -2.64454 2.62904 0
M  V30 301 N 29.562 -1.4872 -0.521534 0
M  V30 302 C 30.509 -1.63871 -1.62527 0
M  V30 303 C 31.479 -0.480559 -1.58996 0
M  V30 304 O 32.664 -0.705085 -1.77294 0
M  V30 305 C 29.804 -1.69227 -3.00759 0
M  V30 306 C 28.917 -2.96207 -3.14461 0
M  V30 307 C 28.052 -2.92671 -4.43303 0
M  V30 308 C 27.091 -4.14318 -4.50563 0
M  V30 309 N 26.228 -4.0881 -5.70805 0
M  V30 310 H 31.068 -2.58123 -1.48918 0
M  V30 311 H 28.605 -1.28 -0.724878 0
M  V30 312 H 30.563 -1.70314 -3.80853 0
M  V30 313 H 29.193 -0.784586 -3.1312 0
M  V30 314 H 28.245 -3.04826 -2.27564 0
M  V30 315 H 29.557 -3.86192 -3.15686 0
M  V30 316 H 28.711 -2.92206 -5.31696 0
M  V30 317 H 27.45 -2.00429 -4.44612 0
M  V30 318 H 26.455 -4.15049 -3.60575 0
M  V30 319 H 27.68 -5.07729 -4.50986 0
M  V30 320 H 25.626 -3.19394 -5.72995 0
M  V30 321 H 25.543 -4.92509 -5.7356 0
M  V30 322 H 26.811 -4.12418 -6.61462 0
M  V30 323 N 31.0401 0.771051 -1.3745 0
M  V30 324 C 32.0031 1.86598 -1.33093 0
M  V30 325 C 33.0031 1.59076 -0.234845 0
M  V30 326 O 34.1931 1.67145 -0.490732 0
M  V30 327 C 31.3251 3.23747 -1.06773 0
M  V30 328 H 32.5181 1.91873 -2.30488 0
M  V30 329 H 30.0711 0.970876 -1.2249 0
M  V30 330 H 30.8061 3.24148 -0.099129 0
M  V30 331 H 30.5911 3.45115 -1.86112 0
M  V30 332 H 32.0811 4.03824 -1.06377 0
M  V30 333 N 32.5182 1.22032 0.997298 0
M  V30 334 C 33.7462 1.06841 1.7718 0
M  V30 335 C 34.1612 -0.381325 1.84909 0
M  V30 336 O 33.5182 -1.26437 1.31605 0
M  V30 337 C 33.5692 1.66814 3.20711 0
M  V30 338 O 33.2902 3.06116 3.13408 0
M  V30 339 C 34.7912 1.56838 4.14628 0
M  V30 340 H 32.0112 0.374782 0.556578 0
M  V30 341 H 34.5552 1.61532 1.2541 0
M  V30 342 H 32.7102 1.16196 3.69564 0
M  V30 343 H 33.1242 3.34926 4.0364 0
M  V30 344 H 34.5982 2.03532 5.13107 0
M  V30 345 H 35.0752 0.524155 4.36061 0
M  V30 346 H 35.6812 2.06741 3.7167 0
M  V30 347 N 33.9963 -1.19345 1.0293 0
M  V30 348 C 35.4073 -1.70725 0.755633 0
M  V30 349 C 35.7583 -1.82326 -0.724676 0
M  V30 350 O 34.8833 -1.49471 -1.56484 0
M  V30 351 C 35.4783 -3.10084 1.36503 0
M  V30 352 C 34.0373 -3.58723 1.13994 0
M  V30 353 C 33.1843 -2.35577 1.46283 0
M  V30 354 H 36.1353 -1.0418 1.19718 0
M  V30 355 H 36.1563 -3.72787 0.762217 0
M  V30 356 H 35.6683 -3.01609 2.44241 0
M  V30 357 H 33.7693 -3.72512 0.0807901 0
M  V30 358 H 33.8823 -4.42816 1.82894 0
M  V30 359 H 32.2463 -2.38935 0.88217 0
M  V30 360 H 33.0293 -2.29731 2.55105 0
M  V30 361 N 35.4744 -0.807222 -1.35358 0
M  V30 362 C 36.4374 -0.223665 -2.28106 0
M  V30 363 C 37.4374 0.589354 -1.4961 0
M  V30 364 O 38.6274 0.407745 -1.69361 0
M  V30 365 C 35.7594 0.688149 -3.33882 0
M  V30 366 H 36.9524 -1.04169 -2.81227 0
M  V30 367 H 34.5054 -0.577921 -1.45223 0
M  V30 368 H 35.2404 1.52984 -2.85948 0
M  V30 369 H 35.0254 0.10687 -3.91954 0
M  V30 370 H 36.5154 1.09075 -4.03104 0
M  V30 371 N 36.9525 1.47285 -0.560781 0
M  V30 372 C 37.9155 2.28535 0.174488 0
M  V30 373 C 38.9155 1.37153 0.839388 0
M  V30 374 O 40.1055 1.59748 0.694702 0
M  V30 375 C 37.2375 3.16934 1.25561 0
M  V30 376 H 38.4305 2.95012 -0.539262 0
M  V30 377 H 35.9835 1.53034 -0.317865 0
M  V30 378 H 36.7185 2.55157 2.00164 0
M  V30 379 H 36.5035 3.8419 0.783604 0
M  V30 380 H 37.9935 3.78143 1.77193 0
M  V30 381 N 38.4306 0.297415 1.54768 0
M  V30 382 C 39.8466 -0.0560823 1.59501 0
M  V30 383 C 40.0466 -1.52725 1.31444 0
M  V30 384 O 39.1026 -2.27947 1.08611 0
M  V30 385 C 40.4156 0.338631 2.98787 0
M  V30 386 C 41.9636 0.287097 3.11681 0
M  V30 387 C 42.4386 0.656579 4.53269 0
M  V30 388 N 43.9296 0.608977 4.59179 0
M  V30 389 C 44.6646 0.867385 5.66802 0
M  V30 390 N 44.1606 1.19157 6.82476 0
M  V30 391 N 45.9536 0.794687 5.56454 0
M  V30 392 H 38.1046 1.25624 1.71267 0
M  V30 393 H 40.3676 0.509057 0.799728 0
M  V30 394 H 40.0736 1.36263 3.2423 0
M  V30 395 H 39.9476 -0.309508 3.75928 0
M  V30 396 H 42.3346 -0.727649 2.85988 0
M  V30 397 H 42.4156 0.969809 2.36703 0
M  V30 398 H 42.0596 1.66912 4.7969 0
M  V30 399 H 41.9896 -0.0481649 5.26578 0
M  V30 400 H 44.4806 0.369198 3.76092 0
M  V30 401 H 44.7936 1.37482 7.60473 0
M  V30 402 H 43.1386 1.22958 6.84037 0
M  V30 403 H 46.3296 0.541098 4.64962 0
M  V30 404 H 46.5026 0.999445 6.40246 0
M  V30 405 N 39.9087 -1.5758 0.0250728 0
M  V30 406 C 40.8717 -2.08896 -0.943139 0
M  V30 407 C 41.8717 -1.00321 -1.25668 0
M  V30 408 O 43.0617 -1.26495 -1.19769 0
M  V30 409 C 40.1937 -2.55143 -2.26086 0
M  V30 410 H 41.3867 -2.95723 -0.498775 0
M  V30 411 H 38.9397 -1.54703 -0.222888 0
M  V30 412 H 39.6747 -1.71633 -2.75159 0
M  V30 413 H 39.4597 -3.34461 -2.04641 0
M  V30 414 H 40.9497 -2.95083 -2.95492 0
M  V30 415 N 41.3868 0.248026 -1.55636 0
M  V30 416 C 42.6118 0.998028 -1.81808 0
M  V30 417 C 43.0368 1.78207 -0.601979 0
M  V30 418 O 42.3948 1.75653 0.448961 0
M  V30 419 C 42.4428 1.9125 -3.05705 0
M  V30 420 O 41.5468 3.00406 -2.82542 0
M  V30 421 H 40.8878 0.284045 -0.600179 0
M  V30 422 H 43.4178 0.269357 -2.02819 0
M  V30 423 H 43.4278 2.32737 -3.35108 0
M  V30 424 H 42.1028 1.33602 -3.93857 0
M  V30 425 H 40.6798 2.63056 -2.64303 0
M  V30 426 N 42.8649 1.48995 0.513639 0
M  V30 427 C 43.8119 1.6473 1.61656 0
M  V30 428 C 44.7819 0.488984 1.58739 0
M  V30 429 O 45.9669 0.714478 1.76918 0
M  V30 430 C 43.1069 1.7082 2.99858 0
M  V30 431 C 42.2199 2.9787 3.12885 0
M  V30 432 C 41.3549 2.95017 4.41744 0
M  V30 433 C 40.3939 4.16702 4.48359 0
M  V30 434 N 39.5309 4.11832 5.68629 0
M  V30 435 H 44.3709 2.58909 1.47547 0
M  V30 436 H 41.9079 1.28382 0.71808 0
M  V30 437 H 43.8659 1.72331 3.79944 0
M  V30 438 H 42.4959 0.801181 3.12699 0
M  V30 439 H 41.5479 3.06029 2.25944 0
M  V30 440 H 42.8599 3.8786 3.13633 0
M  V30 441 H 42.0139 2.95021 5.30139 0
M  V30 442 H 40.7529 2.02784 4.43542 0
M  V30 443 H 39.7579 4.16955 3.58369 0
M  V30 444 H 40.9829 5.10113 4.48287 0
M  V30 445 H 38.9289 3.22428 5.71293 0
M  V30 446 H 38.8459 4.95543 5.7094 0
M  V30 447 H 40.1139 4.1592 6.59266 0
M  V30 448 N 44.343 -0.763751 1.37857 0
M  V30 449 C 45.29 -1.87726 1.34267 0
M  V30 450 C 46.26 -1.64807 0.206879 0
M  V30 451 O 47.445 -1.86613 0.397508 0
M  V30 452 C 44.585 -3.24896 1.16346 0
M  V30 453 C 43.698 -3.59716 2.39225 0
M  V30 454 C 42.833 -4.86137 2.14114 0
M  V30 455 C 41.872 -5.13711 3.32817 0
M  V30 456 N 41.009 -6.31323 3.07206 0
M  V30 457 H 45.849 -1.90129 2.29466 0
M  V30 458 H 43.386 -0.929433 1.14017 0
M  V30 459 H 45.344 -4.04036 1.03975 0
M  V30 460 H 43.974 -3.21847 0.247909 0
M  V30 461 H 43.026 -2.75498 2.62307 0
M  V30 462 H 44.338 -3.76027 3.27728 0
M  V30 463 H 43.492 -5.73198 1.9882 0
M  V30 464 H 42.231 -4.71945 1.22961 0
M  V30 465 H 41.236 -4.25123 3.48641 0
M  V30 466 H 42.461 -5.29807 4.24832 0
M  V30 467 H 40.407 -6.18474 2.1869 0
M  V30 468 H 40.324 -6.48087 3.89254 0
M  V30 469 H 41.592 -7.213 2.95546 0
M  V30 470 N 45.8211 -1.22559 -0.990812 0
M  V30 471 C 47.0701 -1.04553 -1.72486 0
M  V30 472 C 47.3831 0.419349 -1.91052 0
M  V30 473 O 48.5891 0.719121 -2.61803 0
M  V30 474 C 47.0451 -1.82231 -3.10355 0
M  V30 475 C 46.6531 -3.32981 -2.99713 0
M  V30 476 C 48.3971 -1.7268 -3.87791 0
M  V30 477 C 46.3041 -4.03091 -4.32748 0
M  V30 478 H 45.2341 -0.387614 -0.646739 0
M  V30 479 H 47.8851 -1.46429 -1.10593 0
M  V30 480 H 46.2671 -1.33155 -3.72942 0
M  V30 481 H 47.4411 -3.89466 -2.46278 0
M  V30 482 H 45.7561 -3.43231 -2.35758 0
M  V30 483 H 48.3531 -2.22381 -4.86262 0
M  V30 484 H 48.6961 -0.687607 -4.10582 0
M  V30 485 H 49.2291 -2.1931 -3.31885 0
M  V30 486 H 45.9681 -5.07273 -4.15156 0
M  V30 487 H 45.4881 -3.51394 -4.86089 0
M  V30 488 H 47.1671 -4.08804 -5.01486 0
M  V30 489 N 47.2992 1.18797 -1.03562 0
M  V30 490 C 48.2292 2.24472 -0.643019 0
M  V30 491 C 49.2102 1.66433 0.351283 0
M  V30 492 O 50.3952 1.92803 0.232505 0
M  V30 493 C 47.5252 3.473 4.24935e-05 0
M  V30 494 C 46.4792 4.18055 -0.917257 0
M  V30 495 C 45.8052 5.34519 -0.138941 0
M  V30 496 C 47.1052 4.72109 -2.23407 0
M  V30 497 H 48.7992 2.57566 -1.52643 0
M  V30 498 H 46.3452 1.23806 -0.735394 0
M  V30 499 H 48.2982 4.20426 0.286383 0
M  V30 500 H 47.0222 3.13424 0.918299 0
M  V30 501 H 45.6812 3.46821 -1.1879 0
M  V30 502 H 45.3292 4.96891 0.781562 0
M  V30 503 H 45.0292 5.82794 -0.750005 0
M  V30 504 H 46.5532 6.10438 0.1405 0
M  V30 505 H 47.9672 5.36955 -2.00879 0
M  V30 506 H 46.3642 5.30897 -2.79765 0
M  V30 507 H 47.4342 3.89807 -2.88407 0
M  V30 508 N 48.7773 0.814389 1.34928 0
M  V30 509 C 49.7073 0.244827 2.32213 0
M  V30 510 C 50.6883 -0.634024 1.57842 0
M  V30 511 O 51.8733 -0.562676 1.8587 0
M  V30 512 C 49.0033 -0.601106 3.42058 0
M  V30 513 C 47.9573 0.179896 4.27622 0
M  V30 514 C 47.2833 -0.788237 5.28858 0
M  V30 515 C 48.5833 1.38329 5.03649 0
M  V30 516 H 50.2773 1.05763 2.80097 0
M  V30 517 H 47.8233 0.510029 1.34665 0
M  V30 518 H 49.7763 -1.00968 4.09125 0
M  V30 519 H 48.5003 -1.44688 2.92802 0
M  V30 520 H 47.1593 0.569739 3.62146 0
M  V30 521 H 46.8073 -1.62973 4.75866 0
M  V30 522 H 46.5073 -0.269942 5.8698 0
M  V30 523 H 48.0313 -1.19485 5.98795 0
M  V30 524 H 49.4453 1.04918 5.63618 0
M  V30 525 H 47.8423 1.83662 5.71304 0
M  V30 526 H 48.9123 2.16592 4.33839 0
M  V30 527 N 50.2554 -1.46986 0.568584 0
M  V30 528 C 51.6664 -1.86188 0.138219 0
M  V30 529 C 52.0174 -1.47388 -1.29504 0
M  V30 530 O 51.1424 -0.88219 -1.97602 0
M  V30 531 C 51.7374 -3.3792 0.244065 0
M  V30 532 C 50.2964 -3.76171 -0.131335 0
M  V30 533 C 49.4434 -2.71027 0.586465 0
M  V30 534 H 52.3944 -1.38342 0.777645 0
M  V30 535 H 52.4154 -3.76729 -0.534351 0
M  V30 536 H 51.9274 -3.66128 1.28731 0
M  V30 537 H 50.0284 -3.5358 -1.17526 0
M  V30 538 H 50.1414 -4.78523 0.235146 0
M  V30 539 H 48.5054 -2.54684 0.0282722 0
M  V30 540 H 49.2884 -3.02077 1.63109 0
M  V30 541 N 51.7335 -0.305618 -1.54608 0
M  V30 542 C 52.6435 0.57778 -2.27374 0
M  V30 543 C 53.6595 1.14451 -1.31061 0
M  V30 544 O 54.8355 1.16831 -1.6405 0
M  V30 545 C 51.9005 1.73123 -3.00382 0
M  V30 546 C 50.9615 1.19812 -4.12242 0
M  V30 547 C 50.1945 2.2966 -4.81759 0
M  V30 548 O 50.4175 3.49651 -4.50666 0
M  V30 549 O 49.3515 1.96091 -5.69062 0
M  V30 550 H 53.1775 -0.012624 -3.03697 0
M  V30 551 H 50.7625 -0.0719184 -1.49227 0
M  V30 552 H 52.6445 2.40315 -3.4616 0
M  V30 553 H 51.3195 2.30815 -2.26949 0
M  V30 554 H 50.2265 0.491798 -3.70853 0
M  V30 555 H 51.5595 0.666566 -4.87666 0
M  V30 556 N 53.2116 1.57565 -0.0334293 0
M  V30 557 C 54.6226 1.79746 0.504798 0
M  V30 558 C 54.9736 0.944091 1.71992 0
M  V30 559 O 54.0986 0.155694 2.15839 0
M  V30 560 C 54.6936 3.25997 0.922567 0
M  V30 561 C 53.2526 3.49159 1.40588 0
M  V30 562 C 52.3996 2.74785 0.372633 0
M  V30 563 H 55.3506 1.56565 -0.259436 0
M  V30 564 H 55.3716 3.35945 1.78666 0
M  V30 565 H 54.8836 3.88081 0.0379825 0
M  V30 566 H 52.9846 2.92332 2.31025 0
M  V30 567 H 53.0976 4.57873 1.41028 0
M  V30 568 H 51.4616 2.40391 0.841672 0
M  V30 569 H 52.2446 3.39587 -0.503559 0
M  V30 570 N 54.6897 -0.239769 1.55765 0
M  V30 571 C 55.9147 -0.988373 1.82335 0
M  V30 572 C 56.3397 -1.77886 0.611421 0
M  V30 573 O 55.6977 -1.75889 -0.439639 0
M  V30 574 C 55.7457 -1.89627 3.06715 0
M  V30 575 O 54.8497 -2.98904 2.84131 0
M  V30 576 H 54.1907 -0.280858 0.601677 0
M  V30 577 H 56.7207 -0.258597 2.02959 0
M  V30 578 H 56.7307 -2.30957 3.36338 0
M  V30 579 H 55.4057 -1.31511 3.9456 0
M  V30 580 H 53.9827 -2.61651 2.65694 0
M  V30 581 N 56.1678 -1.49265 -0.50573 0
M  V30 582 C 57.4168 -1.57761 -1.25675 0
M  V30 583 C 57.7298 -0.267371 -1.93764 0
M  V30 584 O 58.9358 -0.230827 -2.70517 0
M  V30 585 C 57.3918 -2.78332 -2.28165 0
M  V30 586 C 56.9998 -4.16096 -1.66037 0
M  V30 587 C 58.7438 -2.96155 -3.04125 0
M  V30 588 C 56.6508 -5.27895 -2.6661 0
M  V30 589 H 55.5808 -0.587391 -0.472745 0
M  V30 590 H 58.2318 -1.75644 -0.53118 0
M  V30 591 H 56.6138 -2.53934 -3.03865 0
M  V30 592 H 57.7878 -4.50612 -0.963622 0
M  V30 593 H 56.1028 -4.03591 -1.02484 0
M  V30 594 H 58.6998 -3.76849 -3.79327 0
M  V30 595 H 59.0428 -2.06534 -3.61455 0
M  V30 596 H 59.5758 -3.2057 -2.35541 0
M  V30 597 H 56.3148 -6.1956 -2.14068 0
M  V30 598 H 55.8348 -4.97839 -3.34539 0
M  V30 599 H 57.5138 -5.57031 -3.29129 0
M  V30 600 N 57.6459 0.756429 -1.3826 0
M  V30 601 C 59.0619 1.0591 -1.19395 0
M  V30 602 C 59.2619 2.01459 -0.0406567 0
M  V30 603 O 58.3179 2.44909 0.614467 0
M  V30 604 C 59.6309 1.64191 -2.51916 0
M  V30 605 C 61.1789 1.76376 -2.58574 0
M  V30 606 C 61.6539 2.38069 -3.91264 0
M  V30 607 N 63.1449 2.45503 -3.92788 0
M  V30 608 C 63.8799 2.94126 -4.92217 0
M  V30 609 N 63.3759 3.42805 -6.02043 0
M  V30 610 N 65.1689 2.9314 -4.7961 0
M  V30 611 H 57.3199 0.122313 -2.12048 0
M  V30 612 H 59.5829 0.116892 -0.940766 0
M  V30 613 H 59.2889 1.01451 -3.3675 0
M  V30 614 H 59.1629 2.6329 -2.70108 0
M  V30 615 H 61.5499 2.38244 -1.74137 0
M  V30 616 H 61.6309 0.759894 -2.44252 0
M  V30 617 H 61.2749 1.76835 -4.76121 0
M  V30 618 H 61.2049 3.39091 -4.02895 0
M  V30 619 H 63.6959 2.1107 -3.13461 0
M  V30 620 H 64.0089 3.78354 -6.73846 0
M  V30 621 H 62.3539 3.4087 -6.05667 0
M  V30 622 H 65.5449 2.54419 -3.92923 0
M  V30 623 H 65.7179 3.30721 -5.5725 0
M  V30 624 N 59.124 1.23083 0.984299 0
M  V30 625 C 60.349 1.088 1.76571 0
M  V30 626 C 60.774 -0.356657 1.84688 0
M  V30 627 O 60.132 -1.25788 1.30565 0
M  V30 628 C 60.18 1.71371 3.17277 0
M  V30 629 O 59.284 0.973213 4.00752 0
M  V30 630 H 58.625 0.381599 0.543395 0
M  V30 631 H 61.155 1.63057 1.23587 0
M  V30 632 H 61.165 1.76449 3.67872 0
M  V30 633 H 59.84 2.76493 3.10684 0
M  V30 634 H 58.417 0.999078 3.59267 0
M  V30 635 N 60.6021 -1.18246 1.0419 0
M  V30 636 C 61.8481 -1.88536 0.747122 0
M  V30 637 C 62.1811 -1.80223 -0.723409 0
M  V30 638 O 61.4561 -1.20337 -1.52804 0
M  V30 639 C 61.7391 -3.38968 1.21544 0
M  V30 640 C 61.5921 -3.56084 2.74816 0
M  V30 641 C 62.9111 -4.32648 0.806482 0
M  V30 642 H 60.0301 -0.684619 0.272883 0
M  V30 643 H 62.6721 -1.39113 1.29413 0
M  V30 644 H 60.8221 -3.8119 0.750081 0
M  V30 645 H 62.4941 -3.22946 3.29399 0
M  V30 646 H 60.7371 -2.98699 3.14582 0
M  V30 647 H 61.4081 -4.61639 3.02644 0
M  V30 648 H 63.8841 -3.98211 1.20695 0
M  V30 649 H 62.7601 -5.36462 1.1619 0
M  V30 650 H 63.0211 -4.41146 -0.29029 0
M  V30 651 N 62.0802 -0.821533 -1.34494 0
M  V30 652 C 63.0132 -0.187704 -2.27427 0
M  V30 653 C 63.9912 0.65507 -1.48821 0
M  V30 654 O 65.1752 0.619111 -1.78043 0
M  V30 655 C 62.3022 0.737996 -3.30562 0
M  V30 656 C 61.3482 -0.0270713 -4.26491 0
M  V30 657 S 62.1812 -1.37329 -5.17592 0
M  V30 658 C 63.3372 -0.452427 -6.24263 0
M  V30 659 H 63.5702 -0.975598 -2.80837 0
M  V30 660 H 61.1032 -0.61736 -1.4152 0
M  V30 661 H 63.0612 1.26654 -3.90473 0
M  V30 662 H 61.7222 1.4994 -2.76001 0
M  V30 663 H 60.9152 0.6766 -4.99438 0
M  V30 664 H 60.5172 -0.48612 -3.70827 0
M  V30 665 H 62.8092 0.356557 -6.76561 0
M  V30 666 H 63.7522 -1.15153 -6.98674 0
M  V30 667 H 64.1602 -0.0414755 -5.64485 0
M  V30 668 N 63.5583 1.46682 -0.576371 0
M  V30 669 C 64.4903 2.28341 0.198231 0
M  V30 670 C 65.5033 1.38141 0.861453 0
M  V30 671 O 66.6923 1.62797 0.732082 0
M  V30 672 C 63.7923 3.12986 1.29972 0
M  V30 673 C 62.9653 4.31271 0.729639 0
M  V30 674 C 62.0243 4.97363 1.71803 0
M  V30 675 O 61.0503 5.55156 1.25658 0
M  V30 676 N 62.2523 4.93796 3.05198 0
M  V30 677 H 65.0173 2.9546 -0.502324 0
M  V30 678 H 62.5783 1.56525 -0.413715 0
M  V30 679 H 64.5703 3.54066 1.96008 0
M  V30 680 H 63.1403 2.47984 1.90323 0
M  V30 681 H 62.3603 3.94052 -0.108012 0
M  V30 682 H 63.6483 5.07739 0.328438 0
M  V30 683 H 63.0463 4.48077 3.45317 0
M  V30 684 H 61.6033 5.38837 3.6674 0
M  V30 685 N 65.0364 0.313813 1.54444 0
M  V30 686 C 65.9834 -0.55655 2.23989 0
M  V30 687 C 66.9534 -1.11943 1.22711 0
M  V30 688 O 68.1384 -1.16158 1.51367 0
M  V30 689 C 65.2784 -1.71635 2.99392 0
M  V30 690 C 64.3914 -1.18364 4.15468 0
M  V30 691 C 63.5264 -2.30834 4.78424 0
M  V30 692 C 62.5654 -1.74762 5.86622 0
M  V30 693 N 61.7024 -2.80855 6.43479 0
M  V30 694 H 66.5424 0.0430893 2.97969 0
M  V30 695 H 64.0794 0.0330359 1.47063 0
M  V30 696 H 66.0374 -2.39868 3.41349 0
M  V30 697 H 64.6674 -2.28742 2.27765 0
M  V30 698 H 63.7194 -0.393163 3.78363 0
M  V30 699 H 65.0314 -0.733262 4.93381 0
M  V30 700 H 64.1854 -3.0699 5.23299 0
M  V30 701 H 62.9244 -2.79204 3.99871 0
M  V30 702 H 61.9294 -0.970995 5.41158 0
M  V30 703 H 63.1544 -1.2728 6.67066 0
M  V30 704 H 61.1004 -3.28535 5.67804 0
M  V30 705 H 61.0174 -2.40351 7.16776 0
M  V30 706 H 62.2854 -3.5687 6.93011 0
M  V30 707 N 66.5145 -1.57545 0.0417849 0
M  V30 708 C 67.7445 -1.96339 -0.642995 0
M  V30 709 C 68.1525 -0.917536 -1.65463 0
M  V30 710 O 67.4955 0.107747 -1.83384 0
M  V30 711 C 67.5575 -3.31333 -1.39494 0
M  V30 712 C 67.2215 -4.53796 -0.540204 0
M  V30 713 C 68.2185 -5.19553 0.189806 0
M  V30 714 C 65.9035 -5.0006 -0.473886 0
M  V30 715 C 67.8975 -6.29904 0.974674 0
M  V30 716 C 65.5845 -6.10289 0.314677 0
M  V30 717 C 66.5825 -6.75072 1.03765 0
M  V30 718 O 66.2705 -7.83183 1.81327 0
M  V30 719 H 66.0025 -0.651241 -0.181277 0
M  V30 720 H 68.5565 -2.05148 0.101665 0
M  V30 721 H 66.7865 -3.19052 -2.18502 0
M  V30 722 H 68.4755 -3.54942 -1.96904 0
M  V30 723 H 69.2415 -4.84774 0.147981 0
M  V30 724 H 65.1205 -4.49433 -1.0262 0
M  V30 725 H 68.6645 -6.80401 1.5395 0
M  V30 726 H 64.5615 -6.44506 0.358174 0
M  V30 727 H 65.3295 -7.99913 1.73438 0
M  V30 728 N 67.9926 0.231505 -1.5589 0
M  V30 729 C 68.9226 1.29022 -1.94617 0
M  V30 730 C 69.9036 1.4941 -0.813067 0
M  V30 731 O 71.0886 1.6176 -1.07459 0
M  V30 732 C 68.2186 2.64199 -2.25424 0
M  V30 733 C 67.1726 2.58484 -3.41131 0
M  V30 734 C 66.4986 3.97599 -3.57518 0
M  V30 735 C 67.7986 2.1413 -4.76388 0
M  V30 736 H 69.4926 0.968563 -2.83301 0
M  V30 737 H 67.0386 0.464479 -1.36303 0
M  V30 738 H 68.9916 3.38413 -2.51107 0
M  V30 739 H 67.7156 2.98032 -1.33583 0
M  V30 740 H 66.3746 1.86727 -3.15481 0
M  V30 741 H 66.0226 4.28723 -2.6307 0
M  V30 742 H 65.7226 3.94659 -4.35337 0
M  V30 743 H 67.2466 4.7349 -3.85538 0
M  V30 744 H 68.6606 2.78083 -5.01341 0
M  V30 745 H 67.0576 2.2227 -5.57419 0
M  V30 746 H 68.1276 1.09331 -4.72414 0
M  V30 747 N 69.4707 1.49531 0.497807 0
M  V30 748 C 70.3807 1.69176 1.62532 0
M  V30 749 C 71.3967 0.5744 1.64246 0
M  V30 750 O 72.5727 0.849497 1.82608 0
M  V30 751 C 69.6377 1.75695 2.98885 0
M  V30 752 C 68.6987 2.9929 3.07773 0
M  V30 753 C 67.9317 3.05488 4.37622 0
M  V30 754 O 68.1547 2.19192 5.26603 0
M  V30 755 O 67.0887 3.9798 4.51548 0
M  V30 756 H 70.9147 2.647 1.48887 0
M  V30 757 H 68.4997 1.3331 0.674441 0
M  V30 758 H 70.3817 1.82317 3.79919 0
M  V30 759 H 69.0567 0.8335 3.12785 0
M  V30 760 H 67.9637 2.98183 2.25915 0
M  V30 761 H 69.2967 3.91125 2.98801 0
M  V30 762 N 70.9488 -0.749086 1.3866 0
M  V30 763 C 72.2258 -1.4992 1.25632 0
M  V30 764 C 72.6058 -2.10633 -0.140317 0
M  V30 765 O 71.9538 -1.97437 -1.15025 0
M  V30 766 C 72.1638 -2.56195 2.36992 0
M  V30 767 C 73.5118 -3.22972 2.75634 0
M  V30 768 O 74.5358 -2.66502 2.36337 0
M  V30 769 O 73.3948 -4.25122 3.43415 0
M  V30 770 H 70.4888 -0.665067 0.491544 0
M  V30 771 H 73.0348 -0.784113 1.50498 0
M  V30 772 H 71.8068 -2.09612 3.30422 0
M  V30 773 H 71.4298 -3.35279 2.13714 0
M  V30 774 N 72.4269 -1.23603 -0.977757 0
M  V30 775 C 73.8429 -0.999251 -1.24447 0
M  V30 776 C 74.0429 0.298053 -1.99283 0
M  V30 777 O 73.0989 1.01681 -2.31122 0
M  V30 778 C 74.4119 -2.20784 -2.04144 0
M  V30 779 C 75.9599 -2.25303 -2.17273 0
M  V30 780 C 76.4349 -3.45755 -3.00362 0
M  V30 781 N 77.9259 -3.4601 -3.07947 0
M  V30 782 C 78.6609 -4.35868 -3.72568 0
M  V30 783 N 78.1569 -5.35966 -4.38991 0
M  V30 784 N 79.9499 -4.23605 -3.6948 0
M  V30 785 H 72.1009 -2.06986 -0.476483 0
M  V30 786 H 74.3639 -0.907801 -0.273134 0
M  V30 787 H 74.0699 -3.14945 -1.56533 0
M  V30 788 H 73.9439 -2.22085 -3.04891 0
M  V30 789 H 76.3309 -1.3168 -2.64092 0
M  V30 790 H 76.4119 -2.28033 -1.15907 0
M  V30 791 H 76.0559 -4.39687 -2.5424 0
M  V30 792 H 75.9859 -3.40266 -4.01904 0
M  V30 793 H 78.4769 -2.73588 -2.60688 0
M  V30 794 H 78.7899 -6.00783 -4.86086 0
M  V30 795 H 77.1349 -5.39863 -4.37691 0
M  V30 796 H 80.3259 -3.44647 -3.16759 0
M  V30 797 H 80.4989 -4.93836 -4.1956 0
M  V30 798 N 73.905 1.17692 -1.04816 0
M  V30 799 C 75.153 1.87488 -0.754497 0
M  V30 800 C 75.474 1.81205 0.720407 0
M  V30 801 O 74.744 1.23544 1.52032 0
M  V30 802 H 73.324 0.694101 -0.276102 0
M  V30 803 H 75.986 1.42793 -1.32651 0
M  V30 804 H 75.082 2.93328 -1.06606 0
M  V30 805 N 75.3831 0.828654 1.34056 0
M  V30 806 C 76.2931 0.256725 2.33191 0
M  V30 807 C 77.3091 -0.611898 1.62886 0
M  V30 808 O 78.4851 -0.51844 1.94613 0
M  V30 809 C 75.5501 -0.567238 3.42028 0
M  V30 810 C 74.6111 0.324458 4.28072 0
M  V30 811 C 73.8441 -0.460274 5.31712 0
M  V30 812 O 74.0671 -1.693 5.44696 0
M  V30 813 O 73.0011 0.160391 6.01686 0
M  V30 814 H 76.8271 1.07739 2.83947 0
M  V30 815 H 74.4121 0.59093 1.37217 0
M  V30 816 H 76.2941 -1.03582 4.08471 0
M  V30 817 H 74.9691 -1.36513 2.93506 0
M  V30 818 H 73.8761 0.840659 3.64532 0
M  V30 819 H 75.2091 1.08685 4.8005 0
M  V30 820 N 76.8612 -1.46375 0.584142 0
M  V30 821 C 78.1072 -2.02678 0.0703716 0
M  V30 822 C 78.4402 -1.4545 -1.28678 0
M  V30 823 O 77.7152 -0.62014 -1.84349 0
M  V30 824 C 77.9982 -3.60099 0.00614674 0
M  V30 825 C 77.8512 -4.27709 1.3923 0
M  V30 826 C 79.1702 -4.34598 -0.693742 0
M  V30 827 H 76.2892 -0.736504 0.027047 0
M  V30 828 H 78.9312 -1.74501 0.751615 0
M  V30 829 H 77.0812 -3.84236 -0.574009 0
M  V30 830 H 78.7532 -4.14832 2.01773 0
M  V30 831 H 76.9962 -3.87016 1.95962 0
M  V30 832 H 77.6672 -5.36478 1.29982 0
M  V30 833 H 80.1432 -4.15615 -0.200869 0
M  V30 834 H 79.0192 -5.44318 -0.707714 0
M  V30 835 H 79.2802 -4.05759 -1.75533 0
M  V30 836 N 78.3393 -0.321999 -1.54275 0
M  V30 837 C 79.5673 0.283052 -2.04955 0
M  V30 838 C 79.9823 1.45904 -1.19823 0
M  V30 839 O 79.3393 1.81063 -0.228545 0
M  V30 840 C 79.3903 0.719028 -3.54277 0
M  V30 841 O 79.1113 -0.410175 -4.36176 0
M  V30 842 C 80.6123 1.38705 -4.21041 0
M  V30 843 H 77.8323 0.0584616 -0.668448 0
M  V30 844 H 80.3763 -0.467734 -1.99079 0
M  V30 845 H 78.5313 1.41979 -3.60445 0
M  V30 846 H 78.9453 -0.0669416 -5.24457 0
M  V30 847 H 80.4193 1.64306 -5.2698 0
M  V30 848 H 80.8963 2.33385 -3.72059 0
M  V30 849 H 81.5023 0.728906 -4.19007 0
M  V30 850 N 79.8174 1.5752 -0.0501392 0
M  V30 851 C 81.0644 1.9265 0.623874 0
M  V30 852 C 81.3924 0.928411 1.70912 0
M  V30 853 O 80.6474 -0.0594525 1.9561 0
M  V30 854 C 80.9464 3.34467 1.25963 0
M  V30 855 C 80.6124 4.49883 0.302689 0
M  V30 856 C 79.2744 4.81184 0.0393636 0
M  V30 857 C 81.6264 5.20002 -0.353205 0
M  V30 858 C 78.9544 5.79951 -0.887308 0
M  V30 859 C 81.3064 6.1976 -1.26806 0
M  V30 860 C 79.9704 6.49491 -1.54007 0
M  V30 861 H 79.2404 0.704957 0.228292 0
M  V30 862 H 81.8874 1.91146 -0.116398 0
M  V30 863 H 80.1924 3.32333 2.07514 0
M  V30 864 H 81.8894 3.58928 1.78806 0
M  V30 865 H 78.4794 4.25457 0.518109 0
M  V30 866 H 82.6634 4.96033 -0.162854 0
M  V30 867 H 77.9194 6.01322 -1.10553 0
M  V30 868 H 82.0934 6.73205 -1.78236 0
M  V30 869 H 79.7204 7.25837 -2.25976 0
M  V30 870 N 81.2955 -0.223234 1.56011 0
M  V30 871 C 82.2055 -1.29766 1.95443 0
M  V30 872 C 83.2215 -1.51373 0.858028 0
M  V30 873 O 84.3975 -1.64536 1.16146 0
M  V30 874 C 81.4625 -2.62772 2.26167 0
M  V30 875 C 80.5235 -2.49482 3.49367 0
M  V30 876 C 79.7565 -3.76145 3.78616 0
M  V30 877 O 79.9795 -4.79087 3.09568 0
M  V30 878 O 78.9135 -3.73358 4.72109 0
M  V30 879 H 82.7395 -0.99309 2.87004 0
M  V30 880 H 80.3245 -0.425958 1.43199 0
M  V30 881 H 82.2065 -3.41327 2.47131 0
M  V30 882 H 80.8815 -2.92913 1.37781 0
M  V30 883 H 79.7885 -1.69133 3.33684 0
M  V30 884 H 81.1215 -2.2428 4.38131 0
M  V30 885 N 82.7736 -1.49793 -0.48987 0
M  V30 886 C 83.7206 -1.67281 -1.59014 0
M  V30 887 C 84.6906 -0.514177 -1.57941 0
M  V30 888 O 85.8756 -0.742533 -1.75759 0
M  V30 889 C 83.0156 -1.75569 -2.97102 0
M  V30 890 C 82.1286 -3.0281 -3.08107 0
M  V30 891 C 81.2636 -3.02008 -4.36995 0
M  V30 892 C 80.3026 -4.23782 -4.41673 0
M  V30 893 N 79.4396 -4.20826 -5.62005 0
M  V30 894 H 84.2796 -2.61224 -1.43409 0
M  V30 895 H 81.8166 -1.29508 -0.697565 0
M  V30 896 H 83.7746 -1.78354 -3.77155 0
M  V30 897 H 82.4046 -0.850827 -3.11385 0
M  V30 898 H 81.4566 -3.09584 -2.21047 0
M  V30 899 H 82.7686 -3.92801 -3.07423 0
M  V30 900 H 81.9226 -3.03418 -5.25378 0
M  V30 901 H 80.6616 -2.09815 -4.4026 0
M  V30 902 H 79.6666 -4.22604 -3.5169 0
M  V30 903 H 80.8916 -5.17181 -4.40115 0
M  V30 904 H 78.8376 -3.31476 -5.66091 0
M  V30 905 H 78.7546 -5.04564 -5.62984 0
M  V30 906 H 80.0226 -4.26355 -6.52565 0
M  V30 907 N 84.2517 0.741722 -1.39055 0
M  V30 908 C 85.5007 1.49656 -1.35225 0
M  V30 909 C 85.8137 1.95533 0.0512708 0
M  V30 910 O 87.0197 2.7067 0.212138 0
M  V30 911 C 85.4757 2.70389 -2.37525 0
M  V30 912 C 85.0837 2.31489 -3.83558 0
M  V30 913 C 86.8277 3.48236 -2.42759 0
M  V30 914 C 84.7347 3.48903 -4.77515 0
M  V30 915 H 83.6647 0.56197 -0.502699 0
M  V30 916 H 86.3157 0.809727 -1.64668 0
M  V30 917 H 84.6977 3.41113 -2.01142 0
M  V30 918 H 85.8717 1.68354 -4.28945 0
M  V30 919 H 84.1867 1.66749 -3.81554 0
M  V30 920 H 86.7837 4.35558 -3.1015 0
M  V30 921 H 87.1267 3.90229 -1.45008 0
M  V30 922 H 87.6597 2.84535 -2.78002 0
M  V30 923 H 84.3987 3.11966 -5.76504 0
M  V30 924 H 83.9187 4.11041 -4.36813 0
M  V30 925 H 85.5977 4.15328 -4.96096 0
M  V30 926 N 85.7298 1.2412 0.971189 0
M  V30 927 C 86.9768 1.07881 1.71371 0
M  V30 928 C 87.3048 -0.382901 1.90694 0
M  V30 929 O 86.5598 -1.29945 1.46331 0
M  V30 930 C 86.8588 1.75983 3.11071 0
M  V30 931 C 86.5248 3.25909 3.11599 0
M  V30 932 C 85.1868 3.66813 3.11451 0
M  V30 933 C 87.5388 4.21771 3.062 0
M  V30 934 C 84.8668 5.02021 3.03631 0
M  V30 935 C 87.2188 5.56982 2.99923 0
M  V30 936 C 85.8828 5.97237 2.98102 0
M  V30 937 H 85.1528 0.394764 0.62709 0
M  V30 938 H 87.7998 1.54176 1.13587 0
M  V30 939 H 86.1048 1.22072 3.72298 0
M  V30 940 H 87.8018 1.60887 3.6731 0
M  V30 941 H 84.3918 2.93353 3.12477 0
M  V30 942 H 88.5758 3.91172 3.05447 0
M  V30 943 H 83.8318 5.32411 3.0058 0
M  V30 944 H 88.0058 6.30969 2.94704 0
M  V30 945 H 85.6328 7.01967 2.91798 0
M  V30 946 N 87.2079 -1.17134 1.05439 0
M  V30 947 C 88.4329 -1.91913 0.786396 0
M  V30 948 C 88.8579 -1.7643 -0.652234 0
M  V30 949 O 88.2159 -1.08372 -1.45345 0
M  V30 950 C 88.2639 -3.40921 1.17497 0
M  V30 951 O 87.3679 -4.11244 0.308589 0
M  V30 952 H 86.7089 -0.598215 0.288158 0
M  V30 953 H 89.2389 -1.48457 1.4079 0
M  V30 954 H 89.2489 -3.91668 1.14281 0
M  V30 955 H 87.9239 -3.5151 2.22292 0
M  V30 956 H 86.5009 -3.70731 0.40157 0
M  V30 957 N 88.686 -0.835752 -1.33615 0
M  V30 958 C 89.618 -0.224151 -2.28101 0
M  V30 959 C 90.631 0.593331 -1.51603 0
M  V30 960 O 91.82 0.420911 -1.73466 0
M  V30 961 C 88.92 0.703309 -3.31522 0
M  V30 962 C 88.093 -0.0741528 -4.37337 0
M  V30 963 C 87.152 0.776176 -5.20444 0
M  V30 964 O 86.178 0.216506 -5.68788 0
M  V30 965 N 87.38 2.09401 -5.41416 0
M  V30 966 H 90.145 -1.03598 -2.81225 0
M  V30 967 H 87.706 -0.69392 -1.46275 0
M  V30 968 H 89.698 1.27707 -3.84022 0
M  V30 969 H 88.268 1.41585 -2.78698 0
M  V30 970 H 87.488 -0.82928 -3.85378 0
M  V30 971 H 88.776 -0.608863 -5.05144 0
M  V30 972 H 88.174 2.57229 -5.03835 0
M  V30 973 H 86.731 2.61633 -5.96985 0
M  V30 974 N 90.1641 1.46063 -0.591896 0
M  V30 975 C 91.1111 2.30399 0.136069 0
M  V30 976 C 92.0811 1.41169 0.875238 0
M  V30 977 O 93.2661 1.70112 0.86409 0
M  V30 978 C 90.4061 3.25804 1.13781 0
M  V30 979 C 89.5191 4.30134 0.401137 0
M  V30 980 C 88.6541 5.12659 1.39121 0
M  V30 981 C 87.6931 6.0873 0.641462 0
M  V30 982 N 86.8301 6.8409 1.58004 0
M  V30 983 H 91.6701 2.92118 -0.589144 0
M  V30 984 H 89.2071 1.43959 -0.302342 0
M  V30 985 H 91.1651 3.79569 1.73156 0
M  V30 986 H 89.7951 2.65872 1.83062 0
M  V30 987 H 88.8471 3.79152 -0.307826 0
M  V30 988 H 90.1591 4.98458 -0.184565 0
M  V30 989 H 89.3131 5.70747 2.05749 0
M  V30 990 H 88.0521 4.44316 2.01084 0
M  V30 991 H 87.0571 5.49786 -0.0385419 0
M  V30 992 H 88.2821 6.79095 0.0270945 0
M  V30 993 H 86.2281 6.18449 2.18761 0
M  V30 994 H 86.1451 7.48709 1.04738 0
M  V30 995 H 87.4131 7.4673 2.23639 0
M  V30 996 N 91.6422 0.330177 1.54103 0
M  V30 997 C 92.5722 -0.525353 2.27513 0
M  V30 998 C 93.5532 -1.11383 1.2856 0
M  V30 999 O 94.7382 -1.13773 1.57383 0
M  V30 1000 C 91.8682 -1.6831 3.03791 0
M  V30 1001 C 90.8222 -1.2236 4.10137 0
M  V30 1002 C 90.1482 -2.46882 4.74293 0
M  V30 1003 C 91.4482 -0.333697 5.21233 0
M  V30 1004 H 93.1422 0.087013 2.99274 0
M  V30 1005 H 90.6882 0.0432893 1.43935 0
M  V30 1006 H 92.6412 -2.28795 3.5388 0
M  V30 1007 H 91.3652 -2.32216 2.29659 0
M  V30 1008 H 90.0242 -0.64165 3.60941 0
M  V30 1009 H 89.6722 -3.09165 3.96769 0
M  V30 1010 H 89.3722 -2.16825 5.46133 0
M  V30 1011 H 90.8962 -3.08117 5.27159 0
M  V30 1012 H 92.3102 -0.845013 5.67038 0
M  V30 1013 H 90.7072 -0.125612 5.99969 0
M  V30 1014 H 91.7772 0.633724 4.80741 0
M  V30 1015 N 93.1203 -1.57491 0.0584922 0
M  V30 1016 C 94.3683 -1.92597 -0.612436 0
M  V30 1017 C 94.6893 -0.938162 -1.70949 0
M  V30 1018 O 93.9593 0.0158301 -1.95894 0
M  V30 1019 H 92.5393 -0.710964 -0.229214 0
M  V30 1020 H 95.2013 -1.94571 0.113218 0
M  V30 1021 H 94.2973 -2.94038 -1.04633 0
M  V30 1022 N 94.5984 0.214957 -1.56127 0
M  V30 1023 C 95.8284 0.953707 -1.8327 0
M  V30 1024 C 96.2364 1.78181 -0.636262 0
M  V30 1025 O 95.5794 1.79191 0.404516 0
M  V30 1026 C 95.6414 1.91516 -3.0424 0
M  V30 1027 C 95.3054 1.27094 -4.38972 0
M  V30 1028 C 96.3024 0.657575 -5.15725 0
M  V30 1029 C 93.9874 1.28073 -4.85698 0
M  V30 1030 C 95.9814 0.0625968 -6.37369 0
M  V30 1031 C 93.6684 0.681914 -6.07283 0
M  V30 1032 C 94.6664 0.0739046 -6.8296 0
M  V30 1033 O 94.3544 -0.515582 -8.02245 0
M  V30 1034 H 94.0864 0.284764 -0.613095 0
M  V30 1035 H 96.6404 0.233283 -2.04071 0
M  V30 1036 H 94.8704 2.67475 -2.79274 0
M  V30 1037 H 96.5594 2.52001 -3.18198 0
M  V30 1038 H 97.3254 0.642288 -4.80728 0
M  V30 1039 H 93.2044 1.74337 -4.26764 0
M  V30 1040 H 96.7484 -0.412593 -6.96379 0
M  V30 1041 H 92.6454 0.694636 -6.41752 0
M  V30 1042 H 93.4134 -0.410544 -8.1747 0
M  V30 1043 N 96.0765 1.50051 0.48192 0
M  V30 1044 C 97.0065 1.71046 1.58951 0
M  V30 1045 C 97.9875 0.559288 1.60642 0
M  V30 1046 O 99.1725 0.797243 1.77081 0
M  V30 1047 C 96.3025 1.79462 2.97339 0
M  V30 1048 C 95.2565 2.94558 3.10515 0
M  V30 1049 C 94.5825 2.88105 4.50444 0
M  V30 1050 C 95.8825 4.35227 2.88747 0
M  V30 1051 H 97.5765 2.6378 1.41635 0
M  V30 1052 H 95.1225 1.26936 0.679942 0
M  V30 1053 H 97.0755 1.92734 3.74742 0
M  V30 1054 H 95.7995 0.833412 3.15788 0
M  V30 1055 H 94.4585 2.80918 2.35543 0
M  V30 1056 H 94.1065 1.89853 4.65795 0
M  V30 1057 H 93.8065 3.65366 4.60197 0
M  V30 1058 H 95.3305 3.03412 5.29881 0
M  V30 1059 H 96.7445 4.49449 3.55905 0
M  V30 1060 H 95.1415 5.13856 3.09955 0
M  V30 1061 H 96.2115 4.48347 1.84696 0
M  V30 1062 N 97.5546 -0.734337 1.39446 0
M  V30 1063 C 98.4846 -1.86155 1.40955 0
M  V30 1064 C 99.4656 -1.67898 0.272827 0
M  V30 1065 O 100.651 -1.88207 0.478743 0
M  V30 1066 C 97.7806 -3.23912 1.25294 0
M  V30 1067 C 96.7346 -3.56808 2.36373 0
M  V30 1068 C 96.0606 -4.93508 2.058 0
M  V30 1069 C 97.3606 -3.59713 3.78687 0
M  V30 1070 H 99.0546 -1.8515 2.35287 0
M  V30 1071 H 96.6006 -0.889367 1.13253 0
M  V30 1072 H 98.5536 -4.02443 1.2497 0
M  V30 1073 H 97.2776 -3.25446 0.274308 0
M  V30 1074 H 95.9366 -2.80606 2.35914 0
M  V30 1075 H 95.5846 -4.91623 1.06374 0
M  V30 1076 H 95.2846 -5.16486 2.80208 0
M  V30 1077 H 96.8086 -5.74396 2.07128 0
M  V30 1078 H 98.2226 -4.2832 3.81071 0
M  V30 1079 H 96.6196 -3.94209 4.52459 0
M  V30 1080 H 97.6896 -2.59504 4.09617 0
M  V30 1081 N 99.0327 -1.24633 -0.964593 0
M  V30 1082 C 100.28 -1.08788 -1.70796 0
M  V30 1083 C 100.608 0.372783 -1.90894 0
M  V30 1084 O 99.8627 1.29167 -1.47018 0
M  V30 1085 C 100.162 -1.7763 -3.10133 0
M  V30 1086 C 99.8277 -3.27557 -3.09866 0
M  V30 1087 C 98.4897 -3.6846 -3.09501 0
M  V30 1088 C 100.842 -4.23389 -3.03959 0
M  V30 1089 C 98.1697 -5.03624 -3.00965 0
M  V30 1090 C 100.522 -5.58565 -2.96965 0
M  V30 1091 C 99.1857 -5.98809 -2.9493 0
M  V30 1092 H 98.4557 -0.398084 -0.624988 0
M  V30 1093 H 101.103 -1.54777 -1.12767 0
M  V30 1094 H 99.4077 -1.24044 -3.71645 0
M  V30 1095 H 101.105 -1.62832 -3.66451 0
M  V30 1096 H 97.6947 -2.95006 -3.10917 0
M  V30 1097 H 101.879 -3.92787 -3.03368 0
M  V30 1098 H 97.1347 -5.33998 -2.97752 0
M  V30 1099 H 101.309 -6.32523 -2.91354 0
M  V30 1100 H 98.9357 -7.03505 -2.88071 0
M  V30 1101 N 100.511 1.16574 -1.06058 0
M  V30 1102 C 101.927 1.3904 -0.783585 0
M  V30 1103 C 102.127 1.91784 0.618145 0
M  V30 1104 O 101.183 2.11511 1.37911 0
M  V30 1105 C 102.496 2.37329 -1.84649 0
M  V30 1106 C 104.044 2.51018 -1.86973 0
M  V30 1107 C 104.519 3.52588 -2.92311 0
M  V30 1108 N 106.01 3.60113 -2.91329 0
M  V30 1109 C 106.745 4.38486 -3.69482 0
M  V30 1110 N 106.241 5.20302 -4.57447 0
M  V30 1111 N 108.034 4.33446 -3.57885 0
M  V30 1112 H 100.185 0.806725 -1.96483 0
M  V30 1113 H 102.448 0.417117 -0.851303 0
M  V30 1114 H 102.154 2.05663 -2.85299 0
M  V30 1115 H 102.028 3.36946 -1.6955 0
M  V30 1116 H 104.415 2.81989 -0.869827 0
M  V30 1117 H 104.496 1.51445 -2.0615 0
M  V30 1118 H 104.14 3.22354 -3.92492 0
M  V30 1119 H 104.07 4.51886 -2.70383 0
M  V30 1120 H 106.561 3.01707 -2.27555 0
M  V30 1121 H 106.874 5.77311 -5.13743 0
M  V30 1122 H 105.219 5.19653 -4.61503 0
M  V30 1123 H 108.41 3.68586 -2.88551 0
M  V30 1124 H 108.583 4.94279 -4.19037 0
M  V30 1125 N 101.989 0.842826 1.3317 0
M  V30 1126 C 103.266 0.362216 1.92217 0
M  V30 1127 C 103.646 -1.15289 1.76838 0
M  V30 1128 O 102.994 -1.96914 1.15919 0
M  V30 1129 C 103.204 0.813495 3.39387 0
M  V30 1130 C 104.552 0.823804 4.16532 0
M  V30 1131 O 105.576 0.757358 3.48055 0
M  V30 1132 O 104.435 0.915193 5.38782 0
M  V30 1133 H 101.529 0.103317 0.820521 0
M  V30 1134 H 104.075 0.928942 1.42017 0
M  V30 1135 H 102.847 1.85624 3.4447 0
M  V30 1136 H 102.47 0.223561 3.96971 0
M  V30 1137 N 103.467 -1.45747 0.599634 0
M  V30 1138 C 104.714 -2.02292 0.0917284 0
M  V30 1139 C 105.042 -1.46906 -1.27472 0
M  V30 1140 O 104.297 -0.630652 -1.8526 0
M  V30 1141 C 104.596 -3.57399 -0.00602758 0
M  V30 1142 C 104.262 -4.31902 1.29503 0
M  V30 1143 C 102.924 -4.51974 1.65144 0
M  V30 1144 C 105.276 -4.74551 2.15525 0
M  V30 1145 C 102.604 -5.11949 2.86574 0
M  V30 1146 C 104.956 -5.35868 3.36196 0
M  V30 1147 C 103.62 -5.54165 3.72099 0
M  V30 1148 H 102.89 -0.740239 0.0335658 0
M  V30 1149 H 105.537 -1.7491 0.779661 0
M  V30 1150 H 103.842 -3.84014 -0.777183 0
M  V30 1151 H 105.539 -3.98846 -0.415038 0
M  V30 1152 H 102.129 -4.16588 1.00761 0
M  V30 1153 H 106.313 -4.58784 1.8929 0
M  V30 1154 H 101.569 -5.24305 3.14507 0
M  V30 1155 H 105.743 -5.6787 4.03109 0
M  V30 1156 H 103.37 -6.00406 4.6628 0
M  V30 1157 N 104.945 -0.338344 -1.53925 0
M  V30 1158 C 106.185 0.260168 -2.02737 0
M  V30 1159 C 106.549 1.48181 -1.22092 0
M  V30 1160 O 107.75 2.15416 -1.60777 0
M  V30 1161 C 106.021 0.571627 -3.52799 0
M  V30 1162 S 107.58 1.14769 -4.23525 0
M  V30 1163 H 104.398 0.077791 -0.706732 0
M  V30 1164 H 107 -0.474899 -1.89644 0
M  V30 1165 H 105.704 -0.325392 -4.09108 0
M  V30 1166 H 105.235 1.3365 -3.70002 0
M  V30 1167 H 107.25 2.43372 -4.32417 0
M  V30 1168 N 106.423 1.57458 -0.0668435 0
M  V30 1169 C 107.353 2.15468 0.899764 0
M  V30 1170 C 108.334 1.08042 1.31381 0
M  V30 1171 O 109.519 1.36054 1.38574 0
M  V30 1172 C 106.649 2.71232 2.16911 0
M  V30 1173 C 105.603 3.83781 1.89463 0
M  V30 1174 C 104.929 4.26127 3.22986 0
M  V30 1175 C 106.229 5.08238 1.20381 0
M  V30 1176 H 107.923 2.96488 0.416529 0
M  V30 1177 H 105.469 1.4262 0.198908 0
M  V30 1178 H 107.422 3.10458 2.84945 0
M  V30 1179 H 106.146 1.87426 2.67468 0
M  V30 1180 H 104.805 3.45051 1.23836 0
M  V30 1181 H 104.453 3.39249 3.71374 0
M  V30 1182 H 104.153 5.01993 3.05413 0
M  V30 1183 H 105.677 4.67966 3.92225 0
M  V30 1184 H 107.091 5.44811 1.78475 0
M  V30 1185 H 105.488 5.89349 1.13083 0
M  V30 1186 H 106.558 4.84558 0.182153 0
M  V30 1187 N 107.901 -0.206675 1.56239 0
M  V30 1188 C 108.849 -1.27571 1.94495 0
M  V30 1189 C 109.843 -1.47737 0.828862 0
M  V30 1190 O 111.049 -1.48735 1.0138 0
M  V30 1191 H 107.424 -0.428029 0.6183 0
M  V30 1192 H 109.395 -0.925961 2.8367 0
M  V30 1193 C 108.144 -2.61568 2.29079 0
M  V30 1194 H 107.467 -2.46863 3.14482 0
M  V30 1195 H 108.907 -3.35144 2.5972 0
M  V30 1196 C 107.366 -3.17695 1.12123 0
M  V30 1197 O 107.896 -3.99801 0.390153 0
M  V30 1198 N 106.102 -2.76276 0.901097 0
M  V30 1199 H 105.649 -2.09613 1.49733 0
M  V30 1200 H 105.607 -3.1417 0.120319 0
M  V30 1201 N 109.379 -1.50304 -0.473955 0
M  V30 1202 C 110.329 -1.65347 -1.56985 0
M  V30 1203 C 111.313 -0.508176 -1.52664 0
M  V30 1204 O 112.505 -0.762446 -1.59737 0
M  V30 1205 C 109.634 -1.74832 -2.95447 0
M  V30 1206 C 108.72 -2.95028 -3.04662 0
M  V30 1207 N 109.111 -4.18747 -2.83698 0
M  V30 1208 C 107.409 -2.93527 -3.35795 0
M  V30 1209 C 108.11 -4.99687 -2.97805 0
M  V30 1210 N 107.086 -4.33585 -3.2788 0
M  V30 1211 H 110.888 -2.58698 -1.39472 0
M  V30 1212 H 108.402 -1.47449 -0.680629 0
M  V30 1213 H 110.399 -1.83712 -3.7424 0
M  V30 1214 H 109.059 -0.826376 -3.14008 0
M  V30 1215 H 110.07 -4.48291 -2.59337 0
M  V30 1216 H 106.747 -2.10821 -3.60362 0
M  V30 1217 H 108.137 -6.08057 -2.85861 0
M  V30 1218 N 110.857 0.726932 -1.39834 0
M  V30 1219 C 111.787 1.85405 -1.41941 0
M  V30 1220 C 112.768 1.67751 -0.281728 0
M  V30 1221 O 113.953 1.8795 -0.488717 0
M  V30 1222 C 111.083 3.23243 -1.2701 0
M  V30 1223 C 110.037 3.55549 -2.38262 0
M  V30 1224 C 109.363 4.9241 -2.08415 0
M  V30 1225 C 110.663 3.577 -3.80589 0
M  V30 1226 H 112.357 1.83899 -2.36266 0
M  V30 1227 H 109.903 0.883349 -1.13723 0
M  V30 1228 H 111.856 4.01775 -1.27103 0
M  V30 1229 H 110.58 3.25296 -0.291564 0
M  V30 1230 H 109.239 2.79351 -2.37399 0
M  V30 1231 H 108.887 4.91052 -1.0898 0
M  V30 1232 H 108.587 5.14992 -2.82943 0
M  V30 1233 H 110.111 5.73289 -2.10171 0
M  V30 1234 H 111.525 4.26293 -3.83337 0
M  V30 1235 H 109.922 3.91804 -4.54543 0
M  V30 1236 H 110.992 2.57328 -4.10987 0
M  V30 1237 N 112.336 1.25143 0.95797 0
M  V30 1238 C 113.246 1.06968 2.08794 0
M  V30 1239 C 114.262 0.00773911 1.73998 0
M  V30 1240 O 115.438 0.207972 2.00323 0
M  V30 1241 C 112.503 0.68691 3.39827 0
M  V30 1242 C 111.564 1.82641 3.88511 0
M  V30 1243 C 110.797 1.46181 5.1329 0
M  V30 1244 O 111.02 0.355971 5.69288 0
M  V30 1245 O 109.954 2.29085 5.566 0
M  V30 1246 H 113.78 2.01723 2.27027 0
M  V30 1247 H 111.365 1.04051 1.07209 0
M  V30 1248 H 113.247 0.485417 4.18595 0
M  V30 1249 H 111.922 -0.231417 3.22872 0
M  V30 1250 H 110.829 2.08274 3.10762 0
M  V30 1251 H 112.162 2.72386 4.09959 0
M  V30 1252 N 113.814 -1.1601 1.06675 0
M  V30 1253 C 114.724 -2.24156 0.692179 0
M  V30 1254 C 115.74 -1.71507 -0.293513 0
M  V30 1255 O 116.916 -2.009 -0.141861 0
M  V30 1256 C 113.981 -3.46587 0.0884131 0
M  V30 1257 C 113.042 -4.14257 1.12646 0
M  V30 1258 C 112.275 -5.30844 0.551416 0
M  V30 1259 O 112.498 -5.66858 -0.634656 0
M  V30 1260 O 111.432 -5.87848 1.29298 0
M  V30 1261 H 115.258 -2.58513 1.59388 0
M  V30 1262 H 112.843 -1.23599 0.83926 0
M  V30 1263 H 114.725 -4.20679 -0.246361 0
M  V30 1264 H 113.4 -3.13994 -0.786712 0
M  V30 1265 H 112.307 -3.42118 1.51348 0
M  V30 1266 H 113.64 -4.50914 1.97325 0
M  V30 1267 N 115.292 -0.849877 -1.32721 0
M  V30 1268 C 116.255 -0.296122 -2.27279 0
M  V30 1269 C 117.255 0.541458 -1.5141 0
M  V30 1270 O 118.445 0.353658 -1.70572 0
M  V30 1271 C 115.577 0.581579 -3.35902 0
M  V30 1272 H 116.77 -1.13064 -2.77771 0
M  V30 1273 H 114.323 -0.62383 -1.43311 0
M  V30 1274 H 115.058 1.43809 -2.9067 0
M  V30 1275 H 114.843 -0.0178814 -3.92096 0
M  V30 1276 H 116.333 0.961951 -4.0637 0
M  V30 1277 N 116.77 1.45427 -0.607355 0
M  V30 1278 C 118.186 1.57283 -0.270985 0
M  V30 1279 C 118.386 1.59875 1.22647 0
M  V30 1280 O 117.442 1.52893 2.00948 0
M  V30 1281 C 118.755 2.85566 -0.941952 0
M  V30 1282 C 120.303 2.9924 -0.917849 0
M  V30 1283 C 120.778 4.30293 -1.56882 0
M  V30 1284 N 122.269 4.37051 -1.5343 0
M  V30 1285 C 123.004 5.37123 -2.00715 0
M  V30 1286 N 122.5 6.43734 -2.56084 0
M  V30 1287 N 124.293 5.28479 -1.91484 0
M  V30 1288 H 116.444 1.41988 -1.57966 0
M  V30 1289 H 118.707 0.67885 -0.661715 0
M  V30 1290 H 118.413 2.8955 -1.99633 0
M  V30 1291 H 118.287 3.74322 -0.465096 0
M  V30 1292 H 120.674 2.94822 0.127984 0
M  V30 1293 H 120.755 2.11895 -1.43297 0
M  V30 1294 H 120.399 4.35469 -2.61398 0
M  V30 1295 H 120.329 5.16454 -1.02873 0
M  V30 1296 H 122.82 3.60615 -1.12982 0
M  V30 1297 H 123.133 7.16341 -2.89958 0
M  V30 1298 H 121.478 6.44485 -2.60122 0
M  V30 1299 H 124.669 4.44098 -1.47967 0
M  V30 1300 H 124.842 6.0632 -2.28648 0
M  V30 1301 N 118.248 0.346503 1.53744 0
M  V30 1302 C 119.659 -0.136779 1.86198 0
M  V30 1303 C 120.01 -1.49749 1.26766 0
M  V30 1304 O 119.135 -2.08417 0.582355 0
M  V30 1305 C 119.73 -0.254966 3.37839 0
M  V30 1306 C 118.289 -0.682482 3.70161 0
M  V30 1307 C 117.436 0.181981 2.76702 0
M  V30 1308 H 120.387 0.565994 1.48264 0
M  V30 1309 H 120.408 -1.08195 3.64793 0
M  V30 1310 H 119.92 0.735526 3.81066 0
M  V30 1311 H 118.021 -1.68189 3.3248 0
M  V30 1312 H 118.134 -0.470326 4.76786 0
M  V30 1313 H 116.498 -0.34615 2.52337 0
M  V30 1314 H 117.281 1.16966 3.2276 0
M  V30 1315 N 119.726 -1.57421 0.075193 0
M  V30 1316 C 120.656 -2.15942 -0.888324 0
M  V30 1317 C 121.637 -1.08737 -1.30806 0
M  V30 1318 O 122.822 -1.36787 -1.37851 0
M  V30 1319 C 119.952 -2.72379 -2.1547 0
M  V30 1320 C 118.906 -3.8478 -1.87425 0
M  V30 1321 C 118.232 -4.27834 -3.20721 0
M  V30 1322 C 119.532 -5.08869 -1.17684 0
M  V30 1323 H 121.226 -2.96705 -0.400799 0
M  V30 1324 H 118.772 -1.42723 -0.191342 0
M  V30 1325 H 120.725 -3.11965 -2.83295 0
M  V30 1326 H 119.449 -1.88841 -2.6647 0
M  V30 1327 H 118.108 -3.45703 -1.22004 0
M  V30 1328 H 117.756 -3.41214 -3.6957 0
M  V30 1329 H 117.456 -5.03605 -3.02746 0
M  V30 1330 H 118.98 -4.70039 -3.89738 0
M  V30 1331 H 120.394 -5.4575 -1.75584 0
M  V30 1332 H 118.791 -5.8994 -1.09956 0
M  V30 1333 H 119.861 -4.84648 -0.156453 0
M  V30 1334 N 121.204 0.198386 -1.56346 0
M  V30 1335 C 122.45 0.920648 -1.80698 0
M  V30 1336 C 122.783 1.83045 -0.648697 0
M  V30 1337 O 122.058 1.91308 0.350925 0
M  V30 1338 C 122.341 1.73971 -3.15287 0
M  V30 1339 C 122.194 0.85485 -4.41602 0
M  V30 1340 C 123.513 2.71296 -3.46535 0
M  V30 1341 H 120.632 0.333261 -0.657348 0
M  V30 1342 H 123.274 0.188198 -1.89066 0
M  V30 1343 H 121.424 2.36416 -3.08285 0
M  V30 1344 H 123.096 0.245362 -4.60647 0
M  V30 1345 H 121.339 0.161398 -4.335 0
M  V30 1346 H 122.01 1.46286 -5.32264 0
M  V30 1347 H 124.486 2.18983 -3.53816 0
M  V30 1348 H 123.362 3.2569 -4.41834 0
M  V30 1349 H 123.623 3.5018 -2.69864 0
M  V30 1350 N 122.682 1.50554 0.465978 0
M  V30 1351 C 123.592 1.72585 1.58907 0
M  V30 1352 C 124.608 0.60911 1.6299 0
M  V30 1353 O 125.784 0.88804 1.80765 0
M  V30 1354 C 122.849 1.81995 2.95091 0
M  V30 1355 C 121.91 3.05751 3.01355 0
M  V30 1356 C 121.143 3.14702 4.31043 0
M  V30 1357 O 121.366 2.30313 5.21835 0
M  V30 1358 O 120.3 4.07468 4.43005 0
M  V30 1359 H 124.126 2.67799 1.43239 0
M  V30 1360 H 121.711 1.34711 0.646013 0
M  V30 1361 H 123.593 1.90335 3.75966 0
M  V30 1362 H 122.268 0.899659 3.10947 0
M  V30 1363 H 121.175 3.02908 2.19539 0
M  V30 1364 H 122.508 3.97375 2.90437 0
M  V30 1365 N 124.16 -0.719506 1.40217 0
M  V30 1366 C 125.407 -1.47933 1.38283 0
M  V30 1367 C 125.735 -1.94493 -0.0161536 0
M  V30 1368 O 124.99 -1.68224 -0.999956 0
M  V30 1369 C 125.289 -2.72271 2.31524 0
M  V30 1370 C 124.955 -2.44496 3.78857 0
M  V30 1371 C 123.617 -2.36631 4.18998 0
M  V30 1372 C 125.969 -2.21104 4.71977 0
M  V30 1373 C 123.297 -2.03437 5.503 0
M  V30 1374 C 125.649 -1.89423 6.03574 0
M  V30 1375 C 124.313 -1.80038 6.42762 0
M  V30 1376 H 123.583 -0.541325 0.506012 0
M  V30 1377 H 126.23 -0.824502 1.72842 0
M  V30 1378 H 124.535 -3.42572 1.90137 0
M  V30 1379 H 126.232 -3.30348 2.27313 0
M  V30 1380 H 122.822 -2.51503 3.47051 0
M  V30 1381 H 127.006 -2.26139 4.41786 0
M  V30 1382 H 122.262 -1.94705 5.79569 0
M  V30 1383 H 126.436 -1.70336 6.75247 0
M  V30 1384 H 124.063 -1.54083 7.44421 0
M  V30 1385 N 125.638 -1.25649 -0.95132 0
M  V30 1386 C 126.868 -1.13179 -1.72841 0
M  V30 1387 C 127.276 0.316827 -1.86528 0
M  V30 1388 O 126.619 1.22948 -1.3649 0
M  V30 1389 C 126.681 -1.71644 -3.15878 0
M  V30 1390 C 126.345 -3.20667 -3.25609 0
M  V30 1391 C 127.342 -4.17616 -3.09666 0
M  V30 1392 C 125.027 -3.6094 -3.49324 0
M  V30 1393 C 127.021 -5.52817 -3.17289 0
M  V30 1394 C 124.708 -4.96278 -3.56584 0
M  V30 1395 C 125.706 -5.92025 -3.40581 0
M  V30 1396 O 125.394 -7.24899 -3.47528 0
M  V30 1397 H 125.126 -0.395389 -0.54831 0
M  V30 1398 H 127.68 -1.66566 -1.20187 0
M  V30 1399 H 125.91 -1.12707 -3.69911 0
M  V30 1400 H 127.599 -1.54225 -3.75459 0
M  V30 1401 H 128.365 -3.87842 -2.91211 0
M  V30 1402 H 124.244 -2.86907 -3.6084 0
M  V30 1403 H 127.788 -6.2753 -3.04716 0
M  V30 1404 H 123.685 -5.25716 -3.74556 0
M  V30 1405 H 124.453 -7.33039 -3.64138 0
M  V30 1406 N 127.117 1.15442 -1.07289 0
M  V30 1407 C 128.027 2.23786 -0.704057 0
M  V30 1408 C 129.043 1.7166 0.284413 0
M  V30 1409 O 130.219 2.00972 0.131205 0
M  V30 1410 C 127.284 3.46535 -0.106792 0
M  V30 1411 C 126.345 4.13654 -1.14842 0
M  V30 1412 C 125.578 5.30544 -0.57956 0
M  V30 1413 O 125.801 5.67187 0.604585 0
M  V30 1414 O 124.735 5.87154 -1.32414 0
M  V30 1415 H 128.561 2.57664 -1.60757 0
M  V30 1416 H 126.146 1.23152 -0.845803 0
M  V30 1417 H 128.028 4.20804 0.224048 0
M  V30 1418 H 126.703 3.14407 0.770049 0
M  V30 1419 H 125.61 3.4131 -1.5316 0
M  V30 1420 H 126.943 4.49861 -1.99714 0
M  V30 1421 N 128.595 0.856903 1.32268 0
M  V30 1422 C 129.505 0.306131 2.32594 0
M  V30 1423 C 130.521 -0.577209 1.64147 0
M  V30 1424 O 131.697 -0.477043 1.95669 0
M  V30 1425 C 128.762 -0.494561 3.43154 0
M  V30 1426 C 127.823 0.415186 4.27288 0
M  V30 1427 C 127.056 -0.347387 5.32568 0
M  V30 1428 O 127.279 -1.57708 5.48165 0
M  V30 1429 O 126.213 0.287982 6.01211 0
M  V30 1430 H 130.039 1.13737 2.81598 0
M  V30 1431 H 127.624 0.619902 1.35932 0
M  V30 1432 H 129.506 -0.948944 4.10576 0
M  V30 1433 H 128.181 -1.30257 2.96336 0
M  V30 1434 H 127.088 0.917793 3.62667 0
M  V30 1435 H 128.421 1.18844 4.77637 0
M  V30 1436 N 130.073 -1.45103 0.615059 0
M  V30 1437 C 131.322 -2.01396 0.110718 0
M  V30 1438 C 131.635 -1.48834 -1.26916 0
M  V30 1439 O 132.841 -1.97152 -1.86664 0
M  V30 1440 C 131.297 -3.59599 0.14723 0
M  V30 1441 C 130.905 -4.21158 1.52743 0
M  V30 1442 C 132.649 -4.23428 -0.30148 0
M  V30 1443 C 130.556 -5.71535 1.51992 0
M  V30 1444 H 129.486 -0.753061 0.0376241 0
M  V30 1445 H 132.137 -1.66494 0.77149 0
M  V30 1446 H 130.519 -3.91724 -0.580339 0
M  V30 1447 H 131.693 -4.00594 2.2773 0
M  V30 1448 H 130.008 -3.69552 1.91886 0
M  V30 1449 H 132.605 -5.33703 -0.326392 0
M  V30 1450 H 132.948 -3.94629 -1.32565 0
M  V30 1451 H 133.481 -3.96047 0.373065 0
M  V30 1452 H 130.22 -6.05044 2.52193 0
M  V30 1453 H 129.74 -5.94268 0.81274 0
M  V30 1454 H 131.419 -6.34873 1.24681 0
M  V30 1455 N 131.551 -0.354651 -1.53558 0
M  V30 1456 C 132.498 0.496968 -2.25386 0
M  V30 1457 C 133.468 1.0865 -1.25636 0
M  V30 1458 O 134.653 1.12104 -1.54394 0
M  V30 1459 C 131.793 1.63637 -3.03837 0
M  V30 1460 C 130.906 1.07307 -4.18461 0
M  V30 1461 C 130.041 2.18068 -4.84376 0
M  V30 1462 C 129.08 1.59147 -5.91049 0
M  V30 1463 N 128.217 2.63695 -6.50699 0
M  V30 1464 H 133.057 -0.122075 -2.9775 0
M  V30 1465 H 130.594 -0.0720154 -1.46924 0
M  V30 1466 H 132.552 2.30734 -3.47589 0
M  V30 1467 H 131.182 2.22623 -2.33749 0
M  V30 1468 H 130.234 0.292708 -3.79272 0
M  V30 1469 H 131.546 0.602193 -4.95152 0
M  V30 1470 H 130.7 2.93007 -5.31255 0
M  V30 1471 H 129.439 2.68504 -4.07133 0
M  V30 1472 H 128.444 0.827175 -5.43542 0
M  V30 1473 H 129.669 1.09549 -6.70206 0
M  V30 1474 H 127.615 3.13365 -5.76315 0
M  V30 1475 H 127.532 2.21263 -7.22896 0
M  V30 1476 H 128.8 3.3837 -7.02229 0
M  V30 1477 N 133.029 1.57378 -0.0835403 0
M  V30 1478 C 133.976 2.13384 0.879539 0
M  V30 1479 C 134.946 1.04936 1.28754 0
M  V30 1480 O 136.131 1.32662 1.37133 0
M  V30 1481 C 133.271 2.70932 2.13752 0
M  V30 1482 C 132.384 3.93575 1.7811 0
M  V30 1483 C 131.519 4.39326 2.98607 0
M  V30 1484 C 130.558 5.54587 2.59037 0
M  V30 1485 N 129.695 5.95243 3.72331 0
M  V30 1486 H 134.535 2.9537 0.395076 0
M  V30 1487 H 132.072 1.45953 0.183349 0
M  V30 1488 H 134.03 3.02411 2.87408 0
M  V30 1489 H 132.66 1.91693 2.59718 0
M  V30 1490 H 131.712 3.68483 0.94469 0
M  V30 1491 H 133.024 4.77258 1.45005 0
M  V30 1492 H 132.178 4.72528 3.80529 0
M  V30 1493 H 130.917 3.5452 3.34913 0
M  V30 1494 H 129.922 5.21024 1.75539 0
M  V30 1495 H 131.147 6.41133 2.23887 0
M  V30 1496 H 129.093 5.13385 4.08378 0
M  V30 1497 H 129.01 6.73694 3.43034 0
M  V30 1498 H 130.278 6.33072 4.54797 0
M  V30 1499 N 134.507 -0.190092 1.56449 0
M  V30 1500 C 135.737 -0.92443 1.84764 0
M  V30 1501 C 136.145 -1.77146 0.664529 0
M  V30 1502 O 135.488 -1.79812 -0.375957 0
M  V30 1503 C 135.55 -1.86651 3.07248 0
M  V30 1504 C 135.214 -1.20094 4.40938 0
M  V30 1505 C 136.211 -0.575445 5.16706 0
M  V30 1506 C 133.896 -1.2033 4.87674 0
M  V30 1507 C 135.89 0.0388111 6.37388 0
M  V30 1508 C 133.577 -0.585214 6.08291 0
M  V30 1509 C 134.575 0.0347578 6.82991 0
M  V30 1510 O 134.263 0.643147 8.01323 0
M  V30 1511 H 133.995 -0.274974 0.617548 0
M  V30 1512 H 136.549 -0.200788 2.04416 0
M  V30 1513 H 134.779 -2.62998 2.83494 0
M  V30 1514 H 136.468 -2.46907 3.22167 0
M  V30 1515 H 137.234 -0.565728 4.81689 0
M  V30 1516 H 133.113 -1.67526 4.29484 0
M  V30 1517 H 136.657 0.523329 6.95634 0
M  V30 1518 H 132.554 -0.592451 6.42775 0
M  V30 1519 H 133.322 0.540545 8.16713 0
M  V30 1520 N 135.985 -1.50799 -0.457987 0
M  V30 1521 C 136.895 -1.73426 -1.57989 0
M  V30 1522 C 137.911 -0.617745 -1.62665 0
M  V30 1523 O 139.087 -0.897614 -1.80291 0
M  V30 1524 C 136.152 -1.83557 -2.94122 0
M  V30 1525 C 135.213 -3.07345 -2.99729 0
M  V30 1526 C 134.446 -3.16983 -4.29368 0
M  V30 1527 O 134.669 -2.33077 -5.20607 0
M  V30 1528 O 133.603 -4.09812 -4.40837 0
M  V30 1529 H 137.429 -2.68555 -1.41817 0
M  V30 1530 H 135.014 -1.35052 -0.638859 0
M  V30 1531 H 136.896 -1.92326 -3.74952 0
M  V30 1532 H 135.571 -0.916137 -3.10465 0
M  V30 1533 H 134.478 -3.04068 -2.1793 0
M  V30 1534 H 135.811 -3.9891 -2.88326 0
M  V30 1535 N 137.463 0.71206 -1.40597 0
M  V30 1536 C 138.41 1.82613 -1.41142 0
M  V30 1537 C 139.38 1.63925 -0.267903 0
M  V30 1538 O 140.565 1.85009 -0.466495 0
M  V30 1539 C 137.705 3.20354 -1.28324 0
M  V30 1540 C 136.818 3.50589 -2.52411 0
M  V30 1541 C 135.953 4.77855 -2.32009 0
M  V30 1542 C 134.992 5.01005 -3.51654 0
M  V30 1543 N 134.129 6.19487 -3.30425 0
M  V30 1544 H 138.969 1.81482 -2.36365 0
M  V30 1545 H 136.506 0.886475 -1.17388 0
M  V30 1546 H 138.464 3.99899 -1.18899 0
M  V30 1547 H 137.094 3.20705 -0.367189 0
M  V30 1548 H 136.146 2.65573 -2.72351 0
M  V30 1549 H 137.458 3.63604 -3.41458 0
M  V30 1550 H 136.612 5.65424 -2.19956 0
M  V30 1551 H 135.351 4.67056 -1.40392 0
M  V30 1552 H 134.356 4.1189 -3.64179 0
M  V30 1553 H 135.581 5.13674 -4.44202 0
M  V30 1554 H 133.527 6.09932 -2.41494 0
M  V30 1555 H 133.444 6.33194 -4.13039 0
M  V30 1556 H 134.712 7.09834 -3.22113 0
M  V30 1557 N 138.941 1.26152 0.944643 0
M  V30 1558 C 139.871 1.09902 2.06019 0
M  V30 1559 C 140.852 0.00519538 1.70099 0
M  V30 1560 O 142.037 0.176583 1.93396 0
M  V30 1561 C 139.167 0.727562 3.39594 0
M  V30 1562 C 138.121 1.77274 3.89561 0
M  V30 1563 C 137.447 1.25569 5.19747 0
M  V30 1564 C 138.747 3.17357 4.14827 0
M  V30 1565 H 140.441 2.03217 2.19871 0
M  V30 1566 H 137.987 0.978452 1.05652 0
M  V30 1567 H 139.94 0.600777 4.17095 0
M  V30 1568 H 138.664 -0.241287 3.25707 0
M  V30 1569 H 137.323 1.88814 3.14237 0
M  V30 1570 H 136.971 0.276783 5.02238 0
M  V30 1571 H 136.671 1.95433 5.54148 0
M  V30 1572 H 138.195 1.1415 5.99835 0
M  V30 1573 H 139.609 3.08914 4.82954 0
M  V30 1574 H 138.006 3.84781 4.60504 0
M  V30 1575 H 139.076 3.63673 3.20734 0
M  V30 1576 N 140.419 -1.14872 1.07899 0
M  V30 1577 C 141.329 -2.2341 0.715915 0
M  V30 1578 C 142.345 -1.71808 -0.275306 0
M  V30 1579 O 143.521 -2.01039 -0.120545 0
M  V30 1580 C 140.586 -3.46474 0.125168 0
M  V30 1581 C 139.647 -4.13039 1.17034 0
M  V30 1582 C 138.88 -5.30229 0.607688 0
M  V30 1583 O 139.103 -5.675 -0.574497 0
M  V30 1584 O 138.037 -5.86444 1.35526 0
M  V30 1585 H 141.863 -2.56808 1.62121 0
M  V30 1586 H 139.448 -1.22702 0.852322 0
M  V30 1587 H 141.33 -4.20917 -0.201729 0
M  V30 1588 H 140.005 -3.14811 -0.753364 0
M  V30 1589 H 138.912 -3.40493 1.54968 0
M  V30 1590 H 140.245 -4.48796 2.02097 0
M  V30 1591 N 141.898 -0.863906 -1.31812 0
M  V30 1592 C 143.126 -0.486111 -2.01108 0
M  V30 1593 C 143.541 0.919755 -1.64882 0
M  V30 1594 O 142.898 1.60162 -0.874893 0
M  V30 1595 C 142.949 -0.626435 -3.56031 0
M  V30 1596 O 142.67 -1.97693 -3.90959 0
M  V30 1597 C 144.171 -0.248857 -4.42601 0
M  V30 1598 H 141.391 -0.190052 -0.643523 0
M  V30 1599 H 143.935 -1.1634 -1.68182 0
M  V30 1600 H 142.09 0.00322717 -3.874 0
M  V30 1601 H 142.504 -1.98034 -4.85678 0
M  V30 1602 H 143.978 -0.398016 -5.50563 0
M  V30 1603 H 144.455 0.811489 -4.31638 0
M  V30 1604 H 145.061 -0.853971 -4.16638 0
M  V30 1605 N 143.376 1.44774 -0.622745 0
M  V30 1606 C 144.286 2.34433 0.0886031 0
M  V30 1607 C 145.302 1.52131 0.844529 0
M  V30 1608 O 146.478 1.84886 0.798691 0
M  V30 1609 C 143.543 3.29986 1.0635 0
M  V30 1610 C 142.604 4.28195 0.307873 0
M  V30 1611 C 141.837 5.19183 1.23633 0
M  V30 1612 O 142.06 5.13918 2.47476 0
M  V30 1613 O 140.994 5.97515 0.725189 0
M  V30 1614 H 144.82 2.96693 -0.648599 0
M  V30 1615 H 142.405 1.44408 -0.382957 0
M  V30 1616 H 144.287 3.88825 1.6246 0
M  V30 1617 H 142.962 2.70269 1.78146 0
M  V30 1618 H 141.869 3.72927 -0.296064 0
M  V30 1619 H 143.202 4.90808 -0.3699 0
M  V30 1620 N 144.854 0.36279 1.53368 0
M  V30 1621 C 145.764 -0.492994 2.29362 0
M  V30 1622 C 146.78 -1.09507 1.35219 0
M  V30 1623 O 147.956 -1.10662 1.68273 0
M  V30 1624 C 145.021 -1.61855 3.066 0
M  V30 1625 C 144.082 -1.04429 4.16405 0
M  V30 1626 C 143.315 -2.11621 4.89951 0
M  V30 1627 O 143.538 -3.32684 4.63333 0
M  V30 1628 O 142.472 -1.74835 5.75948 0
M  V30 1629 H 146.298 0.125331 3.03441 0
M  V30 1630 H 143.883 0.127253 1.48857 0
M  V30 1631 H 145.765 -2.27302 3.54841 0
M  V30 1632 H 144.44 -2.22233 2.3536 0
M  V30 1633 H 143.347 -0.353819 3.72423 0
M  V30 1634 H 144.68 -0.485113 4.89804 0
M  V30 1635 N 146.332 -1.57332 0.0918853 0
M  V30 1636 C 147.242 -2.17368 -0.882505 0
M  V30 1637 C 148.258 -1.14226 -1.31257 0
M  V30 1638 O 149.434 -1.46582 -1.38115 0
M  V30 1639 C 146.499 -2.73962 -2.12476 0
M  V30 1640 C 145.56 -3.92048 -1.7492 0
M  V30 1641 C 144.793 -4.45933 -2.93223 0
M  V30 1642 O 145.016 -3.98764 -4.07852 0
M  V30 1643 O 143.95 -5.36999 -2.71875 0
M  V30 1644 H 147.776 -3.01031 -0.40172 0
M  V30 1645 H 145.361 -1.48813 -0.132291 0
M  V30 1646 H 147.243 -3.10147 -2.85283 0
M  V30 1647 H 145.918 -1.93347 -2.59613 0
M  V30 1648 H 144.825 -3.6068 -0.993025 0
M  V30 1649 H 146.158 -4.74017 -1.32548 0
M  V30 1650 N 147.81 0.181792 -1.56548 0
M  V30 1651 C 149.226 0.53316 -1.50431 0
M  V30 1652 C 149.426 1.85184 -0.794297 0
M  V30 1653 O 148.482 2.50058 -0.350318 0
M  V30 1654 C 149.795 0.575597 -2.9514 0
M  V30 1655 C 151.343 0.663519 -3.05886 0
M  V30 1656 C 151.818 0.736946 -4.52032 0
M  V30 1657 N 153.309 0.800118 -4.56237 0
M  V30 1658 C 154.044 0.877327 -5.66649 0
M  V30 1659 N 153.54 0.916016 -6.86718 0
M  V30 1660 N 155.333 0.915542 -5.54594 0
M  V30 1661 H 147.484 -0.683025 -2.01118 0
M  V30 1662 H 149.747 -0.244988 -0.915797 0
M  V30 1663 H 149.453 -0.324482 -3.502 0
M  V30 1664 H 149.327 1.42572 -3.49218 0
M  V30 1665 H 151.714 1.55403 -2.50867 0
M  V30 1666 H 151.795 -0.21307 -2.54911 0
M  V30 1667 H 151.439 -0.149262 -5.07681 0
M  V30 1668 H 151.369 1.62953 -5.00753 0
M  V30 1669 H 153.86 0.778926 -3.69785 0
M  V30 1670 H 154.173 0.975813 -7.66614 0
M  V30 1671 H 152.518 0.884469 -6.89349 0
M  V30 1672 H 155.709 0.882245 -4.59711 0
M  V30 1673 H 155.882 0.972253 -6.40665 0
M  V30 1674 N 149.288 1.51039 0.449983 0
M  V30 1675 C 150.534 1.63322 1.20223 0
M  V30 1676 C 150.867 0.34241 1.91158 0
M  V30 1677 O 150.142 -0.657344 1.83055 0
M  V30 1678 C 150.425 2.82801 2.22925 0
M  V30 1679 C 150.278 4.21823 1.56157 0
M  V30 1680 C 151.597 2.97807 3.24035 0
M  V30 1681 H 148.716 0.594407 0.435718 0
M  V30 1682 H 151.358 1.83489 0.493136 0
M  V30 1683 H 149.508 2.65738 2.834 0
M  V30 1684 H 151.18 4.50526 0.991162 0
M  V30 1685 H 149.423 4.25105 0.864172 0
M  V30 1686 H 150.094 5.01391 2.30891 0
M  V30 1687 H 152.57 3.13497 2.73603 0
M  V30 1688 H 151.446 3.82992 3.93202 0
M  V30 1689 H 151.707 2.09328 3.89402 0
M  V30 1690 N 150.766 -0.704594 1.40972 0
M  V30 1691 C 151.729 -1.80035 1.41845 0
M  V30 1692 C 152.729 -1.57774 0.310474 0
M  V30 1693 O 153.919 -1.64613 0.56992 0
M  V30 1694 C 151.051 -3.18284 1.22098 0
M  V30 1695 H 152.244 -1.80658 2.3938 0
M  V30 1696 H 149.797 -0.911329 1.26982 0
M  V30 1697 H 150.532 -3.23306 0.253672 0
M  V30 1698 H 150.317 -3.35843 2.02366 0
M  V30 1699 H 151.807 -3.98289 1.25522 0
M  V30 1700 N 152.244 -1.26651 -0.937939 0
M  V30 1701 C 153.66 -1.03834 -1.21205 0
M  V30 1702 C 153.86 0.234502 -2.00131 0
M  V30 1703 O 152.916 0.942767 -2.3424 0
M  V30 1704 C 154.229 -2.27167 -1.97017 0
M  V30 1705 C 155.777 -2.32101 -2.09996 0
M  V30 1706 C 156.252 -3.55136 -2.8921 0
M  V30 1707 N 157.743 -3.55632 -2.96783 0
M  V30 1708 C 158.478 -4.475 -3.58512 0
M  V30 1709 N 157.974 -5.4966 -4.21717 0
M  V30 1710 N 159.767 -4.35145 -3.55816 0
M  V30 1711 H 151.918 -2.08398 -0.410391 0
M  V30 1712 H 154.181 -0.916031 -0.244114 0
M  V30 1713 H 153.887 -3.19765 -1.46434 0
M  V30 1714 H 153.761 -2.31672 -2.97671 0
M  V30 1715 H 156.148 -1.40015 -2.59769 0
M  V30 1716 H 156.229 -2.31605 -1.08594 0
M  V30 1717 H 155.873 -4.47553 -2.40123 0
M  V30 1718 H 155.803 -3.5288 -3.90875 0
M  V30 1719 H 158.294 -2.81743 -2.51852 0
M  V30 1720 H 158.607 -6.15943 -4.66727 0
M  V30 1721 H 156.952 -5.53514 -4.20294 0
M  V30 1722 H 160.143 -3.5455 -3.05634 0
M  V30 1723 H 160.316 -5.06934 -4.03636 0
M  V30 1724 N 153.722 1.14298 -1.08507 0
M  V30 1725 C 154.947 1.8976 -0.837001 0
M  V30 1726 C 155.372 1.78097 0.605228 0
M  V30 1727 O 154.73 1.12188 1.4242 0
M  V30 1728 C 154.778 3.37685 -1.26495 0
M  V30 1729 O 153.882 4.10281 -0.417514 0
M  V30 1730 H 153.223 0.590365 -0.303917 0
M  V30 1731 H 155.753 1.44672 -1.44676 0
M  V30 1732 H 155.763 3.88501 -1.24625 0
M  V30 1733 H 154.438 3.45492 -2.31534 0
M  V30 1734 H 153.015 3.69536 -0.499722 0
M  V30 1735 N 155.201 0.870884 1.31352 0
M  V30 1736 C 156.617 0.562932 1.49343 0
M  V30 1737 C 156.817 -0.902725 1.80148 0
M  V30 1738 O 155.873 -1.68484 1.88067 0
M  V30 1739 C 157.186 1.46393 2.62659 0
M  V30 1740 C 158.734 1.46607 2.76542 0
M  V30 1741 C 159.209 2.35266 3.92955 0
M  V30 1742 N 160.7 2.33151 4.00243 0
M  V30 1743 C 161.435 2.98471 4.89594 0
M  V30 1744 N 160.931 3.72964 5.8384 0
M  V30 1745 N 162.724 2.87775 4.82848 0
M  V30 1746 H 154.875 1.81923 1.09626 0
M  V30 1747 H 157.138 0.777934 0.541777 0
M  V30 1748 H 156.844 2.50689 2.46674 0
M  V30 1749 H 156.718 1.16314 3.58819 0
M  V30 1750 H 159.105 0.43069 2.9194 0
M  V30 1751 H 159.186 1.8071 1.81046 0
M  V30 1752 H 158.83 3.38881 3.78315 0
M  V30 1753 H 158.76 1.98487 4.87761 0
M  V30 1754 H 161.251 1.79006 3.32814 0
M  V30 1755 H 161.564 4.19932 6.4875 0
M  V30 1756 H 159.909 3.77073 5.83816 0
M  V30 1757 H 163.1 2.29116 4.08195 0
M  V30 1758 H 163.273 3.38961 5.52277 0
M  V30 1759 N 156.679 -1.44442 0.630414 0
M  V30 1760 C 157.589 -2.34476 -0.0761693 0
M  V30 1761 C 158.605 -1.52576 -0.836449 0
M  V30 1762 O 159.781 -1.85307 -0.788874 0
M  V30 1763 C 156.846 -3.30545 -1.04599 0
M  V30 1764 C 155.907 -4.28352 -0.28516 0
M  V30 1765 C 155.14 -5.19831 -1.20878 0
M  V30 1766 O 155.363 -5.15223 -2.44747 0
M  V30 1767 O 154.297 -5.97892 -0.693491 0
M  V30 1768 H 158.123 -2.96345 0.664324 0
M  V30 1769 H 155.708 -1.44203 0.39061 0
M  V30 1770 H 157.59 -3.89681 -1.60396 0
M  V30 1771 H 156.265 -2.7121 -1.76711 0
M  V30 1772 H 155.172 -3.72764 0.315837 0
M  V30 1773 H 156.505 -4.90605 0.395924 0
M  V30 1774 N 158.157 -0.370918 -1.53173 0
M  V30 1775 C 159.406 0.218249 -2.00516 0
M  V30 1776 C 159.719 1.49429 -1.26215 0
M  V30 1777 O 160.925 2.16239 -1.64174 0
M  V30 1778 C 159.381 0.43948 -3.57207 0
M  V30 1779 C 158.989 -0.822244 -4.4039 0
M  V30 1780 C 160.733 0.986012 -4.1289 0
M  V30 1781 C 158.64 -0.570304 -5.88644 0
M  V30 1782 H 157.57 0.0853333 -0.749156 0
M  V30 1783 H 160.221 -0.490483 -1.76823 0
M  V30 1784 H 158.603 1.20961 -3.77074 0
M  V30 1785 H 159.777 -1.59557 -4.32294 0
M  V30 1786 H 158.092 -1.29238 -3.95836 0
M  V30 1787 H 160.689 1.18991 -5.21292 0
M  V30 1788 H 161.032 1.94972 -3.6782 0
M  V30 1789 H 161.565 0.27592 -3.96842 0
M  V30 1790 H 158.304 -1.50449 -6.38001 0
M  V30 1791 H 157.824 0.164427 -5.99575 0
M  V30 1792 H 159.503 -0.19784 -6.46697 0
M  V30 1793 N 159.635 1.57281 -0.100228 0
M  V30 1794 C 160.882 1.94537 0.562268 0
M  V30 1795 C 161.21 0.982315 1.67871 0
M  V30 1796 O 160.465 0.00280936 1.957 0
M  V30 1797 C 160.764 3.38305 1.15259 0
M  V30 1798 C 160.43 4.50618 0.159409 0
M  V30 1799 C 159.092 4.81066 -0.113741 0
M  V30 1800 C 161.444 5.18615 -0.518461 0
M  V30 1801 C 158.772 5.76835 -1.07137 0
M  V30 1802 C 161.124 6.15412 -1.46459 0
M  V30 1803 C 159.788 6.44262 -1.74592 0
M  V30 1804 H 159.058 0.711863 0.205748 0
M  V30 1805 H 161.705 1.90679 -0.17715 0
M  V30 1806 H 160.01 3.38766 1.96836 0
M  V30 1807 H 161.707 3.64435 1.67297 0
M  V30 1808 H 158.297 4.2689 0.382491 0
M  V30 1809 H 162.481 4.95264 -0.320581 0
M  V30 1810 H 157.737 5.975 -1.29628 0
M  V30 1811 H 161.911 6.67194 -1.99564 0
M  V30 1812 H 159.538 7.1828 -2.48953 0
M  V30 1813 N 161.113 -0.173488 1.56642 0
M  V30 1814 C 162.39 -0.917617 1.7274 0
M  V30 1815 C 162.77 -2.00484 0.661027 0
M  V30 1816 O 162.118 -2.26184 -0.32453 0
M  V30 1817 C 162.328 -1.48433 3.15862 0
M  V30 1818 C 163.676 -1.95809 3.76754 0
M  V30 1819 O 164.7 -1.58231 3.19126 0
M  V30 1820 O 163.559 -2.65024 4.77938 0
M  V30 1821 H 160.653 -0.431772 0.705338 0
M  V30 1822 H 163.199 -0.161487 1.6893 0
M  V30 1823 H 161.971 -0.701715 3.84957 0
M  V30 1824 H 161.594 -2.30471 3.23989 0
M  V30 1825 N 162.591 -1.51276 -0.441967 0
M  V30 1826 C 163.816 -1.67799 -1.21895 0
M  V30 1827 C 164.241 -0.372864 -1.84367 0
M  V30 1828 O 163.599 0.666501 -1.68604 0
M  V30 1829 C 163.647 -2.79199 -2.28211 0
M  V30 1830 O 162.751 -2.42479 -3.33583 0
M  V30 1831 H 162.092 -0.559649 -0.357336 0
M  V30 1832 H 164.622 -1.97815 -0.522522 0
M  V30 1833 H 164.632 -3.03146 -2.73069 0
M  V30 1834 H 163.307 -3.73906 -1.82118 0
M  V30 1835 H 161.884 -2.29087 -2.94234 0
M  V30 1836 N 164.069 0.697108 -1.41344 0
M  V30 1837 C 165.299 1.48377 -1.43763 0
M  V30 1838 C 165.707 1.89156 -0.0408726 0
M  V30 1839 O 165.05 1.57239 0.949812 0
M  V30 1840 C 165.112 2.7781 -2.2817 0
M  V30 1841 C 164.776 2.59244 -3.76353 0
M  V30 1842 C 165.773 2.25292 -4.68551 0
M  V30 1843 C 163.458 2.74933 -4.20378 0
M  V30 1844 C 165.452 2.07264 -6.02761 0
M  V30 1845 C 163.139 2.56521 -5.54653 0
M  V30 1846 C 164.137 2.22737 -6.4566 0
M  V30 1847 O 163.825 2.04485 -7.77458 0
M  V30 1848 H 163.557 0.463842 -0.491759 0
M  V30 1849 H 166.111 0.865934 -1.86255 0
M  V30 1850 H 164.341 3.41995 -1.8049 0
M  V30 1851 H 166.03 3.39608 -2.22309 0
M  V30 1852 H 166.796 2.12787 -4.35829 0
M  V30 1853 H 162.675 3.00213 -3.49848 0
M  V30 1854 H 166.219 1.80817 -6.73759 0
M  V30 1855 H 162.116 2.68616 -5.86955 0
M  V30 1856 H 162.884 2.1926 -7.88586 0
M  V30 1857 N 165.547 1.27147 0.931209 0
M  V30 1858 C 166.796 1.12664 1.67302 0
M  V30 1859 C 167.109 -0.327718 1.92835 0
M  V30 1860 O 168.315 -0.593392 2.64936 0
M  V30 1861 C 166.771 1.9683 3.01307 0
M  V30 1862 C 166.379 3.46901 2.83485 0
M  V30 1863 C 168.123 1.90985 3.79111 0
M  V30 1864 C 166.03 4.23279 4.13024 0
M  V30 1865 H 164.96 0.41803 0.627509 0
M  V30 1866 H 167.611 1.51539 1.03481 0
M  V30 1867 H 165.993 1.50797 3.66164 0
M  V30 1868 H 167.167 4.00773 2.27415 0
M  V30 1869 H 165.482 3.54088 2.19113 0
M  V30 1870 H 168.079 2.45328 4.75098 0
M  V30 1871 H 168.422 0.882718 4.06834 0
M  V30 1872 H 168.955 2.34895 3.21044 0
M  V30 1873 H 165.694 5.26503 3.90481 0
M  V30 1874 H 165.214 3.74186 4.6877 0
M  V30 1875 H 166.893 4.32265 4.81411 0
M  V30 1876 N 167.025 -1.13721 1.09112 0
M  V30 1877 C 167.958 -2.18094 0.67158 0
M  V30 1878 C 168.936 -1.59414 -0.320299 0
M  V30 1879 O 170.12 -1.87183 -0.222444 0
M  V30 1880 C 167.247 -3.38698 -0.0111189 0
M  V30 1881 C 166.293 -4.15966 0.942055 0
M  V30 1882 S 167.126 -4.7604 2.45246 0
M  V30 1883 C 168.282 -5.99994 1.78208 0
M  V30 1884 H 168.515 -2.53344 1.55577 0
M  V30 1885 H 166.048 -1.24967 0.906789 0
M  V30 1886 H 168.006 -4.08559 -0.398716 0
M  V30 1887 H 166.667 -3.01756 -0.871905 0
M  V30 1888 H 165.86 -5.02318 0.411396 0
M  V30 1889 H 165.462 -3.51745 1.2709 0
M  V30 1890 H 167.754 -6.68441 1.10424 0
M  V30 1891 H 168.697 -6.57662 2.62463 0
M  V30 1892 H 169.105 -5.50432 1.25238 0
M  V30 1893 N 168.503 -0.877838 -1.30888 0
M  V30 1894 C 169.45 -0.337538 -2.28318 0
M  V30 1895 C 170.42 0.568346 -1.56074 0
M  V30 1896 O 171.605 0.498298 -1.84178 0
M  V30 1897 C 168.745 0.448142 -3.42178 0
M  V30 1898 C 167.858 -0.48615 -4.29256 0
M  V30 1899 C 166.993 0.314427 -5.30269 0
M  V30 1900 C 166.032 -0.615791 -6.08995 0
M  V30 1901 N 165.169 0.14902 -7.01942 0
M  V30 1902 H 170.009 -1.17356 -2.73919 0
M  V30 1903 H 167.546 -0.590094 -1.34745 0
M  V30 1904 H 169.504 0.919517 -4.06941 0
M  V30 1905 H 168.134 1.24879 -2.97666 0
M  V30 1906 H 167.186 -1.076 -3.64865 0
M  V30 1907 H 168.498 -1.19909 -4.84173 0
M  V30 1908 H 167.652 0.847969 -6.00745 0
M  V30 1909 H 166.391 1.06062 -4.76027 0
M  V30 1910 H 165.396 -1.16102 -5.37401 0
M  V30 1911 H 166.621 -1.36097 -6.65323 0
M  V30 1912 H 164.567 0.877884 -6.50099 0
M  V30 1913 H 164.484 -0.504433 -7.54315 0
M  V30 1914 H 165.752 0.663537 -7.76671 0
M  V30 1915 N 169.982 1.44106 -0.638065 0
M  V30 1916 C 170.892 2.34513 0.0637334 0
M  V30 1917 C 171.908 1.53018 0.828346 0
M  V30 1918 O 173.084 1.85723 0.779036 0
M  V30 1919 C 170.149 3.31095 1.02844 0
M  V30 1920 C 169.21 4.28497 0.26244 0
M  V30 1921 C 168.443 5.20465 1.1812 0
M  V30 1922 O 168.666 5.16514 2.42011 0
M  V30 1923 O 167.6 5.98251 0.661774 0
M  V30 1924 H 171.426 2.95989 -0.68003 0
M  V30 1925 H 169.011 1.43994 -0.398252 0
M  V30 1926 H 170.893 3.90526 1.58327 0
M  V30 1927 H 169.568 2.72144 1.7527 0
M  V30 1928 H 168.475 3.72592 -0.335602 0
M  V30 1929 H 169.808 4.90388 -0.421936 0
M  V30 1930 N 171.46 0.379036 1.52974 0
M  V30 1931 C 172.39 -0.452706 2.29069 0
M  V30 1932 C 173.371 -1.07237 1.32039 0
M  V30 1933 O 174.556 -1.08708 1.60923 0
M  V30 1934 C 171.686 -1.5856 3.08992 0
M  V30 1935 C 170.64 -1.0925 4.13822 0
M  V30 1936 C 169.966 -2.31668 4.81907 0
M  V30 1937 C 171.266 -0.167702 5.22031 0
M  V30 1938 H 172.96 0.182181 2.98845 0
M  V30 1939 H 170.506 0.0890592 1.43724 0
M  V30 1940 H 172.459 -2.1742 3.6098 0
M  V30 1941 H 171.183 -2.24792 2.36931 0
M  V30 1942 H 169.842 -0.526494 3.628 0
M  V30 1943 H 169.49 -2.96386 4.06404 0
M  V30 1944 H 169.19 -1.9934 5.52754 0
M  V30 1945 H 170.714 -2.91189 5.36695 0
M  V30 1946 H 172.128 -0.664186 5.6944 0
M  V30 1947 H 170.525 0.0653265 6.00064 0
M  V30 1948 H 171.595 0.786347 4.78482 0
M  V30 1949 N 172.938 -1.57226 0.108567 0
M  V30 1950 C 173.868 -2.17778 -0.84232 0
M  V30 1951 C 174.849 -1.11487 -1.2847 0
M  V30 1952 O 176.034 -1.39681 -1.34918 0
M  V30 1953 C 173.164 -2.76888 -2.09644 0
M  V30 1954 C 172.118 -3.88669 -1.79221 0
M  V30 1955 C 171.444 -4.34541 -3.11574 0
M  V30 1956 C 172.744 -5.11251 -1.06864 0
M  V30 1957 H 174.438 -2.97489 -0.337774 0
M  V30 1958 H 171.984 -1.43097 -0.161025 0
M  V30 1959 H 173.937 -3.17904 -2.76614 0
M  V30 1960 H 172.661 -1.94451 -2.62405 0
M  V30 1961 H 171.32 -3.48213 -1.14644 0
M  V30 1962 H 170.968 -3.48977 -3.62249 0
M  V30 1963 H 170.668 -5.09914 -2.91996 0
M  V30 1964 H 172.192 -4.782 -3.7968 0
M  V30 1965 H 173.606 -5.49352 -1.63968 0
M  V30 1966 H 172.003 -5.9214 -0.974178 0
M  V30 1967 H 173.073 -4.8487 -0.0536168 0
M  V30 1968 N 174.416 0.165178 -1.56732 0
M  V30 1969 C 175.379 1.18822 -1.95995 0
M  V30 1970 C 176.379 1.3685 -0.84431 0
M  V30 1971 O 177.569 1.34152 -1.11126 0
M  V30 1972 C 174.701 2.5521 -2.26011 0
M  V30 1973 H 175.894 0.851825 -2.87548 0
M  V30 1974 H 173.447 0.407857 -1.50885 0
M  V30 1975 H 174.182 2.93852 -1.37191 0
M  V30 1976 H 173.967 2.43489 -3.07336 0
M  V30 1977 H 175.457 3.28927 -2.57288 0
M  V30 1978 N 175.894 1.51508 0.433938 0
M  V30 1979 C 177.134 1.66006 1.19253 0
M  V30 1980 C 177.498 0.369868 1.88404 0
M  V30 1981 O 178.699 0.39066 2.65946 0
M  V30 1982 C 176.97 2.83229 2.17981 0
M  V30 1983 S 178.529 3.18075 3.02281 0
M  V30 1984 H 175.347 0.584821 0.404358 0
M  V30 1985 H 177.949 1.89425 0.48357 0
M  V30 1986 H 176.653 3.75407 1.65824 0
M  V30 1987 H 176.184 2.6201 2.93453 0
M  V30 1988 H 178.199 2.64772 4.19655 0
M  V30 1989 N 177.372 -0.689602 1.41712 0
M  V30 1990 C 178.597 -1.48329 1.44959 0
M  V30 1991 C 179.022 -1.8801 0.0581283 0
M  V30 1992 O 178.38 -1.55026 -0.940035 0
M  V30 1993 C 178.428 -2.71835 2.36935 0
M  V30 1994 O 177.532 -3.69549 1.8305 0
M  V30 1995 H 176.873 -0.446199 0.491734 0
M  V30 1996 H 179.403 -0.847127 1.86239 0
M  V30 1997 H 179.413 -3.20076 2.53013 0
M  V30 1998 H 178.088 -2.42291 3.38035 0
M  V30 1999 H 176.665 -3.2851 1.76452 0
M  V30 2000 N 178.85 -1.27639 -0.924453 0
M  V30 2001 C 179.8 -1.07295 -2.01176 0
M  V30 2002 C 180.784 5.77352e-05 -1.609 0
M  V30 2003 O 181.976 -0.218855 -1.75642 0
M  V30 2004 C 179.105 -0.725592 -3.35544 0
M  V30 2005 C 178.191 -1.83691 -3.82254 0
M  V30 2006 N 178.582 -3.07697 -4.01443 0
M  V30 2007 C 176.88 -1.72433 -4.11319 0
M  V30 2008 C 177.581 -3.80037 -4.40394 0
M  V30 2009 N 176.557 -3.0782 -4.48049 0
M  V30 2010 H 180.359 -2.01399 -2.14046 0
M  V30 2011 H 177.873 -1.18401 -1.11153 0
M  V30 2012 H 179.87 -0.560959 -4.13109 0
M  V30 2013 H 178.53 0.207782 -3.24034 0
M  V30 2014 H 179.541 -3.43424 -3.8766 0
M  V30 2015 H 176.218 -0.862005 -4.08504 0
M  V30 2016 H 177.608 -4.86632 -4.63291 0
M  V30 2017 N 180.328 1.1314 -1.09713 0
M  V30 2018 C 181.739 1.66029 -0.853885 0
M  V30 2019 C 182.09 1.86241 0.617142 0
M  V30 2020 O 181.215 1.5834 1.47503 0
M  V30 2021 C 181.81 3.01599 -1.5435 0
M  V30 2022 C 180.369 3.51467 -1.34714 0
M  V30 2023 C 179.516 2.26648 -1.59769 0
M  V30 2024 H 182.467 0.970226 -1.25588 0
M  V30 2025 H 182.488 3.67709 -0.978267 0
M  V30 2026 H 182 2.86856 -2.6141 0
M  V30 2027 H 180.101 3.71408 -0.297838 0
M  V30 2028 H 180.214 4.314 -2.08401 0
M  V30 2029 H 178.578 2.33385 -1.01998 0
M  V30 2030 H 179.361 2.14467 -2.68065 0
M  V30 2031 N 181.806 0.884767 1.30421 0
M  V30 2032 C 183.053 0.503105 1.96151 0
M  V30 2033 C 183.381 -0.947676 1.69851 0
M  V30 2034 O 182.636 -1.68467 0.995861 0
M  V30 2035 C 182.935 0.724318 3.49983 0
M  V30 2036 C 182.601 2.15015 3.96332 0
M  V30 2037 C 181.263 2.54005 4.08699 0
M  V30 2038 C 183.615 3.07936 4.20505 0
M  V30 2039 C 180.943 3.85128 4.42599 0
M  V30 2040 C 183.295 4.3859 4.55874 0
M  V30 2041 C 181.959 4.77474 4.66449 0
M  V30 2042 H 181.229 0.184099 0.717766 0
M  V30 2043 H 183.876 1.12058 1.55291 0
M  V30 2044 H 182.181 0.0238086 3.91793 0
M  V30 2045 H 183.878 0.408617 3.98913 0
M  V30 2046 H 180.468 1.8375 3.87213 0
M  V30 2047 H 184.652 2.79033 4.10431 0
M  V30 2048 H 179.908 4.14996 4.48986 0
M  V30 2049 H 184.082 5.10629 4.7353 0
M  V30 2050 H 181.709 5.79115 4.92473 0
M  V30 2051 N 183.284 -1.43765 0.645699 0
M  V30 2052 C 184.509 -2.06767 0.161883 0
M  V30 2053 C 184.934 -1.48034 -1.16049 0
M  V30 2054 O 184.292 -0.587369 -1.71522 0
M  V30 2055 C 184.34 -3.60519 0.0762003 0
M  V30 2056 O 183.444 -4.00982 -0.963721 0
M  V30 2057 H 182.785 -0.657675 0.091429 0
M  V30 2058 H 185.315 -1.84397 0.886499 0
M  V30 2059 H 185.325 -4.07853 -0.109604 0
M  V30 2060 H 184 -4.02646 1.04157 0
M  V30 2061 H 182.577 -3.65253 -0.751312 0
M  V30 2062 N 184.763 -0.387143 -1.52771 0
M  V30 2063 C 185.71 0.449048 -2.26389 0
M  V30 2064 C 186.68 1.05961 -1.27912 0
M  V30 2065 O 187.865 1.08804 -1.56737 0
M  V30 2066 C 185.005 1.57155 -3.0724 0
M  V30 2067 C 184.118 0.984066 -4.20643 0
M  V30 2068 C 183.253 2.07745 -4.88892 0
M  V30 2069 C 182.292 1.46574 -5.94292 0
M  V30 2070 N 181.429 2.49834 -6.56146 0
M  V30 2071 H 186.269 -0.185205 -2.97424 0
M  V30 2072 H 183.806 -0.103164 -1.46738 0
M  V30 2073 H 185.764 2.23309 -3.52405 0
M  V30 2074 H 184.394 2.17615 -2.38419 0
M  V30 2075 H 183.446 0.212193 -3.79808 0
M  V30 2076 H 184.758 0.497029 -4.96318 0
M  V30 2077 H 183.912 2.81673 -5.3735 0
M  V30 2078 H 182.651 2.59807 -4.12737 0
M  V30 2079 H 181.656 0.711696 -5.45174 0
M  V30 2080 H 182.881 0.953088 -6.72379 0
M  V30 2081 H 180.827 3.0107 -5.82832 0
M  V30 2082 H 180.744 2.05879 -7.27427 0
M  V30 2083 H 182.012 3.23399 -7.09249 0
M  V30 2084 N 186.241 1.57166 -0.116904 0
M  V30 2085 C 187.466 1.999 0.55271 0
M  V30 2086 C 187.891 0.996039 1.59564 0
M  V30 2087 O 187.249 -0.032556 1.81271 0
M  V30 2088 C 187.297 3.4152 1.15742 0
M  V30 2089 O 186.401 3.44106 2.27299 0
M  V30 2090 H 185.742 0.649447 0.138258 0
M  V30 2091 H 188.272 2.03573 -0.204759 0
M  V30 2092 H 188.282 3.79684 1.49346 0
M  V30 2093 H 186.957 4.14034 0.393493 0
M  V30 2094 H 185.534 3.17759 1.9515 0
M  V30 2095 N 187.719 -0.156864 1.56817 0
M  V30 2096 C 188.682 -1.17781 1.96622 0
M  V30 2097 C 189.682 -1.36401 0.851555 0
M  V30 2098 O 190.872 -1.33561 1.11836 0
M  V30 2099 C 188.004 -2.54008 2.27361 0
M  V30 2100 H 189.197 -0.836564 2.87996 0
M  V30 2101 H 186.75 -0.39985 1.51099 0
M  V30 2102 H 187.485 -2.9312 1.38748 0
M  V30 2103 H 187.27 -2.41856 3.08623 0
M  V30 2104 H 188.76 -3.27558 2.59029 0
M  V30 2105 N 189.197 -1.51736 -0.425897 0
M  V30 2106 C 190.425 -1.68794 -1.1965 0
M  V30 2107 C 190.84 -0.390164 -1.84725 0
M  V30 2108 O 190.197 0.632376 -1.71194 0
M  V30 2109 C 190.248 -2.81174 -2.27208 0
M  V30 2110 O 189.969 -4.05925 -1.64793 0
M  V30 2111 C 191.47 -3.09599 -3.17275 0
M  V30 2112 H 188.69 -0.566128 -0.360194 0
M  V30 2113 H 191.234 -1.98211 -0.503249 0
M  V30 2114 H 189.389 -2.54324 -2.9223 0
M  V30 2115 H 189.803 -4.68423 -2.35967 0
M  V30 2116 H 191.277 -3.91786 -3.88854 0
M  V30 2117 H 191.754 -2.22468 -3.78688 0
M  V30 2118 H 192.36 -3.38151 -2.57941 0
M  V30 2119 N 190.675 0.682077 -1.42076 0
M  V30 2120 C 191.585 1.82535 -1.47371 0
M  V30 2121 C 192.601 1.7017 -0.363079 0
M  V30 2122 O 193.777 1.91848 -0.612875 0
M  V30 2123 C 190.842 3.18624 -1.36674 0
M  V30 2124 C 189.903 3.42999 -2.58167 0
M  V30 2125 C 189.136 4.72595 -2.4797 0
M  V30 2126 O 189.359 5.50006 -1.5116 0
M  V30 2127 O 188.293 4.98054 -3.37974 0
M  V30 2128 H 192.119 1.81023 -2.43853 0
M  V30 2129 H 189.704 0.836887 -1.2376 0
M  V30 2130 H 191.586 3.99847 -1.33043 0
M  V30 2131 H 190.261 3.20789 -0.433138 0
M  V30 2132 H 189.168 2.61653 -2.67373 0
M  V30 2133 H 190.501 3.45659 -3.50401 0
M  V30 2134 N 192.153 1.28127 0.917671 0
M  V30 2135 C 193.103 1.08361 2.00604 0
M  V30 2136 C 194.087 0.00847518 1.60898 0
M  V30 2137 O 195.279 0.228167 1.75523 0
M  V30 2138 C 192.408 0.743376 3.35155 0
M  V30 2139 C 191.494 1.85716 3.81275 0
M  V30 2140 N 191.885 3.09822 3.99805 0
M  V30 2141 C 190.183 1.74612 4.10398 0
M  V30 2142 C 190.884 3.82368 4.38372 0
M  V30 2143 N 189.86 3.10192 4.4641 0
M  V30 2144 H 193.662 2.02531 2.12975 0
M  V30 2145 H 191.176 1.18989 1.10523 0
M  V30 2146 H 193.173 0.582859 4.12805 0
M  V30 2147 H 191.833 -0.190595 3.2414 0
M  V30 2148 H 192.844 3.45475 3.85833 0
M  V30 2149 H 189.521 0.883657 4.08041 0
M  V30 2150 H 190.911 4.89082 4.60704 0
M  V30 2151 N 193.631 -1.12557 1.10312 0
M  V30 2152 C 194.877 -1.84311 0.846011 0
M  V30 2153 C 195.21 -1.83805 -0.626859 0
M  V30 2154 O 194.485 -1.28268 -1.46211 0
M  V30 2155 C 194.768 -3.32048 1.39341 0
M  V30 2156 C 194.621 -3.41016 2.93305 0
M  V30 2157 C 195.94 -4.27764 1.03468 0
M  V30 2158 H 193.059 -0.669192 0.30879 0
M  V30 2159 H 195.701 -1.32057 1.36605 0
M  V30 2160 H 193.851 -3.76678 0.951087 0
M  V30 2161 H 195.523 -3.05031 3.46055 0
M  V30 2162 H 193.766 -2.81603 3.29973 0
M  V30 2163 H 194.437 -4.44948 3.26689 0
M  V30 2164 H 196.913 -3.91253 1.41633 0
M  V30 2165 H 195.789 -5.29549 1.44463 0
M  V30 2166 H 196.05 -4.42064 -0.0560404 0
M  V30 2167 N 195.109 -0.891671 -1.2995 0
M  V30 2168 C 196.041 -0.320695 -2.26945 0
M  V30 2169 C 197.054 0.528497 -1.53983 0
M  V30 2170 O 198.243 0.346959 -1.75096 0
M  V30 2171 C 195.343 0.562066 -3.34207 0
M  V30 2172 C 194.516 -0.259576 -4.36629 0
M  V30 2173 C 193.575 0.554739 -5.23268 0
M  V30 2174 O 192.601 -0.0249311 -5.69195 0
M  V30 2175 N 193.803 1.8625 -5.4981 0
M  V30 2176 H 196.568 -1.15432 -2.76578 0
M  V30 2177 H 194.129 -0.755336 -1.432 0
M  V30 2178 H 196.121 1.11304 -3.89093 0
M  V30 2179 H 194.691 1.29637 -2.84452 0
M  V30 2180 H 193.911 -0.991986 -3.81514 0
M  V30 2181 H 195.199 -0.822564 -5.02107 0
M  V30 2182 H 194.597 2.35628 -5.14292 0
M  V30 2183 H 193.154 2.36078 -6.07545 0
M  V30 2184 N 196.587 1.43421 -0.653314 0
M  V30 2185 C 197.835 2.01414 -0.166415 0
M  V30 2186 C 198.156 1.51803 1.22397 0
M  V30 2187 O 197.426 0.730693 1.81763 0
M  V30 2188 H 196.006 0.744703 -0.0585319 0
M  V30 2189 H 198.668 1.75629 -0.845003 0
M  V30 2190 H 197.764 3.11734 -0.151111 0
M  V30 2191 N 198.065 0.39524 1.52563 0
M  V30 2192 C 199.015 -0.4541 2.23432 0
M  V30 2193 C 199.999 -1.02482 1.24042 0
M  V30 2194 O 201.191 -0.949938 1.49349 0
M  V30 2195 C 198.32 -1.57769 3.049 0
M  V30 2196 C 197.406 -1.01842 4.1169 0
M  V30 2197 N 197.797 -0.184613 5.05463 0
M  V30 2198 C 196.095 -1.29033 4.26927 0
M  V30 2199 C 196.796 0.125013 5.81566 0
M  V30 2200 N 195.772 -0.480498 5.41472 0
M  V30 2201 H 199.574 0.189413 2.93289 0
M  V30 2202 H 197.088 0.204877 1.61102 0
M  V30 2203 H 199.085 -2.19862 3.54212 0
M  V30 2204 H 197.745 -2.22397 2.36579 0
M  V30 2205 H 198.756 0.178602 5.17592 0
M  V30 2206 H 195.433 -1.93721 3.69836 0
M  V30 2207 H 196.823 0.800962 6.67109 0
M  V30 2208 N 199.544 -1.57102 0.125237 0
M  V30 2209 C 200.474 -2.18659 -0.819174 0
M  V30 2210 C 201.455 -1.12843 -1.27281 0
M  V30 2211 O 202.64 -1.41104 -1.33429 0
M  V30 2212 C 199.77 -2.79096 -2.06695 0
M  V30 2213 C 198.724 -3.90548 -1.75088 0
M  V30 2214 C 198.05 -4.37821 -3.06948 0
M  V30 2215 C 199.35 -5.12356 -1.01435 0
M  V30 2216 H 201.044 -2.9783 -0.306202 0
M  V30 2217 H 198.59 -1.4326 -0.145839 0
M  V30 2218 H 200.543 -3.2082 -2.73226 0
M  V30 2219 H 199.267 -1.97223 -2.60328 0
M  V30 2220 H 197.926 -3.49409 -1.10944 0
M  V30 2221 H 197.574 -3.52799 -3.58527 0
M  V30 2222 H 197.274 -5.12982 -2.86571 0
M  V30 2223 H 198.798 -4.822 -3.74587 0
M  V30 2224 H 200.212 -5.5106 -1.58132 0
M  V30 2225 H 198.609 -5.9314 -0.911319 0
M  V30 2226 H 199.679 -4.849 -0.00218681 0
M  V30 2227 N 201.022 0.148545 -1.56898 0
M  V30 2228 C 202.27 0.859717 -1.82902 0
M  V30 2229 C 202.591 1.81775 -0.70588 0
M  V30 2230 O 201.861 1.93994 0.272586 0
M  V30 2231 H 200.441 0.320469 -0.674766 0
M  V30 2232 H 203.103 0.142918 -1.94375 0
M  V30 2233 H 202.199 1.4229 -2.77777 0
M  V30 2234 N 202.5 1.5196 0.417844 0
M  V30 2235 C 203.447 1.74678 1.50852 0
M  V30 2236 C 204.417 0.588947 1.55308 0
M  V30 2237 O 205.602 0.825544 1.72016 0
M  V30 2238 C 202.742 1.89544 2.88387 0
M  V30 2239 C 201.855 3.17166 2.93309 0
M  V30 2240 C 200.99 3.22513 4.22088 0
M  V30 2241 C 200.029 4.44372 4.20951 0
M  V30 2242 N 199.166 4.47161 5.41287 0
M  V30 2243 H 204.006 2.67768 1.30783 0
M  V30 2244 H 201.543 1.32689 0.63498 0
M  V30 2245 H 203.501 1.96146 3.68216 0
M  V30 2246 H 202.131 0.998424 3.06971 0
M  V30 2247 H 201.183 3.19778 2.06024 0
M  V30 2248 H 202.495 4.07021 2.88332 0
M  V30 2249 H 201.649 3.28139 5.10303 0
M  V30 2250 H 200.388 2.30581 4.29748 0
M  V30 2251 H 199.393 4.38902 3.31127 0
M  V30 2252 H 200.618 5.3759 4.14938 0
M  V30 2253 H 198.564 3.58108 5.49632 0
M  V30 2254 H 198.481 5.3085 5.3827 0
M  V30 2255 H 199.749 4.57005 6.3148 0
M  V30 2256 N 203.978 -0.674533 1.42435 0
M  V30 2257 C 204.925 -1.78807 1.45934 0
M  V30 2258 C 205.895 -1.63157 0.311271 0
M  V30 2259 O 207.08 -1.83707 0.515383 0
M  V30 2260 C 204.22 -3.16839 1.36773 0
M  V30 2261 C 203.333 -3.43774 2.61617 0
M  V30 2262 C 202.468 -4.71536 2.44597 0
M  V30 2263 C 201.507 -4.91505 3.64814 0
M  V30 2264 N 200.644 -6.10508 3.46734 0
M  V30 2265 H 205.484 -1.75151 2.41093 0
M  V30 2266 H 203.021 -0.85504 1.19697 0
M  V30 2267 H 204.979 -3.96606 1.29459 0
M  V30 2268 H 203.609 -3.19619 0.452089 0
M  V30 2269 H 202.661 -2.58259 2.79297 0
M  V30 2270 H 203.973 -3.54423 3.50978 0
M  V30 2271 H 203.127 -5.59393 2.3487 0
M  V30 2272 H 201.866 -4.6317 1.52726 0
M  V30 2273 H 200.871 -4.0209 3.74972 0
M  V30 2274 H 202.096 -5.01716 4.57665 0
M  V30 2275 H 200.042 -6.03315 2.5758 0
M  V30 2276 H 199.959 -6.2202 4.29682 0
M  V30 2277 H 201.227 -7.01044 3.40819 0
M  V30 2278 N 205.456 -1.28612 -0.910864 0
M  V30 2279 C 206.388 -1.08589 -2.01844 0
M  V30 2280 C 207.401 -0.0367419 -1.62759 0
M  V30 2281 O 208.59 -0.280101 -1.76289 0
M  V30 2282 C 205.69 -0.628626 -3.33019 0
M  V30 2283 C 204.863 -1.75382 -4.00699 0
M  V30 2284 C 203.922 -1.28945 -5.10156 0
M  V30 2285 O 202.948 -1.9922 -5.33198 0
M  V30 2286 N 204.15 -0.154224 -5.80295 0
M  V30 2287 H 206.915 -2.03973 -2.19579 0
M  V30 2288 H 204.476 -1.20403 -1.08234 0
M  V30 2289 H 206.468 -0.301508 -4.03575 0
M  V30 2290 H 205.038 0.232451 -3.11735 0
M  V30 2291 H 204.258 -2.25039 -3.23653 0
M  V30 2292 H 205.546 -2.50854 -4.42662 0
M  V30 2293 H 204.944 0.43194 -5.64049 0
M  V30 2294 H 203.501 0.113599 -6.51701 0
M  V30 2295 N 206.934 1.1197 -1.10907 0
M  V30 2296 C 208.18 1.8386 -0.855773 0
M  V30 2297 C 208.513 1.84134 0.617103 0
M  V30 2298 O 207.788 1.29041 1.45529 0
M  V30 2299 C 208.071 3.31305 -1.411 0
M  V30 2300 C 207.924 3.39456 -2.9511 0
M  V30 2301 C 209.243 4.2721 -1.05736 0
M  V30 2302 H 206.362 0.667545 -0.312334 0
M  V30 2303 H 209.004 1.31331 -1.37303 0
M  V30 2304 H 207.154 3.76169 -0.97105 0
M  V30 2305 H 208.826 3.03191 -3.47668 0
M  V30 2306 H 207.069 2.79849 -3.31462 0
M  V30 2307 H 207.74 4.43209 -3.29044 0
M  V30 2308 H 210.216 3.90497 -1.43706 0
M  V30 2309 H 209.092 5.28775 -1.47269 0
M  V30 2310 H 209.353 4.42088 0.0325958 0
M  V30 2311 N 208.412 0.89855 1.29475 0
M  V30 2312 C 209.823 0.572537 1.77705 0
M  V30 2313 C 210.174 -0.911778 1.73727 0
M  V30 2314 O 209.299 -1.71288 1.32247 0
M  V30 2315 C 209.894 1.03252 3.22683 0
M  V30 2316 C 208.453 0.757687 3.68695 0
M  V30 2317 C 207.6 1.20787 2.49612 0
M  V30 2318 H 210.551 1.08139 1.16153 0
M  V30 2319 H 210.572 0.367307 3.78723 0
M  V30 2320 H 210.084 2.11285 3.25546 0
M  V30 2321 H 208.185 -0.310079 3.71308 0
M  V30 2322 H 208.298 1.35476 4.59547 0
M  V30 2323 H 206.662 0.626888 2.46865 0
M  V30 2324 H 207.445 2.29622 2.55203 0
M  V30 2325 N 209.89 -1.43072 0.660911 0
M  V30 2326 C 211.301 -1.84932 0.256348 0
M  V30 2327 C 211.652 -1.55325 -1.19868 0
M  V30 2328 O 210.777 -1.00607 -1.91591 0
M  V30 2329 C 211.372 -3.35684 0.458475 0
M  V30 2330 C 209.931 -3.76245 0.108161 0
M  V30 2331 C 209.078 -2.66749 0.757641 0
M  V30 2332 H 212.029 -1.33116 0.864051 0
M  V30 2333 H 212.05 -3.79365 -0.293683 0
M  V30 2334 H 211.562 -3.572 1.51755 0
M  V30 2335 H 209.663 -3.60338 -0.948014 0
M  V30 2336 H 209.776 -4.76058 0.538992 0
M  V30 2337 H 208.14 -2.53989 0.190185 0
M  V30 2338 H 208.923 -2.91092 1.81989 0
M  V30 2339 N 211.368 -0.403325 -1.52352 0
M  V30 2340 C 212.645 0.232611 -1.94212 0
M  V30 2341 C 213.025 1.63133 -1.33981 0
M  V30 2342 O 212.373 2.22659 -0.513344 0
M  V30 2343 C 212.583 0.244811 -3.4814 0
M  V30 2344 C 213.931 0.46698 -4.22024 0
M  V30 2345 O 214.955 0.324419 -3.5472 0
M  V30 2346 O 213.814 0.74747 -5.41364 0
M  V30 2347 H 210.908 0.148223 -0.813609 0
M  V30 2348 H 213.454 -0.458848 -1.63379 0
M  V30 2349 H 212.226 -0.734378 -3.84347 0
M  V30 2350 H 211.849 0.980611 -3.85318 0
M  V30 2351 N 212.846 1.57033 -0.133567 0
M  V30 2352 C 213.776 2.1909 0.807567 0
M  V30 2353 C 214.757 1.13517 1.26681 0
M  V30 2354 O 215.942 1.41809 1.32679 0
M  V30 2355 C 213.072 2.80188 2.05212 0
M  V30 2356 C 212.026 3.91471 1.73015 0
M  V30 2357 C 211.352 4.39443 3.04622 0
M  V30 2358 C 212.652 5.12886 0.987168 0
M  V30 2359 H 214.346 2.97988 0.290403 0
M  V30 2360 H 211.892 1.43335 0.138239 0
M  V30 2361 H 213.845 3.22264 2.71521 0
M  V30 2362 H 212.569 1.98601 2.59278 0
M  V30 2363 H 211.228 3.49993 1.0909 0
M  V30 2364 H 210.876 3.54695 3.56651 0
M  V30 2365 H 210.576 5.14495 2.83847 0
M  V30 2366 H 212.1 4.8418 3.72024 0
M  V30 2367 H 213.514 5.51891 1.55208 0
M  V30 2368 H 211.911 5.93615 0.87985 0
M  V30 2369 H 212.981 4.84894 -0.0235286 0
M  V30 2370 N 214.325 -0.140222 1.56975 0
M  V30 2371 C 215.572 -0.851687 1.83719 0
M  V30 2372 C 215.9 -1.80862 0.715485 0
M  V30 2373 O 215.155 -1.93464 -0.294956 0
M  V30 2374 C 215.454 -1.65386 3.16832 0
M  V30 2375 C 215.12 -0.843112 4.42947 0
M  V30 2376 C 213.782 -0.619464 4.77196 0
M  V30 2377 C 216.134 -0.276582 5.20466 0
M  V30 2378 C 213.462 0.181312 5.8642 0
M  V30 2379 C 215.814 0.51127 6.30531 0
M  V30 2380 C 214.478 0.745432 6.63325 0
M  V30 2381 H 213.748 -0.311654 0.672274 0
M  V30 2382 H 216.395 -0.115006 1.91154 0
M  V30 2383 H 214.7 -2.46084 3.04877 0
M  V30 2384 H 216.397 -2.20793 3.34741 0
M  V30 2385 H 212.987 -1.0275 4.16101 0
M  V30 2386 H 217.171 -0.436632 4.94376 0
M  V30 2387 H 212.427 0.372165 6.10266 0
M  V30 2388 H 216.601 0.957354 6.89788 0
M  V30 2389 H 214.228 1.36778 7.47794 0
M  V30 2390 N 215.803 -1.52179 -0.40978 0
M  V30 2391 C 216.735 -1.71703 -1.51825 0
M  V30 2392 C 217.748 -0.597445 -1.51441 0
M  V30 2393 O 218.937 -0.872582 -1.55719 0
M  V30 2394 C 216.037 -1.74171 -2.90719 0
M  V30 2395 C 215.21 -3.03156 -3.15302 0
M  V30 2396 C 214.269 -2.97445 -4.34065 0
M  V30 2397 O 213.295 -3.71352 -4.31377 0
M  V30 2398 N 214.497 -2.15191 -5.39141 0
M  V30 2399 H 217.262 -2.67334 -1.35472 0
M  V30 2400 H 214.823 -1.50409 -0.599069 0
M  V30 2401 H 216.815 -1.67884 -3.68235 0
M  V30 2402 H 215.385 -0.860166 -3.00533 0
M  V30 2403 H 214.605 -3.23097 -2.25836 0
M  V30 2404 H 215.893 -3.88484 -3.28569 0
M  V30 2405 H 215.291 -1.54573 -5.44173 0
M  V30 2406 H 213.848 -2.1476 -6.15403 0
M  V30 2407 N 217.281 0.66697 -1.42791 0
M  V30 2408 C 218.692 1.2478 -1.38877 0
M  V30 2409 C 219.043 1.96012 -0.0859426 0
M  V30 2410 O 218.168 2.00463 0.815081 0
M  V30 2411 C 218.763 2.26938 -2.51564 0
M  V30 2412 C 217.322 2.80529 -2.50959 0
M  V30 2413 C 216.469 1.54965 -2.29959 0
M  V30 2414 H 219.42 0.459853 -1.51892 0
M  V30 2415 H 219.441 3.08834 -2.22265 0
M  V30 2416 H 218.953 1.75065 -3.46372 0
M  V30 2417 H 217.054 3.36502 -1.59991 0
M  V30 2418 H 217.167 3.29012 -3.48265 0
M  V30 2419 H 215.531 1.81817 -1.78366 0
M  V30 2420 H 216.314 1.05047 -3.26833 0
M  V30 2421 N 218.759 1.29093 0.90403 0
M  V30 2422 C 219.989 1.19516 1.68522 0
M  V30 2423 C 220.397 -0.24738 1.87576 0
M  V30 2424 O 219.74 -1.17798 1.40959 0
M  V30 2425 C 219.802 1.83249 3.0929 0
M  V30 2426 C 219.466 3.32531 3.13484 0
M  V30 2427 C 220.463 4.28821 2.93953 0
M  V30 2428 C 218.148 3.73656 3.35688 0
M  V30 2429 C 220.142 5.64212 2.96553 0
M  V30 2430 C 217.829 5.0917 3.37919 0
M  V30 2431 C 218.827 6.04258 3.18373 0
M  V30 2432 O 218.515 7.37298 3.20385 0
M  V30 2433 H 218.247 0.415467 0.533257 0
M  V30 2434 H 220.801 1.70912 1.13922 0
M  V30 2435 H 219.031 1.26358 3.65473 0
M  V30 2436 H 220.72 1.68054 3.69476 0
M  V30 2437 H 221.486 3.98382 2.76616 0
M  V30 2438 H 217.365 3.00101 3.49943 0
M  V30 2439 H 220.909 6.38407 2.81216 0
M  V30 2440 H 216.806 5.39256 3.54787 0
M  V30 2441 H 217.574 7.46048 3.36681 0
M  V30 2442 N 220.237 -1.11381 1.11499 0
M  V30 2443 C 221.486 -1.82494 0.858993 0
M  V30 2444 C 221.799 -1.85605 -0.617278 0
M  V30 2445 O 223.005 -2.52824 -0.989552 0
M  V30 2446 C 221.461 -3.27745 1.48699 0
M  V30 2447 C 221.069 -3.32961 2.99735 0
M  V30 2448 C 222.813 -4.03754 1.31085 0
M  V30 2449 C 220.72 -4.72612 3.55516 0
M  V30 2450 H 219.65 -0.683802 0.317696 0
M  V30 2451 H 222.301 -1.25331 1.34031 0
M  V30 2452 H 220.683 -3.84844 0.933339 0
M  V30 2453 H 221.857 -2.85741 3.61509 0
M  V30 2454 H 220.172 -2.70433 3.16631 0
M  V30 2455 H 222.769 -5.06891 1.70192 0
M  V30 2456 H 223.112 -4.15527 0.253496 0
M  V30 2457 H 223.645 -3.53043 1.83318 0
M  V30 2458 H 220.384 -4.66036 4.60967 0
M  V30 2459 H 219.904 -5.2024 2.98513 0
M  V30 2460 H 221.583 -5.4157 3.53992 0
M  V30 2461 N 221.715 -0.905404 -1.28997 0
M  V30 2462 C 222.625 -0.392246 -2.31298 0
M  V30 2463 C 223.641 0.515889 -1.66176 0
M  V30 2464 O 224.817 0.404093 -1.97304 0
M  V30 2465 C 221.882 0.36686 -3.44754 0
M  V30 2466 C 220.943 -0.573485 -4.25452 0
M  V30 2467 C 220.176 0.149488 -5.33491 0
M  V30 2468 O 220.399 1.37255 -5.5364 0
M  V30 2469 O 219.333 -0.510919 -5.99728 0
M  V30 2470 H 223.159 -1.2411 -2.77183 0
M  V30 2471 H 220.744 -0.669926 -1.33538 0
M  V30 2472 H 222.626 0.795907 -4.13816 0
M  V30 2473 H 221.301 1.19169 -3.00966 0
M  V30 2474 H 220.208 -1.05176 -3.59011 0
M  V30 2475 H 221.541 -1.36489 -4.72897 0
M  V30 2476 N 223.193 1.4272 -0.668489 0
M  V30 2477 C 224.103 2.34596 0.0139753 0
M  V30 2478 C 225.119 1.5474 0.795703 0
M  V30 2479 O 226.295 1.87334 0.739466 0
M  V30 2480 C 223.36 3.33202 0.957982 0
M  V30 2481 C 222.421 4.28957 0.17149 0
M  V30 2482 C 221.654 5.22853 1.07053 0
M  V30 2483 O 221.877 5.21531 2.31001 0
M  V30 2484 O 220.811 5.9952 0.534727 0
M  V30 2485 H 224.637 2.9448 -0.742661 0
M  V30 2486 H 222.222 1.43117 -0.428705 0
M  V30 2487 H 224.104 3.93796 1.50008 0
M  V30 2488 H 222.779 2.758 1.69458 0
M  V30 2489 H 221.686 3.71796 -0.414558 0
M  V30 2490 H 223.019 4.89383 -0.52586 0
M  V30 2491 N 224.671 0.411399 1.52136 0
M  V30 2492 C 225.92 -0.165009 2.01024 0
M  V30 2493 C 226.233 -1.4603 1.30133 0
M  V30 2494 O 227.439 -2.1181 1.69849 0
M  V30 2495 C 225.895 -0.344618 3.58246 0
M  V30 2496 C 225.503 0.938716 4.38055 0
M  V30 2497 C 227.247 -0.876195 4.15359 0
M  V30 2498 C 225.154 0.726172 5.86925 0
M  V30 2499 H 224.084 -0.0654407 0.751155 0
M  V30 2500 H 226.735 0.537192 1.75461 0
M  V30 2501 H 225.117 -1.10921 3.80148 0
M  V30 2502 H 226.291 1.70963 4.27912 0
M  V30 2503 H 224.606 1.39688 3.92271 0
M  V30 2504 H 227.203 -1.05128 5.24263 0
M  V30 2505 H 227.546 -1.85152 3.7286 0
M  V30 2506 H 228.079 -0.170607 3.97434 0
M  V30 2507 H 224.818 1.67312 6.33788 0
M  V30 2508 H 224.338 -0.00540283 5.998 0
M  V30 2509 H 226.017 0.369231 6.45946 0
M  V30 2510 N 226.149 -1.5696 0.141893 0
M  V30 2511 C 227.389 -1.9785 -0.513304 0
M  V30 2512 C 227.753 -1.02467 -1.62371 0
M  V30 2513 O 228.954 -1.32382 -2.33941 0
M  V30 2514 C 227.225 -3.42797 -1.01118 0
M  V30 2515 S 228.784 -4.05709 -1.67169 0
M  V30 2516 H 225.602 -0.691318 -0.166135 0
M  V30 2517 H 228.204 -1.94114 0.232398 0
M  V30 2518 H 226.908 -4.0995 -0.192179 0
M  V30 2519 H 226.439 -3.50235 -1.79162 0
M  V30 2520 H 228.454 -3.98342 -2.95868 0
M  V30 2521 N 227.627 0.131896 -1.57047 0
M  V30 2522 C 228.559 1.1878 -1.9602 0
M  V30 2523 C 229.572 1.38363 -0.857875 0
M  V30 2524 O 230.761 1.37666 -1.13623 0
M  V30 2525 C 227.861 2.55008 -2.23213 0
M  V30 2526 C 227.034 2.56201 -3.54513 0
M  V30 2527 C 226.093 3.7408 -3.70069 0
M  V30 2528 O 225.119 3.58258 -4.42312 0
M  V30 2529 N 226.321 4.92137 -3.07866 0
M  V30 2530 H 229.086 0.85639 -2.87204 0
M  V30 2531 H 226.647 0.321309 -1.5868 0
M  V30 2532 H 228.639 3.32404 -2.30846 0
M  V30 2533 H 227.209 2.80382 -1.3822 0
M  V30 2534 H 226.429 1.64613 -3.58185 0
M  V30 2535 H 227.717 2.54043 -4.4084 0
M  V30 2536 H 227.115 5.07895 -2.49116 0
M  V30 2537 H 225.672 5.67254 -3.21039 0
M  V30 2538 N 229.106 1.52395 0.401703 0
M  V30 2539 C 230.054 1.7689 1.51039 0
M  V30 2540 C 231.048 0.636298 1.56996 0
M  V30 2541 O 232.254 0.818507 1.60314 0
M  V30 2542 H 228.629 0.559502 0.502456 0
M  V30 2543 H 230.6 2.69757 1.27568 0
M  V30 2544 C 229.349 1.94331 2.88324 0
M  V30 2545 H 228.672 2.80905 2.84486 0
M  V30 2546 H 230.112 2.15466 3.65172 0
M  V30 2547 C 228.571 0.712396 3.29282 0
M  V30 2548 O 229.101 -0.116218 4.01532 0
M  V30 2549 N 227.307 0.546154 2.85422 0
M  V30 2550 H 226.854 1.22156 2.26794 0
M  V30 2551 H 226.812 -0.276113 3.13185 0
M  V30 2552 N 230.584 -0.659388 1.43143 0
M  V30 2553 C 231.514 -1.78422 1.50625 0
M  V30 2554 C 232.495 -1.66216 0.361443 0
M  V30 2555 O 233.68 -1.85404 0.577834 0
M  V30 2556 C 230.81 -3.16815 1.42287 0
M  V30 2557 C 229.764 -3.43777 2.54954 0
M  V30 2558 C 229.09 -4.81905 2.31671 0
M  V30 2559 C 230.39 -3.39134 3.97222 0
M  V30 2560 H 232.084 -1.72417 2.44771 0
M  V30 2561 H 229.63 -0.828084 1.17808 0
M  V30 2562 H 231.583 -3.95253 1.46127 0
M  V30 2563 H 230.307 -3.23534 0.446435 0
M  V30 2564 H 228.966 -2.67707 2.50457 0
M  V30 2565 H 228.614 -4.85294 1.32284 0
M  V30 2566 H 228.314 -5.00906 3.07192 0
M  V30 2567 H 229.838 -5.62609 2.37284 0
M  V30 2568 H 231.252 -4.07518 4.03239 0
M  V30 2569 H 229.649 -3.69671 4.72719 0
M  V30 2570 H 230.719 -2.37426 4.22797 0
M  V30 2571 N 232.062 -1.29571 -0.897171 0
M  V30 2572 C 233.478 -1.07637 -1.17841 0
M  V30 2573 C 233.678 0.170713 -2.00776 0
M  V30 2574 O 232.734 0.867768 -2.3712 0
M  V30 2575 C 234.047 -2.3332 -1.8969 0
M  V30 2576 C 235.595 -2.38664 -2.02505 0
M  V30 2577 C 236.07 -3.64157 -2.77765 0
M  V30 2578 N 237.561 -3.64894 -2.85318 0
M  V30 2579 C 238.296 -4.58679 -3.44094 0
M  V30 2580 N 237.792 -5.62799 -4.04017 0
M  V30 2581 N 239.585 -4.46245 -3.41793 0
M  V30 2582 H 231.736 -2.09598 -0.343883 0
M  V30 2583 H 233.999 -0.923333 -0.214848 0
M  V30 2584 H 233.705 -3.24262 -1.36187 0
M  V30 2585 H 233.579 -2.41025 -2.9015 0
M  V30 2586 H 235.966 -1.48208 -2.55183 0
M  V30 2587 H 236.047 -2.34943 -1.01171 0
M  V30 2588 H 235.691 -4.54965 -2.25763 0
M  V30 2589 H 235.621 -3.65137 -3.7945 0
M  V30 2590 H 238.112 -2.89613 -2.42761 0
M  V30 2591 H 238.425 -6.3048 -4.46895 0
M  V30 2592 H 236.77 -5.66605 -4.02472 0
M  V30 2593 H 239.961 -3.64094 -2.94199 0
M  V30 2594 H 240.134 -5.19518 -3.87304 0
M  V30 2595 N 233.54 1.10788 -1.12088 0
M  V30 2596 C 234.788 1.8231 -0.872205 0
M  V30 2597 C 235.109 1.85419 0.603709 0
M  V30 2598 O 234.379 1.32963 1.43867 0
M  V30 2599 H 232.959 0.675137 -0.319686 0
M  V30 2600 H 235.621 1.34068 -1.41463 0
M  V30 2601 H 234.717 2.85955 -1.25045 0
M  V30 2602 N 235.018 0.912232 1.28515 0
M  V30 2603 C 236.295 0.463597 1.90027 0
M  V30 2604 C 236.675 -1.05753 1.82701 0
M  V30 2605 O 236.023 -1.90492 1.26194 0
M  V30 2606 C 236.233 0.992253 3.34597 0
M  V30 2607 C 237.581 1.04344 4.11579 0
M  V30 2608 O 238.605 0.94079 3.43551 0
M  V30 2609 O 237.464 1.1995 5.33174 0
M  V30 2610 H 234.558 0.146666 0.813891 0
M  V30 2611 H 237.104 1.00292 1.36893 0
M  V30 2612 H 235.876 2.03623 3.34146 0
M  V30 2613 H 235.499 0.433672 3.95228 0
M  V30 2614 N 236.496 -1.42363 0.676048 0
M  V30 2615 C 237.742 -2.0182 0.199125 0
M  V30 2616 C 238.075 -1.53339 -1.19168 0
M  V30 2617 O 237.35 -0.736124 -1.80032 0
M  V30 2618 C 237.633 -3.59331 0.235144 0
M  V30 2619 C 237.486 -4.17989 1.66149 0
M  V30 2620 C 238.805 -4.3813 -0.41595 0
M  V30 2621 H 235.924 -0.733293 0.0738311 0
M  V30 2622 H 238.566 -1.69368 0.86107 0
M  V30 2623 H 236.716 -3.87109 -0.328487 0
M  V30 2624 H 238.388 -4.0116 2.27747 0
M  V30 2625 H 236.631 -3.7377 2.20178 0
M  V30 2626 H 237.302 -5.27126 1.63837 0
M  V30 2627 H 239.778 -4.16051 0.0638529 0
M  V30 2628 H 238.654 -5.47717 -0.360115 0
M  V30 2629 H 238.915 -4.16101 -1.49373 0
M  V30 2630 N 237.974 -0.419461 -1.51915 0
M  V30 2631 C 239.221 0.152939 -2.01922 0
M  V30 2632 C 239.549 1.4426 -1.30458 0
M  V30 2633 O 238.804 1.91514 -0.402593 0
M  V30 2634 C 239.103 0.437067 -3.54717 0
M  V30 2635 C 238.769 -0.764632 -4.44369 0
M  V30 2636 C 237.431 -1.09423 -4.68594 0
M  V30 2637 C 239.783 -1.56713 -4.97082 0
M  V30 2638 C 237.111 -2.22732 -5.42777 0
M  V30 2639 C 239.463 -2.69107 -5.72507 0
M  V30 2640 C 238.127 -3.02541 -5.95 0
M  V30 2641 H 237.397 0.0559644 -0.738884 0
M  V30 2642 H 240.044 -0.562998 -1.83037 0
M  V30 2643 H 238.349 1.23469 -3.71837 0
M  V30 2644 H 240.046 0.893083 -3.90928 0
M  V30 2645 H 236.636 -0.497775 -4.257 0
M  V30 2646 H 240.82 -1.32571 -4.78266 0
M  V30 2647 H 236.076 -2.48971 -5.58411 0
M  V30 2648 H 240.25 -3.31671 -6.12346 0
M  V30 2649 H 237.877 -3.90457 -6.52264 0
M  V30 2650 N 239.452 1.56882 -0.150215 0
M  V30 2651 C 240.384 2.14057 0.819286 0
M  V30 2652 C 241.397 1.09082 1.20851 0
M  V30 2653 O 242.586 1.36347 1.15203 0
M  V30 2654 C 239.686 2.65102 2.11127 0
M  V30 2655 C 238.859 3.94511 1.88891 0
M  V30 2656 C 237.918 4.30834 3.02107 0
M  V30 2657 O 236.944 4.99099 2.73659 0
M  V30 2658 N 238.146 3.90676 4.29363 0
M  V30 2659 H 240.911 2.97871 0.330618 0
M  V30 2660 H 238.472 1.61866 0.0332538 0
M  V30 2661 H 240.464 2.86411 2.85921 0
M  V30 2662 H 239.034 1.85994 2.51247 0
M  V30 2663 H 238.254 3.81795 0.981152 0
M  V30 2664 H 239.542 4.7907 1.71376 0
M  V30 2665 H 238.94 3.35677 4.55343 0
M  V30 2666 H 237.497 4.1703 5.00928 0
M  V30 2667 N 240.93 -0.123565 1.57115 0
M  V30 2668 C 241.877 -1.15177 2.00007 0
M  V30 2669 C 242.847 -1.41403 0.871454 0
M  V30 2670 O 244.032 -1.53346 1.13533 0
M  V30 2671 C 241.172 -2.47436 2.40561 0
M  V30 2672 C 240.285 -2.28184 3.66819 0
M  V30 2673 C 239.42 -3.53641 3.96373 0
M  V30 2674 C 238.459 -3.29528 5.15827 0
M  V30 2675 N 237.596 -4.47175 5.41275 0
M  V30 2676 H 242.436 -0.779008 2.87638 0
M  V30 2677 H 239.973 -0.373166 1.42288 0
M  V30 2678 H 241.931 -3.24584 2.62109 0
M  V30 2679 H 240.561 -2.82614 1.55978 0
M  V30 2680 H 239.613 -1.41976 3.52912 0
M  V30 2681 H 240.925 -2.0634 4.5412 0
M  V30 2682 H 240.079 -4.39209 4.18545 0
M  V30 2683 H 238.818 -3.78512 3.07538 0
M  V30 2684 H 237.823 -2.42349 4.93505 0
M  V30 2685 H 239.048 -3.06031 6.06236 0
M  V30 2686 H 236.994 -4.72175 4.55397 0
M  V30 2687 H 236.911 -4.28419 6.22891 0
M  V30 2688 H 238.179 -5.3389 5.67963 0
M  V30 2689 N 242.408 -1.52605 -0.393616 0
M  V30 2690 C 243.655 -1.67424 -1.1391 0
M  V30 2691 C 243.983 -0.411859 -1.90089 0
M  V30 2692 O 243.238 0.605626 -1.86093 0
M  V30 2693 C 243.537 -2.85721 -2.14705 0
M  V30 2694 C 243.203 -4.23342 -1.55218 0
M  V30 2695 C 241.865 -4.60771 -1.3872 0
M  V30 2696 C 244.217 -5.09041 -1.11924 0
M  V30 2697 C 241.545 -5.81563 -0.774689 0
M  V30 2698 C 243.897 -6.30452 -0.520853 0
M  V30 2699 C 242.561 -6.66617 -0.343134 0
M  V30 2700 H 241.831 -0.612648 -0.416826 0
M  V30 2701 H 244.478 -1.8674 -0.424315 0
M  V30 2702 H 242.783 -2.60803 -2.92385 0
M  V30 2703 H 244.48 -2.94382 -2.72288 0
M  V30 2704 H 241.07 -3.93855 -1.69045 0
M  V30 2705 H 245.254 -4.80695 -1.23473 0
M  V30 2706 H 240.51 -6.08196 -0.625154 0
M  V30 2707 H 244.684 -6.96175 -0.177065 0
M  V30 2708 H 242.311 -7.60083 0.133571 0
M  V30 2709 N 243.887 0.651787 -1.4349 0
M  V30 2710 C 245.136 1.40754 -1.44469 0
M  V30 2711 C 245.449 1.95463 -0.0731845 0
M  V30 2712 O 246.655 2.71471 0.0395721 0
M  V30 2713 C 245.111 2.54735 -2.5424 0
M  V30 2714 C 244.719 2.06628 -3.97504 0
M  V30 2715 C 246.463 3.32092 -2.64414 0
M  V30 2716 C 244.37 3.17829 -4.98737 0
M  V30 2717 H 243.3 0.528862 -0.53742 0
M  V30 2718 H 245.951 0.703365 -1.69485 0
M  V30 2719 H 244.333 3.2763 -2.22428 0
M  V30 2720 H 245.507 1.40734 -4.38783 0
M  V30 2721 H 243.822 1.42146 -3.91387 0
M  V30 2722 H 246.419 4.14952 -3.37223 0
M  V30 2723 H 246.762 3.80217 -1.69532 0
M  V30 2724 H 247.295 2.66279 -2.95534 0
M  V30 2725 H 244.034 2.74671 -5.95177 0
M  V30 2726 H 243.554 3.82429 -4.62069 0
M  V30 2727 H 245.233 3.82937 -5.21505 0
M  V30 2728 N 245.365 1.30045 0.890287 0
M  V30 2729 C 246.275 1.17885 2.02831 0
M  V30 2730 C 247.291 0.0999609 1.73713 0
M  V30 2731 O 248.467 0.313867 1.98939 0
M  V30 2732 C 245.532 0.866079 3.35708 0
M  V30 2733 C 244.593 2.02979 3.78283 0
M  V30 2734 C 243.826 1.73184 5.0482 0
M  V30 2735 O 244.049 0.657237 5.66601 0
M  V30 2736 O 242.983 2.58267 5.43674 0
M  V30 2737 H 246.809 2.13474 2.16015 0
M  V30 2738 H 244.394 1.09587 1.01543 0
M  V30 2739 H 246.276 0.706623 4.15433 0
M  V30 2740 H 244.951 -0.0599443 3.23644 0
M  V30 2741 H 243.858 2.24454 2.99285 0
M  V30 2742 H 245.191 2.93734 3.94944 0
M  V30 2743 N 246.843 -1.10192 1.12674 0
M  V30 2744 C 248.068 -1.86523 0.906853 0
M  V30 2745 C 248.493 -1.80221 -0.538711 0
M  V30 2746 O 247.851 -1.17396 -1.38158 0
M  V30 2747 C 247.899 -3.32758 1.3894 0
M  V30 2748 O 247.003 -4.08449 0.5695 0
M  V30 2749 H 246.344 -0.578678 0.325619 0
M  V30 2750 H 248.874 -1.39203 1.49946 0
M  V30 2751 H 248.884 -3.83608 1.38958 0
M  V30 2752 H 247.559 -3.36661 2.44197 0
M  V30 2753 H 246.136 -3.67427 0.636528 0
M  V30 2754 N 248.321 -0.919034 -1.28029 0
M  V30 2755 C 249.598 -0.473668 -1.89778 0
M  V30 2756 C 249.978 1.04783 -1.83259 0
M  V30 2757 O 249.326 1.8982 -1.27202 0
M  V30 2758 C 249.536 -1.00998 -3.34066 0
M  V30 2759 C 250.884 -1.06525 -4.1102 0
M  V30 2760 O 251.908 -0.958996 -3.43048 0
M  V30 2761 O 250.767 -1.22776 -5.3253 0
M  V30 2762 H 247.861 -0.15098 -0.813101 0
M  V30 2763 H 250.407 -1.01016 -1.36359 0
M  V30 2764 H 249.179 -2.05392 -3.33061 0
M  V30 2765 H 248.802 -0.454626 -3.94992 0
M  V30 2766 N 249.799 1.42003 -0.683588 0
M  V30 2767 C 250.746 2.30798 -0.0107309 0
M  V30 2768 C 251.716 1.4645 0.783688 0
M  V30 2769 O 252.901 1.75263 0.754156 0
M  V30 2770 C 250.041 3.3238 0.928306 0
M  V30 2771 C 249.154 4.31814 0.126776 0
M  V30 2772 C 248.289 5.20468 1.06236 0
M  V30 2773 C 247.328 6.11577 0.253035 0
M  V30 2774 N 246.465 6.92754 1.14179 0
M  V30 2775 H 251.305 2.8778 -0.773727 0
M  V30 2776 H 248.842 1.41745 -0.393283 0
M  V30 2777 H 250.8 3.89813 1.48666 0
M  V30 2778 H 249.43 2.76976 1.65783 0
M  V30 2779 H 248.482 3.76427 -0.54833 0
M  V30 2780 H 249.794 4.96276 -0.501192 0
M  V30 2781 H 248.948 5.82677 1.69035 0
M  V30 2782 H 247.687 4.56204 1.7242 0
M  V30 2783 H 246.692 5.48428 -0.388108 0
M  V30 2784 H 247.917 6.77892 -0.404839 0
M  V30 2785 H 245.863 6.3111 1.78987 0
M  V30 2786 H 245.78 7.53855 0.569111 0
M  V30 2787 H 247.048 7.59441 1.75697 0
M  V30 2788 N 251.277 0.427512 1.51691 0
M  V30 2789 C 252.524 -0.142229 2.02 0
M  V30 2790 C 252.852 -1.43566 1.31221 0
M  V30 2791 O 252.107 -1.91298 0.412744 0
M  V30 2792 C 252.406 -0.418249 3.54944 0
M  V30 2793 C 252.072 0.788187 4.43958 0
M  V30 2794 C 250.734 1.11906 4.68007 0
M  V30 2795 C 253.086 1.59347 4.96244 0
M  V30 2796 C 250.414 2.25608 5.41588 0
M  V30 2797 C 252.766 2.7214 5.71072 0
M  V30 2798 C 251.43 3.05692 5.93387 0
M  V30 2799 H 250.7 -0.0520451 0.73917 0
M  V30 2800 H 253.347 0.572697 1.82736 0
M  V30 2801 H 251.652 -1.21496 3.72486 0
M  V30 2802 H 253.349 -0.872339 3.91397 0
M  V30 2803 H 249.939 0.520344 4.2543 0
M  V30 2804 H 254.123 1.35106 4.77556 0
M  V30 2805 H 249.379 2.51929 5.57083 0
M  V30 2806 H 253.553 3.34914 6.10578 0
M  V30 2807 H 251.18 3.9391 6.50184 0
M  V30 2808 N 252.755 -1.56801 0.158532 0
M  V30 2809 C 253.983 -2.00859 -0.496303 0
M  V30 2810 C 254.398 -1.03871 -1.57659 0
M  V30 2811 O 253.755 -0.0375165 -1.82461 0
M  V30 2812 C 253.806 -3.4479 -1.08638 0
M  V30 2813 O 253.527 -4.38072 -0.0492322 0
M  V30 2814 C 255.028 -4.04185 -1.8207 0
M  V30 2815 H 252.248 -0.65864 -0.128199 0
M  V30 2816 H 254.792 -2.02885 0.256506 0
M  V30 2817 H 252.947 -3.43579 -1.78975 0
M  V30 2818 H 253.361 -5.2227 -0.483102 0
M  V30 2819 H 254.835 -5.06857 -2.18633 0
M  V30 2820 H 255.312 -3.45549 -2.71095 0
M  V30 2821 H 255.918 -4.0906 -1.16405 0
M  V30 2822 N 254.233 0.115231 -1.57178 0
M  V30 2823 C 255.649 0.468877 -1.52557 0
M  V30 2824 C 255.849 1.81649 -0.872125 0
M  V30 2825 O 254.905 2.48347 -0.45606 0
M  V30 2826 C 256.218 0.4499 -2.97315 0
M  V30 2827 C 257.766 0.533185 -3.08425 0
M  V30 2828 C 258.241 0.54456 -4.54751 0
M  V30 2829 N 259.732 0.605892 -4.5922 0
M  V30 2830 C 260.467 0.636203 -5.6986 0
M  V30 2831 N 259.963 0.623931 -6.89985 0
M  V30 2832 N 261.756 0.679496 -5.57978 0
M  V30 2833 H 253.907 -0.767712 -1.9804 0
M  V30 2834 H 256.17 -0.283609 -0.904583 0
M  V30 2835 H 255.876 -0.472721 -3.48509 0
M  V30 2836 H 255.75 1.27632 -3.5495 0
M  V30 2837 H 258.137 1.44623 -2.57232 0
M  V30 2838 H 258.218 -0.320995 -2.53778 0
M  V30 2839 H 257.862 -0.364452 -5.06591 0
M  V30 2840 H 257.792 1.41568 -5.07214 0
M  V30 2841 H 260.283 0.621386 -3.72756 0
M  V30 2842 H 260.596 0.649787 -7.70063 0
M  V30 2843 H 258.941 0.591296 -6.9248 0
M  V30 2844 H 262.132 0.686472 -4.63039 0
M  V30 2845 H 262.305 0.69965 -6.44212 0
M  V30 2846 N 255.711 1.52812 0.385517 0
M  V30 2847 C 256.958 1.68026 1.1302 0
M  V30 2848 C 257.286 0.421934 1.89868 0
M  V30 2849 O 256.541 -0.595749 1.86412 0
M  V30 2850 C 256.84 2.86856 2.13187 0
M  V30 2851 C 256.506 4.24159 1.5297 0
M  V30 2852 C 255.168 4.61501 1.36274 0
M  V30 2853 C 257.52 5.09627 1.09223 0
M  V30 2854 C 254.848 5.81966 0.743837 0
M  V30 2855 C 257.2 6.30719 0.487411 0
M  V30 2856 C 255.864 6.6679 0.307777 0
M  V30 2857 H 255.134 0.614849 0.413571 0
M  V30 2858 H 257.781 1.86962 0.414405 0
M  V30 2859 H 256.086 2.6235 2.90998 0
M  V30 2860 H 257.783 2.95821 2.70722 0
M  V30 2861 H 254.373 3.94746 1.66954 0
M  V30 2862 H 258.557 4.81343 1.20922 0
M  V30 2863 H 253.813 6.08519 0.592891 0
M  V30 2864 H 257.987 6.96259 0.140143 0
M  V30 2865 H 255.614 7.60001 -0.173879 0
M  V30 2866 N 257.189 -0.644168 1.43834 0
M  V30 2867 C 258.429 -1.41565 1.47441 0
M  V30 2868 C 258.793 -1.91743 0.0992723 0
M  V30 2869 O 259.994 -2.68798 0.0100192 0
M  V30 2870 C 258.265 -2.55902 2.49498 0
M  V30 2871 S 259.824 -3.44287 2.72051 0
M  V30 2872 H 256.642 -0.483118 0.521649 0
M  V30 2873 H 259.244 -0.747008 1.80666 0
M  V30 2874 H 257.948 -2.17327 3.48134 0
M  V30 2875 H 257.479 -3.27607 2.17801 0
M  V30 2876 H 259.494 -4.52927 2.0266 0
M  V30 2877 N 258.668 -1.30515 -0.883378 0
M  V30 2878 C 259.6 -1.12846 -1.99496 0
M  V30 2879 C 260.613 -0.0712571 -1.62644 0
M  V30 2880 O 261.802 -0.317432 -1.75655 0
M  V30 2881 C 258.902 -0.699123 -3.3161 0
M  V30 2882 C 258.075 -1.83842 -3.96889 0
M  V30 2883 C 257.134 -1.39737 -5.07307 0
M  V30 2884 O 256.16 -2.10485 -5.28852 0
M  V30 2885 N 257.362 -0.277279 -5.79837 0
M  V30 2886 H 260.127 -2.08585 -2.15203 0
M  V30 2887 H 257.688 -1.22672 -1.05656 0
M  V30 2888 H 259.68 -0.387044 -4.02845 0
M  V30 2889 H 258.25 0.166276 -3.12157 0
M  V30 2890 H 257.47 -2.31853 -3.18807 0
M  V30 2891 H 258.758 -2.60187 -4.37241 0
M  V30 2892 H 258.156 0.3122 -5.64838 0
M  V30 2893 H 256.713 -0.0246623 -6.51795 0
M  V30 2894 N 260.146 1.09593 -1.13257 0
M  V30 2895 C 261.392 1.82181 -0.904521 0
M  V30 2896 C 261.747 1.83967 0.563358 0
M  V30 2897 O 261.04 1.29566 1.41149 0
M  V30 2898 C 261.234 3.27802 -1.42411 0
M  V30 2899 C 261.063 3.40201 -2.94097 0
M  V30 2900 C 259.833 3.52104 -3.62424 0
M  V30 2901 C 262.031 3.32875 -3.92044 0
M  V30 2902 N 260.013 3.53169 -5.0214 0
M  V30 2903 C 261.384 3.40789 -5.17941 0
M  V30 2904 C 263.439 3.16531 -3.84334 0
M  V30 2905 C 262.142 3.34042 -6.37031 0
M  V30 2906 C 264.168 3.11109 -5.02956 0
M  V30 2907 C 263.53 3.19614 -6.27715 0
M  V30 2908 H 259.629 0.681015 -0.384373 0
M  V30 2909 H 262.213 1.3099 -1.44048 0
M  V30 2910 H 260.384 3.77466 -0.915086 0
M  V30 2911 H 262.116 3.88393 -1.13722 0
M  V30 2912 H 258.871 3.5548 -3.12939 0
M  V30 2913 H 259.295 3.57291 -5.75041 0
M  V30 2914 H 263.937 3.08827 -2.88766 0
M  V30 2915 H 261.655 3.4051 -7.32857 0
M  V30 2916 H 265.241 2.99601 -4.98729 0
M  V30 2917 H 264.121 3.15432 -7.17964 0
M  V30 2918 N 261.624 0.925811 1.2754 0
M  V30 2919 C 262.571 0.422045 2.26908 0
M  V30 2920 C 263.541 -0.510029 1.58076 0
M  V30 2921 O 264.726 -0.429599 1.85901 0
M  V30 2922 C 261.866 -0.320837 3.43605 0
M  V30 2923 C 260.979 0.64513 4.27156 0
M  V30 2924 C 260.114 -0.117405 5.3107 0
M  V30 2925 C 259.153 0.841391 6.0629 0
M  V30 2926 N 258.29 0.111604 7.02011 0
M  V30 2927 H 263.13 1.27441 2.69375 0
M  V30 2928 H 260.667 0.639697 1.32462 0
M  V30 2929 H 262.625 -0.76785 4.10073 0
M  V30 2930 H 261.255 -1.13745 3.02096 0
M  V30 2931 H 260.307 1.21067 3.6062 0
M  V30 2932 H 261.619 1.37797 4.79389 0
M  V30 2933 H 260.773 -0.624422 6.03478 0
M  V30 2934 H 259.512 -0.883219 4.79636 0
M  V30 2935 H 258.517 1.35967 5.32722 0
M  V30 2936 H 259.742 1.60696 6.59813 0
M  V30 2937 H 257.688 -0.635999 6.5291 0
M  V30 2938 H 257.605 0.784044 7.51923 0
M  V30 2939 H 258.873 -0.374823 7.78598 0
M  V30 2940 N 263.102 -1.41638 0.69111 0
M  V30 2941 C 264.05 -2.32597 0.0115199 0
M  V30 2942 C 265.044 -1.5072 -0.773296 0
M  V30 2943 O 266.25 -1.66685 -0.67942 0
M  V30 2944 H 262.625 -0.751849 -0.0150746 0
M  V30 2945 H 264.596 -2.87593 0.795791 0
M  V30 2946 C 263.345 -3.35467 -0.914172 0
M  V30 2947 H 262.668 -3.9852 -0.319687 0
M  V30 2948 H 264.108 -4.01662 -1.35808 0
M  V30 2949 C 262.567 -2.69004 -2.02826 0
M  V30 2950 O 263.097 -2.53444 -3.11655 0
M  V30 2951 N 261.303 -2.2777 -1.80469 0
M  V30 2952 H 260.85 -2.40626 -0.919615 0
M  V30 2953 H 260.808 -1.83635 -2.55197 0
M  V30 2954 N 264.58 -0.43555 -1.51462 0
M  V30 2955 C 265.826 0.131709 -2.02372 0
M  V30 2956 C 266.159 1.42516 -1.3192 0
M  V30 2957 O 265.434 1.89606 -0.433573 0
M  V30 2958 C 265.717 0.352301 -3.58373 0
M  V30 2959 C 265.57 -0.959676 -4.39443 0
M  V30 2960 C 266.889 1.12286 -4.25535 0
M  V30 2961 H 264.008 0.0463936 -0.735538 0
M  V30 2962 H 266.65 -0.574197 -1.81116 0
M  V30 2963 H 264.8 0.9536 -3.76615 0
M  V30 2964 H 266.472 -1.59482 -4.32855 0
M  V30 2965 H 264.715 -1.56468 -4.04599 0
M  V30 2966 H 265.386 -0.759394 -5.46752 0
M  V30 2967 H 267.862 0.613545 -4.11552 0
M  V30 2968 H 266.738 1.24598 -5.34571 0
M  V30 2969 H 266.999 2.15048 -3.86273 0
M  V30 2970 N 266.058 1.56714 -0.166846 0
M  V30 2971 C 266.968 2.21331 0.777791 0
M  V30 2972 C 267.984 1.20358 1.25658 0
M  V30 2973 O 269.16 1.53005 1.30964 0
M  V30 2974 C 266.225 2.83787 1.99163 0
M  V30 2975 C 265.286 3.99947 1.56016 0
M  V30 2976 C 264.519 4.59415 2.71613 0
M  V30 2977 O 264.742 4.17769 3.88362 0
M  V30 2978 O 263.676 5.49359 2.45945 0
M  V30 2979 H 267.502 3.02605 0.257636 0
M  V30 2980 H 265.087 1.49275 0.0611393 0
M  V30 2981 H 266.969 3.23405 2.70161 0
M  V30 2982 H 265.644 2.05513 2.50092 0
M  V30 2983 H 264.551 3.65007 0.819809 0
M  V30 2984 H 265.884 4.79801 1.09782 0
M  V30 2985 N 267.536 -0.106894 1.57237 0
M  V30 2986 C 268.466 -1.13148 2.04254 0
M  V30 2987 C 269.447 -1.42476 0.929224 0
M  V30 2988 O 270.632 -1.52709 1.19973 0
M  V30 2989 C 267.762 -2.4545 2.45706 0
M  V30 2990 C 266.716 -2.30558 3.60592 0
M  V30 2991 C 266.042 -3.67931 3.87983 0
M  V30 2992 C 267.342 -1.75597 4.91897 0
M  V30 2993 H 269.036 -0.740374 2.90101 0
M  V30 2994 H 266.582 -0.354696 1.39563 0
M  V30 2995 H 268.535 -3.17389 2.77205 0
M  V30 2996 H 267.259 -2.86475 1.56843 0
M  V30 2997 H 265.918 -1.61067 3.29322 0
M  V30 2998 H 265.566 -4.06462 2.96306 0
M  V30 2999 H 265.266 -3.58817 4.65322 0
M  V30 3000 H 266.79 -4.41356 4.21945 0
M  V30 3001 H 268.204 -2.37364 5.21854 0
M  V30 3002 H 266.601 -1.77272 5.73319 0
M  V30 3003 H 267.671 -0.714451 4.79608 0
M  V30 3004 N 269.014 -1.53014 -0.377408 0
M  V30 3005 C 269.962 -1.7927 -1.48206 0
M  V30 3006 C 270.956 -0.661195 -1.55963 0
M  V30 3007 O 272.162 -0.843908 -1.58991 0
M  V30 3008 H 268.537 -0.567425 -0.493491 0
M  V30 3009 H 270.508 -2.71753 -1.2326 0
M  V30 3010 C 269.257 -1.98894 -2.85196 0
M  V30 3011 H 268.58 -2.85395 -2.79981 0
M  V30 3012 H 270.02 -2.21249 -3.61698 0
M  V30 3013 C 268.479 -0.764691 -3.28107 0
M  V30 3014 O 269.009 0.0523226 -4.01666 0
M  V30 3015 N 267.215 -0.591493 -2.84517 0
M  V30 3016 H 266.762 -1.25749 -2.24822 0
M  V30 3017 H 266.72 0.226253 -3.13585 0
M  V30 3018 N 270.492 0.636531 -1.44174 0
M  V30 3019 C 271.741 1.39213 -1.45954 0
M  V30 3020 C 272.054 1.95374 -0.0939119 0
M  V30 3021 O 273.26 2.71498 0.0107767 0
M  V30 3022 C 271.716 2.52025 -2.56927 0
M  V30 3023 C 271.324 2.024 -3.99673 0
M  V30 3024 C 273.068 3.29269 -2.67922 0
M  V30 3025 C 270.975 3.12521 -5.0208 0
M  V30 3026 H 269.905 0.523132 -0.542999 0
M  V30 3027 H 272.556 0.685349 -1.70221 0
M  V30 3028 H 270.938 3.25253 -2.25891 0
M  V30 3029 H 272.112 1.36073 -4.40251 0
M  V30 3030 H 270.427 1.37987 -3.92872 0
M  V30 3031 H 273.024 4.11352 -3.41605 0
M  V30 3032 H 273.367 3.78397 -1.73555 0
M  V30 3033 H 273.9 2.63129 -2.98342 0
M  V30 3034 H 270.639 2.68343 -5.98057 0
M  V30 3035 H 270.159 3.77507 -4.66099 0
M  V30 3036 H 271.838 3.77385 -5.25538 0
M  V30 3037 N 271.97 1.30982 0.876444 0
M  V30 3038 C 272.92 1.14688 1.97055 0
M  V30 3039 C 273.904 0.0596593 1.60789 0
M  V30 3040 O 275.096 0.283892 1.74708 0
M  V30 3041 C 272.225 0.849627 3.3262 0
M  V30 3042 C 271.311 1.97752 3.75173 0
M  V30 3043 N 271.702 3.22384 3.89746 0
M  V30 3044 C 270 1.8758 4.04635 0
M  V30 3045 C 270.701 3.96121 4.25985 0
M  V30 3046 N 269.677 3.24237 4.36315 0
M  V30 3047 H 273.479 2.09204 2.06424 0
M  V30 3048 H 270.993 1.22445 1.06682 0
M  V30 3049 H 272.99 0.713895 4.10742 0
M  V30 3050 H 271.65 -0.087376 3.24582 0
M  V30 3051 H 272.661 3.57575 3.74647 0
M  V30 3052 H 269.338 1.01303 4.05024 0
M  V30 3053 H 270.728 5.03491 4.44911 0
M  V30 3054 N 273.449 -1.08991 1.13837 0
M  V30 3055 C 274.379 -2.17771 0.842507 0
M  V30 3056 C 275.36 -1.6892 -0.20001 0
M  V30 3057 O 276.545 -1.94113 -0.0579731 0
M  V30 3058 C 273.675 -3.4589 0.312644 0
M  V30 3059 C 272.629 -4.08099 1.28992 0
M  V30 3060 C 271.955 -5.31098 0.619623 0
M  V30 3061 C 273.255 -4.50077 2.65005 0
M  V30 3062 H 274.949 -2.42777 1.75213 0
M  V30 3063 H 272.495 -1.16682 0.843875 0
M  V30 3064 H 274.448 -4.21297 0.0933043 0
M  V30 3065 H 273.172 -3.20419 -0.632382 0
M  V30 3066 H 271.831 -3.34717 1.49533 0
M  V30 3067 H 271.479 -5.0191 -0.33102 0
M  V30 3068 H 271.179 -5.73674 1.27167 0
M  V30 3069 H 272.703 -6.09224 0.409669 0
M  V30 3070 H 274.117 -5.16688 2.48407 0
M  V30 3071 H 272.514 -5.03553 3.26427 0
M  V30 3072 H 273.584 -3.62257 3.22332 0
M  V30 3073 N 274.927 -0.932562 -1.27047 0
M  V30 3074 C 276.155 -0.592031 -1.98249 0
M  V30 3075 C 276.57 0.831062 -1.69525 0
M  V30 3076 O 275.927 1.55299 -0.958561 0
M  V30 3077 C 275.978 -0.814279 -3.5221 0
M  V30 3078 O 275.699 -2.18139 -3.7993 0
M  V30 3079 C 277.2 -0.483121 -4.4066 0
M  V30 3080 H 274.42 -0.223896 -0.632544 0
M  V30 3081 H 276.964 -1.25091 -1.61779 0
M  V30 3082 H 275.119 -0.20213 -3.86872 0
M  V30 3083 H 275.533 -2.235 -4.74498 0
M  V30 3084 H 277.007 -0.689298 -5.47679 0
M  V30 3085 H 277.484 0.581546 -4.35333 0
M  V30 3086 H 278.09 -1.07362 -4.11526 0
M  V30 3087 N 276.405 1.4127 -0.698611 0
M  V30 3088 C 277.338 2.28195 0.0153898 0
M  V30 3089 C 278.316 1.42402 0.784883 0
M  V30 3090 O 279.5 1.71828 0.775067 0
M  V30 3091 C 276.627 3.22685 1.02918 0
M  V30 3092 C 275.673 4.25041 0.352501 0
M  V30 3093 S 276.506 5.27757 -0.907322 0
M  V30 3094 C 277.662 6.25812 0.104796 0
M  V30 3095 H 277.895 2.88403 -0.721858 0
M  V30 3096 H 275.428 1.46452 -0.488996 0
M  V30 3097 H 277.386 3.77655 1.60893 0
M  V30 3098 H 276.047 2.61566 1.73902 0
M  V30 3099 H 275.24 4.91437 1.11828 0
M  V30 3100 H 274.842 3.73682 -0.154254 0
M  V30 3101 H 277.134 6.70705 0.957103 0
M  V30 3102 H 278.077 7.06149 -0.525323 0
M  V30 3103 H 278.485 5.62615 0.460931 0
M  V30 3104 N 277.883 0.443576 1.51229 0
M  V30 3105 C 278.831 -0.37904 2.29491 0
M  V30 3106 C 279.825 -1.0153 1.35603 0
M  V30 3107 O 281.031 -0.94955 1.52917 0
M  V30 3108 H 277.406 -0.141053 0.738653 0
M  V30 3109 H 279.377 0.301799 2.9687 0
M  V30 3110 C 278.126 -1.46426 3.15364 0
M  V30 3111 H 277.449 -0.984037 3.87501 0
M  V30 3112 H 278.889 -2.01297 3.7317 0
M  V30 3113 C 277.348 -2.45099 2.31146 0
M  V30 3114 O 277.878 -3.49773 1.9754 0
M  V30 3115 N 276.084 -2.16139 1.94249 0
M  V30 3116 H 275.631 -1.31044 2.21777 0
M  V30 3117 H 275.589 -2.82398 1.38198 0
M  V30 3118 N 279.361 -1.56624 0.175154 0
M  V30 3119 C 280.638 -1.88688 -0.515373 0
M  V30 3120 C 281.018 -1.08564 -1.81044 0
M  V30 3121 O 280.366 -0.180703 -2.27784 0
M  V30 3122 C 280.576 -3.40768 -0.753552 0
M  V30 3123 C 281.924 -4.10587 -1.08184 0
M  V30 3124 O 282.948 -3.46106 -0.841961 0
M  V30 3125 O 281.807 -5.24512 -1.53459 0
M  V30 3126 H 278.901 -0.78301 -0.26613 0
M  V30 3127 H 281.447 -1.68347 0.213877 0
M  V30 3128 H 280.219 -3.90965 0.161829 0
M  V30 3129 H 279.842 -3.66733 -1.53598 0
M  V30 3130 N 280.839 0.0985539 -1.57292 0
M  V30 3131 C 282.086 0.802678 -1.85912 0
M  V30 3132 C 282.414 1.78901 -0.763186 0
M  V30 3133 O 281.669 1.94178 0.243559 0
M  V30 3134 C 281.968 1.56927 -3.21105 0
M  V30 3135 C 281.634 0.725376 -4.45027 0
M  V30 3136 C 280.296 0.492726 -4.78671 0
M  V30 3137 C 282.648 0.138493 -5.21016 0
M  V30 3138 C 279.976 -0.336727 -5.85733 0
M  V30 3139 C 282.328 -0.678264 -6.28953 0
M  V30 3140 C 280.992 -0.921039 -6.61115 0
M  V30 3141 H 280.262 0.293721 -0.680301 0
M  V30 3142 H 282.909 0.0642841 -1.91392 0
M  V30 3143 H 281.214 2.37914 -3.11294 0
M  V30 3144 H 282.911 2.11841 -3.40477 0
M  V30 3145 H 279.501 0.916815 -4.18679 0
M  V30 3146 H 283.685 0.305404 -4.95359 0
M  V30 3147 H 278.941 -0.533836 -6.09065 0
M  V30 3148 H 283.115 -1.1399 -6.87007 0
M  V30 3149 H 280.742 -1.56556 -7.43905 0
M  V30 3150 N 282.317 1.53212 0.369288 0
M  V30 3151 C 283.542 1.73423 1.1375 0
M  V30 3152 C 283.967 0.460404 1.82378 0
M  V30 3153 O 283.325 -0.585298 1.71592 0
M  V30 3154 C 283.373 2.89769 2.1463 0
M  V30 3155 O 282.477 2.58119 3.21634 0
M  V30 3156 H 281.818 0.576061 0.330227 0
M  V30 3157 H 284.348 2.00083 0.427547 0
M  V30 3158 H 284.358 3.15829 2.58294 0
M  V30 3159 H 283.033 3.8217 1.64071 0
M  V30 3160 H 281.61 2.42864 2.82969 0
M  V30 3161 N 283.795 -0.628877 1.44509 0
M  V30 3162 C 285.041 -1.39045 1.47629 0
M  V30 3163 C 285.374 -1.93892 0.109343 0
M  V30 3164 O 284.649 -1.7379 -0.87334 0
M  V30 3165 C 284.932 -2.55408 2.53848 0
M  V30 3166 C 284.785 -2.05896 3.99909 0
M  V30 3167 C 286.104 -3.5759 2.56549 0
M  V30 3168 H 283.223 -0.504232 0.537512 0
M  V30 3169 H 285.865 -0.710854 1.76201 0
M  V30 3170 H 284.015 -3.13384 2.29615 0
M  V30 3171 H 285.687 -1.52734 4.35282 0
M  V30 3172 H 283.93 -1.37061 4.11578 0
M  V30 3173 H 284.601 -2.89681 4.69882 0
M  V30 3174 H 287.077 -3.09419 2.78207 0
M  V30 3175 H 285.953 -4.36527 3.32769 0
M  V30 3176 H 286.214 -4.11808 1.60832 0
M  V30 3177 N 285.273 -1.31445 -0.869486 0
M  V30 3178 C 286.223 -1.15731 -1.96444 0
M  V30 3179 C 287.207 -0.0681855 -1.60755 0
M  V30 3180 O 288.399 -0.293154 -1.74555 0
M  V30 3181 C 285.528 -0.867255 -3.32165 0
M  V30 3182 C 284.614 -1.99738 -3.74119 0
M  V30 3183 N 285.005 -3.24447 -3.88031 0
M  V30 3184 C 283.303 -1.89723 -4.03635 0
M  V30 3185 C 284.004 -3.98374 -4.23879 0
M  V30 3186 N 282.98 -3.26547 -4.3459 0
M  V30 3187 H 286.782 -2.10296 -2.05312 0
M  V30 3188 H 284.296 -1.23009 -1.06031 0
M  V30 3189 H 286.293 -0.735668 -4.10358 0
M  V30 3190 H 284.953 0.0701614 -3.24624 0
M  V30 3191 H 285.964 -3.59557 -3.72746 0
M  V30 3192 H 282.641 -1.03449 -4.04481 0
M  V30 3193 H 284.031 -5.05844 -4.42235 0
M  V30 3194 N 286.751 1.08385 -1.14413 0
M  V30 3195 C 288.167 1.32844 -0.884563 0
M  V30 3196 C 288.367 1.95841 0.474181 0
M  V30 3197 O 287.423 2.21158 1.21842 0
M  V30 3198 C 288.736 2.22978 -2.01745 0
M  V30 3199 C 290.284 2.36458 -2.05077 0
M  V30 3200 C 290.759 3.29934 -3.1766 0
M  V30 3201 N 292.25 3.37511 -3.17239 0
M  V30 3202 C 292.985 4.09871 -4.0099 0
M  V30 3203 N 292.481 4.84936 -4.94781 0
M  V30 3204 N 294.274 4.05704 -3.89051 0
M  V30 3205 H 286.425 0.658756 -2.01926 0
M  V30 3206 H 288.688 0.352821 -0.879899 0
M  V30 3207 H 288.394 1.83934 -2.99769 0
M  V30 3208 H 288.268 3.23441 -1.94077 0
M  V30 3209 H 290.655 2.7476 -1.0766 0
M  V30 3210 H 290.736 1.35736 -2.16816 0
M  V30 3211 H 290.38 2.92352 -4.15322 0
M  V30 3212 H 290.31 4.30584 -3.03158 0
M  V30 3213 H 292.801 2.83996 -2.49308 0
M  V30 3214 H 293.114 5.37612 -5.55151 0
M  V30 3215 H 291.459 4.83988 -4.98779 0
M  V30 3216 H 294.65 3.46167 -3.15097 0
M  V30 3217 H 294.823 4.61834 -4.54547 0
M  V30 3218 N 288.23 0.939286 1.26551 0
M  V30 3219 C 289.479 0.581601 1.93133 0
M  V30 3220 C 289.792 -0.883224 1.74524 0
M  V30 3221 O 290.998 -1.3502 2.35546 0
M  V30 3222 C 289.454 0.989425 3.46032 0
M  V30 3223 C 289.062 2.47573 3.73379 0
M  V30 3224 C 290.806 0.703544 4.18629 0
M  V30 3225 C 288.713 2.82235 5.19709 0
M  V30 3226 H 287.643 0.213803 0.723052 0
M  V30 3227 H 290.294 1.14167 1.4366 0
M  V30 3228 H 288.676 0.357902 3.94379 0
M  V30 3229 H 289.85 3.15614 3.35744 0
M  V30 3230 H 288.165 2.73471 3.1401 0
M  V30 3231 H 290.762 0.938869 5.26393 0
M  V30 3232 H 291.105 -0.359639 4.14744 0
M  V30 3233 H 291.638 1.2947 3.76141 0
M  V30 3234 H 288.377 3.87509 5.28694 0
M  V30 3235 H 287.897 2.18854 5.58447 0
M  V30 3236 H 289.576 2.70599 5.87695 0
M  V30 3237 N 289.708 -1.40897 0.706093 0
M  V30 3238 C 290.957 -2.00284 0.238574 0
M  V30 3239 C 291.27 -1.56604 -1.17194 0
M  V30 3240 O 292.476 -2.08624 -1.73748 0
M  V30 3241 C 290.932 -3.57934 0.375623 0
M  V30 3242 C 290.54 -4.10591 1.79217 0
M  V30 3243 C 292.284 -4.24488 -0.0315857 0
M  V30 3244 C 290.191 -5.60712 1.88032 0
M  V30 3245 H 289.121 -0.749144 0.0854398 0
M  V30 3246 H 291.772 -1.61251 0.875813 0
M  V30 3247 H 290.154 -3.94622 -0.330042 0
M  V30 3248 H 291.328 -3.85301 2.52745 0
M  V30 3249 H 289.643 -3.56601 2.15 0
M  V30 3250 H 292.24 -5.34698 0.0136842 0
M  V30 3251 H 292.583 -4.02261 -1.072 0
M  V30 3252 H 293.116 -3.92873 0.624181 0
M  V30 3253 H 289.855 -5.87781 2.90161 0
M  V30 3254 H 289.375 -5.87896 1.18903 0
M  V30 3255 H 291.054 -6.25658 1.64805 0
M  V30 3256 N 291.186 -0.45159 -1.50991 0
M  V30 3257 C 292.434 0.109857 -2.01801 0
M  V30 3258 C 292.755 1.41958 -1.3369 0
M  V30 3259 O 292.025 1.9003 -0.475951 0
M  V30 3260 H 290.605 0.0435884 -0.745727 0
M  V30 3261 H 293.267 -0.597557 -1.85514 0
M  V30 3262 H 292.363 0.275489 -3.10882 0
M  V30 3263 N 292.664 1.56529 -0.183458 0
M  V30 3264 C 294.08 1.58664 0.172554 0
M  V30 3265 C 294.28 1.19925 1.61926 0
M  V30 3266 O 293.336 0.916534 2.35278 0
M  V30 3267 C 294.649 3.00463 -0.119262 0
M  V30 3268 C 296.197 3.12945 -0.0584396 0
M  V30 3269 C 296.672 4.56857 -0.323408 0
M  V30 3270 N 298.163 4.62403 -0.271612 0
M  V30 3271 C 298.898 5.71626 -0.450639 0
M  V30 3272 N 298.394 6.89362 -0.689384 0
M  V30 3273 N 300.187 5.60775 -0.385701 0
M  V30 3274 H 292.338 1.79994 -1.12765 0
M  V30 3275 H 294.601 0.834808 -0.449222 0
M  V30 3276 H 294.307 3.33326 -1.12192 0
M  V30 3277 H 294.181 3.72659 0.583544 0
M  V30 3278 H 296.568 2.79902 0.934805 0
M  V30 3279 H 296.649 2.4316 -0.794144 0
M  V30 3280 H 296.293 4.9061 -1.31392 0
M  V30 3281 H 296.223 5.24816 0.43305 0
M  V30 3282 H 298.714 3.77785 -0.0932256 0
M  V30 3283 H 299.027 7.68489 -0.815113 0
M  V30 3284 H 297.372 6.91196 -0.726142 0
M  V30 3285 H 300.563 4.67674 -0.199687 0
M  V30 3286 H 300.736 6.4584 -0.528646 0
M  V30 3287 N 294.142 -0.090211 1.57342 0
M  V30 3288 C 295.39 -0.791241 1.85967 0
M  V30 3289 C 295.711 -1.7903 0.772859 0
M  V30 3290 O 294.981 -1.94872 -0.200398 0
M  V30 3291 H 293.561 -0.295205 0.686195 0
M  V30 3292 H 296.223 -0.0706782 1.94772 0
M  V30 3293 H 295.319 -1.31882 2.82867 0
M  V30 3294 N 295.62 -1.53406 -0.361157 0
M  V30 3295 C 296.868 -1.69467 -1.10115 0
M  V30 3296 C 297.189 -0.451352 -1.89705 0
M  V30 3297 O 296.459 0.534636 -1.88463 0
M  V30 3298 H 295.039 -0.624749 -0.409508 0
M  V30 3299 H 297.701 -1.90609 -0.406699 0
M  V30 3300 H 296.797 -2.55774 -1.78847 0
M  V30 3301 N 297.098 0.621204 -1.44841 0
M  V30 3302 C 298.345 1.38055 -1.48145 0
M  V30 3303 C 298.673 1.94143 -0.117867 0
M  V30 3304 O 297.928 1.74713 0.881694 0
M  V30 3305 C 298.227 2.55675 -2.4973 0
M  V30 3306 C 297.893 2.17817 -3.94799 0
M  V30 3307 C 296.555 2.07205 -4.34303 0
M  V30 3308 C 298.907 1.88065 -4.86087 0
M  V30 3309 C 296.235 1.65045 -5.63007 0
M  V30 3310 C 298.587 1.47394 -6.15189 0
M  V30 3311 C 297.251 1.35331 -6.53637 0
M  V30 3312 H 296.521 0.505181 -0.542101 0
M  V30 3313 H 299.168 0.703477 -1.78111 0
M  V30 3314 H 297.473 3.2866 -2.13284 0
M  V30 3315 H 299.17 3.13904 -2.4953 0
M  V30 3316 H 295.76 2.26998 -3.63552 0
M  V30 3317 H 299.944 1.95168 -4.56315 0
M  V30 3318 H 295.2 1.54317 -5.91605 0
M  V30 3319 H 299.374 1.23415 -6.85377 0
M  V30 3320 H 297.001 1.02435 -7.53267 0
M  V30 3321 N 298.576 1.31904 0.862503 0
M  V30 3322 C 299.824 1.21776 1.61292 0
M  V30 3323 C 300.145 -0.222413 1.93727 0
M  V30 3324 O 299.415 -1.1451 1.58947 0
M  V30 3325 H 297.995 0.447717 0.597962 0
M  V30 3326 H 300.657 1.65326 1.03215 0
M  V30 3327 H 299.753 1.7948 2.5533 0
M  V30 3328 N 300.054 -1.07777 1.14986 0
M  V30 3329 C 300.964 -2.18404 0.856546 0
M  V30 3330 C 301.98 -1.73211 -0.165485 0
M  V30 3331 O 303.156 -2.01399 0.00755219 0
M  V30 3332 C 300.221 -3.44977 0.34526 0
M  V30 3333 C 299.282 -4.0476 1.43065 0
M  V30 3334 C 298.515 -5.25291 0.943663 0
M  V30 3335 O 298.738 -5.70004 -0.212426 0
M  V30 3336 O 297.672 -5.76638 1.72547 0
M  V30 3337 H 301.498 -2.45978 1.78125 0
M  V30 3338 H 299.083 -1.17033 0.928631 0
M  V30 3339 H 300.965 -4.21348 0.0663671 0
M  V30 3340 H 299.64 -3.18965 -0.551631 0
M  V30 3341 H 298.547 -3.29949 1.76309 0
M  V30 3342 H 299.88 -4.35035 2.30229 0
M  V30 3343 N 301.532 -0.945985 -1.26051 0
M  V30 3344 C 302.778 -0.597002 -1.93814 0
M  V30 3345 C 303.111 0.862484 -1.73997 0
M  V30 3346 O 302.386 1.61769 -1.07986 0
M  V30 3347 C 302.669 -0.945937 -3.47454 0
M  V30 3348 C 302.522 -2.46052 -3.76535 0
M  V30 3349 C 303.841 -0.464785 -4.37639 0
M  V30 3350 H 300.96 -0.218366 -0.703907 0
M  V30 3351 H 303.602 -1.18107 -1.48831 0
M  V30 3352 H 301.752 -0.448902 -3.85898 0
M  V30 3353 H 303.424 -3.03065 -3.47778 0
M  V30 3354 H 301.667 -2.90194 -3.22444 0
M  V30 3355 H 302.338 -2.65517 -4.83947 0
M  V30 3356 H 304.814 -0.891016 -4.06448 0
M  V30 3357 H 303.69 -0.737712 -5.4392 0
M  V30 3358 H 303.951 0.635274 -4.37512 0
M  V30 3359 N 303.011 1.40521 -0.713556 0
M  V30 3360 C 304.241 2.0494 -0.261395 0
M  V30 3361 C 304.649 1.53861 1.10107 0
M  V30 3362 O 303.992 0.689321 1.70276 0
M  V30 3363 C 304.054 3.59138 -0.161227 0
M  V30 3364 C 303.718 4.33096 -1.45865 0
M  V30 3365 C 304.715 4.61182 -2.40016 0
M  V30 3366 C 302.4 4.72043 -1.71701 0
M  V30 3367 C 304.394 5.27196 -3.58251 0
M  V30 3368 C 302.081 5.37789 -2.90218 0
M  V30 3369 C 303.079 5.65295 -3.83315 0
M  V30 3370 O 302.767 6.29683 -4.99754 0
M  V30 3371 H 302.499 0.666041 -0.115608 0
M  V30 3372 H 305.053 1.80954 -0.971849 0
M  V30 3373 H 303.283 3.81936 0.605153 0
M  V30 3374 H 304.972 4.05091 0.256105 0
M  V30 3375 H 305.738 4.31559 -2.21318 0
M  V30 3376 H 301.617 4.50003 -1.00092 0
M  V30 3377 H 305.161 5.48582 -4.30934 0
M  V30 3378 H 301.058 5.66831 -3.08825 0
M  V30 3379 H 301.826 6.4818 -4.99805 0
M  V30 3380 N 304.489 0.459591 1.5075 0
M  V30 3381 C 305.737 -0.0991532 2.01857 0
M  V30 3382 C 306.058 -1.41247 1.34441 0
M  V30 3383 O 305.328 -1.89775 0.486022 0
M  V30 3384 H 303.908 -0.039633 0.745948 0
M  V30 3385 H 306.57 0.607387 1.85194 0
M  V30 3386 H 305.666 -0.258998 3.11023 0
M  V30 3387 N 305.967 -1.56429 0.191757 0
M  V30 3388 C 307.207 -1.99383 -0.450099 0
M  V30 3389 C 307.571 -1.07581 -1.59029 0
M  V30 3390 O 308.772 -1.39758 -2.29611 0
M  V30 3391 C 307.043 -3.45841 -0.901611 0
M  V30 3392 S 308.602 -4.10822 -1.54177 0
M  V30 3393 H 305.42 -0.696253 -0.144057 0
M  V30 3394 H 308.022 -1.93276 0.294036 0
M  V30 3395 H 306.726 -4.10354 -0.0616596 0
M  V30 3396 H 306.257 -3.55757 -1.67929 0
M  V30 3397 H 308.272 -4.07553 -2.83046 0
M  V30 3398 N 307.445 0.0818655 -1.57387 0
M  V30 3399 C 308.861 0.436412 -1.53517 0
M  V30 3400 C 309.061 1.79758 -0.910459 0
M  V30 3401 O 308.117 2.47324 -0.508636 0
M  V30 3402 C 309.43 0.386734 -2.98203 0
M  V30 3403 C 310.978 0.467644 -3.09487 0
M  V30 3404 C 311.453 0.447978 -4.55804 0
M  V30 3405 N 312.944 0.508348 -4.60402 0
M  V30 3406 C 313.679 0.515184 -5.71081 0
M  V30 3407 N 313.175 0.477435 -6.91153 0
M  V30 3408 N 314.968 0.560988 -5.59294 0
M  V30 3409 H 307.119 -0.809546 -1.96367 0
M  V30 3410 H 309.382 -0.302733 -0.898363 0
M  V30 3411 H 309.088 -0.546539 -3.47427 0
M  V30 3412 H 308.962 1.20075 -3.57578 0
M  V30 3413 H 311.349 1.39134 -2.60242 0
M  V30 3414 H 311.43 -0.374753 -2.5304 0
M  V30 3415 H 311.074 -0.471826 -5.05704 0
M  V30 3416 H 311.004 1.30777 -5.10103 0
M  V30 3417 H 313.495 0.54218 -3.7399 0
M  V30 3418 H 313.808 0.486299 -7.71268 0
M  V30 3419 H 312.153 0.444278 -6.93579 0
M  V30 3420 H 315.344 0.5881 -4.64391 0
M  V30 3421 H 315.517 0.562846 -6.45551 0
M  V30 3422 N 308.923 1.53595 0.353017 0
M  V30 3423 C 309.87 1.80919 1.43308 0
M  V30 3424 C 310.84 0.654288 1.5267 0
M  V30 3425 O 312.025 0.897759 1.6836 0
M  V30 3426 C 309.165 2.01605 2.80089 0
M  V30 3427 C 308.278 3.29321 2.79593 0
M  V30 3428 C 307.413 3.40125 4.0803 0
M  V30 3429 C 306.452 4.61826 4.01725 0
M  V30 3430 N 305.589 4.69716 5.21834 0
M  V30 3431 H 310.429 2.73074 1.19308 0
M  V30 3432 H 307.966 1.35263 0.578131 0
M  V30 3433 H 309.924 2.11586 3.59565 0
M  V30 3434 H 308.554 1.12772 3.0246 0
M  V30 3435 H 307.606 3.28229 1.92276 0
M  V30 3436 H 308.918 4.18884 2.70809 0
M  V30 3437 H 308.072 3.49488 4.95927 0
M  V30 3438 H 306.811 2.48601 4.19582 0
M  V30 3439 H 305.816 4.52552 3.12213 0
M  V30 3440 H 307.041 5.54705 3.91764 0
M  V30 3441 H 304.987 3.81097 5.33948 0
M  V30 3442 H 304.904 5.53202 5.1527 0
M  V30 3443 H 306.172 4.83376 6.11529 0
M  V30 3444 N 310.401 -0.613514 1.45168 0
M  V30 3445 C 311.364 -1.7065 1.53007 0
M  V30 3446 C 312.364 -1.5548 0.410184 0
M  V30 3447 O 313.554 -1.60656 0.673455 0
M  V30 3448 C 310.686 -3.09875 1.42093 0
M  V30 3449 H 311.879 -1.65068 2.50385 0
M  V30 3450 H 309.432 -0.828728 1.32521 0
M  V30 3451 H 310.167 -3.21039 0.458769 0
M  V30 3452 H 309.952 -3.22293 2.23315 0
M  V30 3453 H 311.442 -3.895 1.50598 0
M  V30 3454 N 311.879 -1.3236 -0.855495 0
M  V30 3455 C 313.156 -1.13491 -1.59309 0
M  V30 3456 C 313.536 0.30503 -2.08885 0
M  V30 3457 O 312.884 1.30151 -1.87811 0
M  V30 3458 C 313.094 -2.16176 -2.73987 0
M  V30 3459 C 314.442 -2.49463 -3.43589 0
M  V30 3460 O 315.466 -2.14715 -2.84211 0
M  V30 3461 O 314.325 -3.09027 -4.50738 0
M  V30 3462 H 311.419 -0.437887 -0.701559 0
M  V30 3463 H 313.965 -1.43887 -0.899696 0
M  V30 3464 H 312.737 -3.1297 -2.34873 0
M  V30 3465 H 312.36 -1.86769 -3.51003 0
M  V30 3466 N 313.357 1.07166 -1.15556 0
M  V30 3467 C 314.585 1.83514 -0.955519 0
M  V30 3468 C 315 1.82163 0.49621 0
M  V30 3469 O 314.357 1.23441 1.34419 0
M  V30 3470 C 314.408 3.30515 -1.46432 0
M  V30 3471 O 314.129 3.31937 -2.85918 0
M  V30 3472 C 315.63 4.23625 -1.30603 0
M  V30 3473 H 312.85 0.578926 -0.339244 0
M  V30 3474 H 315.394 1.35265 -1.53374 0
M  V30 3475 H 313.549 3.76106 -0.928584 0
M  V30 3476 H 313.963 4.23794 -3.09029 0
M  V30 3477 H 315.437 5.24831 -1.71047 0
M  V30 3478 H 315.914 4.38485 -0.250441 0
M  V30 3479 H 316.52 3.83871 -1.83094 0
M  V30 3480 N 314.835 0.952656 1.25548 0
M  V30 3481 C 316.083 0.605176 1.92826 0
M  V30 3482 C 316.404 -0.860261 1.74999 0
M  V30 3483 O 315.674 -1.6125 1.11244 0
M  V30 3484 H 314.254 0.220832 0.713612 0
M  V30 3485 H 316.916 1.21047 1.52754 0
M  V30 3486 H 316.012 0.832798 3.00784 0
M  V30 3487 N 316.313 -1.40141 0.720998 0
M  V30 3488 C 317.26 -2.30688 0.071919 0
M  V30 3489 C 318.23 -1.48476 -0.744584 0
M  V30 3490 O 319.415 -1.77201 -0.707423 0
M  V30 3491 C 316.555 -3.34724 -0.839855 0
M  V30 3492 C 315.668 -4.31998 -0.0122438 0
M  V30 3493 C 314.803 -5.23102 -0.923995 0
M  V30 3494 C 313.842 -6.12033 -0.0907969 0
M  V30 3495 N 312.979 -6.95537 -0.957718 0
M  V30 3496 H 317.819 -2.85628 0.849755 0
M  V30 3497 H 315.356 -1.40653 0.430726 0
M  V30 3498 H 317.314 -3.93618 -1.38279 0
M  V30 3499 H 315.944 -2.81274 -1.58381 0
M  V30 3500 H 314.996 -3.74841 0.64794 0
M  V30 3501 H 316.308 -4.94772 0.632595 0
M  V30 3502 H 315.462 -5.86953 -1.53527 0
M  V30 3503 H 314.201 -4.60615 -1.60264 0
M  V30 3504 H 313.206 -5.47207 0.533377 0
M  V30 3505 H 314.431 -6.76581 0.584428 0
M  V30 3506 H 312.377 -6.35633 -1.62192 0
M  V30 3507 H 312.294 -7.55099 -0.36904 0
M  V30 3508 H 313.562 -7.63832 -1.555 0
M  V30 3509 N 317.792 -0.46758 -1.50504 0
M  V30 3510 C 318.725 0.374324 -2.25109 0
M  V30 3511 C 319.703 0.99921 -1.28275 0
M  V30 3512 O 320.887 1.03583 -1.57489 0
M  V30 3513 C 318.014 1.52419 -3.02467 0
M  V30 3514 C 317.06 1.01702 -4.14197 0
M  V30 3515 S 317.893 -0.0654477 -5.3546 0
M  V30 3516 C 319.049 1.08837 -6.16365 0
M  V30 3517 H 319.282 -0.258983 -2.9617 0
M  V30 3518 H 316.815 -0.252421 -1.52323 0
M  V30 3519 H 318.773 2.18322 -3.47628 0
M  V30 3520 H 317.434 2.129 -2.30938 0
M  V30 3521 H 316.627 1.87776 -4.67714 0
M  V30 3522 H 316.229 0.435757 -3.71453 0
M  V30 3523 H 318.521 2.00071 -6.47285 0
M  V30 3524 H 319.464 0.592538 -7.05616 0
M  V30 3525 H 319.872 1.34061 -5.4835 0
M  V30 3526 N 319.27 1.56325 -0.20005 0
M  V30 3527 C 320.5 2.01811 0.442232 0
M  V30 3528 C 320.908 1.07932 1.55394 0
M  V30 3529 O 320.251 0.0772685 1.83537 0
M  V30 3530 C 320.313 3.43685 1.05457 0
M  V30 3531 C 319.977 4.56928 0.0809833 0
M  V30 3532 C 320.974 5.15009 -0.711471 0
M  V30 3533 C 318.659 5.0229 -0.0315364 0
M  V30 3534 C 320.653 6.16904 -1.60336 0
M  V30 3535 C 318.34 6.04028 -0.926981 0
M  V30 3536 C 319.338 6.6121 -1.71146 0
M  V30 3537 O 319.026 7.60971 -2.59189 0
M  V30 3538 H 318.758 0.666173 0.114848 0
M  V30 3539 H 321.312 2.03085 -0.307511 0
M  V30 3540 H 319.542 3.39413 1.85299 0
M  V30 3541 H 321.231 3.72948 1.60201 0
M  V30 3542 H 321.997 4.80827 -0.634873 0
M  V30 3543 H 317.876 4.57476 0.568902 0
M  V30 3544 H 321.42 6.61464 -2.21611 0
M  V30 3545 H 317.317 6.37634 -1.00468 0
M  V30 3546 H 318.085 7.7841 -2.53023 0
M  V30 3547 N 320.748 -0.0735177 1.57428 0
M  V30 3548 C 321.711 -1.07192 2.02589 0
M  V30 3549 C 322.711 -1.31695 0.922661 0
M  V30 3550 O 323.901 -1.27445 1.18758 0
M  V30 3551 C 321.033 -2.41599 2.40506 0
M  V30 3552 H 322.226 -0.682727 2.92025 0
M  V30 3553 H 319.779 -0.319193 1.53006 0
M  V30 3554 H 320.514 -2.85354 1.5409 0
M  V30 3555 H 320.299 -2.25156 3.21009 0
M  V30 3556 H 321.789 -3.13367 2.76027 0
M  V30 3557 N 322.226 -1.5378 -0.344866 0
M  V30 3558 C 323.159 -1.7649 -1.4466 0
M  V30 3559 C 324.137 -0.613954 -1.50563 0
M  V30 3560 O 325.321 -0.84896 -1.683 0
M  V30 3561 C 322.448 -1.86235 -2.82903 0
M  V30 3562 C 321.494 -3.08375 -2.94631 0
M  V30 3563 S 322.327 -4.67457 -2.61236 0
M  V30 3564 C 323.483 -4.80079 -4.0159 0
M  V30 3565 H 323.716 -2.69661 -1.2518 0
M  V30 3566 H 321.249 -1.44632 -0.540455 0
M  V30 3567 H 323.207 -1.92535 -3.62547 0
M  V30 3568 H 321.868 -0.940786 -2.9968 0
M  V30 3569 H 321.061 -3.11865 -3.95925 0
M  V30 3570 H 320.663 -3.00294 -2.22934 0
M  V30 3571 H 322.955 -4.61407 -4.96094 0
M  V30 3572 H 323.898 -5.82168 -4.03095 0
M  V30 3573 H 324.306 -4.08544 -3.89554 0
M  V30 3574 N 323.704 0.605807 -1.45491 0
M  V30 3575 C 324.651 1.7164 -1.54299 0
M  V30 3576 C 325.621 1.61486 -0.388761 0
M  V30 3577 O 326.806 1.81039 -0.602445 0
M  V30 3578 C 323.946 3.09953 -1.51734 0
M  V30 3579 C 323.059 3.309 -2.77721 0
M  V30 3580 C 322.194 4.59329 -2.66816 0
M  V30 3581 C 321.233 4.7354 -3.87848 0
M  V30 3582 N 320.37 5.9327 -3.75467 0
M  V30 3583 H 325.21 1.63449 -2.49176 0
M  V30 3584 H 322.747 0.796957 -1.23641 0
M  V30 3585 H 324.705 3.89977 -1.48235 0
M  V30 3586 H 323.335 3.17098 -0.604068 0
M  V30 3587 H 322.387 2.44639 -2.913 0
M  V30 3588 H 323.699 3.37274 -3.67488 0
M  V30 3589 H 322.853 5.4755 -2.61292 0
M  V30 3590 H 321.592 4.55355 -1.74651 0
M  V30 3591 H 320.597 3.83741 -3.93729 0
M  V30 3592 H 321.822 4.79309 -4.81082 0
M  V30 3593 H 319.768 5.90338 -2.86072 0
M  V30 3594 H 319.685 6.00811 -4.5887 0
M  V30 3595 H 320.953 6.83984 -3.73879 0
M  V30 3596 N 325.182 1.32811 0.848464 0
M  V30 3597 C 326.422 1.25046 1.61687 0
M  V30 3598 C 326.786 -0.183464 1.91121 0
M  V30 3599 O 327.987 -0.384937 2.66029 0
M  V30 3600 C 326.258 2.09201 2.89775 0
M  V30 3601 S 327.817 2.18526 3.80515 0
M  V30 3602 H 324.635 0.445023 0.554505 0
M  V30 3603 H 327.237 1.67733 1.00429 0
M  V30 3604 H 325.941 3.12433 2.66108 0
M  V30 3605 H 325.472 1.67315 3.56047 0
M  V30 3606 H 327.487 1.3393 4.77784 0
M  V30 3607 N 326.66 -1.06551 1.16123 0
M  V30 3608 C 327.59 -2.15935 0.88851 0
M  V30 3609 C 328.571 -1.69306 -0.164135 0
M  V30 3610 O 329.756 -1.94193 -0.0167857 0
M  V30 3611 C 326.886 -3.45149 0.385942 0
M  V30 3612 C 325.84 -4.05271 1.3762 0
M  V30 3613 C 325.166 -5.29664 0.732137 0
M  V30 3614 C 326.466 -4.44355 2.74493 0
M  V30 3615 H 328.16 -2.39006 1.80323 0
M  V30 3616 H 325.706 -1.14866 0.868435 0
M  V30 3617 H 327.659 -4.21004 0.182647 0
M  V30 3618 H 326.383 -3.21689 -0.564274 0
M  V30 3619 H 325.042 -3.3147 1.56599 0
M  V30 3620 H 324.69 -5.02499 -0.224483 0
M  V30 3621 H 324.39 -5.70848 1.39307 0
M  V30 3622 H 325.914 -6.08218 0.538802 0
M  V30 3623 H 327.328 -5.11303 2.59311 0
M  V30 3624 H 325.725 -4.96515 3.37035 0
M  V30 3625 H 326.795 -3.55339 3.29943 0
M  V30 3626 N 328.138 -0.959301 -1.25041 0
M  V30 3627 C 329.415 -0.533805 -1.88175 0
M  V30 3628 C 329.795 0.988994 -1.865 0
M  V30 3629 O 329.143 1.85677 -1.33177 0
M  V30 3630 C 329.353 -1.11575 -3.30684 0
M  V30 3631 C 330.701 -1.19548 -4.07423 0
M  V30 3632 O 331.725 -1.06765 -3.39823 0
M  V30 3633 O 330.584 -1.39656 -5.28354 0
M  V30 3634 H 327.678 -0.176772 -0.807887 0
M  V30 3635 H 330.224 -1.05303 -1.33076 0
M  V30 3636 H 328.996 -2.15884 -3.26358 0
M  V30 3637 H 328.619 -0.580059 -3.93346 0
M  V30 3638 N 329.616 1.39756 -0.72842 0
M  V30 3639 C 330.563 2.30647 -0.0841519 0
M  V30 3640 C 331.533 1.48869 0.7367 0
M  V30 3641 O 332.718 1.77574 0.698015 0
M  V30 3642 C 329.858 3.35165 0.822091 0
M  V30 3643 C 328.971 4.31999 -0.0106663 0
M  V30 3644 C 328.106 5.23585 0.896241 0
M  V30 3645 C 327.145 6.12072 0.0583381 0
M  V30 3646 N 326.282 6.96035 0.920818 0
M  V30 3647 H 331.122 2.85173 -0.864891 0
M  V30 3648 H 328.659 1.40422 -0.438179 0
M  V30 3649 H 330.617 3.94345 1.36189 0
M  V30 3650 H 329.247 2.8211 1.56888 0
M  V30 3651 H 328.299 3.74492 -0.66781 0
M  V30 3652 H 329.611 4.9443 -0.658825 0
M  V30 3653 H 328.765 5.87759 1.50412 0
M  V30 3654 H 327.504 4.61459 1.57819 0
M  V30 3655 H 326.509 5.46916 -0.562389 0
M  V30 3656 H 327.734 6.76261 -0.6203 0
M  V30 3657 H 325.68 6.36485 1.58818 0
M  V30 3658 H 325.597 7.55284 0.32899 0
M  V30 3659 H 326.865 7.64646 1.51447 0
M  V30 3660 N 331.094 0.475555 1.50254 0
M  V30 3661 C 332.041 -0.316293 2.28622 0
M  V30 3662 C 333.011 -0.983227 1.33873 0
M  V30 3663 O 334.196 -0.994805 1.62814 0
M  V30 3664 C 331.336 -1.38975 3.1588 0
M  V30 3665 C 330.449 -0.737146 4.25664 0
M  V30 3666 C 329.584 -1.78887 5.00173 0
M  V30 3667 C 328.623 -1.11676 6.01826 0
M  V30 3668 N 327.76 -2.11154 6.69596 0
M  V30 3669 H 332.6 0.358297 2.95838 0
M  V30 3670 H 330.137 0.188541 1.45887 0
M  V30 3671 H 332.095 -2.02383 3.64825 0
M  V30 3672 H 330.725 -2.03344 2.50701 0
M  V30 3673 H 329.777 0.0096065 3.80399 0
M  V30 3674 H 331.089 -0.206816 4.98371 0
M  V30 3675 H 330.243 -2.49865 5.52859 0
M  V30 3676 H 328.982 -2.35302 4.27182 0
M  V30 3677 H 327.987 -0.392633 5.48396 0
M  V30 3678 H 329.212 -0.55945 6.76792 0
M  V30 3679 H 327.158 -2.66577 5.99394 0
M  V30 3680 H 327.075 -1.63118 7.38193 0
M  V30 3681 H 328.343 -2.81497 7.26897 0
M  V30 3682 N 332.573 -1.56217 0.208337 0
M  V30 3683 C 333.989 -1.58919 -0.14729 0
M  V30 3684 C 334.189 -1.22486 -1.59998 0
M  V30 3685 O 333.245 -0.953849 -2.3379 0
M  V30 3686 C 334.558 -3.00236 0.167048 0
M  V30 3687 C 336.106 -3.12813 0.108219 0
M  V30 3688 C 336.581 -4.56284 0.396049 0
M  V30 3689 N 338.072 -4.61912 0.345142 0
M  V30 3690 C 338.807 -5.70837 0.541523 0
M  V30 3691 N 338.303 -6.88178 0.798968 0
M  V30 3692 N 340.096 -5.60091 0.474867 0
M  V30 3693 H 332.247 -1.78177 1.15614 0
M  V30 3694 H 334.51 -0.827555 0.462446 0
M  V30 3695 H 334.216 -3.31499 1.1748 0
M  V30 3696 H 334.09 -3.7354 -0.524184 0
M  V30 3697 H 336.477 -2.81354 -0.890157 0
M  V30 3698 H 336.558 -2.41866 0.832729 0
M  V30 3699 H 336.202 -4.88458 1.3918 0
M  V30 3700 H 336.132 -5.25439 -0.349502 0
M  V30 3701 H 338.623 -3.77589 0.153316 0
M  V30 3702 H 338.936 -7.67095 0.93727 0
M  V30 3703 H 337.281 -6.89953 0.836013 0
M  V30 3704 H 340.472 -4.67297 0.274064 0
M  V30 3705 H 340.645 -6.44917 0.631326 0
M  V30 3706 N 334.051 0.0651679 -1.57465 0
M  V30 3707 C 335.3 0.761916 -1.86756 0
M  V30 3708 C 335.613 1.78406 -0.801925 0
M  V30 3709 O 336.819 2.53084 -0.982885 0
M  V30 3710 C 335.275 1.40603 -3.31299 0
M  V30 3711 C 334.883 0.422115 -4.46007 0
M  V30 3712 C 336.627 2.08476 -3.69781 0
M  V30 3713 C 334.534 1.07252 -5.81593 0
M  V30 3714 H 333.464 0.288308 -0.696702 0
M  V30 3715 H 336.115 0.015344 -1.83494 0
M  V30 3716 H 334.497 2.20109 -3.29193 0
M  V30 3717 H 335.671 -0.343613 -4.59517 0
M  V30 3718 H 333.986 -0.152527 -4.16121 0
M  V30 3719 H 336.583 2.57925 -4.68379 0
M  V30 3720 H 336.926 2.88712 -2.99919 0
M  V30 3721 H 337.459 1.35792 -3.73905 0
M  V30 3722 H 334.198 0.310342 -6.54765 0
M  V30 3723 H 333.718 1.80895 -5.71872 0
M  V30 3724 H 335.397 1.59043 -6.27148 0
M  V30 3725 N 335.529 1.53961 0.336706 0
M  V30 3726 C 336.476 1.82428 1.41381 0
M  V30 3727 C 337.446 0.670444 1.51968 0
M  V30 3728 O 338.631 0.915565 1.67398 0
M  V30 3729 C 335.771 2.04564 2.77934 0
M  V30 3730 C 334.884 3.32267 2.76084 0
M  V30 3731 C 334.019 3.44434 4.04399 0
M  V30 3732 C 333.058 4.66061 3.96804 0
M  V30 3733 N 332.195 4.75224 5.16823 0
M  V30 3734 H 337.035 2.74324 1.16405 0
M  V30 3735 H 334.572 1.35869 0.563752 0
M  V30 3736 H 336.53 2.15388 3.57301 0
M  V30 3737 H 335.16 1.15974 3.01247 0
M  V30 3738 H 334.212 3.3025 1.88784 0
M  V30 3739 H 335.524 4.21733 2.66351 0
M  V30 3740 H 334.678 3.54728 4.92192 0
M  V30 3741 H 333.417 2.53037 4.16921 0
M  V30 3742 H 332.422 4.55838 3.07396 0
M  V30 3743 H 333.647 5.58829 3.85858 0
M  V30 3744 H 331.593 3.86739 5.29876 0
M  V30 3745 H 331.51 5.58636 5.09374 0
M  V30 3746 H 332.778 4.89835 6.06367 0
M  V30 3747 N 337.007 -0.598083 1.45811 0
M  V30 3748 C 337.94 -1.7223 1.49706 0
M  V30 3749 C 338.918 -1.58732 0.352535 0
M  V30 3750 O 340.102 -1.80162 0.554438 0
M  V30 3751 C 337.229 -3.10148 1.3611 0
M  V30 3752 C 336.275 -3.42209 2.54549 0
M  V30 3753 S 337.108 -3.35989 4.16979 0
M  V30 3754 C 338.264 -4.76471 4.05865 0
M  V30 3755 H 338.497 -1.68665 2.44826 0
M  V30 3756 H 336.03 -0.775541 1.33509 0
M  V30 3757 H 337.988 -3.8972 1.28953 0
M  V30 3758 H 336.649 -3.11219 0.424451 0
M  V30 3759 H 335.842 -4.42652 2.40988 0
M  V30 3760 H 335.444 -2.70173 2.58617 0
M  V30 3761 H 337.736 -5.665 3.71596 0
M  V30 3762 H 338.679 -4.95089 5.06253 0
M  V30 3763 H 339.087 -4.52599 3.37364 0
M  V30 3764 N 338.485 -1.33259 -0.841409 0
M  V30 3765 C 339.432 -1.23302 -1.95103 0
M  V30 3766 C 340.402 -0.112204 -1.65721 0
M  V30 3767 O 341.587 -0.290038 -1.88583 0
M  V30 3768 C 338.727 -0.975583 -3.31023 0
M  V30 3769 C 337.84 -2.18243 -3.72819 0
M  V30 3770 C 336.975 -1.85936 -4.97595 0
M  V30 3771 C 336.014 -3.02866 -5.3192 0
M  V30 3772 N 335.151 -2.70565 -6.47873 0
M  V30 3773 H 339.991 -2.18207 -2.02952 0
M  V30 3774 H 337.528 -1.0851 -0.993173 0
M  V30 3775 H 339.486 -0.80677 -4.09325 0
M  V30 3776 H 338.116 -0.0632755 -3.22738 0
M  V30 3777 H 337.168 -2.46107 -2.90061 0
M  V30 3778 H 338.48 -3.05666 -3.94169 0
M  V30 3779 H 337.634 -1.65684 -5.83638 0
M  V30 3780 H 336.373 -0.957452 -4.78209 0
M  V30 3781 H 335.378 -3.23736 -4.44382 0
M  V30 3782 H 336.603 -3.93809 -5.53255 0
M  V30 3783 H 334.549 -1.8293 -6.29978 0
M  V30 3784 H 334.466 -3.51519 -6.69306 0
M  V30 3785 H 335.734 -2.53774 -7.37034 0
M  V30 3786 N 339.963 1.05934 -1.16686 0
M  V30 3787 C 340.895 2.13468 -0.834503 0
M  V30 3788 C 341.908 1.62013 0.15984 0
M  V30 3789 O 343.097 1.7838 -0.0654228 0
M  V30 3790 C 340.197 3.3817 -0.222361 0
M  V30 3791 C 339.37 4.18928 -1.25771 0
M  V30 3792 C 338.429 5.21985 -0.664703 0
M  V30 3793 O 337.455 5.53334 -1.33453 0
M  V30 3794 N 338.657 5.77919 0.546834 0
M  V30 3795 H 341.422 2.42578 -1.75999 0
M  V30 3796 H 338.983 1.21967 -1.06469 0
M  V30 3797 H 340.975 4.04266 0.187472 0
M  V30 3798 H 339.545 3.06655 0.606758 0
M  V30 3799 H 338.765 3.48433 -1.84358 0
M  V30 3800 H 340.053 4.69687 -1.95631 0
M  V30 3801 H 339.451 5.54721 1.10912 0
M  V30 3802 H 338.008 6.45573 0.898829 0
M  V30 3803 N 341.441 0.965919 1.2453 0
M  V30 3804 C 342.689 0.625593 1.92174 0
M  V30 3805 C 343.01 -0.841652 1.75901 0
M  V30 3806 O 342.28 -1.60061 1.12948 0
M  V30 3807 H 340.86 0.228388 0.71123 0
M  V30 3808 H 343.522 1.2266 1.51461 0
M  V30 3809 H 342.618 0.864653 2.99884 0
M  V30 3810 N 342.919 -1.39368 0.735821 0
M  V30 3811 C 343.829 -2.34395 0.0979693 0
M  V30 3812 C 344.845 -1.58361 -0.720968 0
M  V30 3813 O 346.021 -1.90648 -0.649245 0
M  V30 3814 C 343.086 -3.37393 -0.797916 0
M  V30 3815 C 342.147 -4.29287 0.0333662 0
M  V30 3816 C 341.38 -5.27365 -0.819854 0
M  V30 3817 O 341.603 -5.31959 -2.05855 0
M  V30 3818 O 340.537 -6.01389 -0.248079 0
M  V30 3819 H 344.363 -2.90601 0.882315 0
M  V30 3820 H 341.948 -1.40909 0.4965 0
M  V30 3821 H 343.83 -4.00505 -1.31048 0
M  V30 3822 H 342.505 -2.83571 -1.56106 0
M  V30 3823 H 341.412 -3.69395 0.591475 0
M  V30 3824 H 342.745 -4.86317 0.758752 0
M  V30 3825 N 344.397 -0.483516 -1.5 0
M  V30 3826 C 345.625 0.0644831 -2.06799 0
M  V30 3827 C 346.04 1.32399 -1.34596 0
M  V30 3828 O 345.397 1.77626 -0.418946 0
M  V30 3829 C 345.448 0.339927 -3.59898 0
M  V30 3830 O 345.169 -0.869635 -4.29382 0
M  V30 3831 C 346.67 0.933515 -4.33359 0
M  V30 3832 H 343.89 -0.0126333 -0.670881 0
M  V30 3833 H 346.434 -0.675864 -1.93009 0
M  V30 3834 H 344.589 1.03022 -3.7345 0
M  V30 3835 H 345.003 -0.62179 -5.20801 0
M  V30 3836 H 346.477 1.07593 -5.41413 0
M  V30 3837 H 346.954 1.92685 -3.94676 0
M  V30 3838 H 347.56 0.281221 -4.24369 0
M  V30 3839 N 345.875 1.56104 -0.216619 0
M  V30 3840 C 346.805 2.23063 0.690296 0
M  V30 3841 C 347.786 1.20072 1.20485 0
M  V30 3842 O 348.971 1.48643 1.24976 0
M  V30 3843 C 346.101 2.90672 1.90072 0
M  V30 3844 C 345.055 4.00092 1.5202 0
M  V30 3845 C 344.381 4.54972 2.80899 0
M  V30 3846 C 345.681 5.17398 0.71391 0
M  V30 3847 H 347.375 2.99109 0.132038 0
M  V30 3848 H 344.921 1.43866 0.0620664 0
M  V30 3849 H 346.874 3.36204 2.54057 0
M  V30 3850 H 345.598 2.12066 2.48386 0
M  V30 3851 H 344.257 3.55283 0.903839 0
M  V30 3852 H 343.905 3.73102 3.37348 0
M  V30 3853 H 343.605 5.28817 2.56176 0
M  V30 3854 H 345.129 5.0322 3.45836 0
M  V30 3855 H 346.543 5.59342 1.25735 0
M  V30 3856 H 344.94 5.97444 0.563951 0
M  V30 3857 H 346.01 4.84088 -0.280527 0
M  V30 3858 N 347.353 -0.0568162 1.57498 0
M  V30 3859 C 348.316 -1.05038 2.03715 0
M  V30 3860 C 349.316 -1.30709 0.936577 0
M  V30 3861 O 350.506 -1.26178 1.20103 0
M  V30 3862 C 347.638 -2.39034 2.43055 0
M  V30 3863 H 348.831 -0.651715 2.92733 0
M  V30 3864 H 346.384 -0.302947 1.53336 0
M  V30 3865 H 347.119 -2.83703 1.57108 0
M  V30 3866 H 346.904 -2.21739 3.2338 0
M  V30 3867 H 348.394 -3.10421 2.79336 0
M  V30 3868 N 348.832 -1.54138 -0.328536 0
M  V30 3869 C 349.762 -1.86167 -1.40939 0
M  V30 3870 C 350.743 -0.718044 -1.54202 0
M  V30 3871 O 351.928 -0.971328 -1.68163 0
M  V30 3872 C 349.058 -2.08461 -2.77779 0
M  V30 3873 C 348.012 -3.24299 -2.7931 0
M  V30 3874 C 347.338 -3.31955 -4.19178 0
M  V30 3875 C 348.638 -4.62065 -2.43502 0
M  V30 3876 H 350.332 -2.76689 -1.14383 0
M  V30 3877 H 347.878 -1.33132 -0.548806 0
M  V30 3878 H 349.831 -2.29453 -3.53454 0
M  V30 3879 H 348.555 -1.14684 -3.05802 0
M  V30 3880 H 347.214 -3.03187 -2.0609 0
M  V30 3881 H 346.862 -2.35745 -4.44335 0
M  V30 3882 H 346.562 -4.09805 -4.2111 0
M  V30 3883 H 348.086 -3.55175 -4.96672 0
M  V30 3884 H 349.5 -4.8297 -3.08889 0
M  V30 3885 H 347.897 -5.42429 -2.56693 0
M  V30 3886 H 348.967 -4.64652 -1.38659 0
M  V30 3887 N 350.31 0.590341 -1.46126 0
M  V30 3888 C 351.258 1.72105 -1.5647 0
M  V30 3889 C 352.252 1.63756 -0.433612 0
M  V30 3890 O 353.458 1.69342 -0.610194 0
M  V30 3891 H 349.833 0.568889 -0.491802 0
M  V30 3892 H 351.804 1.6051 -2.51553 0
M  V30 3893 C 350.553 3.10493 -1.56491 0
M  V30 3894 H 349.876 3.17583 -2.4286 0
M  V30 3895 H 351.316 3.8939 -1.67785 0
M  V30 3896 C 349.775 3.3563 -0.292231 0
M  V30 3897 O 350.305 3.96875 0.620739 0
M  V30 3898 N 348.511 2.90026 -0.182523 0
M  V30 3899 H 348.058 2.40367 -0.926356 0
M  V30 3900 H 348.016 3.07218 0.668152 0
M  V30 3901 N 351.788 1.33704 0.83433 0
M  V30 3902 C 352.698 1.26382 1.97648 0
M  V30 3903 C 353.714 0.173548 1.73132 0
M  V30 3904 O 354.89 0.397962 1.97429 0
M  V30 3905 C 351.955 1.00769 3.31733 0
M  V30 3906 C 351.016 2.1884 3.69334 0
M  V30 3907 C 350.249 1.9444 4.9702 0
M  V30 3908 O 350.472 0.896961 5.63303 0
M  V30 3909 O 349.406 2.81093 5.32231 0
M  V30 3910 H 353.232 2.22444 2.06767 0
M  V30 3911 H 350.817 1.13795 0.968037 0
M  V30 3912 H 352.699 0.882186 4.12062 0
M  V30 3913 H 351.374 0.0773783 3.23608 0
M  V30 3914 H 350.281 2.36946 2.89495 0
M  V30 3915 H 351.614 3.10221 3.82131 0
M  V30 3916 N 353.266 -1.05314 1.17247 0
M  V30 3917 C 354.682 -1.30452 0.919473 0
M  V30 3918 C 354.882 -1.9703 -0.42209 0
M  V30 3919 O 353.938 -2.24311 -1.15935 0
M  V30 3920 C 355.251 -2.17551 2.07586 0
M  V30 3921 C 356.799 -2.30937 2.11275 0
M  V30 3922 C 357.274 -3.21396 3.26296 0
M  V30 3923 N 358.765 -3.28981 3.26076 0
M  V30 3924 C 359.5 -3.99095 4.11716 0
M  V30 3925 N 358.996 -4.71648 5.07465 0
M  V30 3926 N 360.789 -3.95247 3.9967 0
M  V30 3927 H 352.94 -0.604988 2.03602 0
M  V30 3928 H 355.203 -0.329368 0.888944 0
M  V30 3929 H 354.909 -1.75921 3.0454 0
M  V30 3930 H 354.783 -3.18182 2.02584 0
M  V30 3931 H 357.17 -2.71809 1.14907 0
M  V30 3932 H 357.251 -1.2994 2.20339 0
M  V30 3933 H 356.895 -2.81238 4.22927 0
M  V30 3934 H 356.825 -4.22395 3.14467 0
M  V30 3935 H 359.316 -2.77286 2.5675 0
M  V30 3936 H 359.629 -5.22705 5.6921 0
M  V30 3937 H 357.974 -4.70594 5.11435 0
M  V30 3938 H 361.165 -3.37691 3.24164 0
M  V30 3939 H 361.338 -4.4962 4.66632 0
M  V30 3940 N 354.744 -0.972509 -1.24016 0
M  V30 3941 C 355.993 -0.632603 -1.91523 0
M  V30 3942 C 356.306 0.836641 -1.76804 0
M  V30 3943 O 357.512 1.28728 -2.39043 0
M  V30 3944 C 355.968 -1.08082 -3.43287 0
M  V30 3945 C 355.576 -2.57386 -3.66683 0
M  V30 3946 C 357.32 -0.814288 -4.16617 0
M  V30 3947 C 355.227 -2.95915 -5.12043 0
M  V30 3948 H 354.157 -0.232898 -0.717129 0
M  V30 3949 H 356.808 -1.17936 -1.40582 0
M  V30 3950 H 355.19 -0.462339 -3.93292 0
M  V30 3951 H 356.364 -3.24405 -3.27258 0
M  V30 3952 H 354.679 -2.81701 -3.06649 0
M  V30 3953 H 357.276 -1.0781 -5.23718 0
M  V30 3954 H 357.619 0.24955 -4.15551 0
M  V30 3955 H 358.152 -1.39397 -3.72577 0
M  V30 3956 H 354.891 -4.0139 -5.18234 0
M  V30 3957 H 354.411 -2.33584 -5.52448 0
M  V30 3958 H 356.09 -2.86086 -5.80314 0
M  V30 3959 N 356.222 1.38976 -0.743202 0
M  V30 3960 C 357.155 2.28128 -0.0572165 0
M  V30 3961 C 358.133 1.44827 0.739182 0
M  V30 3962 O 359.317 1.74207 0.720009 0
M  V30 3963 C 356.444 3.25796 0.926001 0
M  V30 3964 C 355.49 4.25947 0.217099 0
M  V30 3965 S 356.323 5.24604 -1.07477 0
M  V30 3966 C 357.479 6.25829 -0.0943545 0
M  V30 3967 H 357.712 2.85961 -0.813246 0
M  V30 3968 H 355.245 1.44822 -0.535341 0
M  V30 3969 H 357.203 3.82583 1.48797 0
M  V30 3970 H 355.864 2.66966 1.65493 0
M  V30 3971 H 355.057 4.94746 0.961372 0
M  V30 3972 H 354.659 3.73002 -0.273059 0
M  V30 3973 H 356.951 6.73411 0.743239 0
M  V30 3974 H 357.894 7.0412 -0.749713 0
M  V30 3975 H 358.302 5.63797 0.281706 0
M  V30 3976 N 357.7 0.491464 1.49741 0
M  V30 3977 C 358.63 -0.28154 2.31796 0
M  V30 3978 C 359.611 -0.971473 1.3963 0
M  V30 3979 O 360.796 -0.964719 1.68543 0
M  V30 3980 C 357.926 -1.35203 3.19902 0
M  V30 3981 C 356.88 -0.782529 4.20786 0
M  V30 3982 C 356.206 -1.95283 4.97764 0
M  V30 3983 C 357.506 0.21999 5.21837 0
M  V30 3984 H 359.2 0.403355 2.96671 0
M  V30 3985 H 356.746 0.195425 1.42668 0
M  V30 3986 H 358.699 -1.90045 3.76113 0
M  V30 3987 H 357.423 -2.06598 2.52953 0
M  V30 3988 H 356.082 -0.255928 3.65706 0
M  V30 3989 H 355.73 -2.65423 4.2727 0
M  V30 3990 H 355.43 -1.57789 5.66018 0
M  V30 3991 H 356.954 -2.50577 5.56816 0
M  V30 3992 H 358.368 -0.23996 5.72798 0
M  V30 3993 H 356.765 0.51026 5.97927 0
M  V30 3994 H 357.835 1.13911 4.7133 0
M  V30 3995 N 359.178 -1.55987 0.224894 0
M  V30 3996 C 360.403 -2.03232 -0.41369 0
M  V30 3997 C 360.828 -1.10359 -1.52323 0
M  V30 3998 O 360.186 -0.092395 -1.81064 0
M  V30 3999 C 360.234 -3.48682 -0.919405 0
M  V30 4000 O 359.338 -3.58947 -2.03054 0
M  V30 4001 H 358.679 -0.657428 -0.0931903 0
M  V30 4002 H 361.209 -2.01679 0.34451 0
M  V30 4003 H 361.219 -3.8907 -1.22835 0
M  V30 4004 H 359.894 -4.15761 -0.107339 0
M  V30 4005 H 358.471 -3.30448 -1.72796 0
M  V30 4006 N 360.656 0.0484629 -1.57525 0
M  V30 4007 C 361.586 1.0549 -2.08313 0
M  V30 4008 C 362.567 1.38929 -0.981463 0
M  V30 4009 O 363.752 1.48151 -1.25558 0
M  V30 4010 C 360.882 2.36162 -2.54646 0
M  V30 4011 C 359.836 2.17016 -3.68901 0
M  V30 4012 C 359.162 3.53278 -4.01371 0
M  V30 4013 C 360.462 1.57219 -4.98076 0
M  V30 4014 H 362.156 0.632195 -2.92649 0
M  V30 4015 H 359.702 0.302654 -1.40784 0
M  V30 4016 H 361.655 3.06882 -2.88793 0
M  V30 4017 H 360.379 2.80456 -1.67368 0
M  V30 4018 H 359.038 1.48733 -3.35073 0
M  V30 4019 H 358.686 3.95185 -3.11188 0
M  V30 4020 H 358.386 3.41299 -4.78318 0
M  V30 4021 H 359.91 4.25391 -4.38035 0
M  V30 4022 H 361.324 2.17832 -5.30304 0
M  V30 4023 H 359.721 1.55871 -5.79503 0
M  V30 4024 H 360.791 0.535956 -4.81929 0
M  V30 4025 N 362.134 1.5431 0.320358 0
M  V30 4026 C 363.38 1.72924 1.05949 0
M  V30 4027 C 363.713 0.503185 1.87568 0
M  V30 4028 O 362.988 -0.499839 1.87968 0
M  V30 4029 C 363.271 3.00676 1.98156 0
M  V30 4030 C 363.124 4.3354 1.19845 0
M  V30 4031 C 364.443 3.24198 2.9763 0
M  V30 4032 H 361.562 0.629195 0.383774 0
M  V30 4033 H 364.204 1.87008 0.335854 0
M  V30 4034 H 362.354 2.888 2.59859 0
M  V30 4035 H 364.026 4.57305 0.605773 0
M  V30 4036 H 362.269 4.309 0.500784 0
M  V30 4037 H 362.94 5.19156 1.87567 0
M  V30 4038 H 365.416 3.35557 2.4605 0
M  V30 4039 H 364.292 4.14938 3.59329 0
M  V30 4040 H 364.553 2.41577 3.7026 0
M  V30 4041 N 363.613 -0.582584 1.46437 0
M  V30 4042 C 364.838 -1.37168 1.55563 0
M  V30 4043 C 365.263 -1.87061 0.19743 0
M  V30 4044 O 364.621 -1.61572 -0.822451 0
M  V30 4045 C 364.669 -2.53511 2.56446 0
M  V30 4046 O 363.773 -3.54953 2.09958 0
M  V30 4047 H 363.114 -0.408494 0.523477 0
M  V30 4048 H 365.644 -0.706646 1.9201 0
M  V30 4049 H 365.654 -3.00426 2.76058 0
M  V30 4050 H 364.329 -2.16549 3.55076 0
M  V30 4051 H 362.906 -3.14516 2.00334 0
M  V30 4052 N 365.091 -1.34144 -0.827227 0
M  V30 4053 C 366.319 -1.29325 -1.61501 0
M  V30 4054 C 366.734 0.13354 -1.88327 0
M  V30 4055 O 366.091 1.0793 -1.47164 0
M  V30 4056 C 366.142 -2.07746 -2.95844 0
M  V30 4057 O 365.863 -3.4486 -2.70191 0
M  V30 4058 C 367.364 -2.10273 -3.90256 0
M  V30 4059 H 364.584 -0.445069 -0.50215 0
M  V30 4060 H 367.128 -1.76693 -1.02955 0
M  V30 4061 H 365.283 -1.6403 -3.5096 0
M  V30 4062 H 365.697 -3.85345 -3.55822 0
M  V30 4063 H 367.171 -2.69575 -4.81698 0
M  V30 4064 H 367.648 -1.096 -4.25305 0
M  V30 4065 H 368.254 -2.54059 -3.41078 0
M  V30 4066 N 366.569 1.04691 -1.17803 0
M  V30 4067 C 367.817 1.7743 -0.967617 0
M  V30 4068 C 368.138 1.88359 0.504574 0
M  V30 4069 O 367.408 1.40402 1.36617 0
M  V30 4070 H 365.988 0.657242 -0.355024 0
M  V30 4071 H 368.65 1.2638 -1.48371 0
M  V30 4072 H 367.746 2.78924 -1.40027 0
M  V30 4073 N 368.047 0.979072 1.23499 0
M  V30 4074 C 369.324 0.563674 1.87302 0
M  V30 4075 C 369.704 -0.959199 1.88049 0
M  V30 4076 O 369.052 -1.83535 1.36114 0
M  V30 4077 C 369.262 1.16822 3.28867 0
M  V30 4078 C 370.61 1.26014 4.0547 0
M  V30 4079 O 371.634 1.12158 3.38082 0
M  V30 4080 O 370.493 1.48044 5.26066 0
M  V30 4081 H 367.587 0.189602 0.804972 0
M  V30 4082 H 370.133 1.07407 1.31384 0
M  V30 4083 H 368.905 2.21049 3.22883 0
M  V30 4084 H 368.528 0.642564 3.92373 0
M  V30 4085 N 369.525 -1.3858 0.750561 0
M  V30 4086 C 370.765 -2.02032 0.310258 0
M  V30 4087 C 371.129 -1.58288 -1.08668 0
M  V30 4088 O 372.33 -2.14049 -1.62593 0
M  V30 4089 C 370.601 -3.54856 0.425647 0
M  V30 4090 S 372.16 -4.38748 0.0674797 0
M  V30 4091 H 368.978 -0.700705 0.120554 0
M  V30 4092 H 371.58 -1.69134 0.980512 0
M  V30 4093 H 370.284 -3.84182 1.44335 0
M  V30 4094 H 369.815 -3.92527 -0.261894 0
M  V30 4095 H 371.83 -4.82835 -1.14388 0
M  V30 4096 N 371.003 -0.499398 -1.49478 0
M  V30 4097 C 372.414 -0.051215 -1.8663 0
M  V30 4098 C 372.765 1.36238 -1.41186 0
M  V30 4099 O 371.89 2.01502 -0.789051 0
M  V30 4100 C 372.485 -0.0861651 -3.3869 0
M  V30 4101 C 371.044 0.30667 -3.75149 0
M  V30 4102 C 370.191 -0.459397 -2.73468 0
M  V30 4103 H 373.142 -0.712264 -1.41818 0
M  V30 4104 H 373.163 0.709507 -3.73826 0
M  V30 4105 H 372.675 -1.11512 -3.71735 0
M  V30 4106 H 370.776 1.33892 -3.47712 0
M  V30 4107 H 370.889 -0.0116669 -4.79099 0
M  V30 4108 H 369.253 0.0905645 -2.54539 0
M  V30 4109 H 370.036 -1.4884 -3.09357 0
M  V30 4110 N 372.481 1.55866 -0.233164 0
M  V30 4111 C 373.728 1.98603 0.395374 0
M  V30 4112 C 374.056 1.12105 1.58942 0
M  V30 4113 O 373.311 0.168656 1.94972 0
M  V30 4114 C 373.61 3.46856 0.861724 0
M  V30 4115 C 373.276 4.50348 -0.223066 0
M  V30 4116 C 371.938 4.78371 -0.521038 0
M  V30 4117 C 374.29 5.12355 -0.956124 0
M  V30 4118 C 371.618 5.6568 -1.55638 0
M  V30 4119 C 373.97 6.00786 -1.98089 0
M  V30 4120 C 372.634 6.27148 -2.28565 0
M  V30 4121 H 371.904 0.726739 0.144677 0
M  V30 4122 H 374.551 1.88491 -0.338114 0
M  V30 4123 H 372.856 3.5423 1.67418 0
M  V30 4124 H 374.553 3.77302 1.35809 0
M  V30 4125 H 371.143 4.28596 0.0193234 0
M  V30 4126 H 375.327 4.90765 -0.739166 0
M  V30 4127 H 370.583 5.84365 -1.798 0
M  V30 4128 H 374.757 6.4788 -2.55391 0
M  V30 4129 H 372.384 6.94597 -3.08932 0
M  V30 4130 N 373.959 -0.0401083 1.57549 0
M  V30 4131 C 375.208 -0.732108 1.87944 0
M  V30 4132 C 375.521 -1.77107 0.830206 0
M  V30 4133 O 376.727 -2.51488 1.02302 0
M  V30 4134 C 375.183 -1.35315 3.33494 0
M  V30 4135 C 374.791 -0.351105 4.46622 0
M  V30 4136 C 376.535 -2.02566 3.73051 0
M  V30 4137 C 374.442 -0.979859 5.83226 0
M  V30 4138 H 373.372 -0.277188 0.701201 0
M  V30 4139 H 376.023 0.0138501 1.83495 0
M  V30 4140 H 374.405 -2.14844 3.32653 0
M  V30 4141 H 375.579 0.416674 4.58912 0
M  V30 4142 H 373.894 0.218708 4.15825 0
M  V30 4143 H 376.491 -2.50441 4.72423 0
M  V30 4144 H 376.834 -2.83904 3.04474 0
M  V30 4145 H 377.367 -1.29827 3.76018 0
M  V30 4146 H 374.106 -0.206135 6.55176 0
M  V30 4147 H 373.626 -1.71774 5.74677 0
M  V30 4148 H 375.305 -1.49046 6.29599 0
M  V30 4149 N 375.437 -1.54477 -0.31217 0
M  V30 4150 C 376.683 -1.73483 -1.0503 0
M  V30 4151 C 377.016 -0.513125 -1.87298 0
M  V30 4152 O 376.291 0.489864 -1.8823 0
M  V30 4153 C 376.574 -3.01723 -1.96558 0
M  V30 4154 C 376.427 -4.3417 -1.17545 0
M  V30 4155 C 377.746 -3.25772 -2.95907 0
M  V30 4156 H 374.865 -0.631222 -0.380432 0
M  V30 4157 H 377.507 -1.87184 -0.325932 0
M  V30 4158 H 375.657 -2.90174 -2.58324 0
M  V30 4159 H 377.329 -4.5762 -0.581513 0
M  V30 4160 H 375.572 -4.31159 -0.477925 0
M  V30 4161 H 376.243 -5.20143 -1.84811 0
M  V30 4162 H 378.719 -3.36857 -2.44267 0
M  V30 4163 H 377.595 -4.16838 -3.57123 0
M  V30 4164 H 377.856 -2.43537 -3.68974 0
M  V30 4165 N 376.915 0.57481 -1.46744 0
M  V30 4166 C 378.155 1.34369 -1.54027 0
M  V30 4167 C 378.519 1.91051 -0.190642 0
M  V30 4168 O 379.72 2.68444 -0.138255 0
M  V30 4169 C 377.991 2.43706 -2.61423 0
M  V30 4170 S 379.55 3.30915 -2.88167 0
M  V30 4171 H 376.368 0.45768 -0.544105 0
M  V30 4172 H 378.97 0.659959 -1.84024 0
M  V30 4173 H 377.674 2.0047 -3.58106 0
M  V30 4174 H 377.205 3.16842 -2.33184 0
M  V30 4175 H 379.22 4.42742 -2.24039 0
M  V30 4176 N 378.394 1.34581 0.820102 0
M  V30 4177 C 379.327 1.20735 1.93644 0
M  V30 4178 C 380.305 0.0983343 1.62302 0
M  V30 4179 O 381.489 0.263997 1.86642 0
M  V30 4180 C 378.616 0.856037 3.27704 0
M  V30 4181 C 377.662 1.97521 3.78005 0
M  V30 4182 S 378.495 3.58906 3.97425 0
M  V30 4183 C 379.651 3.25822 5.34407 0
M  V30 4184 H 379.884 2.15231 2.05093 0
M  V30 4185 H 377.417 1.1964 0.97599 0
M  V30 4186 H 379.375 0.660133 4.05157 0
M  V30 4187 H 378.036 -0.0706253 3.14021 0
M  V30 4188 H 377.229 1.68321 4.75062 0
M  V30 4189 H 376.831 2.12875 3.07507 0
M  V30 4190 H 379.123 2.77812 6.17922 0
M  V30 4191 H 380.066 4.22029 5.68592 0
M  V30 4192 H 380.474 2.61932 5.00052 0
M  V30 4193 N 379.872 -1.04064 1.18357 0
M  V30 4194 C 381.097 -1.81454 1.00445 0
M  V30 4195 C 381.522 -1.82823 -0.442423 0
M  V30 4196 O 380.88 -1.24555 -1.31741 0
M  V30 4197 C 380.928 -3.24925 1.56384 0
M  V30 4198 O 380.032 -4.04856 0.785209 0
M  V30 4199 H 379.373 -0.560604 0.355835 0
M  V30 4200 H 381.903 -1.31059 1.57114 0
M  V30 4201 H 381.913 -3.75702 1.59097 0
M  V30 4202 H 380.588 -3.23244 2.61699 0
M  V30 4203 H 379.165 -3.63537 0.830399 0
M  V30 4204 N 381.35 -0.985608 -1.22978 0
M  V30 4205 C 382.58 -0.674603 -1.95276 0
M  V30 4206 C 382.988 0.763483 -1.73111 0
M  V30 4207 O 382.331 1.52601 -1.02268 0
M  V30 4208 C 382.393 -0.891597 -3.48268 0
M  V30 4209 C 382.057 -2.31275 -3.94158 0
M  V30 4210 C 383.054 -3.29179 -4.02415 0
M  V30 4211 C 380.739 -2.64524 -4.27004 0
M  V30 4212 C 382.733 -4.58407 -4.42879 0
M  V30 4213 C 380.42 -3.93974 -4.67149 0
M  V30 4214 C 381.418 -4.90727 -4.75053 0
M  V30 4215 O 381.106 -6.17865 -5.14294 0
M  V30 4216 H 380.838 -0.249251 -0.628371 0
M  V30 4217 H 383.392 -1.32106 -1.5728 0
M  V30 4218 H 381.622 -0.187962 -3.86243 0
M  V30 4219 H 383.311 -0.576957 -4.01779 0
M  V30 4220 H 384.077 -3.04823 -3.77237 0
M  V30 4221 H 379.956 -1.89923 -4.2006 0
M  V30 4222 H 383.5 -5.33926 -4.48964 0
M  V30 4223 H 379.397 -4.18122 -4.91777 0
M  V30 4224 H 380.165 -6.21694 -5.32389 0
M  V30 4225 N 382.828 1.3818 -0.7579 0
M  V30 4226 C 383.791 2.28764 -0.141286 0
M  V30 4227 C 384.791 1.47388 0.642907 0
M  V30 4228 O 385.981 1.67781 0.468536 0
M  V30 4229 C 383.113 3.31184 0.808069 0
M  V30 4230 H 384.306 2.848 -0.939633 0
M  V30 4231 H 381.859 1.47212 -0.525191 0
M  V30 4232 H 382.594 2.80247 1.63193 0
M  V30 4233 H 382.379 3.91314 0.248104 0
M  V30 4234 H 383.869 3.98909 1.23536 0
M  V30 4235 N 384.306 0.507319 1.49211 0
M  V30 4236 C 385.553 -0.0349529 2.0247 0
M  V30 4237 C 385.881 -1.36409 1.38647 0
M  V30 4238 O 385.136 -1.88841 0.513566 0
M  V30 4239 C 385.435 -0.229513 3.56662 0
M  V30 4240 C 385.101 1.02241 4.39156 0
M  V30 4241 C 383.763 1.36557 4.61417 0
M  V30 4242 C 386.115 1.85428 4.871 0
M  V30 4243 C 383.443 2.53999 5.28868 0
M  V30 4244 C 385.795 3.02028 5.55843 0
M  V30 4245 C 384.459 3.36717 5.76349 0
M  V30 4246 H 383.729 -0.0127902 0.74089 0
M  V30 4247 H 386.376 0.668756 1.79443 0
M  V30 4248 H 384.681 -1.0158 3.78403 0
M  V30 4249 H 386.378 -0.663641 3.9547 0
M  V30 4250 H 382.968 0.745124 4.22073 0
M  V30 4251 H 387.152 1.6023 4.69723 0
M  V30 4252 H 382.408 2.81105 5.42946 0
M  V30 4253 H 386.582 3.66808 5.91967 0
M  V30 4254 H 384.209 4.27821 6.28389 0
M  V30 4255 N 385.784 -1.5574 0.241426 0
M  V30 4256 C 386.734 -2.17803 -0.674233 0
M  V30 4257 C 387.718 -1.13225 -1.14319 0
M  V30 4258 O 388.91 -1.39153 -1.09387 0
M  V30 4259 C 386.039 -2.87682 -1.87333 0
M  V30 4260 C 385.125 -3.99509 -1.42313 0
M  V30 4261 N 385.516 -5.01115 -0.686798 0
M  V30 4262 C 383.814 -4.11964 -1.70885 0
M  V30 4263 C 384.515 -5.79922 -0.454456 0
M  V30 4264 N 383.491 -5.34001 -1.01705 0
M  V30 4265 H 387.293 -2.93718 -0.103447 0
M  V30 4266 H 384.807 -1.62342 0.0435095 0
M  V30 4267 H 386.804 -3.3057 -2.54026 0
M  V30 4268 H 385.464 -2.13269 -2.4484 0
M  V30 4269 H 386.475 -5.16799 -0.337459 0
M  V30 4270 H 383.152 -3.48718 -2.2957 0
M  V30 4271 H 384.542 -6.71768 0.132992 0
M  V30 4272 N 387.262 0.0317525 -1.57568 0
M  V30 4273 C 388.49 0.734949 -1.93407 0
M  V30 4274 C 388.905 1.69036 -0.84096 0
M  V30 4275 O 388.262 1.81582 0.182836 0
M  V30 4276 C 388.313 1.49432 -3.29169 0
M  V30 4277 O 388.034 0.577261 -4.3428 0
M  V30 4278 C 389.535 2.29492 -3.79273 0
M  V30 4279 H 386.755 0.206706 -0.638368 0
M  V30 4280 H 389.299 -0.00992046 -2.04498 0
M  V30 4281 H 387.454 2.1911 -3.19483 0
M  V30 4282 H 387.868 1.10952 -5.1263 0
M  V30 4283 H 389.342 2.78172 -4.76785 0
M  V30 4284 H 389.819 3.10794 -3.10328 0
M  V30 4285 H 390.425 1.64894 -3.92033 0
M  V30 4286 N 388.74 1.54641 0.303973 0
M  V30 4287 C 390.151 1.64811 0.877163 0
M  V30 4288 C 390.502 0.554838 1.88191 0
M  V30 4289 O 389.627 -0.309033 2.14182 0
M  V30 4290 C 390.222 2.9876 1.59775 0
M  V30 4291 C 388.781 3.11061 2.11938 0
M  V30 4292 C 387.928 2.60479 0.951097 0
M  V30 4293 H 390.879 1.58493 0.0810486 0
M  V30 4294 H 390.9 2.90017 2.46314 0
M  V30 4295 H 390.412 3.7831 0.866226 0
M  V30 4296 H 388.513 2.36225 2.88146 0
M  V30 4297 H 388.626 4.17171 2.35595 0
M  V30 4298 H 386.99 2.16859 1.33583 0
M  V30 4299 H 387.773 3.42504 0.233581 0
M  V30 4300 N 390.218 -0.567019 1.47046 0
M  V30 4301 C 391.495 -1.3276 1.43646 0
M  V30 4302 C 391.875 -2.1071 0.128186 0
M  V30 4303 O 391.223 -2.10441 -0.890326 0
M  V30 4304 C 391.433 -2.2404 2.67595 0
M  V30 4305 C 392.781 -2.85372 3.14401 0
M  V30 4306 O 393.805 -2.34346 2.68254 0
M  V30 4307 O 392.664 -3.78091 3.946 0
M  V30 4308 H 389.758 -0.597293 0.571988 0
M  V30 4309 H 392.304 -0.586735 1.59234 0
M  V30 4310 H 391.076 -1.65975 3.54356 0
M  V30 4311 H 390.699 -3.05439 2.54544 0
M  V30 4312 N 391.696 -1.35014 -0.812953 0
M  V30 4313 C 392.643 -1.27412 -1.92444 0
M  V30 4314 C 393.613 -0.14733 -1.65445 0
M  V30 4315 O 394.798 -0.329974 -1.87925 0
M  V30 4316 C 391.938 -1.04558 -3.28879 0
M  V30 4317 C 391.051 -2.26101 -3.68106 0
M  V30 4318 C 390.186 -1.96449 -4.9354 0
M  V30 4319 C 389.225 -3.14081 -5.25376 0
M  V30 4320 N 388.362 -2.84246 -6.41988 0
M  V30 4321 H 393.202 -2.22463 -1.98278 0
M  V30 4322 H 390.739 -1.10593 -0.969933 0
M  V30 4323 H 392.697 -0.893413 -4.07522 0
M  V30 4324 H 391.327 -0.131719 -3.22531 0
M  V30 4325 H 390.379 -2.52204 -2.84775 0
M  V30 4326 H 391.691 -3.13959 -3.87597 0
M  V30 4327 H 390.845 -1.78026 -5.79993 0
M  V30 4328 H 389.584 -1.05867 -4.76071 0
M  V30 4329 H 388.589 -3.33089 -4.37415 0
M  V30 4330 H 389.814 -4.05455 -5.44778 0
M  V30 4331 H 387.76 -1.96252 -6.25956 0
M  V30 4332 H 387.677 -3.65637 -6.61699 0
M  V30 4333 H 388.945 -2.6935 -7.31485 0
M  V30 4334 N 393.175 1.03435 -1.18907 0
M  V30 4335 C 394.105 2.13503 -0.945448 0
M  V30 4336 C 395.086 1.69682 0.119189 0
M  V30 4337 O 396.271 1.94169 -0.034707 0
M  V30 4338 C 393.401 3.44004 -0.477316 0
M  V30 4339 C 392.355 4.0148 -1.48316 0
M  V30 4340 C 391.681 5.27537 -0.872311 0
M  V30 4341 C 392.981 4.36921 -2.86177 0
M  V30 4342 H 394.675 2.34141 -1.86597 0
M  V30 4343 H 392.221 1.12523 -0.898584 0
M  V30 4344 H 394.174 4.20372 -0.294204 0
M  V30 4345 H 392.898 3.23072 0.478786 0
M  V30 4346 H 391.557 3.27201 -1.65332 0
M  V30 4347 H 391.205 5.02917 0.0911752 0
M  V30 4348 H 390.905 5.66954 -1.54393 0
M  V30 4349 H 392.429 6.06576 -0.699871 0
M  V30 4350 H 393.843 5.04248 -2.72776 0
M  V30 4351 H 392.24 4.87405 -3.50081 0
M  V30 4352 H 393.31 3.46466 -3.39248 0
M  V30 4353 N 394.653 0.992116 1.22453 0
M  V30 4354 C 395.878 0.685644 1.95739 0
M  V30 4355 C 396.303 -0.743 1.72804 0
M  V30 4356 O 395.661 -1.50778 1.00676 0
M  V30 4357 C 395.709 0.996293 3.46564 0
M  V30 4358 O 394.813 0.0945512 4.12292 0
M  V30 4359 H 394.154 0.256694 0.612376 0
M  V30 4360 H 396.684 1.32888 1.5557 0
M  V30 4361 H 396.694 0.93781 3.97076 0
M  V30 4362 H 395.369 2.03733 3.62582 0
M  V30 4363 H 393.946 0.208451 3.72317 0
M  V30 4364 N 396.131 -1.37776 0.765217 0
M  V30 4365 C 397.378 -1.99849 0.326588 0
M  V30 4366 C 397.706 -1.60746 -1.09504 0
M  V30 4367 O 396.961 -0.84202 -1.76659 0
M  V30 4368 C 397.26 -3.5504 0.410053 0
M  V30 4369 C 396.926 -4.13891 1.78899 0
M  V30 4370 C 395.588 -4.29678 2.16635 0
M  V30 4371 C 397.94 -4.46236 2.69301 0
M  V30 4372 C 395.268 -4.7511 3.44221 0
M  V30 4373 C 397.62 -4.93089 3.9629 0
M  V30 4374 C 396.284 -5.07082 4.34078 0
M  V30 4375 H 395.554 -0.7313 0.119507 0
M  V30 4376 H 398.201 -1.64645 0.977968 0
M  V30 4377 H 396.506 -3.90451 -0.324878 0
M  V30 4378 H 398.203 -4.00966 0.0520699 0
M  V30 4379 H 394.793 -4.02026 1.48569 0
M  V30 4380 H 398.977 -4.3363 2.41409 0
M  V30 4381 H 394.233 -4.84129 3.73402 0
M  V30 4382 H 398.407 -5.17084 4.66472 0
M  V30 4383 H 396.034 -5.42046 5.33001 0
M  V30 4384 N 397.609 -0.515225 -1.4894 0
M  V30 4385 C 398.858 0.0261361 -2.01683 0
M  V30 4386 C 399.171 1.36719 -1.39883 0
M  V30 4387 O 400.377 1.99606 -1.84037 0
M  V30 4388 C 398.833 0.0970111 -3.59769 0
M  V30 4389 C 398.441 -1.23825 -4.30548 0
M  V30 4390 C 400.185 0.587981 -4.20408 0
M  V30 4391 C 398.092 -1.12877 -5.80528 0
M  V30 4392 H 397.022 0.0135398 -0.753878 0
M  V30 4393 H 399.673 -0.656787 -1.71343 0
M  V30 4394 H 398.055 0.844694 -3.86886 0
M  V30 4395 H 399.229 -2.00034 -4.15118 0
M  V30 4396 H 397.544 -1.66379 -3.81716 0
M  V30 4397 H 400.141 0.68763 -5.3026 0
M  V30 4398 H 400.484 1.59026 -3.84729 0
M  V30 4399 H 401.017 -0.103582 -3.97665 0
M  V30 4400 H 397.756 -2.10575 -6.20756 0
M  V30 4401 H 397.276 -0.407799 -5.98412 0
M  V30 4402 H 398.955 -0.813332 -6.41868 0
M  V30 4403 N 399.087 1.5561 -0.249682 0
M  V30 4404 C 400.017 2.24477 0.642826 0
M  V30 4405 C 400.998 1.22601 1.17911 0
M  V30 4406 O 402.183 1.5126 1.21795 0
M  V30 4407 C 399.313 2.94638 1.83863 0
M  V30 4408 C 398.267 4.03227 1.435 0
M  V30 4409 C 397.593 4.60828 2.71186 0
M  V30 4410 C 398.893 5.18796 0.604002 0
M  V30 4411 H 400.587 2.99321 0.0685625 0
M  V30 4412 H 398.133 1.43965 0.0315363 0
M  V30 4413 H 400.086 3.41517 2.46868 0
M  V30 4414 H 398.81 2.17287 2.43832 0
M  V30 4415 H 397.469 3.57121 0.828275 0
M  V30 4416 H 397.117 3.80174 3.29358 0
M  V30 4417 H 396.817 5.34132 2.44901 0
M  V30 4418 H 398.341 5.10442 3.35084 0
M  V30 4419 H 399.755 5.61883 1.13842 0
M  V30 4420 H 398.152 5.98506 0.437097 0
M  V30 4421 H 399.222 4.83384 -0.383147 0
M  V30 4422 N 400.565 -0.0233959 1.57583 0
M  V30 4423 C 401.842 -0.748794 1.807 0
M  V30 4424 C 402.222 -1.9327 0.849106 0
M  V30 4425 O 401.57 -2.28247 -0.107468 0
M  V30 4426 C 401.78 -1.17651 3.28571 0
M  V30 4427 C 403.128 -1.59008 3.93702 0
M  V30 4428 O 404.152 -1.27094 3.32755 0
M  V30 4429 O 403.011 -2.18264 5.01022 0
M  V30 4430 H 400.105 -0.362578 0.743281 0
M  V30 4431 H 402.651 0.000261958 1.697 0
M  V30 4432 H 401.423 -0.331603 3.89892 0
M  V30 4433 H 401.046 -1.98541 3.44481 0
M  V30 4434 N 402.043 -1.548 -0.295768 0
M  V30 4435 C 402.973 -1.89115 -1.36959 0
M  V30 4436 C 403.954 -0.75059 -1.52644 0
M  V30 4437 O 405.139 -1.00678 -1.66065 0
M  V30 4438 C 402.269 -2.14307 -2.73295 0
M  V30 4439 C 401.223 -3.30151 -2.72368 0
M  V30 4440 C 400.549 -3.40772 -4.12042 0
M  V30 4441 C 401.849 -4.67126 -2.33646 0
M  V30 4442 H 403.543 -2.79053 -1.08488 0
M  V30 4443 H 401.089 -1.34266 -0.520443 0
M  V30 4444 H 403.042 -2.36898 -3.48507 0
M  V30 4445 H 401.766 -1.21145 -3.03301 0
M  V30 4446 H 400.425 -3.0749 -1.99613 0
M  V30 4447 H 400.073 -2.45117 -4.39234 0
M  V30 4448 H 399.773 -4.18645 -4.12322 0
M  V30 4449 H 401.297 -3.6563 -4.89027 0
M  V30 4450 H 402.711 -4.89414 -2.98575 0
M  V30 4451 H 401.108 -5.47751 -2.45129 0
M  V30 4452 H 402.178 -4.67489 -1.28772 0
M  V30 4453 N 403.521 0.559213 -1.47345 0
M  V30 4454 C 404.454 1.68201 -1.5422 0
M  V30 4455 C 405.432 1.57742 -0.394497 0
M  V30 4456 O 406.616 1.78628 -0.60201 0
M  V30 4457 C 403.743 3.0643 -1.44285 0
M  V30 4458 C 402.789 3.3534 -2.63532 0
M  V30 4459 S 403.622 3.24816 -4.25741 0
M  V30 4460 C 404.778 4.65542 -4.18355 0
M  V30 4461 H 405.011 1.62114 -2.49211 0
M  V30 4462 H 402.544 0.739871 -1.35519 0
M  V30 4463 H 404.502 3.86164 -1.3924 0
M  V30 4464 H 403.163 3.09984 -0.506816 0
M  V30 4465 H 402.356 4.36107 -2.52639 0
M  V30 4466 H 401.958 2.63221 -2.65689 0
M  V30 4467 H 404.25 5.56449 -3.86485 0
M  V30 4468 H 405.193 4.81493 -5.19202 0
M  V30 4469 H 405.601 4.43495 -3.49246 0
M  V30 4470 N 404.999 1.35443 0.805782 0
M  V30 4471 C 405.947 1.28465 1.93906 0
M  V30 4472 C 406.941 0.17943 1.68447 0
M  V30 4473 O 408.147 0.345459 1.76654 0
M  V30 4474 H 404.522 0.399528 0.637088 0
M  V30 4475 H 406.493 2.24206 1.96912 0
M  V30 4476 C 405.242 1.07432 3.30687 0
M  V30 4477 H 404.565 1.91716 3.50835 0
M  V30 4478 H 406.005 1.06591 4.10383 0
M  V30 4479 C 404.464 -0.22179 3.36169 0
M  V30 4480 O 404.994 -1.21731 3.82811 0
M  V30 4481 N 403.2 -0.260841 2.89427 0
M  V30 4482 H 402.747 0.549884 2.51663 0
M  V30 4483 H 402.705 -1.12777 2.93477 0
M  V30 4484 N 406.477 -1.02803 1.19454 0
M  V30 4485 C 407.725 -1.75869 0.995722 0
M  V30 4486 C 408.046 -1.89138 -0.474543 0
M  V30 4487 O 407.316 -1.42558 -1.34366 0
M  V30 4488 H 405.896 -0.651511 0.365435 0
M  V30 4489 H 408.558 -1.24004 1.50363 0
M  V30 4490 H 407.654 -2.76661 1.44447 0
M  V30 4491 N 407.956 -0.998596 -1.21925 0
M  V30 4492 C 409.204 -0.676325 -1.90448 0
M  V30 4493 C 409.525 0.794719 -1.78071 0
M  V30 4494 O 408.795 1.5701 -1.17152 0
M  V30 4495 H 407.375 -0.247165 -0.704925 0
M  V30 4496 H 410.037 -1.26633 -1.48156 0
M  V30 4497 H 409.133 -0.943858 -2.97486 0
M  V30 4498 N 409.434 1.37368 -0.772513 0
M  V30 4499 C 410.711 1.93839 -0.26188 0
M  V30 4500 C 411.091 1.7061 1.24319 0
M  V30 4501 O 410.439 1.05534 2.02669 0
M  V30 4502 C 410.649 3.43154 -0.636102 0
M  V30 4503 C 411.997 4.20249 -0.606324 0
M  V30 4504 O 413.021 3.5152 -0.575538 0
M  V30 4505 O 411.88 5.42809 -0.634086 0
M  V30 4506 H 408.974 0.82478 -0.0605555 0
M  V30 4507 H 411.52 1.4665 -0.853917 0
M  V30 4508 H 410.292 3.53647 -1.6748 0
M  V30 4509 H 409.915 3.97596 -0.0170516 0
M  V30 4510 N 410.912 0.523116 1.48665 0
M  V30 4511 C 411.842 -0.23231 2.32342 0
M  V30 4512 C 412.823 -0.941637 1.41659 0
M  V30 4513 O 414.008 -0.928751 1.70552 0
M  V30 4514 C 411.138 -1.28387 3.22698 0
M  V30 4515 C 410.092 -0.693098 4.22351 0
M  V30 4516 C 409.418 -1.8468 5.01794 0
M  V30 4517 C 410.718 0.33063 5.21252 0
M  V30 4518 H 412.412 0.466192 2.95748 0
M  V30 4519 H 409.958 0.225643 1.42221 0
M  V30 4520 H 411.911 -1.82024 3.80059 0
M  V30 4521 H 410.635 -2.01186 2.57278 0
M  V30 4522 H 409.294 -0.178299 3.66166 0
M  V30 4523 H 408.942 -2.56301 4.32804 0
M  V30 4524 H 408.642 -1.45747 5.69238 0
M  V30 4525 H 410.166 -2.38709 5.62006 0
M  V30 4526 H 411.58 -0.118407 5.73178 0
M  V30 4527 H 409.977 0.636974 5.9671 0
M  V30 4528 H 411.047 1.23883 4.68808 0
M  V30 4529 N 412.39 -1.55475 0.257931 0
M  V30 4530 C 413.34 -2.18506 -0.651094 0
M  V30 4531 C 414.324 -1.14431 -1.13112 0
M  V30 4532 O 415.516 -1.40305 -1.07905 0
M  V30 4533 C 412.645 -2.89653 -1.84272 0
M  V30 4534 C 411.731 -4.00996 -1.38068 0
M  V30 4535 N 412.122 -5.01816 -0.633609 0
M  V30 4536 C 410.42 -4.13753 -1.66506 0
M  V30 4537 C 411.121 -5.80371 -0.392922 0
M  V30 4538 N 410.097 -5.3505 -0.960359 0
M  V30 4539 H 413.899 -2.93811 -0.0722883 0
M  V30 4540 H 411.413 -1.62286 0.0607256 0
M  V30 4541 H 413.41 -3.33245 -2.50506 0
M  V30 4542 H 412.07 -2.15854 -2.42564 0
M  V30 4543 H 413.081 -5.17128 -0.282626 0
M  V30 4544 H 409.758 -3.51133 -2.25858 0
M  V30 4545 H 411.148 -6.7159 0.204235 0
M  V30 4546 N 413.868 0.0150385 -1.57593 0
M  V30 4547 C 415.098 0.713359 -1.93894 0
M  V30 4548 C 415.506 1.68663 -0.857289 0
M  V30 4549 O 414.849 1.82876 0.173788 0
M  V30 4550 C 414.911 1.51348 -3.26089 0
M  V30 4551 C 414.575 0.703451 -4.51554 0
M  V30 4552 C 415.572 -0.00237924 -5.199 0
M  V30 4553 C 413.257 0.653854 -4.98026 0
M  V30 4554 C 415.251 -0.746955 -6.33008 0
M  V30 4555 C 412.938 -0.0944578 -6.11027 0
M  V30 4556 C 413.936 -0.793609 -6.78374 0
M  V30 4557 O 413.624 -1.52974 -7.89211 0
M  V30 4558 H 413.356 0.204637 -0.644282 0
M  V30 4559 H 415.91 -0.0276411 -2.05381 0
M  V30 4560 H 414.14 2.29862 -3.10967 0
M  V30 4561 H 415.829 2.09572 -3.47612 0
M  V30 4562 H 416.595 0.0268803 -4.84993 0
M  V30 4563 H 412.474 1.18756 -4.45441 0
M  V30 4564 H 416.018 -1.2932 -6.85509 0
M  V30 4565 H 411.915 -0.125591 -6.45378 0
M  V30 4566 H 412.683 -1.44488 -8.05646 0
M  V30 4567 N 415.346 1.54954 0.287554 0
M  V30 4568 C 416.296 1.8322 1.357 0
M  V30 4569 C 417.28 0.690152 1.45347 0
M  V30 4570 O 418.472 0.951137 1.49273 0
M  V30 4571 C 415.601 2.09481 2.71979 0
M  V30 4572 C 414.687 3.29906 2.66502 0
M  V30 4573 N 415.078 4.50154 2.30641 0
M  V30 4574 C 413.376 3.32203 2.97585 0
M  V30 4575 C 414.077 5.32209 2.34794 0
M  V30 4576 N 413.053 4.70258 2.72688 0
M  V30 4577 H 416.855 2.73746 1.0696 0
M  V30 4578 H 414.369 1.54635 0.496167 0
M  V30 4579 H 416.366 2.27882 3.49107 0
M  V30 4580 H 415.026 1.2023 3.0162 0
M  V30 4581 H 416.037 4.76515 2.02865 0
M  V30 4582 H 412.714 2.53101 3.32034 0
M  V30 4583 H 414.104 6.38321 2.09753 0
M  V30 4584 N 416.824 -0.551391 1.4764 0
M  V30 4585 C 417.754 -1.66757 1.63445 0
M  V30 4586 C 418.735 -1.63077 0.483742 0
M  V30 4587 O 419.92 -1.80607 0.71377 0
M  V30 4588 C 417.05 -3.05387 1.65396 0
M  V30 4589 C 416.004 -3.23918 2.79752 0
M  V30 4590 C 415.33 -4.63393 2.66779 0
M  V30 4591 C 416.63 -3.08735 4.21284 0
M  V30 4592 H 418.324 -1.53786 2.56886 0
M  V30 4593 H 415.87 -0.738415 1.23626 0
M  V30 4594 H 417.823 -3.83325 1.75043 0
M  V30 4595 H 416.547 -3.19332 0.685195 0
M  V30 4596 H 415.206 -2.48391 2.69625 0
M  V30 4597 H 414.854 -4.74144 1.67918 0
M  V30 4598 H 414.554 -4.7674 3.43501 0
M  V30 4599 H 416.078 -5.43458 2.78364 0
M  V30 4600 H 417.492 -3.76484 4.32357 0
M  V30 4601 H 415.889 -3.33588 4.98838 0
M  V30 4602 H 416.959 -2.0541 4.39243 0
M  V30 4603 N 418.302 -1.35869 -0.798587 0
M  V30 4604 C 419.527 -1.32883 -1.59238 0
M  V30 4605 C 419.952 0.0894587 -1.87887 0
M  V30 4606 O 419.31 1.05869 -1.47178 0
M  V30 4607 C 419.358 -2.14892 -2.89575 0
M  V30 4608 O 418.462 -1.53512 -3.82763 0
M  V30 4609 H 417.803 -0.455236 -0.48338 0
M  V30 4610 H 420.333 -1.79024 -0.990539 0
M  V30 4611 H 420.343 -2.27139 -3.38928 0
M  V30 4612 H 419.018 -3.17998 -2.68049 0
M  V30 4613 H 417.595 -1.50153 -3.41334 0
M  V30 4614 N 419.78 1.02168 -1.19998 0
M  V30 4615 C 420.712 2.10705 -0.901994 0
M  V30 4616 C 421.725 1.6244 0.108216 0
M  V30 4617 O 422.914 1.78082 -0.12214 0
M  V30 4618 C 420.014 3.37291 -0.329834 0
M  V30 4619 C 419.187 4.14714 -1.39035 0
M  V30 4620 C 418.246 5.19606 -0.830432 0
M  V30 4621 O 417.272 5.48809 -1.50989 0
M  V30 4622 N 418.474 5.79366 0.362696 0
M  V30 4623 H 421.239 2.36856 -1.83628 0
M  V30 4624 H 418.8 1.18518 -1.10296 0
M  V30 4625 H 420.792 4.04657 0.0587633 0
M  V30 4626 H 419.362 3.0843 0.508891 0
M  V30 4627 H 418.582 3.42392 -1.9535 0
M  V30 4628 H 419.87 4.63226 -2.10474 0
M  V30 4629 H 419.268 5.57968 0.932081 0
M  V30 4630 H 417.825 6.48106 0.69299 0
M  V30 4631 N 421.258 1.00505 1.21394 0
M  V30 4632 C 422.208 0.536503 2.21598 0
M  V30 4633 C 423.192 -0.401914 1.55799 0
M  V30 4634 O 424.384 -0.226757 1.75541 0
M  V30 4635 C 421.513 -0.135446 3.43033 0
M  V30 4636 C 420.599 0.823992 4.16018 0
M  V30 4637 N 420.99 1.97683 4.6557 0
M  V30 4638 C 419.288 0.642387 4.4135 0
M  V30 4639 C 419.989 2.58003 5.21354 0
M  V30 4640 N 418.965 1.86162 5.1073 0
M  V30 4641 H 422.767 1.41557 2.57563 0
M  V30 4642 H 420.281 0.868878 1.37202 0
M  V30 4643 H 422.278 -0.488584 4.14027 0
M  V30 4644 H 420.938 -1.01049 3.08576 0
M  V30 4645 H 421.949 2.3572 4.61147 0
M  V30 4646 H 418.626 -0.185578 4.17087 0
M  V30 4647 H 420.016 3.555 5.70149 0
M  V30 4648 N 422.737 -1.36956 0.779787 0
M  V30 4649 C 423.985 -1.99097 0.347079 0
M  V30 4650 C 424.306 -1.62206 -1.08232 0
M  V30 4651 O 423.576 -0.891373 -1.74446 0
M  V30 4652 H 422.156 -0.736409 0.125342 0
M  V30 4653 H 424.818 -1.67308 0.999696 0
M  V30 4654 H 423.914 -3.09107 0.431162 0
M  V30 4655 N 424.215 -0.530993 -1.48385 0
M  V30 4656 C 425.461 0.00274135 -2.028 0
M  V30 4657 C 425.794 1.33838 -1.40716 0
M  V30 4658 O 425.069 1.86465 -0.553277 0
M  V30 4659 C 425.352 0.123676 -3.59888 0
M  V30 4660 C 425.205 -1.2372 -4.3245 0
M  V30 4661 C 426.524 0.849967 -4.31814 0
M  V30 4662 H 423.643 -0.000477758 -0.737 0
M  V30 4663 H 426.285 -0.688217 -1.77098 0
M  V30 4664 H 424.435 0.712157 -3.81917 0
M  V30 4665 H 426.107 -1.86687 -4.21836 0
M  V30 4666 H 424.35 -1.81882 -3.93829 0
M  V30 4667 H 425.021 -1.10557 -5.40815 0
M  V30 4668 H 427.497 0.350572 -4.14621 0
M  V30 4669 H 426.373 0.903486 -5.41413 0
M  V30 4670 H 426.634 1.90047 -3.99167 0
M  V30 4671 N 425.693 1.55336 -0.266172 0
M  V30 4672 C 426.94 1.99397 0.353158 0
M  V30 4673 C 427.268 1.15451 1.56529 0
M  V30 4674 O 426.523 0.209974 1.9457 0
M  V30 4675 C 426.822 3.48606 0.787957 0
M  V30 4676 C 426.488 4.49773 -0.318541 0
M  V30 4677 C 425.15 4.77158 -0.62239 0
M  V30 4678 C 427.502 5.10212 -1.06459 0
M  V30 4679 C 424.83 5.62251 -1.67602 0
M  V30 4680 C 427.182 5.96449 -2.10788 0
M  V30 4681 C 425.846 6.22158 -2.41817 0
M  V30 4682 H 425.116 0.729644 0.12923 0
M  V30 4683 H 427.763 1.87732 -0.37802 0
M  V30 4684 H 426.068 3.57701 1.59866 0
M  V30 4685 H 427.765 3.80098 1.27775 0
M  V30 4686 H 424.355 4.2854 -0.0715925 0
M  V30 4687 H 428.539 4.89086 -0.843098 0
M  V30 4688 H 423.795 5.80419 -1.92155 0
M  V30 4689 H 427.969 6.42317 -2.69076 0
M  V30 4690 H 425.596 6.87888 -3.23596 0
M  V30 4691 N 427.171 -0.0066808 1.57599 0
M  V30 4692 C 428.396 -0.707738 1.94951 0
M  V30 4693 C 428.821 -1.66882 0.867868 0
M  V30 4694 O 428.179 -1.80457 -0.17458 0
M  V30 4695 C 428.227 -1.42162 3.31394 0
M  V30 4696 O 427.331 -2.53578 3.25226 0
M  V30 4697 H 426.672 -0.188752 0.636607 0
M  V30 4698 H 429.202 0.0445193 2.04552 0
M  V30 4699 H 429.212 -1.78655 3.66806 0
M  V30 4700 H 427.887 -0.716903 4.09675 0
M  V30 4701 H 426.464 -2.19463 3.01481 0
M  V30 4702 N 428.649 -1.55105 -0.279332 0
M  V30 4703 C 429.559 -1.90638 -1.36727 0
M  V30 4704 C 430.575 -0.802899 -1.54368 0
M  V30 4705 O 431.751 -1.10138 -1.68616 0
M  V30 4706 C 428.816 -2.16547 -2.70755 0
M  V30 4707 C 427.877 -3.40146 -2.61915 0
M  V30 4708 C 427.11 -3.6481 -3.8955 0
M  V30 4709 O 427.333 -2.92095 -4.89935 0
M  V30 4710 O 426.267 -4.58343 -3.90135 0
M  V30 4711 H 430.093 -2.83237 -1.09591 0
M  V30 4712 H 427.678 -1.4157 -0.477306 0
M  V30 4713 H 429.56 -2.34665 -3.50014 0
M  V30 4714 H 428.235 -1.27131 -2.9769 0
M  V30 4715 H 427.142 -3.2737 -1.81052 0
M  V30 4716 H 428.475 -4.29761 -2.3993 0
M  V30 4717 N 430.127 0.543554 -1.4793 0
M  V30 4718 C 431.09 1.63156 -1.60975 0
M  V30 4719 C 432.09 1.53346 -0.483899 0
M  V30 4720 O 433.28 1.5726 -0.749339 0
M  V30 4721 C 430.412 3.02743 -1.56716 0
M  V30 4722 H 431.605 1.52934 -2.57975 0
M  V30 4723 H 429.158 0.764557 -1.36324 0
M  V30 4724 H 429.893 3.18484 -0.611418 0
M  V30 4725 H 429.678 3.11272 -2.38438 0
M  V30 4726 H 431.168 3.81871 -1.6901 0
M  V30 4727 N 431.605 1.3629 0.791371 0
M  V30 4728 C 432.882 1.20962 1.53712 0
M  V30 4729 C 433.262 -0.205021 2.10102 0
M  V30 4730 O 432.61 -1.21042 1.93807 0
M  V30 4731 C 432.82 2.29002 2.63361 0
M  V30 4732 C 434.168 2.65572 3.31295 0
M  V30 4733 O 435.192 2.2803 2.73643 0
M  V30 4734 O 434.051 3.3018 4.35481 0
M  V30 4735 H 431.145 0.47086 0.679867 0
M  V30 4736 H 433.691 1.48016 0.830021 0
M  V30 4737 H 432.463 3.2382 2.19674 0
M  V30 4738 H 432.086 2.03303 3.41692 0
M  V30 4739 N 433.083 -1.0153 1.20538 0
M  V30 4740 C 434.016 -2.09759 0.898695 0
M  V30 4741 C 434.994 -1.61909 -0.149733 0
M  V30 4742 O 436.178 -1.88486 -0.0230293 0
M  V30 4743 C 433.305 -3.36913 0.347512 0
M  V30 4744 C 432.351 -4.03655 1.37713 0
M  V30 4745 S 433.184 -4.47402 2.94265 0
M  V30 4746 C 434.34 -5.77756 2.40726 0
M  V30 4747 H 434.573 -2.3545 1.81523 0
M  V30 4748 H 432.106 -1.14665 1.03399 0
M  V30 4749 H 434.064 -4.10484 0.0360518 0
M  V30 4750 H 432.725 -3.09291 -0.547546 0
M  V30 4751 H 431.918 -4.9514 0.940872 0
M  V30 4752 H 431.52 -3.36313 1.63614 0
M  V30 4753 H 433.812 -6.52994 1.80569 0
M  V30 4754 H 434.755 -6.2618 3.30612 0
M  V30 4755 H 435.163 -5.34081 1.82806 0
M  V30 4756 N 434.561 -1.01147 -1.20859 0
M  V30 4757 C 435.977 -0.725422 -1.42161 0
M  V30 4758 C 436.177 0.696919 -1.89064 0
M  V30 4759 O 435.233 1.46539 -2.05627 0
M  V30 4760 C 436.546 -1.74678 -2.44761 0
M  V30 4761 C 438.094 -1.76433 -2.58535 0
M  V30 4762 C 438.569 -2.77481 -3.64374 0
M  V30 4763 N 440.06 -2.76189 -3.71852 0
M  V30 4764 C 440.795 -3.51035 -4.53389 0
M  V30 4765 N 440.291 -4.35541 -5.38773 0
M  V30 4766 N 442.084 -3.39655 -4.47873 0
M  V30 4767 H 434.235 -1.92979 -0.887282 0
M  V30 4768 H 436.498 -0.833327 -0.451962 0
M  V30 4769 H 436.204 -2.76551 -2.17285 0
M  V30 4770 H 436.078 -1.55472 -3.43669 0
M  V30 4771 H 438.465 -0.75248 -2.85345 0
M  V30 4772 H 438.546 -1.99712 -1.5984 0
M  V30 4773 H 438.19 -3.78827 -3.38308 0
M  V30 4774 H 438.12 -2.51466 -4.6268 0
M  V30 4775 H 440.611 -2.14885 -3.10858 0
M  V30 4776 H 440.924 -4.89432 -5.98061 0
M  V30 4777 H 439.269 -4.39621 -5.38292 0
M  V30 4778 H 442.46 -2.73063 -3.80203 0
M  V30 4779 H 442.633 -3.9824 -5.11184 0
M  V30 4780 N 436.039 1.36541 -0.78704 0
M  V30 4781 C 437.286 1.99304 -0.358341 0
M  V30 4782 C 437.614 1.62467 1.06933 0
M  V30 4783 O 436.869 0.870019 1.75297 0
M  V30 4784 C 437.168 3.54343 -0.466485 0
M  V30 4785 C 436.834 4.10993 -1.85461 0
M  V30 4786 C 435.496 4.26177 -2.23443 0
M  V30 4787 C 437.848 4.41895 -2.76366 0
M  V30 4788 C 435.176 4.69573 -3.51736 0
M  V30 4789 C 437.528 4.86722 -4.04084 0
M  V30 4790 C 436.192 5.00112 -4.42091 0
M  V30 4791 H 435.462 0.729306 -0.131126 0
M  V30 4792 H 438.109 1.63068 -1.00404 0
M  V30 4793 H 436.414 3.90918 0.262719 0
M  V30 4794 H 438.111 4.00833 -0.115854 0
M  V30 4795 H 434.701 3.99612 -1.54946 0
M  V30 4796 H 438.885 4.29735 -2.48277 0
M  V30 4797 H 434.141 4.78127 -3.81057 0
M  V30 4798 H 438.315 5.09598 -4.7464 0
M  V30 4799 H 435.942 5.33498 -5.41557 0
M  V30 4800 N 437.518 0.538854 1.48102 0
M  V30 4801 C 438.748 0.0122958 2.06596 0
M  V30 4802 C 439.156 -1.27861 1.39457 0
M  V30 4803 O 438.499 -1.77348 0.478907 0
M  V30 4804 C 438.561 -0.273131 3.58461 0
M  V30 4805 C 438.225 0.92561 4.47528 0
M  V30 4806 C 439.222 1.82637 4.86765 0
M  V30 4807 C 436.907 1.13511 4.89306 0
M  V30 4808 C 438.901 2.92047 5.66558 0
M  V30 4809 C 436.588 2.23233 5.68868 0
M  V30 4810 C 437.586 3.12333 6.07402 0
M  V30 4811 O 437.274 4.20155 6.85365 0
M  V30 4812 H 437.006 0.0344283 0.675123 0
M  V30 4813 H 439.56 0.746494 1.91355 0
M  V30 4814 H 437.79 -1.06141 3.71848 0
M  V30 4815 H 439.479 -0.742842 3.99045 0
M  V30 4816 H 440.245 1.67649 4.55103 0
M  V30 4817 H 436.124 0.450835 4.5879 0
M  V30 4818 H 439.668 3.6162 5.96554 0
M  V30 4819 H 435.565 2.38201 5.99942 0
M  V30 4820 H 436.333 4.17975 7.03732 0
M  V30 4821 N 438.996 -1.55193 0.274407 0
M  V30 4822 C 439.959 -2.212 -0.600279 0
M  V30 4823 C 440.959 -1.18963 -1.08187 0
M  V30 4824 O 442.149 -1.43873 -0.982158 0
M  V30 4825 C 439.281 -2.87739 -1.82809 0
M  V30 4826 H 440.474 -2.9989 -0.0239682 0
M  V30 4827 H 438.027 -1.5628 0.0250192 0
M  V30 4828 H 438.762 -2.13058 -2.44493 0
M  V30 4829 H 438.547 -3.62658 -1.49069 0
M  V30 4830 H 440.037 -3.38171 -2.45011 0
M  V30 4831 N 440.474 -0.00167713 -1.576 0
M  V30 4832 C 441.437 0.974046 -2.07473 0
M  V30 4833 C 442.437 1.27143 -0.984444 0
M  V30 4834 O 443.627 1.21633 -1.24703 0
M  V30 4835 C 440.759 2.29849 -2.51759 0
M  V30 4836 H 441.952 0.54262 -2.9495 0
M  V30 4837 H 439.505 0.245829 -1.54355 0
M  V30 4838 H 440.24 2.77677 -1.67529 0
M  V30 4839 H 440.025 2.09584 -3.31386 0
M  V30 4840 H 441.515 2.9984 -2.90664 0
M  V30 4841 N 441.952 1.55251 0.271103 0
M  V30 4842 C 442.862 1.9136 1.35714 0
M  V30 4843 C 443.878 0.811075 1.5394 0
M  V30 4844 O 445.054 1.11031 1.6803 0
M  V30 4845 C 442.119 2.1798 2.69603 0
M  V30 4846 C 441.18 3.4153 2.60107 0
M  V30 4847 C 440.413 3.66871 3.8761 0
M  V30 4848 O 440.636 2.94689 4.8838 0
M  V30 4849 O 439.57 4.60405 3.87699 0
M  V30 4850 H 443.396 2.83815 1.08088 0
M  V30 4851 H 440.981 1.41821 0.469792 0
M  V30 4852 H 442.863 2.36518 3.48765 0
M  V30 4853 H 441.538 1.28708 2.97012 0
M  V30 4854 H 440.445 3.28325 1.79314 0
M  V30 4855 H 441.778 4.31027 2.37647 0
M  V30 4856 N 443.43 -0.535701 1.48216 0
M  V30 4857 C 444.679 -1.28828 1.55197 0
M  V30 4858 C 444.992 -1.94263 0.228278 0
M  V30 4859 O 446.198 -2.70927 0.176278 0
M  V30 4860 C 444.654 -2.33727 2.73678 0
M  V30 4861 C 444.262 -1.74386 4.12666 0
M  V30 4862 C 446.006 -3.1003 2.89968 0
M  V30 4863 C 443.913 -2.77192 5.22416 0
M  V30 4864 H 442.843 -0.484484 0.577747 0
M  V30 4865 H 445.494 -0.56646 1.74538 0
M  V30 4866 H 443.876 -3.08919 2.4776 0
M  V30 4867 H 445.05 -1.05421 4.48579 0
M  V30 4868 H 443.365 -1.10595 4.01445 0
M  V30 4869 H 445.962 -3.86842 3.6913 0
M  V30 4870 H 446.305 -3.65542 1.9921 0
M  V30 4871 H 446.838 -2.41952 3.15759 0
M  V30 4872 H 443.577 -2.26507 6.15122 0
M  V30 4873 H 443.097 -3.44502 4.90998 0
M  V30 4874 H 444.776 -3.40285 5.50286 0
M  V30 4875 N 444.908 -1.36708 -0.784132 0
M  V30 4876 C 446.157 -1.30559 -1.53744 0
M  V30 4877 C 446.47 0.111374 -1.95283 0
M  V30 4878 O 447.676 0.29527 -2.6989 0
M  V30 4879 C 446.132 -2.29098 -2.77565 0
M  V30 4880 C 445.74 -3.76258 -2.43174 0
M  V30 4881 C 447.484 -2.31936 -3.55536 0
M  V30 4882 C 445.391 -4.6656 -3.63422 0
M  V30 4883 H 444.321 -0.48518 -0.577162 0
M  V30 4884 H 446.972 -1.62101 -0.859981 0
M  V30 4885 H 445.354 -1.90557 -3.47137 0
M  V30 4886 H 446.528 -4.23565 -1.81465 0
M  V30 4887 H 444.843 -3.76246 -1.78403 0
M  V30 4888 H 447.44 -2.9661 -4.44889 0
M  V30 4889 H 447.783 -1.3294 -3.94503 0
M  V30 4890 H 448.316 -2.6912 -2.92949 0
M  V30 4891 H 445.055 -5.66638 -3.29547 0
M  V30 4892 H 444.575 -4.23966 -4.24279 0
M  V30 4893 H 446.254 -4.8309 -4.30387 0
M  V30 4894 N 446.386 1.0089 -1.21074 0
M  V30 4895 C 447.316 2.1145 -0.990523 0
M  V30 4896 C 448.297 1.69897 0.0831699 0
M  V30 4897 O 449.482 1.94052 -0.0758853 0
M  V30 4898 C 446.612 3.42914 -0.550177 0
M  V30 4899 C 445.566 3.98244 -1.56799 0
M  V30 4900 C 444.892 5.25568 -0.984013 0
M  V30 4901 C 446.192 4.30752 -2.95381 0
M  V30 4902 H 447.886 2.3013 -1.91521 0
M  V30 4903 H 445.432 1.10592 -0.92225 0
M  V30 4904 H 447.385 4.19653 -0.383305 0
M  V30 4905 H 446.109 3.24014 0.41015 0
M  V30 4906 H 444.768 3.23621 -1.72236 0
M  V30 4907 H 444.416 5.02998 -0.0155216 0
M  V30 4908 H 444.116 5.63551 -1.66384 0
M  V30 4909 H 445.64 6.04955 -0.828378 0
M  V30 4910 H 447.054 4.98349 -2.8341 0
M  V30 4911 H 445.451 4.79869 -3.60341 0
M  V30 4912 H 446.521 3.39192 -3.46521 0
M  V30 4913 N 447.864 1.01787 1.20321 0
M  V30 4914 C 449.112 0.706538 1.89347 0
M  V30 4915 C 449.433 -0.766289 1.79313 0
M  V30 4916 O 448.703 -1.55126 1.19635 0
M  V30 4917 H 447.283 0.258348 0.700903 0
M  V30 4918 H 449.945 1.28974 1.46122 0
M  V30 4919 H 449.041 0.991066 2.95946 0
M  V30 4920 N 449.342 -1.36122 0.79427 0
M  V30 4921 C 450.272 -2.32551 0.210328 0
M  V30 4922 C 451.253 -1.56884 -0.657386 0
M  V30 4923 O 452.438 -1.85014 -0.590207 0
M  V30 4924 C 449.568 -3.41128 -0.651819 0
M  V30 4925 C 448.522 -4.27842 0.116395 0
M  V30 4926 C 447.848 -5.2763 -0.86666 0
M  V30 4927 C 449.148 -5.05647 1.30837 0
M  V30 4928 H 450.842 -2.81636 1.01594 0
M  V30 4929 H 448.388 -1.35407 0.489981 0
M  V30 4930 H 450.341 -4.07581 -1.07031 0
M  V30 4931 H 449.065 -2.90622 -1.49019 0
M  V30 4932 H 447.724 -3.62952 0.515915 0
M  V30 4933 H 447.372 -4.73395 -1.70019 0
M  V30 4934 H 447.072 -5.86514 -0.35705 0
M  V30 4935 H 448.596 -5.96955 -1.28361 0
M  V30 4936 H 450.01 -5.65113 0.965393 0
M  V30 4937 H 448.407 -5.73967 1.75161 0
M  V30 4938 H 449.477 -4.37006 2.10128 0
M  V30 4939 N 450.82 -0.546701 -1.47814 0
M  V30 4940 C 451.73 0.21026 -2.33656 0
M  V30 4941 C 452.746 0.922413 -1.47538 0
M  V30 4942 O 453.922 0.893652 -1.80488 0
M  V30 4943 C 450.987 1.23348 -3.24016 0
M  V30 4944 C 450.048 0.529883 -4.26017 0
M  V30 4945 C 449.281 1.50435 -5.12059 0
M  V30 4946 O 449.504 2.73837 -5.00369 0
M  V30 4947 O 448.438 1.03459 -5.92942 0
M  V30 4948 H 452.264 -0.493605 -2.99662 0
M  V30 4949 H 449.849 -0.307427 -1.46203 0
M  V30 4950 H 451.731 1.82438 -3.79861 0
M  V30 4951 H 450.406 1.91945 -2.60651 0
M  V30 4952 H 449.313 -0.101948 -3.73961 0
M  V30 4953 H 450.646 -0.11445 -4.92067 0
M  V30 4954 N 452.299 1.55045 -0.282633 0
M  V30 4955 C 453.249 2.19514 0.616249 0
M  V30 4956 C 454.233 1.16216 1.11277 0
M  V30 4957 O 455.425 1.42004 1.05659 0
M  V30 4958 C 452.554 2.92548 1.7964 0
M  V30 4959 C 451.64 4.03142 1.31671 0
M  V30 4960 N 452.031 5.0276 0.553695 0
M  V30 4961 C 450.329 4.1635 1.59903 0
M  V30 4962 C 451.03 5.80923 0.30054 0
M  V30 4963 N 450.006 5.3651 0.875116 0
M  V30 4964 H 453.808 2.93889 0.0255363 0
M  V30 4965 H 451.322 1.62169 -0.0865362 0
M  V30 4966 H 453.319 3.37188 2.45173 0
M  V30 4967 H 451.979 2.19685 2.39099 0
M  V30 4968 H 452.99 5.17512 0.20032 0
M  V30 4969 H 449.667 3.54682 2.20243 0
M  V30 4970 H 451.057 6.7118 -0.311053 0
M  V30 4971 N 453.777 0.010035 1.57597 0
M  V30 4972 C 454.71 -1.01234 2.04516 0
M  V30 4973 C 455.688 -1.32886 0.937024 0
M  V30 4974 O 456.872 -1.44879 1.20592 0
M  V30 4975 C 453.999 -2.33738 2.45121 0
M  V30 4976 C 453.045 -2.17679 3.66767 0
M  V30 4977 S 453.878 -1.49343 5.14254 0
M  V30 4978 C 455.034 -2.83256 5.58137 0
M  V30 4979 H 455.267 -0.612866 2.90914 0
M  V30 4980 H 452.8 -0.201124 1.53084 0
M  V30 4981 H 454.758 -3.09922 2.69182 0
M  V30 4982 H 453.419 -2.70823 1.59103 0
M  V30 4983 H 452.612 -3.1559 3.92962 0
M  V30 4984 H 452.214 -1.4964 3.42759 0
M  V30 4985 H 454.506 -3.79538 5.6121 0
M  V30 4986 H 455.449 -2.61749 6.57946 0
M  V30 4987 H 455.857 -2.87627 4.85727 0
M  V30 4988 N 455.255 -1.55392 -0.262866 0
M  V30 4989 C 456.205 -1.85355 -1.32768 0
M  V30 4990 C 457.189 -0.713188 -1.44231 0
M  V30 4991 O 458.381 -0.974765 -1.47741 0
M  V30 4992 C 455.51 -2.13781 -2.68612 0
M  V30 4993 C 454.596 -3.34104 -2.61219 0
M  V30 4994 N 454.987 -4.53766 -2.2345 0
M  V30 4995 C 453.285 -3.36895 -2.92263 0
M  V30 4996 C 453.986 -5.35877 -2.26298 0
M  V30 4997 N 452.962 -4.74536 -2.65172 0
M  V30 4998 H 456.764 -2.75413 -1.02591 0
M  V30 4999 H 454.278 -1.55405 -0.471503 0
M  V30 5000 H 456.275 -2.33407 -3.45437 0
M  V30 5001 H 454.935 -1.25013 -2.99669 0
M  V30 5002 H 455.946 -4.79682 -1.95258 0
M  V30 5003 H 452.623 -2.58351 -3.27965 0
M  V30 5004 H 454.013 -6.41577 -1.99572 0
M  V30 5005 N 456.733 0.527833 -1.48498 0
M  V30 5006 C 457.681 1.65313 -1.63628 0
M  V30 5007 C 458.675 1.6177 -0.502676 0
M  V30 5008 O 459.881 1.66601 -0.681469 0
M  V30 5009 H 456.256 0.547518 -0.515488 0
M  V30 5010 H 458.227 1.49696 -2.58135 0
M  V30 5011 C 456.976 3.03576 -1.6952 0
M  V30 5012 H 456.299 3.06997 -2.56111 0
M  V30 5013 H 457.739 3.81923 -1.84149 0
M  V30 5014 C 456.198 3.34089 -0.43432 0
M  V30 5015 O 456.728 3.99151 0.451852 0
M  V30 5016 N 454.934 2.88991 -0.305368 0
M  V30 5017 H 454.481 2.36222 -1.02747 0
M  V30 5018 H 454.439 3.09776 0.537249 0
M  V30 5019 N 458.211 1.37122 0.776871 0
M  V30 5020 C 459.627 1.1781 1.07671 0
M  V30 5021 C 459.827 0.0107454 2.01497 0
M  V30 5022 O 458.883 -0.650756 2.4397 0
M  V30 5023 C 460.196 2.49451 1.67913 0
M  V30 5024 C 461.744 2.55927 1.80195 0
M  V30 5025 C 462.219 3.87686 2.43851 0
M  V30 5026 N 463.71 3.891 2.51307 0
M  V30 5027 C 464.445 4.87797 3.014 0
M  V30 5028 N 463.941 5.96888 3.51705 0
M  V30 5029 N 465.734 4.75205 3.00227 0
M  V30 5030 H 457.885 2.11843 0.153778 0
M  V30 5031 H 460.148 0.938927 0.130844 0
M  V30 5032 H 459.854 3.35207 1.06439 0
M  V30 5033 H 459.728 2.66169 2.67271 0
M  V30 5034 H 462.115 1.70582 2.40803 0
M  V30 5035 H 462.196 2.43097 0.796069 0
M  V30 5036 H 461.84 4.73444 1.83884 0
M  V30 5037 H 461.77 3.97817 3.45035 0
M  V30 5038 H 464.261 3.10293 2.157 0
M  V30 5039 H 464.574 6.68155 3.88316 0
M  V30 5040 H 462.919 6.0054 3.49824 0
M  V30 5041 H 466.11 3.89103 2.60224 0
M  V30 5042 H 466.283 5.52279 3.38957 0
M  V30 5043 N 459.689 -1.00246 1.21608 0
M  V30 5044 C 460.936 -1.74061 1.03485 0
M  V30 5045 C 461.264 -1.89658 -0.431308 0
M  V30 5046 O 460.519 -1.42976 -1.33627 0
M  V30 5047 C 460.818 -3.15448 1.68009 0
M  V30 5048 C 460.484 -3.19792 3.17874 0
M  V30 5049 C 459.146 -3.20685 3.58768 0
M  V30 5050 C 461.498 -3.16835 4.13842 0
M  V30 5051 C 458.826 -3.16309 4.94131 0
M  V30 5052 C 461.178 -3.14001 5.49169 0
M  V30 5053 C 459.842 -3.13204 5.89457 0
M  V30 5054 H 459.112 -0.636934 0.378677 0
M  V30 5055 H 461.759 -1.17473 1.51236 0
M  V30 5056 H 460.064 -3.75284 1.12557 0
M  V30 5057 H 461.761 -3.71285 1.51487 0
M  V30 5058 H 458.351 -3.19842 2.85305 0
M  V30 5059 H 462.535 -3.15303 3.83272 0
M  V30 5060 H 457.791 -3.14032 5.24589 0
M  V30 5061 H 461.965 -3.10667 6.23265 0
M  V30 5062 H 459.592 -3.09568 6.94314 0
M  V30 5063 N 461.167 -1.02423 -1.1978 0
M  V30 5064 C 462.413 -0.719051 -1.89625 0
M  V30 5065 C 462.746 0.750083 -1.7913 0
M  V30 5066 O 462.021 1.54574 -1.18056 0
M  V30 5067 C 462.304 -1.16499 -3.40735 0
M  V30 5068 C 462.157 -2.695 -3.60125 0
M  V30 5069 C 463.476 -0.742166 -4.33797 0
M  V30 5070 H 460.595 -0.26269 -0.688595 0
M  V30 5071 H 463.237 -1.27333 -1.41018 0
M  V30 5072 H 461.387 -0.69341 -3.82262 0
M  V30 5073 H 463.059 -3.24569 -3.278 0
M  V30 5074 H 461.302 -3.10113 -3.03336 0
M  V30 5075 H 461.973 -2.95757 -4.66081 0
M  V30 5076 H 464.449 -1.1477 -3.99959 0
M  V30 5077 H 463.325 -1.08213 -5.38127 0
M  V30 5078 H 463.586 0.355747 -4.40666 0
M  V30 5079 N 462.645 1.35699 -0.801477 0
M  V30 5080 C 463.891 1.99208 -0.380022 0
M  V30 5081 C 464.224 1.63445 1.04878 0
M  V30 5082 O 463.499 0.895223 1.72673 0
M  V30 5083 C 463.782 3.55755 -0.557708 0
M  V30 5084 C 463.635 4.01332 -2.03107 0
M  V30 5085 C 464.954 4.40096 0.0197968 0
M  V30 5086 H 462.073 0.723667 -0.139552 0
M  V30 5087 H 464.715 1.60928 -1.01006 0
M  V30 5088 H 462.865 3.88494 -0.0213741 0
M  V30 5089 H 464.537 3.79026 -2.62939 0
M  V30 5090 H 462.78 3.52429 -2.52936 0
M  V30 5091 H 463.451 5.10234 -2.1063 0
M  V30 5092 H 465.927 4.13786 -0.438179 0
M  V30 5093 H 464.803 5.48735 -0.134477 0
M  V30 5094 H 465.064 4.2786 1.11303 0
M  V30 5095 N 464.123 0.554532 1.47522 0
M  V30 5096 C 465.353 0.0342074 2.06572 0
M  V30 5097 C 465.761 -1.26375 1.40805 0
M  V30 5098 O 465.104 -1.7683 0.49769 0
M  V30 5099 C 465.166 -0.235096 3.5873 0
M  V30 5100 C 464.83 0.973024 4.46521 0
M  V30 5101 C 465.827 1.8779 4.848 0
M  V30 5102 C 463.512 1.18694 4.88075 0
M  V30 5103 C 465.506 2.98039 5.63428 0
M  V30 5104 C 463.193 2.29254 5.66468 0
M  V30 5105 C 464.191 3.18757 6.04055 0
M  V30 5106 O 463.879 4.27401 6.8087 0
M  V30 5107 H 463.611 0.041587 0.67472 0
M  V30 5108 H 466.165 0.766748 1.90552 0
M  V30 5109 H 464.395 -1.02191 3.72953 0
M  V30 5110 H 466.084 -0.700477 3.9981 0
M  V30 5111 H 466.85 1.72467 4.53299 0
M  V30 5112 H 462.729 0.49947 4.58286 0
M  V30 5113 H 466.273 3.67926 5.92685 0
M  V30 5114 H 462.17 2.4455 5.97382 0
M  V30 5115 H 462.938 4.25415 6.9926 0
M  V30 5116 N 465.601 -1.54893 0.290851 0
M  V30 5117 C 467.017 -1.59476 -0.0628432 0
M  V30 5118 C 467.217 -1.30795 -1.5328 0
M  V30 5119 O 466.273 -1.07644 -2.28406 0
M  V30 5120 C 467.586 -2.98928 0.325962 0
M  V30 5121 C 469.134 -3.11799 0.273882 0
M  V30 5122 C 469.609 -4.53544 0.637359 0
M  V30 5123 N 471.1 -4.59433 0.589507 0
M  V30 5124 C 471.835 -5.67164 0.84335 0
M  V30 5125 N 471.331 -6.82975 1.16263 0
M  V30 5126 N 473.124 -5.56786 0.771091 0
M  V30 5127 H 465.275 -1.71798 1.24896 0
M  V30 5128 H 467.538 -0.801879 0.505663 0
M  V30 5129 H 467.244 -3.24805 1.34887 0
M  V30 5130 H 467.118 -3.75793 -0.325441 0
M  V30 5131 H 469.505 -2.85677 -0.739765 0
M  V30 5132 H 469.586 -2.37112 0.959766 0
M  V30 5133 H 469.23 -4.80394 1.64877 0
M  V30 5134 H 469.16 -5.26553 -0.0704866 0
M  V30 5135 H 471.651 -3.76245 0.353252 0
M  V30 5136 H 471.964 -7.61048 1.34257 0
M  V30 5137 H 470.309 -6.84552 1.20057 0
M  V30 5138 H 473.5 -4.65187 0.521383 0
M  V30 5139 H 473.673 -6.40664 0.972295 0
M  V30 5140 N 467.08 -0.0183926 -1.57589 0
M  V30 5141 C 468.357 0.700621 -1.82622 0
M  V30 5142 C 468.737 1.90951 -0.90005 0
M  V30 5143 O 468.085 2.28452 0.0469145 0
M  V30 5144 C 468.295 1.08899 -3.31575 0
M  V30 5145 C 469.643 1.48514 -3.9778 0
M  V30 5146 O 470.667 1.18227 -3.36007 0
M  V30 5147 O 469.526 2.04903 -5.06633 0
M  V30 5148 H 466.62 0.342743 -0.752633 0
M  V30 5149 H 469.166 -0.0452548 -1.6964 0
M  V30 5150 H 467.938 0.228113 -3.90635 0
M  V30 5151 H 467.561 1.89338 -3.49624 0
M  V30 5152 N 468.558 1.5553 0.254621 0
M  V30 5153 C 469.488 1.9268 1.31897 0
M  V30 5154 C 470.469 0.790797 1.506 0
M  V30 5155 O 471.654 1.05045 1.63337 0
M  V30 5156 C 468.784 2.21477 2.67517 0
M  V30 5157 C 467.738 3.37256 2.63519 0
M  V30 5158 C 467.064 3.51576 4.02862 0
M  V30 5159 C 468.364 4.73157 2.21179 0
M  V30 5160 H 470.058 2.81832 1.01051 0
M  V30 5161 H 467.604 1.35599 0.484662 0
M  V30 5162 H 469.557 2.46055 3.42104 0
M  V30 5163 H 468.281 1.29144 2.99982 0
M  V30 5164 H 466.94 3.12675 1.9139 0
M  V30 5165 H 466.588 2.56676 4.32581 0
M  V30 5166 H 466.288 4.2943 4.01078 0
M  V30 5167 H 467.812 3.78467 4.79161 0
M  V30 5168 H 469.226 4.97158 2.85494 0
M  V30 5169 H 467.623 5.54058 2.30521 0
M  V30 5170 H 468.693 4.70739 1.16332 0
M  V30 5171 N 470.036 -0.519951 1.48776 0
M  V30 5172 C 470.983 -1.62352 1.64044 0
M  V30 5173 C 471.953 -1.58945 0.482251 0
M  V30 5174 O 473.138 -1.77219 0.706971 0
M  V30 5175 C 470.278 -3.00579 1.69547 0
M  V30 5176 C 469.391 -3.14145 2.96541 0
M  V30 5177 C 468.526 -4.42991 2.93142 0
M  V30 5178 C 467.565 -4.50122 4.14797 0
M  V30 5179 N 466.702 -5.7037 4.09418 0
M  V30 5180 H 471.542 -1.48643 2.58281 0
M  V30 5181 H 469.079 -0.723516 1.28077 0
M  V30 5182 H 471.037 -3.80671 1.70719 0
M  V30 5183 H 469.667 -3.13036 0.787918 0
M  V30 5184 H 468.719 -2.27239 3.05068 0
M  V30 5185 H 470.031 -3.15275 3.86527 0
M  V30 5186 H 469.185 -5.31385 2.92772 0
M  V30 5187 H 467.924 -4.44398 2.00902 0
M  V30 5188 H 466.929 -3.60133 4.15433 0
M  V30 5189 H 468.154 -4.50445 5.08208 0
M  V30 5190 H 466.1 -5.72655 3.20004 0
M  V30 5191 H 466.017 -5.73036 4.93119 0
M  V30 5192 H 467.285 -6.61023 4.13121 0
M  V30 5193 N 471.514 -1.37532 -0.769588 0
M  V30 5194 C 472.925 -1.29382 -1.346 0
M  V30 5195 C 473.276 0.0576039 -1.96115 0
M  V30 5196 O 472.401 0.95947 -1.93967 0
M  V30 5197 C 472.996 -2.34298 -2.44724 0
M  V30 5198 C 471.555 -2.29776 -2.98128 0
M  V30 5199 C 470.702 -2.18013 -1.71364 0
M  V30 5200 H 473.653 -1.48123 -0.56968 0
M  V30 5201 H 473.674 -1.99089 -3.24259 0
M  V30 5202 H 473.186 -3.32645 -1.99922 0
M  V30 5203 H 471.287 -1.34959 -3.47299 0
M  V30 5204 H 471.4 -3.23276 -3.53595 0
M  V30 5205 H 469.764 -1.64595 -1.94372 0
M  V30 5206 H 470.547 -3.18278 -1.28662 0
M  V30 5207 N 472.992 0.995999 -1.22138 0
M  V30 5208 C 473.955 2.06711 -0.990109 0
M  V30 5209 C 474.955 1.60744 0.0422978 0
M  V30 5210 O 476.145 1.73095 -0.195895 0
M  V30 5211 C 473.277 3.37288 -0.49491 0
M  V30 5212 H 474.47 2.28661 -1.94047 0
M  V30 5213 H 472.023 1.16711 -1.03963 0
M  V30 5214 H 472.758 3.21022 0.459948 0
M  V30 5215 H 472.543 3.71986 -1.23971 0
M  V30 5216 H 474.033 4.16103 -0.353253 0
M  V30 5217 N 474.47 1.03057 1.19235 0
M  V30 5218 C 475.418 0.606391 2.24557 0
M  V30 5219 C 476.412 -0.361826 1.65491 0
M  V30 5220 O 477.618 -0.23022 1.78522 0
M  V30 5221 H 473.993 0.177838 0.730669 0
M  V30 5222 H 475.964 1.50529 2.5765 0
M  V30 5223 C 474.713 -0.0252127 3.47691 0
M  V30 5224 H 474.036 0.710838 3.9343 0
M  V30 5225 H 475.476 -0.284931 4.23042 0
M  V30 5226 C 473.935 -1.27229 3.11953 0
M  V30 5227 O 474.465 -2.36416 3.24762 0
M  V30 5228 N 472.671 -1.16169 2.6637 0
M  V30 5229 H 472.218 -0.273189 2.56147 0
M  V30 5230 H 472.176 -1.99703 2.42829 0
M  V30 5231 N 475.948 -1.35272 0.808662 0
M  V30 5232 C 477.197 -1.97963 0.386483 0
M  V30 5233 C 477.51 -1.64866 -1.05255 0
M  V30 5234 O 478.716 -2.20937 -1.57794 0
M  V30 5235 C 477.172 -3.54162 0.640096 0
M  V30 5236 C 476.78 -3.96166 2.0918 0
M  V30 5237 C 478.524 -4.23553 0.283376 0
M  V30 5238 C 476.431 -5.4522 2.29106 0
M  V30 5239 H 475.361 -0.740742 0.140774 0
M  V30 5240 H 478.012 -1.5431 0.993012 0
M  V30 5241 H 476.394 -3.95983 -0.0364117 0
M  V30 5242 H 477.568 -3.65491 2.80629 0
M  V30 5243 H 475.883 -3.3967 2.40859 0
M  V30 5244 H 478.48 -5.33124 0.410273 0
M  V30 5245 H 478.823 -4.09105 -0.770659 0
M  V30 5246 H 479.356 -3.8716 0.913884 0
M  V30 5247 H 476.095 -5.64638 3.32962 0
M  V30 5248 H 475.615 -5.77457 1.62184 0
M  V30 5249 H 477.294 -6.1171 2.1076 0
M  V30 5250 N 477.426 -0.562348 -1.47226 0
M  V30 5251 C 478.356 0.170627 -2.32876 0
M  V30 5252 C 479.337 0.903748 -1.44106 0
M  V30 5253 O 480.522 0.883206 -1.72954 0
M  V30 5254 C 477.652 1.19786 -3.25989 0
M  V30 5255 C 476.606 0.580875 -4.2404 0
M  V30 5256 C 475.932 1.71311 -5.06514 0
M  V30 5257 C 477.232 -0.468714 -5.20193 0
M  V30 5258 H 478.926 -0.544441 -2.94408 0
M  V30 5259 H 476.472 -0.263271 -1.41573 0
M  V30 5260 H 478.425 1.71884 -3.84752 0
M  V30 5261 H 477.149 1.94294 -2.62521 0
M  V30 5262 H 475.808 0.0811538 -3.6651 0
M  V30 5263 H 475.456 2.44736 -4.39447 0
M  V30 5264 H 475.156 1.30604 -5.72902 0
M  V30 5265 H 476.68 2.23725 -5.68137 0
M  V30 5266 H 478.094 -0.0336028 -5.7329 0
M  V30 5267 H 476.491 -0.794957 -5.94811 0
M  V30 5268 H 477.561 -1.36269 -4.65359 0
M  V30 5269 N 478.904 1.54736 -0.299062 0
M  V30 5270 C 479.834 2.26409 0.571085 0
M  V30 5271 C 480.815 1.2629 1.13951 0
M  V30 5272 O 482 1.55059 1.16921 0
M  V30 5273 C 479.13 3.00338 1.74396 0
M  V30 5274 C 478.084 4.07588 1.30599 0
M  V30 5275 C 477.41 4.69222 2.56387 0
M  V30 5276 C 478.71 5.20455 0.438645 0
M  V30 5277 H 480.404 2.99388 -0.0266991 0
M  V30 5278 H 477.95 1.43993 -0.0142812 0
M  V30 5279 H 479.903 3.49198 2.35878 0
M  V30 5280 H 478.627 2.24934 2.36796 0
M  V30 5281 H 477.286 3.59575 0.71424 0
M  V30 5282 H 476.934 3.9046 3.17097 0
M  V30 5283 H 476.634 5.41653 2.27784 0
M  V30 5284 H 478.158 5.20844 3.18675 0
M  V30 5285 H 479.572 5.65221 0.959085 0
M  V30 5286 H 477.969 5.99594 0.246466 0
M  V30 5287 H 479.039 4.8192 -0.536738 0
M  V30 5288 N 480.382 0.0267497 1.57577 0
M  V30 5289 C 481.659 -0.690926 1.82991 0
M  V30 5290 C 482.039 -1.90471 0.910164 0
M  V30 5291 O 481.387 -2.28474 -0.0347985 0
M  V30 5292 C 481.597 -1.07139 3.32148 0
M  V30 5293 C 482.945 -1.46402 3.98562 0
M  V30 5294 O 483.969 -1.16443 3.36629 0
M  V30 5295 O 482.828 -2.02214 5.07712 0
M  V30 5296 H 479.922 -0.338747 0.75444 0
M  V30 5297 H 482.468 0.0542506 1.69613 0
M  V30 5298 H 481.24 -0.207394 3.9075 0
M  V30 5299 H 480.863 -1.87481 3.50623 0
M  V30 5300 N 481.861 -1.55662 -0.24637 0
M  V30 5301 C 482.771 -1.93495 -1.32653 0
M  V30 5302 C 483.787 -0.835462 -1.5263 0
M  V30 5303 O 484.963 -1.1369 -1.66242 0
M  V30 5304 C 482.028 -2.22242 -2.66101 0
M  V30 5305 C 481.089 -3.45625 -2.54641 0
M  V30 5306 C 480.322 -3.72991 -3.81724 0
M  V30 5307 O 480.545 -3.02421 -4.8363 0
M  V30 5308 O 479.479 -4.66515 -3.80325 0
M  V30 5309 H 483.305 -2.85498 -1.03559 0
M  V30 5310 H 480.89 -1.42551 -0.44717 0
M  V30 5311 H 482.772 -2.42037 -3.44958 0
M  V30 5312 H 481.447 -1.33417 -2.94926 0
M  V30 5313 H 480.354 -3.31136 -1.74067 0
M  V30 5314 H 481.687 -4.34754 -2.3076 0
M  V30 5315 N 483.339 0.512053 -1.4905 0
M  V30 5316 C 484.289 1.61142 -1.61298 0
M  V30 5317 C 485.273 1.53908 -0.46916 0
M  V30 5318 O 486.465 1.61625 -0.721547 0
M  V30 5319 C 483.594 2.998 -1.67256 0
M  V30 5320 C 482.68 3.12072 -2.87179 0
M  V30 5321 N 483.071 2.94263 -4.11391 0
M  V30 5322 C 481.369 3.43156 -2.84886 0
M  V30 5323 C 482.07 3.10426 -4.91946 0
M  V30 5324 N 481.046 3.38808 -4.251 0
M  V30 5325 H 484.848 1.46011 -2.55065 0
M  V30 5326 H 482.362 0.717934 -1.45669 0
M  V30 5327 H 484.359 3.78794 -1.74128 0
M  V30 5328 H 483.019 3.1601 -0.746195 0
M  V30 5329 H 484.03 2.70661 -4.41546 0
M  V30 5330 H 480.707 3.65611 -2.01581 0
M  V30 5331 H 482.097 3.01243 -6.00585 0
M  V30 5332 N 484.817 1.37938 0.762283 0
M  V30 5333 C 486.065 1.33404 1.51815 0
M  V30 5334 C 486.386 -0.0780975 1.94844 0
M  V30 5335 O 485.656 -1.02405 1.67003 0
M  V30 5336 H 484.236 0.490839 0.563104 0
M  V30 5337 H 486.898 1.72527 0.906669 0
M  V30 5338 H 485.994 1.97926 2.41313 0
M  V30 5339 N 486.295 -0.989507 1.22664 0
M  V30 5340 C 487.245 -2.06478 0.967005 0
M  V30 5341 C 488.229 -1.60682 -0.0836374 0
M  V30 5342 O 489.421 -1.76541 0.127322 0
M  V30 5343 C 486.55 -3.38861 0.550313 0
M  V30 5344 C 485.636 -3.9128 1.63587 0
M  V30 5345 N 486.027 -4.16884 2.86429 0
M  V30 5346 C 484.325 -4.1972 1.50834 0
M  V30 5347 C 485.026 -4.5954 3.56648 0
M  V30 5348 N 484.002 -4.63434 2.84131 0
M  V30 5349 H 487.804 -2.24219 1.90008 0
M  V30 5350 H 485.318 -1.17153 1.12467 0
M  V30 5351 H 487.315 -4.15465 0.345612 0
M  V30 5352 H 485.975 -3.22518 -0.375822 0
M  V30 5353 H 486.986 -4.04976 3.22823 0
M  V30 5354 H 483.663 -4.1243 0.648643 0
M  V30 5355 H 485.053 -4.87944 4.61909 0
M  V30 5356 N 487.773 -1.03688 -1.18687 0
M  V30 5357 C 489.019 -0.739123 -1.88851 0
M  V30 5358 C 489.352 0.731042 -1.79915 0
M  V30 5359 O 488.627 1.53313 -1.19688 0
M  V30 5360 C 488.91 -1.20106 -3.3948 0
M  V30 5361 C 488.763 -2.73304 -3.57246 0
M  V30 5362 C 490.082 -0.788134 -4.32986 0
M  V30 5363 H 487.201 -0.269978 -0.68577 0
M  V30 5364 H 489.843 -1.28822 -1.3966 0
M  V30 5365 H 487.993 -0.733915 -3.81505 0
M  V30 5366 H 489.665 -3.28027 -3.24339 0
M  V30 5367 H 487.908 -3.13313 -3.00029 0
M  V30 5368 H 488.579 -3.00684 -4.62918 0
M  V30 5369 H 491.055 -1.19005 -3.98719 0
M  V30 5370 H 489.931 -1.13915 -5.36949 0
M  V30 5371 H 490.192 0.308988 -4.41019 0
M  V30 5372 N 489.251 1.34841 -0.815825 0
M  V30 5373 C 490.667 1.51543 -0.500697 0
M  V30 5374 C 490.867 1.76261 0.976444 0
M  V30 5375 O 489.923 1.8094 1.76117 0
M  V30 5376 C 491.236 2.68487 -1.35407 0
M  V30 5377 C 492.784 2.82368 -1.35046 0
M  V30 5378 C 493.259 4.02347 -2.18816 0
M  V30 5379 N 494.75 4.09542 -2.16402 0
M  V30 5380 C 495.485 5.01517 -2.77971 0
M  V30 5381 N 494.981 5.98763 -3.48503 0
M  V30 5382 N 496.774 4.94334 -2.67563 0
M  V30 5383 H 488.925 1.17055 -1.77234 0
M  V30 5384 H 491.188 0.573481 -0.754866 0
M  V30 5385 H 490.894 2.56829 -2.40274 0
M  V30 5386 H 490.768 3.63321 -1.01377 0
M  V30 5387 H 493.155 2.93471 -0.309604 0
M  V30 5388 H 493.236 1.88363 -1.73069 0
M  V30 5389 H 492.88 3.92004 -3.22948 0
M  V30 5390 H 492.81 4.95551 -1.78148 0
M  V30 5391 H 495.301 3.39932 -1.65091 0
M  V30 5392 H 495.614 6.6556 -3.92747 0
M  V30 5393 H 493.959 5.98909 -3.52609 0
M  V30 5394 H 497.15 4.1732 -2.12041 0
M  V30 5395 H 497.323 5.6582 -3.15834 0
M  V30 5396 N 490.729 0.570148 1.46925 0
M  V30 5397 C 491.978 0.0487352 2.01641 0
M  V30 5398 C 492.291 -1.31433 1.44861 0
M  V30 5399 O 493.497 -1.92638 1.91318 0
M  V30 5400 C 491.953 0.0365817 3.59881 0
M  V30 5401 C 491.561 1.39719 4.25655 0
M  V30 5402 C 493.305 -0.431545 4.22301 0
M  V30 5403 C 491.212 1.34345 5.75939 0
M  V30 5404 H 490.142 0.0144492 0.753862 0
M  V30 5405 H 492.793 0.719928 1.68788 0
M  V30 5406 H 491.175 -0.700522 3.89755 0
M  V30 5407 H 492.349 2.15303 4.07408 0
M  V30 5408 H 490.664 1.80431 3.75278 0
M  V30 5409 H 493.261 -0.490354 5.32447 0
M  V30 5410 H 493.604 -1.44638 3.90366 0
M  V30 5411 H 494.137 0.251102 3.97007 0
M  V30 5412 H 490.876 2.33469 6.12513 0
M  V30 5413 H 490.396 0.629615 5.96486 0
M  V30 5414 H 492.075 1.051 6.38407 0
M  V30 5415 N 492.207 -1.54576 0.307264 0
M  V30 5416 C 493.432 -2.05139 -0.305379 0
M  V30 5417 C 493.857 -1.18278 -1.46259 0
M  V30 5418 O 493.215 -0.188243 -1.8032 0
M  V30 5419 C 493.263 -3.53066 -0.733283 0
M  V30 5420 O 492.367 -3.69206 -1.83741 0
M  V30 5421 H 491.708 -0.661444 -0.0582105 0
M  V30 5422 H 494.238 -1.99569 0.450931 0
M  V30 5423 H 494.248 -3.95034 -1.02039 0
M  V30 5424 H 492.923 -4.15746 0.113198 0
M  V30 5425 H 491.5 -3.39143 -1.55037 0
M  V30 5426 N 493.685 -0.035106 -1.57561 0
M  V30 5427 C 494.962 0.681212 -1.83354 0
M  V30 5428 C 495.342 1.89986 -0.920252 0
M  V30 5429 O 494.69 2.28489 0.0226815 0
M  V30 5430 C 494.9 1.05376 -3.32712 0
M  V30 5431 C 496.248 1.44286 -3.99333 0
M  V30 5432 O 497.272 1.14656 -3.37242 0
M  V30 5433 O 496.131 1.99518 -5.08778 0
M  V30 5434 H 493.225 0.334741 -0.756226 0
M  V30 5435 H 495.771 -0.0632448 -1.69582 0
M  V30 5436 H 494.543 0.186668 -3.90854 0
M  V30 5437 H 494.166 1.85619 -3.51613 0
M  V30 5438 N 495.163 1.55791 0.238111 0
M  V30 5439 C 496.093 1.94068 1.29846 0
M  V30 5440 C 497.074 0.806726 1.49753 0
M  V30 5441 O 498.259 1.06772 1.62214 0
M  V30 5442 C 495.389 2.24302 2.65153 0
M  V30 5443 C 494.343 3.40032 2.59927 0
M  V30 5444 C 493.669 3.55829 3.99111 0
M  V30 5445 C 494.969 4.75476 2.16148 0
M  V30 5446 H 496.663 2.82887 0.980563 0
M  V30 5447 H 494.209 1.36105 0.470253 0
M  V30 5448 H 496.162 2.4967 3.39475 0
M  V30 5449 H 494.886 1.32318 2.98596 0
M  V30 5450 H 493.545 3.14687 1.88063 0
M  V30 5451 H 493.193 2.6125 4.29834 0
M  V30 5452 H 492.893 4.3366 3.96501 0
M  V30 5453 H 494.417 3.83528 4.7512 0
M  V30 5454 H 495.831 5.00158 2.80205 0
M  V30 5455 H 494.228 5.56472 2.24631 0
M  V30 5456 H 495.298 4.71946 1.11333 0
M  V30 5457 N 496.642 -0.504142 1.49319 0
M  V30 5458 C 497.89 -1.25598 1.58334 0
M  V30 5459 C 498.211 -1.93114 0.270538 0
M  V30 5460 O 497.481 -1.82585 -0.709891 0
M  V30 5461 H 496.061 -0.466571 0.58337 0
M  V30 5462 H 498.723 -0.584547 1.85928 0
M  V30 5463 H 497.819 -2.02159 2.37778 0
M  V30 5464 N 498.12 -1.38341 -0.754957 0
M  V30 5465 C 499.05 -1.38176 -1.88227 0
M  V30 5466 C 500.031 -0.247873 -1.68284 0
M  V30 5467 O 501.216 -0.45075 -1.88896 0
M  V30 5468 C 498.346 -1.20471 -3.25736 0
M  V30 5469 C 497.3 -2.3105 -3.60278 0
M  V30 5470 C 496.626 -1.98452 -4.96509 0
M  V30 5471 C 497.926 -3.73305 -3.65295 0
M  V30 5472 H 499.62 -2.32512 -1.88622 0
M  V30 5473 H 497.166 -1.1192 -0.906082 0
M  V30 5474 H 499.119 -1.18982 -4.04254 0
M  V30 5475 H 497.843 -0.225965 -3.25817 0
M  V30 5476 H 496.502 -2.31723 -2.84078 0
M  V30 5477 H 496.15 -0.990641 -4.93148 0
M  V30 5478 H 495.85 -2.7251 -5.20588 0
M  V30 5479 H 497.374 -1.98578 -5.77407 0
M  V30 5480 H 498.788 -3.7467 -4.3393 0
M  V30 5481 H 497.185 -4.46557 -4.00883 0
M  V30 5482 H 498.255 -4.05719 -2.65556 0
M  V30 5483 N 499.598 0.982988 -1.23187 0
M  V30 5484 C 500.561 2.05649 -1.01198 0
M  V30 5485 C 501.561 1.6078 0.0252464 0
M  V30 5486 O 502.751 1.72878 -0.214243 0
M  V30 5487 C 499.883 3.36744 -0.530656 0
M  V30 5488 H 501.076 2.2659 -1.96461 0
M  V30 5489 H 498.629 1.15602 -1.05195 0
M  V30 5490 H 499.364 3.21492 0.425873 0
M  V30 5491 H 499.149 3.7065 -1.2791 0
M  V30 5492 H 500.639 4.15705 -0.397366 0
M  V30 5493 N 501.076 1.04316 1.18135 0
M  V30 5494 C 502.316 0.756937 1.89868 0
M  V30 5495 C 502.68 -0.702609 1.78682 0
M  V30 5496 O 503.881 -1.10255 2.45148 0
M  V30 5497 C 502.152 1.21327 3.36176 0
M  V30 5498 S 503.711 1.05307 4.25976 0
M  V30 5499 H 500.529 0.275143 0.655604 0
M  V30 5500 H 503.131 1.33597 1.42731 0
M  V30 5501 H 501.835 2.27086 3.41848 0
M  V30 5502 H 501.366 0.628137 3.88353 0
M  V30 5503 H 503.381 -0.0280093 4.96192 0
M  V30 5504 N 502.554 -1.34406 0.822964 0
M  V30 5505 C 503.831 -1.92733 0.333641 0
M  V30 5506 C 504.211 -1.75107 -1.17901 0
M  V30 5507 O 503.559 -1.12983 -1.98613 0
M  V30 5508 C 503.769 -3.40557 0.763023 0
M  V30 5509 C 505.117 -4.17709 0.761879 0
M  V30 5510 O 506.141 -3.49141 0.705606 0
M  V30 5511 O 505 -5.40082 0.835109 0
M  V30 5512 H 502.094 -0.821964 0.0911249 0
M  V30 5513 H 504.64 -1.4338 0.907757 0
M  V30 5514 H 503.412 -3.47187 1.8049 0
M  V30 5515 H 503.035 -3.97259 0.164605 0
M  V30 5516 N 504.032 -0.577932 -1.46621 0
M  V30 5517 C 505.279 -0.0616879 -2.02406 0
M  V30 5518 C 505.607 1.29638 -1.44997 0
M  V30 5519 O 504.862 1.86176 -0.60308 0
M  V30 5520 C 505.161 0.0590832 -3.57351 0
M  V30 5521 C 504.827 -1.23077 -4.33777 0
M  V30 5522 C 503.489 -1.58416 -4.54376 0
M  V30 5523 C 505.841 -2.08457 -4.77698 0
M  V30 5524 C 503.169 -2.78943 -5.16147 0
M  V30 5525 C 505.521 -3.28204 -5.408 0
M  V30 5526 C 504.185 -3.63832 -5.59627 0
M  V30 5527 H 503.455 -0.0225732 -0.740656 0
M  V30 5528 H 506.102 -0.753609 -1.76048 0
M  V30 5529 H 504.407 0.834104 -3.82818 0
M  V30 5530 H 506.104 0.474202 -3.98186 0
M  V30 5531 H 502.694 -0.945652 -4.18038 0
M  V30 5532 H 506.878 -1.82459 -4.61544 0
M  V30 5533 H 502.134 -3.06689 -5.28916 0
M  V30 5534 H 506.308 -3.94634 -5.73792 0
M  V30 5535 H 503.935 -4.57315 -6.07262 0
M  V30 5536 N 505.51 1.54411 -0.315457 0
M  V30 5537 C 506.735 2.05299 0.294496 0
M  V30 5538 C 507.16 1.19052 1.4563 0
M  V30 5539 O 506.518 0.197804 1.80218 0
M  V30 5540 C 506.566 3.5345 0.714549 0
M  V30 5541 O 505.67 3.70175 1.81781 0
M  V30 5542 H 505.011 0.661743 0.0547019 0
M  V30 5543 H 507.541 1.99327 -0.461508 0
M  V30 5544 H 507.551 3.9557 0.999426 0
M  V30 5545 H 506.226 4.1568 -0.135244 0
M  V30 5546 H 504.803 3.3996 1.53236 0
M  V30 5547 N 506.988 0.0434614 1.5754 0
M  V30 5548 C 507.935 -0.93356 2.11077 0
M  V30 5549 C 508.905 -1.31383 1.01626 0
M  V30 5550 O 510.09 -1.40465 1.29129 0
M  V30 5551 C 507.23 -2.20578 2.65404 0
M  V30 5552 C 506.343 -1.88068 3.88914 0
M  V30 5553 C 505.478 -3.09691 4.31584 0
M  V30 5554 C 504.517 -2.73067 5.47815 0
M  V30 5555 N 503.654 -3.87359 5.85574 0
M  V30 5556 H 508.494 -0.470118 2.94268 0
M  V30 5557 H 506.031 -0.220434 1.45439 0
M  V30 5558 H 507.989 -2.95011 2.94999 0
M  V30 5559 H 506.619 -2.64513 1.85021 0
M  V30 5560 H 505.671 -1.03816 3.6596 0
M  V30 5561 H 506.983 -1.57104 4.73413 0
M  V30 5562 H 506.137 -3.92431 4.62691 0
M  V30 5563 H 504.876 -3.43827 3.45882 0
M  V30 5564 H 503.881 -1.88742 5.16388 0
M  V30 5565 H 505.106 -2.40131 6.35227 0
M  V30 5566 H 503.052 -4.21311 5.02825 0
M  V30 5567 H 502.969 -3.60068 6.64746 0
M  V30 5568 H 504.237 -4.70761 6.21292 0
M  V30 5569 N 508.466 -1.55915 -0.229846 0
M  V30 5570 C 509.413 -1.91734 -1.28478 0
M  V30 5571 C 510.383 -0.773539 -1.46988 0
M  V30 5572 O 511.568 -1.02871 -1.60693 0
M  V30 5573 C 508.708 -2.23224 -2.63182 0
M  V30 5574 C 507.821 -3.50497 -2.52539 0
M  V30 5575 C 506.956 -3.71474 -3.79711 0
M  V30 5576 C 505.995 -4.92289 -3.63755 0
M  V30 5577 N 505.132 -5.09698 -4.82858 0
M  V30 5578 H 509.972 -2.81692 -0.972308 0
M  V30 5579 H 507.509 -1.39429 -0.468815 0
M  V30 5580 H 509.467 -2.3949 -3.41614 0
M  V30 5581 H 508.097 -1.36451 -2.92542 0
M  V30 5582 H 507.149 -3.4247 -1.65585 0
M  V30 5583 H 508.461 -4.39079 -2.36666 0
M  V30 5584 H 507.615 -3.87791 -4.66586 0
M  V30 5585 H 506.354 -2.81157 -3.985 0
M  V30 5586 H 505.359 -4.7593 -2.75264 0
M  V30 5587 H 506.584 -5.84083 -3.46445 0
M  V30 5588 H 504.53 -4.22322 -5.01976 0
M  V30 5589 H 504.447 -5.92399 -4.69681 0
M  V30 5590 H 505.715 -5.30443 -5.71183 0
M  V30 5591 N 509.944 0.496216 -1.49584 0
M  V30 5592 C 510.891 1.59722 -1.66606 0
M  V30 5593 C 511.861 1.58158 -0.507477 0
M  V30 5594 O 513.046 1.76072 -0.735076 0
M  V30 5595 C 510.186 2.97844 -1.74308 0
M  V30 5596 C 509.299 3.09388 -3.01502 0
M  V30 5597 C 508.434 4.38271 -3.00153 0
M  V30 5598 C 507.473 4.43466 -4.21906 0
M  V30 5599 N 506.61 5.63784 -4.1844 0
M  V30 5600 H 511.45 1.44515 -2.60613 0
M  V30 5601 H 508.987 0.703048 -1.29212 0
M  V30 5602 H 510.945 3.77907 -1.76754 0
M  V30 5603 H 509.575 3.11743 -0.837619 0
M  V30 5604 H 508.627 2.22357 -3.08645 0
M  V30 5605 H 509.939 3.09085 -3.91494 0
M  V30 5606 H 509.093 5.2666 -3.01188 0
M  V30 5607 H 507.832 4.41146 -2.07947 0
M  V30 5608 H 506.837 3.53478 -4.21109 0
M  V30 5609 H 508.062 4.42303 -5.1531 0
M  V30 5610 H 506.008 5.67491 -3.29074 0
M  V30 5611 H 505.925 5.65118 -5.02173 0
M  V30 5612 H 507.193 6.54367 -4.23585 0
M  V30 5613 N 511.423 1.38739 0.74761 0
M  V30 5614 C 512.834 1.31507 1.32524 0
M  V30 5615 C 513.185 -0.0263963 1.96182 0
M  V30 5616 O 512.31 -0.92849 1.95469 0
M  V30 5617 C 512.905 2.38162 2.40966 0
M  V30 5618 C 511.464 2.34489 2.94434 0
M  V30 5619 C 510.611 2.20712 1.67873 0
M  V30 5620 H 513.562 1.4901 0.546043 0
M  V30 5621 H 513.583 2.04222 3.21051 0
M  V30 5622 H 513.095 3.35783 1.94605 0
M  V30 5623 H 511.196 1.40467 3.45108 0
M  V30 5624 H 511.309 3.28861 3.48407 0
M  V30 5625 H 509.673 1.67667 1.91729 0
M  V30 5626 H 510.456 3.20285 1.23582 0
M  V30 5627 N 512.901 -0.976442 1.23707 0
M  V30 5628 C 513.851 -2.0544 0.988851 0
M  V30 5629 C 514.835 -1.60762 -0.0665901 0
M  V30 5630 O 516.027 -1.76396 0.14604 0
M  V30 5631 C 513.156 -3.38258 0.586223 0
M  V30 5632 C 512.242 -3.89523 1.67728 0
M  V30 5633 N 512.633 -4.13823 2.90834 0
M  V30 5634 C 510.931 -4.18097 1.55277 0
M  V30 5635 C 511.632 -4.55731 3.61502 0
M  V30 5636 N 510.608 -4.60394 2.8903 0
M  V30 5637 H 514.41 -2.22191 1.92376 0
M  V30 5638 H 511.924 -1.15954 1.13704 0
M  V30 5639 H 513.921 -4.15075 0.389658 0
M  V30 5640 H 512.581 -3.22898 -0.341594 0
M  V30 5641 H 513.592 -4.01529 3.271 0
M  V30 5642 H 510.269 -4.11719 0.692351 0
M  V30 5643 H 511.659 -4.83018 4.67059 0
M  V30 5644 N 514.379 -1.04941 -1.1758 0
M  V30 5645 C 515.342 -0.652456 -2.19717 0
M  V30 5646 C 516.342 0.294745 -1.58076 0
M  V30 5647 O 517.532 0.0789579 -1.74021 0
M  V30 5648 C 514.664 0.0420712 -3.40874 0
M  V30 5649 H 515.857 -1.55642 -2.5635 0
M  V30 5650 H 513.41 -0.842995 -1.31618 0
M  V30 5651 H 514.145 0.95943 -3.09783 0
M  V30 5652 H 513.93 -0.638844 -3.86861 0
M  V30 5653 H 515.42 0.306 -4.16477 0
M  V30 5654 N 515.857 1.33968 -0.830081 0
M  V30 5655 C 517.082 2.02813 -0.433796 0
M  V30 5656 C 517.507 1.62076 0.954614 0
M  V30 5657 O 516.865 0.808955 1.62252 0
M  V30 5658 C 516.913 3.56348 -0.552115 0
M  V30 5659 O 516.017 4.10202 0.425191 0
M  V30 5660 H 515.358 0.639817 -0.177567 0
M  V30 5661 H 517.888 1.7106 -1.12248 0
M  V30 5662 H 517.898 4.05722 -0.430513 0
M  V30 5663 H 516.573 3.85344 -1.56471 0
M  V30 5664 H 515.15 3.71979 0.261878 0
M  V30 5665 N 517.335 0.585699 1.46312 0
M  V30 5666 C 518.581 0.0725284 2.0267 0
M  V30 5667 C 518.914 -1.28523 1.45586 0
M  V30 5668 O 518.189 -1.84283 0.622101 0
M  V30 5669 C 518.472 0.0099788 3.60099 0
M  V30 5670 C 518.325 1.39685 4.27561 0
M  V30 5671 C 519.644 -0.689117 4.34671 0
M  V30 5672 H 516.763 0.0278307 0.736474 0
M  V30 5673 H 519.405 0.753472 1.74421 0
M  V30 5674 H 517.555 -0.56992 3.84297 0
M  V30 5675 H 519.227 2.02215 4.14617 0
M  V30 5676 H 517.47 1.96374 3.86807 0
M  V30 5677 H 518.141 1.30553 5.36339 0
M  V30 5678 H 520.617 -0.196446 4.15636 0
M  V30 5679 H 519.493 -0.701921 5.44393 0
M  V30 5680 H 519.754 -1.75101 4.05946 0
M  V30 5681 N 518.813 -1.54241 0.323641 0
M  V30 5682 C 520.061 -2.00174 -0.278359 0
M  V30 5683 C 520.382 -1.2134 -1.52648 0
M  V30 5684 O 519.652 -0.315244 -1.93347 0
M  V30 5685 H 518.232 -0.739463 -0.105845 0
M  V30 5686 H 520.894 -1.89864 0.440204 0
M  V30 5687 H 519.99 -3.07486 -0.5347 0
M  V30 5688 N 520.291 -0.0518155 -1.57515 0
M  V30 5689 C 521.519 0.631395 -1.9703 0
M  V30 5690 C 521.934 1.64341 -0.92938 0
M  V30 5691 O 521.291 1.82296 0.0863266 0
M  V30 5692 C 521.342 1.31774 -3.36627 0
M  V30 5693 O 521.063 0.346247 -4.3673 0
M  V30 5694 C 522.564 2.09065 -3.90905 0
M  V30 5695 H 519.784 0.172576 -0.648428 0
M  V30 5696 H 522.328 -0.118306 -2.04158 0
M  V30 5697 H 520.483 2.01867 -3.30649 0
M  V30 5698 H 520.897 0.836226 -5.17791 0
M  V30 5699 H 522.371 2.52508 -4.9086 0
M  V30 5700 H 522.848 2.93908 -3.26366 0
M  V30 5701 H 523.454 1.43882 -4.00223 0
M  V30 5702 N 521.769 1.56035 0.221574 0
M  V30 5703 C 522.719 1.8881 1.27807 0
M  V30 5704 C 523.703 0.751177 1.42289 0
M  V30 5705 O 524.895 1.01359 1.45104 0
M  V30 5706 C 522.024 2.20828 2.6285 0
M  V30 5707 C 521.11 3.40912 2.52269 0
M  V30 5708 N 521.501 4.59531 2.1134 0
M  V30 5709 C 519.799 3.44526 2.83228 0
M  V30 5710 C 520.5 5.41689 2.1201 0
M  V30 5711 N 519.476 4.814 2.52497 0
M  V30 5712 H 523.278 2.78036 0.952529 0
M  V30 5713 H 520.792 1.566 0.430134 0
M  V30 5714 H 522.789 2.42483 3.39127 0
M  V30 5715 H 521.449 1.32914 2.9625 0
M  V30 5716 H 522.46 4.8469 1.82472 0
M  V30 5717 H 519.137 2.66956 3.21 0
M  V30 5718 H 520.527 6.46643 1.82491 0
M  V30 5719 N 523.247 -0.488276 1.49845 0
M  V30 5720 C 524.495 -1.23911 1.59657 0
M  V30 5721 C 524.816 -1.92816 0.291005 0
M  V30 5722 O 524.086 -1.83328 -0.690485 0
M  V30 5723 H 522.666 -0.460357 0.588286 0
M  V30 5724 H 525.328 -0.564794 1.86537 0
M  V30 5725 H 524.424 -1.99625 2.39909 0
M  V30 5726 N 524.725 -1.39134 -0.740242 0
M  V30 5727 C 525.955 -1.39132 -1.52728 0
M  V30 5728 C 526.363 0.0173133 -1.89192 0
M  V30 5729 O 525.706 0.997715 -1.54244 0
M  V30 5730 C 525.768 -2.1952 -2.84695 0
M  V30 5731 C 525.432 -3.68203 -2.70695 0
M  V30 5732 C 526.429 -4.61401 -2.39593 0
M  V30 5733 C 524.114 -4.11724 -2.8773 0
M  V30 5734 C 526.108 -5.96102 -2.25701 0
M  V30 5735 C 523.795 -5.46503 -2.73456 0
M  V30 5736 C 524.793 -6.38506 -2.42486 0
M  V30 5737 O 524.481 -7.70803 -2.28295 0
M  V30 5738 H 524.213 -0.477263 -0.478744 0
M  V30 5739 H 526.767 -1.83504 -0.922799 0
M  V30 5740 H 524.997 -1.69888 -3.47383 0
M  V30 5741 H 526.686 -2.1176 -3.46284 0
M  V30 5742 H 527.452 -4.29079 -2.26088 0
M  V30 5743 H 523.331 -3.4045 -3.10829 0
M  V30 5744 H 526.875 -6.6788 -2.0145 0
M  V30 5745 H 522.772 -5.78417 -2.86538 0
M  V30 5746 H 523.54 -7.8147 -2.43405 0
M  V30 5747 N 526.204 0.969867 -1.24223 0
M  V30 5748 C 527.137 2.06279 -0.975926 0
M  V30 5749 C 528.115 1.62353 0.0895385 0
M  V30 5750 O 529.299 1.88442 -0.0469418 0
M  V30 5751 C 526.426 3.35391 -0.472315 0
M  V30 5752 C 525.472 3.98266 -1.526 0
M  V30 5753 S 526.305 4.36172 -3.10667 0
M  V30 5754 C 527.461 5.68423 -2.62003 0
M  V30 5755 H 527.694 2.28551 -1.90137 0
M  V30 5756 H 525.227 1.10748 -1.07584 0
M  V30 5757 H 527.185 4.10068 -0.188376 0
M  V30 5758 H 525.846 3.1111 0.432378 0
M  V30 5759 H 525.039 4.91307 -1.12399 0
M  V30 5760 H 524.641 3.30009 -1.75983 0
M  V30 5761 H 526.933 6.45842 -2.0468 0
M  V30 5762 H 527.876 6.13478 -3.53625 0
M  V30 5763 H 528.284 5.26928 -2.02502 0
M  V30 5764 N 527.682 1.05563 1.17022 0
M  V30 5765 C 528.645 0.664098 2.19368 0
M  V30 5766 C 529.645 -0.286358 1.5823 0
M  V30 5767 O 530.835 -0.069728 1.7406 0
M  V30 5768 C 527.967 -0.0239932 3.40892 0
M  V30 5769 H 529.16 1.57 2.55521 0
M  V30 5770 H 526.713 0.849964 1.31169 0
M  V30 5771 H 527.448 -0.942988 3.10287 0
M  V30 5772 H 527.233 0.659351 3.86516 0
M  V30 5773 H 528.723 -0.283909 4.16634 0
M  V30 5774 N 529.16 -1.33526 0.837174 0
M  V30 5775 C 530.571 -1.80182 0.489017 0
M  V30 5776 C 530.922 -1.69285 -0.991826 0
M  V30 5777 O 530.047 -1.24113 -1.77271 0
M  V30 5778 C 530.642 -3.27149 0.880866 0
M  V30 5779 C 529.201 -3.71828 0.584872 0
M  V30 5780 C 528.348 -2.54974 1.09011 0
M  V30 5781 H 531.299 -1.21071 1.02603 0
M  V30 5782 H 531.32 -3.80024 0.190239 0
M  V30 5783 H 530.832 -3.35048 1.95869 0
M  V30 5784 H 528.933 -3.69457 -0.48295 0
M  V30 5785 H 529.046 -4.65366 1.13892 0
M  V30 5786 H 527.41 -2.4952 0.511047 0
M  V30 5787 H 528.193 -2.65637 2.17467 0
M  V30 5788 N 530.638 -0.59345 -1.46 0
M  V30 5789 C 531.548 0.135817 -2.34207 0
M  V30 5790 C 532.564 0.875008 -1.50398 0
M  V30 5791 O 533.74 0.835778 -1.83239 0
M  V30 5792 C 530.805 1.12977 -3.27776 0
M  V30 5793 C 529.866 0.394081 -4.27487 0
M  V30 5794 C 529.099 1.34068 -5.16586 0
M  V30 5795 O 529.322 2.5778 -5.08828 0
M  V30 5796 O 528.256 0.845426 -5.95933 0
M  V30 5797 H 532.082 -0.588691 -2.9794 0
M  V30 5798 H 529.667 -0.353784 -1.45151 0
M  V30 5799 H 531.549 1.70261 -3.85473 0
M  V30 5800 H 530.224 1.83556 -2.66625 0
M  V30 5801 H 529.131 -0.220869 -3.73447 0
M  V30 5802 H 530.464 -0.270939 -4.91454 0
M  V30 5803 N 532.116 1.54067 -0.331816 0
M  V30 5804 C 533.362 2.01012 0.268667 0
M  V30 5805 C 533.695 1.2195 1.51136 0
M  V30 5806 O 532.97 0.303972 1.9211 0
M  V30 5807 C 533.253 3.55158 0.59456 0
M  V30 5808 C 533.106 4.4494 -0.659409 0
M  V30 5809 C 534.425 4.16939 1.4089 0
M  V30 5810 H 531.544 0.730698 0.0961756 0
M  V30 5811 H 534.186 1.84593 -0.450031 0
M  V30 5812 H 532.336 3.6928 1.20685 0
M  V30 5813 H 534.008 4.42675 -1.29756 0
M  V30 5814 H 532.251 4.1428 -1.28665 0
M  V30 5815 H 532.922 5.50643 -0.386804 0
M  V30 5816 H 535.398 4.06443 0.891272 0
M  V30 5817 H 534.274 5.24889 1.60569 0
M  V30 5818 H 534.535 3.70798 2.40752 0
M  V30 5819 N 533.594 0.0601682 1.57485 0
M  V30 5820 C 534.524 -0.90889 2.15085 0
M  V30 5821 C 535.505 -1.31838 1.07484 0
M  V30 5822 O 536.69 -1.3915 1.35466 0
M  V30 5823 C 533.82 -2.18059 2.7031 0
M  V30 5824 C 532.774 -1.91088 3.82974 0
M  V30 5825 C 532.1 -3.24789 4.24754 0
M  V30 5826 C 533.4 -1.22535 5.07723 0
M  V30 5827 H 535.094 -0.429093 2.96309 0
M  V30 5828 H 532.64 -0.204952 1.42534 0
M  V30 5829 H 534.593 -2.86258 3.09248 0
M  V30 5830 H 533.317 -2.6826 1.8629 0
M  V30 5831 H 531.976 -1.25297 3.44523 0
M  V30 5832 H 531.624 -3.72809 3.37672 0
M  V30 5833 H 531.324 -3.07538 5.00694 0
M  V30 5834 H 532.848 -3.94205 4.66299 0
M  V30 5835 H 534.262 -1.80783 5.4405 0
M  V30 5836 H 532.659 -1.1558 5.88864 0
M  V30 5837 H 533.729 -0.202692 4.84476 0
M  V30 5838 N 535.072 -1.5615 -0.213296 0
M  V30 5839 C 536.004 -1.89586 -1.28802 0
M  V30 5840 C 537.017 -0.784844 -1.42633 0
M  V30 5841 O 538.206 -1.06319 -1.43383 0
M  V30 5842 C 535.306 -2.09665 -2.66259 0
M  V30 5843 C 534.479 -3.40726 -2.7427 0
M  V30 5844 C 533.538 -3.50137 -3.92798 0
M  V30 5845 O 532.564 -4.23105 -3.8075 0
M  V30 5846 N 533.766 -2.81886 -5.07465 0
M  V30 5847 H 536.531 -2.82368 -1.00442 0
M  V30 5848 H 534.092 -1.56796 -0.403302 0
M  V30 5849 H 536.084 -2.13268 -3.43946 0
M  V30 5850 H 534.654 -1.23469 -2.87183 0
M  V30 5851 H 533.874 -3.4915 -1.82997 0
M  V30 5852 H 535.162 -4.27048 -2.76599 0
M  V30 5853 H 534.56 -2.22397 -5.2015 0
M  V30 5854 H 533.117 -2.91139 -5.83165 0
M  V30 5855 N 536.55 0.480323 -1.50102 0
M  V30 5856 C 537.497 1.57946 -1.6829 0
M  V30 5857 C 538.467 1.57611 -0.524223 0
M  V30 5858 O 539.652 1.75282 -0.753709 0
M  V30 5859 C 536.792 2.95978 -1.77457 0
M  V30 5860 C 535.905 3.06173 -3.04766 0
M  V30 5861 C 535.04 4.35063 -3.04784 0
M  V30 5862 C 534.079 4.38966 -4.26586 0
M  V30 5863 N 533.216 5.59314 -4.24396 0
M  V30 5864 H 538.056 1.41743 -2.62131 0
M  V30 5865 H 535.593 0.689304 -1.2995 0
M  V30 5866 H 537.551 3.76011 -1.80752 0
M  V30 5867 H 536.181 3.10837 -0.870637 0
M  V30 5868 H 535.233 2.19071 -3.10986 0
M  V30 5869 H 536.545 3.04916 -3.9475 0
M  V30 5870 H 535.699 5.23436 -3.06757 0
M  V30 5871 H 534.438 4.38915 -2.12614 0
M  V30 5872 H 533.443 3.48992 -4.24835 0
M  V30 5873 H 534.668 4.36813 -5.19972 0
M  V30 5874 H 532.614 5.63969 -3.35074 0
M  V30 5875 H 532.531 5.5976 -5.08138 0
M  V30 5876 H 533.799 6.49837 -4.30502 0
M  V30 5877 N 538.028 1.39524 0.732853 0
M  V30 5878 C 539.276 1.36594 1.48951 0
M  V30 5879 C 539.597 -0.0367507 1.94965 0
M  V30 5880 O 538.867 -0.988391 1.69138 0
M  V30 5881 H 537.447 0.502673 0.552566 0
M  V30 5882 H 540.109 1.74411 0.869869 0
M  V30 5883 H 539.205 2.03 2.3706 0
M  V30 5884 N 539.506 -0.963266 1.24736 0
M  V30 5885 C 540.752 -1.70933 1.09131 0
M  V30 5886 C 541.085 -1.90676 -0.368273 0
M  V30 5887 O 540.36 -1.47147 -1.27193 0
M  V30 5888 C 540.643 -3.09744 1.83658 0
M  V30 5889 C 540.496 -2.97465 3.37394 0
M  V30 5890 C 541.815 -4.09483 1.61282 0
M  V30 5891 H 538.934 -0.620398 0.397838 0
M  V30 5892 H 541.576 -1.12028 1.53459 0
M  V30 5893 H 539.726 -3.60031 1.4598 0
M  V30 5894 H 541.398 -2.54571 3.84696 0
M  V30 5895 H 539.641 -2.33576 3.65547 0
M  V30 5896 H 540.312 -3.95822 3.84745 0
M  V30 5897 H 542.788 -3.68073 1.94066 0
M  V30 5898 H 541.664 -5.04666 2.15878 0
M  V30 5899 H 541.925 -4.38639 0.552102 0
M  V30 5900 N 540.985 -1.06182 -1.16461 0
M  V30 5901 C 541.948 -0.675723 -2.19013 0
M  V30 5902 C 542.948 0.277963 -1.58379 0
M  V30 5903 O 544.138 0.0604962 -1.74095 0
M  V30 5904 C 541.27 0.00591459 -3.40899 0
M  V30 5905 H 542.463 -1.58353 -2.54685 0
M  V30 5906 H 540.016 -0.856908 -1.30716 0
M  V30 5907 H 540.751 0.92652 -3.10783 0
M  V30 5908 H 540.536 -0.67984 -3.86161 0
M  V30 5909 H 542.026 0.26181 -4.16778 0
M  V30 5910 N 542.463 1.3308 -0.844243 0
M  V30 5911 C 543.693 2.01515 -0.455541 0
M  V30 5912 C 544.101 1.63655 0.949406 0
M  V30 5913 O 543.444 0.84848 1.62931 0
M  V30 5914 C 543.506 3.55967 -0.502801 0
M  V30 5915 C 543.17 4.17222 -1.86481 0
M  V30 5916 C 544.167 4.36205 -2.8288 0
M  V30 5917 C 541.852 4.53528 -2.15911 0
M  V30 5918 C 543.846 4.90649 -4.06869 0
M  V30 5919 C 541.533 5.07679 -3.40155 0
M  V30 5920 C 542.531 5.26186 -4.35451 0
M  V30 5921 O 542.219 5.79183 -5.57496 0
M  V30 5922 H 541.951 0.65199 -0.178565 0
M  V30 5923 H 544.505 1.70867 -1.1399 0
M  V30 5924 H 542.735 3.85965 0.23836 0
M  V30 5925 H 544.424 4.05688 -0.131169 0
M  V30 5926 H 545.19 4.085 -2.61444 0
M  V30 5927 H 541.069 4.38414 -1.42528 0
M  V30 5928 H 544.613 5.0501 -4.81259 0
M  V30 5929 H 540.51 5.34815 -3.61446 0
M  V30 5930 H 541.278 5.97591 -5.5931 0
M  V30 5931 N 543.941 0.601185 1.45683 0
M  V30 5932 C 545.218 0.0261659 1.95582 0
M  V30 5933 C 545.598 -1.4399 1.5437 0
M  V30 5934 O 544.946 -2.13919 0.80318 0
M  V30 5935 C 545.156 0.217557 3.48321 0
M  V30 5936 C 546.504 0.0950076 4.24494 0
M  V30 5937 O 547.528 0.147345 3.55895 0
M  V30 5938 O 546.387 -0.025261 5.46494 0
M  V30 5939 H 543.481 -0.0393688 0.826062 0
M  V30 5940 H 546.027 0.670798 1.55879 0
M  V30 5941 H 544.799 1.23601 3.71266 0
M  V30 5942 H 544.422 -0.46264 3.94899 0
M  V30 5943 N 545.419 -1.53889 0.339982 0
M  V30 5944 C 546.644 -2.05741 -0.261798 0
M  V30 5945 C 547.069 -1.21354 -1.43718 0
M  V30 5946 O 546.427 -0.22645 -1.7988 0
M  V30 5947 C 546.475 -3.54542 -0.658228 0
M  V30 5948 O 545.579 -3.7302 -1.75869 0
M  V30 5949 H 544.92 -0.662529 -0.0441672 0
M  V30 5950 H 547.45 -1.98568 0.493161 0
M  V30 5951 H 547.46 -3.9711 -0.936368 0
M  V30 5952 H 546.135 -4.15412 0.201358 0
M  V30 5953 H 544.712 -3.42355 -1.47809 0
M  V30 5954 N 546.897 -0.0685191 -1.57451 0
M  V30 5955 C 548.122 0.613919 -1.98106 0
M  V30 5956 C 548.547 1.62551 -0.946501 0
M  V30 5957 O 547.905 1.81085 0.0882824 0
M  V30 5958 C 547.953 1.26189 -3.378 0
M  V30 5959 O 547.057 2.37773 -3.36954 0
M  V30 5960 H 546.398 0.158163 -0.644888 0
M  V30 5961 H 548.928 -0.142063 -2.04106 0
M  V30 5962 H 548.938 1.60951 -3.74912 0
M  V30 5963 H 547.613 0.520625 -4.12629 0
M  V30 5964 H 546.19 2.04829 -3.11608 0
M  V30 5965 N 548.375 1.56261 0.205012 0
M  V30 5966 C 549.338 1.92908 1.23771 0
M  V30 5967 C 550.338 0.809208 1.38955 0
M  V30 5968 O 551.528 1.07676 1.36936 0
M  V30 5969 C 548.66 2.19442 2.60879 0
M  V30 5970 H 549.853 2.85287 0.924728 0
M  V30 5971 H 547.406 1.49798 0.446125 0
M  V30 5972 H 548.141 1.29668 2.97248 0
M  V30 5973 H 547.926 3.0104 2.51232 0
M  V30 5974 H 549.416 2.48833 3.35368 0
M  V30 5975 N 549.853 -0.472356 1.50355 0
M  V30 5976 C 551.13 -1.23356 1.51798 0
M  V30 5977 C 551.51 -2.09469 0.26193 0
M  V30 5978 O 550.858 -2.15677 -0.754691 0
M  V30 5979 C 551.068 -2.06568 2.81302 0
M  V30 5980 C 552.416 -2.648 3.31913 0
M  V30 5981 O 553.44 -2.16812 2.82614 0
M  V30 5982 O 552.299 -3.52231 4.17846 0
M  V30 5983 H 549.393 -0.559707 0.608816 0
M  V30 5984 H 551.939 -0.48428 1.62643 0
M  V30 5985 H 550.711 -1.43103 3.64194 0
M  V30 5986 H 550.334 -2.88633 2.73454 0
M  V30 5987 N 551.331 -1.39911 -0.725443 0
M  V30 5988 C 552.577 -1.38862 -1.48624 0
M  V30 5989 C 552.932 0.0125913 -1.92396 0
M  V30 5990 O 552.225 0.981046 -1.64578 0
M  V30 5991 C 552.419 -2.30368 -2.7325 0
M  V30 5992 C 552.248 -3.79247 -2.41665 0
M  V30 5993 C 551.018 -4.48119 -2.3349 0
M  V30 5994 C 553.216 -4.70988 -2.06579 0
M  V30 5995 N 551.198 -5.82282 -1.94476 0
M  V30 5996 C 552.569 -5.93873 -1.78087 0
M  V30 5997 C 554.624 -4.58917 -1.9313 0
M  V30 5998 C 553.327 -7.06036 -1.37499 0
M  V30 5999 C 555.353 -5.71012 -1.53946 0
M  V30 6000 C 554.715 -6.92976 -1.26345 0
M  V30 6001 H 550.814 -0.563394 -0.54232 0
M  V30 6002 H 553.398 -1.75542 -0.842213 0
M  V30 6003 H 551.569 -1.95831 -3.35417 0
M  V30 6004 H 553.301 -2.20245 -3.39521 0
M  V30 6005 H 550.056 -4.01677 -2.50904 0
M  V30 6006 H 550.48 -6.53307 -1.77535 0
M  V30 6007 H 555.122 -3.65149 -2.13134 0
M  V30 6008 H 552.84 -7.99697 -1.16237 0
M  V30 6009 H 556.426 -5.63664 -1.44132 0
M  V30 6010 H 555.306 -7.78243 -0.964787 0
M  V30 6011 N 552.809 0.956637 -1.25245 0
M  V30 6012 C 554.056 1.701 -1.09874 0
M  V30 6013 C 554.384 1.91128 0.36062 0
M  V30 6014 O 553.639 1.47837 1.28229 0
M  V30 6015 C 553.938 3.08996 -1.79601 0
M  V30 6016 C 553.604 3.07774 -3.29523 0
M  V30 6017 C 552.266 3.07149 -3.70423 0
M  V30 6018 C 554.618 3.01257 -4.25316 0
M  V30 6019 C 551.946 2.97752 -5.0553 0
M  V30 6020 C 554.298 2.93403 -5.60444 0
M  V30 6021 C 552.962 2.91111 -6.00675 0
M  V30 6022 H 552.232 0.62244 -0.402056 0
M  V30 6023 H 554.879 1.1178 -1.55491 0
M  V30 6024 H 553.184 3.70848 -1.26408 0
M  V30 6025 H 554.881 3.65407 -1.65162 0
M  V30 6026 H 551.471 3.09032 -2.9698 0
M  V30 6027 H 555.655 3.00861 -3.9471 0
M  V30 6028 H 550.911 2.94346 -5.35883 0
M  V30 6029 H 555.085 2.87321 -6.34366 0
M  V30 6030 H 552.712 2.83586 -7.05325 0
M  V30 6031 N 554.287 1.06798 1.15896 0
M  V30 6032 C 555.512 0.808739 1.90982 0
M  V30 6033 C 555.937 -0.6316 1.77179 0
M  V30 6034 O 555.295 -1.4407 1.10061 0
M  V30 6035 C 555.343 1.21468 3.39526 0
M  V30 6036 O 554.447 0.356562 4.10856 0
M  V30 6037 H 553.788 0.29512 0.594811 0
M  V30 6038 H 556.318 1.42513 1.46804 0
M  V30 6039 H 556.328 1.18844 3.90308 0
M  V30 6040 H 555.003 2.26379 3.48891 0
M  V30 6041 H 553.58 0.444808 3.70238 0
M  V30 6042 N 555.766 -1.3263 0.851289 0
M  V30 6043 C 556.696 -2.31449 0.308771 0
M  V30 6044 C 557.677 -1.59531 -0.590255 0
M  V30 6045 O 558.862 -1.87351 -0.511205 0
M  V30 6046 C 555.992 -3.43586 -0.506548 0
M  V30 6047 C 554.946 -4.26963 0.297753 0
M  V30 6048 C 554.272 -5.30831 -0.642094 0
M  V30 6049 C 555.572 -4.99643 1.52166 0
M  V30 6050 H 557.266 -2.77074 1.13447 0
M  V30 6051 H 554.812 -1.33207 0.546971 0
M  V30 6052 H 556.765 -4.11754 -0.896474 0
M  V30 6053 H 555.489 -2.96681 -1.36558 0
M  V30 6054 H 554.148 -3.60437 0.669391 0
M  V30 6055 H 553.796 -4.8018 -1.49788 0
M  V30 6056 H 553.496 -5.87501 -0.107968 0
M  V30 6057 H 555.02 -6.01862 -1.02927 0
M  V30 6058 H 556.434 -5.6051 1.20421 0
M  V30 6059 H 554.831 -5.66022 1.99347 0
M  V30 6060 H 555.901 -4.27701 2.28474 0
M  V30 6061 N 557.244 -0.608902 -1.45362 0
M  V30 6062 C 558.492 -0.104401 -2.0183 0
M  V30 6063 C 558.813 1.27007 -1.47967 0
M  V30 6064 O 558.083 1.83924 -0.674455 0
M  V30 6065 H 556.663 -0.0356042 -0.746151 0
M  V30 6066 H 559.325 -0.790596 -1.78145 0
M  V30 6067 H 558.421 -0.0551793 -3.12051 0
M  V30 6068 N 558.722 1.53707 -0.348139 0
M  V30 6069 C 559.962 2.02899 0.247254 0
M  V30 6070 C 560.326 1.23033 1.47401 0
M  V30 6071 O 561.527 1.62146 2.14388 0
M  V30 6072 C 559.798 3.53156 0.549151 0
M  V30 6073 S 561.357 4.24247 1.1207 0
M  V30 6074 H 558.175 0.707213 0.0732894 0
M  V30 6075 H 560.777 1.89338 -0.486965 0
M  V30 6076 H 559.481 4.08893 -0.351435 0
M  V30 6077 H 559.012 3.70845 1.31291 0
M  V30 6078 H 561.027 4.33958 2.40613 0
M  V30 6079 N 560.2 0.0768682 1.57412 0
M  V30 6080 C 561.133 -0.924685 2.08626 0
M  V30 6081 C 562.111 -1.28792 0.992542 0
M  V30 6082 O 563.295 -1.39634 1.26628 0
M  V30 6083 C 560.422 -2.23131 2.54814 0
M  V30 6084 C 559.468 -2.01928 3.75669 0
M  V30 6085 S 560.301 -1.27397 5.20125 0
M  V30 6086 C 561.457 -2.59329 5.69648 0
M  V30 6087 H 561.69 -0.488928 2.93252 0
M  V30 6088 H 559.223 -0.136014 1.538 0
M  V30 6089 H 561.181 -2.98226 2.82084 0
M  V30 6090 H 559.842 -2.63831 1.70447 0
M  V30 6091 H 559.035 -2.98639 4.05993 0
M  V30 6092 H 558.637 -1.34967 3.48798 0
M  V30 6093 H 560.929 -3.55394 5.76803 0
M  V30 6094 H 561.872 -2.33608 6.68456 0
M  V30 6095 H 562.28 -2.66767 4.9749 0
M  V30 6096 N 561.678 -1.56367 -0.196722 0
M  V30 6097 C 562.608 -1.97442 -1.24655 0
M  V30 6098 C 563.589 -0.846147 -1.47561 0
M  V30 6099 O 564.774 -1.11035 -1.59326 0
M  V30 6100 C 561.904 -2.31253 -2.59112 0
M  V30 6101 C 560.858 -3.46804 -2.50821 0
M  V30 6102 C 560.184 -3.66286 -3.89536 0
M  V30 6103 C 561.484 -4.8104 -2.03465 0
M  V30 6104 H 563.178 -2.85388 -0.905216 0
M  V30 6105 H 560.724 -1.37304 -0.434002 0
M  V30 6106 H 562.677 -2.58583 -3.32736 0
M  V30 6107 H 561.401 -1.40188 -2.94983 0
M  V30 6108 H 560.06 -3.19563 -1.79653 0
M  V30 6109 H 559.708 -2.72555 -4.22756 0
M  V30 6110 H 559.408 -4.4402 -3.84864 0
M  V30 6111 H 560.932 -3.9599 -4.64784 0
M  V30 6112 H 562.346 -5.07411 -2.66846 0
M  V30 6113 H 560.743 -5.62232 -2.09798 0
M  V30 6114 H 561.813 -4.74732 -0.98781 0
M  V30 6115 N 563.156 0.464375 -1.50603 0
M  V30 6116 C 564.403 1.21596 -1.61928 0
M  V30 6117 C 564.731 1.91804 -0.322737 0
M  V30 6118 O 563.986 1.83065 0.691776 0
M  V30 6119 C 564.285 2.278 -2.75394 0
M  V30 6120 C 563.951 1.74797 -4.1564 0
M  V30 6121 C 562.613 1.60063 -4.53799 0
M  V30 6122 C 564.965 1.35548 -5.03266 0
M  V30 6123 C 562.293 1.04514 -5.77316 0
M  V30 6124 C 564.645 0.814381 -6.27336 0
M  V30 6125 C 563.309 0.653726 -6.64291 0
M  V30 6126 H 562.579 0.444951 -0.592536 0
M  V30 6127 H 565.226 0.510964 -1.84557 0
M  V30 6128 H 563.531 3.04233 -2.46879 0
M  V30 6129 H 565.228 2.85723 -2.81359 0
M  V30 6130 H 561.818 1.87234 -3.8554 0
M  V30 6131 H 566.002 1.45763 -4.74412 0
M  V30 6132 H 561.258 0.908186 -6.04617 0
M  V30 6133 H 565.432 0.501626 -6.94591 0
M  V30 6134 H 563.059 0.22114 -7.59878 0
M  V30 6135 N 564.634 1.40294 0.718013 0
M  V30 6136 C 565.581 1.40367 1.8321 0
M  V30 6137 C 566.551 0.260952 1.64037 0
M  V30 6138 O 567.736 0.458648 1.85205 0
M  V30 6139 C 564.876 1.26965 3.20895 0
M  V30 6140 C 563.989 2.50922 3.51656 0
M  V30 6141 C 563.124 2.29981 4.78834 0
M  V30 6142 C 562.163 3.49527 5.02491 0
M  V30 6143 N 561.3 3.27796 6.20882 0
M  V30 6144 H 566.14 2.35593 1.82482 0
M  V30 6145 H 563.677 1.17012 0.891444 0
M  V30 6146 H 565.635 1.17202 4.00399 0
M  V30 6147 H 564.265 0.353591 3.20858 0
M  V30 6148 H 563.317 2.71223 2.66725 0
M  V30 6149 H 564.629 3.39913 3.65048 0
M  V30 6150 H 563.783 2.17558 5.66351 0
M  V30 6151 H 562.522 1.38411 4.67647 0
M  V30 6152 H 561.527 3.6243 4.1343 0
M  V30 6153 H 562.752 4.42021 5.15553 0
M  V30 6154 H 560.698 2.38906 6.1095 0
M  V30 6155 H 560.615 4.10351 6.34939 0
M  V30 6156 H 561.883 3.19101 7.11193 0
M  V30 6157 N 566.112 -0.949982 1.2575 0
M  V30 6158 C 567.042 -2.06483 1.09028 0
M  V30 6159 C 568.023 -1.701 -0.00201532 0
M  V30 6160 O 569.208 -1.93469 0.168383 0
M  V30 6161 C 566.338 -3.39899 0.71316 0
M  V30 6162 C 565.292 -3.90309 1.75621 0
M  V30 6163 C 564.618 -5.20274 1.23365 0
M  V30 6164 C 565.918 -4.16169 3.15596 0
M  V30 6165 H 567.612 -2.20731 2.02283 0
M  V30 6166 H 565.158 -1.06066 0.973964 0
M  V30 6167 H 567.111 -4.17346 0.58309 0
M  V30 6168 H 565.835 -3.25602 -0.255091 0
M  V30 6169 H 564.494 -3.15035 1.8748 0
M  V30 6170 H 564.142 -5.02351 0.255491 0
M  V30 6171 H 563.842 -5.54971 1.93082 0
M  V30 6172 H 565.366 -6.00314 1.11607 0
M  V30 6173 H 566.78 -4.84259 3.06864 0
M  V30 6174 H 565.177 -4.62131 3.82825 0
M  V30 6175 H 566.247 -3.22273 3.6231 0
M  V30 6176 N 567.59 -1.07411 -1.15328 0
M  V30 6177 C 568.52 -0.716472 -2.22236 0
M  V30 6178 C 569.501 0.296373 -1.67498 0
M  V30 6179 O 570.686 0.168989 -1.93463 0
M  V30 6180 C 567.816 -0.114142 -3.47112 0
M  V30 6181 C 566.77 -1.05421 -4.14814 0
M  V30 6182 C 566.096 -0.314604 -5.33774 0
M  V30 6183 C 567.396 -2.38808 -4.64508 0
M  V30 6184 H 569.09 -1.61029 -2.52408 0
M  V30 6185 H 566.636 -0.775702 -1.21321 0
M  V30 6186 H 568.589 0.148001 -4.2114 0
M  V30 6187 H 567.313 0.814755 -3.16274 0
M  V30 6188 H 565.972 -1.30128 -3.42728 0
M  V30 6189 H 565.62 0.617772 -4.99192 0
M  V30 6190 H 565.32 -0.941209 -5.80013 0
M  V30 6191 H 566.844 -0.0602747 -6.1057 0
M  V30 6192 H 568.258 -2.18424 -5.3006 0
M  V30 6193 H 566.655 -2.97069 -5.21412 0
M  V30 6194 H 567.725 -3.01067 -3.80114 0
M  V30 6195 N 569.068 1.32177 -0.85831 0
M  V30 6196 C 570.484 1.49873 -0.548656 0
M  V30 6197 C 570.684 1.79278 0.919874 0
M  V30 6198 O 569.74 1.86451 1.70271 0
M  V30 6199 C 571.053 2.64043 -1.4388 0
M  V30 6200 C 572.601 2.77928 -1.43961 0
M  V30 6201 C 573.076 3.95182 -2.31506 0
M  V30 6202 N 574.567 4.0245 -2.29321 0
M  V30 6203 C 575.302 4.9242 -2.93786 0
M  V30 6204 N 574.798 5.87373 -3.67376 0
M  V30 6205 N 576.591 4.85572 -2.83155 0
M  V30 6206 H 568.742 1.11357 -1.80868 0
M  V30 6207 H 571.005 0.549175 -0.772729 0
M  V30 6208 H 570.711 2.49055 -2.48324 0
M  V30 6209 H 570.585 3.59912 -1.12885 0
M  V30 6210 H 572.972 2.92338 -0.402813 0
M  V30 6211 H 573.053 1.82762 -1.78974 0
M  V30 6212 H 572.697 3.81531 -3.35256 0
M  V30 6213 H 572.627 4.89633 -1.93823 0
M  V30 6214 H 575.118 3.34507 -1.75822 0
M  V30 6215 H 575.431 6.52728 -4.13722 0
M  V30 6216 H 573.776 5.87388 -3.71484 0
M  V30 6217 H 576.967 4.10363 -2.25211 0
M  V30 6218 H 577.14 5.55486 -3.33676 0
M  V30 6219 N 570.547 0.616602 1.45037 0
M  V30 6220 C 571.795 0.115103 2.01772 0
M  V30 6221 C 572.116 -1.2622 1.48639 0
M  V30 6222 O 571.386 -1.83563 0.684199 0
M  V30 6223 H 569.966 0.0395607 0.745952 0
M  V30 6224 H 572.628 0.800032 1.77723 0
M  V30 6225 H 571.724 0.0717274 3.12018 0
M  V30 6226 N 572.025 -1.5352 0.356285 0
M  V30 6227 C 572.975 -2.22204 -0.510815 0
M  V30 6228 C 573.959 -1.21393 -1.05605 0
M  V30 6229 O 575.151 -1.46883 -0.987639 0
M  V30 6230 C 572.28 -3.00786 -1.65478 0
M  V30 6231 C 571.366 -4.08965 -1.12287 0
M  V30 6232 N 571.757 -5.04829 -0.313191 0
M  V30 6233 C 570.055 -4.23505 -1.39856 0
M  V30 6234 C 570.756 -5.81695 -0.0230322 0
M  V30 6235 N 569.732 -5.40074 -0.618144 0
M  V30 6236 H 573.534 -2.93676 0.114711 0
M  V30 6237 H 571.048 -1.61572 0.163811 0
M  V30 6238 H 573.045 -3.48502 -2.28806 0
M  V30 6239 H 571.705 -2.30843 -2.28345 0
M  V30 6240 H 572.716 -5.17879 0.0468202 0
M  V30 6241 H 569.393 -3.64786 -2.0307 0
M  V30 6242 H 570.783 -6.68931 0.630927 0
M  V30 6243 N 573.503 -0.0852151 -1.57369 0
M  V30 6244 C 574.728 0.592872 -1.98746 0
M  V30 6245 C 575.153 1.61538 -0.963689 0
M  V30 6246 O 574.511 1.81168 0.069071 0
M  V30 6247 C 574.559 1.22599 -3.39119 0
M  V30 6248 O 573.663 2.34185 -3.39457 0
M  V30 6249 H 573.004 0.151314 -0.646529 0
M  V30 6250 H 575.534 -0.163703 -2.03944 0
M  V30 6251 H 575.544 1.56965 -3.76598 0
M  V30 6252 H 574.219 0.476831 -4.13158 0
M  V30 6253 H 572.796 2.01512 -3.13763 0
M  V30 6254 N 574.981 1.5647 0.188427 0
M  V30 6255 C 576.392 1.70864 0.752494 0
M  V30 6256 C 576.743 0.692905 1.83557 0
M  V30 6257 O 575.868 -0.149307 2.15884 0
M  V30 6258 C 576.463 3.09789 1.37173 0
M  V30 6259 C 575.022 3.25925 1.88281 0
M  V30 6260 C 574.169 2.66817 0.755259 0
M  V30 6261 H 577.12 1.58657 -0.0367408 0
M  V30 6262 H 577.141 3.07489 2.24122 0
M  V30 6263 H 576.653 3.83693 0.583219 0
M  V30 6264 H 574.754 2.56948 2.6983 0
M  V30 6265 H 574.867 4.33498 2.04001 0
M  V30 6266 H 573.231 2.2617 1.17128 0
M  V30 6267 H 574.014 3.43294 -0.0211237 0
M  V30 6268 N 576.459 -0.456382 1.50847 0
M  V30 6269 C 577.706 -1.20736 1.62571 0
M  V30 6270 C 578.034 -1.9163 0.332904 0
M  V30 6271 O 577.289 -1.8343 -0.682058 0
M  V30 6272 C 577.588 -2.26336 2.76599 0
M  V30 6273 C 577.254 -1.7259 4.16562 0
M  V30 6274 C 575.916 -1.57654 4.54641 0
M  V30 6275 C 578.268 -1.32877 5.03977 0
M  V30 6276 C 575.596 -1.0145 5.77862 0
M  V30 6277 C 577.948 -0.7811 6.27759 0
M  V30 6278 C 576.612 -0.618488 6.64628 0
M  V30 6279 H 575.882 -0.441803 0.594888 0
M  V30 6280 H 578.529 -0.501169 1.84826 0
M  V30 6281 H 576.834 -3.0292 2.48489 0
M  V30 6282 H 578.531 -2.84227 2.82871 0
M  V30 6283 H 575.121 -1.85187 3.86528 0
M  V30 6284 H 579.305 -1.43245 4.75179 0
M  V30 6285 H 574.561 -0.876109 6.0509 0
M  V30 6286 H 578.735 -0.464783 6.94847 0
M  V30 6287 H 576.362 -0.180838 7.59985 0
M  V30 6288 N 577.937 -1.40673 -0.710563 0
M  V30 6289 C 579.353 -1.22813 -1.01928 0
M  V30 6290 C 579.553 -0.10687 -2.01216 0
M  V30 6291 O 578.609 0.533614 -2.46797 0
M  V30 6292 C 579.922 -2.57178 -1.5582 0
M  V30 6293 C 581.47 -2.64233 -1.67779 0
M  V30 6294 C 581.945 -3.98879 -2.25076 0
M  V30 6295 N 583.436 -4.00647 -2.32456 0
M  V30 6296 C 584.171 -5.01621 -2.77784 0
M  V30 6297 N 583.667 -6.12989 -3.22826 0
M  V30 6298 N 585.46 -4.88988 -2.77213 0
M  V30 6299 H 577.611 -2.12335 -0.05253 0
M  V30 6300 H 579.874 -0.9441 -0.085898 0
M  V30 6301 H 579.58 -3.39903 -0.903249 0
M  V30 6302 H 579.454 -2.78618 -2.54267 0
M  V30 6303 H 581.841 -1.81876 -2.3239 0
M  V30 6304 H 581.922 -2.46619 -0.679178 0
M  V30 6305 H 581.566 -4.81678 -1.61086 0
M  V30 6306 H 581.496 -4.13826 -3.25661 0
M  V30 6307 H 583.987 -3.20231 -2.0065 0
M  V30 6308 H 584.3 -6.85921 -3.55995 0
M  V30 6309 H 582.645 -6.16547 -3.20773 0
M  V30 6310 H 585.836 -4.01075 -2.41363 0
M  V30 6311 H 586.009 -5.67822 -3.12221 0
M  V30 6312 N 579.415 0.9433 -1.26252 0
M  V30 6313 C 580.347 2.04542 -1.03417 0
M  V30 6314 C 581.36 1.62799 0.0046911 0
M  V30 6315 O 582.549 1.76944 -0.235146 0
M  V30 6316 C 579.649 3.34511 -0.543671 0
M  V30 6317 C 578.822 4.05033 -1.65128 0
M  V30 6318 C 577.881 5.13273 -1.1592 0
M  V30 6319 O 576.907 5.38095 -1.85586 0
M  V30 6320 N 578.109 5.805 -0.00649279 0
M  V30 6321 H 580.874 2.24699 -1.98319 0
M  V30 6322 H 578.435 1.11264 -1.1761 0
M  V30 6323 H 580.427 4.04212 -0.198703 0
M  V30 6324 H 578.997 3.11042 0.311711 0
M  V30 6325 H 578.217 3.29275 -2.16729 0
M  V30 6326 H 579.505 4.48903 -2.39508 0
M  V30 6327 H 578.903 5.62767 0.575347 0
M  V30 6328 H 577.46 6.51201 0.279416 0
M  V30 6329 N 580.893 1.08022 1.14757 0
M  V30 6330 C 581.843 0.676345 2.17737 0
M  V30 6331 C 582.827 -0.302018 1.5804 0
M  V30 6332 O 584.019 -0.11466 1.76628 0
M  V30 6333 C 581.148 0.082984 3.432 0
M  V30 6334 C 580.234 1.0869 4.09936 0
M  V30 6335 N 580.625 2.26891 4.52055 0
M  V30 6336 C 578.923 0.921768 4.36371 0
M  V30 6337 C 579.624 2.90636 5.0389 0
M  V30 6338 N 578.6 2.18266 4.97856 0
M  V30 6339 H 582.402 1.5765 2.4804 0
M  V30 6340 H 579.916 0.954374 1.31398 0
M  V30 6341 H 581.913 -0.224289 4.16296 0
M  V30 6342 H 580.573 -0.812206 3.14378 0
M  V30 6343 H 581.584 2.6457 4.45223 0
M  V30 6344 H 578.261 0.0800499 4.17423 0
M  V30 6345 H 579.651 3.9104 5.46386 0
M  V30 6346 N 582.371 -1.3172 0.865308 0
M  V30 6347 C 583.318 -2.2863 0.315736 0
M  V30 6348 C 584.288 -1.55524 -0.583213 0
M  V30 6349 O 585.473 -1.83694 -0.51585 0
M  V30 6350 C 582.613 -3.41735 -0.480773 0
M  V30 6351 C 581.726 -4.297 0.445167 0
M  V30 6352 C 580.861 -5.29944 -0.365012 0
M  V30 6353 C 579.9 -6.09554 0.557651 0
M  V30 6354 N 579.037 -7.01768 -0.215994 0
M  V30 6355 H 583.877 -2.75026 1.14736 0
M  V30 6356 H 581.414 -1.35302 0.577209 0
M  V30 6357 H 583.372 -4.06045 -0.958306 0
M  V30 6358 H 582.002 -2.96461 -1.27714 0
M  V30 6359 H 581.054 -3.65875 1.04113 0
M  V30 6360 H 582.366 -4.85295 1.15284 0
M  V30 6361 H 581.52 -5.99908 -0.905255 0
M  V30 6362 H 580.259 -4.74994 -1.106 0
M  V30 6363 H 579.264 -5.38485 1.10969 0
M  V30 6364 H 580.489 -6.66591 1.29742 0
M  V30 6365 H 578.435 -6.49232 -0.939878 0
M  V30 6366 H 578.352 -7.54762 0.432431 0
M  V30 6367 H 579.62 -7.76002 -0.737618 0
M  V30 6368 N 583.85 -0.624285 -1.44708 0
M  V30 6369 C 585.077 -0.132919 -2.06473 0
M  V30 6370 C 585.493 1.18967 -1.46602 0
M  V30 6371 O 584.85 1.72824 -0.586341 0
M  V30 6372 C 584.901 -0.00465418 -3.615 0
M  V30 6373 O 584.622 -1.27494 -4.19138 0
M  V30 6374 C 586.123 0.516213 -4.40284 0
M  V30 6375 H 583.343 -0.0765201 -0.666623 0
M  V30 6376 H 585.887 -0.856751 -1.85688 0
M  V30 6377 H 584.042 0.669583 -3.8157 0
M  V30 6378 H 584.456 -1.11536 -5.12504 0
M  V30 6379 H 585.93 0.554994 -5.49203 0
M  V30 6380 H 586.407 1.5419 -4.11245 0
M  V30 6381 H 587.013 -0.124542 -4.25118 0
M  V30 6382 N 585.328 1.53329 -0.364422 0
M  V30 6383 C 586.275 2.25698 0.482607 0
M  V30 6384 C 587.245 1.26325 1.07848 0
M  V30 6385 O 588.43 1.55104 1.11119 0
M  V30 6386 C 585.57 3.04873 1.61699 0
M  V30 6387 C 584.683 4.19135 1.0464 0
M  V30 6388 C 583.818 4.85754 2.14979 0
M  V30 6389 C 582.857 5.9205 1.5538 0
M  V30 6390 N 581.994 6.52365 2.59547 0
M  V30 6391 H 586.834 2.97666 -0.141032 0
M  V30 6392 H 584.371 1.46875 -0.0813692 0
M  V30 6393 H 586.329 3.49051 2.28516 0
M  V30 6394 H 584.959 2.35162 2.2113 0
M  V30 6395 H 584.011 3.79451 0.268553 0
M  V30 6396 H 585.323 4.95525 0.570653 0
M  V30 6397 H 584.477 5.3311 2.89619 0
M  V30 6398 H 583.216 4.08834 2.65906 0
M  V30 6399 H 582.221 5.44058 0.792549 0
M  V30 6400 H 583.446 6.7089 1.0528 0
M  V30 6401 H 581.392 5.78298 3.09689 0
M  V30 6402 H 581.309 7.2429 2.16655 0
M  V30 6403 H 582.577 7.0437 3.33892 0
M  V30 6404 N 586.806 0.0935595 1.57322 0
M  V30 6405 C 588.083 -0.612692 1.85756 0
M  V30 6406 C 588.463 -1.86439 0.99013 0
M  V30 6407 O 587.811 -2.28416 0.0621362 0
M  V30 6408 C 588.021 -0.929547 3.36393 0
M  V30 6409 C 589.369 -1.29366 4.04413 0
M  V30 6410 O 590.393 -1.02061 3.41265 0
M  V30 6411 O 589.252 -1.80498 5.15832 0
M  V30 6412 H 586.346 -0.306444 0.768128 0
M  V30 6413 H 588.892 0.126141 1.69231 0
M  V30 6414 H 587.664 -0.0414766 3.91278 0
M  V30 6415 H 587.287 -1.72441 3.5826 0
M  V30 6416 N 588.284 -1.56567 -0.180126 0
M  V30 6417 C 589.231 -1.95725 -1.22313 0
M  V30 6418 C 590.201 -0.819911 -1.44453 0
M  V30 6419 O 591.386 -1.07931 -1.57339 0
M  V30 6420 C 588.526 -2.31484 -2.55947 0
M  V30 6421 C 587.639 -3.58354 -2.4126 0
M  V30 6422 C 586.774 -3.83366 -3.67701 0
M  V30 6423 C 585.813 -5.03612 -3.47909 0
M  V30 6424 N 584.95 -5.24802 -4.66398 0
M  V30 6425 H 589.79 -2.84642 -0.882198 0
M  V30 6426 H 587.327 -1.4085 -0.42422 0
M  V30 6427 H 589.285 -2.50237 -3.33822 0
M  V30 6428 H 587.915 -1.45689 -2.88053 0
M  V30 6429 H 586.967 -3.47565 -1.54606 0
M  V30 6430 H 588.279 -4.46386 -2.22577 0
M  V30 6431 H 587.433 -4.02439 -4.54013 0
M  V30 6432 H 586.172 -2.93692 -3.89353 0
M  V30 6433 H 585.177 -4.84447 -2.59983 0
M  V30 6434 H 586.402 -5.94809 -3.27688 0
M  V30 6435 H 584.348 -4.38079 -4.88286 0
M  V30 6436 H 584.265 -6.07041 -4.50596 0
M  V30 6437 H 585.533 -5.48346 -5.54019 0
M  V30 6438 N 589.762 0.448376 -1.51087 0
M  V30 6439 C 590.712 1.54156 -1.67988 0
M  V30 6440 C 591.696 1.5178 -0.534015 0
M  V30 6441 O 592.888 1.58419 -0.789448 0
M  V30 6442 C 590.017 2.92437 -1.79822 0
M  V30 6443 C 589.103 2.99611 -3.00157 0
M  V30 6444 N 589.494 2.7655 -4.23502 0
M  V30 6445 C 587.792 3.30764 -2.99184 0
M  V30 6446 C 588.493 2.89281 -5.0467 0
M  V30 6447 N 587.469 3.20473 -4.39088 0
M  V30 6448 H 591.271 1.35061 -2.61028 0
M  V30 6449 H 588.785 0.655504 -1.48583 0
M  V30 6450 H 590.782 3.71068 -1.90037 0
M  V30 6451 H 589.442 3.1256 -0.879554 0
M  V30 6452 H 590.453 2.5169 -4.52628 0
M  V30 6453 H 587.13 3.56732 -2.16907 0
M  V30 6454 H 588.52 2.75499 -6.12821 0
M  V30 6455 N 591.24 1.41047 0.703093 0
M  V30 6456 C 592.15 1.44645 1.84703 0
M  V30 6457 C 593.166 0.337778 1.7069 0
M  V30 6458 O 594.342 0.584327 1.92737 0
M  V30 6459 C 591.407 1.31928 3.20618 0
M  V30 6460 C 590.468 2.53047 3.46794 0
M  V30 6461 C 589.701 2.40927 4.76224 0
M  V30 6462 O 589.924 1.42978 5.5219 0
M  V30 6463 O 588.858 3.30543 5.03016 0
M  V30 6464 H 592.684 2.41139 1.84624 0
M  V30 6465 H 590.269 1.22504 0.855167 0
M  V30 6466 H 592.151 1.27092 4.01778 0
M  V30 6467 H 590.826 0.385469 3.21397 0
M  V30 6468 H 589.733 2.6346 2.65593 0
M  V30 6469 H 591.066 3.45231 3.50822 0
M  V30 6470 N 592.718 -0.936591 1.26751 0
M  V30 6471 C 593.967 -1.67778 1.11953 0
M  V30 6472 C 594.28 -1.92694 -0.33589 0
M  V30 6473 O 595.486 -2.64682 -0.604618 0
M  V30 6474 C 593.942 -3.02138 1.95551 0
M  V30 6475 C 593.55 -2.84953 3.45696 0
M  V30 6476 C 595.294 -3.79917 1.89377 0
M  V30 6477 C 593.201 -4.14814 4.21525 0
M  V30 6478 H 592.131 -0.629275 0.415366 0
M  V30 6479 H 594.782 -1.04122 1.51099 0
M  V30 6480 H 593.164 -3.668 1.49243 0
M  V30 6481 H 594.338 -2.29112 3.99805 0
M  V30 6482 H 592.653 -2.20612 3.53156 0
M  V30 6483 H 595.25 -4.76134 2.43312 0
M  V30 6484 H 595.593 -4.07204 0.865464 0
M  V30 6485 H 596.126 -3.22037 2.33532 0
M  V30 6486 H 592.865 -3.92709 5.24843 0
M  V30 6487 H 592.385 -4.70352 3.72195 0
M  V30 6488 H 594.064 -4.83239 4.3022 0
M  V30 6489 N 594.196 -1.08629 -1.14182 0
M  V30 6490 C 595.473 -0.73002 -1.81466 0
M  V30 6491 C 595.853 0.785996 -1.95922 0
M  V30 6492 O 595.201 1.70535 -1.52086 0
M  V30 6493 C 595.411 -1.45957 -3.17014 0
M  V30 6494 C 596.759 -1.62008 -3.92477 0
M  V30 6495 O 597.783 -1.42141 -3.26611 0
M  V30 6496 O 596.642 -1.94806 -5.106 0
M  V30 6497 H 593.736 -0.261307 -0.784632 0
M  V30 6498 H 596.282 -1.188 -1.2118 0
M  V30 6499 H 595.054 -2.49221 -3.01669 0
M  V30 6500 H 594.677 -0.993222 -3.84995 0
M  V30 6501 N 595.674 1.31259 -0.872281 0
M  V30 6502 C 597.09 1.49283 -0.564521 0
M  V30 6503 C 597.29 1.80243 0.900807 0
M  V30 6504 O 596.346 1.88246 1.68284 0
M  V30 6505 C 597.659 2.62503 -1.46673 0
M  V30 6506 C 599.207 2.76386 -1.46901 0
M  V30 6507 C 599.682 3.92705 -2.35684 0
M  V30 6508 N 601.173 3.99995 -2.33577 0
M  V30 6509 C 601.908 4.89276 -2.98992 0
M  V30 6510 N 601.404 5.83443 -3.73585 0
M  V30 6511 N 603.197 4.82541 -2.88289 0
M  V30 6512 H 595.348 1.09432 -1.82039 0
M  V30 6513 H 597.611 0.540949 -0.77851 0
M  V30 6514 H 597.317 2.46407 -2.50951 0
M  V30 6515 H 597.191 3.58695 -1.16696 0
M  V30 6516 H 599.578 2.91894 -0.433796 0
M  V30 6517 H 599.659 1.80853 -1.80903 0
M  V30 6518 H 599.303 3.77954 -3.39283 0
M  V30 6519 H 599.233 4.87549 -1.99006 0
M  V30 6520 H 601.724 3.32624 -1.7936 0
M  V30 6521 H 602.037 6.48303 -4.20622 0
M  V30 6522 H 600.382 5.83415 -3.77694 0
M  V30 6523 H 603.573 4.07951 -2.2955 0
M  V30 6524 H 603.746 5.51916 -3.39549 0
M  V30 6525 N 597.152 0.631951 1.44375 0
M  V30 6526 C 598.085 -0.121822 2.27875 0
M  V30 6527 C 599.063 -0.850457 1.38586 0
M  V30 6528 O 600.247 -0.854378 1.68026 0
M  V30 6529 C 597.374 -1.17859 3.17533 0
M  V30 6530 C 596.42 -0.550391 4.22934 0
M  V30 6531 S 597.253 0.660145 5.31415 0
M  V30 6532 C 598.409 -0.396613 6.24642 0
M  V30 6533 H 598.642 0.586537 2.91457 0
M  V30 6534 H 596.175 0.420146 1.48574 0
M  V30 6535 H 598.133 -1.78335 3.69739 0
M  V30 6536 H 596.794 -1.85915 2.53169 0
M  V30 6537 H 595.987 -1.34631 4.85685 0
M  V30 6538 H 595.589 -0.0202306 3.73995 0
M  V30 6539 H 597.881 -1.26893 6.65511 0
M  V30 6540 H 598.824 0.195345 7.0783 0
M  V30 6541 H 599.232 -0.72288 5.59852 0
M  V30 6542 N 598.631 -1.53133 0.372548 0
M  V30 6543 C 599.859 -2.05774 -0.215515 0
M  V30 6544 C 600.274 -1.24555 -1.41886 0
M  V30 6545 O 599.631 -0.287951 -1.80214 0
M  V30 6546 C 599.682 -3.5645 -0.602161 0
M  V30 6547 O 599.403 -4.34591 0.553359 0
M  V30 6548 C 600.904 -4.25374 -1.24787 0
M  V30 6549 H 598.124 -0.670009 -0.0364529 0
M  V30 6550 H 600.668 -1.97434 0.532934 0
M  V30 6551 H 598.823 -3.64918 -1.30052 0
M  V30 6552 H 599.237 -5.23954 0.239336 0
M  V30 6553 H 600.711 -5.32097 -1.46891 0
M  V30 6554 H 601.188 -3.79531 -2.21026 0
M  V30 6555 H 601.794 -4.21177 -0.590752 0
M  V30 6556 N 600.109 -0.101901 -1.5727 0
M  V30 6557 C 601.039 0.851544 -2.17419 0
M  V30 6558 C 602.02 1.28942 -1.10941 0
M  V30 6559 O 603.205 1.35509 -1.39107 0
M  V30 6560 C 600.335 2.10816 -2.75996 0
M  V30 6561 C 599.289 1.80867 -3.87906 0
M  V30 6562 C 598.615 3.13413 -4.33216 0
M  V30 6563 C 599.915 1.0903 -5.10793 0
M  V30 6564 H 601.609 0.350381 -2.97343 0
M  V30 6565 H 599.155 0.16709 -1.43027 0
M  V30 6566 H 601.108 2.77959 -3.16729 0
M  V30 6567 H 599.832 2.63227 -1.93337 0
M  V30 6568 H 598.491 1.16119 -3.47724 0
M  V30 6569 H 598.139 3.63725 -3.47438 0
M  V30 6570 H 597.839 2.94155 -5.08671 0
M  V30 6571 H 599.363 3.81704 -4.76586 0
M  V30 6572 H 600.777 1.66295 -5.48652 0
M  V30 6573 H 599.174 0.99927 -5.91722 0
M  V30 6574 H 600.244 0.0741704 -4.84843 0
M  V30 6575 N 601.587 1.56661 0.17182 0
M  V30 6576 C 602.815 1.861 0.904115 0
M  V30 6577 C 603.23 0.687227 1.75848 0
M  V30 6578 O 602.587 -0.343671 1.79235 0
M  V30 6579 C 602.638 3.14568 1.78127 0
M  V30 6580 O 602.359 4.27422 0.961366 0
M  V30 6581 C 603.86 3.5735 2.62327 0
M  V30 6582 H 601.08 0.617445 0.262684 0
M  V30 6583 H 603.624 2.03775 0.172068 0
M  V30 6584 H 601.779 2.98721 2.46666 0
M  V30 6585 H 602.193 5.00725 1.56123 0
M  V30 6586 H 603.667 4.50144 3.1949 0
M  V30 6587 H 604.144 2.81445 3.37173 0
M  V30 6588 H 604.75 3.75807 1.99121 0
M  V30 6589 N 603.065 -0.440357 1.51323 0
M  V30 6590 C 603.998 -1.55414 1.67098 0
M  V30 6591 C 604.976 -1.54108 0.518599 0
M  V30 6592 O 606.16 -1.7328 0.742054 0
M  V30 6593 C 603.287 -2.93996 1.68179 0
M  V30 6594 C 602.333 -3.13338 2.89347 0
M  V30 6595 S 603.166 -2.89957 4.50206 0
M  V30 6596 C 604.322 -4.30826 4.54027 0
M  V30 6597 H 604.555 -1.41798 2.61306 0
M  V30 6598 H 602.088 -0.629841 1.40969 0
M  V30 6599 H 604.046 -3.73878 1.69487 0
M  V30 6600 H 602.707 -3.04976 0.751542 0
M  V30 6601 H 601.9 -4.14652 2.86495 0
M  V30 6602 H 601.502 -2.41276 2.85766 0
M  V30 6603 H 603.794 -5.23977 4.29481 0
M  V30 6604 H 604.737 -4.38712 5.55822 0
M  V30 6605 H 605.145 -4.1434 3.83384 0
M  V30 6606 N 604.543 -1.41418 -0.695603 0
M  V30 6607 C 605.506 -1.42988 -1.79129 0
M  V30 6608 C 606.506 -0.320514 -1.57573 0
M  V30 6609 O 607.696 -0.58039 -1.64247 0
M  V30 6610 C 604.828 -1.24122 -3.175 0
M  V30 6611 H 606.021 -2.40526 -1.7913 0
M  V30 6612 H 603.574 -1.2756 -0.903225 0
M  V30 6613 H 604.309 -0.274253 -3.23138 0
M  V30 6614 H 604.094 -2.045 -3.34547 0
M  V30 6615 H 605.584 -1.28056 -3.97481 0
M  V30 6616 N 606.021 0.929856 -1.27246 0
M  V30 6617 C 607.267 1.6798 -1.13625 0
M  V30 6618 C 607.6 1.91586 0.317589 0
M  V30 6619 O 606.875 1.50467 1.23247 0
M  V30 6620 C 607.158 3.04766 -1.91806 0
M  V30 6621 C 607.011 2.88415 -3.45162 0
M  V30 6622 C 608.33 4.05063 -1.72082 0
M  V30 6623 H 605.449 0.609632 -0.414147 0
M  V30 6624 H 608.091 1.0792 -1.56376 0
M  V30 6625 H 606.241 3.56034 -1.55474 0
M  V30 6626 H 607.913 2.44282 -3.91311 0
M  V30 6627 H 606.156 2.23802 -3.71611 0
M  V30 6628 H 606.827 3.85482 -3.95105 0
M  V30 6629 H 609.303 3.62798 -2.03757 0
M  V30 6630 H 608.179 4.98765 -2.29182 0
M  V30 6631 H 608.44 4.37021 -0.668206 0
M  V30 6632 N 607.499 1.09233 1.13605 0
M  V30 6633 C 608.409 0.741939 2.22559 0
M  V30 6634 C 609.425 -0.255236 1.72118 0
M  V30 6635 O 610.601 -0.0970747 2.01166 0
M  V30 6636 C 607.666 0.165595 3.46304 0
M  V30 6637 C 606.727 1.21846 4.11645 0
M  V30 6638 C 605.96 0.669526 5.29484 0
M  V30 6639 O 606.183 -0.508228 5.68131 0
M  V30 6640 O 605.117 1.42361 5.84822 0
M  V30 6641 H 608.943 1.65107 2.54899 0
M  V30 6642 H 606.528 0.866584 1.21699 0
M  V30 6643 H 608.41 -0.152592 4.21124 0
M  V30 6644 H 607.085 -0.716573 3.15669 0
M  V30 6645 H 605.992 1.58931 3.38662 0
M  V30 6646 H 607.325 2.07321 4.46407 0
M  V30 6647 N 608.977 -1.30795 0.87923 0
M  V30 6648 C 609.907 -2.30742 0.357796 0
M  V30 6649 C 610.888 -1.60747 -0.556283 0
M  V30 6650 O 612.073 -1.88393 -0.47135 0
M  V30 6651 C 609.203 -3.44583 -0.433555 0
M  V30 6652 C 608.157 -4.26235 0.388251 0
M  V30 6653 C 607.483 -5.32073 -0.529352 0
M  V30 6654 C 608.783 -4.96303 1.62729 0
M  V30 6655 H 610.477 -2.74605 1.19299 0
M  V30 6656 H 608.023 -1.32017 0.575104 0
M  V30 6657 H 609.976 -4.13563 -0.808934 0
M  V30 6658 H 608.7 -2.99511 -1.30234 0
M  V30 6659 H 607.359 -3.58936 0.745695 0
M  V30 6660 H 607.007 -4.83249 -1.39569 0
M  V30 6661 H 606.707 -5.87598 0.0166741 0
M  V30 6662 H 608.231 -6.0391 -0.901373 0
M  V30 6663 H 609.645 -5.5783 1.32283 0
M  V30 6664 H 608.042 -5.61666 2.11309 0
M  V30 6665 H 609.112 -4.22758 2.37494 0
M  V30 6666 N 610.455 -0.639598 -1.44038 0
M  V30 6667 C 611.866 -0.228866 -1.85292 0
M  V30 6668 C 612.217 1.22161 -1.53529 0
M  V30 6669 O 611.342 1.93064 -0.977518 0
M  V30 6670 C 611.937 -0.408592 -3.36327 0
M  V30 6671 C 610.496 -0.0522953 -3.76364 0
M  V30 6672 C 609.643 -0.717959 -2.67844 0
M  V30 6673 H 612.594 -0.844194 -1.34384 0
M  V30 6674 H 612.615 0.349968 -3.78887 0
M  V30 6675 H 612.127 -1.46435 -3.59414 0
M  V30 6676 H 610.228 1.0014 -3.58891 0
M  V30 6677 H 610.341 -0.468261 -4.76806 0
M  V30 6678 H 608.705 -0.152459 -2.54243 0
M  V30 6679 H 609.488 -1.77648 -2.93762 0
M  V30 6680 N 611.933 1.52934 -0.380664 0
M  V30 6681 C 613.21 1.93845 0.261417 0
M  V30 6682 C 613.59 1.31544 1.65104 0
M  V30 6683 O 612.938 0.480234 2.23397 0
M  V30 6684 C 613.148 3.47739 0.296466 0
M  V30 6685 C 614.496 4.21284 0.529578 0
M  V30 6686 O 615.52 3.54199 0.377041 0
M  V30 6687 O 614.379 5.40195 0.827753 0
M  V30 6688 H 611.473 0.811318 0.160285 0
M  V30 6689 H 614.019 1.64042 -0.434544 0
M  V30 6690 H 612.791 3.85395 -0.67724 0
M  V30 6691 H 612.414 3.8382 1.0377 0
M  V30 6692 N 613.412 0.11024 1.57214 0
M  V30 6693 C 614.637 -0.561179 1.99664 0
M  V30 6694 C 615.062 -1.59985 0.989266 0
M  V30 6695 O 614.42 -1.81255 -0.0402399 0
M  V30 6696 C 614.468 -1.17189 3.41027 0
M  V30 6697 O 613.572 -2.28755 3.4314 0
M  V30 6698 H 612.913 -0.14101 0.648855 0
M  V30 6699 H 615.443 0.196128 2.03658 0
M  V30 6700 H 615.453 -1.50954 3.79047 0
M  V30 6701 H 614.128 -0.411041 4.13864 0
M  V30 6702 H 612.705 -1.96495 3.16929 0
M  V30 6703 N 614.89 -1.56749 -0.16351 0
M  V30 6704 C 616.137 -1.82434 -0.878866 0
M  V30 6705 C 616.465 -0.688557 -1.81904 0
M  V30 6706 O 615.72 0.323644 -1.93005 0
M  V30 6707 C 616.019 -3.14342 -1.70071 0
M  V30 6708 C 615.685 -4.41647 -0.908775 0
M  V30 6709 C 614.347 -4.76224 -0.690236 0
M  V30 6710 C 616.699 -5.19998 -0.353815 0
M  V30 6711 C 614.027 -5.86624 0.0942374 0
M  V30 6712 C 616.379 -6.3122 0.41761 0
M  V30 6713 C 615.043 -6.64358 0.646879 0
M  V30 6714 H 614.313 -0.667574 -0.3216 0
M  V30 6715 H 616.96 -1.90963 -0.14337 0
M  V30 6716 H 615.265 -3.0119 -2.50583 0
M  V30 6717 H 616.962 -3.31426 -2.25738 0
M  V30 6718 H 613.552 -4.1453 -1.08916 0
M  V30 6719 H 617.736 -4.93673 -0.509975 0
M  V30 6720 H 612.992 -6.10751 0.281529 0
M  V30 6721 H 617.166 -6.91133 0.854849 0
M  V30 6722 H 614.793 -7.49742 1.25662 0
M  V30 6723 N 616.368 0.432326 -1.51554 0
M  V30 6724 C 617.593 1.20824 -1.68571 0
M  V30 6725 C 618.018 1.84126 -0.384596 0
M  V30 6726 O 617.376 1.69025 0.655751 0
M  V30 6727 C 617.424 2.26429 -2.80646 0
M  V30 6728 O 616.528 3.32032 -2.44598 0
M  V30 6729 H 615.869 0.353765 -0.561913 0
M  V30 6730 H 618.399 0.509916 -1.98144 0
M  V30 6731 H 618.409 2.71133 -3.04878 0
M  V30 6732 H 617.084 1.79733 -3.75058 0
M  V30 6733 H 615.661 2.92769 -2.30956 0
M  V30 6734 N 617.846 1.41785 0.688094 0
M  V30 6735 C 619.257 1.3701 1.26828 0
M  V30 6736 C 619.608 0.056835 1.96118 0
M  V30 6737 O 618.733 -0.84475 1.99231 0
M  V30 6738 C 619.328 2.48168 2.30648 0
M  V30 6739 C 617.887 2.46766 2.84224 0
M  V30 6740 C 617.034 2.27633 1.58361 0
M  V30 6741 H 619.985 1.51192 0.482351 0
M  V30 6742 H 620.006 2.17655 3.121 0
M  V30 6743 H 619.518 3.43735 1.80188 0
M  V30 6744 H 617.619 1.54978 3.3884 0
M  V30 6745 H 617.732 3.43342 3.34145 0
M  V30 6746 H 616.096 1.75648 1.84445 0
M  V30 6747 H 616.879 3.25238 1.09887 0
M  V30 6748 N 619.324 -0.923095 1.27737 0
M  V30 6749 C 620.234 -2.05765 1.12685 0
M  V30 6750 C 621.25 -1.73911 0.0557197 0
M  V30 6751 O 622.426 -1.99674 0.263137 0
M  V30 6752 C 619.491 -3.37804 0.780363 0
M  V30 6753 C 618.552 -3.83326 1.93286 0
M  V30 6754 C 617.785 -5.09064 1.60281 0
M  V30 6755 O 618.008 -5.6809 0.512828 0
M  V30 6756 O 616.942 -5.50071 2.44347 0
M  V30 6757 H 620.768 -2.21378 2.07907 0
M  V30 6758 H 618.353 -1.04299 1.06968 0
M  V30 6759 H 620.235 -4.17097 0.600668 0
M  V30 6760 H 618.91 -3.23387 -0.142291 0
M  V30 6761 H 617.817 -3.049 2.16764 0
M  V30 6762 H 619.15 -4.02292 2.83588 0
M  V30 6763 N 620.802 -1.09834 -1.13024 0
M  V30 6764 C 621.732 -0.763451 -2.20666 0
M  V30 6765 C 622.713 0.260778 -1.68089 0
M  V30 6766 O 623.898 0.127915 -1.93778 0
M  V30 6767 C 621.028 -0.187744 -3.46792 0
M  V30 6768 C 619.982 -1.14196 -4.12484 0
M  V30 6769 C 619.308 -0.427755 -5.32986 0
M  V30 6770 C 620.608 -2.48607 -4.59338 0
M  V30 6771 H 622.302 -1.66347 -2.48936 0
M  V30 6772 H 619.848 -0.801261 -1.19649 0
M  V30 6773 H 621.801 0.0586375 -4.21359 0
M  V30 6774 H 620.525 0.747485 -3.17931 0
M  V30 6775 H 619.184 -1.37369 -3.3989 0
M  V30 6776 H 618.832 0.511747 -5.0039 0
M  V30 6777 H 618.532 -1.06403 -5.77886 0
M  V30 6778 H 620.056 -0.189772 -6.10305 0
M  V30 6779 H 621.47 -2.29618 -5.25308 0
M  V30 6780 H 619.867 -3.08062 -5.14993 0
M  V30 6781 H 620.937 -3.09062 -3.73642 0
M  V30 6782 N 622.28 1.30327 -0.886154 0
M  V30 6783 C 623.696 1.48676 -0.580323 0
M  V30 6784 C 623.896 1.81189 0.881639 0
M  V30 6785 O 622.952 1.90021 1.66278 0
M  V30 6786 C 624.265 2.60932 -1.49449 0
M  V30 6787 C 625.813 2.74812 -1.49824 0
M  V30 6788 C 626.288 3.90183 -2.39836 0
M  V30 6789 N 627.779 3.97495 -2.37806 0
M  V30 6790 C 628.514 4.86078 -3.04165 0
M  V30 6791 N 628.01 5.79448 -3.79753 0
M  V30 6792 N 629.803 4.79456 -2.93391 0
M  V30 6793 H 621.954 1.07495 -1.8319 0
M  V30 6794 H 624.217 0.532661 -0.784204 0
M  V30 6795 H 623.923 2.43731 -2.5355 0
M  V30 6796 H 623.797 3.57437 -1.20494 0
M  V30 6797 H 626.184 2.91418 -0.464731 0
M  V30 6798 H 626.265 1.78924 -1.82811 0
M  V30 6799 H 625.909 3.74334 -3.43273 0
M  V30 6800 H 625.839 4.85411 -2.04166 0
M  V30 6801 H 628.33 3.30703 -1.82877 0
M  V30 6802 H 628.643 6.43805 -4.27475 0
M  V30 6803 H 626.988 5.79376 -3.8386 0
M  V30 6804 H 630.179 4.05494 -2.33864 0
M  V30 6805 H 630.352 5.48283 -3.45383 0
M  V30 6806 N 623.758 0.647228 1.43697 0
M  V30 6807 C 624.983 0.164083 2.0675 0
M  V30 6808 C 625.408 -1.15892 1.48158 0
M  V30 6809 O 624.766 -1.71459 0.589194 0
M  V30 6810 C 624.814 0.0800368 3.60511 0
M  V30 6811 O 623.918 -0.959453 4.01084 0
M  V30 6812 H 623.259 0.0921288 0.657578 0
M  V30 6813 H 625.789 0.88846 1.84303 0
M  V30 6814 H 625.799 -0.105263 4.07864 0
M  V30 6815 H 624.474 1.04586 4.02535 0
M  V30 6816 H 623.051 -0.747425 3.65333 0
M  V30 6817 N 625.236 -1.5273 0.388769 0
M  V30 6818 C 626.166 -2.29353 -0.438111 0
M  V30 6819 C 627.147 -1.32719 -1.06394 0
M  V30 6820 O 628.332 -1.61612 -1.07681 0
M  V30 6821 C 625.462 -3.09995 -1.56589 0
M  V30 6822 C 624.416 -4.14509 -1.06613 0
M  V30 6823 C 623.742 -4.83372 -2.28594 0
M  V30 6824 C 625.042 -5.22127 -0.134459 0
M  V30 6825 H 626.736 -2.98723 0.201206 0
M  V30 6826 H 624.282 -1.43665 0.0982089 0
M  V30 6827 H 626.235 -3.62357 -2.15118 0
M  V30 6828 H 624.959 -2.38357 -2.23279 0
M  V30 6829 H 623.618 -3.63128 -0.503383 0
M  V30 6830 H 623.266 -4.08283 -2.93792 0
M  V30 6831 H 622.966 -5.54012 -1.95817 0
M  V30 6832 H 624.49 -5.38538 -2.87766 0
M  V30 6833 H 625.904 -5.69851 -0.627914 0
M  V30 6834 H 624.301 -6.00011 0.103534 0
M  V30 6835 H 625.371 -4.77971 0.816798 0
M  V30 6836 N 626.714 -0.118576 -1.57153 0
M  V30 6837 C 627.644 0.828436 -2.1831 0
M  V30 6838 C 628.625 1.27758 -1.12303 0
M  V30 6839 O 629.81 1.34026 -1.40537 0
M  V30 6840 C 626.94 2.07876 -2.78217 0
M  V30 6841 C 625.894 1.76742 -3.89803 0
M  V30 6842 C 625.22 3.08801 -4.36516 0
M  V30 6843 C 626.52 1.03606 -5.11921 0
M  V30 6844 H 628.214 0.318824 -2.97698 0
M  V30 6845 H 625.76 0.151911 -1.43196 0
M  V30 6846 H 627.713 2.74584 -3.19659 0
M  V30 6847 H 626.437 2.61161 -1.96118 0
M  V30 6848 H 625.096 1.12424 -3.48936 0
M  V30 6849 H 624.744 3.6002 -3.51276 0
M  V30 6850 H 624.444 2.88743 -5.11763 0
M  V30 6851 H 625.968 3.76627 -4.80608 0
M  V30 6852 H 627.382 1.60467 -5.50385 0
M  V30 6853 H 625.779 0.936454 -5.92748 0
M  V30 6854 H 626.849 0.0227421 -4.84895 0
M  V30 6855 N 628.193 1.56834 0.155195 0
M  V30 6856 C 629.103 2.009 1.21146 0
M  V30 6857 C 630.119 0.923029 1.475 0
M  V30 6858 O 631.295 1.23189 1.59331 0
M  V30 6859 C 628.36 2.37378 2.52691 0
M  V30 6860 C 627.421 3.59883 2.34057 0
M  V30 6861 C 626.654 3.94612 3.59329 0
M  V30 6862 O 626.877 3.30104 4.65175 0
M  V30 6863 O 625.811 4.87895 3.52479 0
M  V30 6864 H 629.637 2.9105 0.867371 0
M  V30 6865 H 627.222 1.44916 0.363298 0
M  V30 6866 H 629.104 2.61737 3.3026 0
M  V30 6867 H 627.779 1.50385 2.86646 0
M  V30 6868 H 626.686 3.40722 1.54465 0
M  V30 6869 H 628.019 4.47468 2.0502 0
M  V30 6870 N 629.671 -0.424282 1.51781 0
M  V30 6871 C 630.919 -1.17028 1.64769 0
M  V30 6872 C 631.24 -1.91409 0.372523 0
M  V30 6873 O 630.51 -1.86091 -0.612108 0
M  V30 6874 H 629.09 -0.434992 0.607282 0
M  V30 6875 H 631.752 -0.485169 1.88765 0
M  V30 6876 H 630.848 -1.8927 2.4816 0
M  V30 6877 N 631.149 -1.42148 -0.680565 0
M  V30 6878 C 632.079 -1.4796 -1.80638 0
M  V30 6879 C 633.06 -0.336728 -1.66734 0
M  V30 6880 O 634.245 -0.550247 -1.86242 0
M  V30 6881 C 631.375 -1.37569 -3.18892 0
M  V30 6882 C 630.329 -2.49823 -3.47524 0
M  V30 6883 C 629.655 -2.24491 -4.85291 0
M  V30 6884 C 630.955 -3.92144 -3.44994 0
M  V30 6885 H 632.649 -2.42184 -1.76032 0
M  V30 6886 H 630.195 -1.16566 -0.845481 0
M  V30 6887 H 632.148 -1.40243 -3.97379 0
M  V30 6888 H 630.872 -0.398357 -3.24162 0
M  V30 6889 H 629.531 -2.46455 -2.71395 0
M  V30 6890 H 629.179 -1.25066 -4.87204 0
M  V30 6891 H 628.879 -2.99722 -5.05411 0
M  V30 6892 H 630.403 -2.28906 -5.66069 0
M  V30 6893 H 631.817 -3.97145 -4.13459 0
M  V30 6894 H 630.214 -4.67179 -3.76648 0
M  V30 6895 H 631.284 -4.19225 -2.43676 0
M  V30 6896 N 632.627 0.916307 -1.28225 0
M  V30 6897 C 633.557 2.0352 -1.14464 0
M  V30 6898 C 634.538 1.70045 -0.0430844 0
M  V30 6899 O 635.723 1.92954 -0.219619 0
M  V30 6900 C 632.853 3.37889 -0.803027 0
M  V30 6901 C 631.807 3.85516 -1.85908 0
M  V30 6902 C 631.133 5.1682 -1.37116 0
M  V30 6903 C 632.433 4.07655 -3.26519 0
M  V30 6904 H 634.127 2.1529 -2.08064 0
M  V30 6905 H 631.673 1.03446 -1.00174 0
M  V30 6906 H 633.626 4.15654 -0.693537 0
M  V30 6907 H 632.35 3.26164 0.168674 0
M  V30 6908 H 631.009 3.09953 -1.95767 0
M  V30 6909 H 630.657 5.01497 -0.38859 0
M  V30 6910 H 630.357 5.49657 -2.07728 0
M  V30 6911 H 631.881 5.97143 -1.27484 0
M  V30 6912 H 633.295 4.75953 -3.19596 0
M  V30 6913 H 631.692 4.51818 -3.94943 0
M  V30 6914 H 632.762 3.12553 -3.70727 0
M  V30 6915 N 634.105 1.10431 1.1244 0
M  V30 6916 C 635.037 0.710945 2.17895 0
M  V30 6917 C 636.05 -0.252315 1.60833 0
M  V30 6918 O 637.239 -0.03679 1.78462 0
M  V30 6919 C 634.339 0.0284262 3.38888 0
M  V30 6920 C 633.512 1.01585 4.2544 0
M  V30 6921 C 632.571 0.364826 5.24934 0
M  V30 6922 O 631.597 1.01561 5.60066 0
M  V30 6923 N 632.799 -0.87674 5.73841 0
M  V30 6924 H 635.564 1.61826 2.52255 0
M  V30 6925 H 633.125 0.993132 1.27861 0
M  V30 6926 H 635.117 -0.418568 4.0253 0
M  V30 6927 H 633.687 -0.781294 3.02679 0
M  V30 6928 H 632.907 1.64111 3.58415 0
M  V30 6929 H 634.195 1.68425 4.80115 0
M  V30 6930 H 633.593 -1.42483 5.47462 0
M  V30 6931 H 632.15 -1.26688 6.39369 0
M  V30 6932 N 635.583 -1.29855 0.893053 0
M  V30 6933 C 636.999 -1.48366 0.588199 0
M  V30 6934 C 637.199 -1.81654 -0.872018 0
M  V30 6935 O 636.255 -1.909 -1.65268 0
M  V30 6936 C 637.568 -2.60136 1.5083 0
M  V30 6937 C 639.116 -2.74014 1.51279 0
M  V30 6938 C 639.591 -3.88905 2.41902 0
M  V30 6939 N 641.082 -3.96228 2.39911 0
M  V30 6940 C 641.817 -4.84458 3.06738 0
M  V30 6941 N 641.313 -5.77426 3.8282 0
M  V30 6942 N 643.106 -4.77894 2.95929 0
M  V30 6943 H 635.257 -1.06522 1.83757 0
M  V30 6944 H 637.52 -0.528495 0.787018 0
M  V30 6945 H 637.226 -2.42383 2.54839 0
M  V30 6946 H 637.1 -3.56793 1.22388 0
M  V30 6947 H 639.487 -2.91167 0.480179 0
M  V30 6948 H 639.568 -1.77952 1.83757 0
M  V30 6949 H 639.212 -3.72508 3.45253 0
M  V30 6950 H 639.142 -4.84322 2.06737 0
M  V30 6951 H 641.633 -3.29728 1.84629 0
M  V30 6952 H 641.946 -6.41529 4.30883 0
M  V30 6953 H 640.291 -5.77332 3.86927 0
M  V30 6954 H 643.482 -4.04248 2.36012 0
M  V30 6955 H 643.655 -5.46444 3.48286 0
M  V30 6956 N 637.061 -0.65484 -1.43351 0
M  V30 6957 C 638.338 -0.0987371 -1.95351 0
M  V30 6958 C 638.718 1.38161 -1.59608 0
M  V30 6959 O 638.066 2.10791 -0.882021 0
M  V30 6960 C 638.276 -0.346684 -3.47274 0
M  V30 6961 C 639.624 -0.25249 -4.23849 0
M  V30 6962 O 640.648 -0.279332 -3.55103 0
M  V30 6963 O 639.507 -0.177584 -5.46211 0
M  V30 6964 H 636.601 0.0086829 -0.826954 0
M  V30 6965 H 639.147 -0.728189 -1.53282 0
M  V30 6966 H 637.919 -1.37296 -3.66423 0
M  V30 6967 H 637.542 0.315757 -3.96344 0
M  V30 6968 N 638.539 1.52521 -0.396863 0
M  V30 6969 C 639.785 2.01971 0.183169 0
M  V30 6970 C 640.118 1.2825 1.45827 0
M  V30 6971 O 639.393 0.385179 1.90648 0
M  V30 6972 C 639.676 3.5736 0.443391 0
M  V30 6973 C 639.529 4.41743 -0.84753 0
M  V30 6974 C 640.848 4.22539 1.2308 0
M  V30 6975 H 637.967 0.734119 0.0650976 0
M  V30 6976 H 640.609 1.82519 -0.527918 0
M  V30 6977 H 638.759 3.74066 1.04914 0
M  V30 6978 H 640.431 4.36773 -1.48414 0
M  V30 6979 H 638.674 4.0845 -1.4612 0
M  V30 6980 H 639.345 5.48507 -0.620003 0
M  V30 6981 H 641.821 4.09857 0.718084 0
M  V30 6982 H 640.697 5.31227 1.38162 0
M  V30 6983 H 640.958 3.80675 2.24808 0
M  V30 6984 N 640.017 0.126909 1.57088 0
M  V30 6985 C 640.965 -0.837618 2.16995 0
M  V30 6986 C 641.959 -1.26974 1.12133 0
M  V30 6987 O 643.165 -1.24056 1.30423 0
M  V30 6988 H 639.54 -0.288256 0.694559 0
M  V30 6989 H 641.511 -0.307957 2.96807 0
M  V30 6990 C 640.26 -2.07474 2.79016 0
M  V30 6991 H 639.583 -1.75117 3.59408 0
M  V30 6992 H 641.023 -2.72949 3.24461 0
M  V30 6993 C 639.482 -2.86967 1.76498 0
M  V30 6994 O 640.012 -3.82625 1.22316 0
M  V30 6995 N 638.218 -2.51111 1.46258 0
M  V30 6996 H 637.765 -1.73389 1.90509 0
M  V30 6997 H 637.723 -3.04594 0.779085 0
M  V30 6998 N 641.495 -1.56914 -0.146875 0
M  V30 6999 C 642.911 -1.51582 -0.499518 0
M  V30 7000 C 643.111 -0.83535 -1.83369 0
M  V30 7001 O 642.167 -0.405932 -2.49216 0
M  V30 7002 C 643.48 -2.96349 -0.509711 0
M  V30 7003 C 645.028 -3.07288 -0.595217 0
M  V30 7004 C 645.503 -4.53562 -0.636071 0
M  V30 7005 N 646.994 -4.57906 -0.69829 0
M  V30 7006 C 647.729 -5.68462 -0.750886 0
M  V30 7007 N 647.225 -6.88588 -0.76282 0
M  V30 7008 N 649.018 -5.56496 -0.791777 0
M  V30 7009 H 641.169 -1.99547 0.727656 0
M  V30 7010 H 643.432 -0.910113 0.265327 0
M  V30 7011 H 643.138 -3.4939 0.402409 0
M  V30 7012 H 643.012 -3.52307 -1.34758 0
M  V30 7013 H 645.399 -2.54266 -1.49776 0
M  V30 7014 H 645.48 -2.54373 0.2698 0
M  V30 7015 H 645.124 -5.07222 0.262313 0
M  V30 7016 H 645.054 -5.04259 -1.51758 0
M  V30 7017 H 647.545 -3.71429 -0.696362 0
M  V30 7018 H 647.858 -7.68598 -0.804804 0
M  V30 7019 H 646.203 -6.91148 -0.730694 0
M  V30 7020 H 649.394 -4.61562 -0.779624 0
M  V30 7021 H 649.567 -6.42671 -0.829301 0
M  V30 7022 N 642.974 0.416227 -1.52004 0
M  V30 7023 C 644.39 0.754319 -1.40649 0
M  V30 7024 C 644.59 1.95059 -0.505392 0
M  V30 7025 O 643.646 2.5248 0.0315057 0
M  V30 7026 C 644.959 1.0149 -2.83055 0
M  V30 7027 C 646.507 1.11805 -2.9235 0
M  V30 7028 C 646.982 1.41144 -4.35709 0
M  V30 7029 N 648.473 1.48024 -4.38911 0
M  V30 7030 C 649.208 1.72338 -5.46889 0
M  V30 7031 N 648.704 1.94303 -6.64995 0
M  V30 7032 N 650.497 1.74294 -5.34395 0
M  V30 7033 H 642.648 -0.371324 -2.09129 0
M  V30 7034 H 644.911 -0.103811 -0.942299 0
M  V30 7035 H 644.617 0.208345 -3.51082 0
M  V30 7036 H 644.491 1.93697 -3.23668 0
M  V30 7037 H 646.878 1.91521 -2.24508 0
M  V30 7038 H 646.959 0.17451 -2.55204 0
M  V30 7039 H 646.603 0.619484 -5.04108 0
M  V30 7040 H 646.533 2.36739 -4.70385 0
M  V30 7041 H 649.024 1.32868 -3.53772 0
M  V30 7042 H 649.337 2.12286 -7.43071 0
M  V30 7043 H 647.682 1.91582 -6.68073 0
M  V30 7044 H 650.873 1.56667 -4.41104 0
M  V30 7045 H 651.046 1.92904 -6.18621 0
M  V30 7046 N 644.452 1.42507 0.673017 0
M  V30 7047 C 645.382 1.48916 1.79851 0
M  V30 7048 C 646.363 0.345566 1.66553 0
M  V30 7049 O 647.548 0.560116 1.85947 0
M  V30 7050 C 644.678 1.39258 3.18158 0
M  V30 7051 C 643.632 2.51662 3.46194 0
M  V30 7052 C 642.958 2.27062 4.84094 0
M  V30 7053 C 644.258 3.93968 3.42909 0
M  V30 7054 H 645.952 2.43114 1.74745 0
M  V30 7055 H 643.498 1.17013 0.839288 0
M  V30 7056 H 645.451 1.42349 3.96629 0
M  V30 7057 H 644.175 0.415542 3.23946 0
M  V30 7058 H 642.834 2.47891 2.70084 0
M  V30 7059 H 642.482 1.27648 4.86534 0
M  V30 7060 H 642.182 3.02398 5.03815 0
M  V30 7061 H 643.706 2.31905 5.64847 0
M  V30 7062 H 645.12 3.99332 4.11347 0
M  V30 7063 H 643.517 4.6917 3.74165 0
M  V30 7064 H 644.587 4.20512 2.41449 0
M  V30 7065 N 645.93 -0.909495 1.28709 0
M  V30 7066 C 647.178 -1.65577 1.15882 0
M  V30 7067 C 647.499 -1.928 -0.292108 0
M  V30 7068 O 646.769 -1.54716 -1.20166 0
M  V30 7069 H 645.349 -0.613714 0.425869 0
M  V30 7070 H 648.011 -1.09108 1.61498 0
M  V30 7071 H 647.107 -2.61634 1.70159 0
M  V30 7072 N 647.408 -1.11026 -1.11852 0
M  V30 7073 C 648.648 -0.866348 -1.85132 0
M  V30 7074 C 649.012 0.597236 -1.82475 0
M  V30 7075 O 650.213 0.957744 -2.51159 0
M  V30 7076 C 648.484 -1.40721 -3.28531 0
M  V30 7077 S 650.043 -1.29964 -4.19112 0
M  V30 7078 H 646.861 -0.312899 -0.638447 0
M  V30 7079 H 649.463 -1.41691 -1.34699 0
M  V30 7080 H 648.167 -2.46631 -3.28027 0
M  V30 7081 H 647.698 -0.85349 -3.8403 0
M  V30 7082 H 649.713 -0.261333 -4.95511 0
M  V30 7083 N 648.886 1.2938 -0.899927 0
M  V30 7084 C 649.816 2.30144 -0.39446 0
M  V30 7085 C 650.797 1.61611 0.530639 0
M  V30 7086 O 651.982 1.89119 0.441319 0
M  V30 7087 C 649.112 3.45229 0.37868 0
M  V30 7088 C 648.066 4.25564 -0.456012 0
M  V30 7089 C 647.392 5.32848 0.444637 0
M  V30 7090 C 648.692 4.93651 -1.70605 0
M  V30 7091 H 650.386 2.72673 -1.23653 0
M  V30 7092 H 647.932 1.31086 -0.596034 0
M  V30 7093 H 649.885 4.14797 0.743037 0
M  V30 7094 H 648.609 3.01545 1.25453 0
M  V30 7095 H 647.268 3.57704 -0.802704 0
M  V30 7096 H 646.916 4.85408 1.31863 0
M  V30 7097 H 646.616 5.87497 -0.110154 0
M  V30 7098 H 648.14 6.05268 0.805182 0
M  V30 7099 H 649.554 5.55655 -1.41141 0
M  V30 7100 H 647.951 5.58233 -2.20217 0
M  V30 7101 H 649.021 4.18926 -2.4419 0
M  V30 7102 N 650.364 0.662433 1.43002 0
M  V30 7103 C 651.612 0.179237 2.01304 0
M  V30 7104 C 651.933 -1.21428 1.52579 0
M  V30 7105 O 651.203 -1.81294 0.742252 0
M  V30 7106 H 649.783 0.0632725 0.744316 0
M  V30 7107 H 652.445 0.856169 1.75088 0
M  V30 7108 H 651.541 0.170957 3.11631 0
M  V30 7109 N 651.842 -1.52309 0.404946 0
M  V30 7110 C 653.258 -1.59503 0.0556255 0
M  V30 7111 C 653.458 -1.41805 -1.43156 0
M  V30 7112 O 652.514 -1.2429 -2.19792 0
M  V30 7113 C 653.827 -2.95687 0.546801 0
M  V30 7114 C 655.375 -3.08909 0.504413 0
M  V30 7115 C 655.85 -4.47566 0.97203 0
M  V30 7116 N 657.341 -4.53795 0.928679 0
M  V30 7117 C 658.076 -5.59346 1.26174 0
M  V30 7118 N 657.572 -6.72469 1.66604 0
M  V30 7119 N 659.365 -5.49532 1.18198 0
M  V30 7120 H 651.516 -1.6206 1.37296 0
M  V30 7121 H 653.779 -0.762161 0.563751 0
M  V30 7122 H 653.485 -3.13905 1.58609 0
M  V30 7123 H 653.359 -3.77172 -0.0457905 0
M  V30 7124 H 655.746 -2.90378 -0.525819 0
M  V30 7125 H 655.827 -2.2934 1.13301 0
M  V30 7126 H 655.471 -4.6684 2.00057 0
M  V30 7127 H 655.401 -5.25625 0.320292 0
M  V30 7128 H 657.892 -3.72588 0.631369 0
M  V30 7129 H 658.205 -7.48993 1.9034 0
M  V30 7130 H 656.55 -6.73761 1.70504 0
M  V30 7131 H 659.741 -4.60038 0.865011 0
M  V30 7132 H 659.914 -6.31687 1.44485 0
M  V30 7133 N 653.32 -0.135238 -1.57019 0
M  V30 7134 C 654.568 0.51777 -1.95355 0
M  V30 7135 C 654.889 1.6617 -1.02042 0
M  V30 7136 O 654.159 1.95738 -0.0797343 0
M  V30 7137 H 652.739 0.194264 -0.721298 0
M  V30 7138 H 655.401 -0.207983 -1.93787 0
M  V30 7139 H 654.497 0.901675 -2.98791 0
M  V30 7140 N 654.798 1.5699 0.138552 0
M  V30 7141 C 655.761 1.97984 1.15478 0
M  V30 7142 C 656.761 0.867416 1.35398 0
M  V30 7143 O 657.951 1.13387 1.32246 0
M  V30 7144 C 655.083 2.3031 2.51337 0
M  V30 7145 H 656.276 2.88953 0.802896 0
M  V30 7146 H 653.829 1.51555 0.382189 0
M  V30 7147 H 654.564 1.42159 2.91481 0
M  V30 7148 H 654.349 3.11425 2.38237 0
M  V30 7149 H 655.839 2.62834 3.24512 0
M  V30 7150 N 656.276 -0.40816 1.52223 0
M  V30 7151 C 657.208 -1.51642 1.71864 0
M  V30 7152 C 658.221 -1.51378 0.599056 0
M  V30 7153 O 659.41 -1.55626 0.874239 0
M  V30 7154 C 656.51 -2.90534 1.74481 0
M  V30 7155 C 655.683 -3.14979 3.03491 0
M  V30 7156 C 654.742 -4.33749 2.97907 0
M  V30 7157 O 653.768 -4.30982 3.71811 0
M  V30 7158 N 654.97 -5.38912 2.15764 0
M  V30 7159 H 657.735 -1.35188 2.67478 0
M  V30 7160 H 655.296 -0.597468 1.50472 0
M  V30 7161 H 657.288 -3.68056 1.68275 0
M  V30 7162 H 655.858 -3.00441 0.863363 0
M  V30 7163 H 655.078 -2.25492 3.23337 0
M  V30 7164 H 656.366 -3.28156 3.88833 0
M  V30 7165 H 655.764 -5.44008 1.55152 0
M  V30 7166 H 654.321 -6.15174 2.15415 0
M  V30 7167 N 657.755 -1.42862 -0.66545 0
M  V30 7168 C 658.665 -1.49491 -1.80803 0
M  V30 7169 C 659.681 -0.382914 -1.69734 0
M  V30 7170 O 660.857 -0.635223 -1.9112 0
M  V30 7171 C 657.922 -1.40383 -3.17007 0
M  V30 7172 C 656.983 -2.62152 -3.39963 0
M  V30 7173 C 656.216 -2.53469 -4.69669 0
M  V30 7174 O 656.439 -1.57568 -5.48205 0
M  V30 7175 O 655.373 -3.43763 -4.94075 0
M  V30 7176 H 659.199 -2.45949 -1.78165 0
M  V30 7177 H 656.784 -1.24728 -0.822387 0
M  V30 7178 H 658.666 -1.377 -3.98267 0
M  V30 7179 H 657.341 -0.470546 -3.20262 0
M  V30 7180 H 656.248 -2.70409 -2.58515 0
M  V30 7181 H 657.581 -3.54411 -3.41546 0
M  V30 7182 N 659.233 0.902656 -1.29189 0
M  V30 7183 C 660.479 1.65532 -1.17163 0
M  V30 7184 C 660.812 1.92216 0.276879 0
M  V30 7185 O 660.087 1.53048 1.20027 0
M  V30 7186 C 660.37 3.00629 -1.98228 0
M  V30 7187 C 660.223 2.81029 -3.51202 0
M  V30 7188 C 661.542 4.01321 -1.80635 0
M  V30 7189 H 658.661 0.60071 -0.426985 0
M  V30 7190 H 661.303 1.04578 -1.5863 0
M  V30 7191 H 659.453 3.52656 -1.62991 0
M  V30 7192 H 661.125 2.35927 -3.96404 0
M  V30 7193 H 659.368 2.1587 -3.76275 0
M  V30 7194 H 660.039 3.77014 -4.03192 0
M  V30 7195 H 662.515 3.58394 -2.11406 0
M  V30 7196 H 661.391 4.93792 -2.3971 0
M  V30 7197 H 661.652 4.35505 -0.760754 0
M  V30 7198 N 660.711 1.11618 1.11262 0
M  V30 7199 C 661.658 0.7762 2.17356 0
M  V30 7200 C 662.628 -0.253152 1.6416 0
M  V30 7201 O 663.813 -0.129655 1.90359 0
M  V30 7202 C 660.953 0.227581 3.44349 0
M  V30 7203 C 660.066 1.31372 4.1154 0
M  V30 7204 C 659.201 0.72544 5.26223 0
M  V30 7205 C 658.24 1.7913 5.85302 0
M  V30 7206 N 657.377 1.22237 6.91377 0
M  V30 7207 H 662.217 1.68508 2.45783 0
M  V30 7208 H 659.754 0.841475 1.20655 0
M  V30 7209 H 661.712 -0.108483 4.17059 0
M  V30 7210 H 660.342 -0.644486 3.16301 0
M  V30 7211 H 659.394 1.7667 3.36885 0
M  V30 7212 H 660.706 2.12005 4.51504 0
M  V30 7213 H 659.86 0.339541 6.05749 0
M  V30 7214 H 658.599 -0.112188 4.87571 0
M  V30 7215 H 657.604 2.18648 5.04453 0
M  V30 7216 H 658.829 2.63199 6.26022 0
M  V30 7217 H 656.775 0.406423 6.5474 0
M  V30 7218 H 656.692 1.9654 7.30006 0
M  V30 7219 H 657.96 0.863426 7.74703 0
M  V30 7220 N 662.189 -1.289 0.906776 0
M  V30 7221 C 663.099 -2.31256 0.394707 0
M  V30 7222 C 664.115 -1.66231 -0.514121 0
M  V30 7223 O 665.291 -1.97347 -0.401994 0
M  V30 7224 C 662.356 -3.44792 -0.363191 0
M  V30 7225 C 661.417 -4.25391 0.578012 0
M  V30 7226 C 660.65 -5.33506 -0.143811 0
M  V30 7227 O 660.873 -5.53786 -1.36665 0
M  V30 7228 O 659.807 -5.99673 0.5173 0
M  V30 7229 H 663.633 -2.77051 1.24405 0
M  V30 7230 H 661.218 -1.33466 0.671346 0
M  V30 7231 H 663.1 -4.139 -0.791503 0
M  V30 7232 H 661.775 -3.01093 -1.18848 0
M  V30 7233 H 660.682 -3.58899 1.05558 0
M  V30 7234 H 662.015 -4.72752 1.36992 0
M  V30 7235 N 663.667 -0.670007 -1.42649 0
M  V30 7236 C 664.892 -0.196955 -2.06463 0
M  V30 7237 C 665.317 1.1352 -1.49983 0
M  V30 7238 O 664.675 1.705 -0.616397 0
M  V30 7239 C 664.723 -0.137381 -3.60338 0
M  V30 7240 O 663.827 0.895523 -4.02559 0
M  V30 7241 H 663.168 -0.102579 -0.656029 0
M  V30 7242 H 665.698 -0.917669 -1.82866 0
M  V30 7243 H 665.708 0.0403625 -4.0798 0
M  V30 7244 H 664.383 -1.10977 -4.0082 0
M  V30 7245 H 662.96 0.689209 -3.66476 0
M  V30 7246 N 665.145 1.52092 -0.413018 0
M  V30 7247 C 666.556 1.86617 0.0556967 0
M  V30 7248 C 666.907 1.33156 1.44097 0
M  V30 7249 O 666.032 0.672417 2.05688 0
M  V30 7250 C 666.627 3.38628 0.107844 0
M  V30 7251 C 665.186 3.72778 0.520904 0
M  V30 7252 C 664.333 2.75649 -0.302109 0
M  V30 7253 H 667.284 1.45663 -0.629919 0
M  V30 7254 H 667.305 3.69152 0.922324 0
M  V30 7255 H 666.817 3.77508 -0.900506 0
M  V30 7256 H 664.918 3.39478 1.53575 0
M  V30 7257 H 665.031 4.7838 0.262591 0
M  V30 7258 H 663.395 2.53603 0.236115 0
M  V30 7259 H 664.178 3.17369 -1.30888 0
M  V30 7260 N 666.623 0.143563 1.56945 0
M  V30 7261 C 667.87 -0.508407 1.96014 0
M  V30 7262 C 668.198 -1.65099 1.02824 0
M  V30 7263 O 667.453 -1.95618 0.0567764 0
M  V30 7264 C 667.752 -1.05885 3.41355 0
M  V30 7265 C 667.418 -0.0350809 4.50886 0
M  V30 7266 C 666.08 0.246362 4.80569 0
M  V30 7267 C 668.432 0.661282 5.16988 0
M  V30 7268 C 665.76 1.23003 5.73661 0
M  V30 7269 C 668.112 1.63375 6.11139 0
M  V30 7270 C 666.776 1.92292 6.39203 0
M  V30 7271 H 666.046 -0.186039 0.717266 0
M  V30 7272 H 668.693 0.229667 1.90118 0
M  V30 7273 H 666.998 -1.87419 3.44066 0
M  V30 7274 H 668.695 -1.57183 3.6891 0
M  V30 7275 H 665.285 -0.264622 4.27782 0
M  V30 7276 H 669.469 0.457038 4.94191 0
M  V30 7277 H 664.725 1.46056 5.93698 0
M  V30 7278 H 668.899 2.17887 6.61436 0
M  V30 7279 H 666.526 2.68666 7.11142 0
M  V30 7280 N 668.101 -1.57061 -0.130224 0
M  V30 7281 C 669.348 -1.84257 -0.839972 0
M  V30 7282 C 669.676 -0.726986 -1.80403 0
M  V30 7283 O 668.931 0.282632 -1.93648 0
M  V30 7284 C 669.23 -3.17878 -1.63365 0
M  V30 7285 C 668.896 -4.43475 -0.814891 0
M  V30 7286 C 667.558 -4.77581 -0.589066 0
M  V30 7287 C 669.91 -5.20631 -0.243437 0
M  V30 7288 C 667.238 -5.86292 0.218648 0
M  V30 7289 C 669.59 -6.30192 0.551408 0
M  V30 7290 C 668.254 -6.62837 0.787653 0
M  V30 7291 H 667.524 -0.674245 -0.307367 0
M  V30 7292 H 670.171 -1.91224 -0.102832 0
M  V30 7293 H 668.476 -3.06437 -2.44138 0
M  V30 7294 H 670.173 -3.3614 -2.18658 0
M  V30 7295 H 666.763 -4.16747 -1.00098 0
M  V30 7296 H 670.947 -4.94644 -0.405145 0
M  V30 7297 H 666.203 -6.10017 0.411016 0
M  V30 7298 H 670.377 -6.89165 1.00126 0
M  V30 7299 H 668.004 -7.46908 1.41537 0
M  V30 7300 N 669.579 0.400081 -1.52437 0
M  V30 7301 C 670.995 0.739359 -1.41441 0
M  V30 7302 C 671.195 1.94512 -0.526053 0
M  V30 7303 O 670.251 2.525 0.00472502 0
M  V30 7304 C 671.564 0.984824 -2.84116 0
M  V30 7305 C 673.112 1.08698 -2.93519 0
M  V30 7306 C 673.587 1.36515 -4.37181 0
M  V30 7307 N 675.078 1.43361 -4.40457 0
M  V30 7308 C 675.813 1.66528 -5.48686 0
M  V30 7309 N 675.309 1.87239 -6.67018 0
M  V30 7310 N 677.102 1.68617 -5.36213 0
M  V30 7311 H 669.253 -0.393484 -2.08723 0
M  V30 7312 H 671.516 -0.1138 -0.941145 0
M  V30 7313 H 671.222 0.171096 -3.51284 0
M  V30 7314 H 671.096 1.90253 -3.25705 0
M  V30 7315 H 673.483 1.89129 -2.26526 0
M  V30 7316 H 673.564 0.147432 -2.55375 0
M  V30 7317 H 673.208 0.565982 -5.04737 0
M  V30 7318 H 673.138 2.31737 -4.7287 0
M  V30 7319 H 675.629 1.29108 -3.55161 0
M  V30 7320 H 675.942 2.04392 -7.45281 0
M  V30 7321 H 674.287 1.84486 -6.70067 0
M  V30 7322 H 677.478 1.5198 -4.42741 0
M  V30 7323 H 677.651 1.86332 -6.20632 0
M  V30 7324 N 671.057 1.43213 0.657864 0
M  V30 7325 C 672.282 1.48227 1.45064 0
M  V30 7326 C 672.707 0.0999939 1.87834 0
M  V30 7327 O 672.065 -0.905269 1.57081 0
M  V30 7328 C 672.113 2.42931 2.6649 0
M  V30 7329 O 671.217 1.91237 3.6538 0
M  V30 7330 H 670.558 0.501551 0.435135 0
M  V30 7331 H 673.088 1.8808 0.805431 0
M  V30 7332 H 673.098 2.6008 3.1436 0
M  V30 7333 H 671.773 3.43348 2.34701 0
M  V30 7334 H 670.35 1.83726 3.24498 0
M  V30 7335 N 672.536 -0.895792 1.29666 0
M  V30 7336 C 673.466 -2.01673 1.17688 0
M  V30 7337 C 674.447 -1.69955 0.0701317 0
M  V30 7338 O 675.632 -1.9258 0.250289 0
M  V30 7339 C 672.762 -3.36568 0.856681 0
M  V30 7340 C 671.716 -3.82509 1.92017 0
M  V30 7341 C 671.042 -5.14574 1.4532 0
M  V30 7342 C 672.342 -4.02409 3.32963 0
M  V30 7343 H 674.036 -2.11953 2.11463 0
M  V30 7344 H 671.582 -1.01839 1.01807 0
M  V30 7345 H 673.535 -4.14498 0.759577 0
M  V30 7346 H 672.259 -3.26391 -0.116763 0
M  V30 7347 H 670.918 -3.068 2.00673 0
M  V30 7348 H 670.566 -5.00815 0.468325 0
M  V30 7349 H 670.266 -5.46283 2.16447 0
M  V30 7350 H 671.79 -5.9504 1.36968 0
M  V30 7351 H 673.204 -4.70808 3.27127 0
M  V30 7352 H 671.601 -4.45478 4.02082 0
M  V30 7353 H 672.671 -3.06616 3.75652 0
M  V30 7354 N 674.014 -1.12206 -1.10668 0
M  V30 7355 C 675.291 -0.787382 -1.79052 0
M  V30 7356 C 675.671 0.723267 -1.98323 0
M  V30 7357 O 675.019 1.6561 -1.57434 0
M  V30 7358 C 675.229 -1.55968 -3.1221 0
M  V30 7359 C 676.577 -1.74413 -3.87125 0
M  V30 7360 O 677.601 -1.5246 -3.21923 0
M  V30 7361 O 676.46 -2.10952 -5.04144 0
M  V30 7362 H 673.554 -0.286137 -0.775922 0
M  V30 7363 H 676.1 -1.22595 -1.1734 0
M  V30 7364 H 674.872 -2.58692 -2.93588 0
M  V30 7365 H 674.495 -1.1152 -3.8164 0
M  V30 7366 N 675.492 1.28418 -0.913599 0
M  V30 7367 C 676.738 1.95627 -0.556933 0
M  V30 7368 C 677.093 1.706 0.889565 0
M  V30 7369 O 676.386 1.01637 1.6242 0
M  V30 7370 C 676.58 3.48283 -0.802099 0
M  V30 7371 C 676.409 3.88151 -2.27088 0
M  V30 7372 C 675.179 4.1232 -2.92096 0
M  V30 7373 C 677.377 3.98819 -3.24728 0
M  V30 7374 N 675.359 4.3886 -4.29272 0
M  V30 7375 C 676.73 4.29571 -4.47067 0
M  V30 7376 C 678.785 3.81342 -3.20129 0
M  V30 7377 C 677.488 4.44667 -5.65388 0
M  V30 7378 C 679.514 3.97656 -4.37749 0
M  V30 7379 C 678.876 4.2878 -5.58862 0
M  V30 7380 H 674.975 0.739715 -0.253664 0
M  V30 7381 H 677.559 1.55074 -1.1773 0
M  V30 7382 H 675.73 3.87826 -0.211007 0
M  V30 7383 H 677.462 4.02623 -0.409478 0
M  V30 7384 H 674.217 4.06611 -2.42826 0
M  V30 7385 H 674.641 4.56214 -5.00198 0
M  V30 7386 H 679.283 3.56331 -2.2757 0
M  V30 7387 H 677.001 4.68509 -6.58426 0
M  V30 7388 H 680.587 3.85569 -4.35692 0
M  V30 7389 H 679.467 4.41136 -6.48359 0
M  V30 7390 N 676.97 0.677563 1.42291 0
M  V30 7391 C 677.902 -0.0380218 2.29168 0
M  V30 7392 C 678.915 -0.762714 1.43828 0
M  V30 7393 O 680.104 -0.616413 1.67519 0
M  V30 7394 C 677.204 -1.07761 3.21311 0
M  V30 7395 C 676.377 -0.42618 4.35319 0
M  V30 7396 C 675.436 -1.36592 5.08162 0
M  V30 7397 O 674.462 -0.865174 5.62586 0
M  V30 7398 N 675.664 -2.69909 5.13935 0
M  V30 7399 H 678.429 0.707766 2.91223 0
M  V30 7400 H 675.99 0.52219 1.53247 0
M  V30 7401 H 677.982 -1.70761 3.6691 0
M  V30 7402 H 676.552 -1.72511 2.60689 0
M  V30 7403 H 675.772 0.383385 3.92331 0
M  V30 7404 H 677.06 0.0275277 5.08793 0
M  V30 7405 H 676.458 -3.13129 4.71134 0
M  V30 7406 H 675.015 -3.2815 5.6317 0
M  V30 7407 N 678.448 -1.51871 0.421078 0
M  V30 7408 C 679.381 -2.23851 -0.443369 0
M  V30 7409 C 680.359 -1.25142 -1.03818 0
M  V30 7410 O 681.543 -1.5423 -1.08377 0
M  V30 7411 C 678.67 -2.97637 -1.61648 0
M  V30 7412 C 677.716 -4.10873 -1.14391 0
M  V30 7413 S 678.549 -5.35408 -0.0992403 0
M  V30 7414 C 679.705 -6.12726 -1.27739 0
M  V30 7415 H 679.938 -2.96826 0.167786 0
M  V30 7416 H 677.471 -1.53027 0.205461 0
M  V30 7417 H 679.429 -3.40751 -2.28909 0
M  V30 7418 H 678.09 -2.24282 -2.199 0
M  V30 7419 H 677.283 -4.61718 -2.02069 0
M  V30 7420 H 676.885 -3.69937 -0.549775 0
M  V30 7421 H 679.177 -6.40827 -2.19881 0
M  V30 7422 H 680.12 -7.03461 -0.809239 0
M  V30 7423 H 680.528 -5.43968 -1.5086 0
M  V30 7424 N 679.926 -0.151884 -1.56866 0
M  V30 7425 C 681.172 0.498742 -1.96572 0
M  V30 7426 C 681.505 1.64194 -1.03702 0
M  V30 7427 O 680.78 1.94334 -0.0803432 0
M  V30 7428 C 681.063 1.00027 -3.45929 0
M  V30 7429 C 680.916 -0.141767 -4.49577 0
M  V30 7430 C 682.235 1.88044 -3.97904 0
M  V30 7431 H 679.354 0.17982 -0.714726 0
M  V30 7432 H 681.996 -0.234097 -1.88552 0
M  V30 7433 H 680.146 1.62476 -3.52894 0
M  V30 7434 H 681.818 -0.778269 -4.54687 0
M  V30 7435 H 680.061 -0.80019 -4.26356 0
M  V30 7436 H 680.732 0.250947 -5.51429 0
M  V30 7437 H 683.208 1.35416 -3.93449 0
M  V30 7438 H 682.084 2.20043 -5.02864 0
M  V30 7439 H 682.345 2.81916 -3.40552 0
M  V30 7440 N 681.404 1.57128 0.121893 0
M  V30 7441 C 682.651 1.847 0.830188 0
M  V30 7442 C 682.979 0.736543 1.80015 0
M  V30 7443 O 682.234 -0.272358 1.93796 0
M  V30 7444 C 682.533 3.1874 1.61677 0
M  V30 7445 C 682.199 4.43901 0.791361 0
M  V30 7446 C 680.861 4.77887 0.563731 0
M  V30 7447 C 683.213 5.20753 0.215823 0
M  V30 7448 C 680.541 5.86168 -0.249737 0
M  V30 7449 C 682.893 6.29891 -0.584821 0
M  V30 7450 C 681.557 6.6241 -0.822794 0
M  V30 7451 H 680.827 0.675866 0.303787 0
M  V30 7452 H 683.474 1.91276 0.0926894 0
M  V30 7453 H 681.779 3.07728 2.42509 0
M  V30 7454 H 683.476 3.37295 2.16872 0
M  V30 7455 H 680.066 4.17272 0.978867 0
M  V30 7456 H 684.25 4.94851 0.378907 0
M  V30 7457 H 679.506 6.0979 -0.44336 0
M  V30 7458 H 683.68 6.88624 -1.03779 0
M  V30 7459 H 681.307 7.46147 -1.45496 0
M  V30 7460 N 682.882 -0.391992 1.52647 0
M  V30 7461 C 683.812 -1.48517 1.8018 0
M  V30 7462 C 684.793 -1.57039 0.653667 0
M  V30 7463 O 685.978 -1.72036 0.900962 0
M  V30 7464 C 683.108 -2.86161 1.96797 0
M  V30 7465 C 682.062 -2.92481 3.12472 0
M  V30 7466 C 681.388 -4.32546 3.14338 0
M  V30 7467 C 682.688 -2.624 4.51601 0
M  V30 7468 H 684.382 -1.25726 2.71723 0
M  V30 7469 H 681.928 -0.603387 1.30749 0
M  V30 7470 H 683.881 -3.62639 2.14641 0
M  V30 7471 H 682.605 -3.10283 1.01941 0
M  V30 7472 H 681.264 -2.18451 2.94406 0
M  V30 7473 H 680.912 -4.53703 2.1717 0
M  V30 7474 H 680.612 -4.37695 3.92042 0
M  V30 7475 H 682.136 -5.10934 3.34333 0
M  V30 7476 H 683.55 -3.28596 4.69785 0
M  V30 7477 H 681.947 -2.78903 5.3135 0
M  V30 7478 H 683.017 -1.57754 4.58521 0
M  V30 7479 N 684.36 -1.4356 -0.65026 0
M  V30 7480 C 685.292 -1.44918 -1.77571 0
M  V30 7481 C 686.305 -0.344925 -1.59104 0
M  V30 7482 O 687.494 -0.609537 -1.6777 0
M  V30 7483 C 684.594 -1.24914 -3.15039 0
M  V30 7484 C 683.767 -2.48232 -3.60138 0
M  V30 7485 C 682.826 -2.23409 -4.76419 0
M  V30 7486 O 681.852 -2.9678 -4.85706 0
M  V30 7487 N 683.054 -1.25259 -5.66825 0
M  V30 7488 H 685.819 -2.41935 -1.76883 0
M  V30 7489 H 683.38 -1.38754 -0.834202 0
M  V30 7490 H 685.372 -1.06185 -3.90521 0
M  V30 7491 H 683.942 -0.363319 -3.10481 0
M  V30 7492 H 683.162 -2.82366 -2.75069 0
M  V30 7493 H 684.45 -3.30296 -3.87017 0
M  V30 7494 H 683.848 -0.646246 -5.61997 0
M  V30 7495 H 682.405 -1.12513 -6.42016 0
M  V30 7496 N 685.838 0.888903 -1.30139 0
M  V30 7497 C 686.785 1.99422 -1.16188 0
M  V30 7498 C 687.755 1.66017 -0.0523869 0
M  V30 7499 O 688.94 1.89506 -0.221864 0
M  V30 7500 C 686.08 3.34325 -0.855612 0
M  V30 7501 C 685.193 3.80445 -2.0466 0
M  V30 7502 C 684.328 5.03975 -1.67876 0
M  V30 7503 C 683.367 5.42492 -2.83493 0
M  V30 7504 N 682.504 6.57206 -2.47032 0
M  V30 7505 H 687.344 2.10687 -2.10749 0
M  V30 7506 H 684.881 1.03165 -1.04859 0
M  V30 7507 H 686.839 4.11968 -0.658681 0
M  V30 7508 H 685.469 3.22756 0.0531155 0
M  V30 7509 H 684.521 2.98745 -2.3549 0
M  V30 7510 H 685.833 4.04933 -2.91257 0
M  V30 7511 H 684.987 5.89232 -1.44535 0
M  V30 7512 H 683.726 4.8135 -0.784431 0
M  V30 7513 H 682.731 4.55764 -3.07505 0
M  V30 7514 H 683.956 5.67093 -3.73607 0
M  V30 7515 H 681.902 6.36164 -1.601 0
M  V30 7516 H 681.819 6.81543 -3.27161 0
M  V30 7517 H 683.087 7.45704 -2.27038 0
M  V30 7518 N 687.317 1.12792 1.10072 0
M  V30 7519 C 688.547 0.907189 1.85617 0
M  V30 7520 C 688.955 -0.547181 1.81115 0
M  V30 7521 O 688.298 -1.39024 1.20075 0
M  V30 7522 C 688.36 1.30872 3.34832 0
M  V30 7523 C 688.024 2.77516 3.6309 0
M  V30 7524 C 689.021 3.75696 3.59373 0
M  V30 7525 C 686.706 3.14513 3.91646 0
M  V30 7526 C 688.7 5.08888 3.83812 0
M  V30 7527 C 686.387 4.47886 4.15742 0
M  V30 7528 C 687.385 5.44882 4.11816 0
M  V30 7529 O 687.073 6.7585 4.35295 0
M  V30 7530 H 686.805 0.323855 0.593375 0
M  V30 7531 H 689.359 1.50262 1.40038 0
M  V30 7532 H 687.589 0.656518 3.81086 0
M  V30 7533 H 689.278 1.06153 3.91773 0
M  V30 7534 H 690.044 3.48458 3.37345 0
M  V30 7535 H 685.923 2.39622 3.93831 0
M  V30 7536 H 689.467 5.84586 3.80663 0
M  V30 7537 H 685.364 4.74851 4.37249 0
M  V30 7538 H 686.132 6.81853 4.52791 0
M  V30 7539 N 688.795 -1.27931 0.920396 0
M  V30 7540 C 690.206 -1.76707 0.602616 0
M  V30 7541 C 690.557 -1.75249 -0.882159 0
M  V30 7542 O 689.682 -1.35135 -1.69019 0
M  V30 7543 C 690.277 -3.20884 1.08714 0
M  V30 7544 C 688.836 -3.67356 0.820157 0
M  V30 7545 C 687.983 -2.47525 1.25006 0
M  V30 7546 H 690.934 -1.14301 1.10095 0
M  V30 7547 H 690.955 -3.78045 0.431535 0
M  V30 7548 H 690.467 -3.21913 2.1678 0
M  V30 7549 H 688.568 -3.7178 -0.247012 0
M  V30 7550 H 688.681 -4.57181 1.43257 0
M  V30 7551 H 687.045 -2.45765 0.668698 0
M  V30 7552 H 687.828 -2.51269 2.3392 0
M  V30 7553 N 690.273 -0.685099 -1.4193 0
M  V30 7554 C 691.684 -0.287699 -1.8447 0
M  V30 7555 C 692.035 1.17215 -1.57338 0
M  V30 7556 O 691.16 1.89856 -1.03845 0
M  V30 7557 C 691.755 -0.515385 -3.34857 0
M  V30 7558 C 690.314 -0.172006 -3.76007 0
M  V30 7559 C 689.461 -0.802808 -2.65425 0
M  V30 7560 H 692.412 -0.88652 -1.3163 0
M  V30 7561 H 692.433 0.229251 -3.79809 0
M  V30 7562 H 691.945 -1.57796 -3.54573 0
M  V30 7563 H 690.046 0.886716 -3.61895 0
M  V30 7564 H 690.159 -0.619717 -4.75075 0
M  V30 7565 H 688.523 -0.233267 -2.5363 0
M  V30 7566 H 689.306 -1.86904 -2.87961 0
M  V30 7567 N 691.751 1.51645 -0.429126 0
M  V30 7568 C 693.162 1.86665 0.0359003 0
M  V30 7569 C 693.513 1.34677 1.42676 0
M  V30 7570 O 692.638 0.694195 2.04963 0
M  V30 7571 C 693.233 3.38724 0.0719221 0
M  V30 7572 C 691.792 3.7331 0.481336 0
M  V30 7573 C 690.939 2.75313 -0.331329 0
M  V30 7574 H 693.89 1.44987 -0.645333 0
M  V30 7575 H 693.911 3.7011 0.883118 0
M  V30 7576 H 693.423 3.76532 -0.940495 0
M  V30 7577 H 691.524 3.41088 1.49966 0
M  V30 7578 H 691.637 4.78631 0.211837 0
M  V30 7579 H 690.001 2.53839 0.209204 0
M  V30 7580 H 690.784 3.15963 -1.34247 0
M  V30 7581 N 693.229 0.160201 1.56784 0
M  V30 7582 C 694.159 -0.770264 2.2043 0
M  V30 7583 C 695.14 -1.24736 1.15651 0
M  V30 7584 O 696.325 -1.30253 1.44041 0
M  V30 7585 C 693.455 -2.00427 2.83631 0
M  V30 7586 C 692.409 -1.66345 3.94352 0
M  V30 7587 C 691.735 -2.97119 4.4455 0
M  V30 7588 C 693.035 -0.899972 5.14488 0
M  V30 7589 H 694.729 -0.239783 2.98438 0
M  V30 7590 H 692.275 -0.113891 1.43549 0
M  V30 7591 H 694.228 -2.66012 3.26827 0
M  V30 7592 H 692.952 -2.5587 2.02973 0
M  V30 7593 H 691.611 -1.03133 3.51794 0
M  V30 7594 H 691.259 -3.5058 3.60698 0
M  V30 7595 H 690.959 -2.75073 5.19238 0
M  V30 7596 H 692.483 -3.63753 4.90425 0
M  V30 7597 H 693.897 -1.45818 5.54446 0
M  V30 7598 H 692.294 -0.778968 5.95023 0
M  V30 7599 H 693.364 0.105827 4.84785 0
M  V30 7600 N 694.707 -1.5719 -0.113559 0
M  V30 7601 C 695.956 -1.84325 -0.818984 0
M  V30 7602 C 696.269 -0.746685 -1.80787 0
M  V30 7603 O 697.475 -0.904596 -2.55987 0
M  V30 7604 C 695.931 -3.26818 -1.50724 0
M  V30 7605 C 695.539 -4.44498 -0.559065 0
M  V30 7606 C 697.283 -3.63196 -2.19748 0
M  V30 7607 C 695.19 -5.7802 -1.25086 0
M  V30 7608 H 694.12 -0.687507 -0.309596 0
M  V30 7609 H 696.771 -1.8336 -0.0717621 0
M  V30 7610 H 695.153 -3.22269 -2.30128 0
M  V30 7611 H 696.327 -4.60356 0.202146 0
M  V30 7612 H 694.642 -4.16393 0.024495 0
M  V30 7613 H 697.239 -4.60226 -2.72206 0
M  V30 7614 H 697.582 -2.90899 -2.97798 0
M  V30 7615 H 698.115 -3.69553 -1.47226 0
M  V30 7616 H 694.854 -6.53501 -0.511539 0
M  V30 7617 H 694.374 -5.66038 -1.98395 0
M  V30 7618 H 696.053 -6.2196 -1.78253 0
M  V30 7619 N 696.185 0.383891 -1.52853 0
M  V30 7620 C 697.596 0.961591 -1.60032 0
M  V30 7621 C 697.947 1.90819 -0.456333 0
M  V30 7622 O 697.072 2.12288 0.419873 0
M  V30 7623 C 697.667 1.75078 -2.90057 0
M  V30 7624 C 696.226 2.2781 -2.99632 0
M  V30 7625 C 695.373 1.08512 -2.55187 0
M  V30 7626 H 698.324 0.163269 -1.57858 0
M  V30 7627 H 698.345 2.61046 -2.7683 0
M  V30 7628 H 697.857 1.06157 -3.73299 0
M  V30 7629 H 695.958 3.00028 -2.20939 0
M  V30 7630 H 696.071 2.56947 -4.0437 0
M  V30 7631 H 694.435 1.44667 -2.09627 0
M  V30 7632 H 695.218 0.41118 -3.40829 0
M  V30 7633 N 697.663 1.43903 0.642637 0
M  V30 7634 C 699.074 1.40975 1.22404 0
M  V30 7635 C 699.425 0.1192 1.95838 0
M  V30 7636 O 698.55 -0.780939 2.01818 0
M  V30 7637 C 699.145 2.5538 2.22636 0
M  V30 7638 C 697.704 2.55684 2.76229 0
M  V30 7639 C 696.851 2.32556 1.51039 0
M  V30 7640 H 699.802 1.5265 0.434006 0
M  V30 7641 H 699.823 2.27474 3.05017 0
M  V30 7642 H 699.335 3.49294 1.69161 0
M  V30 7643 H 697.436 1.65679 3.33738 0
M  V30 7644 H 697.549 3.53799 3.23053 0
M  V30 7645 H 695.913 1.81427 1.78764 0
M  V30 7646 H 696.696 3.28569 0.99484 0
M  V30 7647 N 699.141 -0.881989 1.30609 0
M  V30 7648 C 700.557 -1.16576 1.09005 0
M  V30 7649 C 700.757 -2.00961 -0.14727 0
M  V30 7650 O 699.813 -2.38117 -0.840036 0
M  V30 7651 C 701.126 -1.86954 2.35518 0
M  V30 7652 C 702.674 -1.99706 2.41011 0
M  V30 7653 C 703.149 -2.73497 3.67374 0
M  V30 7654 N 704.64 -2.8104 3.68199 0
M  V30 7655 C 705.375 -3.38718 4.62664 0
M  V30 7656 N 704.871 -3.97421 5.67475 0
M  V30 7657 N 706.664 -3.36561 4.50203 0
M  V30 7658 H 698.815 -0.319398 2.09985 0
M  V30 7659 H 701.078 -0.204058 0.925778 0
M  V30 7660 H 700.784 -1.32393 3.2583 0
M  V30 7661 H 700.658 -2.87317 2.44395 0
M  V30 7662 H 703.045 -2.53436 1.51176 0
M  V30 7663 H 703.126 -0.984218 2.36108 0
M  V30 7664 H 702.77 -2.20438 4.57569 0
M  V30 7665 H 702.7 -3.75163 3.6954 0
M  V30 7666 H 705.191 -2.39365 2.92426 0
M  V30 7667 H 705.504 -4.39507 6.35652 0
M  V30 7668 H 703.849 -3.95832 5.71264 0
M  V30 7669 H 707.04 -2.8993 3.67503 0
M  V30 7670 H 707.213 -3.81215 5.24003 0
M  V30 7671 N 700.619 -1.13374 -1.09472 0
M  V30 7672 C 701.867 -0.893422 -1.8128 0
M  V30 7673 C 702.188 0.582029 -1.86111 0
M  V30 7674 O 701.458 1.42305 -1.34633 0
M  V30 7675 H 700.038 -0.327543 -0.67136 0
M  V30 7676 H 702.7 -1.43018 -1.32408 0
M  V30 7677 H 701.796 -1.28374 -2.84476 0
M  V30 7678 N 702.098 1.27442 -0.927168 0
M  V30 7679 C 703.008 2.30599 -0.431448 0
M  V30 7680 C 704.024 1.67028 0.48761 0
M  V30 7681 O 705.2 1.97962 0.370546 0
M  V30 7682 C 702.265 3.45327 0.308292 0
M  V30 7683 C 701.326 4.24418 -0.645615 0
M  V30 7684 C 700.559 5.33667 0.0589164 0
M  V30 7685 O 700.782 5.5589 1.27838 0
M  V30 7686 O 699.716 5.98774 -0.612638 0
M  V30 7687 H 703.542 2.75036 -1.28797 0
M  V30 7688 H 701.127 1.32382 -0.692495 0
M  V30 7689 H 703.009 4.15107 0.725555 0
M  V30 7690 H 701.684 3.02945 1.14043 0
M  V30 7691 H 700.591 3.57174 -1.11255 0
M  V30 7692 H 701.924 4.70512 -1.44496 0
M  V30 7693 N 703.576 0.692616 1.41565 0
M  V30 7694 C 704.822 0.222664 2.01574 0
M  V30 7695 C 705.155 -1.1737 1.54719 0
M  V30 7696 O 704.43 -1.79161 0.757084 0
M  V30 7697 C 704.713 0.277064 3.59033 0
M  V30 7698 C 704.566 1.71016 4.16021 0
M  V30 7699 C 705.885 -0.36479 4.38586 0
M  V30 7700 H 703.004 0.0823839 0.732381 0
M  V30 7701 H 705.646 0.880778 1.68352 0
M  V30 7702 H 703.796 -0.283288 3.87466 0
M  V30 7703 H 705.468 2.32413 3.98475 0
M  V30 7704 H 703.711 2.24525 3.71175 0
M  V30 7705 H 704.382 1.69978 5.25178 0
M  V30 7706 H 706.858 0.112404 4.15948 0
M  V30 7707 H 705.734 -0.296169 5.481 0
M  V30 7708 H 705.995 -1.44506 4.17816 0
M  V30 7709 N 705.054 -1.51416 0.437162 0
M  V30 7710 C 706.002 -2.29328 -0.388765 0
M  V30 7711 C 706.996 -1.35171 -1.02104 0
M  V30 7712 O 708.202 -1.52513 -0.956024 0
M  V30 7713 H 704.577 -0.738048 -0.144183 0
M  V30 7714 H 706.548 -2.96995 0.289212 0
M  V30 7715 C 705.297 -3.14741 -1.47761 0
M  V30 7716 H 704.62 -3.8708 -1.00045 0
M  V30 7717 H 706.06 -3.72313 -2.02877 0
M  V30 7718 C 704.519 -2.30105 -2.46076 0
M  V30 7719 O 705.049 -1.96055 -3.50607 0
M  V30 7720 N 703.255 -1.93331 -2.1696 0
M  V30 7721 H 702.802 -2.2122 -1.31983 0
M  V30 7722 H 702.76 -1.36999 -2.82982 0
M  V30 7723 N 706.532 -0.168513 -1.56696 0
M  V30 7724 C 707.495 0.748928 -2.16619 0
M  V30 7725 C 708.495 1.16007 -1.11351 0
M  V30 7726 O 709.685 1.07748 -1.3688 0
M  V30 7727 C 706.817 2.01904 -2.74677 0
M  V30 7728 H 708.01 0.227317 -2.99037 0
M  V30 7729 H 705.563 0.0810372 -1.5609 0
M  V30 7730 H 706.298 2.58381 -1.95985 0
M  V30 7731 H 706.083 1.73323 -3.51712 0
M  V30 7732 H 707.573 2.67383 -3.20774 0
M  V30 7733 N 708.01 1.57248 0.105221 0
M  V30 7734 C 708.973 2.00388 1.11252 0
M  V30 7735 C 709.973 0.89594 1.33527 0
M  V30 7736 O 711.163 1.16166 1.29811 0
M  V30 7737 C 708.295 2.35589 2.46395 0
M  V30 7738 H 709.488 2.90591 0.741424 0
M  V30 7739 H 707.041 1.52332 0.349956 0
M  V30 7740 H 707.776 1.4831 2.884 0
M  V30 7741 H 707.561 3.16408 2.31578 0
M  V30 7742 H 709.051 2.69658 3.18864 0
M  V30 7743 N 709.488 -0.375779 1.53054 0
M  V30 7744 C 710.765 -1.13453 1.59336 0
M  V30 7745 C 711.145 -2.07379 0.394614 0
M  V30 7746 O 710.493 -2.2004 -0.616 0
M  V30 7747 C 710.703 -1.8826 2.93869 0
M  V30 7748 C 712.051 -2.43155 3.48081 0
M  V30 7749 O 713.075 -1.984 2.95831 0
M  V30 7750 O 711.934 -3.24944 4.39401 0
M  V30 7751 H 709.028 -0.519856 0.643179 0
M  V30 7752 H 711.574 -0.379865 1.65394 0
M  V30 7753 H 710.346 -1.19652 3.72558 0
M  V30 7754 H 709.969 -2.70658 2.91256 0
M  V30 7755 N 710.966 -1.44241 -0.634997 0
M  V30 7756 C 711.929 -1.50457 -1.72903 0
M  V30 7757 C 712.929 -0.387058 -1.56072 0
M  V30 7758 O 714.119 -0.649531 -1.61638 0
M  V30 7759 C 711.251 -1.37477 -3.1195 0
M  V30 7760 H 712.444 -2.47907 -1.68767 0
M  V30 7761 H 709.997 -1.31276 -0.84831 0
M  V30 7762 H 710.732 -0.41106 -3.21684 0
M  V30 7763 H 710.517 -2.18506 -3.25573 0
M  V30 7764 H 712.007 -1.44799 -3.91692 0
M  V30 7765 N 712.444 0.87505 -1.31075 0
M  V30 7766 C 713.691 1.62768 -1.20469 0
M  V30 7767 C 714.019 1.93034 0.23834 0
M  V30 7768 O 713.274 1.55693 1.18567 0
M  V30 7769 C 713.573 2.96948 -1.98888 0
M  V30 7770 C 713.239 2.86195 -3.4843 0
M  V30 7771 C 711.901 2.82969 -3.89207 0
M  V30 7772 C 714.253 2.73599 -4.43614 0
M  V30 7773 C 711.581 2.64999 -5.23443 0
M  V30 7774 C 713.933 2.57166 -5.77969 0
M  V30 7775 C 712.597 2.52321 -6.17973 0
M  V30 7776 H 711.867 0.595611 -0.440827 0
M  V30 7777 H 714.514 1.01665 -1.62285 0
M  V30 7778 H 712.819 3.62058 -1.49737 0
M  V30 7779 H 714.516 3.54164 -1.88067 0
M  V30 7780 H 711.106 2.8952 -3.16032 0
M  V30 7781 H 715.29 2.7515 -4.13045 0
M  V30 7782 H 710.546 2.5967 -5.53517 0
M  V30 7783 H 714.72 2.46396 -6.51354 0
M  V30 7784 H 712.347 2.38156 -7.21932 0
M  V30 7785 N 713.922 1.13953 1.08869 0
M  V30 7786 C 715.199 0.815768 1.77777 0
M  V30 7787 C 715.579 -0.691624 1.99449 0
M  V30 7788 O 714.927 -1.63085 1.60049 0
M  V30 7789 C 715.137 1.60916 3.09689 0
M  V30 7790 C 716.485 1.80549 3.84301 0
M  V30 7791 O 717.509 1.57562 3.19457 0
M  V30 7792 O 716.368 2.18946 5.00724 0
M  V30 7793 H 713.462 0.298445 0.771271 0
M  V30 7794 H 716.008 1.24446 1.15374 0
M  V30 7795 H 714.78 2.6333 2.89435 0
M  V30 7796 H 714.403 1.17578 3.79817 0
M  V30 7797 N 715.4 -1.26948 0.933913 0
M  V30 7798 C 716.649 -1.93378 0.573409 0
M  V30 7799 C 716.962 -1.74148 -0.890614 0
M  V30 7800 O 718.168 -2.34971 -1.36017 0
M  V30 7801 C 716.624 -3.46449 0.974747 0
M  V30 7802 C 716.232 -3.74425 2.45988 0
M  V30 7803 C 717.976 -4.18924 0.685791 0
M  V30 7804 C 715.883 -5.209 2.8003 0
M  V30 7805 H 714.813 -0.723952 0.210736 0
M  V30 7806 H 717.464 -1.44143 1.13557 0
M  V30 7807 H 715.846 -3.94528 0.341181 0
M  V30 7808 H 717.02 -3.37079 3.14188 0
M  V30 7809 H 715.335 -3.15167 2.72138 0
M  V30 7810 H 717.932 -5.26786 0.916546 0
M  V30 7811 H 718.275 -4.14587 -0.377217 0
M  V30 7812 H 718.808 -3.76687 1.27874 0
M  V30 7813 H 715.547 -5.30332 3.85264 0
M  V30 7814 H 715.067 -5.59369 2.16485 0
M  V30 7815 H 716.746 -5.88837 2.68105 0
M  V30 7816 N 716.879 -0.700114 -1.41195 0
M  V30 7817 C 718.127 -0.232546 -2.00758 0
M  V30 7818 C 718.448 1.1734 -1.55745 0
M  V30 7819 O 717.718 1.79262 -0.790058 0
M  V30 7820 H 716.298 -0.0829845 -0.742376 0
M  V30 7821 H 718.96 -0.902289 -1.72756 0
M  V30 7822 H 718.056 -0.253521 -3.11069 0
M  V30 7823 N 718.357 1.51182 -0.445186 0
M  V30 7824 C 719.582 2.07056 0.119445 0
M  V30 7825 C 720.007 1.30966 1.35016 0
M  V30 7826 O 719.365 0.349827 1.77893 0
M  V30 7827 C 719.413 3.58234 0.412428 0
M  V30 7828 O 718.517 3.84249 1.49754 0
M  V30 7829 H 717.858 0.663998 -0.00157797 0
M  V30 7830 H 720.388 1.94699 -0.628779 0
M  V30 7831 H 720.398 4.02617 0.660583 0
M  V30 7832 H 719.073 4.13038 -0.487049 0
M  V30 7833 H 717.65 3.51724 1.23873 0
M  V30 7834 N 719.835 0.176821 1.56605 0
M  V30 7835 C 721.082 -0.466715 1.97048 0
M  V30 7836 C 721.41 -1.6288 1.06302 0
M  V30 7837 O 720.665 -1.95453 0.0982571 0
M  V30 7838 C 720.964 -0.986208 3.43524 0
M  V30 7839 C 720.63 0.0605667 4.50859 0
M  V30 7840 C 719.292 0.348242 4.79938 0
M  V30 7841 C 721.644 0.770794 5.15469 0
M  V30 7842 C 718.972 1.35144 5.70923 0
M  V30 7843 C 721.324 1.76301 6.07537 0
M  V30 7844 C 719.988 2.05808 6.3498 0
M  V30 7845 H 719.258 -0.170783 0.721051 0
M  V30 7846 H 721.905 0.269942 1.89588 0
M  V30 7847 H 720.21 -1.80079 3.47964 0
M  V30 7848 H 721.907 -1.49323 3.72161 0
M  V30 7849 H 718.497 -0.173823 4.28247 0
M  V30 7850 H 722.681 0.56176 4.9311 0
M  V30 7851 H 717.937 1.58616 5.90467 0
M  V30 7852 H 722.111 2.31868 6.56666 0
M  V30 7853 H 719.738 2.8369 7.05283 0
M  V30 7854 N 721.313 -1.57302 -0.09688 0
M  V30 7855 C 722.59 -1.7701 -0.832272 0
M  V30 7856 C 722.97 -0.758025 -1.97021 0
M  V30 7857 O 722.318 0.213824 -2.27497 0
M  V30 7858 C 722.528 -3.22725 -1.32851 0
M  V30 7859 C 723.876 -3.85856 -1.772 0
M  V30 7860 O 724.9 -3.26464 -1.42478 0
M  V30 7861 O 723.759 -4.90295 -2.41398 0
M  V30 7862 H 720.853 -0.725558 -0.396856 0
M  V30 7863 H 723.399 -1.69516 -0.0789005 0
M  V30 7864 H 722.171 -3.87921 -0.51312 0
M  V30 7865 H 721.794 -3.34845 -2.14394 0
M  V30 7866 N 722.791 0.367657 -1.53252 0
M  V30 7867 C 723.701 1.47415 -1.82499 0
M  V30 7868 C 724.717 1.58711 -0.713222 0
M  V30 7869 O 725.893 1.74644 -1.00306 0
M  V30 7870 C 722.958 2.82706 -2.00694 0
M  V30 7871 C 722.019 2.80955 -3.24596 0
M  V30 7872 C 721.252 4.09793 -3.41914 0
M  V30 7873 O 721.475 5.05852 -2.63572 0
M  V30 7874 O 720.409 4.15731 -4.3526 0
M  V30 7875 H 724.235 1.25624 -2.765 0
M  V30 7876 H 721.82 0.557559 -1.38606 0
M  V30 7877 H 723.702 3.62873 -2.14246 0
M  V30 7878 H 722.377 3.04479 -1.09883 0
M  V30 7879 H 721.284 1.99494 -3.16469 0
M  V30 7880 H 722.617 2.64136 -4.15323 0
M  V30 7881 N 724.269 1.44576 0.627338 0
M  V30 7882 C 725.179 1.54232 1.76776 0
M  V30 7883 C 726.195 0.427782 1.6866 0
M  V30 7884 O 727.371 0.685671 1.89369 0
M  V30 7885 C 724.436 1.48738 3.13174 0
M  V30 7886 C 723.497 2.71074 3.32893 0
M  V30 7887 C 722.73 2.65832 4.62784 0
M  V30 7888 O 722.953 1.72048 5.43834 0
M  V30 7889 O 721.887 3.56742 4.84787 0
M  V30 7890 H 725.713 2.50586 1.71582 0
M  V30 7891 H 723.298 1.26865 0.789028 0
M  V30 7892 H 725.18 1.48211 3.94476 0
M  V30 7893 H 723.855 0.555292 3.18902 0
M  V30 7894 H 722.762 2.77168 2.51254 0
M  V30 7895 H 724.095 3.63342 3.32029 0
M  V30 7896 N 725.747 -0.868086 1.31537 0
M  V30 7897 C 727.024 -1.60384 1.11965 0
M  V30 7898 C 727.404 -2.08584 -0.324949 0
M  V30 7899 O 726.752 -1.86561 -1.31937 0
M  V30 7900 C 726.962 -2.76038 2.13551 0
M  V30 7901 C 728.31 -3.45954 2.46173 0
M  V30 7902 O 729.334 -2.86247 2.11993 0
M  V30 7903 O 728.193 -4.53666 3.04711 0
M  V30 7904 H 725.287 -0.705705 0.431172 0
M  V30 7905 H 727.833 -0.913385 1.43022 0
M  V30 7906 H 726.605 -2.37849 3.10714 0
M  V30 7907 H 726.228 -3.52769 1.83411 0
M  V30 7908 N 727.225 -1.14528 -1.08264 0
M  V30 7909 C 728.453 -0.937964 -1.84418 0
M  V30 7910 C 728.868 0.51357 -1.81681 0
M  V30 7911 O 728.225 1.35591 -1.22153 0
M  V30 7912 C 728.276 -1.43272 -3.31897 0
M  V30 7913 O 727.997 -2.82738 -3.34651 0
M  V30 7914 C 729.498 -1.26555 -4.24851 0
M  V30 7915 H 726.718 -0.333704 -0.582136 0
M  V30 7916 H 729.262 -1.52076 -1.36723 0
M  V30 7917 H 727.417 -0.892653 -3.76975 0
M  V30 7918 H 727.831 -3.04971 -4.26724 0
M  V30 7919 H 729.305 -1.66031 -5.26439 0
M  V30 7920 H 729.782 -0.208589 -4.38704 0
M  V30 7921 H 730.388 -1.79423 -3.856 0
M  V30 7922 N 728.703 1.26451 -0.940633 0
M  V30 7923 C 729.65 2.264 -0.448497 0
M  V30 7924 C 730.62 1.5866 0.491546 0
M  V30 7925 O 731.805 1.86389 0.407874 0
M  V30 7926 C 728.945 3.43956 0.280715 0
M  V30 7927 C 728.058 4.26374 -0.694937 0
M  V30 7928 C 727.193 5.31171 0.0554186 0
M  V30 7929 C 726.232 6.05266 -0.912091 0
M  V30 7930 N 725.369 7.01833 -0.193524 0
M  V30 7931 H 730.209 2.67869 -1.30576 0
M  V30 7932 H 727.746 1.31707 -0.655112 0
M  V30 7933 H 729.704 4.10941 0.71994 0
M  V30 7934 H 728.334 3.03403 1.10212 0
M  V30 7935 H 727.386 3.59183 -1.25267 0
M  V30 7936 H 728.698 4.77748 -1.43382 0
M  V30 7937 H 727.852 6.04166 0.553951 0
M  V30 7938 H 726.591 4.80634 0.827183 0
M  V30 7939 H 725.596 5.31099 -1.42175 0
M  V30 7940 H 726.821 6.57893 -1.68385 0
M  V30 7941 H 724.767 6.53607 0.559758 0
M  V30 7942 H 724.684 7.50957 -0.871744 0
M  V30 7943 H 725.952 7.78983 0.283932 0
M  V30 7944 N 730.181 0.707592 1.40822 0
M  V30 7945 C 731.429 0.243189 2.00632 0
M  V30 7946 C 731.75 -1.16512 1.56365 0
M  V30 7947 O 731.02 -1.78841 0.799553 0
M  V30 7948 H 729.6 0.0869203 0.741926 0
M  V30 7949 H 732.262 0.911438 1.72275 0
M  V30 7950 H 731.358 0.270014 3.1093 0
M  V30 7951 N 731.66 -1.50943 0.453197 0
M  V30 7952 C 732.909 -2.01402 -0.10951 0
M  V30 7953 C 733.222 -1.3411 -1.42386 0
M  V30 7954 O 734.428 -1.75626 -2.07045 0
M  V30 7955 C 732.884 -3.5906 -0.245693 0
M  V30 7956 C 732.492 -4.353 1.05916 0
M  V30 7957 C 734.236 -4.17617 -0.761318 0
M  V30 7958 C 732.143 -5.84699 0.887752 0
M  V30 7959 H 731.073 -0.752674 -0.0447013 0
M  V30 7960 H 733.724 -1.73913 0.585375 0
M  V30 7961 H 732.106 -3.83062 -1.00395 0
M  V30 7962 H 733.28 -4.23034 1.82698 0
M  V30 7963 H 731.595 -3.88269 1.50452 0
M  V30 7964 H 734.192 -5.26963 -0.906306 0
M  V30 7965 H 734.535 -3.77824 -1.74799 0
M  V30 7966 H 735.068 -3.97753 -0.0609416 0
M  V30 7967 H 731.807 -6.28933 1.84726 0
M  V30 7968 H 731.327 -5.99587 0.160006 0
M  V30 7969 H 733.006 -6.44682 0.547223 0
M  V30 7970 N 733.138 -0.185124 -1.56509 0
M  V30 7971 C 734.085 0.739729 -2.18624 0
M  V30 7972 C 735.055 1.217 -1.13042 0
M  V30 7973 O 736.24 1.28268 -1.41251 0
M  V30 7974 C 733.38 1.95787 -2.84186 0
M  V30 7975 C 732.493 1.52289 -4.04267 0
M  V30 7976 C 731.628 2.69576 -4.57714 0
M  V30 7977 C 730.667 2.22636 -5.70175 0
M  V30 7978 N 729.804 3.33065 -6.18071 0
M  V30 7979 H 734.644 0.203269 -2.97306 0
M  V30 7980 H 732.181 0.0885946 -1.46833 0
M  V30 7981 H 734.139 2.67253 -3.20361 0
M  V30 7982 H 732.769 2.4678 -2.08085 0
M  V30 7983 H 731.821 0.704458 -3.7382 0
M  V30 7984 H 733.133 1.13843 -4.85635 0
M  V30 7985 H 732.287 3.4918 -4.96143 0
M  V30 7986 H 731.026 3.1129 -3.75433 0
M  V30 7987 H 730.031 1.41483 -5.31284 0
M  V30 7988 H 731.256 1.81964 -6.54267 0
M  V30 7989 H 729.202 3.74328 -5.38715 0
M  V30 7990 H 729.119 2.98756 -6.94464 0
M  V30 7991 H 730.387 4.12912 -6.61153 0
M  V30 7992 N 734.616 1.57351 0.0885366 0
M  V30 7993 C 735.546 2.05561 1.10757 0
M  V30 7994 C 736.527 0.945789 1.41382 0
M  V30 7995 O 737.712 1.21747 1.51299 0
M  V30 7996 C 734.842 2.48554 2.42566 0
M  V30 7997 C 733.796 3.63259 2.26334 0
M  V30 7998 C 733.122 3.9225 3.63378 0
M  V30 7999 C 734.422 4.93913 1.69844 0
M  V30 8000 H 736.116 2.90946 0.706468 0
M  V30 8001 H 733.662 1.39968 0.338385 0
M  V30 8002 H 735.615 2.8089 3.14132 0
M  V30 8003 H 734.339 1.60176 2.84625 0
M  V30 8004 H 732.998 3.31179 1.57213 0
M  V30 8005 H 732.646 3.0103 4.02976 0
M  V30 8006 H 732.346 4.69478 3.53362 0
M  V30 8007 H 733.87 4.27067 4.36401 0
M  V30 8008 H 735.284 5.24588 2.31258 0
M  V30 8009 H 733.681 5.75349 1.70569 0
M  V30 8010 H 734.751 4.80409 0.65843 0
M  V30 8011 N 736.094 -0.359525 1.53444 0
M  V30 8012 C 737.024 -1.44662 1.8329 0
M  V30 8013 C 738.005 -1.55617 0.68683 0
M  V30 8014 O 739.19 -1.70086 0.93725 0
M  V30 8015 C 736.32 -2.81923 2.02822 0
M  V30 8016 C 735.274 -2.85787 3.18606 0
M  V30 8017 C 734.6 -4.25781 3.23442 0
M  V30 8018 C 735.9 -2.52762 4.57065 0
M  V30 8019 H 737.594 -1.19934 2.74329 0
M  V30 8020 H 735.14 -0.575517 1.31999 0
M  V30 8021 H 737.093 -3.58005 2.22285 0
M  V30 8022 H 735.817 -3.08051 1.085 0
M  V30 8023 H 734.476 -2.12157 2.98973 0
M  V30 8024 H 734.124 -4.48994 2.26745 0
M  V30 8025 H 733.824 -4.29281 4.01238 0
M  V30 8026 H 735.348 -5.03727 3.45096 0
M  V30 8027 H 736.762 -3.18557 4.76649 0
M  V30 8028 H 735.159 -2.67569 5.37147 0
M  V30 8029 H 736.229 -1.47993 4.61764 0
M  V30 8030 N 737.572 -1.44907 -0.619662 0
M  V30 8031 C 738.849 -1.38766 -1.37852 0
M  V30 8032 C 739.229 -0.0521393 -2.11036 0
M  V30 8033 O 738.577 0.965613 -2.07095 0
M  V30 8034 C 738.787 -2.59344 -2.33541 0
M  V30 8035 C 740.135 -3.03909 -2.96521 0
M  V30 8036 O 741.159 -2.59631 -2.43865 0
M  V30 8037 O 740.018 -3.80713 -3.92071 0
M  V30 8038 H 737.112 -0.550083 -0.617525 0
M  V30 8039 H 739.658 -1.57015 -0.643759 0
M  V30 8040 H 738.43 -3.48142 -1.78642 0
M  V30 8041 H 738.053 -2.43367 -3.14417 0
M  V30 8042 N 739.05 0.861098 -1.31996 0
M  V30 8043 C 740.275 1.65264 -1.2531 0
M  V30 8044 C 740.7 1.87265 0.177007 0
M  V30 8045 O 740.058 1.4208 1.12619 0
M  V30 8046 C 740.106 2.99284 -2.0115 0
M  V30 8047 O 739.21 3.89508 -1.3549 0
M  V30 8048 H 738.551 0.50409 -0.432192 0
M  V30 8049 H 741.081 1.07297 -1.74208 0
M  V30 8050 H 741.091 3.49154 -2.11081 0
M  V30 8051 H 739.766 2.82591 -3.05148 0
M  V30 8052 H 738.343 3.47966 -1.34066 0
M  V30 8053 N 740.528 1.15101 1.07655 0
M  V30 8054 C 741.805 0.834578 1.76902 0
M  V30 8055 C 742.185 -0.670431 2.00171 0
M  V30 8056 O 741.533 -1.61378 1.6177 0
M  V30 8057 C 741.743 1.64191 3.07965 0
M  V30 8058 C 743.091 1.84615 3.82364 0
M  V30 8059 O 744.115 1.60941 3.17768 0
M  V30 8060 O 742.974 2.24244 4.98374 0
M  V30 8061 H 740.068 0.306608 0.768063 0
M  V30 8062 H 742.614 1.25663 1.14048 0
M  V30 8063 H 741.386 2.66386 2.86626 0
M  V30 8064 H 741.009 1.216 3.78549 0
M  V30 8065 N 742.006 -1.2595 0.947325 0
M  V30 8066 C 742.938 -2.25336 0.41906 0
M  V30 8067 C 743.951 -1.56135 -0.461051 0
M  V30 8068 O 745.14 -1.76438 -0.270505 0
M  V30 8069 C 742.24 -3.36334 -0.416233 0
M  V30 8070 C 741.413 -4.35088 0.449162 0
M  V30 8071 C 740.472 -5.25185 -0.326716 0
M  V30 8072 O 739.498 -5.68548 0.272374 0
M  V30 8073 N 740.7 -5.57388 -1.6217 0
M  V30 8074 H 743.465 -2.71298 1.27348 0
M  V30 8075 H 741.026 -1.39781 0.81688 0
M  V30 8076 H 743.018 -3.93564 -0.942826 0
M  V30 8077 H 741.588 -2.89819 -1.17148 0
M  V30 8078 H 740.808 -3.76841 1.15692 0
M  V30 8079 H 742.096 -4.98056 1.04008 0
M  V30 8080 H 741.494 -5.2405 -2.13046 0
M  V30 8081 H 740.051 -6.17234 -2.0944 0
M  V30 8082 N 743.484 -0.715051 -1.40445 0
M  V30 8083 C 744.394 -0.0631624 -2.34515 0
M  V30 8084 C 745.41 0.744397 -1.57273 0
M  V30 8085 O 746.586 0.677475 -1.89663 0
M  V30 8086 C 743.651 0.847915 -3.36172 0
M  V30 8087 C 742.712 0.0303655 -4.29289 0
M  V30 8088 C 741.945 0.898051 -5.2609 0
M  V30 8089 O 742.168 2.13729 -5.28844 0
M  V30 8090 O 741.102 0.337328 -6.00954 0
M  V30 8091 H 744.928 -0.839078 -2.91879 0
M  V30 8092 H 742.513 -0.475527 -1.4163 0
M  V30 8093 H 744.395 1.3698 -3.98515 0
M  V30 8094 H 743.07 1.60299 -2.81222 0
M  V30 8095 H 741.977 -0.536573 -3.70232 0
M  V30 8096 H 743.31 -0.686474 -4.87389 0
M  V30 8097 N 744.962 1.50701 -0.461195 0
M  V30 8098 C 745.892 2.31182 0.328184 0
M  V30 8099 C 746.873 1.37644 0.999408 0
M  V30 8100 O 748.058 1.66565 0.99848 0
M  V30 8101 C 745.188 3.17113 1.41621 0
M  V30 8102 C 744.142 4.19124 0.867148 0
M  V30 8103 C 743.468 4.93728 2.05272 0
M  V30 8104 C 744.768 5.22174 -0.114808 0
M  V30 8105 H 746.462 2.97423 -0.343501 0
M  V30 8106 H 744.008 1.43033 -0.166641 0
M  V30 8107 H 745.961 3.72208 1.97584 0
M  V30 8108 H 744.685 2.48739 2.11652 0
M  V30 8109 H 743.344 3.65116 0.329557 0
M  V30 8110 H 742.992 4.21835 2.73978 0
M  V30 8111 H 742.692 5.62724 1.69161 0
M  V30 8112 H 744.216 5.51654 2.61744 0
M  V30 8113 H 745.63 5.72198 0.355316 0
M  V30 8114 H 744.027 5.98833 -0.389689 0
M  V30 8115 H 745.097 4.7353 -1.04391 0
M  V30 8116 N 746.441 0.193421 1.56409 0
M  V30 8117 C 747.671 -0.450783 2.01622 0
M  V30 8118 C 748.079 -1.5585 1.07273 0
M  V30 8119 O 747.422 -1.83569 0.0694875 0
M  V30 8120 C 747.484 -1.06913 3.43235 0
M  V30 8121 C 747.148 -0.100352 4.5689 0
M  V30 8122 C 748.145 0.689633 5.15306 0
M  V30 8123 C 745.83 0.0102436 5.02299 0
M  V30 8124 C 747.824 1.5772 6.17579 0
M  V30 8125 C 745.511 0.901368 6.04416 0
M  V30 8126 C 746.509 1.68341 6.61929 0
M  V30 8127 O 746.197 2.5596 7.62063 0
M  V30 8128 H 745.929 -0.117671 0.66568 0
M  V30 8129 H 748.483 0.2989 2.03214 0
M  V30 8130 H 746.713 -1.86736 3.38624 0
M  V30 8131 H 748.402 -1.61781 3.72266 0
M  V30 8132 H 749.168 0.614485 4.81092 0
M  V30 8133 H 745.047 -0.58829 4.57231 0
M  V30 8134 H 748.591 2.18805 6.62397 0
M  V30 8135 H 744.488 0.977637 6.38054 0
M  V30 8136 H 745.256 2.49721 7.79475 0
M  V30 8137 N 747.919 -1.57396 -0.0801906 0
M  V30 8138 C 749.335 -1.53564 -0.434778 0
M  V30 8139 C 749.535 -0.912372 -1.79661 0
M  V30 8140 O 748.591 -0.511268 -2.4727 0
M  V30 8141 C 749.904 -2.98244 -0.383561 0
M  V30 8142 C 751.452 -3.09536 -0.46435 0
M  V30 8143 C 751.927 -4.55851 -0.443128 0
M  V30 8144 N 753.418 -4.60456 -0.503448 0
M  V30 8145 C 754.153 -5.71135 -0.509106 0
M  V30 8146 N 753.649 -6.91203 -0.47008 0
M  V30 8147 N 755.442 -5.59353 -0.555035 0
M  V30 8148 H 747.593 -1.96281 0.811635 0
M  V30 8149 H 749.856 -0.898041 0.303689 0
M  V30 8150 H 749.562 -3.47369 0.550236 0
M  V30 8151 H 749.436 -3.57705 -1.19694 0
M  V30 8152 H 751.823 -2.6039 -1.38857 0
M  V30 8153 H 751.904 -2.53 0.377445 0
M  V30 8154 H 751.548 -5.05653 0.477207 0
M  V30 8155 H 751.478 -5.10242 -1.30234 0
M  V30 8156 H 753.969 -3.74048 -0.538199 0
M  V30 8157 H 754.282 -7.7132 -0.478091 0
M  V30 8158 H 752.627 -6.93625 -0.436897 0
M  V30 8159 H 755.818 -4.64453 -0.583158 0
M  V30 8160 H 755.991 -6.4561 -0.555976 0
M  V30 8161 N 749.397 0.351382 -1.53633 0
M  V30 8162 C 750.345 1.45142 -1.8176 0
M  V30 8163 C 751.339 1.54819 -0.687571 0
M  V30 8164 O 752.545 1.57536 -0.870772 0
M  V30 8165 H 748.92 0.483789 -0.575719 0
M  V30 8166 H 750.891 1.1863 -2.73806 0
M  V30 8167 C 749.64 2.81779 -2.03706 0
M  V30 8168 H 748.963 2.75097 -2.90107 0
M  V30 8169 H 750.403 3.5789 -2.27356 0
M  V30 8170 C 748.862 3.26762 -0.820271 0
M  V30 8171 O 749.392 4.01697 -0.0158603 0
M  V30 8172 N 747.598 2.83472 -0.639699 0
M  V30 8173 H 747.145 2.22655 -1.29547 0
M  V30 8174 H 747.103 3.13924 0.172995 0
M  V30 8175 N 750.875 1.45233 0.611969 0
M  V30 8176 C 752.122 1.49021 1.37109 0
M  V30 8177 C 752.45 0.130227 1.94064 0
M  V30 8178 O 751.705 -0.870551 1.75271 0
M  V30 8179 C 752.004 2.51353 2.54079 0
M  V30 8180 C 751.67 3.96178 2.15299 0
M  V30 8181 C 750.332 4.35614 2.04436 0
M  V30 8182 C 752.684 4.87275 1.84966 0
M  V30 8183 C 750.012 5.64047 1.61456 0
M  V30 8184 C 752.364 6.16115 1.43474 0
M  V30 8185 C 751.028 6.54486 1.31167 0
M  V30 8186 H 750.298 0.545307 0.501719 0
M  V30 8187 H 752.945 1.78555 0.692122 0
M  V30 8188 H 751.25 2.15372 3.27295 0
M  V30 8189 H 752.947 2.51523 3.12309 0
M  V30 8190 H 749.537 3.6499 2.24678 0
M  V30 8191 H 753.721 4.57548 1.92258 0
M  V30 8192 H 748.977 5.92575 1.50547 0
M  V30 8193 H 753.151 6.86149 1.19048 0
M  V30 8194 H 750.778 7.53904 0.97637 0
M  V30 8195 N 752.353 -0.854086 1.3245 0
M  V30 8196 C 753.764 -1.42427 1.20712 0
M  V30 8197 C 754.115 -1.95371 -0.18013 0
M  V30 8198 O 753.24 -1.87587 -1.07889 0
M  V30 8199 C 753.835 -2.58897 2.18536 0
M  V30 8200 C 752.394 -3.11913 2.10683 0
M  V30 8201 C 751.541 -1.84661 2.06871 0
M  V30 8202 H 754.492 -0.661192 1.4427 0
M  V30 8203 H 754.513 -3.36074 1.78422 0
M  V30 8204 H 754.025 -2.20333 3.19492 0
M  V30 8205 H 752.126 -3.55059 1.12977 0
M  V30 8206 H 752.239 -3.73119 3.00532 0
M  V30 8207 H 750.603 -2.04285 1.52118 0
M  V30 8208 H 751.386 -1.48314 3.09609 0
M  V30 8209 N 753.831 -1.1567 -1.07043 0
M  V30 8210 C 754.761 -0.879348 -2.16309 0
M  V30 8211 C 755.742 0.171311 -1.69235 0
M  V30 8212 O 756.927 0.0250175 -1.94184 0
M  V30 8213 C 754.057 -0.371307 -3.45309 0
M  V30 8214 C 753.011 -1.359 -4.05851 0
M  V30 8215 C 752.337 -0.709678 -5.29969 0
M  V30 8216 C 753.637 -2.72606 -4.45514 0
M  V30 8217 H 755.331 -1.79308 -2.39768 0
M  V30 8218 H 752.877 -0.863558 -1.15233 0
M  V30 8219 H 754.83 -0.164798 -4.21078 0
M  V30 8220 H 753.554 0.577906 -3.21446 0
M  V30 8221 H 752.213 -1.55193 -3.32131 0
M  V30 8222 H 751.861 0.245782 -5.02399 0
M  V30 8223 H 751.561 -1.36886 -5.71433 0
M  V30 8224 H 753.085 -0.513015 -6.08441 0
M  V30 8225 H 754.499 -2.57141 -5.12398 0
M  V30 8226 H 752.896 -3.34927 -4.97939 0
M  V30 8227 H 753.966 -3.28434 -3.56734 0
M  V30 8228 N 755.309 1.25446 -0.953992 0
M  V30 8229 C 756.537 1.97215 -0.625595 0
M  V30 8230 C 756.952 1.70911 0.802168 0
M  V30 8231 O 756.309 0.984782 1.5365 0
M  V30 8232 C 756.36 3.50777 -0.873943 0
M  V30 8233 O 756.081 3.76173 -2.24556 0
M  V30 8234 C 757.582 4.39776 -0.557845 0
M  V30 8235 H 754.802 0.628652 -0.2346 0
M  V30 8236 H 757.346 1.59632 -1.27819 0
M  V30 8237 H 755.501 3.86474 -0.267765 0
M  V30 8238 H 755.915 4.70636 -2.31522 0
M  V30 8239 H 757.389 5.46431 -0.782157 0
M  V30 8240 H 757.866 4.36257 0.507573 0
M  V30 8241 H 758.472 4.09644 -1.14332 0
M  V30 8242 N 756.787 0.722489 1.40064 0
M  V30 8243 C 758.036 0.261932 1.99992 0
M  V30 8244 C 758.349 -1.15358 1.57961 0
M  V30 8245 O 759.555 -1.71301 2.10637 0
M  V30 8246 C 758.011 0.41737 3.57472 0
M  V30 8247 C 757.619 1.83997 4.08472 0
M  V30 8248 C 759.363 0.0179561 4.24496 0
M  V30 8249 C 757.27 1.94563 5.5848 0
M  V30 8250 H 756.2 0.0941768 0.748095 0
M  V30 8251 H 758.851 0.894572 1.60218 0
M  V30 8252 H 757.233 -0.283965 3.94981 0
M  V30 8253 H 758.407 2.57224 3.82325 0
M  V30 8254 H 756.722 2.19147 3.54067 0
M  V30 8255 H 759.319 0.076085 5.34646 0
M  V30 8256 H 759.662 -1.02498 4.03485 0
M  V30 8257 H 760.195 0.669988 3.92117 0
M  V30 8258 H 756.934 2.97001 5.84355 0
M  V30 8259 H 756.454 1.25756 5.86469 0
M  V30 8260 H 758.133 1.72095 6.23692 0
M  V30 8261 N 758.265 -1.50454 0.469181 0
M  V30 8262 C 759.49 -2.0722 -0.0864892 0
M  V30 8263 C 759.915 -1.33098 -1.32916 0
M  V30 8264 O 759.273 -0.378084 -1.77314 0
M  V30 8265 C 759.321 -3.58845 -0.355384 0
M  V30 8266 O 758.425 -3.86583 -1.43622 0
M  V30 8267 H 757.766 -0.663889 0.0121414 0
M  V30 8268 H 760.296 -1.93674 0.659674 0
M  V30 8269 H 760.306 -4.03617 -0.596447 0
M  V30 8270 H 758.981 -4.12211 0.552698 0
M  V30 8271 H 757.558 -3.5365 -1.18262 0
M  V30 8272 N 759.743 -0.201713 -1.56304 0
M  V30 8273 C 760.653 0.728296 -2.23009 0
M  V30 8274 C 761.669 1.22945 -1.23128 0
M  V30 8275 O 762.845 1.27523 -1.55884 0
M  V30 8276 C 759.91 1.92792 -2.88153 0
M  V30 8277 C 758.971 1.47068 -4.03323 0
M  V30 8278 C 758.204 2.61312 -4.65351 0
M  V30 8279 O 758.427 3.7896 -4.26317 0
M  V30 8280 O 757.361 2.33646 -5.54701 0
M  V30 8281 H 761.187 0.190166 -3.03104 0
M  V30 8282 H 758.772 0.0278725 -1.49374 0
M  V30 8283 H 760.654 2.6289 -3.29343 0
M  V30 8284 H 759.329 2.45452 -2.11033 0
M  V30 8285 H 758.236 0.738299 -3.66742 0
M  V30 8286 H 759.569 0.990666 -4.82127 0
M  V30 8287 N 761.222 1.57436 0.0718424 0
M  V30 8288 C 762.638 1.53792 0.426628 0
M  V30 8289 C 762.838 0.921887 1.79174 0
M  V30 8290 O 761.894 0.524374 2.46995 0
M  V30 8291 C 763.207 2.98443 0.367739 0
M  V30 8292 C 764.755 3.09778 0.447928 0
M  V30 8293 C 765.23 4.5608 0.418946 0
M  V30 8294 N 766.721 4.60716 0.479022 0
M  V30 8295 C 767.456 5.71397 0.47881 0
M  V30 8296 N 766.952 6.91443 0.433417 0
M  V30 8297 N 768.745 5.59639 0.525364 0
M  V30 8298 H 760.896 1.95848 -0.822033 0
M  V30 8299 H 763.159 0.896418 -0.308447 0
M  V30 8300 H 762.865 3.47072 -0.56865 0
M  V30 8301 H 762.739 3.58335 1.17795 0
M  V30 8302 H 765.126 2.61122 1.37474 0
M  V30 8303 H 765.207 2.52796 -0.390857 0
M  V30 8304 H 764.851 5.05393 -0.504016 0
M  V30 8305 H 764.781 5.10925 1.27526 0
M  V30 8306 H 767.272 3.74328 0.518355 0
M  V30 8307 H 767.585 7.71562 0.43718 0
M  V30 8308 H 765.93 6.93847 0.400106 0
M  V30 8309 H 769.121 4.64756 0.558519 0
M  V30 8310 H 769.294 6.45896 0.52173 0
M  V30 8311 N 762.7 -0.34323 1.53817 0
M  V30 8312 C 763.946 -1.08137 1.72273 0
M  V30 8313 C 764.301 -1.86311 0.480201 0
M  V30 8314 O 763.594 -1.84204 -0.527192 0
M  V30 8315 C 763.788 -2.05195 2.92626 0
M  V30 8316 C 763.617 -1.36561 4.28464 0
M  V30 8317 C 762.387 -1.11033 4.9295 0
M  V30 8318 C 764.585 -0.791663 5.0817 0
M  V30 8319 N 762.567 -0.389839 6.12661 0
M  V30 8320 C 763.938 -0.201742 6.19672 0
M  V30 8321 C 765.993 -0.692541 4.9306 0
M  V30 8322 C 764.696 0.477661 7.17712 0
M  V30 8323 C 766.722 -0.0268775 5.91394 0
M  V30 8324 C 766.084 0.552072 7.02233 0
M  V30 8325 H 762.183 -0.380078 0.683421 0
M  V30 8326 H 764.767 -0.364925 1.9125 0
M  V30 8327 H 762.938 -2.74131 2.75149 0
M  V30 8328 H 764.67 -2.7185 2.99799 0
M  V30 8329 H 761.425 -1.39752 4.52511 0
M  V30 8330 H 761.849 -0.0443076 6.76986 0
M  V30 8331 H 766.491 -1.12589 4.07534 0
M  V30 8332 H 764.209 0.922895 8.02813 0
M  V30 8333 H 767.795 0.0491921 5.81779 0
M  V30 8334 H 766.675 1.05899 7.77017 0
M  V30 8335 N 764.178 -1.45556 -0.604258 0
M  V30 8336 C 765.11 -1.50494 -1.72871 0
M  V30 8337 C 766.123 -0.395368 -1.57926 0
M  V30 8338 O 767.312 -0.662603 -1.65746 0
M  V30 8339 C 764.412 -1.34874 -3.10906 0
M  V30 8340 C 763.585 -2.59564 -3.52058 0
M  V30 8341 C 762.644 -2.38453 -4.6907 0
M  V30 8342 O 761.67 -3.12082 -4.76018 0
M  V30 8343 N 762.872 -1.43229 -5.62553 0
M  V30 8344 H 765.637 -2.4744 -1.69097 0
M  V30 8345 H 763.198 -1.41338 -0.789636 0
M  V30 8346 H 765.19 -1.18556 -3.86945 0
M  V30 8347 H 763.76 -0.461913 -3.09168 0
M  V30 8348 H 762.98 -2.90974 -2.65946 0
M  V30 8349 H 764.268 -3.42441 -3.76313 0
M  V30 8350 H 763.666 -0.824714 -5.59656 0
M  V30 8351 H 762.223 -1.32882 -6.38111 0
M  V30 8352 N 765.656 0.84705 -1.32902 0
M  V30 8353 C 766.588 1.96308 -1.18304 0
M  V30 8354 C 767.601 1.62386 -0.116082 0
M  V30 8355 O 768.79 1.74713 -0.365751 0
M  V30 8356 C 765.89 3.29556 -0.790305 0
M  V30 8357 C 765.063 3.91668 -1.94717 0
M  V30 8358 C 764.122 5.0326 -1.53674 0
M  V30 8359 O 763.148 5.22847 -2.24989 0
M  V30 8360 N 764.35 5.78852 -0.437075 0
M  V30 8361 H 767.115 2.09369 -2.14441 0
M  V30 8362 H 764.676 1.02233 -1.25539 0
M  V30 8363 H 766.668 4.01624 -0.49799 0
M  V30 8364 H 765.238 3.12497 0.0801286 0
M  V30 8365 H 764.458 3.12292 -2.40557 0
M  V30 8366 H 765.746 4.299 -2.72146 0
M  V30 8367 H 765.144 5.65484 0.156316 0
M  V30 8368 H 763.701 6.51479 -0.204399 0
M  V30 8369 N 767.134 1.16236 1.06428 0
M  V30 8370 C 768.044 0.881976 2.1739 0
M  V30 8371 C 769.06 -0.145259 1.73393 0
M  V30 8372 O 770.236 0.0310558 2.01376 0
M  V30 8373 C 767.301 0.385496 3.4455 0
M  V30 8374 C 766.362 1.47779 4.03063 0
M  V30 8375 C 765.595 1.0049 5.24154 0
M  V30 8376 O 765.818 -0.145889 5.70213 0
M  V30 8377 O 764.752 1.79265 5.74585 0
M  V30 8378 H 768.578 1.80983 2.43883 0
M  V30 8379 H 766.163 0.942226 1.15942 0
M  V30 8380 H 768.045 0.115536 4.21242 0
M  V30 8381 H 766.72 -0.514369 3.19587 0
M  V30 8382 H 765.627 1.80147 3.27869 0
M  V30 8383 H 766.96 2.35291 4.32318 0
M  V30 8384 N 768.612 -1.24939 0.960631 0
M  V30 8385 C 769.858 -1.93104 0.61958 0
M  V30 8386 C 770.191 -1.74991 -0.84212 0
M  V30 8387 O 769.466 -1.09867 -1.60498 0
M  V30 8388 C 769.749 -3.46326 0.986422 0
M  V30 8389 C 769.602 -3.73638 2.50429 0
M  V30 8390 C 770.921 -4.37067 0.515827 0
M  V30 8391 H 768.04 -0.701311 0.226566 0
M  V30 8392 H 770.682 -1.47442 1.19836 0
M  V30 8393 H 768.832 -3.85348 0.493907 0
M  V30 8394 H 770.504 -3.44217 3.07103 0
M  V30 8395 H 768.747 -3.19035 2.93937 0
M  V30 8396 H 769.418 -4.80815 2.71147 0
M  V30 8397 H 771.894 -4.05381 0.938389 0
M  V30 8398 H 770.77 -5.43022 0.80114 0
M  V30 8399 H 771.031 -4.38224 -0.584171 0
M  V30 8400 N 770.09 -0.729906 -1.39679 0
M  V30 8401 C 771.053 -0.0951668 -2.29002 0
M  V30 8402 C 772.053 0.672471 -1.46063 0
M  V30 8403 O 773.243 0.502245 -1.66803 0
M  V30 8404 C 770.375 0.874631 -3.29489 0
M  V30 8405 H 771.568 -0.882062 -2.86635 0
M  V30 8406 H 769.121 -0.495424 -1.4824 0
M  V30 8407 H 769.856 1.68807 -2.76902 0
M  V30 8408 H 769.641 0.326893 -3.90735 0
M  V30 8409 H 771.131 1.31548 -3.96339 0
M  V30 8410 N 771.568 1.50203 -0.477153 0
M  V30 8411 C 772.478 2.32421 0.319027 0
M  V30 8412 C 773.494 1.43075 0.990233 0
M  V30 8413 O 774.67 1.76123 0.976873 0
M  V30 8414 C 771.735 3.17909 1.38328 0
M  V30 8415 C 770.796 4.23082 0.728036 0
M  V30 8416 C 770.029 5.04484 1.74158 0
M  V30 8417 O 770.252 4.8705 2.96881 0
M  V30 8418 O 769.186 5.8747 1.31006 0
M  V30 8419 H 773.012 3.01638 -0.353281 0
M  V30 8420 H 770.597 1.47478 -0.238891 0
M  V30 8421 H 772.479 3.70937 1.9996 0
M  V30 8422 H 771.154 2.51413 2.03895 0
M  V30 8423 H 770.061 3.7403 0.07261 0
M  V30 8424 H 771.394 4.92065 0.115216 0
M  V30 8425 N 773.046 0.209999 1.56195 0
M  V30 8426 C 774.274 -0.429996 2.02382 0
M  V30 8427 C 774.689 -1.54159 1.08998 0
M  V30 8428 O 774.046 -1.82239 0.0974856 0
M  V30 8429 C 774.097 -0.972433 3.48175 0
M  V30 8430 O 773.818 0.0948231 4.37997 0
M  V30 8431 C 775.319 -1.68683 4.09952 0
M  V30 8432 H 772.539 -0.106475 0.662498 0
M  V30 8433 H 775.083 0.323072 2.01932 0
M  V30 8434 H 773.238 -1.67582 3.49278 0
M  V30 8435 H 773.652 -0.31113 5.23576 0
M  V30 8436 H 775.126 -2.01851 5.13771 0
M  V30 8437 H 775.603 -2.59587 3.54276 0
M  V30 8438 H 776.209 -1.02893 4.12666 0
M  V30 8439 N 774.524 -1.57472 -0.0634922 0
M  V30 8440 C 775.77 -1.87932 -0.762194 0
M  V30 8441 C 776.103 -0.803377 -1.76804 0
M  V30 8442 O 775.378 0.185468 -1.93614 0
M  V30 8443 C 775.661 -3.29053 -1.46275 0
M  V30 8444 C 775.514 -4.47309 -0.472755 0
M  V30 8445 C 776.833 -3.68537 -2.40558 0
M  V30 8446 H 773.952 -0.683521 -0.275624 0
M  V30 8447 H 776.594 -1.89983 -0.0252651 0
M  V30 8448 H 774.744 -3.27435 -2.0909 0
M  V30 8449 H 776.416 -4.61053 0.150828 0
M  V30 8450 H 774.659 -4.33286 0.211187 0
M  V30 8451 H 775.33 -5.42853 -1.00072 0
M  V30 8452 H 777.806 -3.71302 -1.87814 0
M  V30 8453 H 776.682 -4.68152 -2.86574 0
M  V30 8454 H 776.943 -2.98917 -3.25731 0
M  V30 8455 N 776.003 0.335068 -1.53997 0
M  V30 8456 C 777.25 1.07435 -1.71651 0
M  V30 8457 C 777.578 1.88378 -0.48413 0
M  V30 8458 O 776.833 1.8827 0.534139 0
M  V30 8459 C 777.132 2.0364 -2.9371 0
M  V30 8460 C 776.798 1.38942 -4.28959 0
M  V30 8461 C 775.46 1.21027 -4.65732 0
M  V30 8462 C 777.812 0.924083 -5.12943 0
M  V30 8463 C 775.14 0.552097 -5.84097 0
M  V30 8464 C 777.492 0.27978 -6.31981 0
M  V30 8465 C 776.156 0.0883843 -6.67441 0
M  V30 8466 H 775.426 0.393133 -0.628114 0
M  V30 8467 H 778.073 0.352712 -1.88224 0
M  V30 8468 H 776.378 2.82215 -2.71775 0
M  V30 8469 H 778.075 2.6085 -3.04562 0
M  V30 8470 H 774.665 1.53885 -4.00022 0
M  V30 8471 H 778.849 1.05032 -4.85059 0
M  V30 8472 H 774.105 0.392502 -6.10139 0
M  V30 8473 H 778.279 -0.0888479 -6.96343 0
M  V30 8474 H 775.906 -0.423657 -7.59019 0
M  V30 8475 N 777.481 1.45874 0.596531 0
M  V30 8476 C 778.758 1.40942 1.35627 0
M  V30 8477 C 779.138 0.0857066 2.10926 0
M  V30 8478 O 778.486 -0.932544 2.08605 0
M  V30 8479 C 778.696 2.63027 2.29386 0
M  V30 8480 C 780.044 3.08588 2.91649 0
M  V30 8481 O 781.068 2.63478 2.39704 0
M  V30 8482 O 779.927 3.86902 3.85965 0
M  V30 8483 H 777.021 0.559838 0.608696 0
M  V30 8484 H 779.567 1.5802 0.618698 0
M  V30 8485 H 778.339 3.5094 1.7308 0
M  V30 8486 H 777.962 2.48338 3.10506 0
M  V30 8487 N 778.959 -0.83999 1.33349 0
M  V30 8488 C 780.187 -1.62728 1.27778 0
M  V30 8489 C 780.602 -1.88191 -0.151505 0
M  V30 8490 O 779.959 -1.46128 -1.09329 0
M  V30 8491 C 780.01 -2.97813 2.04913 0
M  V30 8492 O 779.731 -2.73469 3.42266 0
M  V30 8493 C 781.232 -3.92245 2.0654 0
M  V30 8494 H 778.452 -0.506374 0.440257 0
M  V30 8495 H 780.996 -1.04637 1.75703 0
M  V30 8496 H 779.151 -3.52509 1.60674 0
M  V30 8497 H 779.565 -3.59483 3.81932 0
M  V30 8498 H 781.039 -4.84249 2.64966 0
M  V30 8499 H 781.516 -4.26332 1.05537 0
M  V30 8500 H 782.122 -3.43487 2.50793 0
M  V30 8501 N 780.437 -1.16799 -1.0581 0
M  V30 8502 C 781.686 -0.94698 -1.78088 0
M  V30 8503 C 781.999 0.526016 -1.88394 0
M  V30 8504 O 783.205 0.865061 -2.5735 0
M  V30 8505 C 781.661 -1.64508 -3.20102 0
M  V30 8506 C 781.269 -3.15618 -3.17946 0
M  V30 8507 C 783.013 -1.50622 -3.96879 0
M  V30 8508 C 780.92 -3.78144 -4.5471 0
M  V30 8509 H 779.85 -0.35067 -0.667493 0
M  V30 8510 H 782.501 -1.39985 -1.18645 0
M  V30 8511 H 780.883 -1.11993 -3.79834 0
M  V30 8512 H 782.057 -3.75016 -2.67768 0
M  V30 8513 H 780.372 -3.29444 -2.54667 0
M  V30 8514 H 782.969 -1.94713 -4.97987 0
M  V30 8515 H 783.312 -0.455864 -4.13797 0
M  V30 8516 H 783.845 -2.00319 -3.43682 0
M  V30 8517 H 780.584 -4.83149 -4.42998 0
M  V30 8518 H 780.104 -3.23532 -5.05062 0
M  V30 8519 H 781.783 -3.79986 -5.2366 0
M  V30 8520 N 781.915 1.24427 -0.967243 0
M  V30 8521 C 782.863 2.27403 -0.488927 0
M  V30 8522 C 783.857 1.63388 0.447302 0
M  V30 8523 O 785.063 1.77085 0.322643 0
M  V30 8524 H 781.438 0.738921 -0.139643 0
M  V30 8525 H 783.409 2.65122 -1.36942 0
M  V30 8526 C 782.158 3.4709 0.205787 0
M  V30 8527 H 781.481 3.96591 -0.50551 0
M  V30 8528 H 782.921 4.2099 0.504296 0
M  V30 8529 C 781.38 3.04923 1.43261 0
M  V30 8530 O 781.91 3.12043 2.52967 0
M  V30 8531 N 780.116 2.59976 1.29849 0
M  V30 8532 H 779.663 2.54382 0.405876 0
M  V30 8533 H 779.621 2.32128 2.12047 0
M  V30 8534 N 783.393 0.737304 1.3929 0
M  V30 8535 C 784.356 0.10731 2.28949 0
M  V30 8536 C 785.356 -0.664716 1.46418 0
M  V30 8537 O 786.546 -0.493392 1.67067 0
M  V30 8538 C 783.678 -0.857145 3.29948 0
M  V30 8539 H 784.871 0.89725 2.86163 0
M  V30 8540 H 782.424 0.503279 1.47976 0
M  V30 8541 H 783.159 -1.67336 2.77794 0
M  V30 8542 H 782.944 -0.306167 3.90903 0
M  V30 8543 H 784.434 -1.29444 3.97031 0
M  V30 8544 N 784.871 -1.49948 0.485112 0
M  V30 8545 C 785.781 -2.32587 -0.306697 0
M  V30 8546 C 786.797 -1.43598 -0.982632 0
M  V30 8547 O 787.973 -1.76638 -0.967519 0
M  V30 8548 C 785.038 -3.18638 -1.3664 0
M  V30 8549 C 784.099 -4.23462 -0.705589 0
M  V30 8550 C 783.332 -5.05401 -1.7148 0
M  V30 8551 O 783.555 -4.88618 -2.94293 0
M  V30 8552 O 782.489 -5.88157 -1.27889 0
M  V30 8553 H 786.315 -3.01447 0.369272 0
M  V30 8554 H 783.9 -1.47349 0.246709 0
M  V30 8555 H 785.782 -3.71992 -1.9799 0
M  V30 8556 H 784.457 -2.52491 -2.02559 0
M  V30 8557 H 783.364 -3.74063 -0.0527733 0
M  V30 8558 H 784.697 -4.92119 -0.0891187 0
M  V30 8559 N 786.349 -0.21828 -1.56081 0
M  V30 8560 C 787.577 0.419258 -2.02608 0
M  V30 8561 C 787.992 1.53578 -1.09814 0
M  V30 8562 O 787.349 1.82185 -0.107149 0
M  V30 8563 C 787.4 0.953955 -3.48686 0
M  V30 8564 O 787.121 -0.11805 -4.37941 0
M  V30 8565 C 788.622 1.66506 -4.10841 0
M  V30 8566 H 785.842 0.10296 -0.663054 0
M  V30 8567 H 788.386 -0.333776 -2.01758 0
M  V30 8568 H 786.541 1.65727 -3.50162 0
M  V30 8569 H 786.955 0.283359 -5.23734 0
M  V30 8570 H 788.429 1.99123 -5.14834 0
M  V30 8571 H 788.906 2.57705 -3.55647 0
M  V30 8572 H 789.512 1.00703 -4.13206 0
M  V30 8573 N 787.827 1.57504 0.0551401 0
M  V30 8574 C 789.104 1.79155 0.785048 0
M  V30 8575 C 789.484 0.809995 1.94942 0
M  V30 8576 O 788.832 -0.153432 2.27984 0
M  V30 8577 C 789.042 3.26134 1.24247 0
M  V30 8578 C 790.39 3.90419 1.66908 0
M  V30 8579 O 791.414 3.30126 1.33772 0
M  V30 8580 O 790.273 4.96523 2.28314 0
M  V30 8581 H 787.367 0.735825 0.377479 0
M  V30 8582 H 789.913 1.69666 0.0339285 0
M  V30 8583 H 788.685 3.89145 0.410089 0
M  V30 8584 H 788.308 3.40411 2.05441 0
M  V30 8585 N 789.305 -0.326896 1.54172 0
M  V30 8586 C 790.721 -0.671034 1.44808 0
M  V30 8587 C 790.921 -1.91781 0.618258 0
M  V30 8588 O 789.977 -2.52235 0.115751 0
M  V30 8589 C 791.29 -0.848147 2.88491 0
M  V30 8590 C 792.838 -0.945702 2.98371 0
M  V30 8591 C 793.313 -1.15501 4.43197 0
M  V30 8592 N 794.804 -1.22183 4.46795 0
M  V30 8593 C 795.539 -1.4016 5.56006 0
M  V30 8594 N 795.035 -1.55202 6.75192 0
M  V30 8595 N 796.828 -1.42841 5.43648 0
M  V30 8596 H 788.979 0.49262 2.06608 0
M  V30 8597 H 791.242 0.158574 0.934643 0
M  V30 8598 H 790.948 -0.00329969 3.517 0
M  V30 8599 H 790.822 -1.74497 3.34411 0
M  V30 8600 H 793.209 -1.78106 2.35292 0
M  V30 8601 H 793.29 -0.0254215 2.55787 0
M  V30 8602 H 792.934 -0.324521 5.06862 0
M  V30 8603 H 792.864 -2.08911 4.83388 0
M  V30 8604 H 795.355 -1.12016 3.60917 0
M  V30 8605 H 795.668 -1.68601 7.54184 0
M  V30 8606 H 794.013 -1.52306 6.78106 0
M  V30 8607 H 797.204 -1.30683 4.49488 0
M  V30 8608 H 797.377 -1.56509 6.28816 0
M  V30 8609 N 790.784 -1.46188 -0.588786 0
M  V30 8610 C 791.714 -1.59148 -1.70863 0
M  V30 8611 C 792.695 -0.442083 -1.64255 0
M  V30 8612 O 793.88 -0.667575 -1.82365 0
M  V30 8613 C 791.01 -1.5757 -3.09498 0
M  V30 8614 C 789.964 -2.71418 -3.30932 0
M  V30 8615 C 789.29 -2.549 -4.70032 0
M  V30 8616 C 790.59 -4.1329 -3.19356 0
M  V30 8617 H 792.284 -2.52889 -1.60274 0
M  V30 8618 H 789.83 -1.21707 -0.769638 0
M  V30 8619 H 791.783 -1.65231 -3.87655 0
M  V30 8620 H 790.507 -0.603705 -3.20972 0
M  V30 8621 H 789.166 -2.63216 -2.55172 0
M  V30 8622 H 788.814 -1.55797 -4.78264 0
M  V30 8623 H 788.514 -3.31257 -4.85327 0
M  V30 8624 H 790.038 -2.64443 -5.50366 0
M  V30 8625 H 791.452 -4.22636 -3.87365 0
M  V30 8626 H 789.849 -4.90187 -3.46175 0
M  V30 8627 H 790.919 -4.33874 -2.16522 0
M  V30 8628 N 792.262 0.832906 -1.33792 0
M  V30 8629 C 793.172 1.97514 -1.26592 0
M  V30 8630 C 794.188 1.73114 -0.175391 0
M  V30 8631 O 795.364 1.97387 -0.400062 0
M  V30 8632 C 792.429 3.31625 -1.01121 0
M  V30 8633 C 791.49 3.69101 -2.19233 0
M  V30 8634 C 790.723 4.96813 -1.94968 0
M  V30 8635 O 790.946 5.63208 -0.902955 0
M  V30 8636 O 789.88 5.31932 -2.8166 0
M  V30 8637 H 793.706 2.0653 -2.22664 0
M  V30 8638 H 791.291 0.966826 -1.13898 0
M  V30 8639 H 793.173 4.11968 -0.886571 0
M  V30 8640 H 791.848 3.23599 -0.080822 0
M  V30 8641 H 790.755 2.89243 -2.37253 0
M  V30 8642 H 792.088 3.818 -3.10628 0
M  V30 8643 N 793.74 1.17359 1.05189 0
M  V30 8644 C 794.703 0.892604 2.11105 0
M  V30 8645 C 795.703 -0.117236 1.60372 0
M  V30 8646 O 796.893 0.114936 1.7382 0
M  V30 8647 C 794.025 0.337032 3.3923 0
M  V30 8648 H 795.218 1.83169 2.37464 0
M  V30 8649 H 792.771 0.984051 1.21434 0
M  V30 8650 H 793.506 -0.609198 3.18527 0
M  V30 8651 H 793.291 1.06484 3.77364 0
M  V30 8652 H 794.781 0.158763 4.17298 0
M  V30 8653 N 795.218 -1.23913 0.973828 0
M  V30 8654 C 796.634 -1.44325 0.681363 0
M  V30 8655 C 796.834 -1.86832 -0.754728 0
M  V30 8656 O 795.89 -2.01024 -1.52793 0
M  V30 8657 C 797.203 -2.50017 1.67069 0
M  V30 8658 C 798.751 -2.63838 1.68399 0
M  V30 8659 C 799.226 -3.72734 2.66145 0
M  V30 8660 N 800.717 -3.80169 2.64624 0
M  V30 8661 C 801.452 -4.6397 3.36927 0
M  V30 8662 N 800.948 -5.51911 4.18767 0
M  V30 8663 N 802.741 -4.58106 3.25722 0
M  V30 8664 H 794.892 -0.946204 1.9016 0
M  V30 8665 H 797.155 -0.477374 0.819035 0
M  V30 8666 H 796.861 -2.25686 2.69738 0
M  V30 8667 H 796.735 -3.48287 1.4483 0
M  V30 8668 H 799.122 -2.87524 0.664379 0
M  V30 8669 H 799.203 -1.65906 1.94702 0
M  V30 8670 H 798.847 -3.49797 3.68245 0
M  V30 8671 H 798.777 -4.70193 2.3712 0
M  V30 8672 H 801.268 -3.17319 2.05224 0
M  V30 8673 H 801.581 -6.12828 4.70809 0
M  V30 8674 H 799.926 -5.51556 4.2286 0
M  V30 8675 H 803.117 -3.8842 2.61242 0
M  V30 8676 H 803.29 -5.23188 3.82333 0
M  V30 8677 N 796.696 -0.74468 -1.38897 0
M  V30 8678 C 797.643 -0.111064 -2.30533 0
M  V30 8679 C 798.613 0.719276 -1.49719 0
M  V30 8680 O 799.798 0.677244 -1.78376 0
M  V30 8681 C 796.938 0.78292 -3.36102 0
M  V30 8682 C 796.051 -0.0610817 -4.31957 0
M  V30 8683 C 795.186 0.835075 -5.24595 0
M  V30 8684 C 794.225 -0.0130974 -6.12099 0
M  V30 8685 N 793.362 0.839525 -6.97063 0
M  V30 8686 H 798.202 -0.898113 -2.84144 0
M  V30 8687 H 795.739 -0.454537 -1.39901 0
M  V30 8688 H 797.697 1.31578 -3.95908 0
M  V30 8689 H 796.327 1.53585 -2.83922 0
M  V30 8690 H 795.379 -0.711469 -3.73687 0
M  V30 8691 H 796.691 -0.716482 -4.93627 0
M  V30 8692 H 795.845 1.43542 -5.89475 0
M  V30 8693 H 794.584 1.52423 -4.63269 0
M  V30 8694 H 793.589 -0.626179 -5.46223 0
M  V30 8695 H 794.814 -0.699181 -6.75491 0
M  V30 8696 H 792.76 1.5138 -6.38295 0
M  V30 8697 H 792.677 0.240823 -7.55616 0
M  V30 8698 H 793.945 1.42513 -7.66362 0
M  V30 8699 N 798.174 1.49689 -0.493057 0
M  V30 8700 C 799.121 2.28976 0.28959 0
M  V30 8701 C 800.091 1.35011 0.967536 0
M  V30 8702 O 801.276 1.63964 0.975736 0
M  V30 8703 C 798.416 3.1748 1.35279 0
M  V30 8704 C 797.529 4.26496 0.687418 0
M  V30 8705 C 796.664 5.02226 1.73038 0
M  V30 8706 C 795.703 6.03089 1.04645 0
M  V30 8707 N 794.84 6.72014 2.03325 0
M  V30 8708 H 799.68 2.954 -0.392798 0
M  V30 8709 H 797.217 1.45657 -0.205554 0
M  V30 8710 H 799.175 3.67162 1.98111 0
M  V30 8711 H 797.805 2.53057 2.00405 0
M  V30 8712 H 796.857 3.80362 -0.0540001 0
M  V30 8713 H 798.169 4.98578 0.14864 0
M  V30 8714 H 797.323 5.55737 2.43395 0
M  V30 8715 H 796.062 4.29899 2.303 0
M  V30 8716 H 795.067 5.48817 0.328606 0
M  V30 8717 H 796.292 6.77398 0.480428 0
M  V30 8718 H 794.238 6.02464 2.59564 0
M  V30 8719 H 794.155 7.40046 1.54492 0
M  V30 8720 H 795.423 7.30133 2.72995 0
M  V30 8721 N 799.652 0.226554 1.55963 0
M  V30 8722 C 800.615 -0.668015 2.19249 0
M  V30 8723 C 801.615 -1.11794 1.1558 0
M  V30 8724 O 802.805 -1.02593 1.40784 0
M  V30 8725 C 799.937 -1.91571 2.81981 0
M  V30 8726 H 801.13 -0.116175 2.99675 0
M  V30 8727 H 798.683 -0.0230497 1.56283 0
M  V30 8728 H 799.418 -2.50929 2.05439 0
M  V30 8729 H 799.203 -1.6015 3.57903 0
M  V30 8730 H 800.693 -2.55294 3.30477 0
M  V30 8731 N 801.13 -1.57531 -0.0467866 0
M  V30 8732 C 802.077 -2.05387 -1.05285 0
M  V30 8733 C 803.047 -0.939385 -1.36985 0
M  V30 8734 O 804.232 -1.20877 -1.47626 0
M  V30 8735 C 801.372 -2.52343 -2.35408 0
M  V30 8736 C 800.485 -3.77512 -2.10022 0
M  V30 8737 C 799.62 -4.1315 -3.33887 0
M  V30 8738 C 798.659 -5.31286 -3.03976 0
M  V30 8739 N 797.796 -5.62441 -4.20243 0
M  V30 8740 H 802.636 -2.91095 -0.637788 0
M  V30 8741 H 800.173 -1.43939 -0.303322 0
M  V30 8742 H 802.131 -2.77628 -3.11413 0
M  V30 8743 H 800.761 -1.69577 -2.7467 0
M  V30 8744 H 799.813 -3.59417 -1.24594 0
M  V30 8745 H 801.125 -4.63644 -1.83945 0
M  V30 8746 H 800.279 -4.39469 -4.18273 0
M  V30 8747 H 799.018 -3.25634 -3.63062 0
M  V30 8748 H 798.023 -5.04738 -2.17991 0
M  V30 8749 H 799.248 -6.20441 -2.76098 0
M  V30 8750 H 797.194 -4.77885 -4.49402 0
M  V30 8751 H 797.111 -6.43046 -3.97528 0
M  V30 8752 H 798.379 -5.93327 -5.05553 0
M  V30 8753 N 802.608 0.318715 -1.54344 0
M  V30 8754 C 803.556 1.41254 -1.84798 0
M  V30 8755 C 804.55 1.53325 -0.720256 0
M  V30 8756 O 805.756 1.55653 -0.903992 0
M  V30 8757 H 802.131 0.471468 -0.585851 0
M  V30 8758 H 804.102 1.12795 -2.7626 0
M  V30 8759 C 802.851 2.77395 -2.09637 0
M  V30 8760 H 802.174 2.68881 -2.95876 0
M  V30 8761 H 803.614 3.52987 -2.34896 0
M  V30 8762 C 802.073 3.24948 -0.889398 0
M  V30 8763 O 802.603 4.01573 -0.101063 0
M  V30 8764 N 800.809 2.82051 -0.699684 0
M  V30 8765 H 800.356 2.19858 -1.3424 0
M  V30 8766 H 800.314 3.1422 0.106368 0
M  V30 8767 N 804.086 1.46499 0.581025 0
M  V30 8768 C 805.033 1.5719 1.68997 0
M  V30 8769 C 806.003 0.416114 1.60803 0
M  V30 8770 O 807.188 0.633086 1.79991 0
M  V30 8771 C 804.328 1.56973 3.07333 0
M  V30 8772 C 803.441 2.83298 3.26139 0
M  V30 8773 C 802.576 2.74574 4.54734 0
M  V30 8774 C 801.615 3.9583 4.66889 0
M  V30 8775 N 800.752 3.85482 5.86811 0
M  V30 8776 H 805.592 2.51914 1.59196 0
M  V30 8777 H 803.129 1.24975 0.775857 0
M  V30 8778 H 805.087 1.54832 3.87405 0
M  V30 8779 H 803.717 0.657803 3.16027 0
M  V30 8780 H 802.769 2.95411 2.3966 0
M  V30 8781 H 804.081 3.7316 3.30988 0
M  V30 8782 H 803.235 2.70548 5.43036 0
M  V30 8783 H 801.974 1.82354 4.52325 0
M  V30 8784 H 800.979 4.00186 3.77003 0
M  V30 8785 H 802.204 4.89148 4.71075 0
M  V30 8786 H 800.15 2.96051 5.85397 0
M  V30 8787 H 800.067 4.69002 5.92936 0
M  V30 8788 H 801.335 3.85434 6.7754 0
M  V30 8789 N 805.565 -0.825799 1.34232 0
M  V30 8790 C 806.497 -1.94401 1.21413 0
M  V30 8791 C 807.51 -1.6218 0.141902 0
M  V30 8792 O 808.699 -1.74109 0.3935 0
M  V30 8793 C 805.799 -3.28257 0.842635 0
M  V30 8794 C 804.972 -3.88521 2.00924 0
M  V30 8795 C 804.031 -5.00752 1.61661 0
M  V30 8796 O 803.057 -5.19201 2.33279 0
M  V30 8797 N 804.259 -5.78084 0.52911 0
M  V30 8798 H 807.024 -2.05931 2.17744 0
M  V30 8799 H 804.585 -1.00223 1.27149 0
M  V30 8800 H 806.577 -4.00781 0.561822 0
M  V30 8801 H 805.147 -3.12585 -0.0304029 0
M  V30 8802 H 804.367 -3.08425 2.45495 0
M  V30 8803 H 805.655 -4.25516 2.78951 0
M  V30 8804 H 805.053 -5.65661 -0.0663322 0
M  V30 8805 H 803.61 -6.51072 0.308017 0
M  V30 8806 N 807.043 -1.17915 -1.04565 0
M  V30 8807 C 807.973 -0.925033 -2.14395 0
M  V30 8808 C 808.954 0.135375 -1.6956 0
M  V30 8809 O 810.139 -0.0161774 -1.94193 0
M  V30 8810 C 807.269 -0.444469 -3.44444 0
M  V30 8811 C 806.223 -1.44478 -4.02877 0
M  V30 8812 C 805.549 -0.821933 -5.28345 0
M  V30 8813 C 806.849 -2.81995 -4.39632 0
M  V30 8814 H 808.543 -1.84354 -2.35911 0
M  V30 8815 H 806.089 -0.887806 -1.13375 0
M  V30 8816 H 808.042 -0.254078 -4.20633 0
M  V30 8817 H 806.766 0.509592 -3.226 0
M  V30 8818 H 805.425 -1.62203 -3.28764 0
M  V30 8819 H 805.073 0.139161 -5.02807 0
M  V30 8820 H 804.773 -1.48976 -5.68401 0
M  V30 8821 H 806.297 -0.641959 -6.07216 0
M  V30 8822 H 807.711 -2.67952 -5.06828 0
M  V30 8823 H 806.108 -3.45414 -4.90723 0
M  V30 8824 H 807.178 -3.35927 -3.49687 0
M  V30 8825 N 808.521 1.23394 -0.980386 0
M  V30 8826 C 809.769 1.91431 -0.647978 0
M  V30 8827 C 810.09 1.76871 0.821066 0
M  V30 8828 O 809.36 1.14808 1.58732 0
M  V30 8829 H 807.94 0.708516 -0.236673 0
M  V30 8830 H 810.602 1.50019 -1.2442 0
M  V30 8831 H 809.698 2.98854 -0.899592 0
M  V30 8832 N 809.999 0.752036 1.385 0
M  V30 8833 C 810.949 0.0990189 2.27785 0
M  V30 8834 C 811.933 -0.694867 1.45122 0
M  V30 8835 O 813.125 -0.561077 1.67872 0
M  V30 8836 C 810.254 -0.794531 3.33979 0
M  V30 8837 C 809.34 0.00611984 4.241 0
M  V30 8838 N 809.731 1.04174 4.94956 0
M  V30 8839 C 808.029 -0.220934 4.45452 0
M  V30 8840 C 808.73 1.52601 5.61327 0
M  V30 8841 N 807.706 0.84159 5.37046 0
M  V30 8842 H 811.508 0.892208 2.8003 0
M  V30 8843 H 809.022 0.587934 1.51384 0
M  V30 8844 H 811.019 -1.27797 3.96829 0
M  V30 8845 H 809.679 -1.58669 2.83292 0
M  V30 8846 H 810.69 1.42349 4.97953 0
M  V30 8847 H 807.367 -0.986556 4.05676 0
M  V30 8848 H 808.757 2.38857 6.2801 0
M  V30 8849 N 811.477 -1.49425 0.500989 0
M  V30 8850 C 812.387 -2.32899 -0.282011 0
M  V30 8851 C 813.403 -1.44632 -0.967346 0
M  V30 8852 O 814.579 -1.77654 -0.94873 0
M  V30 8853 C 811.644 -3.20069 -1.33253 0
M  V30 8854 C 810.705 -4.24186 -0.660636 0
M  V30 8855 C 809.938 -5.07191 -1.6611 0
M  V30 8856 O 810.161 -4.91712 -2.89094 0
M  V30 8857 O 809.095 -5.8948 -1.21643 0
M  V30 8858 H 812.921 -3.01038 0.401224 0
M  V30 8859 H 810.506 -1.47079 0.262323 0
M  V30 8860 H 812.388 -3.74071 -1.94033 0
M  V30 8861 H 811.063 -2.54625 -1.9987 0
M  V30 8862 H 809.97 -3.74098 -0.0130959 0
M  V30 8863 H 811.303 -4.92186 -0.0369179 0
M  V30 8864 N 812.955 -0.234822 -1.55841 0
M  V30 8865 C 813.865 0.680828 -2.24504 0
M  V30 8866 C 814.881 1.20306 -1.25708 0
M  V30 8867 O 816.057 1.24188 -1.58554 0
M  V30 8868 C 813.122 1.86636 -2.92178 0
M  V30 8869 C 812.183 1.3848 -4.06352 0
M  V30 8870 C 811.416 2.51382 -4.70789 0
M  V30 8871 O 811.639 3.69831 -4.34259 0
M  V30 8872 O 810.573 2.21828 -5.59532 0
M  V30 8873 H 814.399 0.12583 -3.03439 0
M  V30 8874 H 811.984 -0.00381817 -1.494 0
M  V30 8875 H 813.866 2.55845 -3.34845 0
M  V30 8876 H 812.541 2.40921 -2.16192 0
M  V30 8877 H 811.448 0.660341 -3.68226 0
M  V30 8878 H 812.781 0.888177 -4.8412 0
M  V30 8879 N 814.433 1.57553 0.0384317 0
M  V30 8880 C 815.71 1.79977 0.766002 0
M  V30 8881 C 816.09 0.830625 1.94072 0
M  V30 8882 O 815.438 -0.129243 2.28134 0
M  V30 8883 C 815.648 3.27434 1.20781 0
M  V30 8884 C 816.996 3.92167 1.62758 0
M  V30 8885 O 818.02 3.31527 1.30263 0
M  V30 8886 O 816.879 4.98917 2.23035 0
M  V30 8887 H 813.973 0.739787 0.369654 0
M  V30 8888 H 816.519 1.69693 0.0159312 0
M  V30 8889 H 815.291 3.89558 0.368792 0
M  V30 8890 H 814.914 3.42571 2.01819 0
M  V30 8891 N 815.911 -0.310526 1.54511 0
M  V30 8892 C 817.141 -1.06456 1.77061 0
M  V30 8893 C 817.549 -1.81755 0.525528 0
M  V30 8894 O 816.892 -1.76365 -0.513904 0
M  V30 8895 C 816.954 -2.09856 2.91892 0
M  V30 8896 C 816.618 -1.53838 4.30329 0
M  V30 8897 C 817.615 -0.973358 5.10707 0
M  V30 8898 C 815.3 -1.57688 4.76906 0
M  V30 8899 C 817.294 -0.454283 6.35779 0
M  V30 8900 C 814.981 -1.05393 6.01943 0
M  V30 8901 C 815.979 -0.493595 6.81214 0
M  V30 8902 O 815.667 0.0214506 8.03897 0
M  V30 8903 H 815.399 -0.321913 0.594431 0
M  V30 8904 H 817.953 -0.358289 2.02251 0
M  V30 8905 H 816.183 -2.84137 2.62304 0
M  V30 8906 H 817.872 -2.71085 3.02106 0
M  V30 8907 H 818.638 -0.936588 4.75871 0
M  V30 8908 H 814.517 -2.00242 4.1524 0
M  V30 8909 H 818.061 -0.0162657 6.97598 0
M  V30 8910 H 813.958 -1.08782 6.36268 0
M  V30 8911 H 814.726 -0.0927478 8.18447 0
M  V30 8912 N 817.389 -1.46805 -0.573248 0
M  V30 8913 C 818.352 -1.57655 -1.66366 0
M  V30 8914 C 819.352 -0.452905 -1.5429 0
M  V30 8915 O 820.542 -0.717502 -1.58737 0
M  V30 8916 C 817.674 -1.50584 -3.05839 0
M  V30 8917 H 818.867 -2.54842 -1.581 0
M  V30 8918 H 816.42 -1.34756 -0.791868 0
M  V30 8919 H 817.155 -0.547127 -3.19651 0
M  V30 8920 H 816.94 -2.32118 -3.16012 0
M  V30 8921 H 818.43 -1.61282 -3.85199 0
M  V30 8922 N 818.867 0.818669 -1.34668 0
M  V30 8923 C 819.797 1.94468 -1.29245 0
M  V30 8924 C 820.778 1.69257 -0.169101 0
M  V30 8925 O 821.963 1.90794 -0.362143 0
M  V30 8926 C 819.093 3.31001 -1.05145 0
M  V30 8927 C 818.047 3.70663 -2.13992 0
M  V30 8928 C 817.373 5.05226 -1.75074 0
M  V30 8929 C 818.673 3.82312 -3.55858 0
M  V30 8930 H 820.367 1.99263 -2.2346 0
M  V30 8931 H 817.913 0.957304 -1.07572 0
M  V30 8932 H 819.866 4.09364 -0.999949 0
M  V30 8933 H 818.59 3.26517 -0.0737312 0
M  V30 8934 H 817.249 2.94578 -2.18219 0
M  V30 8935 H 816.897 4.97233 -0.759518 0
M  V30 8936 H 816.597 5.32734 -2.47928 0
M  V30 8937 H 818.121 5.86042 -1.71427 0
M  V30 8938 H 819.535 4.50935 -3.5402 0
M  V30 8939 H 817.932 4.21278 -4.2737 0
M  V30 8940 H 819.002 2.84193 -3.9289 0
M  V30 8941 N 820.346 1.18468 1.03938 0
M  V30 8942 C 821.594 0.978895 1.76811 0
M  V30 8943 C 821.915 -0.49257 1.88676 0
M  V30 8944 O 821.185 -1.3572 1.41269 0
M  V30 8945 H 819.765 0.359201 0.654968 0
M  V30 8946 H 822.427 1.49173 1.25433 0
M  V30 8947 H 821.523 1.418 2.78027 0
M  V30 8948 N 821.824 -1.22873 0.986916 0
M  V30 8949 C 822.771 -2.2458 0.532215 0
M  V30 8950 C 823.741 -1.60375 -0.432322 0
M  V30 8951 O 824.926 -1.87775 -0.338416 0
M  V30 8952 C 822.066 -3.44761 -0.152864 0
M  V30 8953 C 821.179 -4.23501 0.852704 0
M  V30 8954 C 820.314 -5.31011 0.14176 0
M  V30 8955 C 819.353 -6.01464 1.1361 0
M  V30 8956 N 818.49 -7.00631 0.453871 0
M  V30 8957 H 823.33 -2.62838 1.40428 0
M  V30 8958 H 820.867 -1.29185 0.703543 0
M  V30 8959 H 822.825 -4.1333 -0.566926 0
M  V30 8960 H 821.455 -3.07284 -0.988756 0
M  V30 8961 H 820.507 -3.54286 1.38512 0
M  V30 8962 H 821.819 -4.72097 1.61014 0
M  V30 8963 H 820.973 -6.05805 -0.329337 0
M  V30 8964 H 819.712 -4.83373 -0.648229 0
M  V30 8965 H 818.717 -5.25456 1.61789 0
M  V30 8966 H 819.942 -6.5119 1.92686 0
M  V30 8967 H 817.888 -6.55235 -0.316791 0
M  V30 8968 H 817.805 -7.47204 1.14986 0
M  V30 8969 H 819.073 -7.795 0.00537823 0
M  V30 8970 N 823.302 -0.75937 -1.38099 0
M  V30 8971 C 824.579 -0.243371 -1.9408 0
M  V30 8972 C 824.959 1.25942 -1.69416 0
M  V30 8973 O 824.307 2.03667 -1.03595 0
M  V30 8974 C 824.517 -0.603328 -3.43745 0
M  V30 8975 C 825.865 -0.566195 -4.20808 0
M  V30 8976 O 826.889 -0.541969 -3.52053 0
M  V30 8977 O 825.748 -0.582261 -5.43389 0
M  V30 8978 H 822.842 -0.0526825 -0.82532 0
M  V30 8979 H 825.388 -0.839884 -1.47459 0
M  V30 8980 H 824.16 -1.64098 -3.55229 0
M  V30 8981 H 823.783 0.0208887 -3.97595 0
M  V30 8982 N 824.78 1.49157 -0.508906 0
M  V30 8983 C 826.02 2.04376 0.0310623 0
M  V30 8984 C 826.384 1.37946 1.33547 0
M  V30 8985 O 827.585 1.83931 1.96017 0
M  V30 8986 C 825.856 3.56985 0.172191 0
M  V30 8987 S 827.415 4.33728 0.665267 0
M  V30 8988 H 824.233 0.710997 -0.00199266 0
M  V30 8989 H 826.835 1.83119 -0.684674 0
M  V30 8990 H 825.539 4.02874 -0.78234 0
M  V30 8991 H 825.07 3.82661 0.912933 0
M  V30 8992 H 827.085 4.56992 1.9332 0
M  V30 8993 N 826.258 0.243083 1.55714 0
M  V30 8994 C 827.507 -0.383188 1.98027 0
M  V30 8995 C 827.82 -1.59347 1.13436 0
M  V30 8996 O 829.026 -2.29065 1.45745 0
M  V30 8997 C 827.482 -0.733135 3.52354 0
M  V30 8998 C 827.09 0.455539 4.45678 0
M  V30 8999 C 828.834 -1.32381 4.03331 0
M  V30 9000 C 826.741 0.0819591 5.91343 0
M  V30 9001 H 825.671 -0.146944 0.739543 0
M  V30 9002 H 828.322 0.342697 1.80272 0
M  V30 9003 H 826.704 -1.51704 3.65789 0
M  V30 9004 H 827.878 1.23291 4.44 0
M  V30 9005 H 826.193 0.960886 4.05162 0
M  V30 9006 H 828.79 -1.61658 5.09677 0
M  V30 9007 H 829.133 -2.24698 3.50452 0
M  V30 9008 H 829.666 -0.602885 3.93205 0
M  V30 9009 H 826.405 0.972171 6.48251 0
M  V30 9010 H 825.925 -0.659291 5.96166 0
M  V30 9011 H 827.604 -0.3372 6.46121 0
M  V30 9012 N 827.736 -1.57571 -0.0300757 0
M  V30 9013 C 828.669 -2.01874 -1.06406 0
M  V30 9014 C 829.647 -0.902901 -1.35227 0
M  V30 9015 O 830.831 -1.16865 -1.47901 0
M  V30 9016 C 827.958 -2.39093 -2.39901 0
M  V30 9017 C 827.004 -3.61108 -2.26943 0
M  V30 9018 S 827.837 -5.10287 -1.62382 0
M  V30 9019 C 828.993 -5.50747 -2.97369 0
M  V30 9020 H 829.226 -2.89261 -0.686703 0
M  V30 9021 H 826.759 -1.52523 -0.240017 0
M  V30 9022 H 828.717 -2.61207 -3.16672 0
M  V30 9023 H 827.378 -1.52159 -2.74784 0
M  V30 9024 H 826.571 -3.84803 -3.25489 0
M  V30 9025 H 826.173 -3.3884 -1.58314 0
M  V30 9026 H 828.465 -5.51369 -3.93698 0
M  V30 9027 H 829.408 -6.51071 -2.78409 0
M  V30 9028 H 829.816 -4.7825 -2.99895 0
M  V30 9029 N 829.214 0.302327 -1.54673 0
M  V30 9030 C 830.164 1.37443 -1.81916 0
M  V30 9031 C 831.148 1.45999 -0.676251 0
M  V30 9032 O 832.34 1.50174 -0.93685 0
M  V30 9033 C 829.469 2.73966 -2.06876 0
M  V30 9034 C 828.555 2.69637 -3.27348 0
M  V30 9035 N 828.946 2.34926 -4.47933 0
M  V30 9036 C 827.244 3.00742 -3.29348 0
M  V30 9037 C 827.945 2.39862 -5.29944 0
M  V30 9038 N 826.921 2.77163 -4.67634 0
M  V30 9039 H 830.723 1.09567 -2.72713 0
M  V30 9040 H 828.237 0.5109 -1.54154 0
M  V30 9041 H 830.234 3.51265 -2.2454 0
M  V30 9042 H 828.894 3.02754 -1.17346 0
M  V30 9043 H 829.905 2.07403 -4.74557 0
M  V30 9044 H 826.582 3.34434 -2.49921 0
M  V30 9045 H 827.972 2.15835 -6.3629 0
M  V30 9046 N 830.692 1.47107 0.565454 0
M  V30 9047 C 831.94 1.53005 1.32038 0
M  V30 9048 C 832.261 0.190453 1.94068 0
M  V30 9049 O 831.531 -0.784783 1.79494 0
M  V30 9050 H 830.111 0.563578 0.490294 0
M  V30 9051 H 832.773 1.83351 0.660928 0
M  V30 9052 H 831.869 2.29215 2.11818 0
M  V30 9053 N 832.17 -0.811516 1.35101 0
M  V30 9054 C 833.4 -1.59749 1.31011 0
M  V30 9055 C 833.808 -1.88847 -0.115566 0
M  V30 9056 O 833.151 -1.48854 -1.07649 0
M  V30 9057 C 833.213 -2.95714 2.04435 0
M  V30 9058 C 832.877 -2.89456 3.53645 0
M  V30 9059 C 833.874 -2.63237 4.48333 0
M  V30 9060 C 831.559 -3.08728 3.96222 0
M  V30 9061 C 833.553 -2.56361 5.83573 0
M  V30 9062 C 831.24 -3.01475 5.3156 0
M  V30 9063 C 832.238 -2.75326 6.25048 0
M  V30 9064 O 831.926 -2.68026 7.57903 0
M  V30 9065 H 831.658 -0.502889 0.45175 0
M  V30 9066 H 834.212 -1.01687 1.78462 0
M  V30 9067 H 832.442 -3.55739 1.51613 0
M  V30 9068 H 834.131 -3.56816 1.93487 0
M  V30 9069 H 834.897 -2.48072 4.16756 0
M  V30 9070 H 830.776 -3.28094 3.23845 0
M  V30 9071 H 834.32 -2.35871 6.56514 0
M  V30 9072 H 830.217 -3.16197 5.62752 0
M  V30 9073 H 830.985 -2.8367 7.67772 0
M  V30 9074 N 833.648 -1.19017 -1.03309 0
M  V30 9075 C 834.581 -0.867457 -2.1107 0
M  V30 9076 C 835.559 0.173752 -1.61669 0
M  V30 9077 O 836.743 0.0510077 -1.88431 0
M  V30 9078 C 833.87 -0.297459 -3.37391 0
M  V30 9079 C 832.916 -1.31706 -4.05655 0
M  V30 9080 S 833.749 -2.87591 -4.51721 0
M  V30 9081 C 834.905 -2.32122 -5.81266 0
M  V30 9082 H 835.138 -1.78008 -2.38119 0
M  V30 9083 H 832.671 -1.01686 -1.16187 0
M  V30 9084 H 834.629 0.0248889 -4.10492 0
M  V30 9085 H 833.29 0.5934 -3.08444 0
M  V30 9086 H 832.483 -0.867264 -4.96482 0
M  V30 9087 H 832.085 -1.58603 -3.38705 0
M  V30 9088 H 834.377 -1.70855 -6.55603 0
M  V30 9089 H 835.32 -3.2128 -6.31019 0
M  V30 9090 H 835.728 -1.74858 -5.36736 0
M  V30 9091 N 835.127 1.22348 -0.993418 0
M  V30 9092 C 836.352 1.95666 -0.687727 0
M  V30 9093 C 836.777 1.72883 0.741161 0
M  V30 9094 O 836.135 1.00837 1.50671 0
M  V30 9095 C 836.183 3.46457 -0.99998 0
M  V30 9096 O 835.287 4.12281 -0.0989386 0
M  V30 9097 H 834.628 0.612102 -0.257346 0
M  V30 9098 H 837.158 1.55428 -1.33054 0
M  V30 9099 H 837.168 3.96976 -0.942035 0
M  V30 9100 H 835.843 3.62365 -2.04118 0
M  V30 9101 H 834.42 3.72295 -0.212413 0
M  V30 9102 N 836.605 0.766683 1.37694 0
M  V30 9103 C 837.552 0.147725 2.30327 0
M  V30 9104 C 838.522 -0.695366 1.50844 0
M  V30 9105 O 839.707 -0.64878 1.79431 0
M  V30 9106 C 836.847 -0.72935 3.37305 0
M  V30 9107 C 835.96 0.129795 4.31805 0
M  V30 9108 C 835.095 -0.751511 5.25857 0
M  V30 9109 C 834.134 0.110475 6.12 0
M  V30 9110 N 833.271 -0.728522 6.9831 0
M  V30 9111 H 838.111 0.943204 2.82679 0
M  V30 9112 H 835.648 0.476736 1.3916 0
M  V30 9113 H 837.606 -1.25263 3.97951 0
M  V30 9114 H 836.236 -1.49048 2.86329 0
M  V30 9115 H 835.288 0.770829 3.72508 0
M  V30 9116 H 836.6 0.794923 4.92425 0
M  V30 9117 H 835.754 -1.34146 5.91684 0
M  V30 9118 H 834.493 -1.45034 4.65636 0
M  V30 9119 H 833.498 0.712999 5.45157 0
M  V30 9120 H 834.723 0.806557 6.74293 0
M  V30 9121 H 832.669 -1.41206 6.40622 0
M  V30 9122 H 832.586 -0.12058 7.55904 0
M  V30 9123 H 833.854 -1.30303 7.68532 0
M  V30 9124 N 838.083 -1.48885 0.516809 0
M  V30 9125 C 839.016 -2.26218 -0.30011 0
M  V30 9126 C 839.994 -1.31491 -0.956496 0
M  V30 9127 O 841.178 -1.6081 -0.983488 0
M  V30 9128 C 838.305 -3.07315 -1.42392 0
M  V30 9129 C 837.351 -4.17316 -0.880295 0
M  V30 9130 S 838.184 -5.34955 0.24146 0
M  V30 9131 C 839.34 -6.1961 -0.885138 0
M  V30 9132 H 839.573 -2.95158 0.356217 0
M  V30 9133 H 837.106 -1.5141 0.302365 0
M  V30 9134 H 839.064 -3.54619 -2.06775 0
M  V30 9135 H 837.725 -2.37813 -2.05192 0
M  V30 9136 H 836.918 -4.73635 -1.72297 0
M  V30 9137 H 836.52 -3.72685 -0.313396 0
M  V30 9138 H 838.812 -6.53513 -1.78682 0
M  V30 9139 H 839.755 -7.07183 -0.360226 0
M  V30 9140 H 840.163 -5.52461 -1.1596 0
M  V30 9141 N 839.561 -0.251338 -1.55583 0
M  V30 9142 C 840.809 0.371434 -1.98657 0
M  V30 9143 C 841.13 1.58143 -1.14087 0
M  V30 9144 O 840.4 1.94607 -0.224708 0
M  V30 9145 H 838.98 0.140225 -0.733721 0
M  V30 9146 H 841.642 -0.351157 -1.9171 0
M  V30 9147 H 840.738 0.677554 -3.04657 0
M  V30 9148 N 841.039 1.57585 0.0217189 0
M  V30 9149 C 841.987 2.08134 1.03842 0
M  V30 9150 C 842.981 0.996662 1.36978 0
M  V30 9151 O 844.187 1.18149 1.35797 0
M  V30 9152 H 840.562 0.664298 0.352438 0
M  V30 9153 H 842.533 2.92583 0.58634 0
M  V30 9154 C 841.282 2.58218 2.32849 0
M  V30 9155 H 840.605 3.41302 2.08214 0
M  V30 9156 H 842.045 2.97289 3.02316 0
M  V30 9157 C 840.504 1.48664 3.02325 0
M  V30 9158 O 841.034 0.857075 3.9245 0
M  V30 9159 N 839.24 1.21938 2.63779 0
M  V30 9160 H 838.787 1.73319 1.90574 0
M  V30 9161 H 838.745 0.488523 3.10581 0
M  V30 9162 N 842.517 -0.29412 1.54831 0
M  V30 9163 C 843.928 -0.866651 1.65366 0
M  V30 9164 C 844.279 -1.87834 0.56681 0
M  V30 9165 O 843.404 -2.14374 -0.295389 0
M  V30 9166 C 843.999 -1.57869 2.99771 0
M  V30 9167 C 842.558 -2.09954 3.12404 0
M  V30 9168 C 841.705 -0.934492 2.6108 0
M  V30 9169 H 844.656 -0.0709551 1.58541 0
M  V30 9170 H 844.677 -2.44462 2.91579 0
M  V30 9171 H 844.189 -0.84212 3.78853 0
M  V30 9172 H 842.29 -2.86637 2.38055 0
M  V30 9173 H 842.403 -2.32934 4.18663 0
M  V30 9174 H 840.767 -1.32199 2.17705 0
M  V30 9175 H 841.55 -0.211768 3.42646 0
M  V30 9176 N 843.995 -1.47404 -0.557645 0
M  V30 9177 C 845.242 -1.54007 -1.31484 0
M  V30 9178 C 845.57 -0.202162 -1.93447 0
M  V30 9179 O 844.825 0.804901 -1.78381 0
M  V30 9180 C 845.124 -2.6061 -2.44575 0
M  V30 9181 C 844.79 -4.03896 -2.00446 0
M  V30 9182 C 843.452 -4.42901 -1.88127 0
M  V30 9183 C 845.804 -4.93804 -1.66754 0
M  V30 9184 C 843.132 -5.6965 -1.40411 0
M  V30 9185 C 845.484 -6.21016 -1.20509 0
M  V30 9186 C 844.148 -6.58903 -1.06786 0
M  V30 9187 H 843.418 -0.563552 -0.481134 0
M  V30 9188 H 846.065 -1.81001 -0.625375 0
M  V30 9189 H 844.37 -2.27371 -3.19076 0
M  V30 9190 H 846.067 -2.62941 -3.02759 0
M  V30 9191 H 842.657 -3.73077 -2.10977 0
M  V30 9192 H 846.841 -4.64369 -1.75144 0
M  V30 9193 H 842.097 -5.97755 -1.2845 0
M  V30 9194 H 846.271 -6.90095 -0.935001 0
M  V30 9195 H 843.898 -7.57008 -0.695891 0
M  V30 9196 N 845.473 0.80434 -1.35529 0
M  V30 9197 C 846.403 1.93086 -1.31301 0
M  V30 9198 C 847.384 1.69068 -0.187044 0
M  V30 9199 O 848.569 1.90399 -0.382359 0
M  V30 9200 C 845.699 3.29867 -1.0865 0
M  V30 9201 C 844.653 3.68373 -2.17911 0
M  V30 9202 C 843.979 5.0334 -1.80423 0
M  V30 9203 C 845.279 3.78516 -3.59893 0
M  V30 9204 H 846.973 1.96882 -2.25561 0
M  V30 9205 H 844.519 0.945841 -1.08581 0
M  V30 9206 H 846.472 4.08281 -1.04331 0
M  V30 9207 H 845.196 3.2642 -0.108359 0
M  V30 9208 H 843.855 2.92247 -2.21331 0
M  V30 9209 H 843.503 4.96399 -0.812213 0
M  V30 9210 H 843.203 5.30074 -2.53565 0
M  V30 9211 H 844.727 5.84191 -1.77633 0
M  V30 9212 H 846.141 4.47155 -3.58783 0
M  V30 9213 H 844.538 4.16721 -4.31814 0
M  V30 9214 H 845.608 2.8001 -3.95882 0
M  V30 9215 N 846.951 1.19563 1.02676 0
M  V30 9216 C 848.179 1.02488 1.79732 0
M  V30 9217 C 848.594 -0.426302 1.83924 0
M  V30 9218 O 847.951 -1.29609 1.28483 0
M  V30 9219 C 848.002 1.58944 3.24683 0
M  V30 9220 O 847.723 2.98382 3.2078 0
M  V30 9221 C 849.224 1.46681 4.1833 0
M  V30 9222 H 846.444 0.361098 0.565552 0
M  V30 9223 H 848.988 1.58426 1.29311 0
M  V30 9224 H 847.143 1.0715 3.72287 0
M  V30 9225 H 847.557 3.24983 4.11687 0
M  V30 9226 H 849.031 1.90959 5.17918 0
M  V30 9227 H 849.508 0.417663 4.3721 0
M  V30 9228 H 850.114 1.97616 3.76601 0
M  V30 9229 N 848.429 -1.21819 0.999893 0
M  V30 9230 C 849.361 -2.23356 0.514256 0
M  V30 9231 C 850.374 -1.5795 -0.394413 0
M  V30 9232 O 851.563 -1.77427 -0.195428 0
M  V30 9233 C 848.663 -3.37797 -0.273207 0
M  V30 9234 C 847.836 -4.32791 0.633293 0
M  V30 9235 C 846.895 -5.26098 -0.103673 0
M  V30 9236 O 845.921 -5.66881 0.513269 0
M  V30 9237 N 847.123 -5.63764 -1.38383 0
M  V30 9238 H 849.888 -2.65653 1.3874 0
M  V30 9239 H 847.449 -1.3619 0.875431 0
M  V30 9240 H 849.441 -3.97209 -0.775053 0
M  V30 9241 H 848.011 -2.94527 -1.0475 0
M  V30 9242 H 847.231 -3.71595 1.31571 0
M  V30 9243 H 848.519 -4.93196 1.25039 0
M  V30 9244 H 847.917 -5.32614 -1.90627 0
M  V30 9245 H 846.474 -6.25562 -1.83073 0
M  V30 9246 N 849.908 -0.773975 -1.37286 0
M  V30 9247 C 851.154 -0.348833 -2.00386 0
M  V30 9248 C 851.509 1.06347 -1.60337 0
M  V30 9249 O 850.802 1.72178 -0.840545 0
M  V30 9250 C 850.996 -0.432651 -3.54772 0
M  V30 9251 C 850.825 -1.85155 -4.09814 0
M  V30 9252 C 849.595 -2.47272 -4.40664 0
M  V30 9253 C 851.793 -2.8114 -4.30656 0
M  V30 9254 N 849.775 -3.80912 -4.81435 0
M  V30 9255 C 851.146 -3.99582 -4.74061 0
M  V30 9256 C 853.201 -2.78398 -4.12794 0
M  V30 9257 C 851.904 -5.1567 -5.01475 0
M  V30 9258 C 853.93 -3.9366 -4.41345 0
M  V30 9259 C 853.292 -5.10844 -4.84992 0
M  V30 9260 H 849.391 -0.174738 -0.762227 0
M  V30 9261 H 851.975 -1.00828 -1.66559 0
M  V30 9262 H 850.146 0.19663 -3.87902 0
M  V30 9263 H 851.878 0.0147601 -4.04697 0
M  V30 9264 H 848.633 -1.98872 -4.29822 0
M  V30 9265 H 849.057 -4.49628 -5.06126 0
M  V30 9266 H 853.699 -1.8897 -3.7822 0
M  V30 9267 H 851.417 -6.05696 -5.34938 0
M  V30 9268 H 855.003 -3.92882 -4.2911 0
M  V30 9269 H 853.883 -5.98553 -5.0666 0
M  V30 9270 N 851.386 1.48609 -0.524698 0
M  V30 9271 C 852.318 2.27508 0.278 0
M  V30 9272 C 853.331 1.35042 0.909258 0
M  V30 9273 O 854.52 1.60136 0.788592 0
M  V30 9274 C 851.62 3.08247 1.40843 0
M  V30 9275 C 850.793 4.28455 0.880083 0
M  V30 9276 C 849.852 4.91048 1.891 0
M  V30 9277 O 848.878 5.5042 1.45005 0
M  V30 9278 N 850.08 4.82816 3.22288 0
M  V30 9279 H 852.845 2.97037 -0.398642 0
M  V30 9280 H 850.406 1.57876 -0.358698 0
M  V30 9281 H 852.398 3.46992 2.08276 0
M  V30 9282 H 850.968 2.41173 1.98883 0
M  V30 9283 H 850.188 3.94189 0.0299228 0
M  V30 9284 H 851.476 5.06279 0.505881 0
M  V30 9285 H 850.874 4.3572 3.60783 0
M  V30 9286 H 849.431 5.25676 3.85368 0
M  V30 9287 N 852.864 0.259585 1.55447 0
M  V30 9288 C 854.28 -0.094961 1.59317 0
M  V30 9289 C 854.48 -1.55884 1.2768 0
M  V30 9290 O 853.536 -2.30528 1.0302 0
M  V30 9291 C 854.849 0.265669 2.99524 0
M  V30 9292 C 856.397 0.211007 3.12288 0
M  V30 9293 C 856.872 0.545851 4.54736 0
M  V30 9294 N 858.363 0.496823 4.60528 0
M  V30 9295 C 859.098 0.728909 5.68748 0
M  V30 9296 N 858.594 1.02479 6.85179 0
M  V30 9297 N 860.387 0.658756 5.58226 0
M  V30 9298 H 852.538 1.2141 1.7428 0
M  V30 9299 H 854.801 0.489404 0.811904 0
M  V30 9300 H 854.507 1.28316 3.27457 0
M  V30 9301 H 854.381 -0.401089 3.75061 0
M  V30 9302 H 856.768 -0.797172 2.84129 0
M  V30 9303 H 856.849 0.911799 2.38998 0
M  V30 9304 H 856.493 1.55164 4.83618 0
M  V30 9305 H 856.423 -0.17656 5.26304 0
M  V30 9306 H 858.914 0.277376 3.76881 0
M  V30 9307 H 859.227 1.18897 7.63599 0
M  V30 9308 H 857.572 1.0624 6.86832 0
M  V30 9309 H 860.763 0.427553 4.66143 0
M  V30 9310 H 860.936 0.84302 6.42493 0
M  V30 9311 N 854.342 -1.57594 -0.0133615 0
M  V30 9312 C 855.758 -1.5527 -0.369255 0
M  V30 9313 C 855.958 -0.987751 -1.7563 0
M  V30 9314 O 855.014 -0.615683 -2.44879 0
M  V30 9315 C 856.327 -2.99602 -0.25672 0
M  V30 9316 C 857.875 -3.11227 -0.332647 0
M  V30 9317 C 858.35 -4.57321 -0.249387 0
M  V30 9318 N 859.841 -4.62177 -0.3077 0
M  V30 9319 C 860.576 -5.72781 -0.26641 0
M  V30 9320 N 860.072 -6.92575 -0.176494 0
M  V30 9321 N 861.865 -5.61204 -0.317295 0
M  V30 9322 H 854.016 -1.92662 0.894154 0
M  V30 9323 H 856.279 -0.884352 0.341505 0
M  V30 9324 H 855.985 -3.44723 0.697072 0
M  V30 9325 H 855.859 -3.6246 -1.04415 0
M  V30 9326 H 858.246 -2.66045 -1.27688 0
M  V30 9327 H 858.327 -2.51171 0.484412 0
M  V30 9328 H 857.971 -5.03174 0.691242 0
M  V30 9329 H 857.901 -5.15306 -1.08476 0
M  V30 9330 H 860.392 -3.75994 -0.379069 0
M  V30 9331 H 860.705 -7.72653 -0.150518 0
M  V30 9332 H 859.05 -6.94854 -0.142314 0
M  V30 9333 H 862.241 -4.66509 -0.385643 0
M  V30 9334 H 862.414 -6.47388 -0.28165 0
M  V30 9335 N 855.82 0.285905 -1.54985 0
M  V30 9336 C 857.05 1.03626 -1.78732 0
M  V30 9337 C 857.458 1.80896 -0.554377 0
M  V30 9338 O 856.801 1.77161 0.48578 0
M  V30 9339 C 856.863 2.05185 -2.95193 0
M  V30 9340 C 856.527 1.46973 -4.32722 0
M  V30 9341 C 857.524 0.891986 -5.12191 0
M  V30 9342 C 855.209 1.50081 -4.79355 0
M  V30 9343 C 857.203 0.353078 -6.36421 0
M  V30 9344 C 854.89 0.958037 -6.03544 0
M  V30 9345 C 855.888 0.385157 -6.81913 0
M  V30 9346 O 855.576 -0.149341 -8.03761 0
M  V30 9347 H 855.308 0.312416 -0.599477 0
M  V30 9348 H 857.862 0.326067 -2.02795 0
M  V30 9349 H 856.092 2.79928 -2.66791 0
M  V30 9350 H 857.781 2.66244 -3.0638 0
M  V30 9351 H 858.547 0.860762 -4.77301 0
M  V30 9352 H 854.426 1.9361 -4.18373 0
M  V30 9353 H 857.97 -0.0947181 -6.97536 0
M  V30 9354 H 853.867 0.986458 -6.37918 0
M  V30 9355 H 854.635 -0.0374719 -8.18491 0
M  V30 9356 N 857.298 1.47698 0.54982 0
M  V30 9357 C 858.545 1.54702 1.30665 0
M  V30 9358 C 858.873 0.212418 1.93337 0
M  V30 9359 O 858.128 -0.79543 1.78805 0
M  V30 9360 C 858.427 2.61903 2.4319 0
M  V30 9361 C 858.093 4.04953 1.98302 0
M  V30 9362 C 856.755 4.43893 1.85776 0
M  V30 9363 C 859.107 4.94682 1.64133 0
M  V30 9364 C 856.435 5.70387 1.37388 0
M  V30 9365 C 858.787 6.21646 1.17214 0
M  V30 9366 C 857.451 6.5946 1.0329 0
M  V30 9367 H 856.721 0.566096 0.478139 0
M  V30 9368 H 859.368 1.8133 0.615767 0
M  V30 9369 H 857.673 2.2906 3.17866 0
M  V30 9370 H 859.37 2.64543 3.0136 0
M  V30 9371 H 855.96 3.74191 2.08995 0
M  V30 9372 H 860.144 4.65291 1.72679 0
M  V30 9373 H 855.4 5.98427 1.25278 0
M  V30 9374 H 859.574 6.90581 0.898391 0
M  V30 9375 H 857.201 7.57367 0.655735 0
M  V30 9376 N 858.776 -0.797141 1.35954 0
M  V30 9377 C 860.006 -1.5835 1.32698 0
M  V30 9378 C 860.414 -1.88959 -0.0955298 0
M  V30 9379 O 859.757 -1.49987 -1.06064 0
M  V30 9380 C 859.819 -2.93529 2.0756 0
M  V30 9381 C 859.483 -2.85688 3.56695 0
M  V30 9382 C 860.48 -2.58467 4.51099 0
M  V30 9383 C 858.165 -3.04508 3.99475 0
M  V30 9384 C 860.159 -2.50157 5.8626 0
M  V30 9385 C 857.846 -2.9582 5.34728 0
M  V30 9386 C 858.844 -2.68681 6.27933 0
M  V30 9387 O 858.532 -2.59973 7.60703 0
M  V30 9388 H 858.264 -0.49807 0.457059 0
M  V30 9389 H 860.818 -0.997889 1.79531 0
M  V30 9390 H 859.048 -3.54111 1.55378 0
M  V30 9391 H 860.737 -3.54744 1.9726 0
M  V30 9392 H 861.503 -2.43638 4.19363 0
M  V30 9393 H 857.382 -3.24641 3.27306 0
M  V30 9394 H 860.926 -2.28894 6.58979 0
M  V30 9395 H 856.823 -3.10211 5.66074 0
M  V30 9396 H 857.591 -2.75511 7.70737 0
M  V30 9397 N 860.254 -1.20106 -1.0204 0
M  V30 9398 C 861.184 -0.970301 -2.12385 0
M  V30 9399 C 862.165 0.099378 -1.69809 0
M  V30 9400 O 863.35 -0.057365 -1.94115 0
M  V30 9401 C 860.48 -0.517431 -3.43424 0
M  V30 9402 C 859.434 -1.52992 -3.99722 0
M  V30 9403 C 858.76 -0.933817 -5.26483 0
M  V30 9404 C 860.06 -2.91257 -4.33551 0
M  V30 9405 H 861.754 -1.89316 -2.31948 0
M  V30 9406 H 859.3 -0.911655 -1.11467 0
M  V30 9407 H 861.253 -0.343243 -4.2 0
M  V30 9408 H 859.977 0.441049 -3.23608 0
M  V30 9409 H 858.636 -1.6914 -3.2525 0
M  V30 9410 H 858.284 0.0324763 -5.0299 0
M  V30 9411 H 857.984 -1.60999 -5.65113 0
M  V30 9412 H 859.508 -0.770614 -6.05718 0
M  V30 9413 H 860.922 -2.78642 -5.0103 0
M  V30 9414 H 859.319 -3.55745 -4.83286 0
M  V30 9415 H 860.389 -3.43269 -3.42483 0
M  V30 9416 N 861.732 1.21287 -1.00634 0
M  V30 9417 C 862.979 1.90389 -0.6898 0
M  V30 9418 C 863.307 1.78193 0.779574 0
M  V30 9419 O 862.562 1.15358 1.58085 0
M  V30 9420 C 862.861 3.41374 -1.05824 0
M  V30 9421 C 862.527 3.73766 -2.5221 0
M  V30 9422 C 861.189 3.82317 -2.92211 0
M  V30 9423 C 863.541 3.88871 -3.47028 0
M  V30 9424 C 860.869 4.03423 -4.2599 0
M  V30 9425 C 863.221 4.11484 -4.80483 0
M  V30 9426 C 861.885 4.18263 -5.20204 0
M  V30 9427 H 861.155 0.696683 -0.252416 0
M  V30 9428 H 863.802 1.43769 -1.26502 0
M  V30 9429 H 862.107 3.8974 -0.401281 0
M  V30 9430 H 863.804 3.93118 -0.79116 0
M  V30 9431 H 860.394 3.67702 -2.20212 0
M  V30 9432 H 864.578 3.8163 -3.17289 0
M  V30 9433 H 859.834 4.06902 -4.56334 0
M  V30 9434 H 864.008 4.22115 -5.53888 0
M  V30 9435 H 861.635 4.34369 -6.23881 0
M  V30 9436 N 863.21 0.781244 1.36873 0
M  V30 9437 C 864.621 0.414093 1.8205 0
M  V30 9438 C 864.972 -1.06098 1.65039 0
M  V30 9439 O 864.097 -1.82251 1.16677 0
M  V30 9440 C 864.692 0.744837 3.30511 0
M  V30 9441 C 863.251 0.430621 3.73929 0
M  V30 9442 C 862.398 0.983746 2.59264 0
M  V30 9443 H 865.349 0.975091 1.2521 0
M  V30 9444 H 865.37 0.032936 3.80486 0
M  V30 9445 H 864.882 1.81847 3.42861 0
M  V30 9446 H 862.983 -0.635308 3.67144 0
M  V30 9447 H 863.096 0.945514 4.69677 0
M  V30 9448 H 861.46 0.407433 2.5142 0
M  V30 9449 H 862.243 2.06297 2.74402 0
M  V30 9450 N 864.689 -1.48329 0.532571 0
M  V30 9451 C 865.637 -2.31336 -0.242133 0
M  V30 9452 C 866.631 -1.41391 -0.933006 0
M  V30 9453 O 867.837 -1.58284 -0.857096 0
M  V30 9454 H 864.212 -0.745724 -0.0969536 0
M  V30 9455 H 866.183 -2.94555 0.477504 0
M  V30 9456 C 864.932 -3.23501 -1.27446 0
M  V30 9457 H 864.255 -3.92659 -0.752261 0
M  V30 9458 H 865.695 -3.84461 -1.78789 0
M  V30 9459 C 864.154 -2.45288 -2.30944 0
M  V30 9460 O 864.684 -2.17955 -3.37429 0
M  V30 9461 N 862.89 -2.06737 -2.04226 0
M  V30 9462 H 862.437 -2.29166 -1.17647 0
M  V30 9463 H 862.395 -1.54719 -2.73696 0
M  V30 9464 N 866.167 -0.267825 -1.55308 0
M  V30 9465 C 867.583 0.0865107 -1.59365 0
M  V30 9466 C 867.783 1.55205 -1.28505 0
M  V30 9467 O 866.839 2.29978 -1.04241 0
M  V30 9468 C 868.152 -0.28155 -2.99379 0
M  V30 9469 C 869.7 -0.227565 -3.12172 0
M  V30 9470 C 870.175 -0.569959 -4.5444 0
M  V30 9471 N 871.666 -0.521238 -4.60258 0
M  V30 9472 C 872.401 -0.759061 -5.68354 0
M  V30 9473 N 871.897 -1.06112 -6.84626 0
M  V30 9474 N 873.69 -0.688351 -5.57869 0
M  V30 9475 H 865.841 -1.22332 -1.73633 0
M  V30 9476 H 868.104 -0.493703 -0.809297 0
M  V30 9477 H 867.81 -1.3005 -3.26772 0
M  V30 9478 H 867.684 0.381192 -3.75269 0
M  V30 9479 H 870.071 0.782093 -2.84548 0
M  V30 9480 H 870.152 -0.924461 -2.38511 0
M  V30 9481 H 869.796 -1.57727 -4.82788 0
M  V30 9482 H 869.726 0.148646 -5.2639 0
M  V30 9483 H 872.217 -0.297359 -3.76728 0
M  V30 9484 H 872.53 -1.22945 -7.62958 0
M  V30 9485 H 870.875 -1.09881 -6.86259 0
M  V30 9486 H 874.066 -0.452268 -4.6591 0
M  V30 9487 H 874.239 -0.877081 -6.42037 0
M  V30 9488 N 867.645 1.57599 0.00500368 0
M  V30 9489 C 868.575 2.11143 0.99705 0
M  V30 9490 C 869.556 1.0194 1.3617 0
M  V30 9491 O 870.741 1.29596 1.44632 0
M  V30 9492 C 867.871 2.61062 2.2905 0
M  V30 9493 C 866.825 3.74745 2.0676 0
M  V30 9494 C 866.151 4.10961 3.42075 0
M  V30 9495 C 867.451 5.02222 1.43424 0
M  V30 9496 H 869.145 2.94281 0.551251 0
M  V30 9497 H 866.691 1.41565 0.263715 0
M  V30 9498 H 868.644 2.97146 2.98801 0
M  V30 9499 H 867.368 1.75038 2.75734 0
M  V30 9500 H 866.027 3.39047 1.39436 0
M  V30 9501 H 865.675 3.21968 3.86453 0
M  V30 9502 H 865.375 4.87549 3.27979 0
M  V30 9503 H 866.899 4.49599 4.1315 0
M  V30 9504 H 868.313 5.36109 2.03125 0
M  V30 9505 H 866.71 5.83581 1.39831 0
M  V30 9506 H 867.78 4.83224 0.40285 0
M  V30 9507 N 869.123 -0.277682 1.55134 0
M  V30 9508 C 870.033 -1.36524 1.90783 0
M  V30 9509 C 871.049 -1.54283 0.804542 0
M  V30 9510 O 872.225 -1.68499 1.10318 0
M  V30 9511 C 869.29 -2.70524 2.16835 0
M  V30 9512 C 868.351 -2.61552 3.40424 0
M  V30 9513 C 867.584 -3.89162 3.65224 0
M  V30 9514 O 867.807 -4.89624 2.92616 0
M  V30 9515 O 866.741 -3.89647 4.58758 0
M  V30 9516 H 870.567 -1.0929 2.83354 0
M  V30 9517 H 868.152 -0.475799 1.41621 0
M  V30 9518 H 870.034 -3.49765 2.35038 0
M  V30 9519 H 868.709 -2.97555 1.27448 0
M  V30 9520 H 867.616 -1.80704 3.27562 0
M  V30 9521 H 868.949 -2.39472 4.30016 0
M  V30 9522 N 870.601 -1.47988 -0.541979 0
M  V30 9523 C 871.847 -1.56604 -1.29795 0
M  V30 9524 C 872.202 -0.231728 -1.90999 0
M  V30 9525 O 871.495 0.764203 -1.757 0
M  V30 9526 C 871.689 -2.63189 -2.41798 0
M  V30 9527 C 871.518 -4.06855 -1.9157 0
M  V30 9528 C 870.288 -4.74132 -1.74719 0
M  V30 9529 C 872.486 -4.934 -1.45123 0
M  V30 9530 N 870.468 -6.02258 -1.18991 0
M  V30 9531 C 871.839 -6.11675 -1.01263 0
M  V30 9532 C 873.894 -4.7972 -1.33315 0
M  V30 9533 C 872.597 -7.17778 -0.467663 0
M  V30 9534 C 874.623 -5.85934 -0.802192 0
M  V30 9535 C 873.985 -7.03409 -0.373595 0
M  V30 9536 H 870.084 -0.627677 -0.466418 0
M  V30 9537 H 872.668 -1.84812 -0.612576 0
M  V30 9538 H 870.839 -2.36823 -3.07846 0
M  V30 9539 H 872.571 -2.6156 -3.08818 0
M  V30 9540 H 869.326 -4.30276 -1.97887 0
M  V30 9541 H 869.75 -6.70558 -0.931715 0
M  V30 9542 H 874.392 -3.89249 -1.6506 0
M  V30 9543 H 872.11 -8.07982 -0.137874 0
M  V30 9544 H 875.696 -5.774 -0.714171 0
M  V30 9545 H 874.576 -7.84194 0.0308796 0
M  V30 9546 N 872.079 0.78992 -1.36375 0
M  V30 9547 C 873.495 1.0879 -1.16777 0
M  V30 9548 C 873.695 2.01498 0.00848236 0
M  V30 9549 O 872.751 2.43338 0.674007 0
M  V30 9550 C 874.064 1.70285 -2.47837 0
M  V30 9551 C 875.612 1.82629 -2.54196 0
M  V30 9552 C 876.087 2.47539 -3.85342 0
M  V30 9553 N 877.578 2.55008 -3.86685 0
M  V30 9554 C 878.313 3.06041 -4.84898 0
M  V30 9555 N 877.809 3.57385 -5.93505 0
M  V30 9556 N 879.602 3.04748 -4.72319 0
M  V30 9557 H 871.753 0.173985 -2.11686 0
M  V30 9558 H 874.016 0.139798 -0.937636 0
M  V30 9559 H 873.722 1.09633 -3.34176 0
M  V30 9560 H 873.596 2.69799 -2.63607 0
M  V30 9561 H 875.983 2.42419 -1.68276 0
M  V30 9562 H 876.064 0.81923 -2.42327 0
M  V30 9563 H 875.708 1.88393 -4.71668 0
M  V30 9564 H 875.638 3.48815 -3.94507 0
M  V30 9565 H 878.129 2.18651 -3.08221 0
M  V30 9566 H 878.442 3.94674 -6.64419 0
M  V30 9567 H 876.787 3.55538 -5.97175 0
M  V30 9568 H 879.978 2.63925 -3.86602 0
M  V30 9569 H 880.151 3.44212 -5.49019 0
M  V30 9570 N 873.557 1.20646 1.01402 0
M  V30 9571 C 874.805 1.01618 1.74695 0
M  V30 9572 C 875.126 -0.452438 1.89679 0
M  V30 9573 O 874.396 -1.32693 1.44116 0
M  V30 9574 H 872.976 0.373013 0.647202 0
M  V30 9575 H 875.638 1.518 1.22241 0
M  V30 9576 H 874.734 1.47666 2.74957 0
M  V30 9577 N 875.035 -1.20752 1.01276 0
M  V30 9578 C 875.945 -2.27079 0.589277 0
M  V30 9579 C 876.961 -1.6999 -0.371389 0
M  V30 9580 O 878.137 -2.00044 -0.233294 0
M  V30 9581 C 875.202 -3.4663 -0.0696715 0
M  V30 9582 C 874.263 -4.18962 0.936454 0
M  V30 9583 C 873.496 -5.32806 0.308856 0
M  V30 9584 O 873.719 -5.63376 -0.8924 0
M  V30 9585 O 872.653 -5.93131 1.02367 0
M  V30 9586 H 876.479 -2.6551 1.47438 0
M  V30 9587 H 874.064 -1.27297 0.782045 0
M  V30 9588 H 875.946 -4.19119 -0.437873 0
M  V30 9589 H 874.621 -3.10082 -0.929029 0
M  V30 9590 H 873.528 -3.48661 1.35595 0
M  V30 9591 H 874.861 -4.59441 1.76565 0
M  V30 9592 N 876.513 -0.788492 -1.36457 0
M  V30 9593 C 877.761 -0.359749 -1.98872 0
M  V30 9594 C 878.082 1.07197 -1.62892 0
M  V30 9595 O 877.352 1.73875 -0.902463 0
M  V30 9596 H 875.932 -0.130029 -0.735596 0
M  V30 9597 H 878.594 -1.01033 -1.66668 0
M  V30 9598 H 877.69 -0.450835 -3.08827 0
M  V30 9599 N 877.991 1.48044 -0.54043 0
M  V30 9600 C 878.901 2.33565 0.220163 0
M  V30 9601 C 879.917 1.47146 0.928659 0
M  V30 9602 O 881.093 1.80107 0.901295 0
M  V30 9603 C 878.158 3.2349 1.2472 0
M  V30 9604 C 877.219 4.25789 0.547938 0
M  V30 9605 C 876.452 5.11417 1.52605 0
M  V30 9606 O 876.675 4.99204 2.75956 0
M  V30 9607 O 875.609 5.92498 1.05972 0
M  V30 9608 H 879.435 2.99868 -0.480898 0
M  V30 9609 H 877.02 1.46332 -0.301226 0
M  V30 9610 H 878.902 3.79084 1.84047 0
M  V30 9611 H 877.577 2.59835 1.93048 0
M  V30 9612 H 876.484 3.74001 -0.0860941 0
M  V30 9613 H 877.817 4.92111 -0.0935896 0
M  V30 9614 N 879.47 0.276058 1.55163 0
M  V30 9615 C 880.433 -0.597924 2.21263 0
M  V30 9616 C 881.433 -1.0806 1.19078 0
M  V30 9617 O 882.623 -0.980626 1.43977 0
M  V30 9618 C 879.755 -1.82503 2.87933 0
M  V30 9619 H 880.948 -0.0207769 2.99893 0
M  V30 9620 H 878.501 0.0266823 1.56277 0
M  V30 9621 H 879.236 -2.44266 2.13318 0
M  V30 9622 H 879.021 -1.48683 3.62816 0
M  V30 9623 H 880.511 -2.44651 3.38431 0
M  V30 9624 N 880.948 -1.576 0.00335426 0
M  V30 9625 C 882.359 -1.7875 -0.539008 0
M  V30 9626 C 882.71 -0.911097 -1.73763 0
M  V30 9627 O 881.835 -0.114476 -2.16097 0
M  V30 9628 C 882.43 -3.24177 -0.984611 0
M  V30 9629 C 880.989 -3.46412 -1.47226 0
M  V30 9630 C 880.136 -2.74024 -0.425004 0
M  V30 9631 H 883.087 -1.57032 0.229511 0
M  V30 9632 H 883.108 -3.32474 -1.85044 0
M  V30 9633 H 882.62 -3.87938 -0.112035 0
M  V30 9634 H 880.721 -2.8787 -2.36562 0
M  V30 9635 H 880.834 -4.55098 -1.49741 0
M  V30 9636 H 879.198 -2.38741 -0.887394 0
M  V30 9637 H 879.981 -3.40486 0.438662 0
M  V30 9638 N 882.426 0.269451 -1.5528 0
M  V30 9639 C 883.358 1.35553 -1.84819 0
M  V30 9640 C 884.371 1.45369 -0.732914 0
M  V30 9641 O 885.56 1.47122 -1.0108 0
M  V30 9642 C 882.66 2.73645 -1.9993 0
M  V30 9643 C 881.833 2.86376 -3.30617 0
M  V30 9644 C 880.892 4.05165 -3.35749 0
M  V30 9645 O 879.918 3.95756 -4.09104 0
M  V30 9646 N 881.12 5.17297 -2.63408 0
M  V30 9647 H 883.885 1.10557 -2.78563 0
M  V30 9648 H 881.446 0.459566 -1.5524 0
M  V30 9649 H 883.438 3.51411 -2.00729 0
M  V30 9650 H 882.008 2.91448 -1.13035 0
M  V30 9651 H 881.228 1.95465 -3.42326 0
M  V30 9652 H 882.516 2.91815 -4.16799 0
M  V30 9653 H 881.914 5.2783 -2.03501 0
M  V30 9654 H 880.471 5.93281 -2.69927 0
M  V30 9655 N 883.904 1.48273 0.534124 0
M  V30 9656 C 885.129 1.59988 1.31979 0
M  V30 9657 C 885.554 0.258824 1.86311 0
M  V30 9658 O 884.912 -0.768885 1.64188 0
M  V30 9659 C 884.96 2.64642 2.44943 0
M  V30 9660 O 884.064 2.21515 3.47858 0
M  V30 9661 H 883.405 0.536625 0.391063 0
M  V30 9662 H 885.935 1.94229 0.643135 0
M  V30 9663 H 885.945 2.85786 2.91187 0
M  V30 9664 H 884.62 3.62004 2.04758 0
M  V30 9665 H 883.197 2.10567 3.0776 0
M  V30 9666 N 885.382 -0.782676 1.36792 0
M  V30 9667 C 886.312 -1.90973 1.34356 0
M  V30 9668 C 887.293 -1.6875 0.213917 0
M  V30 9669 O 888.478 -1.89766 0.412601 0
M  V30 9670 C 885.608 -3.28097 1.13884 0
M  V30 9671 C 884.562 -3.6486 2.23744 0
M  V30 9672 C 883.888 -5.00406 1.88408 0
M  V30 9673 C 885.188 -3.72742 3.6587 0
M  V30 9674 H 886.882 -1.93268 2.28665 0
M  V30 9675 H 884.428 -0.928447 1.10072 0
M  V30 9676 H 886.381 -4.06569 1.10813 0
M  V30 9677 H 885.105 -3.26206 0.160275 0
M  V30 9678 H 883.764 -2.88689 2.25952 0
M  V30 9679 H 883.412 -4.95044 0.891083 0
M  V30 9680 H 883.112 -5.25973 2.61966 0
M  V30 9681 H 884.636 -5.81291 1.86905 0
M  V30 9682 H 886.05 -4.4139 3.65852 0
M  V30 9683 H 884.447 -4.09798 4.38389 0
M  V30 9684 H 885.517 -2.73676 4.00287 0
M  V30 9685 N 886.86 -1.21182 -1.00761 0
M  V30 9686 C 887.79 -0.992773 -2.11344 0
M  V30 9687 C 888.771 0.0813618 -1.69905 0
M  V30 9688 O 889.956 -0.0779503 -1.94043 0
M  V30 9689 C 887.086 -0.553826 -3.42856 0
M  V30 9690 C 886.04 -1.57223 -3.98077 0
M  V30 9691 C 885.366 -0.989605 -5.25463 0
M  V30 9692 C 886.666 -2.95839 -4.30438 0
M  V30 9693 H 888.36 -1.91766 -2.29927 0
M  V30 9694 H 885.906 -0.923426 -1.10494 0
M  V30 9695 H 887.859 -0.387771 -4.19612 0
M  V30 9696 H 886.583 0.406702 -3.24058 0
M  V30 9697 H 885.242 -1.7258 -3.23437 0
M  V30 9698 H 884.89 -0.0208743 -5.02996 0
M  V30 9699 H 884.59 -1.66984 -5.63374 0
M  V30 9700 H 886.114 -0.834815 -6.04866 0
M  V30 9701 H 887.528 -2.8394 -4.98047 0
M  V30 9702 H 885.925 -3.60851 -4.79486 0
M  V30 9703 H 886.995 -3.46882 -3.38823 0
M  V30 9704 N 888.338 1.20213 -1.01915 0
M  V30 9705 C 889.566 1.93622 -0.729255 0
M  V30 9706 C 889.981 1.74923 0.710444 0
M  V30 9707 O 889.338 1.06484 1.48214 0
M  V30 9708 C 889.389 3.45651 -1.05865 0
M  V30 9709 O 889.11 3.63741 -2.44181 0
M  V30 9710 C 890.611 4.36201 -0.790176 0
M  V30 9711 H 887.831 0.615333 -0.267594 0
M  V30 9712 H 890.375 1.52633 -1.36101 0
M  V30 9713 H 888.53 3.84511 -0.47225 0
M  V30 9714 H 888.944 4.57702 -2.56143 0
M  V30 9715 H 890.418 5.41516 -1.07071 0
M  V30 9716 H 890.895 4.38334 0.275609 0
M  V30 9717 H 891.501 4.03008 -1.35885 0
M  V30 9718 N 889.816 0.795718 1.36037 0
M  V30 9719 C 890.749 0.144269 2.27744 0
M  V30 9720 C 891.727 -0.683351 1.47543 0
M  V30 9721 O 892.911 -0.652976 1.76829 0
M  V30 9722 C 890.038 -0.800944 3.29094 0
M  V30 9723 C 889.084 -0.0543234 4.26465 0
M  V30 9724 S 889.917 1.27426 5.20118 0
M  V30 9725 C 891.073 0.333213 6.25012 0
M  V30 9726 H 891.306 0.921827 2.82648 0
M  V30 9727 H 888.839 0.590241 1.42673 0
M  V30 9728 H 890.797 -1.34082 3.87985 0
M  V30 9729 H 889.458 -1.5518 2.7309 0
M  V30 9730 H 888.651 -0.771788 4.98056 0
M  V30 9731 H 888.253 0.415264 3.71687 0
M  V30 9732 H 890.545 -0.485604 6.75757 0
M  V30 9733 H 891.488 1.01798 7.00744 0
M  V30 9734 H 891.896 -0.066256 5.64461 0
M  V30 9735 N 891.294 -1.47756 0.548274 0
M  V30 9736 C 892.204 -2.33678 -0.207773 0
M  V30 9737 C 893.22 -1.47636 -0.920843 0
M  V30 9738 O 894.396 -1.80583 -0.89173 0
M  V30 9739 C 891.461 -3.24147 -1.23003 0
M  V30 9740 C 890.522 -4.26073 -0.52535 0
M  V30 9741 C 889.755 -5.12219 -1.4989 0
M  V30 9742 O 889.978 -5.0066 -2.73305 0
M  V30 9743 O 888.912 -5.93051 -1.02828 0
M  V30 9744 H 892.738 -2.99609 0.496794 0
M  V30 9745 H 890.323 -1.4617 0.308982 0
M  V30 9746 H 892.205 -3.80055 -1.82034 0
M  V30 9747 H 890.88 -2.60855 -1.91668 0
M  V30 9748 H 889.787 -3.7395 0.105927 0
M  V30 9749 H 891.12 -4.92054 0.119686 0
M  V30 9750 N 892.772 -0.284283 -1.55015 0
M  V30 9751 C 893.682 0.60906 -2.26556 0
M  V30 9752 C 894.698 1.16246 -1.29472 0
M  V30 9753 O 895.874 1.1908 -1.62425 0
M  V30 9754 C 892.939 1.77246 -2.97968 0
M  V30 9755 C 892 1.25482 -4.10552 0
M  V30 9756 C 891.233 2.36277 -4.78549 0
M  V30 9757 O 891.456 3.55829 -4.45805 0
M  V30 9758 O 890.39 2.03914 -5.66306 0
M  V30 9759 H 894.216 0.0292298 -3.03686 0
M  V30 9760 H 891.801 -0.0513466 -1.49312 0
M  V30 9761 H 893.683 2.45062 -3.42815 0
M  V30 9762 H 892.358 2.33921 -2.23747 0
M  V30 9763 H 891.265 0.542859 -3.7014 0
M  V30 9764 H 892.598 0.733708 -4.86701 0
M  V30 9765 N 894.251 1.57596 -0.0117121 0
M  V30 9766 C 895.5 1.9025 0.669921 0
M  V30 9767 C 895.813 0.887986 1.74282 0
M  V30 9768 O 897.019 1.10516 2.47989 0
M  V30 9769 C 895.475 3.37762 1.24277 0
M  V30 9770 C 895.083 4.47535 0.204076 0
M  V30 9771 C 896.827 3.79509 1.90192 0
M  V30 9772 C 894.734 5.86132 0.787577 0
M  V30 9773 H 893.664 0.709935 0.253984 0
M  V30 9774 H 896.315 1.8335 -0.0741718 0
M  V30 9775 H 894.697 3.39537 2.03791 0
M  V30 9776 H 895.871 4.57294 -0.56733 0
M  V30 9777 H 894.186 4.14881 -0.355305 0
M  V30 9778 H 896.783 4.80402 2.34773 0
M  V30 9779 H 897.126 3.13643 2.7374 0
M  V30 9780 H 897.659 3.80084 1.17394 0
M  V30 9781 H 894.398 6.55499 -0.00938418 0
M  V30 9782 H 893.918 5.80014 1.52787 0
M  V30 9783 H 895.597 6.34158 1.28265 0
M  V30 9784 N 895.729 -0.261212 1.5542 0
M  V30 9785 C 896.661 -1.34571 1.85535 0
M  V30 9786 C 897.674 -1.44979 0.740612 0
M  V30 9787 O 898.863 -1.46584 1.01859 0
M  V30 9788 C 895.963 -2.7258 2.01378 0
M  V30 9789 C 895.136 -2.84618 3.32131 0
M  V30 9790 C 894.195 -4.03379 3.37893 0
M  V30 9791 O 893.221 -3.93581 4.11197 0
M  V30 9792 N 894.423 -5.15893 2.66148 0
M  V30 9793 H 897.188 -1.09078 2.79145 0
M  V30 9794 H 894.749 -0.451327 1.55482 0
M  V30 9795 H 896.741 -3.50342 2.0259 0
M  V30 9796 H 895.311 -2.90844 1.14579 0
M  V30 9797 H 894.531 -1.93647 3.43358 0
M  V30 9798 H 895.819 -2.896 4.18341 0
M  V30 9799 H 895.217 -5.26743 2.06297 0
M  V30 9800 H 893.774 -5.91842 2.73069 0
M  V30 9801 N 897.207 -1.48554 -0.526253 0
M  V30 9802 C 898.432 -1.60686 -1.31129 0
M  V30 9803 C 898.857 -0.268701 -1.86171 0
M  V30 9804 O 898.215 0.760167 -1.64594 0
M  V30 9805 C 898.263 -2.65938 -2.43536 0
M  V30 9806 O 897.367 -2.23356 -3.46678 0
M  V30 9807 H 896.708 -0.538691 -0.388211 0
M  V30 9808 H 899.238 -1.94567 -0.632826 0
M  V30 9809 H 899.248 -2.87327 -2.89668 0
M  V30 9810 H 897.923 -3.63085 -2.02835 0
M  V30 9811 H 896.5 -2.12196 -3.06639 0
M  V30 9812 N 898.685 0.775411 -1.37205 0
M  V30 9813 C 899.931 1.53611 -1.32407 0
M  V30 9814 C 900.264 1.9398 0.0924103 0
M  V30 9815 O 899.539 1.63791 1.04893 0
M  V30 9816 C 899.822 2.80367 -2.25979 0
M  V30 9817 C 899.675 2.46275 -3.76389 0
M  V30 9818 C 900.994 3.82277 -2.18064 0
M  V30 9819 H 898.113 0.557278 -0.482297 0
M  V30 9820 H 900.755 0.889826 -1.67875 0
M  V30 9821 H 898.905 3.35515 -1.95862 0
M  V30 9822 H 900.577 1.9707 -4.17087 0
M  V30 9823 H 898.82 1.79023 -3.95137 0
M  V30 9824 H 899.491 3.36868 -4.37291 0
M  V30 9825 H 901.967 3.36613 -2.44604 0
M  V30 9826 H 900.843 4.68696 -2.85684 0
M  V30 9827 H 901.104 4.26272 -1.17239 0
M  V30 9828 N 900.163 1.21714 1.00117 0
M  V30 9829 C 901.073 0.99597 2.12409 0
M  V30 9830 C 902.089 -0.0531431 1.73919 0
M  V30 9831 O 903.265 0.137757 2.00928 0
M  V30 9832 C 900.33 0.567593 3.42022 0
M  V30 9833 C 899.391 1.68936 3.94663 0
M  V30 9834 C 898.624 1.28133 5.1809 0
M  V30 9835 O 898.847 0.156574 5.70185 0
M  V30 9836 O 897.781 2.0947 5.64275 0
M  V30 9837 H 901.607 1.93657 2.33946 0
M  V30 9838 H 899.192 1.00236 1.10784 0
M  V30 9839 H 901.074 0.338664 4.20037 0
M  V30 9840 H 899.749 -0.34424 3.21864 0
M  V30 9841 H 898.656 1.97274 3.17858 0
M  V30 9842 H 899.989 2.57876 4.19238 0
M  V30 9843 N 901.641 -1.19671 1.02551 0
M  V30 9844 C 902.551 -2.26441 0.613329 0
M  V30 9845 C 903.567 -1.70375 -0.353339 0
M  V30 9846 O 904.743 -2.0028 -0.212064 0
M  V30 9847 C 901.808 -3.46684 -0.0329028 0
M  V30 9848 C 900.869 -4.17945 0.980837 0
M  V30 9849 C 900.102 -5.32448 0.36535 0
M  V30 9850 O 900.325 -5.64291 -0.832596 0
M  V30 9851 O 899.259 -5.92012 1.08652 0
M  V30 9852 H 903.085 -2.63932 1.50246 0
M  V30 9853 H 900.67 -1.2646 0.795502 0
M  V30 9854 H 902.552 -4.1956 -0.393395 0
M  V30 9855 H 901.227 -3.1105 -0.896089 0
M  V30 9856 H 900.134 -3.47204 1.39286 0
M  V30 9857 H 901.467 -4.57542 1.81428 0
M  V30 9858 N 903.119 -0.802921 -1.35613 0
M  V30 9859 C 904.347 -0.39393 -2.03115 0
M  V30 9860 C 904.762 0.993961 -1.60517 0
M  V30 9861 O 904.119 1.63984 -0.800973 0
M  V30 9862 C 904.17 -0.463486 -3.58516 0
M  V30 9863 O 903.891 -1.79666 -3.99565 0
M  V30 9864 C 905.392 -0.0468377 -4.43275 0
M  V30 9865 H 902.612 -0.160519 -0.651517 0
M  V30 9866 H 905.156 -1.08552 -1.73311 0
M  V30 9867 H 903.311 0.179821 -3.86982 0
M  V30 9868 H 903.725 -1.75688 -4.942 0
M  V30 9869 H 905.199 -0.146626 -5.51805 0
M  V30 9870 H 905.676 1.00741 -4.2749 0
M  V30 9871 H 906.282 -0.663158 -4.20098 0
M  V30 9872 N 904.597 1.47463 -0.556102 0
M  V30 9873 C 905.529 2.28046 0.22968 0
M  V30 9874 C 906.542 1.3694 0.880409 0
M  V30 9875 O 907.731 1.61773 0.754447 0
M  V30 9876 C 904.831 3.11165 1.34273 0
M  V30 9877 C 904.004 4.30225 0.789004 0
M  V30 9878 C 903.063 4.94948 1.78641 0
M  V30 9879 O 902.089 5.53372 1.33297 0
M  V30 9880 N 903.291 4.89543 3.11974 0
M  V30 9881 H 906.056 2.96125 -0.461558 0
M  V30 9882 H 903.617 1.5708 -0.392105 0
M  V30 9883 H 905.609 3.51331 2.00869 0
M  V30 9884 H 904.179 2.45337 1.93722 0
M  V30 9885 H 903.399 3.94163 -0.0536971 0
M  V30 9886 H 904.687 5.07238 0.398378 0
M  V30 9887 H 904.085 4.43275 3.51459 0
M  V30 9888 H 902.642 5.33732 3.74131 0
M  V30 9889 N 906.075 0.2925 1.54862 0
M  V30 9890 C 907.324 -0.319994 1.99146 0
M  V30 9891 C 907.637 -1.55658 1.18448 0
M  V30 9892 O 908.843 -2.24312 1.52959 0
M  V30 9893 C 907.299 -0.620665 3.54508 0
M  V30 9894 C 906.907 0.597098 4.44003 0
M  V30 9895 C 908.651 -1.19482 4.07338 0
M  V30 9896 C 906.558 0.270049 5.90783 0
M  V30 9897 H 905.488 -0.123342 0.743843 0
M  V30 9898 H 908.139 0.399876 1.7909 0
M  V30 9899 H 906.521 -1.3999 3.7043 0
M  V30 9900 H 907.695 1.37354 4.39853 0
M  V30 9901 H 906.01 1.0893 4.019 0
M  V30 9902 H 908.607 -1.45362 5.14562 0
M  V30 9903 H 908.95 -2.13435 3.57423 0
M  V30 9904 H 909.483 -0.477485 3.94924 0
M  V30 9905 H 906.222 1.17791 6.4483 0
M  V30 9906 H 905.742 -0.469292 5.97961 0
M  V30 9907 H 907.421 -0.131471 6.46866 0
M  V30 9908 N 907.553 -1.57587 0.0200696 0
M  V30 9909 C 908.5 -2.09667 -0.964791 0
M  V30 9910 C 909.47 -0.99664 -1.32877 0
M  V30 9911 O 910.655 -1.2703 -1.42366 0
M  V30 9912 C 907.795 -2.62101 -2.24493 0
M  V30 9913 C 906.908 -3.8608 -1.93821 0
M  V30 9914 C 906.043 -4.26939 -3.16064 0
M  V30 9915 C 905.082 -5.43701 -2.81169 0
M  V30 9916 N 904.219 -5.79759 -3.9601 0
M  V30 9917 H 909.059 -2.93538 -0.513751 0
M  V30 9918 H 906.596 -1.45096 -0.242 0
M  V30 9919 H 908.554 -2.90587 -2.99358 0
M  V30 9920 H 907.184 -1.81074 -2.6723 0
M  V30 9921 H 906.236 -3.64378 -1.09237 0
M  V30 9922 H 907.548 -4.71028 -1.64115 0
M  V30 9923 H 906.702 -4.56814 -3.99257 0
M  V30 9924 H 905.441 -3.40739 -3.48924 0
M  V30 9925 H 904.446 -5.13529 -1.96387 0
M  V30 9926 H 905.671 -6.31593 -2.49535 0
M  V30 9927 H 903.617 -4.96516 -4.28729 0
M  V30 9928 H 903.534 -6.59327 -3.69896 0
M  V30 9929 H 904.802 -6.14235 -4.79933 0
M  V30 9930 N 909.032 0.252966 -1.55557 0
M  V30 9931 C 909.942 1.33472 -1.92931 0
M  V30 9932 C 910.958 1.52983 -0.828985 0
M  V30 9933 O 912.134 1.66723 -1.12984 0
M  V30 9934 C 909.199 2.6704 -2.21112 0
M  V30 9935 C 908.26 2.56103 -3.44542 0
M  V30 9936 C 907.493 3.83302 -3.71369 0
M  V30 9937 O 907.716 4.84907 -3.00368 0
M  V30 9938 O 906.65 3.823 -4.64898 0
M  V30 9939 H 910.476 1.04768 -2.85057 0
M  V30 9940 H 908.061 0.453208 -1.4236 0
M  V30 9941 H 909.943 3.45981 -2.40572 0
M  V30 9942 H 908.618 2.95489 -1.32166 0
M  V30 9943 H 907.525 1.7547 -3.30396 0
M  V30 9944 H 908.858 2.32601 -4.33772 0
M  V30 9945 N 910.51 1.48831 0.518367 0
M  V30 9946 C 911.926 1.35209 0.847979 0
M  V30 9947 C 912.126 0.371927 1.98038 0
M  V30 9948 O 911.182 -0.202681 2.51685 0
M  V30 9949 C 912.495 2.7552 1.20455 0
M  V30 9950 C 914.043 2.84094 1.31377 0
M  V30 9951 C 914.518 4.25132 1.70372 0
M  V30 9952 N 916.009 4.27861 1.77453 0
M  V30 9953 C 916.744 5.3394 2.09035 0
M  V30 9954 N 916.24 6.50285 2.3896 0
M  V30 9955 N 918.033 5.21343 2.10139 0
M  V30 9956 H 910.184 2.11166 -0.228624 0
M  V30 9957 H 912.447 0.94717 -0.0396599 0
M  V30 9958 H 912.153 3.48861 0.445991 0
M  V30 9959 H 912.027 3.09785 2.15204 0
M  V30 9960 H 914.414 2.11001 2.06307 0
M  V30 9961 H 914.495 2.53433 0.347203 0
M  V30 9962 H 914.139 4.98745 0.959975 0
M  V30 9963 H 914.069 4.53245 2.68098 0
M  V30 9964 H 916.56 3.43945 1.56557 0
M  V30 9965 H 916.873 7.26961 2.62196 0
M  V30 9966 H 915.218 6.5354 2.36454 0
M  V30 9967 H 918.409 4.29462 1.86225 0
M  V30 9968 H 918.582 6.04112 2.34419 0
M  V30 9969 N 911.988 -0.768124 1.37614 0
M  V30 9970 C 912.935 -1.88151 1.33671 0
M  V30 9971 C 913.905 -1.64871 0.201645 0
M  V30 9972 O 915.09 -1.86739 0.391582 0
M  V30 9973 C 912.23 -3.25264 1.15314 0
M  V30 9974 C 911.343 -3.60473 2.38082 0
M  V30 9975 C 910.478 -4.86814 2.12569 0
M  V30 9976 C 909.517 -5.14765 3.31184 0
M  V30 9977 N 908.654 -6.32295 3.052 0
M  V30 9978 H 913.494 -1.90857 2.28862 0
M  V30 9979 H 911.031 -0.933048 1.13722 0
M  V30 9980 H 912.989 -4.04364 1.02691 0
M  V30 9981 H 911.619 -3.21924 0.237689 0
M  V30 9982 H 910.671 -2.7633 2.61431 0
M  V30 9983 H 911.983 -3.77065 3.26532 0
M  V30 9984 H 911.137 -5.73826 1.96999 0
M  V30 9985 H 909.876 -4.72333 1.21462 0
M  V30 9986 H 908.881 -4.26227 3.4729 0
M  V30 9987 H 910.106 -5.31153 4.23147 0
M  V30 9988 H 908.052 -6.19166 2.16726 0
M  V30 9989 H 907.969 -6.4932 3.87195 0
M  V30 9990 H 909.237 -7.22234 2.93254 0
M  V30 9991 N 913.466 -1.22244 -0.994698 0
M  V30 9992 C 914.706 -1.05747 -1.7492 0
M  V30 9993 C 915.07 0.4007 -1.87772 0
M  V30 9994 O 916.271 0.686469 -2.59887 0
M  V30 9995 C 914.542 -1.7471 -3.11787 0
M  V30 9996 S 916.101 -1.73604 -4.02998 0
M  V30 9997 H 912.919 -0.378731 -0.601734 0
M  V30 9998 H 915.521 -1.55155 -1.18942 0
M  V30 9999 H 914.225 -2.79972 -3.00073 0
M  V30 10000 H 913.756 -1.25525 -3.72836 0
M  V30 10001 H 915.771 -0.784445 -4.8996 0
M  V30 10002 N 914.944 1.19125 -1.03184 0
M  V30 10003 C 915.874 2.24675 -0.635889 0
M  V30 10004 C 916.855 1.66321 0.356565 0
M  V30 10005 O 918.04 1.92728 0.238625 0
M  V30 10006 C 915.17 3.47298 0.011069 0
M  V30 10007 C 914.124 4.18345 -0.903979 0
M  V30 10008 C 913.45 5.34561 -0.12197 0
M  V30 10009 C 914.75 4.72816 -2.21907 0
M  V30 10010 H 916.444 2.5805 -1.51825 0
M  V30 10011 H 913.99 1.24039 -0.73146 0
M  V30 10012 H 915.943 4.20333 0.299729 0
M  V30 10013 H 914.667 3.13131 0.928245 0
M  V30 10014 H 913.326 3.47196 -1.17688 0
M  V30 10015 H 912.974 4.9664 0.797334 0
M  V30 10016 H 912.674 5.83029 -0.731498 0
M  V30 10017 H 914.198 6.10391 0.159881 0
M  V30 10018 H 915.612 5.3759 -1.99173 0
M  V30 10019 H 914.009 5.31782 -2.78078 0
M  V30 10020 H 915.079 3.9072 -2.87168 0
M  V30 10021 N 916.422 0.810101 1.35185 0
M  V30 10022 C 917.352 0.237453 2.32289 0
M  V30 10023 C 918.333 -0.639032 1.5764 0
M  V30 10024 O 919.518 -0.568575 1.8569 0
M  V30 10025 C 916.648 -0.611964 3.41866 0
M  V30 10026 C 915.602 0.166318 4.27677 0
M  V30 10027 C 914.928 -0.805024 5.28605 0
M  V30 10028 C 916.228 1.36729 5.04086 0
M  V30 10029 H 917.922 1.04874 2.80432 0
M  V30 10030 H 915.468 0.505751 1.34826 0
M  V30 10031 H 917.421 -1.02267 4.08802 0
M  V30 10032 H 916.145 -1.45617 2.92341 0
M  V30 10033 H 914.804 0.558238 3.62325 0
M  V30 10034 H 914.452 -1.64483 4.75347 0
M  V30 10035 H 914.152 -0.288577 5.86891 0
M  V30 10036 H 915.676 -1.21386 5.98413 0
M  V30 10037 H 917.09 1.03128 5.63948 0
M  V30 10038 H 915.487 1.81848 5.71884 0
M  V30 10039 H 916.557 2.15214 4.34524 0
M  V30 10040 N 917.9 -1.47166 0.563914 0
M  V30 10041 C 918.83 -2.32894 -0.168148 0
M  V30 10042 C 919.811 -1.44202 -0.902214 0
M  V30 10043 O 920.996 -1.73048 -0.881365 0
M  V30 10044 C 918.126 -3.26116 -1.19439 0
M  V30 10045 C 917.08 -4.24101 -0.576363 0
M  V30 10046 C 916.406 -5.06696 -1.70772 0
M  V30 10047 C 917.706 -5.20142 0.47425 0
M  V30 10048 H 919.4 -2.9435 0.547573 0
M  V30 10049 H 916.946 -1.41545 0.264778 0
M  V30 10050 H 918.899 -3.84935 -1.71474 0
M  V30 10051 H 917.623 -2.62728 -1.94014 0
M  V30 10052 H 916.282 -3.66519 -0.0772534 0
M  V30 10053 H 915.93 -4.39707 -2.44268 0
M  V30 10054 H 915.63 -5.7304 -1.29994 0
M  V30 10055 H 917.154 -5.68375 -2.2312 0
M  V30 10056 H 918.568 -5.73286 0.0397035 0
M  V30 10057 H 916.965 -5.94726 0.801287 0
M  V30 10058 H 918.035 -4.65214 1.36764 0
M  V30 10059 N 919.378 -0.300708 -1.54705 0
M  V30 10060 C 920.325 0.57552 -2.23509 0
M  V30 10061 C 921.295 1.12979 -1.21758 0
M  V30 10062 O 922.48 1.17437 -1.50377 0
M  V30 10063 C 919.62 1.74167 -2.97926 0
M  V30 10064 C 918.733 1.21882 -4.1445 0
M  V30 10065 C 917.868 2.34881 -4.7645 0
M  V30 10066 C 916.907 1.79729 -5.85119 0
M  V30 10067 N 916.044 2.863 -6.41075 0
M  V30 10068 H 920.884 -0.0178257 -2.97995 0
M  V30 10069 H 918.421 -0.0205666 -1.47086 0
M  V30 10070 H 920.379 2.42753 -3.39303 0
M  V30 10071 H 919.009 2.30665 -2.25817 0
M  V30 10072 H 918.061 0.425227 -3.78016 0
M  V30 10073 H 919.373 0.775065 -4.92741 0
M  V30 10074 H 918.527 3.11415 -5.20678 0
M  V30 10075 H 917.266 2.82584 -3.97489 0
M  V30 10076 H 916.271 1.01684 -5.40315 0
M  V30 10077 H 917.496 1.32931 -6.65963 0
M  V30 10078 H 915.442 3.33337 -5.64998 0
M  V30 10079 H 915.359 2.46419 -7.14712 0
M  V30 10080 H 916.627 3.62732 -6.89961 0
M  V30 10081 N 920.856 1.57574 -0.0284266 0
M  V30 10082 C 922.105 1.9095 0.649704 0
M  V30 10083 C 922.418 0.906421 1.7333 0
M  V30 10084 O 923.624 1.1314 2.46803 0
M  V30 10085 C 922.08 3.39061 1.20687 0
M  V30 10086 C 921.688 4.47726 0.156597 0
M  V30 10087 C 923.432 3.81505 1.86156 0
M  V30 10088 C 921.339 5.86935 0.725365 0
M  V30 10089 H 920.269 0.712589 0.24644 0
M  V30 10090 H 922.92 1.83261 -0.0936143 0
M  V30 10091 H 921.302 3.41679 2.00178 0
M  V30 10092 H 922.476 4.56667 -0.6158 0
M  V30 10093 H 920.791 4.14481 -0.399288 0
M  V30 10094 H 923.388 4.82865 2.29665 0
M  V30 10095 H 923.731 3.16529 2.70398 0
M  V30 10096 H 924.264 3.81307 1.13356 0
M  V30 10097 H 921.003 6.55453 -0.0789081 0
M  V30 10098 H 920.523 5.81602 1.46627 0
M  V30 10099 H 922.202 6.35483 1.21532 0
M  V30 10100 N 922.334 -0.244713 1.55689 0
M  V30 10101 C 923.75 -0.593331 1.48161 0
M  V30 10102 C 923.95 -1.88234 0.719047 0
M  V30 10103 O 923.006 -2.51266 0.249292 0
M  V30 10104 C 924.319 -0.694032 2.92581 0
M  V30 10105 C 925.867 -0.786213 3.02965 0
M  V30 10106 C 926.342 -0.918457 4.48696 0
M  V30 10107 N 927.833 -0.983272 4.52643 0
M  V30 10108 C 928.568 -1.1049 5.62654 0
M  V30 10109 N 928.064 -1.19193 6.8247 0
M  V30 10110 N 929.857 -1.13823 5.50455 0
M  V30 10111 H 922.008 0.601446 2.03707 0
M  V30 10112 H 924.271 0.207894 0.924924 0
M  V30 10113 H 923.977 0.183133 3.51223 0
M  V30 10114 H 923.851 -1.56525 3.4319 0
M  V30 10115 H 926.238 -1.65383 2.44402 0
M  V30 10116 H 926.319 0.110202 2.55563 0
M  V30 10117 H 925.963 -0.0553881 5.0787 0
M  V30 10118 H 925.893 -1.82994 4.93782 0
M  V30 10119 H 928.384 -0.927269 3.66347 0
M  V30 10120 H 928.697 -1.28387 7.62061 0
M  V30 10121 H 927.042 -1.16147 6.85226 0
M  V30 10122 H 930.233 -1.06673 4.55783 0
M  V30 10123 H 930.406 -1.22957 6.36228 0
M  V30 10124 N 923.813 -1.49104 -0.510467 0
M  V30 10125 C 925.061 -1.578 -1.26268 0
M  V30 10126 C 925.382 -0.262349 -1.93227 0
M  V30 10127 O 924.652 0.717624 -1.82283 0
M  V30 10128 H 923.232 -0.581387 -0.46904 0
M  V30 10129 H 925.894 -1.85678 -0.592423 0
M  V30 10130 H 924.99 -2.36919 -2.03165 0
M  V30 10131 N 925.291 0.760815 -1.38019 0
M  V30 10132 C 926.539 1.51673 -1.33566 0
M  V30 10133 C 926.86 1.94852 0.076024 0
M  V30 10134 O 926.13 1.67112 1.02227 0
M  V30 10135 H 924.71 0.562581 -0.491438 0
M  V30 10136 H 927.372 0.904832 -1.72623 0
M  V30 10137 H 926.468 2.41102 -1.98182 0
M  V30 10138 N 926.769 1.22769 0.988202 0
M  V30 10139 C 927.716 1.00195 2.07917 0
M  V30 10140 C 928.686 -0.0779391 1.65917 0
M  V30 10141 O 929.871 0.0726005 1.90662 0
M  V30 10142 C 927.011 0.590853 3.40004 0
M  V30 10143 C 926.124 1.74202 3.9532 0
M  V30 10144 C 925.259 1.27846 5.15586 0
M  V30 10145 C 924.298 2.40087 5.63049 0
M  V30 10146 N 923.435 1.94744 6.74551 0
M  V30 10147 H 928.275 1.93581 2.26562 0
M  V30 10148 H 925.812 0.96448 1.11068 0
M  V30 10149 H 927.77 0.333653 4.15864 0
M  V30 10150 H 926.4 -0.306007 3.21346 0
M  V30 10151 H 925.452 2.11342 3.16289 0
M  V30 10152 H 926.764 2.58612 4.26522 0
M  V30 10153 H 925.918 0.978919 5.9875 0
M  V30 10154 H 924.657 0.404617 4.86019 0
M  V30 10155 H 923.662 2.70824 4.78471 0
M  V30 10156 H 924.887 3.27995 5.9464 0
M  V30 10157 H 922.833 1.09729 6.46758 0
M  V30 10158 H 922.75 2.72718 7.05096 0
M  V30 10159 H 924.018 1.67873 7.61209 0
M  V30 10160 N 928.247 -1.18576 1.03814 0
M  V30 10161 C 929.179 -2.21607 0.585055 0
M  V30 10162 C 930.192 -1.59125 -0.343963 0
M  V30 10163 O 931.381 -1.77959 -0.138882 0
M  V30 10164 C 928.481 -3.38495 -0.165602 0
M  V30 10165 C 927.654 -4.30557 0.770662 0
M  V30 10166 C 926.713 -5.26161 0.0637534 0
M  V30 10167 O 925.739 -5.64961 0.693359 0
M  V30 10168 N 926.941 -5.67882 -1.20377 0
M  V30 10169 H 929.706 -2.61104 1.47121 0
M  V30 10170 H 927.267 -1.33336 0.918316 0
M  V30 10171 H 929.259 -3.99474 -0.648292 0
M  V30 10172 H 927.829 -2.97711 -0.953268 0
M  V30 10173 H 927.049 -3.67221 1.43326 0
M  V30 10174 H 928.337 -4.88969 1.40667 0
M  V30 10175 H 927.735 -5.38409 -1.73586 0
M  V30 10176 H 926.292 -6.31069 -1.63079 0
M  V30 10177 N 929.725 -0.817259 -1.34754 0
M  V30 10178 C 930.972 -0.402648 -1.98457 0
M  V30 10179 C 931.3 1.03287 -1.64809 0
M  V30 10180 O 930.555 1.73316 -0.908851 0
M  V30 10181 C 930.854 -0.5453 -3.53216 0
M  V30 10182 C 930.52 -1.9457 -4.06759 0
M  V30 10183 C 929.182 -2.32881 -4.21094 0
M  V30 10184 C 931.534 -2.86141 -4.35629 0
M  V30 10185 C 928.862 -3.62108 -4.61622 0
M  V30 10186 C 931.214 -4.14826 -4.776 0
M  V30 10187 C 929.878 -4.53121 -4.9014 0
M  V30 10188 H 929.148 -0.147339 -0.726204 0
M  V30 10189 H 931.795 -1.04011 -1.60791 0
M  V30 10190 H 930.1 0.175576 -3.91406 0
M  V30 10191 H 931.797 -0.205112 -4.00475 0
M  V30 10192 H 928.387 -1.6381 -3.96061 0
M  V30 10193 H 932.571 -2.57788 -4.24098 0
M  V30 10194 H 927.827 -3.91613 -4.69521 0
M  V30 10195 H 932.001 -4.85874 -4.98899 0
M  V30 10196 H 929.628 -5.53307 -5.21302 0
M  V30 10197 N 931.203 1.46865 -0.571711 0
M  V30 10198 C 932.452 2.01636 -0.050881 0
M  V30 10199 C 932.765 1.45001 1.31279 0
M  V30 10200 O 933.971 1.91523 1.92435 0
M  V30 10201 C 932.427 3.59877 -0.0404114 0
M  V30 10202 C 932.035 4.25506 -1.40172 0
M  V30 10203 C 933.779 4.22346 0.42705 0
M  V30 10204 C 931.686 5.75795 -1.34958 0
M  V30 10205 H 930.616 0.753846 -0.0152514 0
M  V30 10206 H 933.267 1.68711 -0.721723 0
M  V30 10207 H 931.649 3.89829 0.696374 0
M  V30 10208 H 932.823 4.07178 -2.15737 0
M  V30 10209 H 931.138 3.75086 -1.8083 0
M  V30 10210 H 933.735 5.32499 0.484688 0
M  V30 10211 H 934.078 3.9052 1.44222 0
M  V30 10212 H 934.611 3.9698 -0.255326 0
M  V30 10213 H 931.35 6.12265 -2.3412 0
M  V30 10214 H 930.87 5.96419 -0.635962 0
M  V30 10215 H 932.549 6.38294 -1.05779 0
M  V30 10216 N 932.681 0.308908 1.54543 0
M  V30 10217 C 933.611 -0.556657 2.26768 0
M  V30 10218 C 934.592 -1.13145 1.27013 0
M  V30 10219 O 935.777 -1.15931 1.558 0
M  V30 10220 C 932.907 -1.72481 3.01443 0
M  V30 10221 C 931.861 -1.28001 4.08411 0
M  V30 10222 C 931.187 -2.53395 4.70845 0
M  V30 10223 C 932.487 -0.405497 5.20724 0
M  V30 10224 H 934.181 0.0457618 2.99365 0
M  V30 10225 H 931.727 0.0234495 1.43981 0
M  V30 10226 H 933.68 -2.3365 3.50693 0
M  V30 10227 H 932.404 -2.35359 2.26437 0
M  V30 10228 H 931.063 -0.69133 3.60022 0
M  V30 10229 H 930.711 -3.14604 3.92471 0
M  V30 10230 H 930.411 -2.2433 5.43093 0
M  V30 10231 H 931.935 -3.15352 5.22863 0
M  V30 10232 H 933.349 -0.923076 5.6582 0
M  V30 10233 H 931.746 -0.208282 5.99738 0
M  V30 10234 H 932.816 0.567412 4.81569 0
M  V30 10235 N 934.159 -1.57557 0.0367827 0
M  V30 10236 C 935.091 -2.07597 -0.971395 0
M  V30 10237 C 936.104 -1.0009 -1.28397 0
M  V30 10238 O 937.293 -1.27692 -1.24728 0
M  V30 10239 C 934.393 -2.492 -2.2968 0
M  V30 10240 C 933.566 -3.79875 -2.16826 0
M  V30 10241 C 932.625 -4.07946 -3.32366 0
M  V30 10242 O 931.651 -4.78083 -3.0891 0
M  V30 10243 N 932.853 -3.58722 -4.56397 0
M  V30 10244 H 935.618 -2.94714 -0.544389 0
M  V30 10245 H 933.179 -1.61205 -0.1498 0
M  V30 10246 H 935.171 -2.65065 -3.05815 0
M  V30 10247 H 933.741 -1.67407 -2.63995 0
M  V30 10248 H 932.961 -3.73732 -1.2537 0
M  V30 10249 H 934.249 -4.65476 -2.0545 0
M  V30 10250 H 933.647 -3.01994 -4.78347 0
M  V30 10251 H 932.204 -3.79852 -5.29675 0
M  V30 10252 N 935.637 0.236453 -1.55816 0
M  V30 10253 C 936.877 0.970249 -1.79904 0
M  V30 10254 C 937.241 1.8212 -0.607965 0
M  V30 10255 O 938.442 2.58759 -0.727833 0
M  V30 10256 C 936.713 1.79938 -3.088 0
M  V30 10257 S 938.272 2.59084 -3.54148 0
M  V30 10258 H 935.09 0.32618 -0.631765 0
M  V30 10259 H 937.692 0.237147 -1.94056 0
M  V30 10260 H 936.396 1.16412 -3.93544 0
M  V30 10261 H 935.927 2.57504 -2.97414 0
M  V30 10262 H 937.942 3.82315 -3.16306 0
M  V30 10263 N 937.115 1.49373 0.502552 0
M  V30 10264 C 938.392 1.49282 1.26389 0
M  V30 10265 C 938.772 0.219674 2.09954 0
M  V30 10266 O 938.12 -0.797991 2.14113 0
M  V30 10267 C 938.33 2.77083 2.12194 0
M  V30 10268 C 939.678 3.26511 2.71433 0
M  V30 10269 O 940.702 2.78189 2.22462 0
M  V30 10270 O 939.561 4.10665 3.60578 0
M  V30 10271 H 936.655 0.597415 0.57186 0
M  V30 10272 H 939.201 1.61634 0.516951 0
M  V30 10273 H 937.973 3.61237 1.50411 0
M  V30 10274 H 937.596 2.67583 2.94084 0
M  V30 10275 N 938.594 -0.753485 1.38421 0
M  V30 10276 C 939.819 -1.54783 1.38047 0
M  V30 10277 C 940.244 -1.8808 -0.0276371 0
M  V30 10278 O 939.602 -1.5058 -1.00973 0
M  V30 10279 C 939.65 -2.82353 2.24297 0
M  V30 10280 O 938.754 -3.77509 1.66014 0
M  V30 10281 H 938.095 -0.468151 0.470883 0
M  V30 10282 H 940.625 -0.931144 1.82184 0
M  V30 10283 H 940.635 -3.31277 2.38159 0
M  V30 10284 H 939.31 -2.57449 3.26639 0
M  V30 10285 H 937.887 -3.36212 1.61294 0
M  V30 10286 N 940.072 -1.23292 -0.981677 0
M  V30 10287 C 941.349 -0.972514 -1.6971 0
M  V30 10288 C 941.729 0.509244 -2.04866 0
M  V30 10289 O 941.077 1.48013 -1.74082 0
M  V30 10290 C 941.287 -1.88144 -2.93943 0
M  V30 10291 C 942.635 -2.14416 -3.66485 0
M  V30 10292 O 943.659 -1.85684 -3.03974 0
M  V30 10293 O 942.518 -2.63139 -4.78978 0
M  V30 10294 H 939.612 -0.366673 -0.741269 0
M  V30 10295 H 942.158 -1.34328 -1.03701 0
M  V30 10296 H 940.93 -2.8832 -2.64551 0
M  V30 10297 H 940.553 -1.51296 -3.67689 0
M  V30 10298 N 941.55 1.18024 -1.04442 0
M  V30 10299 C 942.961 1.69749 -0.777312 0
M  V30 10300 C 943.312 1.83234 0.701399 0
M  V30 10301 O 942.437 1.51452 1.54568 0
M  V30 10302 C 943.032 3.08321 -1.40441 0
M  V30 10303 C 941.591 3.57243 -1.18553 0
M  V30 10304 C 940.738 2.33695 -1.49271 0
M  V30 10305 H 943.689 1.02647 -1.21035 0
M  V30 10306 H 943.71 3.71787 -0.809628 0
M  V30 10307 H 943.222 2.98474 -2.48062 0
M  V30 10308 H 941.323 3.72379 -0.128221 0
M  V30 10309 H 941.436 4.40451 -1.88519 0
M  V30 10310 H 939.8 2.37792 -0.912526 0
M  V30 10311 H 940.583 2.26464 -2.5801 0
M  V30 10312 N 943.028 0.824394 1.34319 0
M  V30 10313 C 943.938 0.24932 2.33271 0
M  V30 10314 C 944.954 -0.617066 1.62691 0
M  V30 10315 O 946.13 -0.524616 1.94447 0
M  V30 10316 C 943.195 -0.578094 3.41846 0
M  V30 10317 C 942.256 0.310866 4.28173 0
M  V30 10318 C 941.489 -0.477153 5.31563 0
M  V30 10319 O 941.712 -1.71028 5.44156 0
M  V30 10320 O 940.646 0.141287 6.01734 0
M  V30 10321 H 944.472 1.06837 2.84288 0
M  V30 10322 H 942.057 0.58657 1.37403 0
M  V30 10323 H 943.939 -1.04878 4.0814 0
M  V30 10324 H 942.614 -1.37444 2.93071 0
M  V30 10325 H 941.521 0.829081 3.64797 0
M  V30 10326 H 942.854 1.07161 4.80393 0
M  V30 10327 N 944.506 -1.46559 0.579492 0
M  V30 10328 C 945.436 -2.33059 -0.143437 0
M  V30 10329 C 946.417 -1.4515 -0.886868 0
M  V30 10330 O 947.602 -1.73973 -0.862961 0
M  V30 10331 C 944.732 -3.27364 -1.15973 0
M  V30 10332 C 943.686 -4.24689 -0.531348 0
M  V30 10333 C 943.012 -5.08479 -1.65388 0
M  V30 10334 C 944.312 -5.1961 0.529391 0
M  V30 10335 H 946.006 -2.93753 0.578762 0
M  V30 10336 H 943.552 -1.41256 0.279775 0
M  V30 10337 H 945.505 -3.86732 -1.67382 0
M  V30 10338 H 944.229 -2.64771 -1.91217 0
M  V30 10339 H 942.888 -3.6658 -0.0383749 0
M  V30 10340 H 942.536 -4.42273 -2.3959 0
M  V30 10341 H 942.236 -5.74387 -1.23909 0
M  V30 10342 H 943.76 -5.70709 -2.17079 0
M  V30 10343 H 945.174 -5.73212 0.100506 0
M  V30 10344 H 943.571 -5.93843 0.86432 0
M  V30 10345 H 944.641 -4.63737 1.4169 0
M  V30 10346 N 945.984 -0.3171 -1.54377 0
M  V30 10347 C 947.23 0.287836 -2.00747 0
M  V30 10348 C 947.563 1.52292 -1.20502 0
M  V30 10349 O 946.838 1.92391 -0.285626 0
M  V30 10350 C 947.121 0.628423 -3.54574 0
M  V30 10351 C 946.974 -0.616922 -4.45549 0
M  V30 10352 C 948.293 1.44862 -4.15575 0
M  V30 10353 H 945.412 0.103144 -0.729747 0
M  V30 10354 H 948.054 -0.432396 -1.85014 0
M  V30 10355 H 946.204 1.24203 -3.68111 0
M  V30 10356 H 947.876 -1.25526 -4.43893 0
M  V30 10357 H 946.119 -1.24706 -4.15489 0
M  V30 10358 H 946.79 -0.334243 -5.50987 0
M  V30 10359 H 949.266 0.930015 -4.05574 0
M  V30 10360 H 948.142 1.6557 -5.23333 0
M  V30 10361 H 948.403 2.44279 -3.68484 0
M  V30 10362 N 947.462 1.57535 -0.0451378 0
M  V30 10363 C 948.394 2.08109 0.960372 0
M  V30 10364 C 949.407 1.0077 1.27864 0
M  V30 10365 O 950.596 1.28351 1.24049 0
M  V30 10366 C 947.696 2.50414 2.28355 0
M  V30 10367 C 946.869 3.8102 2.14808 0
M  V30 10368 C 945.928 4.09702 3.30198 0
M  V30 10369 O 944.954 4.79715 3.0637 0
M  V30 10370 N 946.156 3.61138 4.54489 0
M  V30 10371 H 948.921 2.94999 0.528752 0
M  V30 10372 H 946.482 1.61283 0.141248 0
M  V30 10373 H 948.474 2.66683 3.04405 0
M  V30 10374 H 947.044 1.68805 2.63104 0
M  V30 10375 H 946.264 3.74392 1.23387 0
M  V30 10376 H 947.552 4.66559 2.02978 0
M  V30 10377 H 946.95 3.04527 4.76739 0
M  V30 10378 H 945.507 3.82656 5.27653 0
M  V30 10379 N 948.94 -0.228186 1.55939 0
M  V30 10380 C 950.186 -0.950604 1.7982 0
M  V30 10381 C 950.541 -1.82236 0.617079 0
M  V30 10382 O 949.834 -1.87607 -0.389102 0
M  V30 10383 C 950.028 -1.82924 3.0704 0
M  V30 10384 C 949.857 -1.04403 4.37413 0
M  V30 10385 C 948.627 -0.741613 4.99828 0
M  V30 10386 C 950.825 -0.412534 5.12643 0
M  V30 10387 N 948.807 0.0656922 6.13865 0
M  V30 10388 C 950.178 0.258471 6.19461 0
M  V30 10389 C 952.233 -0.324893 4.96839 0
M  V30 10390 C 950.936 1.00873 7.12192 0
M  V30 10391 C 952.962 0.411878 5.89964 0
M  V30 10392 C 952.324 1.07145 6.96203 0
M  V30 10393 H 948.423 -0.328336 0.709732 0
M  V30 10394 H 951.007 -0.222056 1.9343 0
M  V30 10395 H 949.178 -2.52966 2.94725 0
M  V30 10396 H 950.91 -2.48863 3.19139 0
M  V30 10397 H 947.665 -1.05801 4.61631 0
M  V30 10398 H 948.089 0.457986 6.75449 0
M  V30 10399 H 952.731 -0.820485 4.14762 0
M  V30 10400 H 950.449 1.51586 7.93755 0
M  V30 10401 H 954.035 0.480606 5.79812 0
M  V30 10402 H 952.915 1.63245 7.67021 0
M  V30 10403 N 950.418 -1.49637 -0.494624 0
M  V30 10404 C 951.365 -1.66776 -1.59545 0
M  V30 10405 C 952.335 -0.509159 -1.58104 0
M  V30 10406 O 953.52 -0.736949 -1.75993 0
M  V30 10407 C 950.66 -1.74624 -2.97658 0
M  V30 10408 C 949.773 -3.01831 -3.09067 0
M  V30 10409 C 948.908 -3.00619 -4.37952 0
M  V30 10410 C 947.947 -4.22378 -4.43016 0
M  V30 10411 N 947.084 -4.1904 -5.63339 0
M  V30 10412 H 951.924 -2.60767 -1.44238 0
M  V30 10413 H 949.461 -1.29286 -0.701673 0
M  V30 10414 H 951.419 -1.77156 -3.77719 0
M  V30 10415 H 950.049 -0.840936 -3.11654 0
M  V30 10416 H 949.101 -3.08881 -2.22029 0
M  V30 10417 H 950.413 -3.91823 -3.08669 0
M  V30 10418 H 949.567 -3.01749 -5.26339 0
M  V30 10419 H 948.306 -2.08416 -4.40924 0
M  V30 10420 H 947.311 -4.21485 -3.5303 0
M  V30 10421 H 948.536 -5.15781 -4.41755 0
M  V30 10422 H 946.482 -3.29677 -5.67141 0
M  V30 10423 H 946.399 -5.02774 -5.64583 0
M  V30 10424 H 947.667 -4.24281 -6.53916 0
M  V30 10425 N 951.896 0.746133 -1.38819 0
M  V30 10426 C 952.843 1.86001 -1.36647 0
M  V30 10427 C 953.813 1.6453 -0.227849 0
M  V30 10428 O 954.998 1.86092 -0.421241 0
M  V30 10429 C 952.138 3.23388 -1.20474 0
M  V30 10430 C 951.251 3.5664 -2.43786 0
M  V30 10431 C 950.386 4.8337 -2.20287 0
M  V30 10432 C 949.425 5.09431 -3.39332 0
M  V30 10433 N 948.562 6.2736 -3.1522 0
M  V30 10434 H 953.402 1.87192 -2.31869 0
M  V30 10435 H 950.939 0.914838 -1.15192 0
M  V30 10436 H 952.897 4.02679 -1.09112 0
M  V30 10437 H 951.527 3.21505 -0.288874 0
M  V30 10438 H 950.579 2.72135 -2.65794 0
M  V30 10439 H 951.891 3.71823 -3.3249 0
M  V30 10440 H 951.045 5.70619 -2.06103 0
M  V30 10441 H 949.784 4.70341 -1.28961 0
M  V30 10442 H 948.789 4.20648 -3.54027 0
M  V30 10443 H 950.014 5.24354 -4.31544 0
M  V30 10444 H 947.96 6.15639 -2.26549 0
M  V30 10445 H 947.877 6.43078 -3.97476 0
M  V30 10446 H 949.145 7.17477 -3.04707 0
M  V30 10447 N 953.375 1.23811 0.975125 0
M  V30 10448 C 954.285 1.0408 2.10249 0
M  V30 10449 C 955.301 -0.0162404 1.73992 0
M  V30 10450 O 956.477 0.180346 2.00591 0
M  V30 10451 C 953.542 0.640013 3.40741 0
M  V30 10452 C 952.603 1.7727 3.90991 0
M  V30 10453 C 951.836 1.39094 5.15256 0
M  V30 10454 O 952.059 0.277483 5.69725 0
M  V30 10455 O 950.993 2.21392 5.59704 0
M  V30 10456 H 954.819 1.98575 2.29786 0
M  V30 10457 H 952.404 1.02563 1.08633 0
M  V30 10458 H 954.286 0.427684 4.19224 0
M  V30 10459 H 952.961 -0.27589 3.22522 0
M  V30 10460 H 951.868 2.03971 3.13602 0
M  V30 10461 H 953.201 2.66711 4.13674 0
M  V30 10462 N 954.853 -1.17469 1.05066 0
M  V30 10463 C 955.783 -2.23635 0.671552 0
M  V30 10464 C 956.764 -1.66867 -0.33006 0
M  V30 10465 O 957.949 -1.93084 -0.207933 0
M  V30 10466 C 955.079 -3.47272 0.0441845 0
M  V30 10467 C 954.033 -4.16854 0.97042 0
M  V30 10468 C 953.359 -5.34299 0.206998 0
M  V30 10469 C 954.659 -4.69225 2.29401 0
M  V30 10470 H 956.353 -2.55602 1.55911 0
M  V30 10471 H 953.899 -1.2286 0.751101 0
M  V30 10472 H 955.852 -4.20756 -0.23282 0
M  V30 10473 H 954.576 -3.14568 -0.878311 0
M  V30 10474 H 953.235 -3.4528 1.23197 0
M  V30 10475 H 952.883 -4.97846 -0.718222 0
M  V30 10476 H 952.583 -5.81792 0.82416 0
M  V30 10477 H 954.107 -6.10568 -0.0627525 0
M  V30 10478 H 955.521 -5.34353 2.077 0
M  V30 10479 H 953.918 -5.27291 2.86503 0
M  V30 10480 H 954.988 -3.86102 2.93348 0
M  V30 10481 N 956.331 -0.831506 -1.3388 0
M  V30 10482 C 957.747 -0.518349 -1.50948 0
M  V30 10483 C 957.947 0.955807 -1.77388 0
M  V30 10484 O 957.003 1.73993 -1.82983 0
M  V30 10485 C 958.316 -1.38531 -2.66889 0
M  V30 10486 C 959.864 -1.38332 -2.80772 0
M  V30 10487 C 960.339 -2.23497 -3.99766 0
M  V30 10488 N 961.83 -2.21167 -4.06988 0
M  V30 10489 C 962.565 -2.83805 -4.98239 0
M  V30 10490 N 962.061 -3.55468 -5.94655 0
M  V30 10491 N 963.854 -2.73314 -4.91178 0
M  V30 10492 H 956.005 -1.78588 -1.14978 0
M  V30 10493 H 958.268 -0.761508 -0.564633 0
M  V30 10494 H 957.974 -2.43255 -2.54007 0
M  V30 10495 H 957.848 -1.05611 -3.62114 0
M  V30 10496 H 960.235 -0.343832 -2.9309 0
M  V30 10497 H 960.316 -1.75256 -1.86331 0
M  V30 10498 H 959.96 -3.27501 -3.88208 0
M  V30 10499 H 959.89 -1.83919 -4.93438 0
M  V30 10500 H 962.381 -1.69046 -3.37982 0
M  V30 10501 H 962.694 -4.00487 -6.60931 0
M  V30 10502 H 961.039 -3.59575 -5.94753 0
M  V30 10503 H 964.23 -2.16897 -4.14817 0
M  V30 10504 H 964.403 -3.22416 -5.62096 0
M  V30 10505 N 957.809 1.4625 -0.587256 0
M  V30 10506 C 959.086 1.95599 -0.00750181 0
M  V30 10507 C 959.466 1.52989 1.45457 0
M  V30 10508 O 958.814 0.782731 2.14676 0
M  V30 10509 C 959.024 3.48513 -0.184309 0
M  V30 10510 C 960.372 4.24565 -0.0544972 0
M  V30 10511 O 961.396 3.5602 -0.113378 0
M  V30 10512 O 960.255 5.46445 0.0774075 0
M  V30 10513 H 957.349 0.825649 0.0472495 0
M  V30 10514 H 959.895 1.56512 -0.655893 0
M  V30 10515 H 958.667 3.72428 -1.20053 0
M  V30 10516 H 958.29 3.9444 0.500301 0
M  V30 10517 N 959.287 0.325282 1.54207 0
M  V30 10518 C 960.25 -0.527228 2.23054 0
M  V30 10519 C 961.25 -1.04217 1.22456 0
M  V30 10520 O 962.44 -0.934325 1.47024 0
M  V30 10521 C 959.572 -1.7325 2.93594 0
M  V30 10522 H 960.765 0.0746423 2.99807 0
M  V30 10523 H 958.318 0.0763872 1.56113 0
M  V30 10524 H 959.053 -2.37356 2.20981 0
M  V30 10525 H 958.838 -1.37065 3.67363 0
M  V30 10526 H 960.328 -2.3376 3.46043 0
M  V30 10527 N 960.765 -1.57509 0.0534917 0
M  V30 10528 C 961.995 -1.96812 -0.628386 0
M  V30 10529 C 962.403 -0.929808 -1.64776 0
M  V30 10530 O 961.746 0.0941155 -1.83459 0
M  V30 10531 C 961.808 -3.32361 -1.37027 0
M  V30 10532 C 961.472 -4.54185 -0.506465 0
M  V30 10533 C 962.469 -5.19398 0.228412 0
M  V30 10534 C 960.154 -5.00398 -0.43671 0
M  V30 10535 C 962.148 -6.29162 1.02146 0
M  V30 10536 C 959.835 -6.10039 0.360022 0
M  V30 10537 C 960.833 -6.74282 1.08779 0
M  V30 10538 O 960.521 -7.81814 1.87142 0
M  V30 10539 H 960.253 -0.65257 -0.176432 0
M  V30 10540 H 962.807 -2.05067 0.116908 0
M  V30 10541 H 961.037 -3.20667 -2.16125 0
M  V30 10542 H 962.726 -3.56395 -1.94261 0
M  V30 10543 H 963.492 -4.84651 0.184003 0
M  V30 10544 H 959.371 -4.50183 -0.992772 0
M  V30 10545 H 962.915 -6.79238 1.59002 0
M  V30 10546 H 958.812 -6.44222 0.406061 0
M  V30 10547 H 959.58 -7.98602 1.79378 0
M  V30 10548 N 962.243 0.219913 -1.56058 0
M  V30 10549 C 963.659 0.569685 -1.49086 0
M  V30 10550 C 963.859 1.87066 -0.748903 0
M  V30 10551 O 962.915 2.50838 -0.289235 0
M  V30 10552 C 964.228 0.647397 -2.93648 0
M  V30 10553 C 965.776 0.737914 -3.04177 0
M  V30 10554 C 966.251 0.846957 -4.50101 0
M  V30 10555 N 967.742 0.911136 -4.5415 0
M  V30 10556 C 968.477 1.01525 -5.64341 0
M  V30 10557 N 967.973 1.0832 -6.8428 0
M  V30 10558 N 969.766 1.05051 -5.52196 0
M  V30 10559 H 961.917 -0.633778 -2.02724 0
M  V30 10560 H 964.18 -0.222583 -0.921499 0
M  V30 10561 H 963.886 -0.238987 -3.50887 0
M  V30 10562 H 963.76 1.51046 -3.45637 0
M  V30 10563 H 966.147 1.61474 -2.47002 0
M  V30 10564 H 966.228 -0.150845 -2.55355 0
M  V30 10565 H 965.872 -0.0254166 -5.07894 0
M  V30 10566 H 965.802 1.75116 -4.96631 0
M  V30 10567 H 968.293 0.868869 -3.67776 0
M  V30 10568 H 968.606 1.16247 -7.64007 0
M  V30 10569 H 966.951 1.05231 -6.86987 0
M  V30 10570 H 970.142 0.994086 -4.57423 0
M  V30 10571 H 970.315 1.12819 -6.38103 0
M  V30 10572 N 963.721 1.49897 0.486681 0
M  V30 10573 C 964.631 1.70379 1.6127 0
M  V30 10574 C 965.647 0.58659 1.63814 0
M  V30 10575 O 966.823 0.863044 1.81971 0
M  V30 10576 C 963.888 1.77911 2.97571 0
M  V30 10577 C 962.949 3.01569 3.0554 0
M  V30 10578 C 962.182 3.08732 4.35339 0
M  V30 10579 O 962.405 2.23099 5.2496 0
M  V30 10580 O 961.339 4.01325 4.48578 0
M  V30 10581 H 965.165 2.65799 1.46916 0
M  V30 10582 H 962.75 1.33808 0.664516 0
M  V30 10583 H 964.632 1.85135 3.78554 0
M  V30 10584 H 963.307 0.856722 3.12157 0
M  V30 10585 H 962.214 2.99854 2.23693 0
M  V30 10586 H 963.547 3.93335 2.95886 0
M  V30 10587 N 965.199 -0.738761 1.39212 0
M  V30 10588 C 966.162 -1.83441 1.37412 0
M  V30 10589 C 967.162 -1.58484 0.271908 0
M  V30 10590 O 968.352 -1.65954 0.529609 0
M  V30 10591 C 965.484 -3.21167 1.143 0
M  V30 10592 H 966.677 -1.86441 2.34904 0
M  V30 10593 H 964.23 -0.942023 1.24722 0
M  V30 10594 H 964.965 -3.23829 0.174756 0
M  V30 10595 H 964.75 -3.40678 1.94116 0
M  V30 10596 H 966.24 -4.01231 1.15773 0
M  V30 10597 N 966.677 -1.24326 -0.968545 0
M  V30 10598 C 967.609 -0.992749 -2.06584 0
M  V30 10599 C 968.622 0.0374902 -1.62757 0
M  V30 10600 O 969.811 -0.199448 -1.77382 0
M  V30 10601 C 966.911 -0.476165 -3.35538 0
M  V30 10602 C 966.084 -1.56934 -4.08277 0
M  V30 10603 C 965.143 -1.05555 -5.15504 0
M  V30 10604 O 964.169 -1.74707 -5.41725 0
M  V30 10605 N 965.371 0.110465 -5.80395 0
M  V30 10606 H 968.136 -1.93752 -2.28649 0
M  V30 10607 H 965.697 -1.15344 -1.13611 0
M  V30 10608 H 967.689 -0.117223 -4.0453 0
M  V30 10609 H 966.259 0.374315 -3.10351 0
M  V30 10610 H 965.479 -2.10051 -3.33575 0
M  V30 10611 H 966.767 -2.30415 -4.53637 0
M  V30 10612 H 966.165 0.688614 -5.61493 0
M  V30 10613 H 964.722 0.41056 -6.50506 0
M  V30 10614 N 968.156 1.1691 -1.05688 0
M  V30 10615 C 969.088 2.20648 -0.620237 0
M  V30 10616 C 970.101 1.59652 0.318604 0
M  V30 10617 O 971.29 1.78157 0.110553 0
M  V30 10618 C 968.39 3.38716 0.111729 0
M  V30 10619 C 967.563 4.29277 -0.839062 0
M  V30 10620 C 966.622 5.25993 -0.147453 0
M  V30 10621 O 965.648 5.63787 -0.783151 0
M  V30 10622 N 966.85 5.69725 1.11327 0
M  V30 10623 H 969.615 2.58731 -1.51256 0
M  V30 10624 H 967.176 1.31858 -0.939412 0
M  V30 10625 H 969.168 4.00455 0.584657 0
M  V30 10626 H 967.738 2.99189 0.905784 0
M  V30 10627 H 966.958 3.64894 -1.4915 0
M  V30 10628 H 968.246 4.86669 -1.48428 0
M  V30 10629 H 967.644 5.41103 1.64999 0
M  V30 10630 H 966.201 6.33584 1.53018 0
M  V30 10631 N 969.634 0.838594 1.33437 0
M  V30 10632 C 970.564 0.286672 2.31734 0
M  V30 10633 C 971.545 -0.605451 1.5896 0
M  V30 10634 O 972.73 -0.529059 1.86854 0
M  V30 10635 C 969.86 -0.539311 3.43087 0
M  V30 10636 C 968.814 0.256997 4.27228 0
M  V30 10637 C 968.14 -0.692718 5.30194 0
M  V30 10638 C 969.44 1.47391 5.01072 0
M  V30 10639 H 971.134 1.10798 2.78144 0
M  V30 10640 H 968.68 0.534235 1.33723 0
M  V30 10641 H 970.633 -0.935724 4.1088 0
M  V30 10642 H 969.357 -1.39383 2.95364 0
M  V30 10643 H 968.016 0.634967 3.61059 0
M  V30 10644 H 967.664 -1.54363 4.78729 0
M  V30 10645 H 967.364 -0.164023 5.87371 0
M  V30 10646 H 968.888 -1.08665 6.00853 0
M  V30 10647 H 970.302 1.15067 5.61634 0
M  V30 10648 H 968.699 1.93937 5.67898 0
M  V30 10649 H 969.769 2.24382 4.29861 0
M  V30 10650 N 971.112 -1.45937 0.595003 0
M  V30 10651 C 972.358 -2.0262 0.0854317 0
M  V30 10652 C 972.691 -1.46402 -1.27594 0
M  V30 10653 O 971.966 -0.633823 -1.83883 0
M  V30 10654 C 972.249 -3.60085 0.0329075 0
M  V30 10655 C 972.102 -4.26663 1.42405 0
M  V30 10656 C 973.421 -4.35101 -0.661426 0
M  V30 10657 H 970.54 -0.736282 0.0325196 0
M  V30 10658 H 973.182 -1.73938 0.764563 0
M  V30 10659 H 971.332 -3.84652 -0.545439 0
M  V30 10660 H 973.004 -4.13321 2.04851 0
M  V30 10661 H 971.247 -3.85549 1.98833 0
M  V30 10662 H 971.918 -5.35497 1.33965 0
M  V30 10663 H 974.394 -4.15753 -0.169977 0
M  V30 10664 H 973.27 -5.44829 -0.667243 0
M  V30 10665 H 973.531 -4.07053 -1.72513 0
M  V30 10666 N 972.59 -0.333456 -1.54032 0
M  V30 10667 C 973.522 0.562174 -2.22199 0
M  V30 10668 C 974.535 1.07202 -1.22522 0
M  V30 10669 O 975.724 0.983897 -1.48935 0
M  V30 10670 C 972.824 1.78525 -2.88066 0
M  V30 10671 C 971.997 1.41242 -4.13968 0
M  V30 10672 C 971.056 2.49408 -4.63338 0
M  V30 10673 O 970.082 2.13138 -5.27789 0
M  V30 10674 N 971.284 3.805 -4.38406 0
M  V30 10675 H 974.049 -0.0215629 -2.99692 0
M  V30 10676 H 971.61 -0.157111 -1.61136 0
M  V30 10677 H 973.602 2.50298 -3.18014 0
M  V30 10678 H 972.172 2.2766 -2.14219 0
M  V30 10679 H 971.392 0.525887 -3.90676 0
M  V30 10680 H 972.68 1.13916 -4.95884 0
M  V30 10681 H 972.078 4.12761 -3.86839 0
M  V30 10682 H 970.635 4.48474 -4.72984 0
M  V30 10683 N 974.068 1.57479 -0.061844 0
M  V30 10684 C 975.484 1.56855 0.294753 0
M  V30 10685 C 975.684 1.07042 1.70717 0
M  V30 10686 O 974.74 0.731817 2.41662 0
M  V30 10687 C 976.053 3.00486 0.113484 0
M  V30 10688 C 977.601 3.1246 0.183778 0
M  V30 10689 C 978.076 4.5799 0.0309092 0
M  V30 10690 N 979.567 4.63119 0.0868393 0
M  V30 10691 C 980.302 5.734 -0.00717446 0
M  V30 10692 N 979.798 6.92628 -0.154144 0
M  V30 10693 N 981.591 5.62078 0.0491763 0
M  V30 10694 H 973.742 1.88176 -0.985058 0
M  V30 10695 H 976.005 0.867051 -0.383309 0
M  V30 10696 H 975.711 3.41004 -0.86075 0
M  V30 10697 H 975.585 3.67029 0.870023 0
M  V30 10698 H 977.972 2.71834 1.14849 0
M  V30 10699 H 978.053 2.48574 -0.603697 0
M  V30 10700 H 977.697 4.99303 -0.930526 0
M  V30 10701 H 977.627 5.19895 0.837664 0
M  V30 10702 H 980.118 3.77374 0.199245 0
M  V30 10703 H 980.431 7.72492 -0.218296 0
M  V30 10704 H 978.776 6.94742 -0.189372 0
M  V30 10705 H 981.967 4.67817 0.162626 0
M  V30 10706 H 982.14 6.47994 -0.0275478 0
M  V30 10707 N 975.546 -0.211634 1.56173 0
M  V30 10708 C 976.792 -0.935935 1.79911 0
M  V30 10709 C 977.125 -1.83589 0.633155 0
M  V30 10710 O 976.4 -1.91004 -0.367132 0
M  V30 10711 C 976.683 -1.76638 3.13801 0
M  V30 10712 C 976.536 -0.892259 4.40861 0
M  V30 10713 C 977.855 -2.74224 3.44223 0
M  V30 10714 H 974.974 -0.338822 0.654499 0
M  V30 10715 H 977.616 -0.20422 1.88899 0
M  V30 10716 H 975.766 -2.39021 3.0627 0
M  V30 10717 H 977.438 -0.284407 4.60422 0
M  V30 10718 H 975.681 -0.198145 4.33347 0
M  V30 10719 H 976.352 -1.50793 5.31004 0
M  V30 10720 H 978.828 -2.21975 3.51946 0
M  V30 10721 H 977.704 -3.29424 4.39057 0
M  V30 10722 H 977.965 -3.52455 2.66885 0
M  V30 10723 N 977.024 -1.50153 -0.478725 0
M  V30 10724 C 978.435 -1.53706 -1.05978 0
M  V30 10725 C 978.786 -0.336112 -1.933 0
M  V30 10726 O 977.911 0.551803 -2.09246 0
M  V30 10727 C 978.506 -2.78541 -1.92874 0
M  V30 10728 C 977.065 -2.848 -2.46102 0
M  V30 10729 C 976.212 -2.47902 -1.24257 0
M  V30 10730 H 979.163 -1.56528 -0.261664 0
M  V30 10731 H 979.184 -2.59964 -2.77847 0
M  V30 10732 H 978.696 -3.6593 -1.29293 0
M  V30 10733 H 976.797 -2.01744 -3.13257 0
M  V30 10734 H 976.91 -3.87511 -2.81731 0
M  V30 10735 H 975.274 -2.0017 -1.57493 0
M  V30 10736 H 976.057 -3.3759 -0.62351 0
M  V30 10737 N 978.502 0.731368 -1.39602 0
M  V30 10738 C 979.449 1.84541 -1.38612 0
M  V30 10739 C 980.419 1.64279 -0.245287 0
M  V30 10740 O 981.604 1.85635 -0.440954 0
M  V30 10741 C 978.744 3.22092 -1.23897 0
M  V30 10742 C 977.857 3.54034 -2.47555 0
M  V30 10743 C 976.992 4.81007 -2.25402 0
M  V30 10744 C 976.031 5.05804 -3.44716 0
M  V30 10745 N 975.168 6.23981 -3.21857 0
M  V30 10746 H 980.008 1.84722 -2.33841 0
M  V30 10747 H 977.545 0.902569 -1.16156 0
M  V30 10748 H 979.503 4.01499 -1.13376 0
M  V30 10749 H 978.133 3.2118 -0.322958 0
M  V30 10750 H 977.185 2.69301 -2.68665 0
M  V30 10751 H 978.497 3.68275 -3.36415 0
M  V30 10752 H 977.651 5.68401 -2.12143 0
M  V30 10753 H 976.39 4.68946 -1.33943 0
M  V30 10754 H 975.395 4.1687 -3.58468 0
M  V30 10755 H 976.62 5.19747 -4.37081 0
M  V30 10756 H 974.566 6.13202 -2.33065 0
M  V30 10757 H 974.483 6.38826 -4.04274 0
M  V30 10758 H 975.751 7.14205 -3.123 0
M  V30 10759 N 979.98 1.24838 0.961938 0
M  V30 10760 C 980.913 0.989041 2.05653 0
M  V30 10761 C 981.891 -0.079199 1.62407 0
M  V30 10762 O 983.075 0.0589397 1.88408 0
M  V30 10763 C 980.202 0.493661 3.35083 0
M  V30 10764 C 979.248 1.55132 3.97286 0
M  V30 10765 S 980.081 3.13438 4.34185 0
M  V30 10766 C 981.237 2.65617 5.66744 0
M  V30 10767 H 981.47 1.91588 2.27335 0
M  V30 10768 H 979.003 1.08287 1.10061 0
M  V30 10769 H 980.961 0.214482 4.09939 0
M  V30 10770 H 979.622 -0.412559 3.11379 0
M  V30 10771 H 978.815 1.15525 4.90581 0
M  V30 10772 H 978.417 1.78081 3.28882 0
M  V30 10773 H 980.709 2.08788 6.44526 0
M  V30 10774 H 981.652 3.57524 6.11214 0
M  V30 10775 H 982.06 2.05853 5.25628 0
M  V30 10776 N 981.458 -1.16348 1.06306 0
M  V30 10777 C 982.405 -2.20741 0.673962 0
M  V30 10778 C 983.375 -1.628 -0.329454 0
M  V30 10779 O 984.56 -1.89547 -0.218313 0
M  V30 10780 C 981.7 -3.45036 0.0667008 0
M  V30 10781 C 980.813 -4.17221 1.12031 0
M  V30 10782 C 979.948 -5.29034 0.479176 0
M  V30 10783 C 978.987 -5.93021 1.51631 0
M  V30 10784 N 978.124 -6.96327 0.898528 0
M  V30 10785 H 982.964 -2.53376 1.56859 0
M  V30 10786 H 980.501 -1.24449 0.784276 0
M  V30 10787 H 982.459 -4.16099 -0.302916 0
M  V30 10788 H 981.089 -3.1295 -0.791333 0
M  V30 10789 H 980.141 -3.4476 1.60763 0
M  V30 10790 H 981.453 -4.60902 1.90712 0
M  V30 10791 H 980.607 -6.06674 0.0565993 0
M  V30 10792 H 979.346 -4.86517 -0.33951 0
M  V30 10793 H 978.351 -5.14104 1.94878 0
M  V30 10794 H 979.576 -6.37618 2.3371 0
M  V30 10795 H 977.522 -6.55923 0.100555 0
M  V30 10796 H 977.439 -7.38379 1.62272 0
M  V30 10797 H 978.707 -7.77888 0.5011 0
M  V30 10798 N 982.937 -0.845659 -1.3299 0
M  V30 10799 C 983.885 -0.272412 -2.30999 0
M  V30 10800 C 984.879 0.599311 -1.58444 0
M  V30 10801 O 986.085 0.488117 -1.73255 0
M  V30 10802 H 982.46 -0.0693751 -0.748793 0
M  V30 10803 H 984.431 -1.11343 -2.76849 0
M  V30 10804 C 983.18 0.532019 -3.43606 0
M  V30 10805 H 982.503 -0.129455 -3.9959 0
M  V30 10806 H 983.943 0.898853 -4.14363 0
M  V30 10807 C 982.402 1.71364 -2.90062 0
M  V30 10808 O 982.932 2.81252 -2.8681 0
M  V30 10809 N 981.138 1.53775 -2.4658 0
M  V30 10810 H 980.685 0.643836 -2.49424 0
M  V30 10811 H 980.643 2.32982 -2.11108 0
M  V30 10812 N 984.415 1.45619 -0.602734 0
M  V30 10813 C 985.362 2.30493 0.118944 0
M  V30 10814 C 986.332 1.41816 0.864723 0
M  V30 10815 O 987.517 1.7075 0.851424 0
M  V30 10816 C 984.657 3.2664 1.11356 0
M  V30 10817 C 983.77 4.3042 0.369161 0
M  V30 10818 C 982.905 5.13678 1.35307 0
M  V30 10819 C 981.944 6.09189 0.596207 0
M  V30 10820 N 981.081 6.85245 1.52916 0
M  V30 10821 H 985.921 2.91672 -0.610836 0
M  V30 10822 H 983.458 1.43731 -0.313032 0
M  V30 10823 H 985.416 3.80846 1.7033 0
M  V30 10824 H 984.046 2.67225 1.81081 0
M  V30 10825 H 983.098 3.78913 -0.335994 0
M  V30 10826 H 984.41 4.98307 -0.221603 0
M  V30 10827 H 983.564 5.7226 2.01502 0
M  V30 10828 H 982.303 4.45798 1.97777 0
M  V30 10829 H 981.308 5.49743 -0.0793984 0
M  V30 10830 H 982.533 6.79096 -0.0233734 0
M  V30 10831 H 980.479 6.20058 2.14159 0
M  V30 10832 H 980.396 7.49467 0.991713 0
M  V30 10833 H 981.664 7.48371 2.18083 0
M  V30 10834 N 985.893 0.34162 1.53853 0
M  V30 10835 C 987.304 -0.14269 1.86154 0
M  V30 10836 C 987.655 -1.50151 1.2629 0
M  V30 10837 O 986.78 -2.08601 0.575735 0
M  V30 10838 C 987.375 -0.265691 3.37757 0
M  V30 10839 C 985.934 -0.694231 3.69942 0
M  V30 10840 C 985.081 0.173195 2.76759 0
M  V30 10841 H 988.032 0.561284 1.48443 0
M  V30 10842 H 988.053 -1.09352 3.64448 0
M  V30 10843 H 987.565 0.723424 3.81298 0
M  V30 10844 H 985.666 -1.69244 3.31945 0
M  V30 10845 H 985.779 -0.485461 4.76634 0
M  V30 10846 H 984.143 -0.35416 2.52226 0
M  V30 10847 H 984.926 1.15941 3.23129 0
M  V30 10848 N 987.371 -1.57444 0.0701946 0
M  V30 10849 C 988.787 -1.57009 -0.286431 0
M  V30 10850 C 988.987 -1.07946 -1.70147 0
M  V30 10851 O 988.043 -0.744622 -2.41271 0
M  V30 10852 C 989.356 -3.00542 -0.0975466 0
M  V30 10853 C 990.904 -3.12553 -0.167205 0
M  V30 10854 C 991.379 -4.58 -0.00662047 0
M  V30 10855 N 992.87 -4.63158 -0.0622778 0
M  V30 10856 C 993.605 -5.73388 0.0375831 0
M  V30 10857 N 993.101 -6.92537 0.190873 0
M  V30 10858 N 994.894 -5.62097 -0.0193672 0
M  V30 10859 H 987.045 -1.87651 0.995023 0
M  V30 10860 H 989.308 -0.865006 0.387902 0
M  V30 10861 H 989.014 -3.40543 0.878822 0
M  V30 10862 H 988.888 -3.67485 -0.850547 0
M  V30 10863 H 991.275 -2.72439 -1.13406 0
M  V30 10864 H 991.356 -2.48251 0.616871 0
M  V30 10865 H 991 -4.98803 0.956992 0
M  V30 10866 H 990.93 -5.20332 -0.810081 0
M  V30 10867 H 993.421 -3.77475 -0.179229 0
M  V30 10868 H 993.734 -7.72365 0.25926 0
M  V30 10869 H 992.079 -6.94632 0.226214 0
M  V30 10870 H 995.27 -4.67897 -0.137815 0
M  V30 10871 H 995.443 -6.4797 0.0619121 0
M  V30 10872 N 988.849 0.203349 -1.56283 0
M  V30 10873 C 990.074 0.945548 -1.84592 0
M  V30 10874 C 990.499 1.7641 -0.652772 0
M  V30 10875 O 989.857 1.76867 0.398468 0
M  V30 10876 C 989.905 1.82416 -3.11057 0
M  V30 10877 O 989.009 2.92191 -2.9103 0
M  V30 10878 H 988.35 0.266739 -0.608068 0
M  V30 10879 H 990.88 0.211158 -2.03507 0
M  V30 10880 H 990.89 2.23044 -3.41636 0
M  V30 10881 H 989.565 1.22267 -3.97522 0
M  V30 10882 H 988.142 2.55378 -2.71728 0
M  V30 10883 N 990.327 1.50405 0.470755 0
M  V30 10884 C 991.738 1.54266 1.05162 0
M  V30 10885 C 992.089 0.346359 1.93119 0
M  V30 10886 O 991.214 -0.540699 2.09536 0
M  V30 10887 C 991.809 2.7956 1.91394 0
M  V30 10888 C 990.368 2.86101 2.44588 0
M  V30 10889 C 989.515 2.48557 1.22941 0
M  V30 10890 H 992.466 1.56665 0.253359 0
M  V30 10891 H 992.487 2.61434 2.76464 0
M  V30 10892 H 991.999 3.66611 1.27351 0
M  V30 10893 H 990.1 2.03403 3.12183 0
M  V30 10894 H 990.213 3.88999 2.79672 0
M  V30 10895 H 988.577 2.01003 1.56429 0
M  V30 10896 H 989.36 3.37916 0.605598 0
M  V30 10897 N 991.805 -0.723954 1.39988 0
M  V30 10898 C 993.051 -1.48591 1.38017 0
M  V30 10899 C 993.384 -1.94189 -0.0203522 0
M  V30 10900 O 992.659 -1.67572 -0.987422 0
M  V30 10901 C 992.942 -2.71786 2.36229 0
M  V30 10902 C 992.795 -2.32136 3.8527 0
M  V30 10903 C 994.114 -3.73921 2.32102 0
M  V30 10904 H 991.233 -0.538993 0.502648 0
M  V30 10905 H 993.875 -0.826908 1.71062 0
M  V30 10906 H 992.025 -3.28015 2.0818 0
M  V30 10907 H 993.697 -1.81454 4.24113 0
M  V30 10908 H 991.94 -1.64234 4.01509 0
M  V30 10909 H 992.611 -3.20406 4.49493 0
M  V30 10910 H 995.087 -3.27303 2.56928 0
M  V30 10911 H 993.963 -4.5777 3.02882 0
M  V30 10912 H 994.224 -4.21627 1.32979 0
M  V30 10913 N 993.283 -1.25346 -0.955304 0
M  V30 10914 C 994.529 -1.10218 -1.70235 0
M  V30 10915 C 994.862 0.356124 -1.90907 0
M  V30 10916 O 994.137 1.26253 -1.47954 0
M  V30 10917 C 994.42 -1.85627 -3.08569 0
M  V30 10918 C 994.273 -3.39281 -2.95311 0
M  V30 10919 C 995.592 -1.63886 -4.08448 0
M  V30 10920 H 992.711 -0.401781 -0.617852 0
M  V30 10921 H 995.353 -1.5417 -1.11048 0
M  V30 10922 H 993.503 -1.48269 -3.59094 0
M  V30 10923 H 995.175 -3.8631 -2.52116 0
M  V30 10924 H 993.418 -3.67027 -2.31244 0
M  V30 10925 H 994.089 -3.87258 -3.93364 0
M  V30 10926 H 996.565 -1.96406 -3.6683 0
M  V30 10927 H 995.441 -2.19087 -5.03281 0
M  V30 10928 H 995.702 -0.580021 -4.38279 0
M  V30 10929 N 994.761 1.15782 -1.06922 0
M  V30 10930 C 995.671 2.24008 -0.696948 0
M  V30 10931 C 996.687 1.71569 0.289862 0
M  V30 10932 O 997.863 2.00929 0.137585 0
M  V30 10933 C 994.928 3.46568 -0.0957895 0
M  V30 10934 C 993.989 4.14017 -1.13528 0
M  V30 10935 C 993.222 5.30725 -0.562713 0
M  V30 10936 O 993.445 5.66992 0.62259 0
M  V30 10937 O 992.379 5.87572 -1.30549 0
M  V30 10938 H 996.205 2.58174 -1.59938 0
M  V30 10939 H 993.79 1.2342 -0.841889 0
M  V30 10940 H 995.672 4.20731 0.237407 0
M  V30 10941 H 994.347 3.14161 0.780027 0
M  V30 10942 H 993.254 3.41795 -1.52076 0
M  V30 10943 H 994.587 4.50493 -1.98285 0
M  V30 10944 N 996.239 0.8527 1.3254 0
M  V30 10945 C 997.169 0.311234 2.31416 0
M  V30 10946 C 998.15 -0.588557 1.59593 0
M  V30 10947 O 999.335 -0.509211 1.87405 0
M  V30 10948 C 996.465 -0.502892 3.4364 0
M  V30 10949 C 995.419 0.302296 4.26931 0
M  V30 10950 C 994.745 -0.636445 5.30899 0
M  V30 10951 C 996.045 1.52697 4.99481 0
M  V30 10952 H 997.739 1.13742 2.76953 0
M  V30 10953 H 995.285 0.548389 1.33149 0
M  V30 10954 H 997.238 -0.892092 4.11849 0
M  V30 10955 H 995.962 -1.36242 2.96826 0
M  V30 10956 H 994.621 0.673226 3.60365 0
M  V30 10957 H 994.269 -1.49277 4.80339 0
M  V30 10958 H 993.969 -0.101716 5.87512 0
M  V30 10959 H 995.493 -1.02286 6.01972 0
M  V30 10960 H 996.907 1.21017 5.60382 0
M  V30 10961 H 995.304 1.9995 5.65809 0
M  V30 10962 H 996.374 2.28929 4.27457 0
M  V30 10963 N 997.718 -1.45297 0.610449 0
M  V30 10964 C 998.943 -2.07101 0.111414 0
M  V30 10965 C 999.368 -1.45161 -1.19625 0
M  V30 10966 O 998.726 -0.545368 -1.72903 0
M  V30 10967 C 998.774 -3.60598 -0.0117372 0
M  V30 10968 O 997.878 -3.98512 -1.06122 0
M  V30 10969 H 997.219 -0.659709 0.075364 0
M  V30 10970 H 999.749 -1.86504 0.841269 0
M  V30 10971 H 999.759 -4.07464 -0.209028 0
M  V30 10972 H 998.434 -4.05067 0.943076 0
M  V30 10973 H 997.011 -3.63312 -0.840158 0
M  V30 10974 N 999.196 -0.349774 -1.5367 0
M  V30 10975 C 1000.14 0.504121 -2.25227 0
M  V30 10976 C 1001.11 1.09048 -1.2529 0
M  V30 10977 O 1002.3 1.12594 -1.54037 0
M  V30 10978 C 999.438 1.64601 -3.03316 0
M  V30 10979 C 998.551 1.08635 -4.18118 0
M  V30 10980 C 997.686 2.19605 -4.83681 0
M  V30 10981 C 996.725 1.61023 -5.90541 0
M  V30 10982 N 995.862 2.6576 -6.49858 0
M  V30 10983 H 1000.7 -0.112621 -2.97787 0
M  V30 10984 H 998.239 -0.0673503 -1.46946 0
M  V30 10985 H 1000.2 2.31836 -3.46854 0
M  V30 10986 H 998.827 2.23364 -2.33041 0
M  V30 10987 H 997.879 0.304748 -3.79177 0
M  V30 10988 H 999.191 0.617911 -4.94958 0
M  V30 10989 H 998.345 2.94693 -5.30322 0
M  V30 10990 H 997.084 2.69795 -4.06278 0
M  V30 10991 H 996.089 0.844428 -5.43277 0
M  V30 10992 H 997.314 1.11677 -6.69855 0
M  V30 10993 H 995.26 3.15193 -5.75317 0
M  V30 10994 H 995.177 2.23557 -7.2219 0
M  V30 10995 H 996.445 3.40598 -7.01151 0
M  V30 10996 N 1000.67 1.57404 -0.0785433 0
M  V30 10997 C 1001.92 1.94031 0.589896 0
M  V30 10998 C 1002.25 0.959297 1.68852 0
M  V30 10999 O 1001.53 -0.0103978 1.94497 0
M  V30 11000 C 1001.81 3.40886 1.16055 0
M  V30 11001 C 1001.66 4.49748 0.0681072 0
M  V30 11002 C 1002.98 3.88699 2.06401 0
M  V30 11003 H 1000.1 0.70556 0.212965 0
M  V30 11004 H 1002.74 1.89439 -0.145886 0
M  V30 11005 H 1000.89 3.4493 1.78761 0
M  V30 11006 H 1002.57 4.57823 -0.565318 0
M  V30 11007 H 1000.81 4.29625 -0.600431 0
M  V30 11008 H 1001.48 5.49658 0.507906 0
M  V30 11009 H 1003.96 3.86703 1.53622 0
M  V30 11010 H 1002.83 4.92052 2.43261 0
M  V30 11011 H 1003.09 3.2703 2.97496 0
M  V30 11012 N 1002.15 -0.195058 1.56388 0
M  V30 11013 C 1003.56 -0.75973 1.70543 0
M  V30 11014 C 1003.91 -1.83849 0.685118 0
M  V30 11015 O 1003.04 -2.15819 -0.158457 0
M  V30 11016 C 1003.63 -1.38485 3.09204 0
M  V30 11017 C 1002.19 -1.89661 3.25124 0
M  V30 11018 C 1001.34 -0.766563 2.66494 0
M  V30 11019 H 1004.29 0.0300148 1.58672 0
M  V30 11020 H 1004.31 -2.25424 3.06536 0
M  V30 11021 H 1003.82 -0.599479 3.83442 0
M  V30 11022 H 1001.92 -2.70917 2.55802 0
M  V30 11023 H 1002.04 -2.05837 4.32629 0
M  V30 11024 H 1000.4 -1.18086 2.25672 0
M  V30 11025 H 1001.18 0.00657102 3.43299 0
M  V30 11026 N 1003.63 -1.50653 -0.462772 0
M  V30 11027 C 1004.56 -1.73056 -1.5676 0
M  V30 11028 C 1005.54 -0.579699 -1.59917 0
M  V30 11029 O 1006.73 -0.819729 -1.76051 0
M  V30 11030 C 1003.86 -1.83234 -2.9503 0
M  V30 11031 C 1002.81 -2.98488 -3.06739 0
M  V30 11032 C 1002.14 -2.93818 -4.46738 0
M  V30 11033 C 1003.44 -4.38869 -2.83181 0
M  V30 11034 H 1005.13 -2.65562 -1.38265 0
M  V30 11035 H 1002.68 -1.27792 -0.663722 0
M  V30 11036 H 1004.63 -1.97491 -3.72257 0
M  V30 11037 H 1003.35 -0.873558 -3.14701 0
M  V30 11038 H 1002.01 -2.83895 -2.31946 0
M  V30 11039 H 1001.66 -1.95769 -4.63339 0
M  V30 11040 H 1001.36 -3.71197 -4.55507 0
M  V30 11041 H 1002.88 -3.10135 -5.25974 0
M  V30 11042 H 1004.3 -4.53945 -3.50153 0
M  V30 11043 H 1002.69 -5.17762 -3.03386 0
M  V30 11044 H 1003.76 -4.50663 -1.78972 0
M  V30 11045 N 1005.11 0.71652 -1.4037 0
M  V30 11046 C 1006.35 1.47857 -1.38803 0
M  V30 11047 C 1006.69 1.94197 0.0100536 0
M  V30 11048 O 1005.96 1.68093 0.978521 0
M  V30 11049 C 1006.25 2.7053 -2.37667 0
M  V30 11050 C 1006.1 2.3009 -3.86496 0
M  V30 11051 C 1007.42 3.72684 -2.34082 0
M  V30 11052 H 1004.54 0.53632 -0.505499 0
M  V30 11053 H 1007.18 0.817824 -1.71498 0
M  V30 11054 H 1005.33 3.26906 -2.09916 0
M  V30 11055 H 1007 1.79202 -4.2507 0
M  V30 11056 H 1005.24 1.62102 -4.02375 0
M  V30 11057 H 1005.91 3.18018 -4.51186 0
M  V30 11058 H 1008.39 3.25935 -2.58661 0
M  V30 11059 H 1007.27 4.56157 -3.05306 0
M  V30 11060 H 1007.53 4.20916 -1.35213 0
M  V30 11061 N 1006.59 1.25851 0.948643 0
M  V30 11062 C 1007.52 1.02549 2.04979 0
M  V30 11063 C 1008.53 -0.0115923 1.62796 0
M  V30 11064 O 1009.72 0.227643 1.77042 0
M  V30 11065 C 1006.82 0.529486 3.34738 0
M  V30 11066 C 1005.99 1.6341 4.05729 0
M  V30 11067 C 1005.05 1.13743 5.1376 0
M  V30 11068 O 1004.08 1.83303 5.38877 0
M  V30 11069 N 1005.28 -0.0181151 5.80497 0
M  V30 11070 H 1008.05 1.97365 2.25537 0
M  V30 11071 H 1005.61 1.17137 1.11761 0
M  V30 11072 H 1007.6 0.181566 4.04293 0
M  V30 11073 H 1006.17 -0.324893 3.10907 0
M  V30 11074 H 1005.39 2.15331 3.30191 0
M  V30 11075 H 1006.68 2.37603 4.49914 0
M  V30 11076 H 1006.07 -0.599198 5.62518 0
M  V30 11077 H 1004.63 -0.307019 6.51077 0
M  V30 11078 N 1008.06 -1.15214 1.07534 0
M  V30 11079 C 1009.48 -1.38031 0.801228 0
M  V30 11080 C 1009.68 -1.92556 -0.593672 0
M  V30 11081 O 1008.74 -2.1325 -1.35206 0
M  V30 11082 C 1010.05 -2.34958 1.87657 0
M  V30 11083 C 1011.6 -2.48617 1.90154 0
M  V30 11084 C 1012.07 -3.48837 2.96777 0
M  V30 11085 N 1013.56 -3.56374 2.95892 0
M  V30 11086 C 1014.3 -4.33746 3.75036 0
M  V30 11087 N 1013.79 -5.14435 4.64036 0
M  V30 11088 N 1015.59 -4.28853 3.63375 0
M  V30 11089 H 1007.74 -0.781639 1.97495 0
M  V30 11090 H 1010 -0.406243 0.856546 0
M  V30 11091 H 1009.71 -2.02013 2.87895 0
M  V30 11092 H 1009.58 -3.3476 1.73827 0
M  V30 11093 H 1011.97 -2.80859 0.905666 0
M  V30 11094 H 1012.05 -1.48808 2.08062 0
M  V30 11095 H 1011.69 -3.1733 3.96565 0
M  V30 11096 H 1011.62 -4.48406 2.76116 0
M  V30 11097 H 1014.11 -2.98784 2.31379 0
M  V30 11098 H 1014.43 -5.70722 5.21053 0
M  V30 11099 H 1012.77 -5.13734 4.68084 0
M  V30 11100 H 1015.96 -3.64882 2.93221 0
M  V30 11101 H 1016.14 -4.88903 4.25298 0
M  V30 11102 N 1009.54 -0.859717 -1.32086 0
M  V30 11103 C 1010.79 -0.464662 -1.96686 0
M  V30 11104 C 1011.11 0.98412 -1.68345 0
M  V30 11105 O 1010.38 1.68847 -0.993361 0
M  V30 11106 H 1008.96 -0.168838 -0.727669 0
M  V30 11107 H 1011.62 -1.09726 -1.61079 0
M  V30 11108 H 1010.72 -0.613904 -3.06003 0
M  V30 11109 N 1011.02 1.44971 -0.618145 0
M  V30 11110 C 1012.25 2.07039 -0.122395 0
M  V30 11111 C 1012.67 1.45793 1.18853 0
M  V30 11112 O 1012.03 0.55453 1.72611 0
M  V30 11113 C 1012.08 3.60599 -0.0073864 0
M  V30 11114 O 1011.18 3.99069 1.04007 0
M  V30 11115 H 1010.52 0.6593 -0.0788615 0
M  V30 11116 H 1013.05 1.86055 -0.851147 0
M  V30 11117 H 1013.06 4.07569 0.187417 0
M  V30 11118 H 1011.74 4.04561 -0.964544 0
M  V30 11119 H 1010.31 3.63753 0.820879 0
M  V30 11120 N 1012.5 0.357919 1.53482 0
M  V30 11121 C 1013.46 -0.479797 2.24122 0
M  V30 11122 C 1014.46 -1.01596 1.24639 0
M  V30 11123 O 1015.65 -0.902928 1.48973 0
M  V30 11124 C 1012.78 -1.66983 2.97203 0
M  V30 11125 H 1013.98 0.138219 2.99581 0
M  V30 11126 H 1011.53 0.109484 1.55916 0
M  V30 11127 H 1012.26 -2.32615 2.25966 0
M  V30 11128 H 1012.05 -1.29242 3.70188 0
M  V30 11129 H 1013.54 -2.26367 3.50924 0
M  V30 11130 N 1013.98 -1.5736 0.0868897 0
M  V30 11131 C 1014.92 -2.14793 -0.892571 0
M  V30 11132 C 1015.92 -1.08866 -1.29787 0
M  V30 11133 O 1017.12 -1.27223 -1.27335 0
M  V30 11134 H 1013.5 -0.686998 -0.305838 0
M  V30 11135 H 1015.47 -2.95927 -0.383393 0
M  V30 11136 C 1014.22 -2.73646 -2.14507 0
M  V30 11137 H 1013.54 -3.54835 -1.84207 0
M  V30 11138 H 1014.98 -3.17409 -2.81118 0
M  V30 11139 C 1013.44 -1.69138 -2.91366 0
M  V30 11140 O 1013.97 -1.12539 -3.85614 0
M  V30 11141 N 1012.18 -1.3982 -2.54752 0
M  V30 11142 H 1011.72 -1.86035 -1.78182 0
M  V30 11143 H 1011.68 -0.701316 -3.06478 0
M  V30 11144 N 1015.45 0.186762 -1.56489 0
M  V30 11145 C 1016.7 0.904063 -1.80752 0
M  V30 11146 C 1017.02 1.83443 -0.661343 0
M  V30 11147 O 1016.29 1.93272 0.319811 0
M  V30 11148 H 1014.87 0.336828 -0.66675 0
M  V30 11149 H 1017.54 0.190275 -1.93969 0
M  V30 11150 H 1016.63 1.49021 -2.74225 0
M  V30 11151 N 1016.93 1.50896 0.454776 0
M  V30 11152 C 1017.86 1.73885 1.5584 0
M  V30 11153 C 1018.84 0.588172 1.59607 0
M  V30 11154 O 1020.03 0.829054 1.75614 0
M  V30 11155 C 1017.16 1.84796 2.94054 0
M  V30 11156 C 1016.11 3.00111 3.05152 0
M  V30 11157 C 1015.44 2.96183 4.45174 0
M  V30 11158 C 1016.74 4.40365 2.80849 0
M  V30 11159 H 1018.43 2.66292 1.36854 0
M  V30 11160 H 1015.98 1.28142 0.656936 0
M  V30 11161 H 1017.93 1.99462 3.71204 0
M  V30 11162 H 1016.66 0.890235 3.14233 0
M  V30 11163 H 1015.31 2.85121 2.30438 0
M  V30 11164 H 1014.96 1.98224 4.62295 0
M  V30 11165 H 1014.66 3.73608 4.53532 0
M  V30 11166 H 1016.19 3.1292 5.24322 0
M  V30 11167 H 1017.6 4.55795 3.47741 0
M  V30 11168 H 1016 5.19363 3.00636 0
M  V30 11169 H 1017.07 4.51606 1.76579 0
M  V30 11170 O 1018.45 -0.600431 1.49924 0
M  V30 11171 H 1019.14 -1.25514 1.47533 0
M  V30 END ATOM
M  V30 BEGIN BOND
M  V30 END BOND
M  V30 END CTAB
M  END
$$$$
