drugbank_target|P25024 C-X-C chemokine receptor type 1 (DB01009)
 OpenBabel12092120343D

  0  0  0     0  0            999 V3000
M  V30 BEGIN CTAB
M  V30 COUNTS 5677 5747 0 0 0
M  V30 BEGIN ATOM
M  V30 1 H -0.908 1.98254 -0.117106 0
M  V30 2 N 0 1.576 0 0
M  V30 3 C 0.933 2.03868 1.02534 0
M  V30 4 C 1.911 0.928543 1.3348 0
M  V30 5 O 3.095 1.19667 1.45644 0
M  V30 6 C 0.222 2.43627 2.35294 0
M  V30 7 C -0.732 3.65373 2.2001 0
M  V30 8 S 0.101 5.13292 1.52614 0
M  V30 9 C 1.257 5.56322 2.86805 0
M  V30 10 H 1.49 2.90518 0.631377 0
M  V30 11 H -0.977 1.52953 0.210867 0
M  V30 12 H 0.981 2.67203 3.11629 0
M  V30 13 H -0.358 1.57376 2.7183 0
M  V30 14 H -1.165 3.90944 3.18086 0
M  V30 15 H -1.563 3.418 1.51819 0
M  V30 16 H 0.729 5.58782 3.83104 0
M  V30 17 H 1.672 6.56266 2.65933 0
M  V30 18 H 2.08 4.83886 2.90714 0
M  V30 19 N 1.4781 -0.272755 1.55222 0
M  V30 20 C 2.7031 -1.02683 1.80197 0
M  V30 21 C 3.1281 -1.79142 0.573551 0
M  V30 22 O 2.4861 -1.74917 -0.476849 0
M  V30 23 C 2.5341 -1.9609 3.02624 0
M  V30 24 O 1.6381 -3.04863 2.77727 0
M  V30 25 H 0.9791 -0.293557 0.595584 0
M  V30 26 H 3.5091 -0.30159 2.02365 0
M  V30 27 H 3.5191 -2.38039 3.31363 0
M  V30 28 H 2.1941 -1.39851 3.91682 0
M  V30 29 H 0.7711 -2.67228 2.60084 0
M  V30 30 N 2.9562 -1.48159 -0.537278 0
M  V30 31 C 3.9042 -1.62573 -1.66352 0
M  V30 32 C 4.8982 -0.492366 -1.62087 0
M  V30 33 O 6.1042 -0.670847 -1.67032 0
M  V30 34 H 2.4792 -0.511992 -0.550789 0
M  V30 35 H 4.4502 -2.57176 -1.51337 0
M  V30 36 C 3.1992 -1.67583 -3.04649 0
M  V30 37 H 2.5222 -2.54151 -3.08622 0
M  V30 38 H 3.9622 -1.81713 -3.83088 0
M  V30 39 C 2.4212 -0.413039 -3.34358 0
M  V30 40 O 2.9512 0.477259 -3.98855 0
M  V30 41 N 1.1572 -0.286961 -2.8918 0
M  V30 42 H 0.7042 -1.01241 -2.36871 0
M  V30 43 H 0.6622 0.556963 -3.09427 0
M  V30 44 N 4.4343 0.785586 -1.36625 0
M  V30 45 C 5.6833 1.53883 -1.30396 0
M  V30 46 C 5.9963 1.95271 0.113452 0
M  V30 47 O 7.2023 2.69858 0.298142 0
M  V30 48 C 5.6583 2.77808 -2.28802 0
M  V30 49 C 5.2663 2.43574 -3.75999 0
M  V30 50 C 7.0103 3.55783 -2.31558 0
M  V30 51 C 4.9173 3.63919 -4.66173 0
M  V30 52 H 3.8473 0.577678 -0.484566 0
M  V30 53 H 6.4983 0.861705 -1.62009 0
M  V30 54 H 4.8803 3.47339 -1.90188 0
M  V30 55 H 6.0543 1.81916 -4.23371 0
M  V30 56 H 4.3693 1.78803 -3.76056 0
M  V30 57 H 6.9663 4.45205 -2.96137 0
M  V30 58 H 7.3093 3.94644 -1.3252 0
M  V30 59 H 7.8423 2.93235 -2.68809 0
M  V30 60 H 4.5813 3.3015 -5.66287 0
M  V30 61 H 4.1013 4.2473 -4.23515 0
M  V30 62 H 5.7803 4.30901 -4.82632 0
M  V30 63 N 5.9124 1.20967 1.01018 0
M  V30 64 C 7.1404 1.04956 1.78303 0
M  V30 65 C 7.5554 -0.400915 1.84494 0
M  V30 66 O 6.9124 -1.27826 1.30257 0
M  V30 67 C 6.9634 1.63403 3.22462 0
M  V30 68 O 6.6844 3.02775 3.16637 0
M  V30 69 C 8.1854 1.52432 4.16268 0
M  V30 70 H 5.4054 0.368858 0.560522 0
M  V30 71 H 7.9494 1.60193 1.27116 0
M  V30 72 H 6.1044 1.1227 3.70775 0
M  V30 73 H 6.5184 3.30626 4.07169 0
M  V30 74 H 7.9924 1.98078 5.15237 0
M  V30 75 H 8.4694 0.477875 4.36592 0
M  V30 76 H 9.0754 2.02787 3.73841 0
M  V30 77 N 7.3905 -1.2043 1.01659 0
M  V30 78 C 8.6675 -1.8548 0.621004 0
M  V30 79 C 9.0475 -1.9091 -0.900919 0
M  V30 80 O 8.3955 -1.41694 -1.79263 0
M  V30 81 C 8.6055 -3.25119 1.2688 0
M  V30 82 C 9.9535 -4.01403 1.38423 0
M  V30 83 O 10.9775 -3.34473 1.22501 0
M  V30 84 O 9.8365 -5.21265 1.64151 0
M  V30 85 H 6.9305 -0.798761 0.214266 0
M  V30 86 H 9.4765 -1.28019 1.11396 0
M  V30 87 H 8.2485 -3.15932 2.30873 0
M  V30 88 H 7.8715 -3.90212 0.762917 0
M  V30 89 N 8.8686 -0.792821 -1.36206 0
M  V30 90 C 10.2796 -0.429513 -1.81692 0
M  V30 91 C 10.6306 1.04695 -1.65932 0
M  V30 92 O 9.7556 1.81256 -1.18218 0
M  V30 93 C 10.3506 -0.772831 -3.29868 0
M  V30 94 C 8.9096 -0.462307 -3.7355 0
M  V30 95 C 8.0566 -1.00569 -2.5842 0
M  V30 96 H 11.0076 -0.985672 -1.24379 0
M  V30 97 H 11.0286 -0.0651928 -3.80444 0
M  V30 98 H 10.5406 -1.84747 -3.41307 0
M  V30 99 H 8.6416 0.604158 -3.67669 0
M  V30 100 H 8.7546 -0.985299 -4.68859 0
M  V30 101 H 7.1186 -0.428734 -2.51066 0
M  V30 102 H 7.9016 -2.08616 -2.72643 0
M  V30 103 N 10.3467 1.47872 -0.545128 0
M  V30 104 C 11.2787 2.27869 0.246621 0
M  V30 105 C 12.2917 1.36282 0.890561 0
M  V30 106 O 13.4807 1.61207 0.766449 0
M  V30 107 C 10.5807 3.10159 1.36582 0
M  V30 108 C 9.7537 4.29627 0.820954 0
M  V30 109 C 8.8127 4.93607 1.82314 0
M  V30 110 O 7.8387 5.52366 1.37406 0
M  V30 111 N 9.0407 4.87211 3.15603 0
M  V30 112 H 11.8057 2.96459 -0.439539 0
M  V30 113 H 9.3667 1.57367 -0.380421 0
M  V30 114 H 11.3587 3.49829 2.03474 0
M  V30 115 H 9.9287 2.43891 1.9554 0
M  V30 116 H 9.1487 3.94192 -0.0244032 0
M  V30 117 H 10.4367 5.06928 0.436063 0
M  V30 118 H 9.8347 4.40651 3.54744 0
M  V30 119 H 8.3917 5.30937 3.78087 0
M  V30 120 N 11.8248 0.280983 1.55075 0
M  V30 121 C 12.7578 -0.645439 2.18882 0
M  V30 122 C 13.7358 -1.14786 1.15165 0
M  V30 123 O 14.9198 -1.21975 1.43716 0
M  V30 124 C 12.0468 -1.88088 2.81674 0
M  V30 125 C 11.0928 -1.51343 3.98745 0
M  V30 126 S 11.9258 -0.586548 5.32278 0
M  V30 127 C 13.0818 -1.83024 5.98543 0
M  V30 128 H 13.3148 -0.1033 2.9712 0
M  V30 129 H 10.8478 0.0652099 1.54262 0
M  V30 130 H 12.8058 -2.58997 3.18482 0
M  V30 131 H 11.4668 -2.39417 2.03318 0
M  V30 132 H 10.6598 -2.43289 4.41392 0
M  V30 133 H 10.2618 -0.884477 3.63391 0
M  V30 134 H 12.5538 -2.77342 6.18133 0
M  V30 135 H 13.4968 -1.44668 6.93164 0
M  V30 136 H 13.9048 -1.99785 5.27964 0
M  V30 137 N 13.3029 -1.57598 0.00835791 0
M  V30 138 C 14.5489 -1.92046 -0.670055 0
M  V30 139 C 14.9039 -0.88351 -1.70915 0
M  V30 140 O 14.1969 0.103223 -1.91322 0
M  V30 141 C 14.3909 -3.3101 -1.34787 0
M  V30 142 C 14.2199 -4.48126 -0.375945 0
M  V30 143 C 12.9899 -5.05297 0.0166914 0
M  V30 144 C 15.1879 -5.1303 0.361272 0
M  V30 145 N 13.1699 -6.05931 0.985952 0
M  V30 146 C 14.5409 -6.08571 1.18495 0
M  V30 147 C 16.5959 -4.9609 0.42421 0
M  V30 148 C 15.2989 -6.88996 2.06584 0
M  V30 149 C 17.3249 -5.77107 1.29236 0
M  V30 150 C 16.6869 -6.72248 2.10386 0
M  V30 151 H 12.7859 -0.75096 -0.218136 0
M  V30 152 H 15.3699 -1.94572 0.0706669 0
M  V30 153 H 13.5409 -3.29342 -2.05884 0
M  V30 154 H 15.2729 -3.52864 -1.98164 0
M  V30 155 H 12.0279 -4.72279 -0.353435 0
M  V30 156 H 12.4519 -6.60932 1.4662 0
M  V30 157 H 17.0939 -4.22378 -0.188915 0
M  V30 158 H 14.8119 -7.62028 2.6896 0
M  V30 159 H 18.3979 -5.66038 1.34508 0
M  V30 160 H 17.2779 -7.33846 2.76476 0
M  V30 161 N 14.781 0.264519 -1.55364 0
M  V30 162 C 16.058 1.01677 -1.67096 0
M  V30 163 C 16.438 2.03996 -0.543015 0
M  V30 164 O 15.786 2.23907 0.45585 0
M  V30 165 C 15.996 1.66596 -3.0667 0
M  V30 166 C 17.344 2.17442 -3.64697 0
M  V30 167 O 18.368 1.76568 -3.09358 0
M  V30 168 O 17.227 2.92439 -4.61673 0
M  V30 169 H 14.321 0.472161 -0.678965 0
M  V30 170 H 16.867 0.259703 -1.67701 0
M  V30 171 H 15.639 0.924962 -3.80211 0
M  V30 172 H 15.262 2.48968 -3.10001 0
M  V30 173 N 16.2591 1.48442 0.529413 0
M  V30 174 C 17.5061 1.56488 1.28521 0
M  V30 175 C 17.8341 0.239042 1.93025 0
M  V30 176 O 17.0891 -0.770713 1.79885 0
M  V30 177 C 17.3881 2.6523 2.39558 0
M  V30 178 C 17.0541 4.07648 1.92702 0
M  V30 179 C 15.7161 4.46411 1.79641 0
M  V30 180 C 18.0681 4.96896 1.573 0
M  V30 181 C 15.3961 5.72226 1.29514 0
M  V30 182 C 17.7481 6.23202 1.08636 0
M  V30 183 C 16.4121 6.60821 0.941919 0
M  V30 184 H 15.6821 0.572631 0.470292 0
M  V30 185 H 18.3291 1.82161 0.59072 0
M  V30 186 H 16.6341 2.33419 3.14679 0
M  V30 187 H 18.3311 2.68671 2.97686 0
M  V30 188 H 14.9211 3.77036 2.03819 0
M  V30 189 H 19.1051 4.67626 1.66251 0
M  V30 190 H 14.3611 6.00097 1.17019 0
M  V30 191 H 18.5351 6.91753 0.803136 0
M  V30 192 H 16.1621 7.58198 0.5513 0
M  V30 193 N 17.7372 -0.778329 1.37039 0
M  V30 194 C 19.0142 -1.52551 1.22424 0
M  V30 195 C 19.3942 -2.10288 -0.184964 0
M  V30 196 O 18.7422 -1.94953 -1.19187 0
M  V30 197 C 18.9522 -2.61164 2.31504 0
M  V30 198 C 20.3002 -3.28746 2.68721 0
M  V30 199 O 21.3242 -2.71455 2.30631 0
M  V30 200 O 20.1832 -4.3231 3.3432 0
M  V30 201 H 17.2772 -0.675343 0.477326 0
M  V30 202 H 19.8232 -0.815859 1.48801 0
M  V30 203 H 18.5952 -2.16574 3.25901 0
M  V30 204 H 18.2182 -3.39737 2.06554 0
M  V30 205 N 19.2153 -1.21501 -1.00376 0
M  V30 206 C 20.4923 -0.941745 -1.71437 0
M  V30 207 C 20.8723 0.546114 -2.03914 0
M  V30 208 O 20.2203 1.51128 -1.71384 0
M  V30 209 C 20.4303 -1.82812 -2.97289 0
M  V30 210 C 21.7783 -2.07771 -3.70292 0
M  V30 211 O 22.8023 -1.80171 -3.07273 0
M  V30 212 O 21.6613 -2.54456 -4.83647 0
M  V30 213 H 18.7553 -0.353243 -0.747762 0
M  V30 214 H 21.3013 -1.32436 -1.06108 0
M  V30 215 H 20.0733 -2.83501 -2.69709 0
M  V30 216 H 19.6963 -1.4464 -3.70358 0
M  V30 217 N 20.6934 1.19889 -1.02296 0
M  V30 218 C 21.6234 2.25141 -0.619174 0
M  V30 219 C 22.6044 1.66051 0.368915 0
M  V30 220 O 23.7894 1.92546 0.252941 0
M  V30 221 C 20.9194 3.4728 0.0368783 0
M  V30 222 C 19.8734 4.19005 -0.872865 0
M  V30 223 C 19.1994 5.34637 -0.0822402 0
M  V30 224 C 20.4994 4.74452 -2.18387 0
M  V30 225 H 22.1934 2.59171 -1.49903 0
M  V30 226 H 19.7394 1.24579 -0.722222 0
M  V30 227 H 21.6924 4.20098 0.330958 0
M  V30 228 H 20.4164 3.12433 0.95149 0
M  V30 229 H 19.0754 3.48061 -1.15105 0
M  V30 230 H 18.7234 4.96034 0.83422 0
M  V30 231 H 18.4234 5.83557 -0.688149 0
M  V30 232 H 19.9474 6.10255 0.205238 0
M  V30 233 H 21.3614 5.39055 -1.95172 0
M  V30 234 H 19.7584 5.33834 -2.74119 0
M  V30 235 H 20.8284 3.92844 -2.84257 0
M  V30 236 N 22.1715 0.800033 1.35784 0
M  V30 237 C 23.1195 0.193851 2.31791 0
M  V30 238 C 24.1135 -0.652744 1.56319 0
M  V30 239 O 25.3195 -0.546641 1.71499 0
M  V30 240 H 21.6945 0.04392 0.750716 0
M  V30 241 H 23.6655 1.01883 2.80468 0
M  V30 242 C 22.4145 -0.648338 3.41602 0
M  V30 243 H 21.7375 -0.00624665 3.998 0
M  V30 244 H 23.1775 -1.03898 4.11073 0
M  V30 245 C 21.6365 -1.8111 2.84079 0
M  V30 246 O 22.1665 -2.90825 2.77099 0
M  V30 247 N 20.3725 -1.62056 2.41218 0
M  V30 248 H 19.9195 -0.728123 2.47095 0
M  V30 249 H 19.8775 -2.40013 2.03079 0
M  V30 250 N 23.6496 -1.47581 0.552962 0
M  V30 251 C 24.8966 -2.02482 0.0273243 0
M  V30 252 C 25.2246 -1.42776 -1.32081 0
M  V30 253 O 24.4796 -0.571393 -1.87173 0
M  V30 254 C 24.7786 -3.57199 -0.119728 0
M  V30 255 C 24.4446 -4.35804 1.15697 0
M  V30 256 C 23.1066 -4.57 1.50681 0
M  V30 257 C 25.4586 -4.81167 2.00319 0
M  V30 258 C 22.7866 -5.20807 2.70142 0
M  V30 259 C 25.1386 -5.46293 3.18978 0
M  V30 260 C 23.8026 -5.65722 3.54281 0
M  V30 261 H 23.0726 -0.740933 0.00999866 0
M  V30 262 H 25.7196 -1.77302 0.72362 0
M  V30 263 H 24.0246 -3.81348 -0.89896 0
M  V30 264 H 25.7216 -3.97324 -0.541718 0
M  V30 265 H 22.3116 -4.19582 0.874561 0
M  V30 266 H 26.4956 -4.64574 1.74599 0
M  V30 267 H 21.7516 -5.34045 2.97668 0
M  V30 268 H 25.9256 -5.80407 3.84838 0
M  V30 269 H 23.5526 -6.14936 4.46942 0
M  V30 270 N 25.1277 -0.289203 -1.54924 0
M  V30 271 C 26.3557 0.326463 -2.04308 0
M  V30 272 C 26.7707 1.48413 -1.16701 0
M  V30 273 O 26.1277 1.81507 -0.190087 0
M  V30 274 C 26.1787 0.794014 -3.52672 0
M  V30 275 O 25.8997 -0.317564 -4.36948 0
M  V30 276 C 27.4007 1.47605 -4.18004 0
M  V30 277 H 24.6207 0.0726272 -0.667058 0
M  V30 278 H 27.1647 -0.425401 -2.00026 0
M  V30 279 H 25.3197 1.49593 -3.57352 0
M  V30 280 H 25.7337 0.0443186 -5.24481 0
M  V30 281 H 27.2077 1.75447 -5.23376 0
M  V30 282 H 27.6847 2.41224 -3.67025 0
M  V30 283 H 28.2907 0.81762 -4.17367 0
M  V30 284 N 26.6058 1.57591 -0.0167156 0
M  V30 285 C 27.8538 1.90906 0.663285 0
M  V30 286 C 28.1748 0.892509 1.73376 0
M  V30 287 O 27.4448 -0.0677623 1.95783 0
M  V30 288 H 26.0248 0.704637 0.247983 0
M  V30 289 H 28.6868 1.94803 -0.0615909 0
M  V30 290 H 27.7828 2.9116 1.12393 0
M  V30 291 N 28.0839 -0.256276 1.55502 0
M  V30 292 C 29.0169 -1.34321 1.84481 0
M  V30 293 C 29.9949 -1.46802 0.699131 0
M  V30 294 O 31.1789 -1.63165 0.943904 0
M  V30 295 C 28.3059 -2.71779 2.02123 0
M  V30 296 C 27.3519 -2.76496 3.24734 0
M  V30 297 S 28.1849 -2.3405 4.81644 0
M  V30 298 C 29.3409 -3.73452 5.02279 0
M  V30 299 H 29.5739 -1.09539 2.76385 0
M  V30 300 H 27.1069 -0.45678 1.47489 0
M  V30 301 H 29.0649 -3.50932 2.12972 0
M  V30 302 H 27.7259 -2.93803 1.11078 0
M  V30 303 H 26.9189 -3.77424 3.34016 0
M  V30 304 H 26.5209 -2.05379 3.12563 0
M  V30 305 H 28.8129 -4.6887 4.89047 0
M  V30 306 H 29.7559 -3.6911 6.04287 0
M  V30 307 H 30.1639 -3.6553 4.30172 0
M  V30 308 N 29.562 -1.4872 -0.521534 0
M  V30 309 C 30.973 -1.50607 -1.10337 0
M  V30 310 C 31.324 -0.280612 -1.94183 0
M  V30 311 O 30.449 0.611507 -2.0758 0
M  V30 312 C 31.044 -2.72903 -2.00772 0
M  V30 313 C 29.603 -2.77634 -2.54158 0
M  V30 314 C 28.75 -2.44241 -1.31307 0
M  V30 315 H 31.701 -1.55714 -0.306388 0
M  V30 316 H 31.722 -2.519 -2.85178 0
M  V30 317 H 31.234 -3.62077 -1.39721 0
M  V30 318 H 29.335 -1.92689 -3.18907 0
M  V30 319 H 29.448 -3.79283 -2.92714 0
M  V30 320 H 27.812 -1.95577 -1.63161 0
M  V30 321 H 28.595 -3.35666 -0.719943 0
M  V30 322 N 31.0401 0.771051 -1.3745 0
M  V30 323 C 32.4511 1.34737 -1.29239 0
M  V30 324 C 32.8021 1.96109 0.0596908 0
M  V30 325 O 31.9271 1.93865 0.961534 0
M  V30 326 C 32.5221 2.44973 -2.34037 0
M  V30 327 C 31.0811 2.98372 -2.29458 0
M  V30 328 C 30.2281 1.71595 -2.17831 0
M  V30 329 H 33.1791 0.571256 -1.48062 0
M  V30 330 H 33.2001 3.24471 -1.98744 0
M  V30 331 H 32.7121 2.00276 -3.32432 0
M  V30 332 H 30.8131 3.47443 -1.34589 0
M  V30 333 H 30.9261 3.53939 -3.229 0
M  V30 334 H 29.2901 1.94547 -1.64388 0
M  V30 335 H 30.0731 1.29001 -3.18141 0
M  V30 336 N 32.5182 1.22032 0.997298 0
M  V30 337 C 33.4812 0.987909 2.06816 0
M  V30 338 C 34.4812 -0.0440084 1.6074 0
M  V30 339 O 35.6712 0.194053 1.73116 0
M  V30 340 C 32.8032 0.49132 3.37341 0
M  V30 341 H 33.9962 1.93803 2.28868 0
M  V30 342 H 31.5492 1.03838 1.16822 0
M  V30 343 H 32.2842 -0.463364 3.20973 0
M  V30 344 H 32.0692 1.23575 3.72118 0
M  V30 345 H 33.5592 0.348824 4.16141 0
M  V30 346 N 33.9963 -1.19345 1.0293 0
M  V30 347 C 35.2733 -1.84811 0.640642 0
M  V30 348 C 35.6533 -1.91855 -0.88062 0
M  V30 349 O 35.0013 -1.43587 -1.7775 0
M  V30 350 C 35.2113 -3.23755 1.30321 0
M  V30 351 C 36.5593 -3.99912 1.42673 0
M  V30 352 O 37.5833 -3.33155 1.26041 0
M  V30 353 O 36.4423 -5.19494 1.6967 0
M  V30 354 H 33.5363 -0.796443 0.222726 0
M  V30 355 H 36.0823 -1.26831 1.12748 0
M  V30 356 H 34.8543 -3.13466 2.34211 0
M  V30 357 H 34.4773 -3.89381 0.804261 0
M  V30 358 N 35.4744 -0.807222 -1.35358 0
M  V30 359 C 36.3844 -0.219594 -2.3357 0
M  V30 360 C 37.4004 0.637734 -1.61892 0
M  V30 361 O 38.5764 0.549336 -1.93763 0
M  V30 362 C 35.6414 0.62158 -3.41083 0
M  V30 363 C 34.7024 -0.256315 -4.28534 0
M  V30 364 C 33.9354 0.544807 -5.30912 0
M  V30 365 O 34.1584 1.77944 -5.41934 0
M  V30 366 O 33.0924 -0.0646478 -6.01865 0
M  V30 367 H 36.9184 -1.03208 -2.85625 0
M  V30 368 H 34.5034 -0.569025 -1.38139 0
M  V30 369 H 36.3854 1.10067 -4.06772 0
M  V30 370 H 35.0604 1.41165 -2.91297 0
M  V30 371 H 33.9674 -0.782559 -3.65823 0
M  V30 372 H 35.3004 -1.01034 -4.81719 0
M  V30 373 N 36.9525 1.47285 -0.560781 0
M  V30 374 C 38.2295 1.9558 0.0277798 0
M  V30 375 C 38.6095 1.5034 1.48192 0
M  V30 376 O 37.9575 0.743882 2.16052 0
M  V30 377 C 38.1675 3.48789 -0.121418 0
M  V30 378 C 39.5155 4.24594 0.0220912 0
M  V30 379 O 40.5395 3.56166 -0.0491439 0
M  V30 380 O 39.3985 5.46217 0.175958 0
M  V30 381 H 36.4925 0.824663 0.0621342 0
M  V30 382 H 39.0385 1.5767 -0.627556 0
M  V30 383 H 37.8105 3.74533 -1.13316 0
M  V30 384 H 37.4335 3.93473 0.571366 0
M  V30 385 N 38.4306 0.297415 1.54768 0
M  V30 386 C 39.6606 -0.315165 2.04182 0
M  V30 387 C 40.0686 -1.4834 1.17439 0
M  V30 388 O 39.4116 -1.82695 0.191891 0
M  V30 389 C 39.4736 -0.837583 3.49607 0
M  V30 390 C 39.1376 0.204912 4.5654 0
M  V30 391 C 40.1346 1.03214 5.09552 0
M  V30 392 C 37.8196 0.345578 5.0111 0
M  V30 393 C 39.8136 1.986 6.05671 0
M  V30 394 C 37.5006 1.30289 5.97049 0
M  V30 395 C 38.4986 2.12159 6.49213 0
M  V30 396 O 38.1866 3.06268 7.43273 0
M  V30 397 H 37.9186 -0.0729646 0.672051 0
M  V30 398 H 40.4726 0.433907 2.00765 0
M  V30 399 H 38.7026 -1.63712 3.50336 0
M  V30 400 H 40.3916 -1.36566 3.82236 0
M  V30 401 H 41.1576 0.934312 4.75916 0
M  V30 402 H 37.0366 -0.28171 4.60138 0
M  V30 403 H 40.5806 2.62542 6.46311 0
M  V30 404 H 36.4776 1.40145 6.30103 0
M  V30 405 H 37.2456 3.01205 7.61064 0
M  V30 406 N 39.9087 -1.5758 0.0250728 0
M  V30 407 C 41.1337 -1.96337 -0.668317 0
M  V30 408 C 41.5587 -0.901314 -1.651 0
M  V30 409 O 40.9167 0.138187 -1.80773 0
M  V30 410 C 40.9647 -3.34191 -1.35457 0
M  V30 411 O 40.0687 -3.30269 -2.46974 0
M  V30 412 H 39.4097 -0.640281 -0.175887 0
M  V30 413 H 41.9397 -2.0442 0.0857224 0
M  V30 414 H 41.9497 -3.70331 -1.71228 0
M  V30 415 H 40.6247 -4.11036 -0.634218 0
M  V30 416 H 39.2017 -3.05841 -2.13344 0
M  V30 417 N 41.3868 0.248026 -1.55636 0
M  V30 418 C 42.7978 0.817177 -1.67866 0
M  V30 419 C 43.1488 1.86069 -0.622322 0
M  V30 420 O 42.2738 2.15157 0.231618 0
M  V30 421 C 42.8688 1.489 -3.04326 0
M  V30 422 C 41.4278 2.00587 -3.185 0
M  V30 423 C 40.5748 0.856573 -2.63739 0
M  V30 424 H 43.5258 0.0238579 -1.58682 0
M  V30 425 H 43.5468 2.35698 -2.98708 0
M  V30 426 H 43.0588 0.729279 -3.81186 0
M  V30 427 H 41.1598 2.79443 -2.4646 0
M  V30 428 H 41.2728 2.20402 -4.25393 0
M  V30 429 H 39.6368 1.25678 -2.21534 0
M  V30 430 H 40.4198 0.109953 -3.43124 0
M  V30 431 N 42.8649 1.48995 0.513639 0
M  V30 432 C 44.1049 1.59452 1.27885 0
M  V30 433 C 44.4689 0.269479 1.90099 0
M  V30 434 O 45.6699 0.249139 2.67643 0
M  V30 435 C 43.9409 2.71277 2.32688 0
M  V30 436 S 45.4999 3.01604 3.18717 0
M  V30 437 H 42.3179 0.562565 0.434789 0
M  V30 438 H 44.9199 1.86595 0.583301 0
M  V30 439 H 43.6239 3.66089 1.8549 0
M  V30 440 H 43.1549 2.46086 3.06929 0
M  V30 441 H 45.1699 2.42155 4.331 0
M  V30 442 N 44.343 -0.763751 1.37857 0
M  V30 443 C 45.276 -1.88486 1.28639 0
M  V30 444 C 46.254 -1.61757 0.165363 0
M  V30 445 O 47.438 -1.85391 0.340948 0
M  V30 446 C 44.565 -3.23884 0.990811 0
M  V30 447 C 43.611 -3.69514 2.12983 0
M  V30 448 S 44.444 -3.82244 3.75033 0
M  V30 449 C 45.6 -5.20477 3.47641 0
M  V30 450 H 45.833 -1.96017 2.23527 0
M  V30 451 H 43.366 -0.925684 1.23574 0
M  V30 452 H 45.324 -4.02081 0.827101 0
M  V30 453 H 43.985 -3.14044 0.0592832 0
M  V30 454 H 43.178 -4.67696 1.87821 0
M  V30 455 H 42.78 -2.98441 2.25408 0
M  V30 456 H 45.072 -6.05905 3.03125 0
M  V30 457 H 46.015 -5.50655 4.4518 0
M  V30 458 H 46.423 -4.88793 2.82385 0
M  V30 459 N 45.8211 -1.22559 -0.990812 0
M  V30 460 C 46.7511 -1.0218 -2.09956 0
M  V30 461 C 47.7321 0.0579394 -1.70001 0
M  V30 462 O 48.9171 -0.104684 -1.93918 0
M  V30 463 C 46.0471 -0.601023 -3.4206 0
M  V30 464 C 45.0011 -1.62694 -3.95872 0
M  V30 465 C 44.3271 -1.06193 -5.24049 0
M  V30 466 C 45.6271 -3.01743 -4.2632 0
M  V30 467 H 47.3211 -1.94916 -2.27262 0
M  V30 468 H 44.8671 -0.938566 -1.09211 0
M  V30 469 H 46.8201 -0.445561 -4.19038 0
M  V30 470 H 45.5441 0.362005 -3.24588 0
M  V30 471 H 44.2031 -1.77021 -3.21028 0
M  V30 472 H 43.8511 -0.0901903 -5.02919 0
M  V30 473 H 43.5511 -1.74732 -5.61019 0
M  V30 474 H 45.0751 -0.918092 -6.03658 0
M  V30 475 H 46.4891 -2.90777 -4.94087 0
M  V30 476 H 44.8861 -3.67425 -4.74467 0
M  V30 477 H 45.9561 -3.51518 -3.34011 0
M  V30 478 N 47.2992 1.18797 -1.03562 0
M  V30 479 C 48.2092 2.25913 -0.632505 0
M  V30 480 C 49.2252 1.70668 0.338882 0
M  V30 481 O 50.4012 2.00453 0.195076 0
M  V30 482 C 47.4662 3.467 0.00350942 0
M  V30 483 C 46.5272 4.17098 -1.01624 0
M  V30 484 C 45.7602 5.32119 -0.410478 0
M  V30 485 O 45.9832 5.64976 0.784725 0
M  V30 486 O 44.9172 5.9107 -1.13667 0
M  V30 487 H 48.7432 2.62648 -1.52478 0
M  V30 488 H 46.3282 1.25781 -0.806195 0
M  V30 489 H 48.2102 4.19878 0.35781 0
M  V30 490 H 46.8852 3.11798 0.869686 0
M  V30 491 H 45.7922 3.4601 -1.42224 0
M  V30 492 H 47.1252 4.55987 -1.85301 0
M  V30 493 N 48.7773 0.814389 1.34928 0
M  V30 494 C 50.0053 0.411136 2.02774 0
M  V30 495 C 50.4203 -0.980316 1.61354 0
M  V30 496 O 49.7773 -1.63299 0.814847 0
M  V30 497 C 49.8283 0.493865 3.58111 0
M  V30 498 O 49.5493 1.83047 3.98027 0
M  V30 499 C 51.0503 0.0844174 4.4322 0
M  V30 500 H 48.2703 0.166037 0.650133 0
M  V30 501 H 50.8143 1.10018 1.72384 0
M  V30 502 H 48.9693 -0.147006 3.87121 0
M  V30 503 H 49.3833 1.79872 4.92693 0
M  V30 504 H 50.8573 0.193404 5.51661 0
M  V30 505 H 51.3343 -0.97113 4.28329 0
M  V30 506 H 51.9403 0.69875 4.19521 0
M  V30 507 N 50.2554 -1.46986 0.568584 0
M  V30 508 C 51.1654 -2.33942 -0.17555 0
M  V30 509 C 52.1814 -1.48891 -0.90041 0
M  V30 510 O 53.3574 -1.81794 -0.86676 0
M  V30 511 C 50.4224 -3.25811 -1.18524 0
M  V30 512 C 49.4834 -4.26757 -0.466582 0
M  V30 513 C 48.7164 -5.14236 -1.42817 0
M  V30 514 O 48.9394 -5.04379 -2.66379 0
M  V30 515 O 47.8734 -5.94412 -0.946453 0
M  V30 516 H 51.6994 -2.98896 0.538036 0
M  V30 517 H 49.2844 -1.4573 0.329097 0
M  V30 518 H 51.1664 -3.82527 -1.76779 0
M  V30 519 H 49.8414 -2.63471 -1.88055 0
M  V30 520 H 48.7484 -3.73769 0.157451 0
M  V30 521 H 50.0814 -4.91843 0.187485 0
M  V30 522 N 51.7335 -0.305618 -1.54608 0
M  V30 523 C 52.9615 0.304775 -2.04643 0
M  V30 524 C 53.3765 1.47167 -1.18268 0
M  V30 525 O 52.7335 1.81296 -0.209328 0
M  V30 526 C 52.7845 0.756564 -3.53495 0
M  V30 527 O 52.5055 -0.36389 -4.36586 0
M  V30 528 C 54.0065 1.43163 -4.19546 0
M  V30 529 H 51.2265 0.0655481 -0.667791 0
M  V30 530 H 53.7705 -0.446592 -1.99564 0
M  V30 531 H 51.9255 1.45794 -3.58919 0
M  V30 532 H 52.3395 -0.0113121 -5.24499 0
M  V30 533 H 53.8135 1.69886 -5.25207 0
M  V30 534 H 54.2905 2.37318 -3.69563 0
M  V30 535 H 54.8965 0.773307 -4.18211 0
M  V30 536 N 53.2116 1.57565 -0.0334293 0
M  V30 537 C 54.1416 2.13511 0.945265 0
M  V30 538 C 55.1226 1.05231 1.33643 0
M  V30 539 O 56.3076 1.33084 1.41429 0
M  V30 540 C 53.4376 2.6657 2.22616 0
M  V30 541 C 52.3916 3.79676 1.97561 0
M  V30 542 C 51.7176 4.1918 3.31952 0
M  V30 543 C 53.0176 5.0557 1.31135 0
M  V30 544 H 54.7116 2.95538 0.479325 0
M  V30 545 H 52.2576 1.42166 0.229115 0
M  V30 546 H 54.2106 3.04344 2.91466 0
M  V30 547 H 52.9346 1.8171 2.71384 0
M  V30 548 H 51.5936 3.42347 1.31127 0
M  V30 549 H 51.2416 3.31296 3.78487 0
M  V30 550 H 50.9416 4.95402 3.15992 0
M  V30 551 H 52.4656 4.59541 4.02063 0
M  V30 552 H 53.8796 5.40903 1.89992 0
M  V30 553 H 52.2766 5.86818 1.25559 0
M  V30 554 H 53.3466 4.84062 0.284894 0
M  V30 555 N 54.6897 -0.239769 1.55765 0
M  V30 556 C 55.6377 -1.31668 1.91745 0
M  V30 557 C 56.6317 -1.49462 0.797338 0
M  V30 558 O 57.8377 -1.50852 0.982021 0
M  V30 559 H 54.2127 -0.441048 0.609082 0
M  V30 560 H 56.1837 -0.985923 2.81642 0
M  V30 561 C 54.9327 -2.66368 2.2348 0
M  V30 562 H 54.2557 -2.53478 3.09175 0
M  V30 563 H 55.6957 -3.40578 2.52553 0
M  V30 564 C 54.1547 -3.20002 1.05359 0
M  V30 565 O 54.6847 -4.00538 0.305261 0
M  V30 566 N 52.8907 -2.78126 0.842292 0
M  V30 567 H 52.4377 -2.12742 1.45253 0
M  V30 568 H 52.3957 -3.14354 0.053652 0
M  V30 569 N 56.1678 -1.49265 -0.50573 0
M  V30 570 C 57.1148 -1.65585 -1.6078 0
M  V30 571 C 58.0848 -0.497396 -1.58478 0
M  V30 572 O 59.2698 -0.72385 -1.76536 0
M  V30 573 C 56.4098 -1.72408 -2.98948 0
M  V30 574 C 55.5228 -2.99525 -3.11301 0
M  V30 575 C 54.6578 -2.97356 -4.40174 0
M  V30 576 C 53.6968 -4.19074 -4.46143 0
M  V30 577 N 52.8338 -4.14841 -5.66437 0
M  V30 578 H 57.6738 -2.59688 -1.46172 0
M  V30 579 H 55.2108 -1.28761 -0.711261 0
M  V30 580 H 57.1688 -1.74344 -3.79025 0
M  V30 581 H 55.7988 -0.817753 -3.1227 0
M  V30 582 H 54.8508 -3.07222 -2.24318 0
M  V30 583 H 56.1628 -3.89518 -3.11572 0
M  V30 584 H 55.3168 -2.97829 -5.28567 0
M  V30 585 H 54.0558 -2.05133 -4.42461 0
M  V30 586 H 53.0608 -4.1885 -3.56153 0
M  V30 587 H 54.2858 -5.12483 -4.45575 0
M  V30 588 H 52.2318 -3.25453 -5.69575 0
M  V30 589 H 52.1488 -4.98564 -5.68304 0
M  V30 590 H 53.4168 -4.1941 -6.57051 0
M  V30 591 N 57.6459 0.756429 -1.3826 0
M  V30 592 C 58.8759 1.54341 -1.3734 0
M  V30 593 C 59.2839 1.89159 0.0393917 0
M  V30 594 O 58.6269 1.5307 1.01565 0
M  V30 595 C 58.6889 2.87238 -2.16182 0
M  V30 596 C 58.3529 2.74973 -3.65019 0
M  V30 597 C 59.3499 2.44962 -4.58574 0
M  V30 598 C 57.0349 2.92515 -4.08338 0
M  V30 599 C 59.0289 2.32642 -5.93428 0
M  V30 600 C 56.7159 2.79815 -5.43274 0
M  V30 601 C 57.7139 2.49921 -6.35632 0
M  V30 602 O 57.4019 2.37275 -7.68086 0
M  V30 603 H 57.1339 0.484281 -0.471643 0
M  V30 604 H 59.6879 0.944152 -1.82414 0
M  V30 605 H 57.9179 3.49342 -1.65822 0
M  V30 606 H 59.6069 3.48731 -2.07705 0
M  V30 607 H 60.3729 2.31081 -4.26412 0
M  V30 608 H 56.2519 3.14781 -3.368 0
M  V30 609 H 59.7959 2.0923 -6.65484 0
M  V30 610 H 55.6929 2.93269 -5.75034 0
M  V30 611 H 56.4609 2.52509 -7.78577 0
M  V30 612 N 59.124 1.23083 0.984299 0
M  V30 613 C 60.37 1.06214 1.72761 0
M  V30 614 C 60.703 -0.400584 1.90024 0
M  V30 615 O 59.978 -1.29672 1.44967 0
M  V30 616 C 60.261 1.78375 3.12817 0
M  V30 617 C 60.114 3.32296 3.03149 0
M  V30 618 C 61.433 1.54309 4.12161 0
M  V30 619 H 58.552 0.387251 0.627061 0
M  V30 620 H 61.194 1.51536 1.14616 0
M  V30 621 H 59.344 1.39848 3.62457 0
M  V30 622 H 61.016 3.8032 2.61064 0
M  V30 623 H 59.259 3.6153 2.39747 0
M  V30 624 H 59.93 3.77972 4.02295 0
M  V30 625 H 62.406 1.87791 3.71314 0
M  V30 626 H 61.282 2.07281 5.08258 0
M  V30 627 H 61.543 0.477572 4.39513 0
M  V30 628 N 60.6021 -1.18246 1.0419 0
M  V30 629 C 61.8481 -1.88536 0.747122 0
M  V30 630 C 62.1811 -1.80223 -0.723409 0
M  V30 631 O 61.4561 -1.20337 -1.52804 0
M  V30 632 C 61.7391 -3.38968 1.21544 0
M  V30 633 C 61.5921 -3.56084 2.74816 0
M  V30 634 C 62.9111 -4.32648 0.806482 0
M  V30 635 H 60.0301 -0.684619 0.272883 0
M  V30 636 H 62.6721 -1.39113 1.29413 0
M  V30 637 H 60.8221 -3.8119 0.750081 0
M  V30 638 H 62.4941 -3.22946 3.29399 0
M  V30 639 H 60.7371 -2.98699 3.14582 0
M  V30 640 H 61.4081 -4.61639 3.02644 0
M  V30 641 H 63.8841 -3.98211 1.20695 0
M  V30 642 H 62.7601 -5.36462 1.1619 0
M  V30 643 H 63.0211 -4.41146 -0.29029 0
M  V30 644 N 62.0802 -0.821533 -1.34494 0
M  V30 645 C 63.3292 -0.405355 -1.97585 0
M  V30 646 C 63.6422 1.03677 -1.65863 0
M  V30 647 O 64.8482 1.55679 -2.22433 0
M  V30 648 C 63.3042 -0.673861 -3.53535 0
M  V30 649 C 62.9122 -2.12951 -3.94152 0
M  V30 650 C 64.6562 -0.32378 -4.23263 0
M  V30 651 C 62.5632 -2.34298 -5.43009 0
M  V30 652 H 61.4932 -0.147836 -0.739365 0
M  V30 653 H 64.1442 -1.00769 -1.53355 0
M  V30 654 H 62.5262 -0.00137554 -3.96 0
M  V30 655 H 63.7002 -2.84104 -3.62797 0
M  V30 656 H 62.0152 -2.44089 -3.37356 0
M  V30 657 H 64.6122 -0.461126 -5.32708 0
M  V30 658 H 64.9552 0.731586 -4.09821 0
M  V30 659 H 65.4882 -0.950786 -3.8627 0
M  V30 660 H 62.2272 -3.38335 -5.61435 0
M  V30 661 H 61.7472 -1.67687 -5.75883 0
M  V30 662 H 63.4262 -2.16588 -6.09671 0
M  V30 663 N 63.5583 1.46682 -0.576371 0
M  V30 664 C 64.8073 2.01619 -0.0572825 0
M  V30 665 C 65.1203 1.45417 1.30818 0
M  V30 666 O 66.3263 1.92133 1.91825 0
M  V30 667 C 64.7823 3.59863 -0.0518371 0
M  V30 668 C 64.3903 4.25059 -1.41523 0
M  V30 669 C 66.1343 4.2248 0.413639 0
M  V30 670 C 64.0413 5.75364 -1.36785 0
M  V30 671 H 62.9713 0.753794 -0.0176448 0
M  V30 672 H 65.6223 1.68481 -0.727076 0
M  V30 673 H 64.0043 3.90048 0.683994 0
M  V30 674 H 65.1783 4.06491 -2.17029 0
M  V30 675 H 63.4933 3.7451 -1.8202 0
M  V30 676 H 66.0903 5.3265 0.467779 0
M  V30 677 H 66.4333 3.90976 1.42982 0
M  V30 678 H 66.9663 3.96897 -0.267929 0
M  V30 679 H 63.7053 6.11518 -2.36063 0
M  V30 680 H 63.2253 5.96214 -0.654895 0
M  V30 681 H 64.9043 6.37955 -1.07805 0
M  V30 682 N 65.0364 0.313813 1.54444 0
M  V30 683 C 65.9994 -0.54379 2.22656 0
M  V30 684 C 66.9994 -1.05124 1.21678 0
M  V30 685 O 68.1894 -0.945225 1.46325 0
M  V30 686 C 65.3214 -1.75427 2.92298 0
M  V30 687 H 66.5144 0.0523599 2.99854 0
M  V30 688 H 64.0674 0.0647834 1.56166 0
M  V30 689 H 64.8024 -2.38991 2.19211 0
M  V30 690 H 64.5874 -1.39791 3.66334 0
M  V30 691 H 66.0774 -2.36325 3.44297 0
M  V30 692 N 66.5145 -1.57545 0.0417849 0
M  V30 693 C 67.7445 -1.96339 -0.642995 0
M  V30 694 C 68.1525 -0.917536 -1.65463 0
M  V30 695 O 67.4955 0.107747 -1.83384 0
M  V30 696 C 67.5575 -3.31333 -1.39494 0
M  V30 697 C 67.2215 -4.53796 -0.540204 0
M  V30 698 C 68.2185 -5.19553 0.189806 0
M  V30 699 C 65.9035 -5.0006 -0.473886 0
M  V30 700 C 67.8975 -6.29904 0.974674 0
M  V30 701 C 65.5845 -6.10289 0.314677 0
M  V30 702 C 66.5825 -6.75072 1.03765 0
M  V30 703 O 66.2705 -7.83183 1.81327 0
M  V30 704 H 66.0025 -0.651241 -0.181277 0
M  V30 705 H 68.5565 -2.05148 0.101665 0
M  V30 706 H 66.7865 -3.19052 -2.18502 0
M  V30 707 H 68.4755 -3.54942 -1.96904 0
M  V30 708 H 69.2415 -4.84774 0.147981 0
M  V30 709 H 65.1205 -4.49433 -1.0262 0
M  V30 710 H 68.6645 -6.80401 1.5395 0
M  V30 711 H 64.5615 -6.44506 0.358174 0
M  V30 712 H 65.3295 -7.99913 1.73438 0
M  V30 713 N 67.9926 0.231505 -1.5589 0
M  V30 714 C 68.9556 1.27028 -1.90779 0
M  V30 715 C 69.9556 1.40308 -0.785507 0
M  V30 716 O 71.1456 1.38744 -1.05336 0
M  V30 717 C 68.2776 2.64566 -2.14983 0
M  V30 718 H 69.4706 0.973017 -2.83677 0
M  V30 719 H 67.0236 0.471486 -1.49019 0
M  V30 720 H 67.7586 2.99406 -1.24604 0
M  V30 721 H 67.5436 2.56305 -2.96732 0
M  V30 722 H 69.0336 3.39543 -2.43105 0
M  V30 723 N 69.4707 1.49531 0.497807 0
M  V30 724 C 70.4007 1.6935 1.60757 0
M  V30 725 C 71.3817 0.542218 1.61227 0
M  V30 726 O 72.5667 0.778417 1.77917 0
M  V30 727 C 69.6967 1.76298 2.99226 0
M  V30 728 C 68.6507 2.91248 3.13622 0
M  V30 729 C 67.9767 2.83312 4.53474 0
M  V30 730 C 69.2767 4.3214 2.93346 0
M  V30 731 H 70.9707 2.62263 1.44425 0
M  V30 732 H 68.5167 1.26208 0.693367 0
M  V30 733 H 70.4697 1.88749 3.76765 0
M  V30 734 H 69.1937 0.799871 3.16654 0
M  V30 735 H 67.8527 2.78404 2.38509 0
M  V30 736 H 67.5007 1.84902 4.67782 0
M  V30 737 H 67.2007 3.60465 4.64046 0
M  V30 738 H 68.7247 2.97775 5.33069 0
M  V30 739 H 70.1387 4.45649 3.60652 0
M  V30 740 H 68.5357 5.1054 3.15387 0
M  V30 741 H 69.6057 4.46363 1.89441 0
M  V30 742 N 70.9488 -0.749086 1.3866 0
M  V30 743 C 72.1948 -1.51056 1.35314 0
M  V30 744 C 72.5278 -1.94121 -0.0553751 0
M  V30 745 O 71.8028 -1.65763 -1.01749 0
M  V30 746 C 72.0858 -2.76003 2.31288 0
M  V30 747 C 71.9388 -2.39047 3.8102 0
M  V30 748 C 73.2578 -3.78046 2.2532 0
M  V30 749 H 70.3768 -0.547972 0.492844 0
M  V30 750 H 73.0188 -0.857628 1.69543 0
M  V30 751 H 71.1688 -3.31716 2.02229 0
M  V30 752 H 72.8408 -1.89074 4.20771 0
M  V30 753 H 71.0838 -1.71449 3.98482 0
M  V30 754 H 71.7548 -3.28462 4.4364 0
M  V30 755 H 74.2308 -3.31884 2.50983 0
M  V30 756 H 73.1068 -4.63159 2.94576 0
M  V30 757 H 73.3678 -4.23957 1.25352 0
M  V30 758 N 72.4269 -1.23603 -0.977757 0
M  V30 759 C 73.6739 -1.06971 -1.71941 0
M  V30 760 C 74.0019 0.393009 -1.90488 0
M  V30 761 O 73.2569 1.30719 -1.4564 0
M  V30 762 C 73.5559 -1.7433 -3.11999 0
M  V30 763 C 73.2219 -3.24252 -3.13323 0
M  V30 764 C 71.8839 -3.65156 -3.13392 0
M  V30 765 C 74.2359 -4.20141 -3.08433 0
M  V30 766 C 71.5639 -5.00403 -3.0629 0
M  V30 767 C 73.9159 -5.55384 -3.02873 0
M  V30 768 C 72.5799 -5.95647 -3.01265 0
M  V30 769 H 71.8499 -0.391433 -0.629175 0
M  V30 770 H 74.4969 -1.53572 -1.14403 0
M  V30 771 H 72.8019 -1.20096 -3.7294 0
M  V30 772 H 74.4989 -1.58936 -3.68158 0
M  V30 773 H 71.0889 -2.91692 -3.14029 0
M  V30 774 H 75.2729 -3.89547 -3.07517 0
M  V30 775 H 70.5289 -5.3081 -3.03399 0
M  V30 776 H 74.7029 -6.29398 -2.98046 0
M  V30 777 H 72.3299 -7.0041 -2.95516 0
M  V30 778 N 73.905 1.17692 -1.04816 0
M  V30 779 C 74.835 2.23777 -0.666791 0
M  V30 780 C 75.816 1.66796 0.33361 0
M  V30 781 O 77.001 1.93039 0.212042 0
M  V30 782 C 74.131 3.47281 -0.0367933 0
M  V30 783 C 73.085 4.17059 -0.961546 0
M  V30 784 C 72.411 5.34342 -0.195626 0
M  V30 785 C 73.711 4.69713 -2.28402 0
M  V30 786 H 75.405 2.55933 -1.55367 0
M  V30 787 H 72.951 1.23019 -0.748484 0
M  V30 788 H 74.904 4.20706 0.241775 0
M  V30 789 H 73.628 3.14381 0.885004 0
M  V30 790 H 72.287 3.45541 -1.22462 0
M  V30 791 H 71.935 4.97692 0.728816 0
M  V30 792 H 71.635 5.81966 -0.811775 0
M  V30 793 H 73.159 6.10553 0.0757473 0
M  V30 794 H 74.573 5.34794 -2.06563 0
M  V30 795 H 72.97 5.279 -2.8538 0
M  V30 796 H 74.04 3.86726 -2.92525 0
M  V30 797 N 75.3831 0.828654 1.34056 0
M  V30 798 C 76.3131 0.269443 2.3194 0
M  V30 799 C 77.2941 -0.617247 1.58506 0
M  V30 800 O 78.4791 -0.542931 1.86456 0
M  V30 801 C 75.6091 -0.564793 3.42677 0
M  V30 802 C 74.5631 0.225241 4.27407 0
M  V30 803 C 73.8891 -0.7321 5.29664 0
M  V30 804 C 75.1891 1.43663 5.02154 0
M  V30 805 H 76.8831 1.08728 2.7896 0
M  V30 806 H 74.4291 0.524283 1.34117 0
M  V30 807 H 76.3821 -0.966233 4.10173 0
M  V30 808 H 75.1061 -1.41574 2.9432 0
M  V30 809 H 73.7651 0.608117 3.61521 0
M  V30 810 H 73.4131 -1.57916 4.77568 0
M  V30 811 H 73.1131 -0.20767 5.87233 0
M  V30 812 H 74.6371 -1.13128 6.00029 0
M  V30 813 H 76.0511 1.1089 5.62473 0
M  V30 814 H 74.4481 1.89711 5.69324 0
M  V30 815 H 75.5181 2.21181 4.31517 0
M  V30 816 N 76.8612 -1.46375 0.584142 0
M  V30 817 C 78.0862 -2.07268 0.0740405 0
M  V30 818 C 78.5112 -1.42979 -1.22223 0
M  V30 819 O 77.8692 -0.514092 -1.73859 0
M  V30 820 C 77.9172 -3.60518 -0.0767769 0
M  V30 821 O 77.0212 -3.96533 -1.13292 0
M  V30 822 H 76.3622 -0.660961 0.0634524 0
M  V30 823 H 78.8922 -1.87991 0.807492 0
M  V30 824 H 78.9022 -4.07021 -0.282489 0
M  V30 825 H 77.5772 -4.06702 0.86986 0
M  V30 826 H 76.1542 -3.61738 -0.905553 0
M  V30 827 N 78.3393 -0.321999 -1.54275 0
M  V30 828 C 79.2693 0.537411 -2.27231 0
M  V30 829 C 80.2503 1.12064 -1.27968 0
M  V30 830 O 81.4353 1.14606 -1.56777 0
M  V30 831 C 78.5653 1.69919 -3.02894 0
M  V30 832 C 77.5193 1.24534 -4.09482 0
M  V30 833 C 76.8453 2.49394 -4.72977 0
M  V30 834 C 78.1453 0.361335 -5.21049 0
M  V30 835 H 79.8393 -0.0711406 -2.99315 0
M  V30 836 H 77.3853 -0.0356555 -1.43956 0
M  V30 837 H 79.3383 2.30668 -3.52662 0
M  V30 838 H 78.0623 2.33431 -2.28424 0
M  V30 839 H 76.7213 0.660782 -3.60596 0
M  V30 840 H 76.3693 3.11265 -3.95124 0
M  V30 841 H 76.0693 2.19718 -5.44975 0
M  V30 842 H 77.5933 3.10908 -5.25517 0
M  V30 843 H 79.0073 0.875072 -5.66582 0
M  V30 844 H 77.4043 0.157428 -5.99893 0
M  V30 845 H 78.4743 -0.60822 -4.8107 0
M  V30 846 N 79.8174 1.5752 -0.0501392 0
M  V30 847 C 80.7474 2.14502 0.922566 0
M  V30 848 C 81.7284 1.06642 1.3252 0
M  V30 849 O 82.9134 1.34577 1.4001 0
M  V30 850 C 80.0434 2.68916 2.19776 0
M  V30 851 C 78.9974 3.8175 1.93523 0
M  V30 852 C 78.3234 4.22677 3.27487 0
M  V30 853 C 79.6234 5.06932 1.25765 0
M  V30 854 H 81.3174 2.9603 0.447952 0
M  V30 855 H 78.8634 1.42401 0.214024 0
M  V30 856 H 80.8164 3.07419 2.88222 0
M  V30 857 H 79.5404 1.84578 2.69441 0
M  V30 858 H 78.1994 3.43718 1.27489 0
M  V30 859 H 77.8474 3.35291 3.74952 0
M  V30 860 H 77.5474 4.98725 3.1072 0
M  V30 861 H 79.0714 4.63779 3.97166 0
M  V30 862 H 80.4854 5.42888 1.84244 0
M  V30 863 H 78.8824 5.88116 1.19328 0
M  V30 864 H 79.9524 4.84337 0.233536 0
M  V30 865 N 81.2955 -0.223234 1.56011 0
M  V30 866 C 82.5435 -0.946003 1.78592 0
M  V30 867 C 82.8645 -1.84936 0.618349 0
M  V30 868 O 82.1345 -1.92473 -0.364833 0
M  V30 869 H 80.7145 -0.352298 0.658707 0
M  V30 870 H 83.3765 -0.235494 1.93472 0
M  V30 871 H 82.4725 -1.55381 2.70672 0
M  V30 872 N 82.7736 -1.49793 -0.48987 0
M  V30 873 C 83.7216 -1.67783 -1.61095 0
M  V30 874 C 84.7156 -0.543683 -1.60438 0
M  V30 875 O 85.9216 -0.723647 -1.64813 0
M  V30 876 H 82.2966 -0.529255 -0.534222 0
M  V30 877 H 84.2676 -2.61861 -1.43078 0
M  V30 878 C 83.0166 -1.77191 -2.99164 0
M  V30 879 H 82.3396 -2.63841 -3.0038 0
M  V30 880 H 83.7796 -1.93809 -3.77113 0
M  V30 881 C 82.2386 -0.519203 -3.32875 0
M  V30 882 O 82.7686 0.350124 -4.00171 0
M  V30 883 N 80.9746 -0.378816 -2.8812 0
M  V30 884 H 80.5216 -1.08725 -2.33531 0
M  V30 885 H 80.4796 0.458239 -3.11043 0
M  V30 886 N 84.2517 0.741722 -1.39055 0
M  V30 887 C 85.4767 1.53607 -1.39354 0
M  V30 888 C 85.9017 1.88096 0.0116905 0
M  V30 889 O 85.2597 1.5143 0.996924 0
M  V30 890 C 85.3077 2.80441 -2.26682 0
M  V30 891 O 84.4117 3.76088 -1.69208 0
M  V30 892 H 83.7527 0.464142 -0.474835 0
M  V30 893 H 86.2827 0.915665 -1.82967 0
M  V30 894 H 86.2927 3.29246 -2.40959 0
M  V30 895 H 84.9677 2.5467 -3.2881 0
M  V30 896 H 83.5447 3.34833 -1.64138 0
M  V30 897 N 85.7298 1.2412 0.971189 0
M  V30 898 C 86.6598 1.05508 2.08304 0
M  V30 899 C 87.6408 -0.0308864 1.70072 0
M  V30 900 O 88.8258 0.135521 1.93727 0
M  V30 901 C 85.9558 0.655365 3.4106 0
M  V30 902 C 84.9098 1.68971 3.93234 0
M  V30 903 C 84.2358 1.14516 5.22293 0
M  V30 904 C 85.5358 3.08487 4.21465 0
M  V30 905 H 87.2298 1.98507 2.24132 0
M  V30 906 H 84.7758 0.955821 1.07704 0
M  V30 907 H 86.7288 0.51217 4.18276 0
M  V30 908 H 85.4528 -0.31032 3.25122 0
M  V30 909 H 84.1118 1.82106 3.18171 0
M  V30 910 H 83.7598 0.170189 5.02712 0
M  V30 911 H 83.4598 1.83635 5.58168 0
M  V30 912 H 84.9838 1.01401 6.02121 0
M  V30 913 H 86.3978 2.98601 4.89398 0
M  V30 914 H 84.7948 3.74926 4.68562 0
M  V30 915 H 85.8648 3.56787 3.28376 0
M  V30 916 N 87.2079 -1.17134 1.05439 0
M  V30 917 C 88.4539 -1.87733 0.767077 0
M  V30 918 C 88.7869 -1.8098 -0.704253 0
M  V30 919 O 88.0619 -1.21951 -1.5152 0
M  V30 920 C 88.3449 -3.37659 1.25133 0
M  V30 921 C 88.1979 -3.53149 2.78578 0
M  V30 922 C 89.5169 -4.31768 0.852324 0
M  V30 923 H 86.6359 -0.681687 0.280129 0
M  V30 924 H 89.2779 -1.37732 1.30881 0
M  V30 925 H 87.4279 -3.80373 0.790469 0
M  V30 926 H 89.0999 -3.19434 3.32806 0
M  V30 927 H 87.3429 -2.95345 3.17732 0
M  V30 928 H 88.0139 -4.58403 3.07523 0
M  V30 929 H 90.4899 -3.96909 1.24911 0
M  V30 930 H 89.3659 -5.35199 1.21873 0
M  V30 931 H 89.6269 -4.41429 -0.243485 0
M  V30 932 N 88.686 -0.835752 -1.33615 0
M  V30 933 C 89.619 -0.211815 -2.27215 0
M  V30 934 C 90.597 0.639249 -1.49507 0
M  V30 935 O 91.781 0.600193 -1.78689 0
M  V30 936 C 88.908 0.702893 -3.31326 0
M  V30 937 C 87.954 -0.0723049 -4.26439 0
M  V30 938 S 88.787 -1.42811 -5.16106 0
M  V30 939 C 89.943 -0.518613 -6.23748 0
M  V30 940 H 90.176 -1.00533 -2.79786 0
M  V30 941 H 87.709 -0.632336 -1.40858 0
M  V30 942 H 89.667 1.22505 -3.91794 0
M  V30 943 H 88.328 1.47004 -2.77576 0
M  V30 944 H 87.521 0.62359 -5.00127 0
M  V30 945 H 87.123 -0.525424 -3.70291 0
M  V30 946 H 89.415 0.284778 -6.76901 0
M  V30 947 H 90.358 -1.22556 -6.97413 0
M  V30 948 H 90.766 -0.101344 -5.64409 0
M  V30 949 N 90.1641 1.46063 -0.591896 0
M  V30 950 C 91.0941 2.33172 0.123673 0
M  V30 951 C 92.0751 1.45897 0.87453 0
M  V30 952 O 93.2601 1.74698 0.848181 0
M  V30 953 C 90.3901 3.28336 1.13194 0
M  V30 954 C 89.3441 4.25124 0.495324 0
M  V30 955 C 88.6701 5.09863 1.61071 0
M  V30 956 C 89.9701 5.19143 -0.573425 0
M  V30 957 H 91.6641 2.93252 -0.603646 0
M  V30 958 H 89.2101 1.41014 -0.291741 0
M  V30 959 H 91.1631 3.88137 1.64097 0
M  V30 960 H 89.8871 2.66383 1.88965 0
M  V30 961 H 88.5461 3.66599 0.00729452 0
M  V30 962 H 88.1941 4.44288 2.35832 0
M  V30 963 H 87.8941 5.75417 1.19035 0
M  V30 964 H 89.4181 5.72529 2.12233 0
M  V30 965 H 90.8321 5.73106 -0.1491 0
M  V30 966 H 89.2291 5.93089 -0.914636 0
M  V30 967 H 90.2991 4.62519 -1.45617 0
M  V30 968 N 91.6422 0.330177 1.54103 0
M  V30 969 C 92.8882 -0.270806 2.00984 0
M  V30 970 C 93.2212 -1.51265 1.21789 0
M  V30 971 O 92.4962 -1.92142 0.301927 0
M  V30 972 C 92.7792 -0.598339 3.55094 0
M  V30 973 C 92.6322 0.654674 4.4501 0
M  V30 974 C 93.9512 -1.41334 4.16789 0
M  V30 975 H 91.0702 -0.0969531 0.730595 0
M  V30 976 H 93.7122 0.448066 1.84641 0
M  V30 977 H 91.8622 -1.21078 3.69151 0
M  V30 978 H 93.5342 1.29285 4.42813 0
M  V30 979 H 91.7772 1.28224 4.14416 0
M  V30 980 H 92.4482 0.380944 5.50684 0
M  V30 981 H 94.9242 -0.895597 4.06347 0
M  V30 982 H 93.8002 -1.61127 5.24718 0
M  V30 983 H 94.0612 -2.41146 3.70541 0
M  V30 984 N 93.1203 -1.57491 0.0584922 0
M  V30 985 C 94.3693 -1.92155 -0.613146 0
M  V30 986 C 94.6823 -0.939334 -1.71569 0
M  V30 987 O 95.8883 -1.17829 -2.44599 0
M  V30 988 C 94.3443 -3.41303 -1.14195 0
M  V30 989 C 93.9523 -4.47944 -0.0711265 0
M  V30 990 C 95.6963 -3.84988 -1.78841 0
M  V30 991 C 93.6033 -5.88212 -0.613225 0
M  V30 992 H 92.5333 -0.717162 -0.232796 0
M  V30 993 H 95.1843 -1.83049 0.12857 0
M  V30 994 H 93.5663 -3.45437 -1.93621 0
M  V30 995 H 94.7403 -4.55408 0.702836 0
M  V30 996 H 93.0553 -4.13644 0.478313 0
M  V30 997 H 95.6523 -4.87159 -2.20408 0
M  V30 998 H 95.9953 -3.21632 -2.64308 0
M  V30 999 H 96.5283 -3.83401 -1.06059 0
M  V30 1000 H 93.2673 -6.55183 0.203978 0
M  V30 1001 H 92.7873 -5.84294 -1.35501 0
M  V30 1002 H 94.4663 -6.37687 -1.09383 0
M  V30 1003 N 94.5984 0.214957 -1.56127 0
M  V30 1004 C 95.5284 1.2695 -1.95974 0
M  V30 1005 C 96.5094 1.48539 -0.828868 0
M  V30 1006 O 97.6944 1.60611 -1.09168 0
M  V30 1007 C 94.8244 2.61794 -2.28214 0
M  V30 1008 C 93.7784 2.54851 -3.43853 0
M  V30 1009 C 93.1044 3.93785 -3.61715 0
M  V30 1010 C 94.4044 2.09065 -4.78632 0
M  V30 1011 H 96.0984 0.93846 -2.84312 0
M  V30 1012 H 93.6444 0.449996 -1.36788 0
M  V30 1013 H 95.5974 3.35731 -2.54682 0
M  V30 1014 H 94.3214 2.96599 -1.36736 0
M  V30 1015 H 92.9804 1.8337 -3.17444 0
M  V30 1016 H 92.6284 4.25908 -2.67602 0
M  V30 1017 H 92.3284 3.90019 -4.39498 0
M  V30 1018 H 93.8524 4.69374 -3.90539 0
M  V30 1019 H 95.2664 2.7275 -5.04262 0
M  V30 1020 H 93.6634 2.16346 -5.59745 0
M  V30 1021 H 94.7334 1.04315 -4.73547 0
M  V30 1022 N 96.0765 1.50051 0.48192 0
M  V30 1023 C 97.3065 1.63999 1.2565 0
M  V30 1024 C 97.7145 0.318288 1.86504 0
M  V30 1025 O 97.0575 -0.708534 1.69486 0
M  V30 1026 C 97.1195 2.66504 2.4128 0
M  V30 1027 C 96.7835 4.10352 2.01148 0
M  V30 1028 C 97.7805 4.96562 1.54021 0
M  V30 1029 C 95.4655 4.56203 2.10199 0
M  V30 1030 C 97.4595 6.26668 1.16473 0
M  V30 1031 C 95.1465 5.86318 1.72264 0
M  V30 1032 C 96.1445 6.71375 1.25477 0
M  V30 1033 O 95.8325 7.99062 0.880626 0
M  V30 1034 H 95.5645 0.55456 0.386574 0
M  V30 1035 H 98.1185 1.96954 0.582944 0
M  V30 1036 H 96.3485 2.28769 3.11772 0
M  V30 1037 H 98.0375 2.69783 3.03268 0
M  V30 1038 H 98.8035 4.62358 1.46458 0
M  V30 1039 H 94.6825 3.90152 2.45566 0
M  V30 1040 H 98.2265 6.93011 0.798841 0
M  V30 1041 H 94.1235 6.20046 1.79482 0
M  V30 1042 H 94.8915 8.12239 1.01043 0
M  V30 1043 N 97.5546 -0.734337 1.39446 0
M  V30 1044 C 98.7796 -1.52866 1.40167 0
M  V30 1045 C 99.2046 -1.881 -0.00171513 0
M  V30 1046 O 98.5626 -1.51957 -0.988879 0
M  V30 1047 C 98.6106 -2.79235 2.28167 0
M  V30 1048 O 97.7146 -3.75185 1.71201 0
M  V30 1049 H 97.0556 -0.461618 0.477289 0
M  V30 1050 H 99.5856 -0.905949 1.8345 0
M  V30 1051 H 99.5956 -3.27963 2.42702 0
M  V30 1052 H 98.2706 -2.52923 3.30156 0
M  V30 1053 H 96.8476 -3.33958 1.65912 0
M  V30 1054 N 99.0327 -1.24633 -0.964593 0
M  V30 1055 C 100.449 -1.01239 -1.2338 0
M  V30 1056 C 100.649 0.2769 -1.99588 0
M  V30 1057 O 99.7047 0.992241 -2.32187 0
M  V30 1058 C 101.018 -2.22937 -2.01791 0
M  V30 1059 C 102.566 -2.27594 -2.14872 0
M  V30 1060 C 103.041 -3.48921 -2.96678 0
M  V30 1061 N 104.532 -3.49257 -3.04259 0
M  V30 1062 C 105.267 -4.39795 -3.67924 0
M  V30 1063 N 104.763 -5.40591 -4.33281 0
M  V30 1064 N 106.556 -4.275 -3.64966 0
M  V30 1065 H 98.7067 -2.0748 -0.454502 0
M  V30 1066 H 100.97 -0.910647 -0.26349 0
M  V30 1067 H 100.676 -3.16587 -1.53184 0
M  V30 1068 H 100.55 -2.25306 -3.02518 0
M  V30 1069 H 102.937 -1.34473 -2.6268 0
M  V30 1070 H 103.018 -2.2925 -1.13482 0
M  V30 1071 H 102.662 -4.42359 -2.49562 0
M  V30 1072 H 102.592 -3.4451 -3.98272 0
M  V30 1073 H 105.083 -2.76337 -2.57771 0
M  V30 1074 H 105.396 -6.05904 -4.79687 0
M  V30 1075 H 103.741 -5.44475 -4.3194 0
M  V30 1076 H 106.932 -3.47987 -3.13086 0
M  V30 1077 H 107.105 -4.98258 -4.14298 0
M  V30 1078 N 100.511 1.16574 -1.06058 0
M  V30 1079 C 101.757 1.87324 -0.777022 0
M  V30 1080 C 102.09 1.81351 0.694645 0
M  V30 1081 O 101.365 1.22753 1.50871 0
M  V30 1082 C 101.648 3.36991 -1.26922 0
M  V30 1083 C 101.501 3.51667 -2.80447 0
M  V30 1084 C 102.82 4.3131 -0.87521 0
M  V30 1085 H 99.9388 0.680191 -0.28374 0
M  V30 1086 H 102.581 1.37036 -1.3161 0
M  V30 1087 H 100.731 3.79949 -0.81063 0
M  V30 1088 H 102.403 3.17664 -3.34495 0
M  V30 1089 H 100.646 2.93656 -3.19294 0
M  V30 1090 H 101.317 4.56766 -3.0995 0
M  V30 1091 H 103.793 3.9624 -1.27014 0
M  V30 1092 H 102.669 5.34545 -1.2471 0
M  V30 1093 H 102.93 4.41552 0.220071 0
M  V30 1094 N 101.989 0.842826 1.3317 0
M  V30 1095 C 103.237 0.439577 1.97262 0
M  V30 1096 C 103.558 -1.00548 1.67078 0
M  V30 1097 O 102.828 -1.70098 0.971779 0
M  V30 1098 H 101.408 0.159558 0.72976 0
M  V30 1099 H 104.07 1.07665 1.62463 0
M  V30 1100 H 103.166 0.574886 3.0676 0
M  V30 1101 N 103.467 -1.45747 0.599634 0
M  V30 1102 C 104.883 -1.57424 0.26264 0
M  V30 1103 C 105.083 -1.59222 -1.23493 0
M  V30 1104 O 104.139 -1.51825 -2.01756 0
M  V30 1105 C 105.452 -2.86061 0.926795 0
M  V30 1106 C 107 -2.99722 0.901967 0
M  V30 1107 C 107.475 -4.31119 1.54598 0
M  V30 1108 N 108.966 -4.37858 1.5111 0
M  V30 1109 C 109.701 -5.3818 1.97863 0
M  V30 1110 N 109.197 -6.45083 2.52666 0
M  V30 1111 N 110.99 -5.29487 1.88679 0
M  V30 1112 H 103.141 -1.42823 1.57211 0
M  V30 1113 H 105.404 -0.68235 0.658105 0
M  V30 1114 H 105.11 -2.90605 1.98095 0
M  V30 1115 H 104.984 -3.74563 0.445238 0
M  V30 1116 H 107.371 -2.9475 -0.143617 0
M  V30 1117 H 107.452 -2.12652 1.42171 0
M  V30 1118 H 107.096 -4.36849 2.59085 0
M  V30 1119 H 107.026 -5.16992 1.00132 0
M  V30 1120 H 109.517 -3.61209 1.11068 0
M  V30 1121 H 109.83 -7.17869 2.86155 0
M  V30 1122 H 108.175 -6.45856 2.56701 0
M  V30 1123 H 111.366 -4.44877 1.4561 0
M  V30 1124 H 111.539 -6.07524 2.25429 0
M  V30 1125 N 104.945 -0.338344 -1.53925 0
M  V30 1126 C 106.17 0.263987 -2.05713 0
M  V30 1127 C 106.595 1.43847 -1.21201 0
M  V30 1128 O 105.953 1.79904 -0.224535 0
M  V30 1129 C 106.001 0.662 -3.54471 0
M  V30 1130 O 105.105 1.76265 -3.72833 0
M  V30 1131 H 104.446 0.0448722 -0.662482 0
M  V30 1132 H 106.976 -0.491048 -1.9862 0
M  V30 1133 H 106.986 0.940594 -3.9701 0
M  V30 1134 H 105.661 -0.196937 -4.15433 0
M  V30 1135 H 104.238 1.48173 -3.42198 0
M  V30 1136 N 106.423 1.57458 -0.0668435 0
M  V30 1137 C 107.669 1.93587 0.6043 0
M  V30 1138 C 108.002 0.946722 1.69561 0
M  V30 1139 O 107.277 -0.0248516 1.94484 0
M  V30 1140 C 107.56 3.40014 1.18585 0
M  V30 1141 C 107.413 4.49685 0.101529 0
M  V30 1142 C 108.732 3.87154 2.09284 0
M  V30 1143 H 105.851 0.703958 0.218202 0
M  V30 1144 H 108.493 1.89542 -0.131804 0
M  V30 1145 H 106.643 3.43592 1.81319 0
M  V30 1146 H 108.315 4.5823 -0.531279 0
M  V30 1147 H 106.558 4.30059 -0.568487 0
M  V30 1148 H 107.229 5.49266 0.54874 0
M  V30 1149 H 109.705 3.85551 1.56491 0
M  V30 1150 H 108.581 4.90231 2.46911 0
M  V30 1151 H 108.842 3.2481 2.99918 0
M  V30 1152 N 107.901 -0.206675 1.56239 0
M  V30 1153 C 109.129 -0.945345 1.8404 0
M  V30 1154 C 109.544 -1.77336 0.647885 0
M  V30 1155 O 108.901 -1.78425 -0.383511 0
M  V30 1156 C 108.952 -1.8509 3.10522 0
M  V30 1157 O 108.673 -1.05634 4.25174 0
M  V30 1158 C 110.174 -2.70222 3.51418 0
M  V30 1159 H 107.394 -0.276372 0.61144 0
M  V30 1160 H 109.938 -0.217417 2.03341 0
M  V30 1161 H 108.093 -2.53259 2.93153 0
M  V30 1162 H 108.507 -1.67238 4.97124 0
M  V30 1163 H 109.981 -3.29438 4.42916 0
M  V30 1164 H 110.458 -3.43358 2.73864 0
M  V30 1165 H 111.064 -2.07443 3.71278 0
M  V30 1166 N 109.379 -1.50304 -0.473955 0
M  V30 1167 C 110.656 -1.51667 -1.23518 0
M  V30 1168 C 111.036 -0.259701 -2.09496 0
M  V30 1169 O 110.384 0.756986 -2.15597 0
M  V30 1170 C 110.594 -2.81082 -2.06868 0
M  V30 1171 C 111.942 -3.31631 -2.65153 0
M  V30 1172 O 112.966 -2.82384 -2.17113 0
M  V30 1173 O 111.825 -4.17471 -3.52675 0
M  V30 1174 H 108.919 -0.60822 -0.560355 0
M  V30 1175 H 111.465 -1.62592 -0.486011 0
M  V30 1176 H 110.237 -3.64041 -1.4349 0
M  V30 1177 H 109.86 -2.73146 -2.88924 0
M  V30 1178 N 110.857 0.726932 -1.39834 0
M  V30 1179 C 112.103 1.48884 -1.377 0
M  V30 1180 C 112.436 1.94185 0.0244852 0
M  V30 1181 O 111.711 1.67361 0.990986 0
M  V30 1182 C 111.994 2.72288 -2.3565 0
M  V30 1183 C 111.847 2.32956 -3.84775 0
M  V30 1184 C 113.166 3.74414 -2.31306 0
M  V30 1185 H 110.285 0.540062 -0.5015 0
M  V30 1186 H 112.927 0.830547 -1.70886 0
M  V30 1187 H 111.077 3.28457 -2.07481 0
M  V30 1188 H 112.749 1.82356 -4.23726 0
M  V30 1189 H 110.992 1.65088 -4.01159 0
M  V30 1190 H 111.663 3.21362 -4.4881 0
M  V30 1191 H 114.139 3.27849 -2.56231 0
M  V30 1192 H 113.015 4.58414 -3.01907 0
M  V30 1193 H 113.276 4.21909 -1.32081 0
M  V30 1194 N 112.336 1.25143 0.95797 0
M  V30 1195 C 113.566 1.12261 1.73439 0
M  V30 1196 C 113.974 -0.326715 1.86358 0
M  V30 1197 O 113.317 -1.2367 1.35836 0
M  V30 1198 C 113.379 1.69966 3.16784 0
M  V30 1199 C 113.043 3.18936 3.27305 0
M  V30 1200 C 114.04 4.15968 3.11877 0
M  V30 1201 C 111.725 3.59083 3.51234 0
M  V30 1202 C 113.719 5.51126 3.20217 0
M  V30 1203 C 111.406 4.9438 3.5921 0
M  V30 1204 C 112.404 5.90211 3.43716 0
M  V30 1205 O 112.092 7.23046 3.51368 0
M  V30 1206 H 111.824 0.392476 0.550399 0
M  V30 1207 H 114.378 1.65927 1.21068 0
M  V30 1208 H 112.608 1.10744 3.70503 0
M  V30 1209 H 114.297 1.52232 3.76272 0
M  V30 1210 H 115.063 3.86292 2.93264 0
M  V30 1211 H 110.942 2.84989 3.62356 0
M  V30 1212 H 114.486 6.25905 3.0804 0
M  V30 1213 H 110.383 5.23723 3.77339 0
M  V30 1214 H 111.151 7.31097 3.6802 0
M  V30 1215 N 113.814 -1.1601 1.06675 0
M  V30 1216 C 114.744 -2.22688 0.702307 0
M  V30 1217 C 115.725 -1.67306 -0.307032 0
M  V30 1218 O 116.91 -1.93352 -0.181305 0
M  V30 1219 C 114.04 -3.47178 0.092038 0
M  V30 1220 C 112.994 -4.15477 1.02777 0
M  V30 1221 C 112.32 -5.33963 0.28061 0
M  V30 1222 C 113.62 -4.66019 2.35846 0
M  V30 1223 H 115.314 -2.53429 1.59419 0
M  V30 1224 H 112.86 -1.21813 0.767961 0
M  V30 1225 H 114.813 -4.21037 -0.174814 0
M  V30 1226 H 113.537 -3.15749 -0.834877 0
M  V30 1227 H 112.196 -3.43549 1.27944 0
M  V30 1228 H 111.844 -4.98788 -0.649545 0
M  V30 1229 H 111.544 -5.806 0.904258 0
M  V30 1230 H 113.068 -6.10596 0.021396 0
M  V30 1231 H 114.482 -5.3144 2.15045 0
M  V30 1232 H 112.879 -5.23293 2.93743 0
M  V30 1233 H 113.949 -3.82023 2.98641 0
M  V30 1234 N 115.292 -0.849877 -1.32721 0
M  V30 1235 C 116.222 -0.306308 -2.31482 0
M  V30 1236 C 117.203 0.591952 -1.59468 0
M  V30 1237 O 118.388 0.513199 -1.87296 0
M  V30 1238 C 115.518 0.510204 -3.43532 0
M  V30 1239 C 114.472 -0.293209 -4.26994 0
M  V30 1240 C 113.798 0.647743 -5.30762 0
M  V30 1241 C 115.098 -1.51634 -4.99804 0
M  V30 1242 H 116.792 -1.13153 -2.77195 0
M  V30 1243 H 114.338 -0.545553 -1.33266 0
M  V30 1244 H 116.291 0.900856 -4.11658 0
M  V30 1245 H 115.015 1.36874 -2.96535 0
M  V30 1246 H 113.674 -0.665555 -3.60508 0
M  V30 1247 H 113.322 1.50299 -4.8002 0
M  V30 1248 H 113.022 0.11422 -5.87489 0
M  V30 1249 H 114.546 1.03567 -6.01753 0
M  V30 1250 H 115.96 -1.19824 -5.60638 0
M  V30 1251 H 114.357 -1.98745 -5.66234 0
M  V30 1252 H 115.427 -2.28018 -4.27943 0
M  V30 1253 N 116.77 1.45427 -0.607355 0
M  V30 1254 C 117.718 2.32269 0.12411 0
M  V30 1255 C 118.712 1.45955 0.859854 0
M  V30 1256 O 119.918 1.6244 0.775447 0
M  V30 1257 H 116.293 0.749691 0.0588839 0
M  V30 1258 H 118.264 2.91743 -0.626762 0
M  V30 1259 C 117.013 3.29567 1.1082 0
M  V30 1260 H 116.336 3.95978 0.551492 0
M  V30 1261 H 117.776 3.93061 1.58995 0
M  V30 1262 C 116.235 2.56722 2.18164 0
M  V30 1263 O 116.765 2.34842 3.25902 0
M  V30 1264 N 114.971 2.16861 1.93442 0
M  V30 1265 H 114.518 2.34855 1.05834 0
M  V30 1266 H 114.476 1.68444 2.65469 0
M  V30 1267 N 118.248 0.346503 1.53744 0
M  V30 1268 C 119.178 -0.501193 2.28058 0
M  V30 1269 C 120.159 -1.10014 1.29734 0
M  V30 1270 O 121.344 -1.12097 1.58581 0
M  V30 1271 C 118.474 -1.65078 3.05559 0
M  V30 1272 C 117.428 -1.18003 4.11411 0
M  V30 1273 C 116.754 -2.41837 4.76884 0
M  V30 1274 C 118.054 -0.278394 5.21558 0
M  V30 1275 H 119.748 0.11875 2.99164 0
M  V30 1276 H 117.294 0.0585531 1.43881 0
M  V30 1277 H 119.247 -2.25028 3.56287 0
M  V30 1278 H 117.971 -2.29767 2.32109 0
M  V30 1279 H 116.63 -0.603331 3.61601 0
M  V30 1280 H 116.278 -3.0494 4.00026 0
M  V30 1281 H 115.978 -2.1102 5.48402 0
M  V30 1282 H 117.502 -3.02508 5.30397 0
M  V30 1283 H 118.916 -0.784823 5.67903 0
M  V30 1284 H 117.313 -0.0619707 6.00068 0
M  V30 1285 H 118.383 0.684677 4.80042 0
M  V30 1286 N 119.726 -1.57421 0.075193 0
M  V30 1287 C 120.689 -2.11791 -0.876203 0
M  V30 1288 C 121.689 -1.04268 -1.22412 0
M  V30 1289 O 122.879 -1.30242 -1.15684 0
M  V30 1290 C 120.011 -2.62207 -2.17854 0
M  V30 1291 H 121.204 -2.9716 -0.40444 0
M  V30 1292 H 118.757 -1.55333 -0.173557 0
M  V30 1293 H 119.492 -1.803 -2.6956 0
M  V30 1294 H 119.277 -3.40802 -1.93897 0
M  V30 1295 H 120.767 -3.04335 -2.85955 0
M  V30 1296 N 121.204 0.198386 -1.56346 0
M  V30 1297 C 122.134 1.24865 -1.9731 0
M  V30 1298 C 123.115 1.47651 -0.844576 0
M  V30 1299 O 124.3 1.59444 -1.10866 0
M  V30 1300 C 121.43 2.59358 -2.30977 0
M  V30 1301 C 120.384 2.5119 -3.46537 0
M  V30 1302 C 119.71 3.89926 -3.65871 0
M  V30 1303 C 121.01 2.03977 -4.80823 0
M  V30 1304 H 122.704 0.908252 -2.85291 0
M  V30 1305 H 120.25 0.435462 -1.37258 0
M  V30 1306 H 122.203 3.33011 -2.58228 0
M  V30 1307 H 120.927 2.95132 -1.39874 0
M  V30 1308 H 119.586 1.79993 -3.19371 0
M  V30 1309 H 119.234 4.23046 -2.72105 0
M  V30 1310 H 118.934 3.85336 -4.4361 0
M  V30 1311 H 120.458 4.65205 -3.95495 0
M  V30 1312 H 121.872 2.67386 -5.07127 0
M  V30 1313 H 120.269 2.10397 -5.62008 0
M  V30 1314 H 121.339 0.992861 -4.74626 0
M  V30 1315 N 122.682 1.50554 0.465978 0
M  V30 1316 C 123.645 1.69233 1.54574 0
M  V30 1317 C 124.645 0.562901 1.50626 0
M  V30 1318 O 125.835 0.830016 1.53155 0
M  V30 1319 C 122.967 1.7223 2.94193 0
M  V30 1320 H 124.16 2.65571 1.39327 0
M  V30 1321 H 121.713 1.40111 0.692711 0
M  V30 1322 H 122.448 0.77603 3.14878 0
M  V30 1323 H 122.233 2.54285 2.98466 0
M  V30 1324 H 123.723 1.88618 3.72576 0
M  V30 1325 N 124.16 -0.719506 1.40217 0
M  V30 1326 C 125.437 -1.47221 1.28784 0
M  V30 1327 C 125.817 -2.10883 -0.0956067 0
M  V30 1328 O 125.165 -1.99833 -1.10811 0
M  V30 1329 C 125.375 -2.5111 2.42373 0
M  V30 1330 C 126.723 -3.17053 2.82423 0
M  V30 1331 O 127.747 -2.61429 2.41937 0
M  V30 1332 O 126.606 -4.17742 3.52355 0
M  V30 1333 H 123.7 -0.654491 0.50554 0
M  V30 1334 H 126.246 -0.752014 1.52128 0
M  V30 1335 H 125.018 -2.02556 3.34793 0
M  V30 1336 H 124.641 -3.3067 2.20778 0
M  V30 1337 N 125.638 -1.25649 -0.95132 0
M  V30 1338 C 126.568 -1.08808 -2.06599 0
M  V30 1339 C 127.549 0.00382547 -1.701 0
M  V30 1340 O 128.734 -0.166325 -1.93486 0
M  V30 1341 C 125.864 -0.709542 -3.39975 0
M  V30 1342 C 124.818 -1.75206 -3.90496 0
M  V30 1343 C 124.144 -1.22811 -5.20405 0
M  V30 1344 C 125.444 -3.15153 -4.16504 0
M  V30 1345 H 127.138 -2.02048 -2.20946 0
M  V30 1346 H 124.684 -0.972835 -1.06169 0
M  V30 1347 H 126.637 -0.578649 -4.17408 0
M  V30 1348 H 125.361 0.258556 -3.25575 0
M  V30 1349 H 124.02 -1.87145 -3.15234 0
M  V30 1350 H 123.668 -0.250145 -5.02378 0
M  V30 1351 H 123.368 -1.92492 -5.55176 0
M  V30 1352 H 124.892 -1.10968 -6.00432 0
M  V30 1353 H 126.306 -3.06349 -4.84586 0
M  V30 1354 H 124.703 -3.82333 -4.62538 0
M  V30 1355 H 125.773 -3.61966 -3.22658 0
M  V30 1356 N 127.117 1.15442 -1.07289 0
M  V30 1357 C 128.047 2.22312 -0.714107 0
M  V30 1358 C 129.028 1.67467 0.298155 0
M  V30 1359 O 130.213 1.93445 0.171048 0
M  V30 1360 C 127.343 3.47124 -0.110448 0
M  V30 1361 C 126.297 4.14926 -1.04979 0
M  V30 1362 C 125.623 5.33807 -0.308924 0
M  V30 1363 C 126.923 4.64762 -2.38314 0
M  V30 1364 H 128.617 2.5258 -1.6076 0
M  V30 1365 H 126.163 1.21404 -0.77441 0
M  V30 1366 H 128.116 4.21124 0.152482 0
M  V30 1367 H 126.84 3.16187 0.81812 0
M  V30 1368 H 125.499 3.42866 -1.29764 0
M  V30 1369 H 125.147 4.99126 0.623084 0
M  V30 1370 H 124.847 5.80113 -0.935036 0
M  V30 1371 H 126.371 6.10576 -0.0537771 0
M  V30 1372 H 127.785 5.30292 -2.1786 0
M  V30 1373 H 126.182 5.21728 -2.96514 0
M  V30 1374 H 127.252 3.80434 -3.00663 0
M  V30 1375 N 128.595 0.856903 1.32268 0
M  V30 1376 C 129.842 0.461386 1.97174 0
M  V30 1377 C 130.17 -0.983491 1.67803 0
M  V30 1378 O 129.425 -1.70541 0.959903 0
M  V30 1379 C 129.724 0.649919 3.51441 0
M  V30 1380 C 129.39 2.0656 4.00804 0
M  V30 1381 C 128.052 2.45279 4.13995 0
M  V30 1382 C 130.404 2.98947 4.26943 0
M  V30 1383 C 127.732 3.75653 4.50668 0
M  V30 1384 C 130.084 4.28822 4.65075 0
M  V30 1385 C 128.748 4.67472 4.76472 0
M  V30 1386 H 128.018 0.168833 0.72151 0
M  V30 1387 H 130.665 1.08739 1.57633 0
M  V30 1388 H 128.97 -0.0593018 3.91755 0
M  V30 1389 H 130.667 0.32391 3.9969 0
M  V30 1390 H 127.257 1.75495 3.91024 0
M  V30 1391 H 131.441 2.70265 4.16258 0
M  V30 1392 H 126.697 4.05379 4.57688 0
M  V30 1393 H 130.871 5.0047 4.84255 0
M  V30 1394 H 128.498 5.68539 5.04646 0
M  V30 1395 N 130.073 -1.45103 0.615059 0
M  V30 1396 C 131.036 -2.29025 -0.0895485 0
M  V30 1397 C 132.036 -1.40174 -0.787906 0
M  V30 1398 O 133.226 -1.62217 -0.634933 0
M  V30 1399 C 130.358 -3.21376 -1.13711 0
M  V30 1400 H 131.551 -2.92807 0.648382 0
M  V30 1401 H 129.104 -1.51749 0.374444 0
M  V30 1402 H 129.839 -2.6241 -1.90556 0
M  V30 1403 H 129.624 -3.86834 -0.640475 0
M  V30 1404 H 131.114 -3.84459 -1.63036 0
M  V30 1405 N 131.551 -0.354651 -1.53558 0
M  V30 1406 C 132.481 0.489091 -2.2832 0
M  V30 1407 C 133.462 1.09324 -1.30316 0
M  V30 1408 O 134.647 1.11255 -1.59173 0
M  V30 1409 C 131.777 1.63456 -3.0643 0
M  V30 1410 C 130.731 1.1582 -4.12031 0
M  V30 1411 C 130.057 2.39305 -4.7816 0
M  V30 1412 C 131.357 0.250731 -5.21698 0
M  V30 1413 H 133.051 -0.134614 -2.99097 0
M  V30 1414 H 130.597 -0.0661826 -1.43848 0
M  V30 1415 H 132.55 2.23136 -3.57475 0
M  V30 1416 H 131.274 2.28533 -2.33325 0
M  V30 1417 H 129.933 0.584146 -3.61916 0
M  V30 1418 H 129.581 3.02814 -4.01637 0
M  V30 1419 H 129.281 2.08109 -5.49513 0
M  V30 1420 H 130.805 2.99691 -5.31994 0
M  V30 1421 H 132.219 0.754695 -5.68311 0
M  V30 1422 H 130.616 0.0301468 -6.00092 0
M  V30 1423 H 131.686 -0.710125 -4.79672 0
M  V30 1424 N 133.029 1.57378 -0.0835403 0
M  V30 1425 C 134.257 1.98263 0.59157 0
M  V30 1426 C 134.672 0.962302 1.62435 0
M  V30 1427 O 134.029 -0.049581 1.82433 0
M  V30 1428 C 134.08 3.39214 1.24965 0
M  V30 1429 O 133.801 4.37339 0.258186 0
M  V30 1430 C 135.302 3.95038 2.01147 0
M  V30 1431 H 132.522 0.651773 0.159477 0
M  V30 1432 H 135.066 2.03878 -0.159415 0
M  V30 1433 H 133.221 3.34649 1.95164 0
M  V30 1434 H 133.635 5.19371 0.731734 0
M  V30 1435 H 135.109 4.95848 2.42567 0
M  V30 1436 H 135.586 3.32222 2.87272 0
M  V30 1437 H 136.192 4.0304 1.35789 0
M  V30 1438 N 134.507 -0.190092 1.56449 0
M  V30 1439 C 135.437 -1.23816 1.97969 0
M  V30 1440 C 136.418 -1.47201 0.852395 0
M  V30 1441 O 137.603 -1.58854 1.1171 0
M  V30 1442 C 134.733 -2.5813 2.3235 0
M  V30 1443 C 133.687 -2.49348 3.47864 0
M  V30 1444 C 133.013 -3.8798 3.67934 0
M  V30 1445 C 134.313 -2.01424 4.81898 0
M  V30 1446 H 136.007 -0.89311 2.85769 0
M  V30 1447 H 133.553 -0.428177 1.37487 0
M  V30 1448 H 135.506 -3.31637 2.59991 0
M  V30 1449 H 134.23 -2.94386 1.41438 0
M  V30 1450 H 132.889 -1.78297 3.20321 0
M  V30 1451 H 132.537 -4.21597 2.74344 0
M  V30 1452 H 132.237 -3.82978 4.45648 0
M  V30 1453 H 133.761 -4.63101 3.97957 0
M  V30 1454 H 135.175 -2.64693 5.08538 0
M  V30 1455 H 133.572 -2.07413 5.63116 0
M  V30 1456 H 134.642 -0.967677 4.75146 0
M  V30 1457 N 135.985 -1.50799 -0.457987 0
M  V30 1458 C 137.396 -1.55152 -1.0385 0
M  V30 1459 C 137.747 -0.362719 -1.92818 0
M  V30 1460 O 136.872 0.522915 -2.09987 0
M  V30 1461 C 137.467 -2.81173 -1.89017 0
M  V30 1462 C 136.026 -2.88164 -2.42154 0
M  V30 1463 C 135.173 -2.49591 -1.20829 0
M  V30 1464 H 138.124 -1.56874 -0.240068 0
M  V30 1465 H 138.145 -2.63769 -2.74238 0
M  V30 1466 H 137.657 -3.67677 -1.24238 0
M  V30 1467 H 135.758 -2.06042 -3.10447 0
M  V30 1468 H 135.871 -3.91356 -2.76364 0
M  V30 1469 H 134.235 -2.02322 -1.54719 0
M  V30 1470 H 135.018 -3.38418 -0.576927 0
M  V30 1471 N 137.463 0.71206 -1.40597 0
M  V30 1472 C 138.712 1.46754 -1.38369 0
M  V30 1473 C 139.025 1.95598 0.0097839 0
M  V30 1474 O 140.231 2.71059 0.154677 0
M  V30 1475 C 138.687 2.65289 -2.43207 0
M  V30 1476 C 138.295 2.23301 -3.88382 0
M  V30 1477 C 140.039 3.43008 -2.50091 0
M  V30 1478 C 137.946 3.38696 -4.84808 0
M  V30 1479 H 136.876 0.55118 -0.514506 0
M  V30 1480 H 139.527 0.774616 -1.66349 0
M  V30 1481 H 137.909 3.36769 -2.08332 0
M  V30 1482 H 139.083 1.59218 -4.32419 0
M  V30 1483 H 137.398 1.58618 -3.85006 0
M  V30 1484 H 139.995 4.28881 -3.1932 0
M  V30 1485 H 140.338 3.87065 -1.53253 0
M  V30 1486 H 140.871 2.78574 -2.83974 0
M  V30 1487 H 137.61 2.99668 -5.82992 0
M  V30 1488 H 137.13 4.01683 -4.45433 0
M  V30 1489 H 138.809 4.04712 -5.04794 0
M  V30 1490 N 138.941 1.26152 0.944643 0
M  V30 1491 C 140.187 1.12665 1.69346 0
M  V30 1492 C 140.542 -0.3273 1.89596 0
M  V30 1493 O 139.835 -1.23717 1.46303 0
M  V30 1494 C 140.029 1.82541 3.07268 0
M  V30 1495 C 139.858 3.34582 3.00475 0
M  V30 1496 C 138.628 4.03863 3.03681 0
M  V30 1497 C 140.826 4.30828 2.80877 0
M  V30 1498 N 138.808 5.42603 2.87151 0
M  V30 1499 C 140.179 5.5672 2.7288 0
M  V30 1500 C 142.234 4.21122 2.65633 0
M  V30 1501 C 140.937 6.74013 2.51196 0
M  V30 1502 C 142.963 5.38118 2.45323 0
M  V30 1503 C 142.325 6.62955 2.38055 0
M  V30 1504 H 138.424 0.467041 0.627214 0
M  V30 1505 H 141.008 1.59391 1.11815 0
M  V30 1506 H 139.179 1.38296 3.62945 0
M  V30 1507 H 140.911 1.61708 3.70989 0
M  V30 1508 H 137.666 3.55198 3.1326 0
M  V30 1509 H 138.09 6.15443 2.82063 0
M  V30 1510 H 142.732 3.25344 2.70021 0
M  V30 1511 H 140.45 7.6989 2.4555 0
M  V30 1512 H 144.036 5.32475 2.34439 0
M  V30 1513 H 142.916 7.51959 2.22546 0
M  V30 1514 N 140.419 -1.14872 1.07899 0
M  V30 1515 C 141.382 -2.17986 0.708161 0
M  V30 1516 C 142.382 -1.58775 -0.25442 0
M  V30 1517 O 143.572 -1.74166 -0.034645 0
M  V30 1518 C 140.704 -3.40871 0.0446929 0
M  V30 1519 H 141.897 -2.52306 1.62116 0
M  V30 1520 H 139.45 -1.2943 0.876218 0
M  V30 1521 H 140.185 -3.12124 -0.880281 0
M  V30 1522 H 139.97 -3.8511 0.737091 0
M  V30 1523 H 141.46 -4.17121 -0.19991 0
M  V30 1524 N 141.898 -0.863906 -1.31812 0
M  V30 1525 C 142.861 -0.320212 -2.26952 0
M  V30 1526 C 143.861 0.525369 -1.51975 0
M  V30 1527 O 145.051 0.335547 -1.70938 0
M  V30 1528 C 142.183 0.545919 -3.365 0
M  V30 1529 H 143.376 -1.16004 -2.76556 0
M  V30 1530 H 140.929 -0.638995 -1.42641 0
M  V30 1531 H 141.664 1.40718 -2.92179 0
M  V30 1532 H 141.449 -0.0594674 -3.92055 0
M  V30 1533 H 142.939 0.918796 -4.07367 0
M  V30 1534 N 143.376 1.44774 -0.622745 0
M  V30 1535 C 144.601 2.06999 -0.128968 0
M  V30 1536 C 145.026 1.4617 1.1839 0
M  V30 1537 O 144.384 0.560007 1.72434 0
M  V30 1538 C 144.432 3.60595 -0.0188351 0
M  V30 1539 O 143.536 3.99398 1.02739 0
M  V30 1540 H 142.877 0.659047 -0.0809544 0
M  V30 1541 H 145.407 1.85784 -0.85705 0
M  V30 1542 H 145.417 4.07627 0.174476 0
M  V30 1543 H 144.092 4.04252 -0.977384 0
M  V30 1544 H 142.669 3.64011 0.809326 0
M  V30 1545 N 144.854 0.36279 1.53368 0
M  V30 1546 C 145.801 -0.485008 2.25646 0
M  V30 1547 C 146.771 -1.07982 1.2621 0
M  V30 1548 O 147.956 -1.11284 1.54986 0
M  V30 1549 C 145.096 -1.62023 3.04701 0
M  V30 1550 C 144.209 -1.05086 4.19024 0
M  V30 1551 C 143.344 -2.15496 4.85525 0
M  V30 1552 C 142.383 -1.5601 5.91884 0
M  V30 1553 N 141.52 -2.60241 6.52088 0
M  V30 1554 H 146.36 0.137864 2.97681 0
M  V30 1555 H 143.897 0.0798061 1.46883 0
M  V30 1556 H 145.855 -2.28887 3.48807 0
M  V30 1557 H 144.485 -2.2138 2.34927 0
M  V30 1558 H 143.537 -0.27259 3.79422 0
M  V30 1559 H 144.849 -0.575926 4.95464 0
M  V30 1560 H 144.003 -2.90186 5.32801 0
M  V30 1561 H 142.742 -2.66341 4.08551 0
M  V30 1562 H 141.747 -0.798338 5.43973 0
M  V30 1563 H 142.972 -1.05994 6.70777 0
M  V30 1564 H 140.918 -3.10304 5.77968 0
M  V30 1565 H 140.835 -2.17426 7.24059 0
M  V30 1566 H 142.103 -3.34641 7.04014 0
M  V30 1567 N 146.332 -1.57332 0.0918853 0
M  V30 1568 C 147.578 -1.94524 -0.573425 0
M  V30 1569 C 147.911 -0.973578 -1.68033 0
M  V30 1570 O 147.186 -0.00609226 -1.94499 0
M  V30 1571 C 147.469 -3.41858 -1.13161 0
M  V30 1572 C 147.322 -4.4979 -0.0299747 0
M  V30 1573 C 148.641 -3.90435 -2.03098 0
M  V30 1574 H 145.76 -0.70734 -0.206975 0
M  V30 1575 H 148.402 -1.89309 0.161942 0
M  V30 1576 H 146.552 -3.46433 -1.7583 0
M  V30 1577 H 148.224 -4.57327 0.604112 0
M  V30 1578 H 146.467 -4.291 0.636833 0
M  V30 1579 H 147.138 -5.50069 -0.461287 0
M  V30 1580 H 149.614 -3.87992 -1.50338 0
M  V30 1581 H 148.49 -4.94097 -2.39081 0
M  V30 1582 H 148.751 -3.29541 -2.94712 0
M  V30 1583 N 147.81 0.181792 -1.56548 0
M  V30 1584 C 148.758 1.24461 -1.965 0
M  V30 1585 C 149.752 1.464 -0.852261 0
M  V30 1586 O 150.958 1.47103 -1.03733 0
M  V30 1587 H 147.333 0.418138 -0.625031 0
M  V30 1588 H 149.304 0.880714 -2.85107 0
M  V30 1589 C 148.053 2.57891 -2.33212 0
M  V30 1590 H 147.376 2.41829 -3.18369 0
M  V30 1591 H 148.816 3.3097 -2.65019 0
M  V30 1592 C 147.275 3.15871 -1.17163 0
M  V30 1593 O 147.805 3.9913 -0.453708 0
M  V30 1594 N 146.011 2.74808 -0.944936 0
M  V30 1595 H 145.558 2.07205 -1.53049 0
M  V30 1596 H 145.516 3.13939 -0.170286 0
M  V30 1597 N 149.288 1.51039 0.449983 0
M  V30 1598 C 150.536 1.62759 1.19808 0
M  V30 1599 C 150.857 0.339981 1.92013 0
M  V30 1600 O 150.127 -0.643606 1.85026 0
M  V30 1601 H 148.707 0.599811 0.445237 0
M  V30 1602 H 151.369 1.87914 0.517138 0
M  V30 1603 H 150.465 2.44911 1.93455 0
M  V30 1604 N 150.766 -0.704594 1.40972 0
M  V30 1605 C 152.012 -1.46546 1.41053 0
M  V30 1606 C 152.367 -1.92393 0.0159714 0
M  V30 1607 O 151.66 -1.66017 -0.956506 0
M  V30 1608 C 151.854 -2.698 2.34399 0
M  V30 1609 C 151.683 -2.36008 3.82793 0
M  V30 1610 C 150.453 -2.26812 4.51536 0
M  V30 1611 C 152.651 -1.99565 4.74003 0
M  V30 1612 N 150.633 -1.8581 5.85105 0
M  V30 1613 C 152.004 -1.69251 5.96451 0
M  V30 1614 C 154.059 -1.86296 4.61734 0
M  V30 1615 C 152.762 -1.27003 7.07999 0
M  V30 1616 C 154.788 -1.45452 5.73234 0
M  V30 1617 C 154.15 -1.16043 6.94776 0
M  V30 1618 H 150.249 -0.533896 0.571383 0
M  V30 1619 H 152.833 -0.816061 1.76773 0
M  V30 1620 H 151.004 -3.32473 2.00789 0
M  V30 1621 H 152.736 -3.36214 2.25261 0
M  V30 1622 H 149.491 -2.44913 4.05357 0
M  V30 1623 H 149.915 -1.67817 6.55871 0
M  V30 1624 H 154.557 -2.0769 3.68273 0
M  V30 1625 H 152.275 -1.04353 8.01334 0
M  V30 1626 H 155.861 -1.35748 5.65742 0
M  V30 1627 H 154.741 -0.84915 7.79589 0
M  V30 1628 N 152.244 -1.26651 -0.937939 0
M  V30 1629 C 153.493 -1.11775 -1.67897 0
M  V30 1630 C 153.806 0.33794 -1.92659 0
M  V30 1631 O 155.012 0.607434 -2.64618 0
M  V30 1632 C 153.468 -1.9523 -3.02346 0
M  V30 1633 C 153.076 -3.45393 -2.8532 0
M  V30 1634 C 154.82 -1.88972 -3.80118 0
M  V30 1635 C 152.727 -4.21083 -4.15263 0
M  V30 1636 H 151.657 -0.414696 -0.629717 0
M  V30 1637 H 154.308 -1.50988 -1.04283 0
M  V30 1638 H 152.69 -1.48853 -3.66959 0
M  V30 1639 H 153.864 -3.99561 -2.29537 0
M  V30 1640 H 152.179 -3.52921 -2.20988 0
M  V30 1641 H 154.776 -2.42805 -4.76392 0
M  V30 1642 H 155.119 -0.86113 -4.07296 0
M  V30 1643 H 155.652 -2.33189 -3.22285 0
M  V30 1644 H 152.391 -5.24425 -3.93267 0
M  V30 1645 H 151.911 -3.71695 -4.70747 0
M  V30 1646 H 153.59 -4.29706 -4.83696 0
M  V30 1647 N 153.722 1.14298 -1.08507 0
M  V30 1648 C 154.969 1.85359 -0.815373 0
M  V30 1649 C 155.297 1.83001 0.658865 0
M  V30 1650 O 154.552 1.25655 1.50031 0
M  V30 1651 C 154.851 3.33547 -1.28379 0
M  V30 1652 C 154.517 3.56093 -2.76602 0
M  V30 1653 C 153.179 3.61955 -3.17084 0
M  V30 1654 C 155.531 3.64834 -3.72217 0
M  V30 1655 C 152.859 3.74082 -4.51973 0
M  V30 1656 C 155.211 3.78487 -5.06883 0
M  V30 1657 C 153.875 3.82598 -5.46969 0
M  V30 1658 H 153.145 0.678276 -0.298366 0
M  V30 1659 H 155.792 1.35002 -1.35819 0
M  V30 1660 H 154.097 3.86191 -0.660593 0
M  V30 1661 H 155.794 3.86959 -1.05186 0
M  V30 1662 H 152.384 3.52179 -2.4427 0
M  V30 1663 H 156.568 3.59595 -3.42061 0
M  V30 1664 H 151.824 3.75527 -4.82483 0
M  V30 1665 H 155.998 3.84193 -5.80834 0
M  V30 1666 H 153.625 3.91747 -6.51489 0
M  V30 1667 N 155.201 0.870884 1.31352 0
M  V30 1668 C 156.449 0.48132 1.96285 0
M  V30 1669 C 156.77 -0.969813 1.69173 0
M  V30 1670 O 156.04 -1.67998 1.00764 0
M  V30 1671 H 154.62 0.175002 0.726212 0
M  V30 1672 H 157.282 1.11087 1.60143 0
M  V30 1673 H 156.378 0.639825 3.05471 0
M  V30 1674 N 156.679 -1.44442 0.630414 0
M  V30 1675 C 157.907 -2.06414 0.141671 0
M  V30 1676 C 158.322 -1.47105 -1.18345 0
M  V30 1677 O 157.679 -0.593662 -1.72574 0
M  V30 1678 C 157.73 -3.61494 0.0199784 0
M  V30 1679 O 157.451 -4.18594 1.29269 0
M  V30 1680 C 158.952 -4.40499 -0.497544 0
M  V30 1681 H 156.172 -0.666292 0.0793452 0
M  V30 1682 H 158.716 -1.85323 0.864614 0
M  V30 1683 H 156.871 -3.8185 -0.653402 0
M  V30 1684 H 157.285 -5.12026 1.13707 0
M  V30 1685 H 158.759 -5.49433 -0.531708 0
M  V30 1686 H 159.236 -4.11895 -1.52445 0
M  V30 1687 H 159.842 -4.25061 0.142562 0
M  V30 1688 N 158.157 -0.370918 -1.53173 0
M  V30 1689 C 159.404 0.217102 -2.01333 0
M  V30 1690 C 159.732 1.48338 -1.25802 0
M  V30 1691 O 158.987 1.92698 -0.34146 0
M  V30 1692 C 159.286 0.549696 -3.53147 0
M  V30 1693 C 158.952 -0.622872 -4.46577 0
M  V30 1694 C 157.614 -0.944595 -4.71838 0
M  V30 1695 C 159.966 -1.40819 -5.01816 0
M  V30 1696 C 157.294 -2.05351 -5.49589 0
M  V30 1697 C 159.646 -2.50757 -5.80778 0
M  V30 1698 C 158.31 -2.83458 -6.04324 0
M  V30 1699 H 157.58 0.0794431 -0.736729 0
M  V30 1700 H 160.227 -0.504481 -1.84736 0
M  V30 1701 H 158.532 1.35237 -3.6772 0
M  V30 1702 H 160.229 1.017 -3.87889 0
M  V30 1703 H 156.819 -0.36209 -4.27068 0
M  V30 1704 H 161.003 -1.17289 -4.82242 0
M  V30 1705 H 156.259 -2.3108 -5.6605 0
M  V30 1706 H 160.433 -3.12022 -6.22588 0
M  V30 1707 H 158.06 -3.69508 -6.64355 0
M  V30 1708 N 159.635 1.57281 -0.100228 0
M  V30 1709 C 160.565 2.17328 0.853857 0
M  V30 1710 C 161.546 1.10804 1.2906 0
M  V30 1711 O 162.731 1.38963 1.35657 0
M  V30 1712 C 159.861 2.75772 2.11109 0
M  V30 1713 C 158.815 3.87713 1.81279 0
M  V30 1714 C 158.141 4.32882 3.13874 0
M  V30 1715 C 159.441 5.10677 1.09574 0
M  V30 1716 H 161.135 2.97305 0.353545 0
M  V30 1717 H 158.681 1.43009 0.168612 0
M  V30 1718 H 160.634 3.16433 2.78296 0
M  V30 1719 H 159.358 1.93057 2.63432 0
M  V30 1720 H 158.017 3.476 1.16489 0
M  V30 1721 H 157.665 3.47051 3.64095 0
M  V30 1722 H 157.365 5.08358 2.94696 0
M  V30 1723 H 158.889 4.7618 3.82211 0
M  V30 1724 H 160.303 5.48474 1.66879 0
M  V30 1725 H 158.7 5.91615 1.00557 0
M  V30 1726 H 159.77 4.84835 0.0793299 0
M  V30 1727 N 161.113 -0.173488 1.56642 0
M  V30 1728 C 162.353 -0.896984 1.83667 0
M  V30 1729 C 162.717 -1.79523 0.680842 0
M  V30 1730 O 163.918 -2.55616 0.831488 0
M  V30 1731 C 162.189 -1.67351 3.15798 0
M  V30 1732 S 163.748 -2.44607 3.64298 0
M  V30 1733 H 160.566 -0.300464 0.644393 0
M  V30 1734 H 163.168 -0.158775 1.94854 0
M  V30 1735 H 161.872 -1.00462 3.97914 0
M  V30 1736 H 161.403 -2.45313 3.07546 0
M  V30 1737 H 163.418 -3.69261 3.31452 0
M  V30 1738 N 162.591 -1.51276 -0.441967 0
M  V30 1739 C 163.538 -1.72256 -1.53612 0
M  V30 1740 C 164.508 -0.564164 -1.56225 0
M  V30 1741 O 165.693 -0.798074 -1.73307 0
M  V30 1742 C 162.833 -1.84932 -2.91366 0
M  V30 1743 C 161.946 -3.12459 -2.98317 0
M  V30 1744 C 161.081 -3.15758 -4.27166 0
M  V30 1745 C 160.12 -4.37619 -4.27967 0
M  V30 1746 N 159.257 -4.38493 -5.48333 0
M  V30 1747 H 164.097 -2.65654 -1.35026 0
M  V30 1748 H 161.634 -1.31662 -0.656009 0
M  V30 1749 H 163.592 -1.90263 -3.7129 0
M  V30 1750 H 162.222 -0.949461 -3.08521 0
M  V30 1751 H 161.274 -3.1646 -2.11086 0
M  V30 1752 H 162.586 -4.02382 -2.94771 0
M  V30 1753 H 161.74 -3.19979 -5.15459 0
M  V30 1754 H 160.479 -2.23715 -4.33362 0
M  V30 1755 H 159.484 -4.33579 -3.38067 0
M  V30 1756 H 160.709 -5.30921 -4.23438 0
M  V30 1757 H 158.655 -3.49318 -5.55259 0
M  V30 1758 H 158.572 -5.22219 -5.46647 0
M  V30 1759 H 159.84 -4.469 -6.38671 0
M  V30 1760 N 164.069 0.697108 -1.41344 0
M  V30 1761 C 165.315 1.4593 -1.40827 0
M  V30 1762 C 165.648 1.94193 -0.0167098 0
M  V30 1763 O 164.923 1.69425 0.955263 0
M  V30 1764 C 165.206 2.67229 -2.41373 0
M  V30 1765 C 165.059 2.24741 -3.8963 0
M  V30 1766 C 166.378 3.69423 -2.39196 0
M  V30 1767 H 163.497 0.529303 -0.512842 0
M  V30 1768 H 166.139 0.794112 -1.72609 0
M  V30 1769 H 164.289 3.23982 -2.14401 0
M  V30 1770 H 165.961 1.73327 -4.27499 0
M  V30 1771 H 164.204 1.56542 -4.0457 0
M  V30 1772 H 164.875 3.1177 -4.55525 0
M  V30 1773 H 167.351 3.2234 -2.63128 0
M  V30 1774 H 166.227 4.51907 -3.11563 0
M  V30 1775 H 166.488 4.19012 -1.41001 0
M  V30 1776 N 165.547 1.27147 0.931209 0
M  V30 1777 C 166.793 1.13446 1.68101 0
M  V30 1778 C 167.126 -0.319628 1.91552 0
M  V30 1779 O 166.401 -1.23407 1.50336 0
M  V30 1780 C 166.684 1.91482 3.0497 0
M  V30 1781 C 166.537 3.44855 2.88782 0
M  V30 1782 C 167.856 1.71651 4.05246 0
M  V30 1783 H 164.975 0.413498 0.610072 0
M  V30 1784 H 167.617 1.56261 1.08086 0
M  V30 1785 H 165.767 1.55095 3.56199 0
M  V30 1786 H 167.439 3.9105 2.44698 0
M  V30 1787 H 165.682 3.71373 2.24198 0
M  V30 1788 H 166.353 3.94694 3.85902 0
M  V30 1789 H 168.829 2.0337 3.63015 0
M  V30 1790 H 167.705 2.28651 4.99009 0
M  V30 1791 H 167.966 0.663555 4.37092 0
M  V30 1792 N 167.025 -1.13721 1.09112 0
M  V30 1793 C 168.25 -1.89314 0.847053 0
M  V30 1794 C 168.675 -1.78416 -0.595774 0
M  V30 1795 O 168.033 -1.12942 -1.41823 0
M  V30 1796 C 168.081 -3.3701 1.28284 0
M  V30 1797 O 167.185 -4.10054 0.439267 0
M  V30 1798 H 166.526 -0.588745 0.307044 0
M  V30 1799 H 169.056 -1.43902 1.45442 0
M  V30 1800 H 169.066 -3.87834 1.26683 0
M  V30 1801 H 167.741 -3.4426 2.33363 0
M  V30 1802 H 166.318 -3.69266 0.519312 0
M  V30 1803 N 168.503 -0.877838 -1.30888 0
M  V30 1804 C 169.433 -0.35534 -2.3078 0
M  V30 1805 C 170.414 0.557994 -1.60687 0
M  V30 1806 O 171.599 0.473355 -1.88343 0
M  V30 1807 C 168.729 0.437221 -3.44537 0
M  V30 1808 C 167.683 -0.383715 -4.26276 0
M  V30 1809 C 167.009 0.535014 -5.32017 0
M  V30 1810 C 168.309 -1.62201 -4.96476 0
M  V30 1811 H 170.003 -1.19007 -2.74732 0
M  V30 1812 H 167.549 -0.573698 -1.32078 0
M  V30 1813 H 169.502 0.813334 -4.13477 0
M  V30 1814 H 168.226 1.30553 -2.99372 0
M  V30 1815 H 166.885 -0.741874 -3.59015 0
M  V30 1816 H 166.533 1.40083 -4.831 0
M  V30 1817 H 166.233 -0.0104211 -5.87599 0
M  V30 1818 H 167.757 0.907799 -6.03814 0
M  V30 1819 H 169.171 -1.31689 -5.5797 0
M  V30 1820 H 167.568 -2.10711 -5.61891 0
M  V30 1821 H 168.638 -2.37044 -4.23011 0
M  V30 1822 N 169.982 1.44106 -0.638065 0
M  V30 1823 C 170.912 2.33448 0.0494287 0
M  V30 1824 C 171.893 1.48606 0.827672 0
M  V30 1825 O 173.078 1.77308 0.792173 0
M  V30 1826 C 170.208 3.31771 1.02691 0
M  V30 1827 C 169.162 4.26485 0.359823 0
M  V30 1828 C 168.488 5.14729 1.44769 0
M  V30 1829 C 169.788 5.17056 -0.738296 0
M  V30 1830 H 171.482 2.91183 -0.696636 0
M  V30 1831 H 169.028 1.40014 -0.336456 0
M  V30 1832 H 170.981 3.93161 1.51666 0
M  V30 1833 H 169.705 2.7226 1.80395 0
M  V30 1834 H 168.364 3.66437 -0.10934 0
M  V30 1835 H 168.012 4.51566 2.21578 0
M  V30 1836 H 167.712 5.78913 1.00668 0
M  V30 1837 H 169.236 5.78991 1.93911 0
M  V30 1838 H 170.65 5.72342 -0.331354 0
M  V30 1839 H 169.047 5.89879 -1.10286 0
M  V30 1840 H 170.117 4.57652 -1.60258 0
M  V30 1841 N 171.46 0.379036 1.52974 0
M  V30 1842 C 172.407 -0.461048 2.26148 0
M  V30 1843 C 173.377 -1.06637 1.27349 0
M  V30 1844 O 174.562 -1.09633 1.56157 0
M  V30 1845 C 171.702 -1.58782 3.06402 0
M  V30 1846 C 170.815 -1.00636 4.20115 0
M  V30 1847 C 169.95 -2.10334 4.87784 0
M  V30 1848 C 168.989 -1.49724 5.93506 0
M  V30 1849 N 168.126 -2.5331 6.54812 0
M  V30 1850 H 172.966 0.169429 2.97518 0
M  V30 1851 H 170.503 0.0953806 1.4679 0
M  V30 1852 H 172.461 -2.25174 3.51215 0
M  V30 1853 H 171.091 -2.18876 2.37261 0
M  V30 1854 H 170.143 -0.232332 3.7969 0
M  V30 1855 H 171.455 -0.523343 4.96047 0
M  V30 1856 H 170.609 -2.84519 5.35849 0
M  V30 1857 H 169.348 -2.61992 4.11353 0
M  V30 1858 H 168.353 -0.740598 5.44789 0
M  V30 1859 H 169.578 -0.988732 6.71864 0
M  V30 1860 H 167.524 -3.04156 5.81227 0
M  V30 1861 H 167.441 -2.09734 7.26325 0
M  V30 1862 H 168.709 -3.27155 7.07524 0
M  V30 1863 N 172.938 -1.57226 0.108567 0
M  V30 1864 C 173.848 -2.18292 -0.859401 0
M  V30 1865 C 174.864 -1.15612 -1.30038 0
M  V30 1866 O 176.04 -1.48039 -1.36552 0
M  V30 1867 C 173.105 -2.762 -2.09558 0
M  V30 1868 C 172.166 -3.93881 -1.70752 0
M  V30 1869 C 171.399 -4.49018 -2.88477 0
M  V30 1870 O 171.622 -4.03068 -4.036 0
M  V30 1871 O 170.556 -5.39852 -2.66164 0
M  V30 1872 H 174.382 -3.01441 -0.369769 0
M  V30 1873 H 171.967 -1.48945 -0.1165 0
M  V30 1874 H 173.849 -3.13156 -2.81978 0
M  V30 1875 H 172.524 -1.96089 -2.57548 0
M  V30 1876 H 171.431 -3.61713 -0.954714 0
M  V30 1877 H 172.764 -4.75396 -1.27513 0
M  V30 1878 N 174.416 0.165178 -1.56732 0
M  V30 1879 C 175.662 0.882112 -1.82611 0
M  V30 1880 C 175.995 1.81628 -0.687378 0
M  V30 1881 O 175.27 1.92009 0.310267 0
M  V30 1882 C 175.553 1.67245 -3.18906 0
M  V30 1883 C 175.406 0.760987 -4.43316 0
M  V30 1884 C 176.725 2.63884 -3.52212 0
M  V30 1885 H 173.844 0.319242 -0.664269 0
M  V30 1886 H 176.486 0.148052 -1.89422 0
M  V30 1887 H 174.636 2.29824 -3.1323 0
M  V30 1888 H 176.308 0.147596 -4.61064 0
M  V30 1889 H 174.551 0.0694102 -4.33744 0
M  V30 1890 H 175.222 1.34962 -5.35247 0
M  V30 1891 H 177.698 2.11429 -3.58381 0
M  V30 1892 H 176.574 3.16245 -4.48643 0
M  V30 1893 H 176.835 3.44377 -2.77231 0
M  V30 1894 N 175.894 1.51508 0.433938 0
M  V30 1895 C 176.842 1.73646 1.54757 0
M  V30 1896 C 177.836 0.602854 1.5831 0
M  V30 1897 O 179.042 0.784318 1.62014 0
M  V30 1898 H 175.417 0.548718 0.51421 0
M  V30 1899 H 177.388 2.66991 1.33261 0
M  V30 1900 C 176.137 1.88172 2.92381 0
M  V30 1901 H 175.46 2.74808 2.90381 0
M  V30 1902 H 176.9 2.07672 3.6966 0
M  V30 1903 C 175.359 0.64239 3.30719 0
M  V30 1904 O 175.889 -0.201362 4.01195 0
M  V30 1905 N 174.095 0.485489 2.86516 0
M  V30 1906 H 173.642 1.17318 2.29334 0
M  V30 1907 H 173.6 -0.342482 3.12529 0
M  V30 1908 N 177.372 -0.689602 1.41712 0
M  V30 1909 C 178.619 -1.44966 1.4139 0
M  V30 1910 C 178.947 -1.94484 0.025105 0
M  V30 1911 O 178.202 -1.70307 -0.964048 0
M  V30 1912 C 178.501 -2.67298 2.37247 0
M  V30 1913 C 178.167 -2.36405 3.83958 0
M  V30 1914 C 176.829 -2.27691 4.23923 0
M  V30 1915 C 179.181 -2.11043 4.76561 0
M  V30 1916 C 176.509 -1.91719 5.54492 0
M  V30 1917 C 178.861 -1.76578 6.07456 0
M  V30 1918 C 177.525 -1.66363 6.46436 0
M  V30 1919 H 176.795 -0.53047 0.517381 0
M  V30 1920 H 179.442 -0.787655 1.74552 0
M  V30 1921 H 177.747 -3.38461 1.9736 0
M  V30 1922 H 179.444 -3.25452 2.34269 0
M  V30 1923 H 176.034 -2.44085 3.52308 0
M  V30 1924 H 180.218 -2.16717 4.46483 0
M  V30 1925 H 175.474 -1.82367 5.83568 0
M  V30 1926 H 179.648 -1.55974 6.78708 0
M  V30 1927 H 177.275 -1.38258 7.47522 0
M  V30 1928 N 178.85 -1.27639 -0.924453 0
M  V30 1929 C 180.08 -1.16819 -1.70402 0
M  V30 1930 C 180.488 0.277191 -1.87158 0
M  V30 1931 O 179.831 1.20025 -1.39067 0
M  V30 1932 C 179.893 -1.78305 -3.12166 0
M  V30 1933 C 179.557 -3.27502 -3.18734 0
M  V30 1934 C 180.554 -4.2409 -3.00738 0
M  V30 1935 C 178.239 -3.68269 -3.4159 0
M  V30 1936 C 180.233 -5.59422 -3.05492 0
M  V30 1937 C 177.92 -5.0373 -3.45977 0
M  V30 1938 C 178.918 -5.99116 -3.27946 0
M  V30 1939 O 178.606 -7.32108 -3.32074 0
M  V30 1940 H 178.338 -0.406931 -0.539799 0
M  V30 1941 H 180.892 -1.69078 -1.16626 0
M  V30 1942 H 179.122 -1.20528 -3.67437 0
M  V30 1943 H 180.811 -1.62154 -3.72103 0
M  V30 1944 H 181.577 -3.93931 -2.82919 0
M  V30 1945 H 177.456 -2.94496 -3.54673 0
M  V30 1946 H 181 -6.33852 -2.91337 0
M  V30 1947 H 176.897 -5.33543 -3.63321 0
M  V30 1948 H 177.665 -7.40598 -3.48507 0
M  V30 1949 N 180.328 1.1314 -1.09713 0
M  V30 1950 C 181.553 1.88862 -0.857081 0
M  V30 1951 C 181.978 1.78729 0.586304 0
M  V30 1952 O 181.336 1.13692 1.41222 0
M  V30 1953 C 181.384 3.36325 -1.30069 0
M  V30 1954 O 180.488 4.09815 -0.461007 0
M  V30 1955 H 179.829 0.587108 -0.310162 0
M  V30 1956 H 182.359 1.43129 -1.46203 0
M  V30 1957 H 182.369 3.87157 -1.28738 0
M  V30 1958 H 181.044 3.43017 -2.35185 0
M  V30 1959 H 179.621 3.68986 -0.538888 0
M  V30 1960 N 181.806 0.884767 1.30421 0
M  V30 1961 C 183.054 0.502112 1.95763 0
M  V30 1962 C 183.375 -0.951815 1.70192 0
M  V30 1963 O 182.645 -1.6692 1.0254 0
M  V30 1964 H 181.225 0.182694 0.724315 0
M  V30 1965 H 183.887 1.1278 1.58955 0
M  V30 1966 H 182.983 0.672188 3.04775 0
M  V30 1967 N 183.284 -1.43765 0.645699 0
M  V30 1968 C 184.533 -2.01116 0.153412 0
M  V30 1969 C 184.846 -1.51493 -1.23731 0
M  V30 1970 O 186.052 -2.01067 -1.8244 0
M  V30 1971 C 184.508 -3.59206 0.223473 0
M  V30 1972 C 184.116 -4.17823 1.61642 0
M  V30 1973 C 185.86 -4.23972 -0.211597 0
M  V30 1974 C 183.767 -5.68183 1.64081 0
M  V30 1975 H 182.697 -0.752093 0.0535891 0
M  V30 1976 H 185.348 -1.6482 0.806633 0
M  V30 1977 H 183.73 -3.92867 -0.497118 0
M  V30 1978 H 184.904 -3.95674 2.36176 0
M  V30 1979 H 183.219 -3.65399 1.99681 0
M  V30 1980 H 185.816 -5.34275 -0.213112 0
M  V30 1981 H 186.159 -3.97352 -1.24165 0
M  V30 1982 H 186.692 -3.95166 0.456988 0
M  V30 1983 H 183.431 -5.99559 2.64971 0
M  V30 1984 H 182.951 -5.9241 0.938611 0
M  V30 1985 H 184.63 -6.32085 1.3812 0
M  V30 1986 N 184.763 -0.387143 -1.52771 0
M  V30 1987 C 185.693 0.440551 -2.29306 0
M  V30 1988 C 186.674 1.06535 -1.32606 0
M  V30 1989 O 187.859 1.07853 -1.61497 0
M  V30 1990 C 184.989 1.56919 -3.09829 0
M  V30 1991 C 183.943 1.07054 -4.14395 0
M  V30 1992 C 183.269 2.29109 -4.83129 0
M  V30 1993 C 184.569 0.140015 -5.22112 0
M  V30 1994 H 186.263 -0.198026 -2.98744 0
M  V30 1995 H 183.809 -0.09668 -1.43675 0
M  V30 1996 H 185.762 2.15503 -3.62128 0
M  V30 1997 H 184.486 2.23532 -2.3812 0
M  V30 1998 H 183.145 0.507247 -3.63074 0
M  V30 1999 H 182.793 2.94227 -4.0797 0
M  V30 2000 H 182.493 1.96406 -5.53804 0
M  V30 2001 H 184.017 2.88339 -5.38231 0
M  V30 2002 H 185.431 0.633978 -5.69784 0
M  V30 2003 H 183.828 -0.0971485 -6.00021 0
M  V30 2004 H 184.898 -0.811711 -4.78058 0
M  V30 2005 N 186.241 1.57166 -0.116904 0
M  V30 2006 C 187.171 2.18222 0.830759 0
M  V30 2007 C 188.152 1.12167 1.27877 0
M  V30 2008 O 189.337 1.40394 1.34176 0
M  V30 2009 C 186.467 2.77996 2.08172 0
M  V30 2010 C 185.421 3.89614 1.77157 0
M  V30 2011 C 184.747 4.36187 3.09265 0
M  V30 2012 C 186.047 5.1181 1.04151 0
M  V30 2013 H 187.741 2.97664 0.321992 0
M  V30 2014 H 185.287 1.4318 0.153434 0
M  V30 2015 H 187.24 3.19366 2.74924 0
M  V30 2016 H 185.964 1.9584 2.6137 0
M  V30 2017 H 184.623 3.48816 1.12796 0
M  V30 2018 H 184.271 3.50893 3.60393 0
M  V30 2019 H 183.971 5.11455 2.89288 0
M  V30 2020 H 185.495 4.80207 3.77139 0
M  V30 2021 H 186.909 5.50214 1.61052 0
M  V30 2022 H 185.306 5.92648 0.942762 0
M  V30 2023 H 186.376 4.84892 0.0279022 0
M  V30 2024 N 187.719 -0.156864 1.56817 0
M  V30 2025 C 188.649 -1.19589 2.00551 0
M  V30 2026 C 189.63 -1.4536 0.883426 0
M  V30 2027 O 190.815 -1.56449 1.15054 0
M  V30 2028 C 187.945 -2.53143 2.37773 0
M  V30 2029 C 186.899 -2.41913 3.53075 0
M  V30 2030 C 186.225 -3.80088 3.76081 0
M  V30 2031 C 187.525 -1.91157 4.86062 0
M  V30 2032 H 189.219 -0.832293 2.87599 0
M  V30 2033 H 186.765 -0.398918 1.38364 0
M  V30 2034 H 188.718 -3.26047 2.66967 0
M  V30 2035 H 187.442 -2.91319 1.4765 0
M  V30 2036 H 186.101 -1.71462 3.24031 0
M  V30 2037 H 185.749 -4.15683 2.83225 0
M  V30 2038 H 185.449 -3.73439 4.53671 0
M  V30 2039 H 186.973 -4.54556 4.0769 0
M  V30 2040 H 188.387 -2.53846 5.14038 0
M  V30 2041 H 186.784 -1.95422 5.67389 0
M  V30 2042 H 187.854 -0.866673 4.77092 0
M  V30 2043 N 189.197 -1.51736 -0.425897 0
M  V30 2044 C 190.16 -1.73271 -1.50032 0
M  V30 2045 C 191.16 -0.602639 -1.4908 0
M  V30 2046 O 192.35 -0.87033 -1.509 0
M  V30 2047 C 189.482 -1.79969 -2.89523 0
M  V30 2048 H 190.675 -2.69172 -1.32237 0
M  V30 2049 H 188.228 -1.41899 -0.65532 0
M  V30 2050 H 188.963 -0.859241 -3.1271 0
M  V30 2051 H 188.748 -2.62109 -2.91619 0
M  V30 2052 H 190.238 -1.9843 -3.67444 0
M  V30 2053 N 190.675 0.682077 -1.42076 0
M  V30 2054 C 191.915 1.45424 -1.43636 0
M  V30 2055 C 192.279 1.91939 -0.0484001 0
M  V30 2056 O 193.48 2.6873 0.0612514 0
M  V30 2057 C 191.751 2.62427 -2.42625 0
M  V30 2058 S 193.31 3.51379 -2.62827 0
M  V30 2059 H 190.128 0.496779 -0.508657 0
M  V30 2060 H 192.73 0.794645 -1.78621 0
M  V30 2061 H 191.434 2.26481 -3.42249 0
M  V30 2062 H 190.965 3.33266 -2.09039 0
M  V30 2063 H 192.98 4.58141 -1.9058 0
M  V30 2064 N 192.153 1.28127 0.917671 0
M  V30 2065 C 193.402 1.14432 1.66097 0
M  V30 2066 C 193.715 -0.307247 1.93172 0
M  V30 2067 O 194.921 -0.565259 2.65551 0
M  V30 2068 C 193.377 2.00015 2.99202 0
M  V30 2069 C 192.985 3.49889 2.79789 0
M  V30 2070 C 194.729 1.94996 3.77064 0
M  V30 2071 C 192.636 4.27636 4.08511 0
M  V30 2072 H 191.566 0.424662 0.62304 0
M  V30 2073 H 194.217 1.52628 1.01868 0
M  V30 2074 H 192.599 1.54672 3.64544 0
M  V30 2075 H 193.773 4.03162 2.23152 0
M  V30 2076 H 192.088 3.56392 2.15345 0
M  V30 2077 H 194.685 2.50354 4.72469 0
M  V30 2078 H 195.028 0.925819 4.05875 0
M  V30 2079 H 195.561 2.38287 3.18534 0
M  V30 2080 H 192.3 5.30615 3.84874 0
M  V30 2081 H 191.82 3.79137 4.64774 0
M  V30 2082 H 193.499 4.37346 4.76799 0
M  V30 2083 N 193.631 -1.12557 1.10312 0
M  V30 2084 C 194.856 -1.88405 0.867085 0
M  V30 2085 C 195.281 -1.79038 -0.576817 0
M  V30 2086 O 194.639 -1.14439 -1.40618 0
M  V30 2087 C 194.687 -3.3563 1.31851 0
M  V30 2088 O 193.791 -4.09565 0.482734 0
M  V30 2089 H 193.132 -0.585455 0.313271 0
M  V30 2090 H 195.662 -1.42352 1.4696 0
M  V30 2091 H 195.672 -3.86469 1.3079 0
M  V30 2092 H 194.347 -3.41765 2.37001 0
M  V30 2093 H 192.924 -3.68695 0.558448 0
M  V30 2094 N 195.109 -0.891671 -1.2995 0
M  V30 2095 C 196.355 -0.514261 -1.96171 0
M  V30 2096 C 196.688 0.935506 -1.70182 0
M  V30 2097 O 195.963 1.66204 -1.01028 0
M  V30 2098 C 196.246 -0.797719 -3.51153 0
M  V30 2099 C 196.099 -2.2986 -3.86632 0
M  V30 2100 C 197.418 -0.278749 -4.39216 0
M  V30 2101 H 194.537 -0.188314 -0.712535 0
M  V30 2102 H 197.179 -1.11689 -1.53706 0
M  V30 2103 H 195.329 -0.284826 -3.87455 0
M  V30 2104 H 197.001 -2.88042 -3.60319 0
M  V30 2105 H 195.244 -2.76257 -3.34462 0
M  V30 2106 H 195.915 -2.44753 -4.94773 0
M  V30 2107 H 198.391 -0.717825 -4.09862 0
M  V30 2108 H 197.267 -0.506353 -5.46559 0
M  V30 2109 H 197.528 0.820266 -4.34424 0
M  V30 2110 N 196.587 1.43421 -0.653314 0
M  V30 2111 C 197.864 1.95361 -0.0966581 0
M  V30 2112 C 198.244 1.59461 1.38331 0
M  V30 2113 O 197.592 0.879777 2.10884 0
M  V30 2114 C 197.802 3.47311 -0.342988 0
M  V30 2115 C 199.15 4.23875 -0.24798 0
M  V30 2116 O 200.174 3.55133 -0.275553 0
M  V30 2117 O 199.033 5.4623 -0.171771 0
M  V30 2118 H 196.127 0.826945 0.00956291 0
M  V30 2119 H 198.673 1.5336 -0.726558 0
M  V30 2120 H 197.445 3.66569 -1.36906 0
M  V30 2121 H 197.068 3.9631 0.319975 0
M  V30 2122 N 198.065 0.39524 1.52563 0
M  V30 2123 C 199.481 0.0454682 1.59535 0
M  V30 2124 C 199.681 -1.44056 1.4089 0
M  V30 2125 O 198.737 -2.20579 1.22888 0
M  V30 2126 C 200.05 0.527963 2.96029 0
M  V30 2127 C 201.598 0.484733 3.09224 0
M  V30 2128 C 202.073 0.943512 4.48176 0
M  V30 2129 N 203.564 0.899765 4.54377 0
M  V30 2130 C 204.299 1.22609 5.60138 0
M  V30 2131 N 203.795 1.62319 6.73516 0
M  V30 2132 N 205.588 1.14696 5.50274 0
M  V30 2133 H 197.739 1.36261 1.62931 0
M  V30 2134 H 200.002 0.558887 0.765735 0
M  V30 2135 H 199.708 1.56607 3.14908 0
M  V30 2136 H 199.582 -0.0698056 3.77135 0
M  V30 2137 H 201.969 -0.544298 2.90037 0
M  V30 2138 H 202.05 1.11838 2.30056 0
M  V30 2139 H 201.694 1.9708 4.68104 0
M  V30 2140 H 201.624 0.286817 5.25818 0
M  V30 2141 H 204.115 0.607632 3.72983 0
M  V30 2142 H 204.428 1.85567 7.5019 0
M  V30 2143 H 202.773 1.66211 6.74833 0
M  V30 2144 H 205.964 0.835701 4.6058 0
M  V30 2145 H 206.137 1.40459 6.32594 0
M  V30 2146 N 199.544 -1.57102 0.125237 0
M  V30 2147 C 200.774 -1.99472 -0.538015 0
M  V30 2148 C 201.182 -1.00395 -1.60366 0
M  V30 2149 O 200.525 0.0103875 -1.83697 0
M  V30 2150 C 200.587 -3.38262 -1.21734 0
M  V30 2151 C 200.251 -4.56021 -0.298897 0
M  V30 2152 C 201.248 -5.17817 0.464943 0
M  V30 2153 C 198.933 -5.01869 -0.208149 0
M  V30 2154 C 200.927 -6.23852 1.3072 0
M  V30 2155 C 198.614 -6.07763 0.637736 0
M  V30 2156 C 199.612 -6.68622 1.39403 0
M  V30 2157 O 199.3 -7.7247 2.22586 0
M  V30 2158 H 199.032 -0.659934 -0.146501 0
M  V30 2159 H 201.586 -2.04321 0.210267 0
M  V30 2160 H 199.816 -3.30185 -2.01282 0
M  V30 2161 H 201.505 -3.6488 -1.77813 0
M  V30 2162 H 202.271 -4.83308 0.404741 0
M  V30 2163 H 198.15 -4.54241 -0.786522 0
M  V30 2164 H 201.694 -6.71284 1.898 0
M  V30 2165 H 197.591 -6.41701 0.699309 0
M  V30 2166 H 198.359 -7.89595 2.15596 0
M  V30 2167 N 201.022 0.148545 -1.56898 0
M  V30 2168 C 201.952 1.18524 -2.01182 0
M  V30 2169 C 202.933 1.4489 -0.891123 0
M  V30 2170 O 204.118 1.55836 -1.15882 0
M  V30 2171 C 201.248 2.51879 -2.39112 0
M  V30 2172 C 200.202 2.40038 -3.54353 0
M  V30 2173 C 199.528 3.78089 -3.78091 0
M  V30 2174 C 200.828 1.88577 -4.87069 0
M  V30 2175 H 202.522 0.817029 -2.88036 0
M  V30 2176 H 200.068 0.391575 -1.38574 0
M  V30 2177 H 202.021 3.24627 -2.68692 0
M  V30 2178 H 200.745 2.90532 -1.49193 0
M  V30 2179 H 199.404 1.69742 -3.24936 0
M  V30 2180 H 199.052 4.14175 -2.85426 0
M  V30 2181 H 198.752 3.71028 -4.55645 0
M  V30 2182 H 200.276 4.52387 -4.10095 0
M  V30 2183 H 201.69 2.51117 -5.15377 0
M  V30 2184 H 200.087 1.9241 -5.68417 0
M  V30 2185 H 201.157 0.84136 -4.77545 0
M  V30 2186 N 202.5 1.5196 0.417844 0
M  V30 2187 C 203.463 1.74065 1.49111 0
M  V30 2188 C 204.463 0.610537 1.48758 0
M  V30 2189 O 205.653 0.87832 1.50437 0
M  V30 2190 C 202.785 1.81502 2.88565 0
M  V30 2191 H 203.978 2.69869 1.30807 0
M  V30 2192 H 201.531 1.42244 0.647785 0
M  V30 2193 H 202.266 0.875813 3.1225 0
M  V30 2194 H 202.051 2.63651 2.90225 0
M  V30 2195 H 203.541 2.00376 3.66387 0
M  V30 2196 N 203.978 -0.674533 1.42435 0
M  V30 2197 C 205.227 -1.43034 1.42212 0
M  V30 2198 C 205.54 -1.95555 0.0420788 0
M  V30 2199 O 206.746 -2.71374 -0.0827558 0
M  V30 2200 C 205.202 -2.58748 2.50155 0
M  V30 2201 C 204.81 -2.12925 3.94166 0
M  V30 2202 C 206.554 -3.36257 2.59098 0
M  V30 2203 C 204.461 -3.25723 4.93618 0
M  V30 2204 H 203.391 -0.537345 0.528939 0
M  V30 2205 H 206.042 -0.73024 1.68344 0
M  V30 2206 H 204.424 -3.31128 2.17188 0
M  V30 2207 H 205.598 -1.47697 4.36488 0
M  V30 2208 H 203.913 -1.48354 3.89076 0
M  V30 2209 H 206.51 -4.20264 3.30578 0
M  V30 2210 H 206.853 -3.82866 1.63461 0
M  V30 2211 H 207.386 -2.70947 2.9126 0
M  V30 2212 H 204.125 -2.84105 5.90732 0
M  V30 2213 H 203.645 -3.89732 4.55926 0
M  V30 2214 H 205.324 -3.91186 5.15347 0
M  V30 2215 N 205.456 -1.28612 -0.910864 0
M  V30 2216 C 206.702 -1.16106 -1.66274 0
M  V30 2217 C 207.035 0.289113 -1.92036 0
M  V30 2218 O 206.31 1.21 -1.52281 0
M  V30 2219 C 206.593 -1.96309 -3.01885 0
M  V30 2220 C 206.446 -3.49405 -2.8326 0
M  V30 2221 C 207.765 -1.78076 -4.02463 0
M  V30 2222 H 204.884 -0.423152 -0.603417 0
M  V30 2223 H 207.526 -1.57961 -1.05586 0
M  V30 2224 H 205.676 -1.60742 -3.53687 0
M  V30 2225 H 207.348 -3.94894 -2.38446 0
M  V30 2226 H 205.591 -3.74893 -2.18261 0
M  V30 2227 H 206.262 -4.00784 -3.79574 0
M  V30 2228 H 208.738 -2.0912 -3.59733 0
M  V30 2229 H 207.614 -2.36561 -4.95308 0
M  V30 2230 H 207.875 -0.733008 -4.35981 0
M  V30 2231 N 206.934 1.1197 -1.10907 0
M  V30 2232 C 207.884 2.15946 -0.731538 0
M  V30 2233 C 208.868 1.58758 0.261699 0
M  V30 2234 O 210.06 1.76863 0.0696722 0
M  V30 2235 C 207.189 3.42877 -0.170299 0
M  V30 2236 C 206.275 4.07037 -1.19087 0
M  V30 2237 N 206.666 4.46135 -2.38322 0
M  V30 2238 C 204.964 4.33884 -1.03252 0
M  V30 2239 C 205.665 4.96331 -3.03366 0
M  V30 2240 N 204.641 4.9214 -2.30865 0
M  V30 2241 H 208.443 2.43947 -1.63912 0
M  V30 2242 H 205.957 1.28927 -0.987505 0
M  V30 2243 H 207.954 4.16732 0.118271 0
M  V30 2244 H 206.614 3.16343 0.731935 0
M  V30 2245 H 207.625 4.38345 -2.75815 0
M  V30 2246 H 204.302 4.17084 -0.186256 0
M  V30 2247 H 205.692 5.36257 -4.04818 0
M  V30 2248 N 208.412 0.89855 1.29475 0
M  V30 2249 C 209.375 0.380272 2.26023 0
M  V30 2250 C 210.375 -0.484891 1.53315 0
M  V30 2251 O 211.565 -0.290108 1.71767 0
M  V30 2252 C 208.697 -0.45651 3.3783 0
M  V30 2253 H 209.89 1.23295 2.73383 0
M  V30 2254 H 207.443 0.676589 1.40897 0
M  V30 2255 H 208.178 -1.32922 2.95808 0
M  V30 2256 H 207.963 0.163393 3.91759 0
M  V30 2257 H 209.453 -0.810466 4.0966 0
M  V30 2258 N 209.89 -1.43072 0.660911 0
M  V30 2259 C 211.118 -2.06067 0.185422 0
M  V30 2260 C 211.533 -1.49582 -1.15198 0
M  V30 2261 O 210.89 -0.630134 -1.71276 0
M  V30 2262 C 210.941 -3.61371 0.0966523 0
M  V30 2263 O 210.662 -4.15758 1.38119 0
M  V30 2264 C 212.163 -4.41455 -0.403996 0
M  V30 2265 H 209.383 -0.664459 0.0934604 0
M  V30 2266 H 211.927 -1.83447 0.90373 0
M  V30 2267 H 210.082 -3.8315 -0.572259 0
M  V30 2268 H 210.496 -5.09499 1.24542 0
M  V30 2269 H 211.97 -5.50437 -0.415045 0
M  V30 2270 H 212.447 -4.15036 -1.43674 0
M  V30 2271 H 213.053 -4.24663 0.232691 0
M  V30 2272 N 211.368 -0.403325 -1.52352 0
M  V30 2273 C 212.784 -0.0539281 -1.59509 0
M  V30 2274 C 212.984 1.43307 -1.41652 0
M  V30 2275 O 212.04 2.19924 -1.24056 0
M  V30 2276 C 213.353 -0.543654 -2.95745 0
M  V30 2277 C 214.901 -0.501125 -3.08962 0
M  V30 2278 C 215.376 -0.967267 -4.47669 0
M  V30 2279 N 216.867 -0.923849 -4.53893 0
M  V30 2280 C 217.602 -1.25578 -5.5948 0
M  V30 2281 N 217.098 -1.65889 -6.72646 0
M  V30 2282 N 218.891 -1.17613 -5.49658 0
M  V30 2283 H 211.042 -1.37123 -1.62206 0
M  V30 2284 H 213.305 -0.56294 -0.76276 0
M  V30 2285 H 213.011 -1.58275 -3.14073 0
M  V30 2286 H 212.885 0.0498042 -3.77167 0
M  V30 2287 H 215.272 0.528909 -2.90321 0
M  V30 2288 H 215.353 -1.13056 -2.2946 0
M  V30 2289 H 214.997 -1.9956 -4.67053 0
M  V30 2290 H 214.927 -0.314698 -5.25659 0
M  V30 2291 H 217.418 -0.627403 -3.72655 0
M  V30 2292 H 217.731 -1.89543 -7.49195 0
M  V30 2293 H 216.076 -1.69787 -6.73942 0
M  V30 2294 H 219.267 -0.860115 -4.6013 0
M  V30 2295 H 219.44 -1.43812 -6.3184 0
M  V30 2296 N 212.846 1.57033 -0.133567 0
M  V30 2297 C 214.074 2.00044 0.528195 0
M  V30 2298 C 214.489 1.01349 1.59291 0
M  V30 2299 O 213.846 0.00848369 1.82498 0
M  V30 2300 C 213.897 3.43018 1.1411 0
M  V30 2301 O 213.618 4.37939 0.11892 0
M  V30 2302 C 215.119 4.01237 1.88477 0
M  V30 2303 H 212.339 0.656517 0.138661 0
M  V30 2304 H 214.883 2.03267 -0.224196 0
M  V30 2305 H 213.038 3.40688 1.84418 0
M  V30 2306 H 213.452 5.21436 0.56613 0
M  V30 2307 H 214.926 5.03314 2.26669 0
M  V30 2308 H 215.403 3.41193 2.76558 0
M  V30 2309 H 216.009 4.07156 1.22898 0
M  V30 2310 N 214.325 -0.140222 1.56975 0
M  V30 2311 C 215.255 -1.17456 2.01808 0
M  V30 2312 C 216.236 -1.44415 0.898794 0
M  V30 2313 O 217.421 -1.5522 1.16707 0
M  V30 2314 C 214.551 -2.50607 2.40444 0
M  V30 2315 C 213.505 -2.38155 3.55621 0
M  V30 2316 C 212.831 -3.76078 3.80091 0
M  V30 2317 C 214.131 -1.85991 4.88062 0
M  V30 2318 H 215.825 -0.801743 2.88466 0
M  V30 2319 H 213.371 -0.38422 1.38779 0
M  V30 2320 H 215.324 -3.23197 2.7041 0
M  V30 2321 H 214.048 -2.89737 1.50732 0
M  V30 2322 H 212.707 -1.68016 3.25832 0
M  V30 2323 H 212.355 -4.12656 2.87618 0
M  V30 2324 H 212.055 -3.68606 4.57606 0
M  V30 2325 H 213.579 -4.50206 4.12488 0
M  V30 2326 H 214.993 -2.4838 5.16701 0
M  V30 2327 H 213.39 -1.89393 5.6943 0
M  V30 2328 H 214.46 -0.816023 4.77984 0
M  V30 2329 N 215.803 -1.52179 -0.40978 0
M  V30 2330 C 217.031 -1.70054 -1.17853 0
M  V30 2331 C 217.446 -0.409735 -1.843 0
M  V30 2332 O 216.803 0.614183 -1.71855 0
M  V30 2333 C 216.854 -2.83568 -2.24213 0
M  V30 2334 O 216.575 -4.0765 -1.60478 0
M  V30 2335 C 218.076 -3.12947 -3.13973 0
M  V30 2336 H 215.296 -0.569917 -0.354169 0
M  V30 2337 H 217.84 -1.98734 -0.482198 0
M  V30 2338 H 215.995 -2.57409 -2.89516 0
M  V30 2339 H 216.409 -4.70899 -2.30986 0
M  V30 2340 H 217.883 -3.95889 -3.84677 0
M  V30 2341 H 218.36 -2.26472 -3.76307 0
M  V30 2342 H 218.966 -3.40868 -2.5434 0
M  V30 2343 N 217.281 0.66697 -1.42791 0
M  V30 2344 C 218.213 1.7925 -1.42836 0
M  V30 2345 C 219.226 1.59496 -0.326333 0
M  V30 2346 O 220.415 1.6847 -0.589916 0
M  V30 2347 C 217.515 3.16476 -1.21229 0
M  V30 2348 C 216.688 3.63011 -2.44013 0
M  V30 2349 C 215.747 4.78993 -2.17834 0
M  V30 2350 O 214.773 4.89137 -2.91091 0
M  V30 2351 N 215.975 5.68248 -1.18635 0
M  V30 2352 H 218.74 1.79695 -2.39854 0
M  V30 2353 H 216.301 0.850338 -1.37771 0
M  V30 2354 H 218.293 3.91734 -1.01621 0
M  V30 2355 H 216.863 3.10884 -0.32706 0
M  V30 2356 H 216.083 2.78346 -2.79137 0
M  V30 2357 H 217.371 3.90845 -3.25757 0
M  V30 2358 H 216.769 5.62712 -0.580615 0
M  V30 2359 H 215.326 6.43285 -1.05013 0
M  V30 2360 N 218.759 1.29093 0.90403 0
M  V30 2361 C 219.706 1.13853 2.00764 0
M  V30 2362 C 220.676 0.0330084 1.66067 0
M  V30 2363 O 221.861 0.199733 1.89752 0
M  V30 2364 C 219.001 0.816537 3.35301 0
M  V30 2365 C 218.114 2.00206 3.82807 0
M  V30 2366 C 217.249 1.61983 5.059 0
M  V30 2367 C 216.288 2.77143 5.45764 0
M  V30 2368 N 215.425 2.39346 6.60044 0
M  V30 2369 H 220.265 2.08276 2.13132 0
M  V30 2370 H 217.802 1.03648 1.04381 0
M  V30 2371 H 219.76 0.610557 4.12708 0
M  V30 2372 H 218.39 -0.090779 3.22672 0
M  V30 2373 H 217.442 2.31988 3.01473 0
M  V30 2374 H 218.754 2.86512 4.08304 0
M  V30 2375 H 217.908 1.37649 5.90879 0
M  V30 2376 H 216.647 0.728202 4.82233 0
M  V30 2377 H 215.652 3.02165 4.59322 0
M  V30 2378 H 216.877 3.66964 5.71414 0
M  V30 2379 H 214.823 1.52665 6.37989 0
M  V30 2380 H 214.74 3.19185 6.85315 0
M  V30 2381 H 216.008 2.1832 7.48303 0
M  V30 2382 N 220.237 -1.11381 1.11499 0
M  V30 2383 C 221.653 -1.35143 0.849031 0
M  V30 2384 C 221.853 -1.94515 -0.525938 0
M  V30 2385 O 220.909 -2.1785 -1.27662 0
M  V30 2386 C 222.222 -2.28249 1.95762 0
M  V30 2387 C 223.77 -2.41812 1.98736 0
M  V30 2388 C 224.245 -3.3824 3.088 0
M  V30 2389 N 225.736 -3.45803 3.08179 0
M  V30 2390 C 226.471 -4.20358 3.89982 0
M  V30 2391 N 225.967 -4.97884 4.8175 0
M  V30 2392 N 227.76 -4.15877 3.78157 0
M  V30 2393 H 219.911 -0.712062 2.00109 0
M  V30 2394 H 222.174 -0.376025 0.870235 0
M  V30 2395 H 221.88 -1.91817 2.94787 0
M  V30 2396 H 221.754 -3.28473 1.85433 0
M  V30 2397 H 224.141 -2.77518 1.00338 0
M  V30 2398 H 224.222 -1.41437 2.13141 0
M  V30 2399 H 223.866 -3.03261 4.07425 0
M  V30 2400 H 223.796 -4.38471 2.91635 0
M  V30 2401 H 226.287 -2.90506 2.41691 0
M  V30 2402 H 226.6 -5.52142 5.40702 0
M  V30 2403 H 224.945 -4.97043 4.85771 0
M  V30 2404 H 228.136 -3.544 3.05808 0
M  V30 2405 H 228.309 -4.73723 4.42143 0
M  V30 2406 N 221.715 -0.905404 -1.28997 0
M  V30 2407 C 222.665 -0.358713 -2.25161 0
M  V30 2408 C 223.649 0.524449 -1.52113 0
M  V30 2409 O 224.841 0.365534 -1.73184 0
M  V30 2410 C 221.97 0.407609 -3.40872 0
M  V30 2411 C 221.056 -0.490797 -4.21251 0
M  V30 2412 N 221.447 -1.60061 -4.79806 0
M  V30 2413 C 219.745 -0.289636 -4.45059 0
M  V30 2414 C 220.446 -2.15757 -5.40207 0
M  V30 2415 N 219.422 -1.44988 -5.23908 0
M  V30 2416 H 223.224 -1.20642 -2.67998 0
M  V30 2417 H 220.738 -0.757103 -1.43672 0
M  V30 2418 H 222.735 0.816046 -4.08835 0
M  V30 2419 H 221.395 1.25251 -2.9957 0
M  V30 2420 H 222.406 -1.98329 -4.7842 0
M  V30 2421 H 219.083 0.51643 -4.14294 0
M  V30 2422 H 220.473 -3.09069 -5.96595 0
M  V30 2423 N 223.193 1.4272 -0.668489 0
M  V30 2424 C 224.123 2.335 -0.000100175 0
M  V30 2425 C 225.104 1.50328 0.795964 0
M  V30 2426 O 226.289 1.78949 0.754385 0
M  V30 2427 C 223.419 3.33874 0.956302 0
M  V30 2428 C 222.373 4.27152 0.269278 0
M  V30 2429 C 221.699 5.17684 1.33818 0
M  V30 2430 C 222.999 5.15373 -0.847805 0
M  V30 2431 H 224.693 2.89639 -0.758244 0
M  V30 2432 H 222.239 1.39269 -0.366079 0
M  V30 2433 H 224.192 3.9629 1.43292 0
M  V30 2434 H 222.916 2.76025 1.74579 0
M  V30 2435 H 221.575 3.66123 -0.187042 0
M  V30 2436 H 221.223 4.56165 2.1195 0
M  V30 2437 H 220.923 5.80918 0.883659 0
M  V30 2438 H 222.447 5.82974 1.81586 0
M  V30 2439 H 223.861 5.7151 -0.452681 0
M  V30 2440 H 222.258 5.87407 -1.22773 0
M  V30 2441 H 223.328 4.5415 -1.69929 0
M  V30 2442 N 224.671 0.411399 1.52136 0
M  V30 2443 C 225.917 -0.163888 2.02137 0
M  V30 2444 C 226.25 -1.44597 1.29636 0
M  V30 2445 O 225.525 -1.90272 0.403353 0
M  V30 2446 C 225.808 -0.40927 3.57767 0
M  V30 2447 C 225.661 0.889643 4.40914 0
M  V30 2448 C 226.98 -1.19042 4.23694 0
M  V30 2449 H 224.099 -0.0580896 0.734707 0
M  V30 2450 H 226.741 0.54531 1.82007 0
M  V30 2451 H 224.891 -1.0134 3.7505 0
M  V30 2452 H 226.563 1.52575 4.35337 0
M  V30 2453 H 224.806 1.50011 4.07037 0
M  V30 2454 H 225.477 0.672314 5.4789 0
M  V30 2455 H 227.953 -0.678942 4.10524 0
M  V30 2456 H 226.829 -1.33086 5.32522 0
M  V30 2457 H 227.09 -2.21166 3.82803 0
M  V30 2458 N 226.149 -1.5696 0.141893 0
M  V30 2459 C 227.096 -2.16501 -0.799737 0
M  V30 2460 C 228.066 -1.09643 -1.24771 0
M  V30 2461 O 229.251 -1.3766 -1.32115 0
M  V30 2462 C 226.391 -2.78679 -2.03549 0
M  V30 2463 C 225.504 -3.99914 -1.6338 0
M  V30 2464 C 224.639 -4.50106 -2.82096 0
M  V30 2465 C 223.678 -5.63819 -2.38275 0
M  V30 2466 N 222.815 -6.08651 -3.49983 0
M  V30 2467 H 227.655 -2.96632 -0.285179 0
M  V30 2468 H 225.192 -1.46533 -0.129053 0
M  V30 2469 H 227.15 -3.1287 -2.75986 0
M  V30 2470 H 225.78 -2.012 -2.52425 0
M  V30 2471 H 224.832 -3.71735 -0.807279 0
M  V30 2472 H 226.144 -4.82311 -1.27192 0
M  V30 2473 H 225.298 -4.86325 -3.62729 0
M  V30 2474 H 224.037 -3.66706 -3.21525 0
M  V30 2475 H 223.042 -5.2718 -1.56081 0
M  V30 2476 H 224.267 -6.49 -1.99938 0
M  V30 2477 H 222.213 -5.28188 -3.89042 0
M  V30 2478 H 222.13 -6.85961 -3.17794 0
M  V30 2479 H 223.398 -6.49515 -4.30988 0
M  V30 2480 N 227.627 0.131896 -1.57047 0
M  V30 2481 C 228.874 0.841932 -1.84168 0
M  V30 2482 C 229.202 1.8048 -0.725066 0
M  V30 2483 O 228.457 1.93618 0.284692 0
M  V30 2484 C 228.756 1.63703 -3.17704 0
M  V30 2485 C 228.422 0.81961 -4.43388 0
M  V30 2486 C 227.084 0.594148 -4.77518 0
M  V30 2487 C 229.436 0.248977 -5.20605 0
M  V30 2488 C 226.764 -0.212409 -5.86315 0
M  V30 2489 C 229.116 -0.544701 -6.30251 0
M  V30 2490 C 227.78 -0.780599 -6.6292 0
M  V30 2491 H 227.05 0.308085 -0.673917 0
M  V30 2492 H 229.697 0.104867 -1.91213 0
M  V30 2493 H 228.002 2.44464 -3.06177 0
M  V30 2494 H 229.699 2.19015 -3.35907 0
M  V30 2495 H 226.289 1.00542 -4.16641 0
M  V30 2496 H 230.473 0.410408 -4.946 0
M  V30 2497 H 225.729 -0.404524 -6.1006 0
M  V30 2498 H 229.903 -0.993922 -6.89271 0
M  V30 2499 H 227.53 -1.40742 -7.47058 0
M  V30 2500 N 229.106 1.52395 0.401703 0
M  V30 2501 C 230.352 1.67065 1.14966 0
M  V30 2502 C 230.685 0.403052 1.89971 0
M  V30 2503 O 229.96 -0.598774 1.85054 0
M  V30 2504 C 230.243 2.8975 2.13815 0
M  V30 2505 C 230.096 4.26578 1.42658 0
M  V30 2506 C 231.415 3.07965 3.14397 0
M  V30 2507 H 228.534 0.607968 0.416587 0
M  V30 2508 H 231.176 1.84965 0.434511 0
M  V30 2509 H 229.326 2.74619 2.74803 0
M  V30 2510 H 230.998 4.53451 0.847329 0
M  V30 2511 H 229.241 4.27639 0.72849 0
M  V30 2512 H 229.912 5.08483 2.14823 0
M  V30 2513 H 232.388 3.22043 2.63491 0
M  V30 2514 H 231.264 3.95308 3.80819 0
M  V30 2515 H 231.525 2.21611 3.82545 0
M  V30 2516 N 230.584 -0.659388 1.43143 0
M  V30 2517 C 231.824 -1.43121 1.45931 0
M  V30 2518 C 232.188 -1.91838 0.0789298 0
M  V30 2519 O 233.389 -2.68794 -0.018491 0
M  V30 2520 C 231.66 -2.58534 2.46769 0
M  V30 2521 S 233.219 -3.47154 2.68384 0
M  V30 2522 H 230.037 -0.488624 0.516496 0
M  V30 2523 H 232.639 -0.766128 1.79863 0
M  V30 2524 H 231.343 -2.21007 3.45809 0
M  V30 2525 H 230.874 -3.29898 2.14315 0
M  V30 2526 H 232.889 -4.55051 1.97845 0
M  V30 2527 N 232.062 -1.29571 -0.897171 0
M  V30 2528 C 232.992 -1.17473 -2.01798 0
M  V30 2529 C 233.973 -0.068323 -1.69963 0
M  V30 2530 O 235.158 -0.248239 -1.92607 0
M  V30 2531 C 232.288 -0.853099 -3.36659 0
M  V30 2532 C 231.242 -1.9161 -3.82713 0
M  V30 2533 C 230.568 -1.44773 -5.14728 0
M  V30 2534 C 231.868 -3.32535 -4.02763 0
M  V30 2535 H 233.562 -2.11237 -2.12177 0
M  V30 2536 H 231.108 -1.01699 -1.01948 0
M  V30 2537 H 233.061 -0.755165 -4.14578 0
M  V30 2538 H 231.785 0.120236 -3.26379 0
M  V30 2539 H 230.444 -2.00346 -3.07013 0
M  V30 2540 H 230.092 -0.462995 -5.00865 0
M  V30 2541 H 229.792 -2.15865 -5.46513 0
M  V30 2542 H 231.316 -1.36334 -5.95185 0
M  V30 2543 H 232.73 -3.26626 -4.71156 0
M  V30 2544 H 231.127 -4.01607 -4.45905 0
M  V30 2545 H 232.197 -3.75326 -3.07016 0
M  V30 2546 N 233.54 1.10788 -1.12088 0
M  V30 2547 C 234.788 1.8231 -0.872205 0
M  V30 2548 C 235.109 1.85419 0.603709 0
M  V30 2549 O 234.379 1.32963 1.43867 0
M  V30 2550 H 232.959 0.675137 -0.319686 0
M  V30 2551 H 235.621 1.34068 -1.41463 0
M  V30 2552 H 234.717 2.85955 -1.25045 0
M  V30 2553 N 235.018 0.912232 1.28515 0
M  V30 2554 C 236.258 0.551677 1.96814 0
M  V30 2555 C 236.622 -0.887825 1.7024 0
M  V30 2556 O 237.823 -1.35588 2.32098 0
M  V30 2557 C 236.094 0.850555 3.47132 0
M  V30 2558 S 237.653 0.59619 4.34731 0
M  V30 2559 H 234.471 0.204191 0.681049 0
M  V30 2560 H 237.073 1.17736 1.56072 0
M  V30 2561 H 235.777 1.8962 3.63968 0
M  V30 2562 H 235.308 0.213471 3.9282 0
M  V30 2563 H 237.323 -0.553154 4.93107 0
M  V30 2564 N 236.496 -1.42363 0.676048 0
M  V30 2565 C 237.742 -2.02336 0.207809 0
M  V30 2566 C 238.097 -1.52506 -1.17302 0
M  V30 2567 O 237.39 -0.718048 -1.77636 0
M  V30 2568 C 237.584 -3.56929 0.183431 0
M  V30 2569 C 237.413 -4.21762 1.56036 0
M  V30 2570 C 236.183 -4.56881 2.15842 0
M  V30 2571 C 238.381 -4.49267 2.50327 0
M  V30 2572 N 236.363 -5.069 3.46303 0
M  V30 2573 C 237.734 -5.00851 3.65443 0
M  V30 2574 C 239.789 -4.31257 2.48841 0
M  V30 2575 C 238.492 -5.36317 4.79329 0
M  V30 2576 C 240.518 -4.678 3.61824 0
M  V30 2577 C 239.88 -5.19537 4.75668 0
M  V30 2578 H 235.979 -0.772583 0.120993 0
M  V30 2579 H 238.563 -1.73203 0.889306 0
M  V30 2580 H 236.734 -3.85576 -0.467483 0
M  V30 2581 H 238.466 -4.03603 -0.297808 0
M  V30 2582 H 235.221 -4.4268 1.68319 0
M  V30 2583 H 235.645 -5.36338 4.13123 0
M  V30 2584 H 240.287 -3.90511 1.62051 0
M  V30 2585 H 238.005 -5.75995 5.66794 0
M  V30 2586 H 241.591 -4.55541 3.61903 0
M  V30 2587 H 240.471 -5.47287 5.61646 0
M  V30 2588 N 237.974 -0.419461 -1.51915 0
M  V30 2589 C 239.222 0.152637 -2.01523 0
M  V30 2590 C 239.543 1.44762 -1.30649 0
M  V30 2591 O 238.813 1.90997 -0.435535 0
M  V30 2592 H 237.393 0.0593966 -0.744635 0
M  V30 2593 H 240.055 -0.558073 -1.86739 0
M  V30 2594 H 239.151 0.341369 -3.10227 0
M  V30 2595 N 239.452 1.56882 -0.150215 0
M  V30 2596 C 240.382 2.19935 0.784284 0
M  V30 2597 C 241.363 1.14854 1.25469 0
M  V30 2598 O 242.548 1.43209 1.31168 0
M  V30 2599 C 239.678 2.82349 2.02229 0
M  V30 2600 C 238.632 3.93285 1.68853 0
M  V30 2601 C 237.958 4.42649 2.99944 0
M  V30 2602 C 239.258 5.13904 0.932714 0
M  V30 2603 H 240.952 2.9828 0.258781 0
M  V30 2604 H 238.498 1.43473 0.123029 0
M  V30 2605 H 240.451 3.25126 2.68088 0
M  V30 2606 H 239.175 2.0134 2.57157 0
M  V30 2607 H 237.834 3.5113 1.05371 0
M  V30 2608 H 237.482 3.58458 3.52869 0
M  V30 2609 H 237.182 5.17476 2.78374 0
M  V30 2610 H 238.706 4.88099 3.66868 0
M  V30 2611 H 240.12 5.53506 1.49345 0
M  V30 2612 H 238.517 5.94515 0.81684 0
M  V30 2613 H 239.587 4.84842 -0.0749568 0
M  V30 2614 N 240.93 -0.123565 1.57115 0
M  V30 2615 C 242.155 -0.850398 1.89164 0
M  V30 2616 C 242.58 -1.7286 0.741688 0
M  V30 2617 O 241.938 -1.78665 -0.307958 0
M  V30 2618 C 241.986 -1.66353 3.19936 0
M  V30 2619 O 241.09 -2.77004 3.0552 0
M  V30 2620 H 240.431 -0.235454 0.620852 0
M  V30 2621 H 242.961 -0.107335 2.04318 0
M  V30 2622 H 242.971 -2.05372 3.52543 0
M  V30 2623 H 241.646 -1.01881 4.03228 0
M  V30 2624 H 240.223 -2.41221 2.84371 0
M  V30 2625 N 242.408 -1.52605 -0.393616 0
M  V30 2626 C 243.341 -1.71798 -1.50202 0
M  V30 2627 C 244.319 -0.565743 -1.52441 0
M  V30 2628 O 245.503 -0.794987 -1.70916 0
M  V30 2629 C 242.63 -1.7714 -2.88685 0
M  V30 2630 C 241.676 -2.98845 -3.04292 0
M  V30 2631 S 242.509 -4.58909 -2.75976 0
M  V30 2632 C 243.665 -4.6706 -4.1666 0
M  V30 2633 H 243.898 -2.65542 -1.33696 0
M  V30 2634 H 241.431 -1.42839 -0.586195 0
M  V30 2635 H 243.389 -1.80903 -3.68489 0
M  V30 2636 H 242.05 -0.844969 -3.02521 0
M  V30 2637 H 241.243 -2.99111 -4.05646 0
M  V30 2638 H 240.845 -2.9305 -2.32374 0
M  V30 2639 H 243.137 -4.45391 -5.10523 0
M  V30 2640 H 244.08 -5.6905 -4.21412 0
M  V30 2641 H 244.488 -3.95944 -4.02354 0
M  V30 2642 N 243.887 0.651787 -1.4349 0
M  V30 2643 C 244.835 1.78586 -1.49029 0
M  V30 2644 C 245.829 1.65448 -0.363767 0
M  V30 2645 O 247.035 1.71777 -0.537821 0
M  V30 2646 H 243.41 0.589236 -0.467231 0
M  V30 2647 H 245.381 1.71035 -2.44519 0
M  V30 2648 C 244.13 3.16851 -1.43181 0
M  V30 2649 H 243.453 3.27598 -2.29171 0
M  V30 2650 H 244.893 3.96156 -1.51118 0
M  V30 2651 C 243.352 3.36568 -0.149616 0
M  V30 2652 O 243.882 3.93885 0.788509 0
M  V30 2653 N 242.088 2.90539 -0.0593484 0
M  V30 2654 H 241.635 2.4408 -0.823575 0
M  V30 2655 H 241.593 3.04108 0.797853 0
M  V30 2656 N 245.365 1.30045 0.890287 0
M  V30 2657 C 246.295 1.18541 2.01172 0
M  V30 2658 C 247.276 0.0773356 1.69924 0
M  V30 2659 O 248.461 0.25845 1.92473 0
M  V30 2660 C 245.591 0.870941 3.36202 0
M  V30 2661 C 244.545 1.93637 3.81692 0
M  V30 2662 C 243.871 1.475 5.13953 0
M  V30 2663 C 245.171 3.34666 4.00994 0
M  V30 2664 H 246.865 2.12359 2.11054 0
M  V30 2665 H 244.411 1.02238 1.01407 0
M  V30 2666 H 246.364 0.777141 4.14172 0
M  V30 2667 H 245.088 -0.102926 3.26438 0
M  V30 2668 H 243.747 2.01972 3.05946 0
M  V30 2669 H 243.395 0.489551 5.00612 0
M  V30 2670 H 243.095 2.1876 5.4536 0
M  V30 2671 H 244.619 1.39489 5.94454 0
M  V30 2672 H 246.033 3.2912 4.69417 0
M  V30 2673 H 244.43 4.03966 4.43769 0
M  V30 2674 H 245.5 3.76949 3.05021 0
M  V30 2675 N 246.843 -1.10192 1.12674 0
M  V30 2676 C 248.068 -1.86523 0.906853 0
M  V30 2677 C 248.493 -1.80221 -0.538711 0
M  V30 2678 O 247.851 -1.17396 -1.38158 0
M  V30 2679 C 247.899 -3.32758 1.3894 0
M  V30 2680 O 247.003 -4.08449 0.5695 0
M  V30 2681 H 246.344 -0.578678 0.325619 0
M  V30 2682 H 248.874 -1.39203 1.49946 0
M  V30 2683 H 248.884 -3.83608 1.38958 0
M  V30 2684 H 247.559 -3.36661 2.44197 0
M  V30 2685 H 246.136 -3.67427 0.636528 0
M  V30 2686 N 248.321 -0.919034 -1.28029 0
M  V30 2687 C 249.251 -0.428581 -2.29533 0
M  V30 2688 C 250.232 0.50659 -1.62381 0
M  V30 2689 O 251.417 0.413195 -1.89753 0
M  V30 2690 C 248.547 0.327388 -3.45753 0
M  V30 2691 C 247.501 -0.519137 -4.2484 0
M  V30 2692 C 246.827 0.365486 -5.33449 0
M  V30 2693 C 248.127 -1.77914 -4.91064 0
M  V30 2694 H 249.821 -1.27687 -2.70807 0
M  V30 2695 H 247.367 -0.615428 -1.30186 0
M  V30 2696 H 249.32 0.681378 -4.15855 0
M  V30 2697 H 248.044 1.20963 -3.03374 0
M  V30 2698 H 246.703 -0.855717 -3.56473 0
M  V30 2699 H 246.351 1.24642 -4.87312 0
M  V30 2700 H 246.051 -0.197356 -5.87268 0
M  V30 2701 H 247.575 0.715241 -6.06396 0
M  V30 2702 H 248.989 -1.49374 -5.53498 0
M  V30 2703 H 247.386 -2.2848 -5.54903 0
M  V30 2704 H 248.456 -2.50382 -4.15255 0
M  V30 2705 N 249.799 1.42003 -0.683588 0
M  V30 2706 C 251.21 1.84501 -0.285736 0
M  V30 2707 C 251.561 1.57213 1.17382 0
M  V30 2708 O 250.686 1.03642 1.89966 0
M  V30 2709 C 251.281 3.34912 -0.511821 0
M  V30 2710 C 249.84 3.76025 -0.168005 0
M  V30 2711 C 248.987 2.6551 -0.799983 0
M  V30 2712 H 251.938 1.31724 -0.885119 0
M  V30 2713 H 251.959 3.79784 0.233292 0
M  V30 2714 H 251.471 3.54741 -1.57418 0
M  V30 2715 H 249.572 3.61801 0.890567 0
M  V30 2716 H 249.685 4.75141 -0.614661 0
M  V30 2717 H 248.049 2.53654 -0.230568 0
M  V30 2718 H 248.832 2.8816 -1.86597 0
M  V30 2719 N 251.277 0.427512 1.51691 0
M  V30 2720 C 252.524 -0.142229 2.02 0
M  V30 2721 C 252.852 -1.43566 1.31221 0
M  V30 2722 O 252.107 -1.91298 0.412744 0
M  V30 2723 C 252.406 -0.418249 3.54944 0
M  V30 2724 C 252.072 0.788187 4.43958 0
M  V30 2725 C 250.734 1.11906 4.68007 0
M  V30 2726 C 253.086 1.59347 4.96244 0
M  V30 2727 C 250.414 2.25608 5.41588 0
M  V30 2728 C 252.766 2.7214 5.71072 0
M  V30 2729 C 251.43 3.05692 5.93387 0
M  V30 2730 H 250.7 -0.0520451 0.73917 0
M  V30 2731 H 253.347 0.572697 1.82736 0
M  V30 2732 H 251.652 -1.21496 3.72486 0
M  V30 2733 H 253.349 -0.872339 3.91397 0
M  V30 2734 H 249.939 0.520344 4.2543 0
M  V30 2735 H 254.123 1.35106 4.77556 0
M  V30 2736 H 249.379 2.51929 5.57083 0
M  V30 2737 H 253.553 3.34914 6.10578 0
M  V30 2738 H 251.18 3.9391 6.50184 0
M  V30 2739 N 252.755 -1.56801 0.158532 0
M  V30 2740 C 254.002 -1.9649 -0.489679 0
M  V30 2741 C 254.33 -1.04394 -1.6411 0
M  V30 2742 O 253.585 -0.0754401 -1.95555 0
M  V30 2743 C 253.884 -3.4235 -1.02623 0
M  V30 2744 C 253.55 -4.50899 0.00794526 0
M  V30 2745 C 252.212 -4.80312 0.292207 0
M  V30 2746 C 254.564 -5.16333 0.710584 0
M  V30 2747 C 251.892 -5.72461 1.28472 0
M  V30 2748 C 254.244 -6.09553 1.69199 0
M  V30 2749 C 252.908 -6.37339 1.98383 0
M  V30 2750 H 252.178 -0.719009 -0.179186 0
M  V30 2751 H 254.825 -1.8989 0.247798 0
M  V30 2752 H 253.13 -3.45838 -1.84128 0
M  V30 2753 H 254.827 -3.70393 -1.53656 0
M  V30 2754 H 251.417 -4.28015 -0.22379 0
M  V30 2755 H 255.601 -4.93732 0.504174 0
M  V30 2756 H 250.857 -5.92278 1.51714 0
M  V30 2757 H 255.031 -6.59327 2.24189 0
M  V30 2758 H 252.658 -7.08546 2.7544 0
M  V30 2759 N 254.233 0.115231 -1.57178 0
M  V30 2760 C 255.163 1.1423 -2.03651 0
M  V30 2761 C 256.144 1.42967 -0.921655 0
M  V30 2762 O 257.329 1.53343 -1.19162 0
M  V30 2763 C 254.459 2.4675 -2.44401 0
M  V30 2764 C 253.413 2.32467 -3.59365 0
M  V30 2765 C 252.739 3.69984 -3.86026 0
M  V30 2766 C 254.039 1.78203 -4.90959 0
M  V30 2767 H 255.733 0.755749 -2.89705 0
M  V30 2768 H 253.279 0.362093 -1.39373 0
M  V30 2769 H 255.232 3.18854 -2.75517 0
M  V30 2770 H 253.956 2.87302 -1.55322 0
M  V30 2771 H 252.615 1.62811 -3.28463 0
M  V30 2772 H 252.263 4.08028 -2.94147 0
M  V30 2773 H 251.963 3.61279 -4.63412 0
M  V30 2774 H 253.487 4.43587 -4.19599 0
M  V30 2775 H 254.901 2.40128 -5.20587 0
M  V30 2776 H 253.298 1.8031 -5.72371 0
M  V30 2777 H 254.368 0.739876 -4.79222 0
M  V30 2778 N 255.711 1.52812 0.385517 0
M  V30 2779 C 256.958 1.68026 1.1302 0
M  V30 2780 C 257.286 0.421934 1.89868 0
M  V30 2781 O 256.541 -0.595749 1.86412 0
M  V30 2782 C 256.84 2.86856 2.13187 0
M  V30 2783 C 256.506 4.24159 1.5297 0
M  V30 2784 C 255.168 4.61501 1.36274 0
M  V30 2785 C 257.52 5.09627 1.09223 0
M  V30 2786 C 254.848 5.81966 0.743837 0
M  V30 2787 C 257.2 6.30719 0.487411 0
M  V30 2788 C 255.864 6.6679 0.307777 0
M  V30 2789 H 255.134 0.614849 0.413571 0
M  V30 2790 H 257.781 1.86962 0.414405 0
M  V30 2791 H 256.086 2.6235 2.90998 0
M  V30 2792 H 257.783 2.95821 2.70722 0
M  V30 2793 H 254.373 3.94746 1.66954 0
M  V30 2794 H 258.557 4.81343 1.20922 0
M  V30 2795 H 253.813 6.08519 0.592891 0
M  V30 2796 H 257.987 6.96259 0.140143 0
M  V30 2797 H 255.614 7.60001 -0.173879 0
M  V30 2798 N 257.189 -0.644168 1.43834 0
M  V30 2799 C 258.605 -0.960875 1.27434 0
M  V30 2800 C 258.805 -2.00499 0.200618 0
M  V30 2801 O 257.861 -2.49018 -0.417906 0
M  V30 2802 C 259.174 -1.43653 2.64167 0
M  V30 2803 C 260.722 -1.55271 2.71772 0
M  V30 2804 C 261.197 -2.06224 4.08944 0
M  V30 2805 N 262.688 -2.13513 4.11055 0
M  V30 2806 C 263.423 -2.54081 5.14033 0
M  V30 2807 N 262.919 -2.9388 6.27381 0
M  V30 2808 N 264.712 -2.54101 5.01387 0
M  V30 2809 H 256.863 0.0465779 2.12349 0
M  V30 2810 H 259.126 -0.0417638 0.94708 0
M  V30 2811 H 258.832 -0.743706 3.43747 0
M  V30 2812 H 258.706 -2.40993 2.90176 0
M  V30 2813 H 261.093 -2.23653 1.92519 0
M  V30 2814 H 261.174 -0.563395 2.49519 0
M  V30 2815 H 260.818 -1.38441 4.88668 0
M  V30 2816 H 260.748 -3.06003 4.28567 0
M  V30 2817 H 263.239 -1.85493 3.29242 0
M  V30 2818 H 263.552 -3.2361 7.01781 0
M  V30 2819 H 261.897 -2.91663 6.30839 0
M  V30 2820 H 265.088 -2.22391 4.11898 0
M  V30 2821 H 265.261 -2.85394 5.81768 0
M  V30 2822 N 258.668 -1.30515 -0.883378 0
M  V30 2823 C 259.6 -1.12846 -1.99496 0
M  V30 2824 C 260.613 -0.0712571 -1.62644 0
M  V30 2825 O 261.802 -0.317432 -1.75655 0
M  V30 2826 C 258.902 -0.699123 -3.3161 0
M  V30 2827 C 258.075 -1.83842 -3.96889 0
M  V30 2828 C 257.134 -1.39737 -5.07307 0
M  V30 2829 O 256.16 -2.10485 -5.28852 0
M  V30 2830 N 257.362 -0.277279 -5.79837 0
M  V30 2831 H 260.127 -2.08585 -2.15203 0
M  V30 2832 H 257.688 -1.22672 -1.05656 0
M  V30 2833 H 259.68 -0.387044 -4.02845 0
M  V30 2834 H 258.25 0.166276 -3.12157 0
M  V30 2835 H 257.47 -2.31853 -3.18807 0
M  V30 2836 H 258.758 -2.60187 -4.37241 0
M  V30 2837 H 258.156 0.3122 -5.64838 0
M  V30 2838 H 256.713 -0.0246623 -6.51795 0
M  V30 2839 N 260.146 1.09593 -1.13257 0
M  V30 2840 C 261.109 2.14359 -0.811358 0
M  V30 2841 C 262.109 1.59808 0.178377 0
M  V30 2842 O 263.299 1.74132 -0.0484911 0
M  V30 2843 C 260.431 3.40269 -0.207276 0
M  V30 2844 H 261.624 2.44284 -1.73969 0
M  V30 2845 H 259.177 1.25102 -0.936973 0
M  V30 2846 H 259.912 3.15969 0.73036 0
M  V30 2847 H 259.697 3.81154 -0.919992 0
M  V30 2848 H 261.187 4.176 0.000667944 0
M  V30 2849 N 261.624 0.925811 1.2754 0
M  V30 2850 C 262.854 0.580666 1.98272 0
M  V30 2851 C 263.262 -0.845207 1.69272 0
M  V30 2852 O 262.605 -1.57306 0.948707 0
M  V30 2853 C 262.667 0.724418 3.52126 0
M  V30 2854 C 262.331 2.12206 4.04744 0
M  V30 2855 C 263.328 3.09604 4.17662 0
M  V30 2856 C 261.013 2.4385 4.39138 0
M  V30 2857 C 263.007 4.36755 4.64246 0
M  V30 2858 C 260.694 3.71237 4.85414 0
M  V30 2859 C 261.692 4.67503 4.97926 0
M  V30 2860 O 261.38 5.92624 5.43187 0
M  V30 2861 H 261.112 0.218987 0.639547 0
M  V30 2862 H 263.666 1.24452 1.63404 0
M  V30 2863 H 261.896 0.0034663 3.867 0
M  V30 2864 H 263.585 0.384607 4.04074 0
M  V30 2865 H 264.351 2.86478 3.91351 0
M  V30 2866 H 260.23 1.69665 4.28643 0
M  V30 2867 H 263.774 5.11898 4.73927 0
M  V30 2868 H 259.671 3.94182 5.11166 0
M  V30 2869 H 260.439 5.95585 5.61445 0
M  V30 2870 N 263.102 -1.41638 0.69111 0
M  V30 2871 C 264.052 -2.28 -0.000107832 0
M  V30 2872 C 265.036 -1.41964 -0.757304 0
M  V30 2873 O 266.228 -1.65274 -0.633532 0
M  V30 2874 C 263.357 -3.30209 -0.938983 0
M  V30 2875 C 262.443 -4.23725 -0.17827 0
M  V30 2876 N 262.834 -4.99017 0.825563 0
M  V30 2877 C 261.132 -4.44071 -0.414392 0
M  V30 2878 C 261.833 -5.67431 1.28052 0
M  V30 2879 N 260.809 -5.40197 0.607304 0
M  V30 2880 H 264.611 -2.83644 0.769617 0
M  V30 2881 H 262.125 -1.53797 0.521562 0
M  V30 2882 H 264.122 -3.90898 -1.44929 0
M  V30 2883 H 262.782 -2.76126 -1.70836 0
M  V30 2884 H 263.793 -5.03671 1.20566 0
M  V30 2885 H 260.47 -4.01004 -1.162 0
M  V30 2886 H 261.86 -6.37801 2.11327 0
M  V30 2887 N 264.58 -0.43555 -1.51462 0
M  V30 2888 C 265.991 0.0279871 -1.86679 0
M  V30 2889 C 266.342 1.42104 -1.35281 0
M  V30 2890 O 265.467 2.04667 -0.702878 0
M  V30 2891 C 266.062 0.0575626 -3.38751 0
M  V30 2892 C 264.621 0.465507 -3.7351 0
M  V30 2893 C 263.768 -0.342996 -2.75171 0
M  V30 2894 H 266.719 -0.651473 -1.44712 0
M  V30 2895 H 266.74 0.867421 -3.70481 0
M  V30 2896 H 266.252 -0.956448 -3.7613 0
M  V30 2897 H 264.353 1.48519 -3.41721 0
M  V30 2898 H 264.466 0.191546 -4.78717 0
M  V30 2899 H 262.83 0.198442 -2.53926 0
M  V30 2900 H 263.613 -1.35585 -3.15391 0
M  V30 2901 N 266.058 1.56714 -0.166846 0
M  V30 2902 C 267.006 2.19056 0.782123 0
M  V30 2903 C 268 1.15328 1.24079 0
M  V30 2904 O 269.206 1.33537 1.20697 0
M  V30 2905 H 265.581 0.70167 0.270486 0
M  V30 2906 H 267.552 2.97494 0.232322 0
M  V30 2907 C 266.301 2.84206 2.00306 0
M  V30 2908 H 265.624 3.63748 1.65914 0
M  V30 2909 H 267.064 3.31302 2.64604 0
M  V30 2910 C 265.523 1.83744 2.82382 0
M  V30 2911 O 266.053 1.32014 3.79388 0
M  V30 2912 N 264.259 1.52601 2.47308 0
M  V30 2913 H 263.806 1.9486 1.68485 0
M  V30 2914 H 263.764 0.856351 3.02513 0
M  V30 2915 N 267.536 -0.106894 1.57237 0
M  V30 2916 C 268.484 -1.14944 2.02215 0
M  V30 2917 C 269.478 -1.42167 0.92114 0
M  V30 2918 O 270.684 -1.41987 1.10634 0
M  V30 2919 H 267.059 -0.387841 0.64427 0
M  V30 2920 H 269.03 -0.743683 2.88984 0
M  V30 2921 C 267.779 -2.4647 2.4525 0
M  V30 2922 H 267.102 -2.26363 3.29545 0
M  V30 2923 H 268.542 -3.17948 2.80508 0
M  V30 2924 C 267.001 -3.09921 1.321 0
M  V30 2925 O 267.531 -3.9651 0.643622 0
M  V30 2926 N 265.737 -2.69986 1.07497 0
M  V30 2927 H 265.284 -1.99667 1.62761 0
M  V30 2928 H 265.242 -3.12769 0.319876 0
M  V30 2929 N 269.014 -1.53014 -0.377408 0
M  V30 2930 C 270.239 -1.72818 -1.14668 0
M  V30 2931 C 270.664 -0.450725 -1.8262 0
M  V30 2932 O 270.022 0.59439 -1.7128 0
M  V30 2933 C 270.07 -2.88627 -2.16164 0
M  V30 2934 O 269.174 -2.56409 -3.22998 0
M  V30 2935 H 268.515 -0.574301 -0.333278 0
M  V30 2936 H 271.045 -1.99853 -0.438152 0
M  V30 2937 H 271.055 -3.14455 -2.59966 0
M  V30 2938 H 269.73 -3.81294 -1.66095 0
M  V30 2939 H 268.307 -2.4136 -2.84253 0
M  V30 2940 N 270.492 0.636531 -1.44174 0
M  V30 2941 C 271.717 1.42847 -1.50364 0
M  V30 2942 C 272.142 1.87665 -0.127867 0
M  V30 2943 O 271.5 1.58408 0.88185 0
M  V30 2944 C 271.548 2.62854 -2.4686 0
M  V30 2945 O 270.652 3.62501 -1.9664 0
M  V30 2946 H 269.993 0.427642 -0.507955 0
M  V30 2947 H 272.523 0.777422 -1.89255 0
M  V30 2948 H 272.533 3.10465 -2.64718 0
M  V30 2949 H 271.208 2.29578 -3.46795 0
M  V30 2950 H 269.785 3.21735 -1.88523 0
M  V30 2951 N 271.97 1.30982 0.876444 0
M  V30 2952 C 273.381 1.18277 1.44456 0
M  V30 2953 C 273.732 -0.213265 1.95037 0
M  V30 2954 O 272.857 -1.11057 1.85729 0
M  V30 2955 C 273.452 2.1411 2.62569 0
M  V30 2956 C 272.011 2.05358 3.15444 0
M  V30 2957 C 271.158 2.03706 1.88146 0
M  V30 2958 H 274.109 1.43127 0.685584 0
M  V30 2959 H 274.13 1.72692 3.39054 0
M  V30 2960 H 273.642 3.15706 2.25724 0
M  V30 2961 H 271.743 1.06934 3.56926 0
M  V30 2962 H 271.856 2.94156 3.78166 0
M  V30 2963 H 270.22 1.48629 2.06837 0
M  V30 2964 H 271.003 3.07047 1.53547 0
M  V30 2965 N 273.449 -1.08991 1.13837 0
M  V30 2966 C 274.695 -1.81526 0.90422 0
M  V30 2967 C 275.028 -1.85706 -0.568066 0
M  V30 2968 O 274.303 -1.32855 -1.42056 0
M  V30 2969 C 274.586 -3.27447 1.49835 0
M  V30 2970 C 274.439 -3.31512 3.04006 0
M  V30 2971 C 275.758 -4.24256 1.17025 0
M  V30 2972 H 272.877 -0.659029 0.329923 0
M  V30 2973 H 275.519 -1.27644 1.40737 0
M  V30 2974 H 273.669 -3.73462 1.07044 0
M  V30 2975 H 275.341 -2.93867 3.55584 0
M  V30 2976 H 273.584 -2.70963 3.38765 0
M  V30 2977 H 274.255 -4.34329 3.40679 0
M  V30 2978 H 276.731 -3.86549 1.54009 0
M  V30 2979 H 275.607 -5.24684 1.61237 0
M  V30 2980 H 275.868 -4.42019 0.0846274 0
M  V30 2981 N 274.927 -0.932562 -1.27047 0
M  V30 2982 C 276.167 -0.582919 -1.95912 0
M  V30 2983 C 276.531 0.860629 -1.71631 0
M  V30 2984 O 277.732 1.31878 -2.34225 0
M  V30 2985 C 276.003 -0.905673 -3.45734 0
M  V30 2986 S 277.562 -0.665277 -4.33727 0
M  V30 2987 H 274.38 -0.215 -0.677714 0
M  V30 2988 H 276.982 -1.20204 -1.54179 0
M  V30 2989 H 275.686 -1.95386 -3.60905 0
M  V30 2990 H 275.217 -0.275939 -3.92431 0
M  V30 2991 H 277.232 0.474635 -4.93925 0
M  V30 2992 N 276.405 1.4127 -0.698611 0
M  V30 2993 C 277.635 2.05205 -0.239644 0
M  V30 2994 C 278.043 1.52684 1.11733 0
M  V30 2995 O 277.386 0.671222 1.70998 0
M  V30 2996 C 277.448 3.59289 -0.123126 0
M  V30 2997 C 277.112 4.34619 -1.41263 0
M  V30 2998 C 278.109 4.63701 -2.35111 0
M  V30 2999 C 275.794 4.73837 -1.66684 0
M  V30 3000 C 277.788 5.30966 -3.52639 0
M  V30 3001 C 275.475 5.40837 -2.84498 0
M  V30 3002 C 276.473 5.69329 -3.77298 0
M  V30 3003 O 276.161 6.34949 -4.93047 0
M  V30 3004 H 275.893 0.66723 -0.108537 0
M  V30 3005 H 278.447 1.81974 -0.952602 0
M  V30 3006 H 276.677 3.81272 0.645628 0
M  V30 3007 H 278.366 4.04797 0.299056 0
M  V30 3008 H 279.132 4.33882 -2.16729 0
M  V30 3009 H 275.011 4.51039 -0.953135 0
M  V30 3010 H 278.555 5.53121 -4.25091 0
M  V30 3011 H 274.452 5.70075 -3.02795 0
M  V30 3012 H 275.22 6.53445 -4.92902 0
M  V30 3013 N 277.883 0.443576 1.51229 0
M  V30 3014 C 278.793 -0.370721 2.31652 0
M  V30 3015 C 279.809 -1.02186 1.40833 0
M  V30 3016 O 280.985 -1.01586 1.73903 0
M  V30 3017 C 278.05 -1.45376 3.14749 0
M  V30 3018 C 277.111 -0.822099 4.21355 0
M  V30 3019 C 276.344 -1.85353 5.0048 0
M  V30 3020 O 276.567 -3.07656 4.80316 0
M  V30 3021 O 275.501 -1.4406 5.84406 0
M  V30 3022 H 279.327 0.286002 3.0235 0
M  V30 3023 H 276.912 0.20598 1.47973 0
M  V30 3024 H 278.794 -2.08173 3.66391 0
M  V30 3025 H 277.469 -2.09445 2.46809 0
M  V30 3026 H 276.376 -0.155909 3.73775 0
M  V30 3027 H 277.709 -0.224797 4.91686 0
M  V30 3028 N 279.361 -1.56624 0.175154 0
M  V30 3029 C 280.607 -1.9729 -0.469506 0
M  V30 3030 C 280.94 -1.06128 -1.62636 0
M  V30 3031 O 280.215 -0.109183 -1.94193 0
M  V30 3032 C 280.498 -3.47375 -0.948804 0
M  V30 3033 C 280.351 -4.49317 0.208491 0
M  V30 3034 C 281.67 -4.00652 -1.82116 0
M  V30 3035 H 278.789 -0.717317 -0.16919 0
M  V30 3036 H 281.431 -1.88184 0.262062 0
M  V30 3037 H 279.581 -3.55267 -1.57219 0
M  V30 3038 H 281.253 -4.53482 0.845682 0
M  V30 3039 H 279.496 -4.25121 0.863395 0
M  V30 3040 H 280.167 -5.51741 -0.169059 0
M  V30 3041 H 282.643 -3.95416 -1.2956 0
M  V30 3042 H 281.519 -5.06075 -2.12554 0
M  V30 3043 H 281.78 -3.44699 -2.7683 0
M  V30 3044 N 280.839 0.0985539 -1.57292 0
M  V30 3045 C 281.769 1.12064 -2.04851 0
M  V30 3046 C 282.75 1.41981 -0.936767 0
M  V30 3047 O 283.935 1.52071 -1.20781 0
M  V30 3048 C 281.065 2.44144 -2.47004 0
M  V30 3049 C 280.019 2.28643 -3.6181 0
M  V30 3050 C 279.345 3.65869 -3.89929 0
M  V30 3051 C 280.645 1.72986 -4.92822 0
M  V30 3052 H 282.339 0.724979 -2.9049 0
M  V30 3053 H 279.885 0.34729 -1.39749 0
M  V30 3054 H 281.838 3.15914 -2.78884 0
M  V30 3055 H 280.562 2.85639 -1.5836 0
M  V30 3056 H 279.221 1.59318 -3.30172 0
M  V30 3057 H 278.869 4.04885 -2.98458 0
M  V30 3058 H 278.569 3.56344 -4.67218 0
M  V30 3059 H 280.093 4.39112 -4.2428 0
M  V30 3060 H 281.507 2.34593 -5.23105 0
M  V30 3061 H 279.904 1.74229 -5.74251 0
M  V30 3062 H 280.974 0.689007 -4.7998 0
M  V30 3063 N 282.317 1.53212 0.369288 0
M  V30 3064 C 283.565 1.68881 1.11012 0
M  V30 3065 C 283.886 0.441285 1.89941 0
M  V30 3066 O 283.156 -0.544623 1.88177 0
M  V30 3067 H 281.736 0.622569 0.412816 0
M  V30 3068 H 284.398 1.90391 0.416802 0
M  V30 3069 H 283.494 2.54822 1.80201 0
M  V30 3070 N 283.795 -0.628877 1.44509 0
M  V30 3071 C 284.743 -1.76193 1.51852 0
M  V30 3072 C 285.737 -1.64849 0.390042 0
M  V30 3073 O 286.943 -1.709 0.565082 0
M  V30 3074 H 283.318 -0.581728 0.476547 0
M  V30 3075 H 285.289 -1.67123 2.47209 0
M  V30 3076 C 284.038 -3.14533 1.48204 0
M  V30 3077 H 283.361 -3.23911 2.34354 0
M  V30 3078 H 284.801 -3.93701 1.57402 0
M  V30 3079 C 283.26 -3.36287 0.203142 0
M  V30 3080 O 283.79 -3.9509 -0.725745 0
M  V30 3081 N 281.996 -2.90408 0.105563 0
M  V30 3082 H 281.543 -2.42739 0.862301 0
M  V30 3083 H 281.501 -3.05339 -0.749371 0
M  V30 3084 N 285.273 -1.31445 -0.869486 0
M  V30 3085 C 286.55 -1.11795 -1.60503 0
M  V30 3086 C 286.93 0.327168 -2.08549 0
M  V30 3087 O 286.278 1.32135 -1.8642 0
M  V30 3088 C 286.488 -2.13258 -2.76265 0
M  V30 3089 C 287.836 -2.45805 -3.46215 0
M  V30 3090 O 288.86 -2.11688 -2.86473 0
M  V30 3091 O 287.719 -3.04228 -4.5399 0
M  V30 3092 H 284.813 -0.430421 -0.706163 0
M  V30 3093 H 287.359 -1.42925 -0.914907 0
M  V30 3094 H 286.131 -3.10461 -2.3818 0
M  V30 3095 H 285.754 -1.83035 -3.52964 0
M  V30 3096 N 286.751 1.08385 -1.14413 0
M  V30 3097 C 287.979 1.84517 -0.936001 0
M  V30 3098 C 288.394 1.81626 0.515503 0
M  V30 3099 O 287.751 1.22008 1.35721 0
M  V30 3100 C 287.802 3.32049 -1.42918 0
M  V30 3101 O 287.523 3.34951 -2.82381 0
M  V30 3102 C 289.024 4.24986 -1.26103 0
M  V30 3103 H 286.244 0.582491 -0.333084 0
M  V30 3104 H 288.788 1.36885 -1.5193 0
M  V30 3105 H 286.943 3.7707 -0.888641 0
M  V30 3106 H 287.357 4.27048 -3.04517 0
M  V30 3107 H 288.831 5.26615 -1.6547 0
M  V30 3108 H 289.308 4.38726 -0.20392 0
M  V30 3109 H 289.914 3.85791 -1.79012 0
M  V30 3110 N 288.23 0.939286 1.26551 0
M  V30 3111 C 289.193 0.451987 2.24699 0
M  V30 3112 C 290.193 -0.435869 1.5478 0
M  V30 3113 O 291.383 -0.235314 1.72603 0
M  V30 3114 C 288.515 -0.348801 3.39111 0
M  V30 3115 H 289.708 1.3193 2.69322 0
M  V30 3116 H 287.261 0.721072 1.38673 0
M  V30 3117 H 287.996 -1.23444 2.99887 0
M  V30 3118 H 287.781 0.287945 3.91041 0
M  V30 3119 H 289.271 -0.679726 4.12031 0
M  V30 3120 N 289.708 -1.40897 0.706093 0
M  V30 3121 C 290.655 -2.30751 0.0474474 0
M  V30 3122 C 291.625 -1.47678 -0.76029 0
M  V30 3123 O 292.81 -1.76441 -0.726177 0
M  V30 3124 C 289.95 -3.33815 -0.875309 0
M  V30 3125 C 289.063 -4.31961 -0.0580623 0
M  V30 3126 C 288.198 -5.22093 -0.979425 0
M  V30 3127 C 287.237 -6.11902 -0.155706 0
M  V30 3128 N 286.374 -6.94482 -1.03144 0
M  V30 3129 H 291.214 -2.86513 0.819413 0
M  V30 3130 H 288.751 -1.41102 0.415783 0
M  V30 3131 H 290.709 -3.92129 -1.42446 0
M  V30 3132 H 289.339 -2.79579 -1.61356 0
M  V30 3133 H 288.391 -3.75507 0.608147 0
M  V30 3134 H 289.703 -4.95415 0.580082 0
M  V30 3135 H 288.857 -5.85292 -1.59744 0
M  V30 3136 H 287.596 -4.5889 -1.65141 0
M  V30 3137 H 286.601 -5.47742 0.475309 0
M  V30 3138 H 287.826 -6.77162 0.512635 0
M  V30 3139 H 285.772 -6.33877 -1.68924 0
M  V30 3140 H 285.689 -7.54665 -0.449108 0
M  V30 3141 H 286.957 -7.6214 -1.63593 0
M  V30 3142 N 291.186 -0.45159 -1.50991 0
M  V30 3143 C 292.432 0.102439 -2.03142 0
M  V30 3144 C 292.787 1.39138 -1.32884 0
M  V30 3145 O 292.08 1.86493 -0.439438 0
M  V30 3146 C 292.274 0.361728 -3.55565 0
M  V30 3147 C 292.103 -0.900535 -4.40591 0
M  V30 3148 C 290.873 -1.43821 -4.844 0
M  V30 3149 C 293.071 -1.79063 -4.82121 0
M  V30 3150 N 291.053 -2.65153 -5.53685 0
M  V30 3151 C 292.424 -2.84991 -5.50618 0
M  V30 3152 C 294.479 -1.80334 -4.64095 0
M  V30 3153 C 293.182 -3.92155 -6.02998 0
M  V30 3154 C 295.208 -2.86442 -5.17402 0
M  V30 3155 C 294.57 -3.9109 -5.85857 0
M  V30 3156 H 290.669 -0.00204537 -0.781997 0
M  V30 3157 H 293.253 -0.615446 -1.84717 0
M  V30 3158 H 291.424 1.04865 -3.73976 0
M  V30 3159 H 293.156 0.908372 -3.94374 0
M  V30 3160 H 289.911 -0.990117 -4.63135 0
M  V30 3161 H 290.335 -3.26717 -5.92946 0
M  V30 3162 H 294.977 -1.00753 -4.1062 0
M  V30 3163 H 292.695 -4.72565 -6.55521 0
M  V30 3164 H 296.281 -2.88386 -5.05297 0
M  V30 3165 H 295.161 -4.71845 -6.26364 0
M  V30 3166 N 292.664 1.56529 -0.183458 0
M  V30 3167 C 294.08 1.58664 0.172554 0
M  V30 3168 C 294.28 1.19925 1.61926 0
M  V30 3169 O 293.336 0.916534 2.35278 0
M  V30 3170 C 294.649 3.00463 -0.119262 0
M  V30 3171 C 296.197 3.12945 -0.0584396 0
M  V30 3172 C 296.672 4.56857 -0.323408 0
M  V30 3173 N 298.163 4.62403 -0.271612 0
M  V30 3174 C 298.898 5.71626 -0.450639 0
M  V30 3175 N 298.394 6.89362 -0.689384 0
M  V30 3176 N 300.187 5.60775 -0.385701 0
M  V30 3177 H 292.338 1.79994 -1.12765 0
M  V30 3178 H 294.601 0.834808 -0.449222 0
M  V30 3179 H 294.307 3.33326 -1.12192 0
M  V30 3180 H 294.181 3.72659 0.583544 0
M  V30 3181 H 296.568 2.79902 0.934805 0
M  V30 3182 H 296.649 2.4316 -0.794144 0
M  V30 3183 H 296.293 4.9061 -1.31392 0
M  V30 3184 H 296.223 5.24816 0.43305 0
M  V30 3185 H 298.714 3.77785 -0.0932256 0
M  V30 3186 H 299.027 7.68489 -0.815113 0
M  V30 3187 H 297.372 6.91196 -0.726142 0
M  V30 3188 H 300.563 4.67674 -0.199687 0
M  V30 3189 H 300.736 6.4584 -0.528646 0
M  V30 3190 N 294.142 -0.090211 1.57342 0
M  V30 3191 C 295.075 -1.14035 1.97664 0
M  V30 3192 C 296.053 -1.38576 0.850616 0
M  V30 3193 O 297.237 -1.52255 1.11134 0
M  V30 3194 C 294.364 -2.48854 2.2976 0
M  V30 3195 C 293.41 -2.40564 3.52181 0
M  V30 3196 S 294.243 -1.81745 5.03715 0
M  V30 3197 C 295.399 -3.18178 5.38993 0
M  V30 3198 H 295.632 -0.796636 2.86428 0
M  V30 3199 H 293.165 -0.298072 1.51496 0
M  V30 3200 H 295.123 -3.26413 2.48927 0
M  V30 3201 H 293.784 -2.80393 1.41558 0
M  V30 3202 H 292.977 -3.39942 3.72096 0
M  V30 3203 H 292.579 -1.71135 3.32549 0
M  V30 3204 H 294.871 -4.14461 5.35937 0
M  V30 3205 H 295.814 -3.03062 6.39968 0
M  V30 3206 H 296.222 -3.17935 4.66452 0
M  V30 3207 N 295.62 -1.53406 -0.361157 0
M  V30 3208 C 296.866 -1.70054 -1.10496 0
M  V30 3209 C 297.199 -0.453278 -1.88836 0
M  V30 3210 O 296.474 0.5495 -1.86576 0
M  V30 3211 C 296.757 -2.95317 -2.06058 0
M  V30 3212 C 296.61 -4.3021 -1.31298 0
M  V30 3213 C 297.929 -3.16193 -3.06121 0
M  V30 3214 H 295.048 -0.618799 -0.400321 0
M  V30 3215 H 297.69 -1.86052 -0.385318 0
M  V30 3216 H 295.84 -2.81809 -2.67425 0
M  V30 3217 H 297.512 -4.55538 -0.726807 0
M  V30 3218 H 295.755 -4.29421 -0.614853 0
M  V30 3219 H 296.426 -5.14 -2.01265 0
M  V30 3220 H 298.902 -3.28916 -2.5486 0
M  V30 3221 H 297.778 -4.05266 -3.70204 0
M  V30 3222 H 298.039 -2.31676 -3.76535 0
M  V30 3223 N 297.098 0.621204 -1.44841 0
M  V30 3224 C 298.028 1.74366 -1.55303 0
M  V30 3225 C 299.009 1.65199 -0.405385 0
M  V30 3226 O 300.194 1.83807 -0.626787 0
M  V30 3227 C 297.324 3.12931 -1.50637 0
M  V30 3228 C 296.278 3.36896 -2.63979 0
M  V30 3229 C 295.604 4.75594 -2.44366 0
M  V30 3230 C 296.904 3.28483 -4.06074 0
M  V30 3231 H 298.598 1.65867 -2.49256 0
M  V30 3232 H 296.144 0.796558 -1.19962 0
M  V30 3233 H 298.097 3.9124 -1.56555 0
M  V30 3234 H 296.821 3.22237 -0.532057 0
M  V30 3235 H 295.48 2.60972 -2.57467 0
M  V30 3236 H 295.128 4.81616 -1.45105 0
M  V30 3237 H 294.828 4.92586 -3.20364 0
M  V30 3238 H 296.352 5.5612 -2.52117 0
M  V30 3239 H 297.766 3.96684 -4.13902 0
M  V30 3240 H 296.163 3.57008 -4.82354 0
M  V30 3241 H 297.233 2.26133 -4.28943 0
M  V30 3242 N 298.576 1.31904 0.862503 0
M  V30 3243 C 299.992 1.10724 1.14945 0
M  V30 3244 C 300.192 -0.117421 2.01158 0
M  V30 3245 O 299.248 -0.804595 2.39338 0
M  V30 3246 C 300.561 2.38267 1.83437 0
M  V30 3247 C 302.109 2.43949 1.96106 0
M  V30 3248 C 302.584 3.71394 2.68013 0
M  V30 3249 N 304.075 3.72331 2.75543 0
M  V30 3250 C 304.81 4.67641 3.31812 0
M  V30 3251 N 304.306 5.73313 3.88953 0
M  V30 3252 N 306.099 4.5515 3.29841 0
M  V30 3253 H 298.25 2.10436 0.288191 0
M  V30 3254 H 300.513 0.928705 0.190292 0
M  V30 3255 H 300.219 3.27759 1.27542 0
M  V30 3256 H 300.093 2.48633 2.83657 0
M  V30 3257 H 302.48 1.54922 2.51164 0
M  V30 3258 H 302.561 2.37543 0.949059 0
M  V30 3259 H 302.205 4.60791 2.13621 0
M  V30 3260 H 302.135 3.75069 3.69636 0
M  V30 3261 H 304.626 2.95947 2.34997 0
M  V30 3262 H 304.939 6.42107 4.30022 0
M  V30 3263 H 303.284 5.77077 3.87308 0
M  V30 3264 H 306.475 3.71766 2.84443 0
M  V30 3265 H 306.648 5.29604 3.73394 0
M  V30 3266 N 300.054 -1.07777 1.14986 0
M  V30 3267 C 301.303 -1.79669 0.916617 0
M  V30 3268 C 301.616 -1.87474 -0.557917 0
M  V30 3269 O 302.822 -2.55845 -0.908617 0
M  V30 3270 C 301.278 -3.22848 1.59051 0
M  V30 3271 C 300.886 -3.23257 3.10176 0
M  V30 3272 C 302.63 -3.99379 1.43864 0
M  V30 3273 C 300.537 -4.61063 3.70372 0
M  V30 3274 H 299.467 -0.673349 0.33929 0
M  V30 3275 H 302.118 -1.21003 1.37951 0
M  V30 3276 H 300.5 -3.8168 1.0553 0
M  V30 3277 H 301.674 -2.74095 3.70417 0
M  V30 3278 H 299.989 -2.60222 3.25074 0
M  V30 3279 H 302.586 -5.0122 1.86232 0
M  V30 3280 H 302.929 -4.14511 0.385564 0
M  V30 3281 H 303.462 -3.47032 1.94457 0
M  V30 3282 H 300.201 -4.51135 4.7556 0
M  V30 3283 H 299.721 -5.1048 3.14913 0
M  V30 3284 H 301.4 -5.30034 3.71043 0
M  V30 3285 N 301.532 -0.945985 -1.26051 0
M  V30 3286 C 302.462 -0.477172 -2.28572 0
M  V30 3287 C 303.443 0.472032 -1.63419 0
M  V30 3288 O 304.628 0.372853 -1.90587 0
M  V30 3289 C 301.758 0.253975 -3.4637 0
M  V30 3290 C 300.712 -0.609135 -4.23643 0
M  V30 3291 C 300.038 0.252252 -5.34105 0
M  V30 3292 C 301.338 -1.8829 -4.8718 0
M  V30 3293 H 303.032 -1.33402 -2.68038 0
M  V30 3294 H 300.578 -0.642904 -1.28852 0
M  V30 3295 H 302.531 0.593016 -4.17207 0
M  V30 3296 H 301.255 1.145 -3.05871 0
M  V30 3297 H 299.914 -0.931138 -3.54578 0
M  V30 3298 H 299.562 1.14278 -4.89846 0
M  V30 3299 H 299.262 -0.32188 -5.86718 0
M  V30 3300 H 300.786 0.586454 -6.07777 0
M  V30 3301 H 302.2 -1.61081 -5.50205 0
M  V30 3302 H 300.597 -2.40199 -5.49931 0
M  V30 3303 H 301.667 -2.59134 -4.09851 0
M  V30 3304 N 303.011 1.40521 -0.713556 0
M  V30 3305 C 304.422 1.83853 -0.324807 0
M  V30 3306 C 304.773 1.59667 1.14021 0
M  V30 3307 O 303.898 1.07649 1.87725 0
M  V30 3308 C 304.493 3.33751 -0.582746 0
M  V30 3309 C 303.052 3.75584 -0.247727 0
M  V30 3310 C 302.199 2.63753 -0.856121 0
M  V30 3311 H 305.15 1.29817 -0.91286 0
M  V30 3312 H 305.171 3.80194 0.152682 0
M  V30 3313 H 304.683 3.51322 -1.64908 0
M  V30 3314 H 302.784 3.63608 0.813624 0
M  V30 3315 H 302.897 4.7373 -0.715307 0
M  V30 3316 H 301.261 2.53108 -0.28432 0
M  V30 3317 H 302.044 2.84137 -1.92668 0
M  V30 3318 N 304.489 0.459591 1.5075 0
M  V30 3319 C 305.439 -0.358926 2.25157 0
M  V30 3320 C 306.423 -0.971285 1.28276 0
M  V30 3321 O 307.615 -0.885739 1.53244 0
M  V30 3322 C 304.744 -1.44695 3.11317 0
M  V30 3323 C 303.83 -0.842894 4.15639 0
M  V30 3324 N 304.221 0.0299373 5.05791 0
M  V30 3325 C 302.519 -1.10809 4.32015 0
M  V30 3326 C 303.22 0.371563 5.80512 0
M  V30 3327 N 302.196 -0.250409 5.43023 0
M  V30 3328 H 305.998 0.313636 2.92222 0
M  V30 3329 H 303.512 0.273021 1.60089 0
M  V30 3330 H 305.509 -2.04641 3.63218 0
M  V30 3331 H 304.169 -2.12162 2.45799 0
M  V30 3332 H 305.18 0.39797 5.16369 0
M  V30 3333 H 301.857 -1.7786 3.77719 0
M  V30 3334 H 303.247 1.08319 6.63111 0
M  V30 3335 N 305.967 -1.56429 0.191757 0
M  V30 3336 C 307.195 -2.01867 -0.453586 0
M  V30 3337 C 307.61 -1.07191 -1.5542 0
M  V30 3338 O 306.967 -0.0762108 -1.82341 0
M  V30 3339 C 307.018 -3.47017 -1.013 0
M  V30 3340 O 306.739 -4.38078 0.0437005 0
M  V30 3341 C 308.24 -4.07956 -1.73456 0
M  V30 3342 H 305.46 -0.661211 -0.114199 0
M  V30 3343 H 308.004 -2.02295 0.299483 0
M  V30 3344 H 306.159 -3.47298 -1.71647 0
M  V30 3345 H 306.573 -5.23178 -0.372212 0
M  V30 3346 H 308.047 -5.1138 -2.07833 0
M  V30 3347 H 308.524 -3.51222 -2.63704 0
M  V30 3348 H 309.13 -4.11437 -1.07702 0
M  V30 3349 N 307.445 0.0818655 -1.57387 0
M  V30 3350 C 308.692 0.782914 -1.86753 0
M  V30 3351 C 309.02 1.78082 -0.782118 0
M  V30 3352 O 308.275 1.94426 0.22295 0
M  V30 3353 C 308.574 1.53513 -3.22752 0
M  V30 3354 C 308.24 0.678134 -4.45771 0
M  V30 3355 C 306.902 0.441929 -4.79166 0
M  V30 3356 C 309.254 0.0832243 -5.21134 0
M  V30 3357 C 306.582 -0.398833 -5.85343 0
M  V30 3358 C 308.934 -0.744935 -6.28199 0
M  V30 3359 C 307.598 -0.991107 -6.60101 0
M  V30 3360 H 306.868 0.286489 -0.683378 0
M  V30 3361 H 309.515 0.0439808 -1.91449 0
M  V30 3362 H 307.82 2.34599 -3.138 0
M  V30 3363 H 309.517 2.08218 -3.42705 0
M  V30 3364 H 306.107 0.872357 -4.19628 0
M  V30 3365 H 310.291 0.252847 -4.95655 0
M  V30 3366 H 305.547 -0.598405 -6.08465 0
M  V30 3367 H 309.721 -1.21271 -6.8576 0
M  V30 3368 H 307.348 -1.64437 -7.42202 0
M  V30 3369 N 308.923 1.53595 0.353017 0
M  V30 3370 C 310.171 1.70049 1.09215 0
M  V30 3371 C 310.492 0.461406 1.89463 0
M  V30 3372 O 309.762 -0.524633 1.88744 0
M  V30 3373 H 308.342 0.626912 0.40619 0
M  V30 3374 H 311.004 1.90822 0.396585 0
M  V30 3375 H 310.1 2.56718 1.77488 0
M  V30 3376 N 310.401 -0.613514 1.45168 0
M  V30 3377 C 311.648 -1.37268 1.48875 0
M  V30 3378 C 311.976 -1.94077 0.128161 0
M  V30 3379 O 311.231 -1.75178 -0.872416 0
M  V30 3380 C 311.53 -2.54347 2.51083 0
M  V30 3381 C 311.196 -2.1572 3.95949 0
M  V30 3382 C 309.858 -2.04899 4.35396 0
M  V30 3383 C 312.21 -1.85485 4.87078 0
M  V30 3384 C 309.538 -1.62057 5.63875 0
M  V30 3385 C 311.89 -1.4413 6.15962 0
M  V30 3386 C 310.554 -1.31863 6.54346 0
M  V30 3387 H 309.824 -0.502299 0.544773 0
M  V30 3388 H 312.471 -0.694021 1.78481 0
M  V30 3389 H 310.776 -3.27524 2.15024 0
M  V30 3390 H 312.473 -3.12577 2.51191 0
M  V30 3391 H 309.063 -2.25066 3.64751 0
M  V30 3392 H 313.247 -1.92745 4.57343 0
M  V30 3393 H 308.503 -1.51177 5.92415 0
M  V30 3394 H 312.677 -1.19778 6.86022 0
M  V30 3395 H 310.304 -0.984392 7.538 0
M  V30 3396 N 311.879 -1.3236 -0.855495 0
M  V30 3397 C 313.128 -1.22226 -1.60448 0
M  V30 3398 C 313.441 0.214733 -1.94418 0
M  V30 3399 O 314.647 0.437917 -2.67945 0
M  V30 3400 C 313.103 -2.14063 -2.89318 0
M  V30 3401 C 312.711 -3.62839 -2.62777 0
M  V30 3402 C 314.455 -2.12764 -3.67331 0
M  V30 3403 C 312.362 -4.4664 -3.87643 0
M  V30 3404 H 311.292 -0.453904 -0.602069 0
M  V30 3405 H 313.943 -1.57314 -0.944698 0
M  V30 3406 H 312.325 -1.71889 -3.5675 0
M  V30 3407 H 313.499 -4.1335 -2.03662 0
M  V30 3408 H 311.814 -3.66261 -1.98096 0
M  V30 3409 H 314.411 -2.72611 -4.59987 0
M  V30 3410 H 314.754 -1.11841 -4.00995 0
M  V30 3411 H 315.287 -2.53214 -3.06802 0
M  V30 3412 H 312.026 -5.48373 -3.5912 0
M  V30 3413 H 311.546 -4.0088 -4.46156 0
M  V30 3414 H 313.225 -4.59597 -4.55389 0
M  V30 3415 N 313.357 1.07166 -1.15556 0
M  V30 3416 C 314.603 1.80065 -0.932984 0
M  V30 3417 C 314.936 1.86586 0.53845 0
M  V30 3418 O 314.211 1.35098 1.39924 0
M  V30 3419 C 314.494 3.25022 -1.55025 0
M  V30 3420 C 314.347 3.26634 -3.09242 0
M  V30 3421 C 315.666 4.22341 -1.2376 0
M  V30 3422 H 312.785 0.653697 -0.340366 0
M  V30 3423 H 315.427 1.25389 -1.4275 0
M  V30 3424 H 313.577 3.71712 -1.12972 0
M  V30 3425 H 315.249 2.88173 -3.60214 0
M  V30 3426 H 313.492 2.65539 -3.43033 0
M  V30 3427 H 314.163 4.28854 -3.47546 0
M  V30 3428 H 316.639 3.8405 -1.60139 0
M  V30 3429 H 315.515 5.22053 -1.69564 0
M  V30 3430 H 315.776 4.41828 -0.154938 0
M  V30 3431 N 314.835 0.952656 1.25548 0
M  V30 3432 C 316.246 0.647392 1.75116 0
M  V30 3433 C 316.597 -0.837274 1.77438 0
M  V30 3434 O 315.722 -1.65525 1.39393 0
M  V30 3435 C 316.317 1.16845 3.18014 0
M  V30 3436 C 314.876 0.913382 3.6515 0
M  V30 3437 C 314.023 1.31265 2.44264 0
M  V30 3438 H 316.974 1.12968 1.11462 0
M  V30 3439 H 316.995 0.527606 3.76824 0
M  V30 3440 H 316.507 2.24902 3.16292 0
M  V30 3441 H 314.608 -0.152316 3.72289 0
M  V30 3442 H 314.721 1.54845 4.53387 0
M  V30 3443 H 313.085 0.731028 2.43984 0
M  V30 3444 H 313.868 2.40239 2.45234 0
M  V30 3445 N 316.313 -1.40141 0.720998 0
M  V30 3446 C 317.243 -2.33339 0.0867621 0
M  V30 3447 C 318.224 -1.53178 -0.739622 0
M  V30 3448 O 319.409 -1.81625 -0.687449 0
M  V30 3449 C 316.539 -3.37194 -0.831728 0
M  V30 3450 C 315.493 -4.27857 -0.110558 0
M  V30 3451 C 314.819 -5.22294 -1.14513 0
M  V30 3452 C 316.119 -5.11872 1.0385 0
M  V30 3453 H 317.813 -2.86626 0.865219 0
M  V30 3454 H 315.359 -1.37814 0.417516 0
M  V30 3455 H 317.312 -4.01335 -1.28485 0
M  V30 3456 H 316.036 -2.82314 -1.64214 0
M  V30 3457 H 314.695 -3.65176 0.322797 0
M  V30 3458 H 314.343 -4.63717 -1.94874 0
M  V30 3459 H 314.043 -5.83797 -0.667446 0
M  V30 3460 H 315.567 -5.89312 -1.59824 0
M  V30 3461 H 316.981 -5.69436 0.664482 0
M  V30 3462 H 315.378 -5.82445 1.4449 0
M  V30 3463 H 316.448 -4.4753 1.86668 0
M  V30 3464 N 317.792 -0.46758 -1.50504 0
M  V30 3465 C 319.039 0.0886219 -2.02306 0
M  V30 3466 C 319.367 1.40037 -1.34981 0
M  V30 3467 O 318.622 1.90136 -0.463318 0
M  V30 3468 C 318.921 0.323995 -3.55928 0
M  V30 3469 C 318.587 -0.905618 -4.41712 0
M  V30 3470 C 317.249 -1.24275 -4.64875 0
M  V30 3471 C 319.601 -1.72448 -4.91845 0
M  V30 3472 C 316.929 -2.39888 -5.35417 0
M  V30 3473 C 319.281 -2.87185 -5.63656 0
M  V30 3474 C 317.945 -3.21317 -5.85074 0
M  V30 3475 H 317.215 0.0324291 -0.74029 0
M  V30 3476 H 319.862 -0.620945 -1.81153 0
M  V30 3477 H 318.167 1.11577 -3.75577 0
M  V30 3478 H 319.864 0.76826 -3.93572 0
M  V30 3479 H 316.454 -0.632956 -4.239 0
M  V30 3480 H 320.638 -1.4772 -4.73806 0
M  V30 3481 H 315.894 -2.66611 -5.50208 0
M  V30 3482 H 320.068 -3.50985 -6.01484 0
M  V30 3483 H 317.695 -4.1101 -6.39511 0
M  V30 3484 N 319.27 1.56325 -0.20005 0
M  V30 3485 C 320.516 1.98012 0.438059 0
M  V30 3486 C 320.849 1.08702 1.60927 0
M  V30 3487 O 320.124 0.140064 1.93995 0
M  V30 3488 C 320.407 3.48841 0.893419 0
M  V30 3489 C 320.26 4.48928 -0.279947 0
M  V30 3490 C 321.579 4.03498 1.75719 0
M  V30 3491 H 318.698 0.719918 0.157757 0
M  V30 3492 H 321.34 1.87743 -0.291968 0
M  V30 3493 H 319.49 3.57723 1.51547 0
M  V30 3494 H 321.162 4.52079 -0.91772 0
M  V30 3495 H 319.405 4.23694 -0.930919 0
M  V30 3496 H 320.076 5.5194 0.0812601 0
M  V30 3497 H 322.552 3.97427 1.23253 0
M  V30 3498 H 321.428 5.09393 2.04476 0
M  V30 3499 H 321.689 3.4906 2.71311 0
M  V30 3500 N 320.748 -0.0735177 1.57428 0
M  V30 3501 C 321.681 -1.11932 1.98863 0
M  V30 3502 C 322.659 -1.37666 0.865266 0
M  V30 3503 O 323.843 -1.51068 1.12742 0
M  V30 3504 C 320.97 -2.46403 2.32386 0
M  V30 3505 C 320.016 -2.36815 3.54713 0
M  V30 3506 S 320.849 -1.76392 5.05614 0
M  V30 3507 C 322.005 -3.12444 5.42337 0
M  V30 3508 H 322.238 -0.766212 2.87257 0
M  V30 3509 H 319.771 -0.281987 1.51803 0
M  V30 3510 H 321.729 -3.23755 2.52375 0
M  V30 3511 H 320.39 -2.78876 1.44524 0
M  V30 3512 H 319.583 -3.35977 3.7568 0
M  V30 3513 H 319.185 -1.67598 3.34345 0
M  V30 3514 H 321.477 -4.08753 5.40303 0
M  V30 3515 H 322.42 -2.96258 6.43146 0
M  V30 3516 H 322.828 -3.1297 4.69798 0
M  V30 3517 N 322.226 -1.5378 -0.344866 0
M  V30 3518 C 323.156 -1.84662 -1.42906 0
M  V30 3519 C 324.137 -0.701648 -1.54955 0
M  V30 3520 O 325.322 -0.953438 -1.69184 0
M  V30 3521 C 322.452 -2.05503 -2.79974 0
M  V30 3522 C 321.406 -3.21318 -2.82734 0
M  V30 3523 C 320.732 -3.2749 -4.22675 0
M  V30 3524 C 322.032 -4.59456 -2.48389 0
M  V30 3525 H 323.726 -2.75461 -1.17311 0
M  V30 3526 H 321.272 -1.32542 -0.562896 0
M  V30 3527 H 323.225 -2.25691 -3.55867 0
M  V30 3528 H 321.949 -1.11434 -3.07002 0
M  V30 3529 H 320.608 -3.00984 -2.09294 0
M  V30 3530 H 320.256 -2.31019 -4.4681 0
M  V30 3531 H 319.956 -4.05316 -4.25433 0
M  V30 3532 H 321.48 -3.49887 -5.00412 0
M  V30 3533 H 322.894 -4.79667 -3.13995 0
M  V30 3534 H 321.291 -5.39675 -2.62432 0
M  V30 3535 H 322.361 -4.63155 -1.4358 0
M  V30 3536 N 323.704 0.605807 -1.45491 0
M  V30 3537 C 324.951 1.36476 -1.49601 0
M  V30 3538 C 325.279 1.94007 -0.138452 0
M  V30 3539 O 324.534 1.75638 0.863114 0
M  V30 3540 C 324.833 2.53012 -2.52428 0
M  V30 3541 C 324.499 2.13617 -3.97087 0
M  V30 3542 C 323.161 2.02587 -4.36477 0
M  V30 3543 C 325.513 1.82899 -4.88055 0
M  V30 3544 C 322.841 1.59064 -5.64726 0
M  V30 3545 C 325.193 1.40861 -6.16718 0
M  V30 3546 C 323.857 1.28391 -6.55036 0
M  V30 3547 H 323.127 0.499402 -0.547429 0
M  V30 3548 H 325.774 0.684546 -1.78847 0
M  V30 3549 H 324.079 3.26379 -2.16758 0
M  V30 3550 H 325.776 3.1124 -2.52845 0
M  V30 3551 H 322.366 2.23129 -3.65939 0
M  V30 3552 H 326.55 1.90317 -4.58359 0
M  V30 3553 H 321.806 1.48034 -5.93208 0
M  V30 3554 H 325.98 1.16138 -6.86648 0
M  V30 3555 H 323.607 0.944403 -7.54311 0
M  V30 3556 N 325.182 1.32811 0.848464 0
M  V30 3557 C 326.422 1.25046 1.61687 0
M  V30 3558 C 326.786 -0.183464 1.91121 0
M  V30 3559 O 327.987 -0.384937 2.66029 0
M  V30 3560 C 326.258 2.09201 2.89775 0
M  V30 3561 S 327.817 2.18526 3.80515 0
M  V30 3562 H 324.635 0.445023 0.554505 0
M  V30 3563 H 327.237 1.67733 1.00429 0
M  V30 3564 H 325.941 3.12433 2.66108 0
M  V30 3565 H 325.472 1.67315 3.56047 0
M  V30 3566 H 327.487 1.3393 4.77784 0
M  V30 3567 N 326.66 -1.06551 1.16123 0
M  V30 3568 C 327.89 -1.8274 0.963838 0
M  V30 3569 C 328.298 -1.82712 -0.491228 0
M  V30 3570 O 327.641 -1.24294 -1.35265 0
M  V30 3571 C 327.703 -3.3065 1.41106 0
M  V30 3572 C 327.367 -3.54384 2.88549 0
M  V30 3573 C 328.364 -3.4765 3.86569 0
M  V30 3574 C 326.049 -3.81789 3.26408 0
M  V30 3575 C 328.043 -3.67982 5.2045 0
M  V30 3576 C 325.73 -4.01772 4.60459 0
M  V30 3577 C 326.728 -3.94866 5.57288 0
M  V30 3578 O 326.416 -4.14306 6.88916 0
M  V30 3579 H 326.148 -0.583136 0.341948 0
M  V30 3580 H 328.702 -1.35351 1.54497 0
M  V30 3581 H 326.932 -3.78887 0.773394 0
M  V30 3582 H 328.621 -3.88324 1.1815 0
M  V30 3583 H 329.387 -3.2647 3.58667 0
M  V30 3584 H 325.266 -3.86276 2.51619 0
M  V30 3585 H 328.81 -3.62507 5.96015 0
M  V30 3586 H 324.707 -4.2244 4.88072 0
M  V30 3587 H 325.475 -4.31609 6.95454 0
M  V30 3588 N 328.138 -0.959301 -1.25041 0
M  V30 3589 C 329.386 -0.615393 -1.92503 0
M  V30 3590 C 329.707 0.850969 -1.75452 0
M  V30 3591 O 328.977 1.60658 -1.12098 0
M  V30 3592 H 327.557 -0.224613 -0.712431 0
M  V30 3593 H 330.219 -1.21855 -1.5211 0
M  V30 3594 H 329.315 -0.848738 -3.00338 0
M  V30 3595 N 329.616 1.39756 -0.72842 0
M  V30 3596 C 330.863 2.00645 -0.273487 0
M  V30 3597 C 331.191 1.57786 1.13727 0
M  V30 3598 O 330.446 0.794886 1.7883 0
M  V30 3599 C 330.745 3.56002 -0.315776 0
M  V30 3600 C 330.411 4.18489 -1.67863 0
M  V30 3601 C 329.073 4.3527 -2.05166 0
M  V30 3602 C 331.425 4.53219 -2.57375 0
M  V30 3603 C 328.753 4.84069 -3.31503 0
M  V30 3604 C 331.105 5.03423 -3.83077 0
M  V30 3605 C 329.769 5.18413 -4.20481 0
M  V30 3606 H 329.039 0.734211 -0.100076 0
M  V30 3607 H 331.686 1.6718 -0.933972 0
M  V30 3608 H 329.991 3.89452 0.428285 0
M  V30 3609 H 331.688 4.00963 0.0542575 0
M  V30 3610 H 328.278 4.05824 -1.37858 0
M  V30 3611 H 332.462 4.39878 -2.29827 0
M  V30 3612 H 327.718 4.93859 -3.60435 0
M  V30 3613 H 331.892 5.2927 -4.52599 0
M  V30 3614 H 329.519 5.55987 -5.18443 0
M  V30 3615 N 331.094 0.475555 1.50254 0
M  V30 3616 C 332.322 -0.0754493 2.06762 0
M  V30 3617 C 332.737 -1.33111 1.33891 0
M  V30 3618 O 332.094 -1.77846 0.40952 0
M  V30 3619 C 332.145 -0.359008 3.59713 0
M  V30 3620 O 331.866 0.846851 4.29837 0
M  V30 3621 C 333.367 -0.956484 4.32858 0
M  V30 3622 H 330.587 0.00907525 0.670939 0
M  V30 3623 H 333.131 0.665618 1.93364 0
M  V30 3624 H 331.286 -1.05001 3.72899 0
M  V30 3625 H 331.7 0.594162 5.21124 0
M  V30 3626 H 333.174 -1.10463 5.40834 0
M  V30 3627 H 333.651 -1.94775 3.93649 0
M  V30 3628 H 334.257 -0.303723 4.24214 0
M  V30 3629 N 332.573 -1.56217 0.208337 0
M  V30 3630 C 333.503 -2.22694 -0.702116 0
M  V30 3631 C 334.484 -1.19432 -1.2112 0
M  V30 3632 O 335.669 -1.47978 -1.25762 0
M  V30 3633 C 332.799 -2.8966 -1.9161 0
M  V30 3634 C 331.753 -3.9928 -1.5414 0
M  V30 3635 C 331.079 -4.53476 -2.83308 0
M  V30 3636 C 332.379 -5.17012 -0.741339 0
M  V30 3637 H 334.073 -2.99034 -0.147898 0
M  V30 3638 H 331.619 -1.43831 -0.0696951 0
M  V30 3639 H 333.572 -3.34852 -2.55836 0
M  V30 3640 H 332.296 -2.10746 -2.49507 0
M  V30 3641 H 330.955 -3.54799 -0.922668 0
M  V30 3642 H 330.603 -3.71308 -3.39322 0
M  V30 3643 H 330.303 -5.27451 -2.58976 0
M  V30 3644 H 331.827 -5.01378 -3.485 0
M  V30 3645 H 333.241 -5.58667 -1.28699 0
M  V30 3646 H 331.638 -5.97137 -0.595627 0
M  V30 3647 H 332.708 -4.8423 0.254851 0
M  V30 3648 N 334.051 0.0651679 -1.57465 0
M  V30 3649 C 335.467 0.420105 -1.53972 0
M  V30 3650 C 335.667 1.78782 -0.929474 0
M  V30 3651 O 334.723 2.46771 -0.534839 0
M  V30 3652 C 336.036 0.355084 -2.98596 0
M  V30 3653 C 337.584 0.434792 -3.09965 0
M  V30 3654 C 338.059 0.399609 -4.56253 0
M  V30 3655 N 339.55 0.459488 -4.60915 0
M  V30 3656 C 340.285 0.454584 -5.71595 0
M  V30 3657 N 339.781 0.404102 -6.9162 0
M  V30 3658 N 341.574 0.501635 -5.59857 0
M  V30 3659 H 333.725 -0.830328 -1.95498 0
M  V30 3660 H 335.988 -0.312244 -0.895102 0
M  V30 3661 H 335.694 -0.583357 -3.46828 0
M  V30 3662 H 335.568 1.16275 -3.58831 0
M  V30 3663 H 337.955 1.36366 -2.61703 0
M  V30 3664 H 338.036 -0.40157 -2.52628 0
M  V30 3665 H 337.68 -0.525436 -5.05175 0
M  V30 3666 H 337.61 1.25359 -5.11461 0
M  V30 3667 H 340.101 0.502482 -3.74544 0
M  V30 3668 H 340.414 0.404468 -7.71741 0
M  V30 3669 H 338.759 0.37069 -6.94011 0
M  V30 3670 H 341.95 0.538812 -4.64989 0
M  V30 3671 H 342.123 0.494345 -6.46112 0
M  V30 3672 N 335.529 1.53961 0.336706 0
M  V30 3673 C 336.757 1.75483 1.09605 0
M  V30 3674 C 337.172 0.4972 1.82136 0
M  V30 3675 O 336.529 -0.53149 1.74589 0
M  V30 3676 C 336.58 2.93943 2.10428 0
M  V30 3677 O 336.301 4.14842 1.40846 0
M  V30 3678 C 337.802 3.27571 2.98684 0
M  V30 3679 H 335.022 0.586166 0.326574 0
M  V30 3680 H 337.566 2.00808 0.38683 0
M  V30 3681 H 335.721 2.70929 2.76905 0
M  V30 3682 H 336.135 4.81383 2.08255 0
M  V30 3683 H 337.609 4.13791 3.6535 0
M  V30 3684 H 338.086 2.44168 3.65074 0
M  V30 3685 H 338.692 3.52615 2.37787 0
M  V30 3686 N 337.007 -0.598083 1.45811 0
M  V30 3687 C 337.937 -1.71873 1.58057 0
M  V30 3688 C 338.918 -1.64533 0.431615 0
M  V30 3689 O 340.103 -1.82787 0.65595 0
M  V30 3690 C 337.233 -3.10495 1.55597 0
M  V30 3691 C 336.187 -3.32654 2.69305 0
M  V30 3692 C 335.513 -4.71646 2.51902 0
M  V30 3693 C 336.813 -3.21981 4.11248 0
M  V30 3694 H 338.507 -1.61881 2.51863 0
M  V30 3695 H 336.053 -0.777372 1.21214 0
M  V30 3696 H 338.006 -3.88699 1.6276 0
M  V30 3697 H 336.73 -3.2135 0.583255 0
M  V30 3698 H 335.389 -2.56843 2.61586 0
M  V30 3699 H 335.037 -4.79246 1.52748 0
M  V30 3700 H 334.737 -4.87426 3.2816 0
M  V30 3701 H 336.261 -5.52038 2.60933 0
M  V30 3702 H 337.675 -3.90049 4.20161 0
M  V30 3703 H 336.072 -3.49289 4.87972 0
M  V30 3704 H 337.142 -2.1928 4.32486 0
M  V30 3705 N 338.485 -1.33259 -0.841409 0
M  V30 3706 C 339.732 -1.24572 -1.5965 0
M  V30 3707 C 340.06 0.189137 -1.93578 0
M  V30 3708 O 339.315 1.14566 -1.5866 0
M  V30 3709 C 339.614 -2.06381 -2.9179 0
M  V30 3710 C 339.28 -3.556 -2.77235 0
M  V30 3711 C 337.942 -3.96282 -2.72973 0
M  V30 3712 C 340.294 -4.50433 -2.62221 0
M  V30 3713 C 337.622 -5.30017 -2.51592 0
M  V30 3714 C 339.974 -5.84327 -2.42374 0
M  V30 3715 C 338.638 -6.24194 -2.36512 0
M  V30 3716 H 337.908 -0.455842 -0.5842 0
M  V30 3717 H 340.555 -1.6482 -0.975016 0
M  V30 3718 H 338.86 -1.58903 -3.5813 0
M  V30 3719 H 340.557 -1.97019 -3.49263 0
M  V30 3720 H 337.147 -3.23298 -2.81384 0
M  V30 3721 H 341.331 -4.19914 -2.64549 0
M  V30 3722 H 336.587 -5.59947 -2.45499 0
M  V30 3723 H 340.761 -6.57414 -2.29739 0
M  V30 3724 H 338.388 -7.27759 -2.19706 0
M  V30 3725 N 339.963 1.05934 -1.16686 0
M  V30 3726 C 340.91 2.13499 -0.876748 0
M  V30 3727 C 341.88 1.65162 0.176299 0
M  V30 3728 O 343.065 1.90757 0.0407143 0
M  V30 3729 C 340.205 3.42912 -0.387967 0
M  V30 3730 C 339.318 4.04964 -1.50426 0
M  V30 3731 C 338.453 5.22266 -0.970125 0
M  V30 3732 C 337.492 5.76309 -2.06238 0
M  V30 3733 N 336.629 6.84922 -1.54356 0
M  V30 3734 H 341.469 2.37654 -1.7979 0
M  V30 3735 H 339.006 1.16598 -0.896843 0
M  V30 3736 H 340.964 4.17111 -0.086186 0
M  V30 3737 H 339.594 3.18963 0.496235 0
M  V30 3738 H 338.646 3.28277 -1.92193 0
M  V30 3739 H 339.958 4.41122 -2.32836 0
M  V30 3740 H 339.112 6.03506 -0.621743 0
M  V30 3741 H 337.851 4.87564 -0.115377 0
M  V30 3742 H 336.856 4.93704 -2.41942 0
M  V30 3743 H 338.081 6.13062 -2.92115 0
M  V30 3744 H 336.027 6.52131 -0.711406 0
M  V30 3745 H 335.944 7.20043 -2.30379 0
M  V30 3746 H 337.212 7.69832 -1.22387 0
M  V30 3747 N 341.441 0.965919 1.2453 0
M  V30 3748 C 342.404 0.499547 2.2369 0
M  V30 3749 C 343.404 -0.40294 1.5567 0
M  V30 3750 O 344.594 -0.19865 1.73064 0
M  V30 3751 C 341.726 -0.276792 3.39774 0
M  V30 3752 H 342.919 1.37613 2.66463 0
M  V30 3753 H 340.472 0.750324 1.37112 0
M  V30 3754 H 341.207 -1.17055 3.02438 0
M  V30 3755 H 340.992 0.370826 3.90343 0
M  V30 3756 H 342.482 -0.592175 4.1338 0
M  V30 3757 N 342.919 -1.39368 0.735821 0
M  V30 3758 C 343.869 -2.27885 0.0724287 0
M  V30 3759 C 344.853 -1.44301 -0.711756 0
M  V30 3760 O 346.045 -1.67206 -0.58063 0
M  V30 3761 C 343.174 -3.33029 -0.833454 0
M  V30 3762 C 342.26 -4.24078 -0.0433749 0
M  V30 3763 N 342.651 -4.96138 0.983903 0
M  V30 3764 C 340.949 -4.45164 -0.272905 0
M  V30 3765 C 341.65 -5.63069 1.4604 0
M  V30 3766 N 340.626 -5.37991 0.778857 0
M  V30 3767 H 344.428 -2.81052 0.859467 0
M  V30 3768 H 341.942 -1.5206 0.570227 0
M  V30 3769 H 343.939 -3.95311 -1.32419 0
M  V30 3770 H 342.599 -2.81421 -1.61964 0
M  V30 3771 H 343.61 -4.9958 1.36528 0
M  V30 3772 H 340.287 -4.04497 -1.03383 0
M  V30 3773 H 341.677 -6.30755 2.31511 0
M  V30 3774 N 344.397 -0.483516 -1.5 0
M  V30 3775 C 345.33 0.350427 -2.25493 0
M  V30 3776 C 346.308 0.985549 -1.29328 0
M  V30 3777 O 347.492 1.01906 -1.58579 0
M  V30 3778 C 344.619 1.49202 -3.04066 0
M  V30 3779 C 343.665 0.973036 -4.15252 0
M  V30 3780 S 344.498 -0.122237 -5.3536 0
M  V30 3781 C 345.654 1.02294 -6.17484 0
M  V30 3782 H 345.887 -0.290381 -2.95878 0
M  V30 3783 H 343.42 -0.268562 -1.52046 0
M  V30 3784 H 345.378 2.14623 -3.49925 0
M  V30 3785 H 344.039 2.10438 -2.33183 0
M  V30 3786 H 343.232 1.82804 -4.69679 0
M  V30 3787 H 342.834 0.396335 -3.71894 0
M  V30 3788 H 345.126 1.93195 -6.49371 0
M  V30 3789 H 346.069 0.517664 -7.06205 0
M  V30 3790 H 346.477 1.28238 -5.49741 0
M  V30 3791 N 345.875 1.56104 -0.216619 0
M  V30 3792 C 347.123 1.97781 0.415593 0
M  V30 3793 C 347.444 1.10536 1.60645 0
M  V30 3794 O 346.714 0.181303 1.95059 0
M  V30 3795 H 345.294 0.730415 0.156534 0
M  V30 3796 H 347.956 1.92445 -0.308366 0
M  V30 3797 H 347.052 3.03072 0.74525 0
M  V30 3798 N 347.353 -0.0568162 1.57498 0
M  V30 3799 C 348.285 -1.09292 2.01464 0
M  V30 3800 C 349.298 -1.34112 0.922913 0
M  V30 3801 O 350.487 -1.32089 1.20062 0
M  V30 3802 C 347.587 -2.44068 2.35125 0
M  V30 3803 C 346.76 -2.38995 3.66333 0
M  V30 3804 C 345.819 -3.55997 3.87495 0
M  V30 3805 O 344.845 -3.36746 4.58901 0
M  V30 3806 N 346.047 -4.76888 3.30996 0
M  V30 3807 H 348.812 -0.718386 2.90963 0
M  V30 3808 H 346.373 -0.245235 1.60032 0
M  V30 3809 H 348.365 -3.21011 2.46443 0
M  V30 3810 H 346.935 -2.73468 1.5144 0
M  V30 3811 H 346.155 -1.47336 3.65631 0
M  V30 3812 H 347.443 -2.3272 4.52458 0
M  V30 3813 H 346.841 -4.95431 2.73065 0
M  V30 3814 H 345.398 -5.51291 3.47738 0
M  V30 3815 N 348.832 -1.54138 -0.328536 0
M  V30 3816 C 349.779 -1.83176 -1.40411 0
M  V30 3817 C 350.749 -0.678494 -1.5161 0
M  V30 3818 O 351.934 -0.92443 -1.6691 0
M  V30 3819 C 349.074 -2.06035 -2.76846 0
M  V30 3820 C 348.187 -3.33727 -2.74318 0
M  V30 3821 C 347.322 -3.46574 -4.02567 0
M  V30 3822 C 346.361 -4.68159 -3.94327 0
M  V30 3823 N 345.498 -4.77959 -5.14296 0
M  V30 3824 H 350.338 -2.74938 -1.14948 0
M  V30 3825 H 347.875 -1.36166 -0.556538 0
M  V30 3826 H 349.833 -2.1728 -3.56153 0
M  V30 3827 H 348.463 -1.1757 -3.00628 0
M  V30 3828 H 347.515 -3.31246 -1.8703 0
M  V30 3829 H 348.827 -4.23139 -2.64111 0
M  V30 3830 H 347.981 -3.57333 -4.90304 0
M  V30 3831 H 346.72 -2.55245 -4.15574 0
M  V30 3832 H 345.725 -4.57461 -3.04974 0
M  V30 3833 H 346.95 -5.60868 -3.82889 0
M  V30 3834 H 344.896 -3.89544 -5.27818 0
M  V30 3835 H 344.813 -5.6133 -5.06404 0
M  V30 3836 H 346.081 -4.93044 -6.03761 0
M  V30 3837 N 350.31 0.590341 -1.46126 0
M  V30 3838 C 351.26 1.69466 -1.5253 0
M  V30 3839 C 352.244 1.56179 -0.386917 0
M  V30 3840 O 353.436 1.65223 -0.634858 0
M  V30 3841 C 350.565 3.08245 -1.5113 0
M  V30 3842 C 349.651 3.26856 -2.70233 0
M  V30 3843 N 350.042 3.15657 -3.95214 0
M  V30 3844 C 348.34 3.57775 -2.66296 0
M  V30 3845 C 349.041 3.36066 -4.74799 0
M  V30 3846 N 348.017 3.60865 -4.06543 0
M  V30 3847 H 351.819 1.59326 -2.46966 0
M  V30 3848 H 349.333 0.79414 -1.41659 0
M  V30 3849 H 351.33 3.87492 -1.53804 0
M  V30 3850 H 349.99 3.19521 -0.577636 0
M  V30 3851 H 351.001 2.93686 -4.26578 0
M  V30 3852 H 347.678 3.75782 -1.81918 0
M  V30 3853 H 349.068 3.32655 -5.83772 0
M  V30 3854 N 351.788 1.33704 0.83433 0
M  V30 3855 C 353.204 1.13137 1.12571 0
M  V30 3856 C 353.404 -0.0747261 2.01361 0
M  V30 3857 O 352.46 -0.753647 2.4099 0
M  V30 3858 C 353.773 2.42105 1.78342 0
M  V30 3859 C 355.321 2.48054 1.90888 0
M  V30 3860 C 355.796 3.76995 2.60075 0
M  V30 3861 N 357.287 3.78092 2.67584 0
M  V30 3862 C 358.022 4.74574 3.21818 0
M  V30 3863 N 357.518 5.81434 3.76705 0
M  V30 3864 N 359.311 4.62044 3.20112 0
M  V30 3865 H 351.462 2.11 0.243489 0
M  V30 3866 H 353.725 0.932532 0.17055 0
M  V30 3867 H 353.431 3.30391 1.20561 0
M  V30 3868 H 353.305 2.54594 2.7832 0
M  V30 3869 H 355.692 1.60215 2.47821 0
M  V30 3870 H 355.773 2.39502 0.898459 0
M  V30 3871 H 355.417 4.65219 2.03799 0
M  V30 3872 H 355.347 3.82825 3.61597 0
M  V30 3873 H 357.838 3.00865 2.28667 0
M  V30 3874 H 358.151 6.51084 4.16305 0
M  V30 3875 H 356.496 5.85163 3.7498 0
M  V30 3876 H 359.687 3.77716 2.76493 0
M  V30 3877 H 359.86 5.37406 3.62076 0
M  V30 3878 N 353.266 -1.05314 1.17247 0
M  V30 3879 C 354.229 -2.112 0.890357 0
M  V30 3880 C 355.229 -1.60359 -0.118943 0
M  V30 3881 O 356.419 -1.73833 0.113086 0
M  V30 3882 C 353.551 -3.39266 0.333422 0
M  V30 3883 H 354.744 -2.37659 1.82916 0
M  V30 3884 H 352.297 -1.21538 0.982758 0
M  V30 3885 H 353.032 -3.18462 -0.612587 0
M  V30 3886 H 352.817 -3.77477 1.06082 0
M  V30 3887 H 354.307 -4.17315 0.154322 0
M  V30 3888 N 354.744 -0.972509 -1.24016 0
M  V30 3889 C 355.677 -0.45117 -2.23696 0
M  V30 3890 C 356.655 0.477378 -1.55434 0
M  V30 3891 O 357.839 0.407647 -1.84039 0
M  V30 3892 C 354.966 0.34818 -3.36906 0
M  V30 3893 C 354.012 -0.523355 -4.23277 0
M  V30 3894 S 354.845 -1.96647 -4.98087 0
M  V30 3895 C 356.001 -1.17604 -6.14752 0
M  V30 3896 H 356.234 -1.29588 -2.67571 0
M  V30 3897 H 353.767 -0.777903 -1.33372 0
M  V30 3898 H 355.725 0.803387 -4.02562 0
M  V30 3899 H 354.386 1.16792 -2.91579 0
M  V30 3900 H 353.579 0.0906181 -5.03919 0
M  V30 3901 H 353.181 -0.914485 -3.62647 0
M  V30 3902 H 355.473 -0.433434 -6.76112 0
M  V30 3903 H 356.416 -1.95701 -6.8052 0
M  V30 3904 H 356.824 -0.698295 -5.60164 0
M  V30 3905 N 356.222 1.38976 -0.743202 0
M  V30 3906 C 357.638 1.53984 -0.419664 0
M  V30 3907 C 357.838 1.70837 1.0685 0
M  V30 3908 O 356.894 1.7135 1.8546 0
M  V30 3909 C 358.207 2.75287 -1.20985 0
M  V30 3910 C 359.755 2.89129 -1.19889 0
M  V30 3911 C 360.23 4.13381 -1.97181 0
M  V30 3912 N 361.721 4.20437 -1.94389 0
M  V30 3913 C 362.456 5.15547 -2.50996 0
M  V30 3914 N 361.952 6.16395 -3.16274 0
M  V30 3915 N 363.745 5.07822 -2.40984 0
M  V30 3916 H 355.896 1.26285 -1.7078 0
M  V30 3917 H 358.159 0.612689 -0.723406 0
M  V30 3918 H 357.865 2.69204 -2.26323 0
M  V30 3919 H 357.739 3.68184 -0.819759 0
M  V30 3920 H 360.126 2.947 -0.153606 0
M  V30 3921 H 360.207 1.97272 -1.62841 0
M  V30 3922 H 359.851 4.08572 -3.01714 0
M  V30 3923 H 359.781 5.04298 -1.51629 0
M  V30 3924 H 362.272 3.48205 -1.46839 0
M  V30 3925 H 362.585 6.85443 -3.56915 0
M  V30 3926 H 360.93 6.16758 -3.20367 0
M  V30 3927 H 364.121 4.27973 -1.89622 0
M  V30 3928 H 364.294 5.81767 -2.85397 0
M  V30 3929 N 357.7 0.491464 1.49741 0
M  V30 3930 C 358.946 -0.0565092 2.02721 0
M  V30 3931 C 359.279 -1.37522 1.37118 0
M  V30 3932 O 358.554 -1.87866 0.503645 0
M  V30 3933 C 358.837 -0.219051 3.59433 0
M  V30 3934 C 358.69 1.12211 4.35579 0
M  V30 3935 C 360.009 -0.964157 4.29409 0
M  V30 3936 H 357.128 -0.0190627 0.736753 0
M  V30 3937 H 359.77 0.641021 1.7886 0
M  V30 3938 H 357.92 -0.813165 3.79895 0
M  V30 3939 H 359.592 1.75437 4.26637 0
M  V30 3940 H 357.835 1.71377 3.98513 0
M  V30 3941 H 358.506 0.961794 5.43556 0
M  V30 3942 H 360.982 -0.460378 4.13545 0
M  V30 3943 H 359.858 -1.04671 5.38828 0
M  V30 3944 H 360.119 -2.00563 3.93988 0
M  V30 3945 N 359.178 -1.55987 0.224894 0
M  V30 3946 C 360.427 -1.97566 -0.406273 0
M  V30 3947 C 360.74 -1.11569 -1.6066 0
M  V30 3948 O 361.946 -1.43062 -2.3075 0
M  V30 3949 C 360.402 -3.51474 -0.774207 0
M  V30 3950 C 360.01 -4.46179 0.403496 0
M  V30 3951 C 361.754 -4.01758 -1.37079 0
M  V30 3952 C 359.661 -5.91399 0.0129412 0
M  V30 3953 H 358.591 -0.737777 -0.155565 0
M  V30 3954 H 361.242 -1.80659 0.321635 0
M  V30 3955 H 359.624 -3.63994 -1.55963 0
M  V30 3956 H 360.798 -4.45409 1.18101 0
M  V30 3957 H 359.113 -4.06255 0.913536 0
M  V30 3958 H 361.71 -5.07756 -1.67596 0
M  V30 3959 H 362.053 -3.47805 -2.28773 0
M  V30 3960 H 362.586 -3.92475 -0.648733 0
M  V30 3961 H 359.325 -6.49341 0.896451 0
M  V30 3962 H 358.845 -5.95356 -0.728821 0
M  V30 3963 H 360.524 -6.45683 -0.412582 0
M  V30 3964 N 360.656 0.0484629 -1.57525 0
M  V30 3965 C 361.903 0.743125 -1.88372 0
M  V30 3966 C 362.231 1.76383 -0.819715 0
M  V30 3967 O 361.486 1.94855 0.181659 0
M  V30 3968 C 361.785 1.46632 -3.25935 0
M  V30 3969 C 361.451 0.583427 -4.4711 0
M  V30 3970 C 360.113 0.340191 -4.79996 0
M  V30 3971 C 362.465 -0.0273345 -5.21193 0
M  V30 3972 C 359.793 -0.522903 -5.84365 0
M  V30 3973 C 362.145 -0.878017 -6.26477 0
M  V30 3974 C 360.809 -1.1309 -6.5785 0
M  V30 3975 H 360.079 0.271929 -0.689301 0
M  V30 3976 H 362.726 0.00336166 -1.915 0
M  V30 3977 H 361.031 2.2789 -3.18706 0
M  V30 3978 H 362.728 2.00902 -3.47044 0
M  V30 3979 H 359.318 0.783151 -4.21384 0
M  V30 3980 H 363.502 0.147654 -4.9608 0
M  V30 3981 H 358.758 -0.727335 -6.07058 0
M  V30 3982 H 362.932 -1.35789 -6.83033 0
M  V30 3983 H 360.559 -1.80144 -7.38547 0
M  V30 3984 N 362.134 1.5431 0.320358 0
M  V30 3985 C 363.097 1.83195 1.3774 0
M  V30 3986 C 364.097 0.703906 1.44575 0
M  V30 3987 O 365.287 0.972214 1.44546 0
M  V30 3988 C 362.419 1.99487 2.76438 0
M  V30 3989 H 363.612 2.77642 1.1338 0
M  V30 3990 H 361.165 1.46076 0.556012 0
M  V30 3991 H 361.9 1.07262 3.06048 0
M  V30 3992 H 361.685 2.81575 2.7287 0
M  V30 3993 H 363.175 2.23271 3.52902 0
M  V30 3994 N 363.613 -0.582584 1.46437 0
M  V30 3995 C 364.859 -1.34278 1.51978 0
M  V30 3996 C 365.192 -1.93446 0.170973 0
M  V30 3997 O 364.467 -1.76481 -0.817608 0
M  V30 3998 C 364.75 -2.47203 2.61845 0
M  V30 3999 C 364.603 -1.93069 4.06257 0
M  V30 4000 C 365.922 -3.49247 2.67795 0
M  V30 4001 H 363.041 -0.486876 0.553282 0
M  V30 4002 H 365.683 -0.654437 1.78374 0
M  V30 4003 H 363.833 -3.0592 2.39469 0
M  V30 4004 H 365.505 -1.38808 4.3992 0
M  V30 4005 H 363.748 -1.23898 4.1573 0
M  V30 4006 H 364.419 -2.74586 4.7886 0
M  V30 4007 H 366.895 -3.00411 2.8791 0
M  V30 4008 H 365.771 -4.25719 3.46489 0
M  V30 4009 H 366.032 -4.06482 1.73852 0
M  V30 4010 N 365.091 -1.34144 -0.827227 0
M  V30 4011 C 366.337 -1.26446 -1.58554 0
M  V30 4012 C 366.67 0.1664 -1.93486 0
M  V30 4013 O 365.945 1.1107 -1.59667 0
M  V30 4014 C 366.228 -2.15111 -2.8879 0
M  V30 4015 C 366.081 -3.66712 -2.60465 0
M  V30 4016 C 367.4 -2.03311 -3.90324 0
M  V30 4017 H 364.519 -0.46067 -0.575284 0
M  V30 4018 H 367.161 -1.64356 -0.953269 0
M  V30 4019 H 365.311 -1.8291 -3.42748 0
M  V30 4020 H 366.983 -4.09259 -2.1285 0
M  V30 4021 H 365.226 -3.88014 -1.93978 0
M  V30 4022 H 365.897 -4.24112 -3.53317 0
M  V30 4023 H 368.373 -2.31574 -3.45706 0
M  V30 4024 H 367.249 -2.67582 -4.79261 0
M  V30 4025 H 367.51 -1.00879 -4.30437 0
M  V30 4026 N 366.569 1.04691 -1.17803 0
M  V30 4027 C 367.499 2.14494 -0.92275 0
M  V30 4028 C 368.48 1.69546 0.137179 0
M  V30 4029 O 369.665 1.94195 -0.0141108 0
M  V30 4030 C 366.795 3.44491 -0.440803 0
M  V30 4031 C 365.749 4.03031 -1.4405 0
M  V30 4032 C 365.075 5.28432 -0.81631 0
M  V30 4033 C 366.375 4.39932 -2.81527 0
M  V30 4034 H 368.069 2.36107 -1.84103 0
M  V30 4035 H 365.615 1.1347 -0.886599 0
M  V30 4036 H 367.568 4.2066 -0.249602 0
M  V30 4037 H 366.292 3.22546 0.513025 0
M  V30 4038 H 364.951 3.28937 -1.61853 0
M  V30 4039 H 364.599 5.02792 0.144511 0
M  V30 4040 H 364.299 5.68559 -1.48371 0
M  V30 4041 H 365.823 6.07284 -0.635496 0
M  V30 4042 H 367.237 5.07113 -2.67412 0
M  V30 4043 H 365.634 4.9109 -3.44892 0
M  V30 4044 H 366.704 3.50045 -3.35554 0
M  V30 4045 N 368.047 0.979072 1.23499 0
M  V30 4046 C 369.296 0.642751 1.91185 0
M  V30 4047 C 369.609 -0.827253 1.77245 0
M  V30 4048 O 370.815 -1.27458 2.39722 0
M  V30 4049 C 369.271 1.09901 3.42709 0
M  V30 4050 C 368.879 2.59327 3.65313 0
M  V30 4051 C 370.623 0.836371 4.16179 0
M  V30 4052 C 368.53 2.98627 5.10467 0
M  V30 4053 H 367.46 0.236698 0.715884 0
M  V30 4054 H 370.111 1.1868 1.39955 0
M  V30 4055 H 368.493 0.48319 3.93041 0
M  V30 4056 H 369.667 3.26136 3.25533 0
M  V30 4057 H 367.982 2.83323 3.05151 0
M  V30 4058 H 370.579 1.10586 5.23139 0
M  V30 4059 H 370.922 -0.227509 4.15678 0
M  V30 4060 H 371.455 1.41371 3.71832 0
M  V30 4061 H 368.194 4.04133 5.16098 0
M  V30 4062 H 367.714 2.3651 5.51201 0
M  V30 4063 H 369.393 2.89159 5.78788 0
M  V30 4064 N 369.525 -1.3858 0.750561 0
M  V30 4065 C 370.772 -2.00184 0.305373 0
M  V30 4066 C 371.1 -1.59575 -1.11203 0
M  V30 4067 O 370.355 -0.823236 -1.77542 0
M  V30 4068 C 370.654 -3.55455 0.372373 0
M  V30 4069 C 370.32 -4.15765 1.745 0
M  V30 4070 C 368.982 -4.31951 2.12065 0
M  V30 4071 C 371.334 -4.49067 2.64553 0
M  V30 4072 C 368.662 -4.78734 3.39162 0
M  V30 4073 C 371.014 -4.97265 3.91038 0
M  V30 4074 C 369.678 -5.11658 4.28676 0
M  V30 4075 H 368.948 -0.732526 0.111744 0
M  V30 4076 H 371.595 -1.65673 0.960451 0
M  V30 4077 H 369.9 -3.90084 -0.366272 0
M  V30 4078 H 371.597 -4.00999 0.00953918 0
M  V30 4079 H 368.187 -4.03579 1.44297 0
M  V30 4080 H 372.371 -4.36166 2.36796 0
M  V30 4081 H 367.627 -4.88062 3.68246 0
M  V30 4082 H 371.801 -5.22003 4.60962 0
M  V30 4083 H 369.428 -5.47668 5.27222 0
M  V30 4084 N 371.003 -0.499398 -1.49478 0
M  V30 4085 C 371.933 0.269244 -2.31943 0
M  V30 4086 C 372.914 0.964054 -1.40143 0
M  V30 4087 O 374.099 0.955767 -1.69052 0
M  V30 4088 C 371.229 1.33504 -3.20615 0
M  V30 4089 C 370.183 0.760202 -4.21195 0
M  V30 4090 C 369.509 1.9264 -4.98792 0
M  V30 4091 C 370.809 -0.247661 -5.21712 0
M  V30 4092 H 372.503 -0.419082 -2.96452 0
M  V30 4093 H 370.049 -0.202988 -1.42562 0
M  V30 4094 H 372.002 1.88048 -3.77115 0
M  V30 4095 H 370.726 2.05253 -2.54045 0
M  V30 4096 H 369.385 0.23653 -3.65836 0
M  V30 4097 H 369.033 2.63154 -4.28671 0
M  V30 4098 H 368.733 1.54785 -5.66847 0
M  V30 4099 H 370.257 2.4762 -5.58137 0
M  V30 4100 H 371.671 0.209579 -5.72917 0
M  V30 4101 H 370.068 -0.541962 -5.97648 0
M  V30 4102 H 371.138 -1.16409 -4.7072 0
M  V30 4103 N 372.481 1.55866 -0.233164 0
M  V30 4104 C 373.411 2.23783 0.666599 0
M  V30 4105 C 374.392 1.21343 1.19205 0
M  V30 4106 O 375.577 1.4996 1.23392 0
M  V30 4107 C 372.707 2.92671 1.86978 0
M  V30 4108 C 371.661 4.01682 1.47768 0
M  V30 4109 C 370.987 4.57926 2.76058 0
M  V30 4110 C 372.287 5.18126 0.658993 0
M  V30 4111 H 373.981 2.99232 0.100306 0
M  V30 4112 H 371.527 1.43924 0.046804 0
M  V30 4113 H 373.48 3.3888 2.50476 0
M  V30 4114 H 372.204 2.14688 2.46123 0
M  V30 4115 H 370.863 3.56222 0.866106 0
M  V30 4116 H 370.511 3.76659 3.33372 0
M  V30 4117 H 370.211 5.31505 2.50552 0
M  V30 4118 H 371.735 5.06859 3.40479 0
M  V30 4119 H 373.149 5.60644 1.19795 0
M  V30 4120 H 371.546 5.98009 0.500552 0
M  V30 4121 H 372.616 4.83763 -0.331856 0
M  V30 4122 N 373.959 -0.0401083 1.57549 0
M  V30 4123 C 375.199 -0.738098 1.90608 0
M  V30 4124 C 375.563 -1.73107 0.830539 0
M  V30 4125 O 376.764 -2.4765 1.04513 0
M  V30 4126 C 375.035 -1.39985 3.28845 0
M  V30 4127 S 376.594 -2.12852 3.83718 0
M  V30 4128 H 373.412 -0.24477 0.667539 0
M  V30 4129 H 376.014 0.00693599 1.95499 0
M  V30 4130 H 374.718 -0.663775 4.04997 0
M  V30 4131 H 374.249 -2.18366 3.2723 0
M  V30 4132 H 376.264 -3.39842 3.61555 0
M  V30 4133 N 375.437 -1.54477 -0.31217 0
M  V30 4134 C 376.683 -1.74417 -1.04644 0
M  V30 4135 C 377.038 -0.517641 -1.85306 0
M  V30 4136 O 376.331 0.489973 -1.85229 0
M  V30 4137 C 376.525 -2.967 -1.99258 0
M  V30 4138 C 376.354 -4.31128 -1.27901 0
M  V30 4139 C 375.124 -4.95087 -1.01079 0
M  V30 4140 C 377.322 -5.09662 -0.689119 0
M  V30 4141 N 375.304 -6.13322 -0.266323 0
M  V30 4142 C 376.675 -6.19952 -0.0768523 0
M  V30 4143 C 378.73 -4.94355 -0.593061 0
M  V30 4144 C 377.433 -7.16604 0.622165 0
M  V30 4145 C 379.459 -5.91328 0.0922792 0
M  V30 4146 C 378.821 -7.00978 0.693443 0
M  V30 4147 H 374.92 -0.69094 -0.366231 0
M  V30 4148 H 377.504 -1.91946 -0.326319 0
M  V30 4149 H 375.675 -2.80616 -2.68532 0
M  V30 4150 H 377.407 -3.05216 -2.65755 0
M  V30 4151 H 374.162 -4.55235 -1.30607 0
M  V30 4152 H 374.586 -6.76937 0.0920973 0
M  V30 4153 H 379.228 -4.09719 -1.04355 0
M  V30 4154 H 376.946 -8.0079 1.08445 0
M  V30 4155 H 380.532 -5.81562 0.166396 0
M  V30 4156 H 379.412 -7.74725 1.21533 0
M  V30 4157 N 376.915 0.57481 -1.46744 0
M  V30 4158 C 377.845 1.69337 -1.60771 0
M  V30 4159 C 378.826 1.63825 -0.457736 0
M  V30 4160 O 380.011 1.8172 -0.684947 0
M  V30 4161 C 377.141 3.0798 -1.60517 0
M  V30 4162 C 376.095 3.28327 -2.74564 0
M  V30 4163 C 375.421 4.67578 -2.59373 0
M  V30 4164 C 376.721 3.15398 -4.16319 0
M  V30 4165 H 378.415 1.57853 -2.54407 0
M  V30 4166 H 375.961 0.75799 -1.22436 0
M  V30 4167 H 377.914 3.86061 -1.68923 0
M  V30 4168 H 376.638 3.20381 -0.634305 0
M  V30 4169 H 375.297 2.52649 -2.65639 0
M  V30 4170 H 374.945 4.76755 -1.60353 0
M  V30 4171 H 374.645 4.82144 -3.35873 0
M  V30 4172 H 376.169 5.47817 -2.69682 0
M  V30 4173 H 377.583 3.83315 -4.26313 0
M  V30 4174 H 375.98 3.41482 -4.93468 0
M  V30 4175 H 377.05 2.12372 -4.3592 0
M  V30 4176 N 378.394 1.34581 0.820102 0
M  V30 4177 C 379.805 1.24298 1.39309 0
M  V30 4178 C 380.156 -0.130351 1.95767 0
M  V30 4179 O 379.281 -1.0308 1.90272 0
M  V30 4180 C 379.876 2.25054 2.53251 0
M  V30 4181 C 378.435 2.18552 3.0645 0
M  V30 4182 C 377.582 2.11503 1.79337 0
M  V30 4183 H 380.533 1.45906 0.624262 0
M  V30 4184 H 380.554 1.86917 3.31425 0
M  V30 4185 H 380.066 3.24996 2.1213 0
M  V30 4186 H 378.167 1.21976 3.52069 0
M  V30 4187 H 378.28 3.0993 3.65349 0
M  V30 4188 H 376.644 1.57268 2.00347 0
M  V30 4189 H 377.427 3.13284 1.40386 0
M  V30 4190 N 379.872 -1.04064 1.18357 0
M  V30 4191 C 381.102 -1.80654 1.00238 0
M  V30 4192 C 381.51 -1.83713 -0.452362 0
M  V30 4193 O 380.853 -1.27135 -1.32599 0
M  V30 4194 C 380.915 -3.27582 1.48088 0
M  V30 4195 C 380.579 -3.48184 2.96002 0
M  V30 4196 C 381.576 -3.39372 3.93856 0
M  V30 4197 C 379.261 -3.7478 3.34433 0
M  V30 4198 C 381.255 -3.5686 5.28138 0
M  V30 4199 C 378.942 -3.91915 4.68877 0
M  V30 4200 C 379.94 -3.82956 5.65539 0
M  V30 4201 O 379.628 -3.996 6.97549 0
M  V30 4202 H 379.36 -0.575751 0.354241 0
M  V30 4203 H 381.914 -1.32044 1.57333 0
M  V30 4204 H 380.144 -3.77161 0.853588 0
M  V30 4205 H 381.833 -3.8573 1.2636 0
M  V30 4206 H 382.599 -3.18789 3.65511 0
M  V30 4207 H 378.478 -3.80852 2.59756 0
M  V30 4208 H 382.022 -3.49783 6.03571 0
M  V30 4209 H 377.919 -4.11992 4.96923 0
M  V30 4210 H 378.687 -4.1676 7.04452 0
M  V30 4211 N 381.35 -0.985608 -1.22978 0
M  V30 4212 C 382.298 -0.522631 -2.26652 0
M  V30 4213 C 383.292 0.422998 -1.64034 0
M  V30 4214 O 384.498 0.296319 -1.77544 0
M  V30 4215 H 380.873 -0.150597 -0.736766 0
M  V30 4216 H 382.844 -1.40863 -2.63059 0
M  V30 4217 C 381.593 0.154238 -3.47358 0
M  V30 4218 H 380.916 -0.564329 -3.95797 0
M  V30 4219 H 382.356 0.441744 -4.21693 0
M  V30 4220 C 380.815 1.38719 -3.07016 0
M  V30 4221 O 381.345 2.48307 -3.15764 0
M  V30 4222 N 379.551 1.25975 -2.61875 0
M  V30 4223 H 379.098 0.368068 -2.54957 0
M  V30 4224 H 379.056 2.08578 -2.3525 0
M  V30 4225 N 382.828 1.3818 -0.7579 0
M  V30 4226 C 383.758 2.33027 -0.148597 0
M  V30 4227 C 384.739 1.55085 0.69875 0
M  V30 4228 O 385.924 1.83384 0.639053 0
M  V30 4229 C 383.054 3.3928 0.742034 0
M  V30 4230 C 382.008 4.28 -0.00291946 0
M  V30 4231 C 381.334 5.25146 1.00625 0
M  V30 4232 C 382.634 5.08938 -1.17385 0
M  V30 4233 H 384.328 2.84231 -0.940909 0
M  V30 4234 H 381.874 1.36659 -0.453908 0
M  V30 4235 H 383.827 4.046 1.17799 0
M  V30 4236 H 382.551 2.86569 1.56671 0
M  V30 4237 H 381.21 3.64192 -0.419504 0
M  V30 4238 H 380.858 4.68721 1.8251 0
M  V30 4239 H 380.558 5.85361 0.512428 0
M  V30 4240 H 382.082 5.93342 1.44143 0
M  V30 4241 H 383.496 5.67474 -0.815224 0
M  V30 4242 H 381.893 5.7841 -1.59882 0
M  V30 4243 H 382.963 4.42424 -1.98468 0
M  V30 4244 N 384.306 0.507319 1.49211 0
M  V30 4245 C 385.552 -0.0350047 2.0277 0
M  V30 4246 C 385.885 -1.3606 1.38569 0
M  V30 4247 O 385.16 -1.87321 0.523542 0
M  V30 4248 C 385.443 -0.180916 3.59645 0
M  V30 4249 C 385.296 1.16825 4.34364 0
M  V30 4250 C 386.615 -0.918558 4.30407 0
M  V30 4251 H 383.734 -0.0112473 0.736914 0
M  V30 4252 H 386.376 0.659956 1.7817 0
M  V30 4253 H 384.526 -0.772826 3.80736 0
M  V30 4254 H 386.198 1.79952 4.24753 0
M  V30 4255 H 384.441 1.75594 3.96673 0
M  V30 4256 H 385.112 1.01939 5.42506 0
M  V30 4257 H 387.588 -0.41649 4.1401 0
M  V30 4258 H 386.464 -0.989505 5.39907 0
M  V30 4259 H 386.725 -1.96373 3.96093 0
M  V30 4260 N 385.784 -1.5574 0.241426 0
M  V30 4261 C 386.714 -2.24133 -0.654722 0
M  V30 4262 C 387.695 -1.21974 -1.1856 0
M  V30 4263 O 388.88 -1.50612 -1.22595 0
M  V30 4264 C 386.01 -2.93659 -1.85423 0
M  V30 4265 C 384.964 -4.0246 -1.45636 0
M  V30 4266 C 384.29 -4.59383 -2.73626 0
M  V30 4267 C 385.59 -5.18468 -0.631506 0
M  V30 4268 H 387.284 -2.99281 -0.0844353 0
M  V30 4269 H 384.83 -1.43947 -0.0391707 0
M  V30 4270 H 386.783 -3.40203 -2.48676 0
M  V30 4271 H 385.507 -2.15991 -2.44981 0
M  V30 4272 H 384.166 -3.56676 -0.847202 0
M  V30 4273 H 383.814 -3.78422 -3.3137 0
M  V30 4274 H 383.514 -5.32826 -2.4773 0
M  V30 4275 H 385.038 -5.08658 -3.37786 0
M  V30 4276 H 386.452 -5.61272 -1.1682 0
M  V30 4277 H 384.849 -5.98266 -0.468831 0
M  V30 4278 H 385.919 -4.8358 0.357506 0
M  V30 4279 N 387.262 0.0317525 -1.57568 0
M  V30 4280 C 388.192 1.03274 -2.0942 0
M  V30 4281 C 389.173 1.3788 -0.996143 0
M  V30 4282 O 390.358 1.46811 -1.27122 0
M  V30 4283 C 387.488 2.33448 -2.57137 0
M  V30 4284 C 386.442 2.13091 -3.71182 0
M  V30 4285 C 385.768 3.49001 -4.05095 0
M  V30 4286 C 387.068 1.51928 -4.99715 0
M  V30 4287 H 388.762 0.60112 -2.93303 0
M  V30 4288 H 386.308 0.287705 -1.41097 0
M  V30 4289 H 388.261 3.03802 -2.92032 0
M  V30 4290 H 386.985 2.78665 -1.70333 0
M  V30 4291 H 385.644 1.45171 -3.36632 0
M  V30 4292 H 385.292 3.91862 -3.15362 0
M  V30 4293 H 384.992 3.36207 -4.81911 0
M  V30 4294 H 386.516 4.20721 -4.42522 0
M  V30 4295 H 387.93 2.12196 -5.32584 0
M  V30 4296 H 386.327 1.49716 -5.81124 0
M  V30 4297 H 387.397 0.484811 -4.8247 0
M  V30 4298 N 388.74 1.54641 0.303973 0
M  V30 4299 C 389.703 1.84646 1.35789 0
M  V30 4300 C 390.703 0.7192 1.4382 0
M  V30 4301 O 391.893 0.987491 1.43507 0
M  V30 4302 C 389.025 2.02407 2.74307 0
M  V30 4303 H 390.218 2.78829 1.10429 0
M  V30 4304 H 387.771 1.46658 0.540487 0
M  V30 4305 H 388.506 1.10502 3.04893 0
M  V30 4306 H 388.291 2.84453 2.69868 0
M  V30 4307 H 389.781 2.27002 3.50514 0
M  V30 4308 N 390.218 -0.567019 1.47046 0
M  V30 4309 C 391.495 -1.3276 1.43646 0
M  V30 4310 C 391.875 -2.1071 0.128186 0
M  V30 4311 O 391.223 -2.10441 -0.890326 0
M  V30 4312 C 391.433 -2.2404 2.67595 0
M  V30 4313 C 392.781 -2.85372 3.14401 0
M  V30 4314 O 393.805 -2.34346 2.68254 0
M  V30 4315 O 392.664 -3.78091 3.946 0
M  V30 4316 H 389.758 -0.597293 0.571988 0
M  V30 4317 H 392.304 -0.586735 1.59234 0
M  V30 4318 H 391.076 -1.65975 3.54356 0
M  V30 4319 H 390.699 -3.05439 2.54544 0
M  V30 4320 N 391.696 -1.35014 -0.812953 0
M  V30 4321 C 392.924 -1.31031 -1.6012 0
M  V30 4322 C 393.339 0.113558 -1.88458 0
M  V30 4323 O 392.696 1.06363 -1.48301 0
M  V30 4324 C 392.747 -2.10872 -2.93624 0
M  V30 4325 O 392.468 -3.47706 -2.66518 0
M  V30 4326 C 393.969 -2.14401 -3.88004 0
M  V30 4327 H 391.189 -0.45037 -0.497401 0
M  V30 4328 H 393.733 -1.77775 -1.01076 0
M  V30 4329 H 391.888 -1.67744 -3.492 0
M  V30 4330 H 392.302 -3.89097 -3.51715 0
M  V30 4331 H 393.776 -2.74669 -4.78812 0
M  V30 4332 H 394.253 -1.14105 -4.24119 0
M  V30 4333 H 394.859 -2.57662 -3.38364 0
M  V30 4334 N 393.175 1.03435 -1.18907 0
M  V30 4335 C 394.105 2.13503 -0.945448 0
M  V30 4336 C 395.086 1.69682 0.119189 0
M  V30 4337 O 396.271 1.94169 -0.034707 0
M  V30 4338 C 393.401 3.44004 -0.477316 0
M  V30 4339 C 392.355 4.0148 -1.48316 0
M  V30 4340 C 391.681 5.27537 -0.872311 0
M  V30 4341 C 392.981 4.36921 -2.86177 0
M  V30 4342 H 394.675 2.34141 -1.86597 0
M  V30 4343 H 392.221 1.12523 -0.898584 0
M  V30 4344 H 394.174 4.20372 -0.294204 0
M  V30 4345 H 392.898 3.23072 0.478786 0
M  V30 4346 H 391.557 3.27201 -1.65332 0
M  V30 4347 H 391.205 5.02917 0.0911752 0
M  V30 4348 H 390.905 5.66954 -1.54393 0
M  V30 4349 H 392.429 6.06576 -0.699871 0
M  V30 4350 H 393.843 5.04248 -2.72776 0
M  V30 4351 H 392.24 4.87405 -3.50081 0
M  V30 4352 H 393.31 3.46466 -3.39248 0
M  V30 4353 N 394.653 0.992116 1.22453 0
M  V30 4354 C 395.586 0.486701 2.22949 0
M  V30 4355 C 396.564 -0.45259 1.56174 0
M  V30 4356 O 397.748 -0.378317 1.84665 0
M  V30 4357 C 394.875 -0.294537 3.37417 0
M  V30 4358 C 393.921 0.590628 4.22391 0
M  V30 4359 S 394.754 2.04546 4.94895 0
M  V30 4360 C 395.91 1.27369 6.12803 0
M  V30 4361 H 396.143 1.33828 2.65475 0
M  V30 4362 H 393.676 0.799023 1.32117 0
M  V30 4363 H 395.634 -0.739241 4.03789 0
M  V30 4364 H 394.295 -1.12139 2.934 0
M  V30 4365 H 393.488 -0.0104375 5.03999 0
M  V30 4366 H 393.09 0.972064 3.61147 0
M  V30 4367 H 395.382 0.540943 6.75337 0
M  V30 4368 H 396.325 2.06502 6.7732 0
M  V30 4369 H 396.733 0.787324 5.58983 0
M  V30 4370 N 396.131 -1.37776 0.765217 0
M  V30 4371 C 397.547 -1.53297 0.444108 0
M  V30 4372 C 397.747 -1.72515 -1.04119 0
M  V30 4373 O 396.803 -1.74278 -1.82711 0
M  V30 4374 C 398.116 -2.73328 1.25349 0
M  V30 4375 C 399.664 -2.87185 1.24473 0
M  V30 4376 C 400.139 -4.10191 2.03733 0
M  V30 4377 N 401.63 -4.17291 2.01053 0
M  V30 4378 C 402.365 -5.11488 2.59166 0
M  V30 4379 N 401.861 -6.11285 3.26041 0
M  V30 4380 N 403.654 -5.03924 2.49032 0
M  V30 4381 H 395.805 -1.23552 1.72768 0
M  V30 4382 H 398.068 -0.601103 0.733062 0
M  V30 4383 H 397.774 -2.6557 2.30577 0
M  V30 4384 H 397.648 -3.66834 0.87823 0
M  V30 4385 H 400.035 -2.94418 0.20047 0
M  V30 4386 H 400.116 -1.94657 1.65959 0
M  V30 4387 H 399.76 -4.0372 3.08176 0
M  V30 4388 H 399.69 -5.01821 1.59633 0
M  V30 4389 H 402.181 -3.45825 1.5236 0
M  V30 4390 H 402.494 -6.79678 3.67774 0
M  V30 4391 H 400.839 -6.11583 3.30138 0
M  V30 4392 H 404.03 -4.24902 1.96407 0
M  V30 4393 H 404.203 -5.77152 2.94617 0
M  V30 4394 N 397.609 -0.515225 -1.4894 0
M  V30 4395 C 398.837 0.0206034 -2.0689 0
M  V30 4396 C 399.252 1.29514 -1.37374 0
M  V30 4397 O 398.609 1.76698 -0.456529 0
M  V30 4398 C 398.66 0.26351 -3.60538 0
M  V30 4399 O 398.381 -0.960517 -4.27441 0
M  V30 4400 C 399.882 0.841383 -4.35242 0
M  V30 4401 H 397.102 -0.0268608 -0.670462 0
M  V30 4402 H 399.646 -0.716651 -1.91532 0
M  V30 4403 H 397.801 0.950777 -3.75552 0
M  V30 4404 H 398.215 -0.73212 -5.19365 0
M  V30 4405 H 399.689 0.96085 -5.43573 0
M  V30 4406 H 400.166 1.8427 -3.98674 0
M  V30 4407 H 400.772 0.191143 -4.2487 0
M  V30 4408 N 399.087 1.5561 -0.249682 0
M  V30 4409 C 400.019 2.18834 0.681496 0
M  V30 4410 C 401.032 1.16546 1.1367 0
M  V30 4411 O 402.221 1.43397 1.06299 0
M  V30 4412 C 399.321 2.77992 1.9384 0
M  V30 4413 C 398.494 4.05725 1.63419 0
M  V30 4414 C 397.553 4.49174 2.74096 0
M  V30 4415 O 396.579 5.15492 2.41364 0
M  V30 4416 N 397.781 4.17191 4.03649 0
M  V30 4417 H 400.546 2.9937 0.140514 0
M  V30 4418 H 398.107 1.6175 -0.0697541 0
M  V30 4419 H 400.099 3.04015 2.67127 0
M  V30 4420 H 398.669 2.01596 2.38909 0
M  V30 4421 H 397.889 3.87261 0.736358 0
M  V30 4422 H 399.177 4.88999 1.40562 0
M  V30 4423 H 398.575 3.63955 4.33074 0
M  V30 4424 H 397.132 4.48043 4.73393 0
M  V30 4425 N 400.565 -0.0233959 1.57583 0
M  V30 4426 C 401.811 -0.714119 1.89811 0
M  V30 4427 C 402.144 -1.74702 0.848113 0
M  V30 4428 O 401.419 -1.94023 -0.136135 0
M  V30 4429 C 401.702 -1.37853 3.32669 0
M  V30 4430 C 401.555 -0.358764 4.48367 0
M  V30 4431 C 402.874 -2.31101 3.7454 0
M  V30 4432 H 399.993 -0.25814 0.690314 0
M  V30 4433 H 402.635 0.0230927 1.89986 0
M  V30 4434 H 400.785 -2.00689 3.3265 0
M  V30 4435 H 402.457 0.268115 4.6052 0
M  V30 4436 H 400.7 0.321387 4.32608 0
M  V30 4437 H 401.371 -0.862242 5.45224 0
M  V30 4438 H 403.847 -1.78304 3.75961 0
M  V30 4439 H 402.723 -2.74567 4.75294 0
M  V30 4440 H 402.984 -3.18018 3.0711 0
M  V30 4441 N 402.043 -1.548 -0.295768 0
M  V30 4442 C 403.292 -1.73538 -1.02798 0
M  V30 4443 C 403.605 -0.531159 -1.8825 0
M  V30 4444 O 404.811 -0.600458 -2.64777 0
M  V30 4445 C 403.267 -3.07051 -1.87744 0
M  V30 4446 C 402.875 -4.34968 -1.07269 0
M  V30 4447 C 404.619 -3.35146 -2.60533 0
M  V30 4448 C 402.526 -5.5953 -1.91521 0
M  V30 4449 H 401.456 -0.646794 -0.387522 0
M  V30 4450 H 404.107 -1.81278 -0.284718 0
M  V30 4451 H 402.489 -2.93289 -2.66078 0
M  V30 4452 H 403.663 -4.5958 -0.335117 0
M  V30 4453 H 401.978 -4.13847 -0.460384 0
M  V30 4454 H 404.575 -4.2541 -3.23929 0
M  V30 4455 H 404.918 -2.54255 -3.29636 0
M  V30 4456 H 405.451 -3.49902 -1.89244 0
M  V30 4457 H 402.19 -6.43103 -1.26878 0
M  V30 4458 H 401.71 -5.39096 -2.62937 0
M  V30 4459 H 403.389 -5.96982 -2.49442 0
M  V30 4460 N 403.521 0.559213 -1.47345 0
M  V30 4461 C 404.453 1.68161 -1.55738 0
M  V30 4462 C 405.466 1.56636 -0.443744 0
M  V30 4463 O 406.655 1.6363 -0.713258 0
M  V30 4464 C 403.755 3.06611 -1.4437 0
M  V30 4465 C 402.928 3.4391 -2.70268 0
M  V30 4466 C 401.987 4.61515 -2.52765 0
M  V30 4467 O 401.013 4.66197 -3.26572 0
M  V30 4468 N 402.215 5.57883 -1.6046 0
M  V30 4469 H 404.98 1.61408 -2.52522 0
M  V30 4470 H 402.541 0.7458 -1.43699 0
M  V30 4471 H 404.533 3.83117 -1.30398 0
M  V30 4472 H 403.103 3.07602 -0.556766 0
M  V30 4473 H 402.323 2.56873 -2.99015 0
M  V30 4474 H 403.611 3.65605 -3.53851 0
M  V30 4475 H 403.009 5.56855 -0.996422 0
M  V30 4476 H 401.566 6.33723 -1.52441 0
M  V30 4477 N 404.999 1.35443 0.805782 0
M  V30 4478 C 405.909 1.30546 1.94923 0
M  V30 4479 C 406.925 0.210233 1.72725 0
M  V30 4480 O 408.101 0.43975 1.9654 0
M  V30 4481 C 405.166 1.07782 3.29521 0
M  V30 4482 C 404.227 2.26625 3.64609 0
M  V30 4483 C 403.46 2.04938 4.92784 0
M  V30 4484 O 403.683 1.01624 5.61274 0
M  V30 4485 O 402.617 2.9232 5.26149 0
M  V30 4486 H 406.443 2.26779 2.02002 0
M  V30 4487 H 404.028 1.15823 0.943682 0
M  V30 4488 H 405.91 0.969392 4.10098 0
M  V30 4489 H 404.585 0.146003 3.23371 0
M  V30 4490 H 403.492 2.43033 2.84404 0
M  V30 4491 H 404.825 3.18257 3.75464 0
M  V30 4492 N 406.477 -1.02803 1.19454 0
M  V30 4493 C 407.702 -1.80378 1.02364 0
M  V30 4494 C 408.127 -1.83282 -0.423007 0
M  V30 4495 O 407.485 -1.25945 -1.30413 0
M  V30 4496 C 407.533 -3.23248 1.59821 0
M  V30 4497 O 406.637 -4.04 0.828105 0
M  V30 4498 H 405.978 -0.556799 0.361761 0
M  V30 4499 H 408.508 -1.29385 1.58495 0
M  V30 4500 H 408.518 -3.73994 1.63073 0
M  V30 4501 H 407.193 -3.2045 2.65113 0
M  V30 4502 H 405.77 -3.62635 0.86891 0
M  V30 4503 N 407.956 -0.998596 -1.21925 0
M  V30 4504 C 409.196 -0.685948 -1.92546 0
M  V30 4505 C 409.56 0.768441 -1.75952 0
M  V30 4506 O 410.761 1.19277 -2.40887 0
M  V30 4507 C 409.032 -1.08767 -3.40448 0
M  V30 4508 S 410.591 -0.894251 -4.29591 0
M  V30 4509 H 407.409 -0.250622 -0.665364 0
M  V30 4510 H 410.011 -1.28207 -1.47591 0
M  V30 4511 H 408.715 -2.14242 -3.50041 0
M  V30 4512 H 408.246 -0.48357 -3.90417 0
M  V30 4513 H 410.261 0.212149 -4.95746 0
M  V30 4514 N 409.434 1.37368 -0.772513 0
M  V30 4515 C 410.344 2.34053 -0.160081 0
M  V30 4516 C 411.36 1.60216 0.678728 0
M  V30 4517 O 412.536 1.92303 0.59847 0
M  V30 4518 C 409.601 3.3939 0.708182 0
M  V30 4519 C 408.662 4.29048 -0.147172 0
M  V30 4520 C 407.895 5.29354 0.679744 0
M  V30 4521 O 408.118 5.3723 1.91678 0
M  V30 4522 O 407.052 6.01835 0.0885444 0
M  V30 4523 H 410.878 2.88159 -0.959053 0
M  V30 4524 H 408.463 1.39543 -0.533685 0
M  V30 4525 H 410.345 4.03839 1.20384 0
M  V30 4526 H 409.02 2.8761 1.48533 0
M  V30 4527 H 407.927 3.67697 -0.689205 0
M  V30 4528 H 409.26 4.84134 -0.887423 0
M  V30 4529 N 410.912 0.523116 1.48665 0
M  V30 4530 C 412.328 0.180511 1.58576 0
M  V30 4531 C 412.528 -1.31597 1.52592 0
M  V30 4532 O 411.584 -2.0937 1.4114 0
M  V30 4533 C 412.897 0.776949 2.90489 0
M  V30 4534 C 414.445 0.745058 3.04003 0
M  V30 4535 C 414.92 1.31995 4.38567 0
M  V30 4536 N 416.411 1.28162 4.45117 0
M  V30 4537 C 417.146 1.6964 5.47731 0
M  V30 4538 N 416.642 2.18816 6.57337 0
M  V30 4539 N 418.435 1.6092 5.38573 0
M  V30 4540 H 410.586 1.4958 1.50797 0
M  V30 4541 H 412.849 0.621772 0.715614 0
M  V30 4542 H 412.555 1.82732 3.00503 0
M  V30 4543 H 412.429 0.25007 3.7637 0
M  V30 4544 H 414.816 -0.296532 2.93606 0
M  V30 4545 H 414.897 1.30933 2.1975 0
M  V30 4546 H 414.541 2.36043 4.49718 0
M  V30 4547 H 414.471 0.731418 5.21496 0
M  V30 4548 H 416.962 0.92155 3.66491 0
M  V30 4549 H 417.275 2.48478 7.31764 0
M  V30 4550 H 415.62 2.22805 6.58318 0
M  V30 4551 H 418.811 1.22304 4.5184 0
M  V30 4552 H 418.984 1.93567 6.18414 0
M  V30 4553 N 412.39 -1.55475 0.257931 0
M  V30 4554 C 413.806 -1.59307 -0.0966563 0
M  V30 4555 C 414.006 -1.27514 -1.5602 0
M  V30 4556 O 413.062 -1.02774 -2.30637 0
M  V30 4557 C 414.375 -2.99552 0.262481 0
M  V30 4558 C 415.923 -3.1231 0.207683 0
M  V30 4559 C 416.398 -4.54793 0.541012 0
M  V30 4560 N 417.889 -4.6058 0.491921 0
M  V30 4561 C 418.624 -5.68825 0.722857 0
M  V30 4562 N 418.12 -6.85287 1.0175 0
M  V30 4563 N 419.913 -5.58296 0.652815 0
M  V30 4564 H 412.064 -1.74409 1.21224 0
M  V30 4565 H 414.327 -0.812424 0.48854 0
M  V30 4566 H 414.033 -3.27593 1.27967 0
M  V30 4567 H 413.907 -3.75019 -0.40508 0
M  V30 4568 H 416.294 -2.84044 -0.800195 0
M  V30 4569 H 416.375 -2.39095 0.909255 0
M  V30 4570 H 416.019 -4.83783 1.5465 0
M  V30 4571 H 415.949 -5.26285 -0.18216 0
M  V30 4572 H 418.44 -3.7691 0.273366 0
M  V30 4573 H 418.753 -7.63725 1.18084 0
M  V30 4574 H 417.098 -6.86945 1.05509 0
M  V30 4575 H 420.289 -4.66189 0.422592 0
M  V30 4576 H 420.462 -6.42582 0.836182 0
M  V30 4577 N 413.868 0.0150385 -1.57593 0
M  V30 4578 C 414.816 1.02958 -2.08572 0
M  V30 4579 C 415.81 1.36554 -1.00246 0
M  V30 4580 O 417.016 1.35295 -1.18724 0
M  V30 4581 H 413.391 0.349619 -0.665786 0
M  V30 4582 H 415.362 0.573932 -2.92829 0
M  V30 4583 C 414.111 2.31752 -2.59203 0
M  V30 4584 H 413.434 2.06765 -3.42182 0
M  V30 4585 H 414.874 3.01053 -2.98568 0
M  V30 4586 C 413.333 3.01692 -1.49945 0
M  V30 4587 O 413.863 3.92083 -0.873704 0
M  V30 4588 N 412.069 2.6326 -1.23056 0
M  V30 4589 H 411.616 1.89838 -1.74125 0
M  V30 4590 H 411.574 3.10372 -0.501685 0
M  V30 4591 N 415.346 1.54954 0.287554 0
M  V30 4592 C 416.294 1.87606 1.37502 0
M  V30 4593 C 417.288 0.751001 1.51843 0
M  V30 4594 O 418.494 0.935169 1.53801 0
M  V30 4595 H 414.869 0.595231 0.459569 0
M  V30 4596 H 416.84 2.78477 1.07206 0
M  V30 4597 C 415.589 2.15183 2.73115 0
M  V30 4598 H 414.912 3.01234 2.62866 0
M  V30 4599 H 416.352 2.4196 3.48183 0
M  V30 4600 C 414.811 0.954686 3.2309 0
M  V30 4601 O 415.341 0.181949 4.01288 0
M  V30 4602 N 413.547 0.756368 2.80584 0
M  V30 4603 H 413.094 1.38643 2.17108 0
M  V30 4604 H 413.052 -0.0430391 3.14371 0
M  V30 4605 N 416.824 -0.551391 1.4764 0
M  V30 4606 C 418.073 -1.30467 1.53822 0
M  V30 4607 C 418.386 -1.94495 0.207661 0
M  V30 4608 O 419.592 -2.71099 0.147533 0
M  V30 4609 C 418.048 -2.36616 2.71184 0
M  V30 4610 C 417.656 -1.78754 4.10793 0
M  V30 4611 C 419.4 -3.13088 2.86663 0
M  V30 4612 C 417.307 -2.82717 5.19447 0
M  V30 4613 H 416.237 -0.490584 0.572576 0
M  V30 4614 H 418.888 -0.58494 1.73927 0
M  V30 4615 H 417.27 -3.11529 2.4447 0
M  V30 4616 H 418.444 -1.10173 4.47435 0
M  V30 4617 H 416.759 -1.14846 4.00249 0
M  V30 4618 H 419.356 -3.90736 3.65007 0
M  V30 4619 H 419.699 -3.67635 1.95321 0
M  V30 4620 H 420.232 -2.45288 3.13175 0
M  V30 4621 H 416.971 -2.33018 6.12685 0
M  V30 4622 H 416.491 -3.4969 4.87316 0
M  V30 4623 H 418.17 -3.46102 5.46646 0
M  V30 4624 N 418.302 -1.35869 -0.798587 0
M  V30 4625 C 419.55 -1.29332 -1.55298 0
M  V30 4626 C 419.871 0.129729 -1.94568 0
M  V30 4627 O 419.141 1.06796 -1.6423 0
M  V30 4628 H 417.721 -0.475737 -0.57592 0
M  V30 4629 H 420.383 -1.70062 -0.952093 0
M  V30 4630 H 419.479 -1.91458 -2.46476 0
M  V30 4631 N 419.78 1.02168 -1.19998 0
M  V30 4632 C 421.196 1.27969 -0.953737 0
M  V30 4633 C 421.396 1.98079 0.369703 0
M  V30 4634 O 420.452 2.27306 1.09947 0
M  V30 4635 C 421.765 2.11971 -2.13281 0
M  V30 4636 C 423.313 2.25255 -2.17323 0
M  V30 4637 C 423.788 3.12632 -3.34702 0
M  V30 4638 N 425.279 3.2022 -3.34684 0
M  V30 4639 C 426.014 3.88039 -4.22153 0
M  V30 4640 N 425.51 4.58027 -5.19791 0
M  V30 4641 N 427.303 3.84511 -4.10009 0
M  V30 4642 H 419.454 0.550794 -2.05134 0
M  V30 4643 H 421.717 0.305683 -0.897364 0
M  V30 4644 H 421.423 1.67785 -3.09097 0
M  V30 4645 H 421.297 3.12699 -2.10949 0
M  V30 4646 H 423.684 2.68667 -1.22073 0
M  V30 4647 H 423.765 1.24053 -2.23706 0
M  V30 4648 H 423.409 2.69926 -4.30235 0
M  V30 4649 H 423.339 4.13909 -3.25556 0
M  V30 4650 H 425.83 2.70382 -2.64012 0
M  V30 4651 H 426.143 5.07429 -5.82868 0
M  V30 4652 H 424.488 4.56869 -5.23733 0
M  V30 4653 H 427.679 3.28978 -3.33003 0
M  V30 4654 H 427.852 4.3709 -4.78389 0
M  V30 4655 N 421.258 1.00505 1.21394 0
M  V30 4656 C 422.221 0.570459 2.21987 0
M  V30 4657 C 423.221 -0.353211 1.56873 0
M  V30 4658 O 424.411 -0.14349 1.73608 0
M  V30 4659 C 421.543 -0.168555 3.40483 0
M  V30 4660 H 422.736 1.46021 2.6195 0
M  V30 4661 H 420.289 0.793565 1.34656 0
M  V30 4662 H 421.024 -1.07374 3.06009 0
M  V30 4663 H 420.809 0.494823 3.88965 0
M  V30 4664 H 422.299 -0.460362 4.15055 0
M  V30 4665 N 422.737 -1.36956 0.779787 0
M  V30 4666 C 423.667 -2.32761 0.185651 0
M  V30 4667 C 424.648 -1.56177 -0.673989 0
M  V30 4668 O 425.833 -1.84378 -0.609797 0
M  V30 4669 C 422.963 -3.40418 -0.687964 0
M  V30 4670 C 421.917 -4.27941 0.0710102 0
M  V30 4671 C 421.243 -5.26681 -0.922573 0
M  V30 4672 C 422.543 -5.07006 1.25467 0
M  V30 4673 H 424.237 -2.82698 0.986008 0
M  V30 4674 H 421.783 -1.3592 0.475592 0
M  V30 4675 H 423.736 -4.06423 -1.11348 0
M  V30 4676 H 422.46 -2.89025 -1.52093 0
M  V30 4677 H 421.119 -3.63478 0.47739 0
M  V30 4678 H 420.767 -4.71565 -1.7503 0
M  V30 4679 H 420.467 -5.86103 -0.419237 0
M  V30 4680 H 421.991 -5.9556 -1.34686 0
M  V30 4681 H 423.405 -5.66105 0.905401 0
M  V30 4682 H 421.802 -5.75793 1.69063 0
M  V30 4683 H 422.872 -4.3921 2.05481 0
M  V30 4684 N 424.215 -0.530993 -1.48385 0
M  V30 4685 C 425.492 0.0671788 -1.95485 0
M  V30 4686 C 425.872 1.51191 -1.47324 0
M  V30 4687 O 425.22 2.17507 -0.700202 0
M  V30 4688 C 425.43 -0.0511206 -3.48963 0
M  V30 4689 C 426.778 0.107632 -4.24464 0
M  V30 4690 O 427.802 0.0226248 -3.56193 0
M  V30 4691 O 426.661 0.285972 -5.45751 0
M  V30 4692 H 423.755 0.0787365 -0.823243 0
M  V30 4693 H 426.301 -0.595662 -1.58902 0
M  V30 4694 H 425.073 -1.05747 -3.7674 0
M  V30 4695 H 424.696 0.650525 -3.92242 0
M  V30 4696 N 425.693 1.55336 -0.266172 0
M  V30 4697 C 426.656 2.20878 0.612001 0
M  V30 4698 C 427.656 1.18388 1.08816 0
M  V30 4699 O 428.846 1.4335 0.989774 0
M  V30 4700 C 425.978 2.86765 1.84332 0
M  V30 4701 H 427.171 2.99873 0.0398718 0
M  V30 4702 H 424.724 1.56291 -0.0167309 0
M  V30 4703 H 425.459 2.11759 2.45619 0
M  V30 4704 H 425.244 3.61862 1.5099 0
M  V30 4705 H 426.734 3.36867 2.46801 0
M  V30 4706 N 427.171 -0.0066808 1.57599 0
M  V30 4707 C 428.399 -0.704087 1.94551 0
M  V30 4708 C 428.814 -1.67677 0.867746 0
M  V30 4709 O 428.171 -1.8185 -0.153925 0
M  V30 4710 C 428.222 -1.44177 3.31505 0
M  V30 4711 O 427.943 -0.508097 4.35144 0
M  V30 4712 C 429.444 -2.23429 3.82876 0
M  V30 4713 H 426.664 -0.196523 0.641576 0
M  V30 4714 H 429.208 0.042453 2.04456 0
M  V30 4715 H 427.363 -2.13999 3.22929 0
M  V30 4716 H 427.777 -1.02782 5.14331 0
M  V30 4717 H 429.251 -2.70552 4.8115 0
M  V30 4718 H 429.728 -3.05818 3.15233 0
M  V30 4719 H 430.334 -1.58636 3.94607 0
M  V30 4720 N 428.649 -1.55105 -0.279332 0
M  V30 4721 C 429.559 -1.90638 -1.36727 0
M  V30 4722 C 430.575 -0.802899 -1.54368 0
M  V30 4723 O 431.751 -1.10138 -1.68616 0
M  V30 4724 C 428.816 -2.16547 -2.70755 0
M  V30 4725 C 427.877 -3.40146 -2.61915 0
M  V30 4726 C 427.11 -3.6481 -3.8955 0
M  V30 4727 O 427.333 -2.92095 -4.89935 0
M  V30 4728 O 426.267 -4.58343 -3.90135 0
M  V30 4729 H 430.093 -2.83237 -1.09591 0
M  V30 4730 H 427.678 -1.4157 -0.477306 0
M  V30 4731 H 429.56 -2.34665 -3.50014 0
M  V30 4732 H 428.235 -1.27131 -2.9769 0
M  V30 4733 H 427.142 -3.2737 -1.81052 0
M  V30 4734 H 428.475 -4.29761 -2.3993 0
M  V30 4735 N 430.127 0.543554 -1.4793 0
M  V30 4736 C 431.376 1.29649 -1.54512 0
M  V30 4737 C 431.689 1.94382 -0.217973 0
M  V30 4738 O 432.895 2.71017 -0.161908 0
M  V30 4739 C 431.351 2.35175 -2.72435 0
M  V30 4740 C 430.959 1.76572 -4.11736 0
M  V30 4741 C 432.703 3.11564 -2.8832 0
M  V30 4742 C 430.61 2.79958 -5.20939 0
M  V30 4743 H 429.54 0.487541 -0.57517 0
M  V30 4744 H 432.191 0.575708 -1.74235 0
M  V30 4745 H 430.573 3.10229 -2.46118 0
M  V30 4746 H 431.747 1.07799 -4.48013 0
M  V30 4747 H 430.062 1.12722 -4.00852 0
M  V30 4748 H 432.659 3.88794 -3.67074 0
M  V30 4749 H 433.002 3.66594 -1.97268 0
M  V30 4750 H 433.535 2.43623 -3.14472 0
M  V30 4751 H 430.274 2.29766 -6.13912 0
M  V30 4752 H 429.794 3.47101 -4.89164 0
M  V30 4753 H 431.473 3.43198 -5.48474 0
M  V30 4754 N 431.605 1.3629 0.791371 0
M  V30 4755 C 432.535 1.33137 1.91825 0
M  V30 4756 C 433.516 0.203168 1.68882 0
M  V30 4757 O 434.701 0.400509 1.90025 0
M  V30 4758 C 431.831 1.11793 3.28816 0
M  V30 4759 C 430.785 2.21417 3.66277 0
M  V30 4760 C 430.111 1.85218 5.01596 0
M  V30 4761 C 431.411 3.63489 3.75064 0
M  V30 4762 H 433.105 2.2743 1.9472 0
M  V30 4763 H 430.651 1.09479 0.935437 0
M  V30 4764 H 432.604 1.08222 4.07266 0
M  V30 4765 H 431.328 0.139501 3.26302 0
M  V30 4766 H 429.987 2.2411 2.90121 0
M  V30 4767 H 429.635 0.859544 4.95602 0
M  V30 4768 H 429.335 2.58611 5.27631 0
M  V30 4769 H 430.859 1.832 5.82469 0
M  V30 4770 H 432.273 3.63034 4.43711 0
M  V30 4771 H 430.67 4.35771 4.12582 0
M  V30 4772 H 431.74 3.98536 2.76219 0
M  V30 4773 N 433.083 -1.0153 1.20538 0
M  V30 4774 C 434.331 -1.74803 1.01432 0
M  V30 4775 C 434.652 -1.8963 -0.454456 0
M  V30 4776 O 433.922 -1.43975 -1.32846 0
M  V30 4777 H 432.502 -0.647598 0.372324 0
M  V30 4778 H 435.164 -1.22402 1.5167 0
M  V30 4779 H 434.26 -2.75114 1.47373 0
M  V30 4780 N 434.561 -1.01147 -1.20859 0
M  V30 4781 C 435.808 -0.697865 -1.90095 0
M  V30 4782 C 436.136 0.772014 -1.78522 0
M  V30 4783 O 435.391 1.57595 -1.16027 0
M  V30 4784 C 435.69 -1.0727 -3.40922 0
M  V30 4785 C 435.356 -2.53792 -3.72693 0
M  V30 4786 C 434.018 -2.93829 -3.81075 0
M  V30 4787 C 436.37 -3.48674 -3.87397 0
M  V30 4788 C 433.698 -4.27696 -4.01613 0
M  V30 4789 C 436.05 -4.82223 -4.09444 0
M  V30 4790 C 434.714 -5.21973 -4.16054 0
M  V30 4791 H 433.984 -0.255367 -0.695607 0
M  V30 4792 H 436.631 -1.27111 -1.43231 0
M  V30 4793 H 434.936 -0.417799 -3.89566 0
M  V30 4794 H 436.633 -0.807818 -3.92779 0
M  V30 4795 H 433.223 -2.21768 -3.66765 0
M  V30 4796 H 437.407 -3.18904 -3.80281 0
M  V30 4797 H 432.663 -4.58055 -4.04964 0
M  V30 4798 H 436.837 -5.55672 -4.19763 0
M  V30 4799 H 434.464 -6.25717 -4.31721 0
M  V30 4800 N 436.039 1.36541 -0.78704 0
M  V30 4801 C 436.969 2.32659 -0.197992 0
M  V30 4802 C 437.95 1.56533 0.665697 0
M  V30 4803 O 439.135 1.84698 0.60001 0
M  V30 4804 C 436.265 3.40778 0.669901 0
M  V30 4805 C 435.219 4.27897 -0.0937039 0
M  V30 4806 C 434.545 5.27163 0.894629 0
M  V30 4807 C 435.845 5.06334 -1.28154 0
M  V30 4808 H 437.539 2.82171 -1.00099 0
M  V30 4809 H 435.085 1.35665 -0.482793 0
M  V30 4810 H 437.038 4.07008 1.09191 0
M  V30 4811 H 435.762 2.89827 1.50558 0
M  V30 4812 H 434.421 3.6322 -0.49666 0
M  V30 4813 H 434.069 4.72486 1.72527 0
M  V30 4814 H 433.769 5.86317 0.388149 0
M  V30 4815 H 435.293 5.96266 1.31525 0
M  V30 4816 H 436.707 5.65617 -0.93541 0
M  V30 4817 H 435.104 5.74888 -1.72115 0
M  V30 4818 H 436.174 4.38114 -2.07807 0
M  V30 4819 N 437.518 0.538854 1.48102 0
M  V30 4820 C 438.468 -0.23907 2.26743 0
M  V30 4821 C 439.452 -0.901923 1.33245 0
M  V30 4822 O 440.644 -0.803263 1.57723 0
M  V30 4823 C 437.773 -1.2799 3.18549 0
M  V30 4824 C 436.859 -0.621388 4.19523 0
M  V30 4825 N 437.25 0.298004 5.04921 0
M  V30 4826 C 435.548 -0.877533 4.37282 0
M  V30 4827 C 436.249 0.678757 5.77726 0
M  V30 4828 N 435.225 0.0377881 5.43587 0
M  V30 4829 H 439.027 0.468096 2.90148 0
M  V30 4830 H 436.541 0.357497 1.58416 0
M  V30 4831 H 438.538 -1.851 3.73555 0
M  V30 4832 H 437.198 -1.98835 2.567 0
M  V30 4833 H 438.209 0.671126 5.13533 0
M  V30 4834 H 434.886 -1.57588 3.86616 0
M  V30 4835 H 436.276 1.43316 6.56437 0
M  V30 4836 N 438.996 -1.55193 0.274407 0
M  V30 4837 C 440.221 -2.04446 -0.348824 0
M  V30 4838 C 440.646 -1.15149 -1.48735 0
M  V30 4839 O 440.004 -0.149952 -1.80679 0
M  V30 4840 C 440.052 -3.51431 -0.808009 0
M  V30 4841 O 439.156 -3.65225 -1.91531 0
M  V30 4842 H 438.497 -0.66006 -0.0722276 0
M  V30 4843 H 441.027 -2.00481 0.408498 0
M  V30 4844 H 441.037 -3.92781 -1.10395 0
M  V30 4845 H 439.712 -4.15892 0.0249865 0
M  V30 4846 H 438.289 -3.35778 -1.62196 0
M  V30 4847 N 440.474 -0.00167713 -1.576 0
M  V30 4848 C 441.714 0.687302 -1.92498 0
M  V30 4849 C 442.078 1.70844 -0.876144 0
M  V30 4850 O 443.279 2.44792 -1.11043 0
M  V30 4851 C 441.55 1.31217 -3.32441 0
M  V30 4852 S 443.109 2.02604 -3.89226 0
M  V30 4853 H 439.927 0.226985 -0.673794 0
M  V30 4854 H 442.529 -0.0587666 -1.95412 0
M  V30 4855 H 441.233 0.556164 -4.06614 0
M  V30 4856 H 440.764 2.09613 -3.32905 0
M  V30 4857 H 442.779 3.30137 -3.70438 0
M  V30 4858 N 441.952 1.55251 0.271103 0
M  V30 4859 C 442.882 1.9127 1.33933 0
M  V30 4860 C 443.863 0.77478 1.5143 0
M  V30 4861 O 445.048 1.03307 1.64442 0
M  V30 4862 C 442.178 2.18627 2.69851 0
M  V30 4863 C 441.132 3.34442 2.67081 0
M  V30 4864 C 440.458 3.47284 4.06569 0
M  V30 4865 C 441.758 4.70784 2.26185 0
M  V30 4866 H 443.452 2.80744 1.04035 0
M  V30 4867 H 440.998 1.35077 0.499017 0
M  V30 4868 H 442.951 2.42413 3.44694 0
M  V30 4869 H 441.675 1.25955 3.01335 0
M  V30 4870 H 440.334 3.10627 1.94695 0
M  V30 4871 H 439.982 2.52074 4.35279 0
M  V30 4872 H 439.682 4.25152 4.0561 0
M  V30 4873 H 441.206 3.73363 4.83148 0
M  V30 4874 H 442.62 4.94102 2.90751 0
M  V30 4875 H 441.017 5.51582 2.36384 0
M  V30 4876 H 442.087 4.69478 1.21319 0
M  V30 4877 N 443.43 -0.535701 1.48216 0
M  V30 4878 C 444.378 -1.66179 1.62749 0
M  V30 4879 C 445.372 -1.62034 0.49409 0
M  V30 4880 O 446.578 -1.6696 0.672624 0
M  V30 4881 H 442.953 -0.550244 0.512578 0
M  V30 4882 H 444.924 -1.51063 2.57337 0
M  V30 4883 C 443.673 -3.04471 1.67907 0
M  V30 4884 H 442.996 -3.08351 2.54479 0
M  V30 4885 H 444.436 -3.82894 1.82121 0
M  V30 4886 C 442.895 -3.34314 0.416596 0
M  V30 4887 O 443.425 -3.98905 -0.473014 0
M  V30 4888 N 441.631 -2.89149 0.290038 0
M  V30 4889 H 441.178 -2.36764 1.01493 0
M  V30 4890 H 441.136 -3.09486 -0.55367 0
M  V30 4891 N 444.908 -1.36708 -0.784132 0
M  V30 4892 C 446.319 -1.27947 -1.35965 0
M  V30 4893 C 446.67 0.0784013 -1.96043 0
M  V30 4894 O 445.795 0.979989 -1.92938 0
M  V30 4895 C 446.39 -2.31689 -2.47195 0
M  V30 4896 C 444.949 -2.26601 -3.00548 0
M  V30 4897 C 444.096 -2.16184 -1.73666 0
M  V30 4898 H 447.047 -1.4751 -0.585358 0
M  V30 4899 H 447.068 -1.95638 -3.26352 0
M  V30 4900 H 446.58 -3.30506 -2.03439 0
M  V30 4901 H 444.681 -1.31268 -3.48711 0
M  V30 4902 H 444.794 -3.19508 -3.57004 0
M  V30 4903 H 443.158 -1.62524 -1.96107 0
M  V30 4904 H 443.941 -3.16896 -1.32031 0
M  V30 4905 N 446.386 1.0089 -1.21074 0
M  V30 4906 C 447.635 1.74019 -1.01981 0
M  V30 4907 C 447.948 1.90408 0.447665 0
M  V30 4908 O 449.154 2.60707 0.757906 0
M  V30 4909 C 447.61 3.13026 -1.77603 0
M  V30 4910 C 447.218 3.04623 -3.28495 0
M  V30 4911 C 448.962 3.90312 -1.66904 0
M  V30 4912 C 446.869 4.38685 -3.96623 0
M  V30 4913 H 445.799 0.652422 -0.377971 0
M  V30 4914 H 448.45 1.12755 -1.44771 0
M  V30 4915 H 446.832 3.74878 -1.27604 0
M  V30 4916 H 448.006 2.52032 -3.85767 0
M  V30 4917 H 446.321 2.40827 -3.39693 0
M  V30 4918 H 448.918 4.8951 -2.15138 0
M  V30 4919 H 449.261 4.11558 -0.62658 0
M  V30 4920 H 449.794 3.35104 -2.14359 0
M  V30 4921 H 446.533 4.22641 -5.01054 0
M  V30 4922 H 446.053 4.91252 -3.4414 0
M  V30 4923 H 447.732 5.075 -4.01314 0
M  V30 4924 N 447.864 1.01787 1.20321 0
M  V30 4925 C 449.113 0.703249 1.89043 0
M  V30 4926 C 449.426 -0.770445 1.79787 0
M  V30 4927 O 450.632 -1.19767 2.43656 0
M  V30 4928 C 449.088 1.20749 3.3904 0
M  V30 4929 C 448.696 2.70817 3.56878 0
M  V30 4930 C 450.44 0.968352 4.13308 0
M  V30 4931 C 448.347 3.14716 5.00708 0
M  V30 4932 H 447.277 0.259354 0.707991 0
M  V30 4933 H 449.928 1.23072 1.36108 0
M  V30 4934 H 448.31 0.607989 3.91305 0
M  V30 4935 H 449.484 3.36327 3.14993 0
M  V30 4936 H 447.799 2.92888 2.95983 0
M  V30 4937 H 450.396 1.27173 5.19356 0
M  V30 4938 H 450.739 -0.095149 4.16191 0
M  V30 4939 H 451.272 1.53129 3.67146 0
M  V30 4940 H 448.011 4.20347 5.02979 0
M  V30 4941 H 447.531 2.53927 5.43398 0
M  V30 4942 H 449.21 3.07426 5.69296 0
M  V30 4943 N 449.342 -1.36122 0.79427 0
M  V30 4944 C 450.572 -2.03067 0.380437 0
M  V30 4945 C 450.98 -1.60018 -1.00949 0
M  V30 4946 O 450.323 -0.787425 -1.65968 0
M  V30 4947 C 450.385 -3.57587 0.37034 0
M  V30 4948 C 450.049 -4.23855 1.70867 0
M  V30 4949 C 451.046 -4.46404 2.66496 0
M  V30 4950 C 448.731 -4.61229 1.9893 0
M  V30 4951 C 450.725 -5.05412 3.88378 0
M  V30 4952 C 448.412 -5.19953 3.21079 0
M  V30 4953 C 449.41 -5.41985 4.15621 0
M  V30 4954 O 449.098 -5.99475 5.35616 0
M  V30 4955 H 448.83 -0.658168 0.154243 0
M  V30 4956 H 451.384 -1.7498 1.0757 0
M  V30 4957 H 449.614 -3.84814 -0.381444 0
M  V30 4958 H 451.303 -4.05895 -0.0194894 0
M  V30 4959 H 452.069 -4.17921 2.46103 0
M  V30 4960 H 447.948 -4.43402 1.26158 0
M  V30 4961 H 451.492 -5.22524 4.62185 0
M  V30 4962 H 447.389 -5.47862 3.41347 0
M  V30 4963 H 448.157 -6.17937 5.36745 0
M  V30 4964 N 450.82 -0.546701 -1.47814 0
M  V30 4965 C 451.783 0.196287 -2.28358 0
M  V30 4966 C 452.783 0.852437 -1.36346 0
M  V30 4967 O 453.973 0.709913 -1.59078 0
M  V30 4968 C 451.105 1.28579 -3.15722 0
M  V30 4969 H 452.298 -0.511086 -2.95513 0
M  V30 4970 H 449.851 -0.303248 -1.5333 0
M  V30 4971 H 450.586 2.0259 -2.53235 0
M  V30 4972 H 450.371 0.820229 -3.83425 0
M  V30 4973 H 451.861 1.80793 -3.76435 0
M  V30 4974 N 452.299 1.55045 -0.282633 0
M  V30 4975 C 453.546 1.9976 0.33199 0
M  V30 4976 C 453.874 1.17105 1.55295 0
M  V30 4977 O 453.129 0.230599 1.94337 0
M  V30 4978 C 453.428 3.49422 0.750938 0
M  V30 4979 C 453.094 4.4941 -0.366228 0
M  V30 4980 C 451.756 4.76471 -0.672964 0
M  V30 4981 C 454.108 5.09054 -1.11864 0
M  V30 4982 C 451.436 5.60442 -1.73556 0
M  V30 4983 C 453.788 5.9418 -2.17102 0
M  V30 4984 C 452.452 6.19558 -2.48402 0
M  V30 4985 H 451.722 0.730974 0.121484 0
M  V30 4986 H 454.369 1.8732 -0.39791 0
M  V30 4987 H 452.674 3.59377 1.56063 0
M  V30 4988 H 454.371 3.81432 1.23736 0
M  V30 4989 H 450.961 4.2844 -0.117041 0
M  V30 4990 H 455.145 4.88165 -0.894925 0
M  V30 4991 H 450.401 5.78349 -1.983 0
M  V30 4992 H 454.575 6.39427 -2.75873 0
M  V30 4993 H 452.202 6.84417 -3.30874 0
M  V30 4994 N 453.777 0.010035 1.57597 0
M  V30 4995 C 455.026 -0.671945 1.90178 0
M  V30 4996 C 455.339 -1.74376 0.886131 0
M  V30 4997 O 456.545 -2.48107 1.10252 0
M  V30 4998 C 455.001 -1.24636 3.3763 0
M  V30 4999 C 454.609 -0.208838 4.47513 0
M  V30 5000 C 456.353 -1.90595 3.79307 0
M  V30 5001 C 454.26 -0.793814 5.86048 0
M  V30 5002 H 453.19 -0.25474 0.709665 0
M  V30 5003 H 455.841 0.0722206 1.83358 0
M  V30 5004 H 454.223 -2.04152 3.3932 0
M  V30 5005 H 455.397 0.562463 4.57354 0
M  V30 5006 H 453.712 0.350889 4.14919 0
M  V30 5007 H 456.309 -2.35284 4.80151 0
M  V30 5008 H 456.652 -2.74074 3.13352 0
M  V30 5009 H 457.185 -1.17798 3.79958 0
M  V30 5010 H 453.924 0.00240855 6.555 0
M  V30 5011 H 453.444 -1.53404 5.79851 0
M  V30 5012 H 455.123 -1.2894 6.34022 0
M  V30 5013 N 455.255 -1.55392 -0.262866 0
M  V30 5014 C 456.503 -1.76127 -0.991147 0
M  V30 5015 C 456.824 -0.571083 -1.8645 0
M  V30 5016 O 456.094 0.413698 -1.91482 0
M  V30 5017 H 454.674 -0.649528 -0.368948 0
M  V30 5018 H 457.336 -1.9281 -0.284655 0
M  V30 5019 H 456.432 -2.6663 -1.62219 0
M  V30 5020 N 456.733 0.527833 -1.48498 0
M  V30 5021 C 457.665 1.6482 -1.5927 0
M  V30 5022 C 458.678 1.55659 -0.476869 0
M  V30 5023 O 459.867 1.62081 -0.747806 0
M  V30 5024 C 456.967 3.0348 -1.50842 0
M  V30 5025 C 456.14 3.381 -2.77502 0
M  V30 5026 C 455.199 4.5605 -2.62497 0
M  V30 5027 O 454.225 4.59165 -3.36387 0
M  V30 5028 N 455.427 5.54353 -1.72257 0
M  V30 5029 H 458.192 1.56015 -2.55889 0
M  V30 5030 H 455.753 0.715152 -1.45249 0
M  V30 5031 H 457.745 3.80264 -1.38496 0
M  V30 5032 H 456.315 3.06352 -0.621887 0
M  V30 5033 H 455.535 2.50473 -3.04396 0
M  V30 5034 H 456.823 3.58017 -3.61527 0
M  V30 5035 H 456.221 5.54617 -1.11431 0
M  V30 5036 H 454.778 6.30347 -1.65849 0
M  V30 5037 N 458.211 1.37122 0.776871 0
M  V30 5038 C 459.159 1.32549 1.91138 0
M  V30 5039 C 460.153 0.215119 1.68029 0
M  V30 5040 O 461.359 0.382852 1.75881 0
M  V30 5041 H 457.734 0.412952 0.62847 0
M  V30 5042 H 459.705 2.28332 1.92112 0
M  V30 5043 C 458.454 1.14422 3.28333 0
M  V30 5044 H 457.777 1.99115 3.46689 0
M  V30 5045 H 459.217 1.15272 4.0803 0
M  V30 5046 C 457.676 -0.150434 3.36564 0
M  V30 5047 O 458.206 -1.13584 3.85307 0
M  V30 5048 N 456.412 -0.19939 2.89915 0
M  V30 5049 H 455.959 0.603142 2.5044 0
M  V30 5050 H 455.917 -1.06526 2.95803 0
M  V30 5051 N 459.689 -1.00246 1.21608 0
M  V30 5052 C 460.936 -1.74061 1.03485 0
M  V30 5053 C 461.264 -1.89658 -0.431308 0
M  V30 5054 O 460.519 -1.42976 -1.33627 0
M  V30 5055 C 460.818 -3.15448 1.68009 0
M  V30 5056 C 460.484 -3.19792 3.17874 0
M  V30 5057 C 459.146 -3.20685 3.58768 0
M  V30 5058 C 461.498 -3.16835 4.13842 0
M  V30 5059 C 458.826 -3.16309 4.94131 0
M  V30 5060 C 461.178 -3.14001 5.49169 0
M  V30 5061 C 459.842 -3.13204 5.89457 0
M  V30 5062 H 459.112 -0.636934 0.378677 0
M  V30 5063 H 461.759 -1.17473 1.51236 0
M  V30 5064 H 460.064 -3.75284 1.12557 0
M  V30 5065 H 461.761 -3.71285 1.51487 0
M  V30 5066 H 458.351 -3.19842 2.85305 0
M  V30 5067 H 462.535 -3.15303 3.83272 0
M  V30 5068 H 457.791 -3.14032 5.24589 0
M  V30 5069 H 461.965 -3.10667 6.23265 0
M  V30 5070 H 459.592 -3.09568 6.94314 0
M  V30 5071 N 461.167 -1.02423 -1.1978 0
M  V30 5072 C 462.583 -0.740459 -1.41384 0
M  V30 5073 C 462.783 0.676827 -1.89793 0
M  V30 5074 O 461.839 1.4435 -2.0717 0
M  V30 5075 C 463.152 -1.77264 -2.42895 0
M  V30 5076 C 464.7 -1.79165 -2.56649 0
M  V30 5077 C 465.175 -2.8133 -3.6141 0
M  V30 5078 N 466.666 -2.80118 -3.68901 0
M  V30 5079 C 467.401 -3.55824 -4.49641 0
M  V30 5080 N 466.897 -4.41231 -5.34123 0
M  V30 5081 N 468.69 -3.44387 -4.44246 0
M  V30 5082 H 460.841 -1.9391 -0.866764 0
M  V30 5083 H 463.104 -0.838074 -0.443098 0
M  V30 5084 H 462.81 -2.7884 -2.14339 0
M  V30 5085 H 462.684 -1.59108 -3.42001 0
M  V30 5086 H 465.071 -0.782702 -2.84531 0
M  V30 5087 H 465.152 -2.01396 -1.57713 0
M  V30 5088 H 464.796 -3.82394 -3.34271 0
M  V30 5089 H 464.726 -2.56359 -4.59986 0
M  V30 5090 H 467.217 -2.1817 -3.08562 0
M  V30 5091 H 467.53 -4.95747 -5.92836 0
M  V30 5092 H 465.875 -4.45306 -5.33599 0
M  V30 5093 H 469.066 -2.7708 -3.77285 0
M  V30 5094 H 469.239 -4.0364 -5.06931 0
M  V30 5095 N 462.645 1.35699 -0.801477 0
M  V30 5096 C 463.595 2.2728 -0.181073 0
M  V30 5097 C 464.579 1.47533 0.642098 0
M  V30 5098 O 465.771 1.69785 0.500193 0
M  V30 5099 C 462.9 3.36626 0.673612 0
M  V30 5100 C 461.986 4.23802 -0.159008 0
M  V30 5101 N 462.377 4.90879 -1.2195 0
M  V30 5102 C 460.675 4.45959 0.0602005 0
M  V30 5103 C 461.376 5.5546 -1.72738 0
M  V30 5104 N 460.352 5.33663 -1.03465 0
M  V30 5105 H 464.154 2.76632 -0.992582 0
M  V30 5106 H 461.668 1.49166 -0.642127 0
M  V30 5107 H 463.665 4.01179 1.13408 0
M  V30 5108 H 462.325 2.88828 1.48353 0
M  V30 5109 H 463.336 4.92497 -1.60209 0
M  V30 5110 H 460.013 4.08969 0.839664 0
M  V30 5111 H 461.403 6.18991 -2.61342 0
M  V30 5112 N 464.123 0.554532 1.47522 0
M  V30 5113 C 465.371 0.0294208 2.02079 0
M  V30 5114 C 465.692 -1.32411 1.43151 0
M  V30 5115 O 464.962 -1.863 0.605728 0
M  V30 5116 H 463.542 0.00788672 0.746958 0
M  V30 5117 H 466.204 0.723934 1.80956 0
M  V30 5118 H 465.3 -0.0606745 3.12041 0
M  V30 5119 N 465.601 -1.54893 0.290851 0
M  V30 5120 C 466.848 -1.99933 -0.321391 0
M  V30 5121 C 467.176 -1.17927 -1.54672 0
M  V30 5122 O 466.431 -0.240902 -1.94212 0
M  V30 5123 C 466.73 -3.49815 -0.732397 0
M  V30 5124 C 466.396 -4.4921 0.390056 0
M  V30 5125 C 465.058 -4.76107 0.698223 0
M  V30 5126 C 467.41 -5.08453 1.14562 0
M  V30 5127 C 464.738 -5.59514 1.76526 0
M  V30 5128 C 467.09 -5.9302 2.2025 0
M  V30 5129 C 465.754 -6.18232 2.51684 0
M  V30 5130 H 465.024 -0.731608 -0.117605 0
M  V30 5131 H 467.671 -1.87107 0.407839 0
M  V30 5132 H 465.976 -3.60199 -1.54155 0
M  V30 5133 H 467.673 -3.82083 -1.21712 0
M  V30 5134 H 464.263 -4.28372 0.13976 0
M  V30 5135 H 468.447 -4.87683 0.920801 0
M  V30 5136 H 463.703 -5.77289 2.01364 0
M  V30 5137 H 467.877 -6.37955 2.7926 0
M  V30 5138 H 465.504 -6.82653 3.34499 0
M  V30 5139 N 467.08 -0.0183926 -1.57589 0
M  V30 5140 C 468.01 0.965596 -2.12599 0
M  V30 5141 C 468.991 1.34641 -1.0395 0
M  V30 5142 O 470.176 1.42693 -1.31729 0
M  V30 5143 C 467.306 2.25149 -2.64434 0
M  V30 5144 C 466.26 2.01175 -3.77773 0
M  V30 5145 C 465.586 3.35937 -4.15994 0
M  V30 5146 C 466.886 1.35953 -5.04296 0
M  V30 5147 H 468.58 0.507504 -2.95067 0
M  V30 5148 H 466.126 0.242671 -1.41941 0
M  V30 5149 H 468.079 2.94357 -3.01549 0
M  V30 5150 H 466.803 2.73105 -1.79112 0
M  V30 5151 H 465.462 1.34388 -3.4108 0
M  V30 5152 H 465.11 3.81631 -3.27669 0
M  V30 5153 H 464.81 3.20705 -4.92364 0
M  V30 5154 H 466.334 4.0643 -4.55683 0
M  V30 5155 H 467.748 1.95144 -5.39065 0
M  V30 5156 H 466.145 1.31152 -5.85593 0
M  V30 5157 H 467.215 0.331071 -4.83768 0
M  V30 5158 N 468.558 1.5553 0.254621 0
M  V30 5159 C 469.505 1.89666 1.31512 0
M  V30 5160 C 470.475 0.750057 1.482 0
M  V30 5161 O 471.66 1.00301 1.62309 0
M  V30 5162 C 468.8 2.19009 2.667 0
M  V30 5163 C 467.913 3.46435 2.58083 0
M  V30 5164 C 467.048 3.65386 3.85573 0
M  V30 5165 C 466.087 4.8644 3.71541 0
M  V30 5166 N 465.224 5.01952 4.90906 0
M  V30 5167 H 470.064 2.80109 1.017 0
M  V30 5168 H 467.601 1.38666 0.490938 0
M  V30 5169 H 469.559 2.34025 3.45381 0
M  V30 5170 H 468.189 1.31779 2.94676 0
M  V30 5171 H 467.241 3.39792 1.71013 0
M  V30 5172 H 468.553 4.35258 2.43622 0
M  V30 5173 H 467.707 3.80319 4.72697 0
M  V30 5174 H 466.446 2.74781 4.02922 0
M  V30 5175 H 465.451 4.71491 2.82801 0
M  V30 5176 H 466.676 5.78497 3.55694 0
M  V30 5177 H 464.622 4.14283 5.08631 0
M  V30 5178 H 464.539 5.84851 4.79046 0
M  V30 5179 H 465.807 5.21289 5.7955 0
M  V30 5180 N 470.036 -0.519951 1.48776 0
M  V30 5181 C 471.285 -1.27175 1.56555 0
M  V30 5182 C 471.598 -1.9401 0.248869 0
M  V30 5183 O 472.804 -2.70725 0.205004 0
M  V30 5184 C 471.26 -2.30811 2.76142 0
M  V30 5185 C 470.868 -1.7 4.14493 0
M  V30 5186 C 472.612 -3.06937 2.9324 0
M  V30 5187 C 470.519 -2.71635 5.25327 0
M  V30 5188 H 469.449 -0.478329 0.582853 0
M  V30 5189 H 472.1 -0.547916 1.75129 0
M  V30 5190 H 470.482 -3.06274 2.51023 0
M  V30 5191 H 471.656 -1.00658 4.49672 0
M  V30 5192 H 469.971 -1.06331 4.02595 0
M  V30 5193 H 472.568 -3.82905 3.73213 0
M  V30 5194 H 472.911 -3.63409 2.03075 0
M  V30 5195 H 473.444 -2.38589 3.18308 0
M  V30 5196 H 470.183 -2.1997 6.1749 0
M  V30 5197 H 469.703 -3.39275 4.94624 0
M  V30 5198 H 471.382 -3.34429 5.53865 0
M  V30 5199 N 471.514 -1.37532 -0.769588 0
M  V30 5200 C 472.444 -1.36172 -1.89682 0
M  V30 5201 C 473.425 -0.23001 -1.68538 0
M  V30 5202 O 474.61 -0.43069 -1.89364 0
M  V30 5203 C 471.74 -1.1701 -3.26995 0
M  V30 5204 C 470.694 -2.27216 -3.62708 0
M  V30 5205 C 470.02 -1.93174 -4.98586 0
M  V30 5206 C 471.32 -3.6941 -3.69234 0
M  V30 5207 H 473.014 -2.30499 -1.91078 0
M  V30 5208 H 470.56 -1.10953 -0.917902 0
M  V30 5209 H 472.513 -1.14688 -4.05493 0
M  V30 5210 H 471.237 -0.191395 -3.26039 0
M  V30 5211 H 469.896 -2.28697 -2.86519 0
M  V30 5212 H 469.544 -0.938281 -4.94171 0
M  V30 5213 H 469.244 -2.66973 -5.23449 0
M  V30 5214 H 470.768 -1.92443 -5.79481 0
M  V30 5215 H 472.182 -3.70047 -4.37879 0
M  V30 5216 H 470.579 -4.4228 -4.05597 0
M  V30 5217 H 471.649 -4.0288 -2.69844 0
M  V30 5218 N 472.992 0.995999 -1.22138 0
M  V30 5219 C 473.955 2.06711 -0.990109 0
M  V30 5220 C 474.955 1.60744 0.0422978 0
M  V30 5221 O 476.145 1.73095 -0.195895 0
M  V30 5222 C 473.277 3.37288 -0.49491 0
M  V30 5223 H 474.47 2.28661 -1.94047 0
M  V30 5224 H 472.023 1.16711 -1.03963 0
M  V30 5225 H 472.758 3.21022 0.459948 0
M  V30 5226 H 472.543 3.71986 -1.23971 0
M  V30 5227 H 474.033 4.16103 -0.353253 0
M  V30 5228 N 474.47 1.03057 1.19235 0
M  V30 5229 C 475.403 0.557384 2.21288 0
M  V30 5230 C 476.381 -0.402675 1.57535 0
M  V30 5231 O 477.565 -0.319376 1.85775 0
M  V30 5232 C 474.692 -0.187041 3.38183 0
M  V30 5233 C 473.738 0.72471 4.20298 0
M  V30 5234 S 474.571 2.20187 4.88137 0
M  V30 5235 C 475.727 1.46801 6.08441 0
M  V30 5236 H 475.96 1.42207 2.61083 0
M  V30 5237 H 473.493 0.840651 1.29508 0
M  V30 5238 H 475.451 -0.610405 4.05936 0
M  V30 5239 H 474.112 -1.02748 2.96819 0
M  V30 5240 H 473.305 0.149911 5.03777 0
M  V30 5241 H 472.907 1.08647 3.57871 0
M  V30 5242 H 475.199 0.755522 6.73274 0
M  V30 5243 H 476.142 2.27946 6.70407 0
M  V30 5244 H 476.55 0.964762 5.56195 0
M  V30 5245 N 475.948 -1.35272 0.808662 0
M  V30 5246 C 476.898 -2.27181 0.193124 0
M  V30 5247 C 477.882 -1.47871 -0.634265 0
M  V30 5248 O 479.074 -1.70048 -0.491182 0
M  V30 5249 C 476.203 -3.36979 -0.655751 0
M  V30 5250 C 475.289 -4.23712 0.181481 0
M  V30 5251 N 475.68 -4.90225 1.24551 0
M  V30 5252 C 473.978 -4.45985 -0.0365493 0
M  V30 5253 C 474.679 -5.54537 1.75682 0
M  V30 5254 N 473.655 -5.33107 1.06294 0
M  V30 5255 H 477.457 -2.76101 1.00724 0
M  V30 5256 H 474.971 -1.48823 0.650029 0
M  V30 5257 H 476.968 -4.01774 -1.11279 0
M  V30 5258 H 475.628 -2.89611 -1.46819 0
M  V30 5259 H 476.639 -4.91641 1.62818 0
M  V30 5260 H 473.316 -4.09409 -0.817964 0
M  V30 5261 H 474.706 -6.17597 2.64621 0
M  V30 5262 N 477.426 -0.562348 -1.47226 0
M  V30 5263 C 478.674 -0.0401371 -2.0206 0
M  V30 5264 C 478.995 1.3165 -1.43852 0
M  V30 5265 O 478.265 1.85976 -0.615599 0
M  V30 5266 H 476.845 -0.0118479 -0.746906 0
M  V30 5267 H 479.507 -0.73352 -1.8057 0
M  V30 5268 H 478.603 0.0441254 -3.12069 0
M  V30 5269 N 478.904 1.54736 -0.299062 0
M  V30 5270 C 479.834 2.26409 0.571085 0
M  V30 5271 C 480.815 1.2629 1.13951 0
M  V30 5272 O 482 1.55059 1.16921 0
M  V30 5273 C 479.13 3.00338 1.74396 0
M  V30 5274 C 478.084 4.07588 1.30599 0
M  V30 5275 C 477.41 4.69222 2.56387 0
M  V30 5276 C 478.71 5.20455 0.438645 0
M  V30 5277 H 480.404 2.99388 -0.0266991 0
M  V30 5278 H 477.95 1.43993 -0.0142812 0
M  V30 5279 H 479.903 3.49198 2.35878 0
M  V30 5280 H 478.627 2.24934 2.36796 0
M  V30 5281 H 477.286 3.59575 0.71424 0
M  V30 5282 H 476.934 3.9046 3.17097 0
M  V30 5283 H 476.634 5.41653 2.27784 0
M  V30 5284 H 478.158 5.20844 3.18675 0
M  V30 5285 H 479.572 5.65221 0.959085 0
M  V30 5286 H 477.969 5.99594 0.246466 0
M  V30 5287 H 479.039 4.8192 -0.536738 0
M  V30 5288 N 480.382 0.0267497 1.57577 0
M  V30 5289 C 481.628 -0.653371 1.91987 0
M  V30 5290 C 481.961 -1.71915 0.903263 0
M  V30 5291 O 481.236 -1.94358 -0.0743387 0
M  V30 5292 C 481.519 -1.272 3.36886 0
M  V30 5293 C 481.372 -0.215938 4.49281 0
M  V30 5294 C 482.691 -2.19069 3.81703 0
M  V30 5295 H 479.81 -0.236047 0.698177 0
M  V30 5296 H 482.452 0.0835236 1.89816 0
M  V30 5297 H 480.602 -1.90005 3.38866 0
M  V30 5298 H 482.274 0.41449 4.59434 0
M  V30 5299 H 480.517 0.458855 4.31366 0
M  V30 5300 H 481.188 -0.688347 5.47691 0
M  V30 5301 H 483.664 -1.66253 3.81444 0
M  V30 5302 H 482.54 -2.59307 4.83788 0
M  V30 5303 H 482.801 -3.08087 3.17072 0
M  V30 5304 N 481.861 -1.55662 -0.24637 0
M  V30 5305 C 483.086 -1.81914 -0.996093 0
M  V30 5306 C 483.511 -0.603875 -1.78143 0
M  V30 5307 O 482.869 0.447091 -1.75701 0
M  V30 5308 C 482.917 -3.05908 -1.90925 0
M  V30 5309 O 482.021 -2.82861 -3.00105 0
M  V30 5310 H 481.362 -0.600481 -0.283406 0
M  V30 5311 H 483.892 -2.02848 -0.267199 0
M  V30 5312 H 483.902 -3.35356 -2.3238 0
M  V30 5313 H 482.577 -3.93999 -1.33183 0
M  V30 5314 H 481.154 -2.64583 -2.62775 0
M  V30 5315 N 483.339 0.512053 -1.4905 0
M  V30 5316 C 484.286 1.6148 -1.64902 0
M  V30 5317 C 485.256 1.58687 -0.490673 0
M  V30 5318 O 486.441 1.76842 -0.71636 0
M  V30 5319 C 483.581 2.99676 -1.71139 0
M  V30 5320 C 482.694 3.12568 -2.98203 0
M  V30 5321 C 481.829 4.4143 -2.95487 0
M  V30 5322 C 480.868 4.47916 -4.17179 0
M  V30 5323 N 480.005 5.68191 -4.12437 0
M  V30 5324 H 484.845 1.47271 -2.59066 0
M  V30 5325 H 482.382 0.716713 -1.28459 0
M  V30 5326 H 484.34 3.79761 -1.72736 0
M  V30 5327 H 482.97 3.12614 -0.804508 0
M  V30 5328 H 482.022 2.25618 -3.06269 0
M  V30 5329 H 483.334 3.1322 -3.88194 0
M  V30 5330 H 482.488 5.29825 -2.95585 0
M  V30 5331 H 481.227 4.43326 -2.03256 0
M  V30 5332 H 480.232 3.57925 -4.17337 0
M  V30 5333 H 481.457 4.47744 -5.1059 0
M  V30 5334 H 479.403 5.7095 -3.23036 0
M  V30 5335 H 479.32 5.70413 -4.96151 0
M  V30 5336 H 480.588 6.58823 -4.16621 0
M  V30 5337 N 484.817 1.37938 0.762283 0
M  V30 5338 C 485.727 1.36681 1.90671 0
M  V30 5339 C 486.743 0.265078 1.71969 0
M  V30 5340 O 487.919 0.502055 1.95042 0
M  V30 5341 C 484.984 1.18211 3.25925 0
M  V30 5342 C 484.045 2.3811 3.57214 0
M  V30 5343 C 483.278 2.20512 4.86014 0
M  V30 5344 O 483.501 1.19429 5.57757 0
M  V30 5345 O 482.435 3.08911 5.16583 0
M  V30 5346 H 486.261 2.33091 1.94685 0
M  V30 5347 H 483.846 1.18767 0.906356 0
M  V30 5348 H 485.728 1.09937 4.06807 0
M  V30 5349 H 484.403 0.248807 3.22742 0
M  V30 5350 H 483.31 2.51958 2.76529 0
M  V30 5351 H 484.643 3.30041 3.65149 0
M  V30 5352 N 486.295 -0.989507 1.22664 0
M  V30 5353 C 487.542 -1.72953 1.05325 0
M  V30 5354 C 487.87 -1.90104 -0.411168 0
M  V30 5355 O 487.125 -1.44386 -1.32103 0
M  V30 5356 C 487.424 -3.13649 1.71345 0
M  V30 5357 C 487.09 -3.16403 3.21248 0
M  V30 5358 C 485.752 -3.16862 3.62149 0
M  V30 5359 C 488.104 -3.12428 4.17179 0
M  V30 5360 C 485.432 -3.11051 4.97458 0
M  V30 5361 C 487.784 -3.08159 5.52468 0
M  V30 5362 C 486.448 -3.06935 5.92746 0
M  V30 5363 H 485.718 -0.632881 0.385412 0
M  V30 5364 H 488.365 -1.15863 1.52473 0
M  V30 5365 H 486.67 -3.74069 1.16532 0
M  V30 5366 H 488.367 -3.69658 1.55416 0
M  V30 5367 H 484.957 -3.16798 2.88682 0
M  V30 5368 H 489.141 -3.11221 3.86595 0
M  V30 5369 H 484.397 -3.0845 5.27891 0
M  V30 5370 H 488.571 -3.04039 6.26525 0
M  V30 5371 H 486.198 -3.02186 6.97558 0
M  V30 5372 N 487.773 -1.03688 -1.18687 0
M  V30 5373 C 488.703 -0.645407 -2.24403 0
M  V30 5374 C 489.684 0.349511 -1.66471 0
M  V30 5375 O 490.869 0.230453 -1.92828 0
M  V30 5376 C 487.999 -0.00365337 -3.473 0
M  V30 5377 C 486.953 -0.921705 -4.17958 0
M  V30 5378 C 486.279 -0.144629 -5.34504 0
M  V30 5379 C 487.579 -2.23909 -4.71871 0
M  V30 5380 H 489.273 -1.52917 -2.57404 0
M  V30 5381 H 486.819 -0.736711 -1.23728 0
M  V30 5382 H 488.772 0.281908 -4.20456 0
M  V30 5383 H 487.496 0.914963 -3.13522 0
M  V30 5384 H 486.155 -1.19159 -3.46694 0
M  V30 5385 H 485.803 0.776274 -4.96974 0
M  V30 5386 H 485.503 -0.756206 -5.82714 0
M  V30 5387 H 487.027 0.134004 -6.10453 0
M  V30 5388 H 488.441 -2.0145 -5.36741 0
M  V30 5389 H 486.838 -2.8033 -5.30599 0
M  V30 5390 H 487.908 -2.88822 -3.895 0
M  V30 5391 N 489.251 1.34841 -0.815825 0
M  V30 5392 C 490.214 2.27959 -0.238185 0
M  V30 5393 C 491.214 1.49983 0.579816 0
M  V30 5394 O 492.404 1.69617 0.396953 0
M  V30 5395 C 489.536 3.34314 0.666876 0
M  V30 5396 H 490.729 2.80558 -1.05958 0
M  V30 5397 H 488.282 1.44852 -0.587156 0
M  V30 5398 H 489.017 2.86916 1.5116 0
M  V30 5399 H 488.802 3.92014 0.0819106 0
M  V30 5400 H 490.292 4.0379 1.06506 0
M  V30 5401 N 490.729 0.570148 1.46925 0
M  V30 5402 C 492.145 0.23087 1.57921 0
M  V30 5403 C 492.345 -1.26676 1.56702 0
M  V30 5404 O 491.401 -2.04774 1.47729 0
M  V30 5405 C 492.714 0.868973 2.8787 0
M  V30 5406 C 494.262 0.841397 3.01479 0
M  V30 5407 C 494.737 1.45881 4.34146 0
M  V30 5408 N 496.228 1.42258 4.40814 0
M  V30 5409 C 496.963 1.8698 5.42057 0
M  V30 5410 N 496.459 2.39618 6.50042 0
M  V30 5411 N 498.252 1.77972 5.33181 0
M  V30 5412 H 490.403 1.54301 1.45962 0
M  V30 5413 H 492.666 0.644224 0.69547 0
M  V30 5414 H 492.372 1.922 2.94537 0
M  V30 5415 H 492.246 0.369682 3.75384 0
M  V30 5416 H 494.633 -0.202973 2.94401 0
M  V30 5417 H 494.714 1.37858 2.15474 0
M  V30 5418 H 494.358 2.50231 4.4198 0
M  V30 5419 H 494.288 0.896958 5.18905 0
M  V30 5420 H 496.779 1.03768 3.63374 0
M  V30 5421 H 497.092 2.71633 7.23488 0
M  V30 5422 H 495.437 2.43636 6.50897 0
M  V30 5423 H 498.628 1.36617 4.4772 0
M  V30 5424 H 498.801 2.13143 6.11943 0
M  V30 5425 N 492.207 -1.54576 0.307264 0
M  V30 5426 C 493.157 -2.20467 -0.581249 0
M  V30 5427 C 494.141 -1.17972 -1.09414 0
M  V30 5428 O 495.333 -1.43667 -1.03387 0
M  V30 5429 C 492.462 -2.95369 -1.74963 0
M  V30 5430 C 491.548 -4.05186 -1.25241 0
M  V30 5431 N 491.939 -5.03577 -0.47364 0
M  V30 5432 C 490.237 -4.18841 -1.53259 0
M  V30 5433 C 490.938 -5.81328 -0.208083 0
M  V30 5434 N 489.914 -5.37834 -0.789651 0
M  V30 5435 H 493.716 -2.93892 0.0212221 0
M  V30 5436 H 491.23 -1.62011 0.112325 0
M  V30 5437 H 493.227 -3.41046 -2.39777 0
M  V30 5438 H 491.887 -2.23461 -2.35574 0
M  V30 5439 H 492.898 -5.17766 -0.117963 0
M  V30 5440 H 489.575 -3.58141 -2.14573 0
M  V30 5441 H 490.965 -6.706 0.417793 0
M  V30 5442 N 493.685 -0.035106 -1.57561 0
M  V30 5443 C 495.101 0.321334 -1.56332 0
M  V30 5444 C 495.301 1.72509 -1.04129 0
M  V30 5445 O 494.357 2.4287 -0.690694 0
M  V30 5446 C 495.67 0.164469 -3.0025 0
M  V30 5447 C 497.218 0.236786 -3.12103 0
M  V30 5448 C 497.693 0.10864 -4.57871 0
M  V30 5449 N 499.184 0.165433 -4.62904 0
M  V30 5450 C 499.919 0.0901506 -5.73329 0
M  V30 5451 N 499.415 -0.0365606 -6.9279 0
M  V30 5452 N 501.208 0.144572 -5.61914 0
M  V30 5453 H 493.359 -0.952976 -1.89821 0
M  V30 5454 H 495.622 -0.368537 -0.873432 0
M  V30 5455 H 495.328 -0.802746 -3.42416 0
M  V30 5456 H 495.202 0.932194 -3.655 0
M  V30 5457 H 497.589 1.19446 -2.69845 0
M  V30 5458 H 497.67 -0.561419 -2.49563 0
M  V30 5459 H 497.314 -0.845644 -5.00811 0
M  V30 5460 H 497.244 0.925786 -5.18398 0
M  V30 5461 H 499.735 0.263269 -3.76982 0
M  V30 5462 H 500.048 -0.0871487 -7.72751 0
M  V30 5463 H 498.393 -0.0714256 -6.94963 0
M  V30 5464 H 501.584 0.242006 -4.67474 0
M  V30 5465 H 501.757 0.0824413 -6.47948 0
M  V30 5466 N 495.163 1.55791 0.238111 0
M  V30 5467 C 496.409 1.78297 0.966337 0
M  V30 5468 C 496.742 0.601903 1.84637 0
M  V30 5469 O 496.017 -0.399499 1.90353 0
M  V30 5470 C 496.3 3.10758 1.81939 0
M  V30 5471 C 496.153 4.39283 0.966958 0
M  V30 5472 C 497.472 3.39519 2.80027 0
M  V30 5473 H 494.591 0.648654 0.349882 0
M  V30 5474 H 497.233 1.88525 0.236253 0
M  V30 5475 H 495.383 3.02168 2.44185 0
M  V30 5476 H 497.055 4.59873 0.362514 0
M  V30 5477 H 495.298 4.32948 0.271669 0
M  V30 5478 H 495.969 5.28368 1.59784 0
M  V30 5479 H 498.445 3.48128 2.27917 0
M  V30 5480 H 497.321 4.33402 3.36829 0
M  V30 5481 H 497.582 2.60864 3.56934 0
M  V30 5482 N 496.642 -0.504142 1.49319 0
M  V30 5483 C 497.87 -1.28256 1.62351 0
M  V30 5484 C 498.285 -1.86502 0.293682 0
M  V30 5485 O 497.642 -1.67678 -0.720449 0
M  V30 5486 C 497.693 -2.41507 2.68992 0
M  V30 5487 O 497.414 -1.85656 3.96817 0
M  V30 5488 C 498.915 -3.32929 2.927 0
M  V30 5489 H 496.135 -0.389115 0.546654 0
M  V30 5490 H 498.679 -0.605531 1.95329 0
M  V30 5491 H 496.834 -3.05046 2.38801 0
M  V30 5492 H 497.248 -2.59981 4.55533 0
M  V30 5493 H 498.722 -4.0868 3.71058 0
M  V30 5494 H 499.199 -3.89733 2.02496 0
M  V30 5495 H 499.805 -2.75158 3.24296 0
M  V30 5496 N 498.12 -1.38341 -0.754957 0
M  V30 5497 C 499.345 -1.37882 -1.5493 0
M  V30 5498 C 499.77 0.0296385 -1.88077 0
M  V30 5499 O 499.128 1.01133 -1.50472 0
M  V30 5500 C 499.176 -2.23996 -2.82592 0
M  V30 5501 O 498.28 -1.65612 -3.77686 0
M  V30 5502 H 497.621 -0.470384 -0.468652 0
M  V30 5503 H 500.151 -1.82084 -0.933082 0
M  V30 5504 H 500.161 -2.37806 -3.3153 0
M  V30 5505 H 498.836 -3.26365 -2.57796 0
M  V30 5506 H 497.413 -1.60936 -3.36384 0
M  V30 5507 N 499.598 0.982988 -1.23187 0
M  V30 5508 C 500.828 1.75666 -1.08743 0
M  V30 5509 C 501.236 1.85662 0.364195 0
M  V30 5510 O 500.579 1.33317 1.26382 0
M  V30 5511 C 500.641 3.20144 -1.63549 0
M  V30 5512 C 500.305 3.33665 -3.12277 0
M  V30 5513 C 501.302 3.20194 -4.096 0
M  V30 5514 C 498.987 3.58397 -3.51933 0
M  V30 5515 C 500.981 3.31256 -5.44563 0
M  V30 5516 C 498.668 3.69098 -4.87042 0
M  V30 5517 C 499.666 3.55537 -5.83166 0
M  V30 5518 O 499.354 3.65864 -7.1582 0
M  V30 5519 H 499.086 0.558194 -0.381307 0
M  V30 5520 H 501.64 1.24387 -1.63454 0
M  V30 5521 H 499.87 3.72659 -1.03256 0
M  V30 5522 H 501.559 3.79262 -1.4462 0
M  V30 5523 H 502.325 3.00987 -3.80305 0
M  V30 5524 H 498.204 3.68025 -2.77631 0
M  V30 5525 H 501.748 3.20588 -6.19572 0
M  V30 5526 H 497.645 3.87814 -5.16014 0
M  V30 5527 H 498.413 3.82675 -7.23534 0
M  V30 5528 N 501.076 1.04316 1.18135 0
M  V30 5529 C 502.304 0.768117 1.92113 0
M  V30 5530 C 502.719 -0.675057 1.76319 0
M  V30 5531 O 502.076 -1.46038 1.09449 0
M  V30 5532 C 502.127 1.12808 3.43448 0
M  V30 5533 O 501.848 2.5146 3.58747 0
M  V30 5534 C 503.349 0.8779 4.3452 0
M  V30 5535 H 500.569 0.279937 0.609817 0
M  V30 5536 H 503.113 1.39149 1.49859 0
M  V30 5537 H 501.268 0.549623 3.83481 0
M  V30 5538 H 501.682 2.65313 4.52448 0
M  V30 5539 H 503.156 1.17959 5.39249 0
M  V30 5540 H 503.633 -0.187239 4.38801 0
M  V30 5541 H 504.239 1.43977 4.00188 0
M  V30 5542 N 502.554 -1.34406 0.822964 0
M  V30 5543 C 503.779 -2.0304 0.423034 0
M  V30 5544 C 504.204 -1.61568 -0.963196 0
M  V30 5545 O 503.562 -0.800339 -1.62678 0
M  V30 5546 C 503.61 -3.56636 0.53321 0
M  V30 5547 O 502.714 -4.09971 -0.446939 0
M  V30 5548 H 502.055 -0.64075 0.174171 0
M  V30 5549 H 504.585 -1.71653 1.11339 0
M  V30 5550 H 504.595 -4.05945 0.408991 0
M  V30 5551 H 503.27 -3.86168 1.54425 0
M  V30 5552 H 501.847 -3.71835 -0.281601 0
M  V30 5553 N 504.032 -0.577932 -1.46621 0
M  V30 5554 C 505.257 -0.0652536 -2.07297 0
M  V30 5555 C 505.682 1.22828 -1.4246 0
M  V30 5556 O 505.04 1.74075 -0.506718 0
M  V30 5557 C 505.088 0.0920589 -3.60482 0
M  V30 5558 O 504.192 1.14972 -3.96049 0
M  V30 5559 H 503.533 -0.06065 -0.661224 0
M  V30 5560 H 506.063 -0.799515 -1.88332 0
M  V30 5561 H 506.073 0.299741 -4.06897 0
M  V30 5562 H 504.748 -0.852612 -4.07067 0
M  V30 5563 H 503.325 0.920879 -3.61351 0
M  V30 5564 N 505.51 1.54411 -0.315457 0
M  V30 5565 C 506.735 2.05299 0.294496 0
M  V30 5566 C 507.16 1.19052 1.4563 0
M  V30 5567 O 506.518 0.197804 1.80218 0
M  V30 5568 C 506.566 3.5345 0.714549 0
M  V30 5569 O 505.67 3.70175 1.81781 0
M  V30 5570 H 505.011 0.661743 0.0547019 0
M  V30 5571 H 507.541 1.99327 -0.461508 0
M  V30 5572 H 507.551 3.9557 0.999426 0
M  V30 5573 H 506.226 4.1568 -0.135244 0
M  V30 5574 H 504.803 3.3996 1.53236 0
M  V30 5575 N 506.988 0.0434614 1.5754 0
M  V30 5576 C 508.234 -0.632971 1.92669 0
M  V30 5577 C 508.567 -1.70947 0.921446 0
M  V30 5578 O 507.842 -1.94426 -0.0537202 0
M  V30 5579 C 508.125 -1.23619 3.38216 0
M  V30 5580 C 507.978 -0.168274 4.49485 0
M  V30 5581 C 509.297 -2.15008 3.84005 0
M  V30 5582 H 506.416 -0.228629 0.700641 0
M  V30 5583 H 509.058 0.103651 1.89717 0
M  V30 5584 H 507.208 -1.864 3.40863 0
M  V30 5585 H 508.88 0.463196 4.58969 0
M  V30 5586 H 507.123 0.504581 4.30855 0
M  V30 5587 H 507.794 -0.630218 5.48391 0
M  V30 5588 H 510.27 -1.62198 3.83185 0
M  V30 5589 H 509.146 -2.54161 4.86511 0
M  V30 5590 H 509.407 -3.04707 3.20322 0
M  V30 5591 N 508.466 -1.55915 -0.229846 0
M  V30 5592 C 509.414 -1.9258 -1.30444 0
M  V30 5593 C 510.408 -0.806839 -1.48951 0
M  V30 5594 O 511.614 -0.991606 -1.50224 0
M  V30 5595 H 507.989 -0.611878 -0.437161 0
M  V30 5596 H 509.96 -2.82264 -0.96797 0
M  V30 5597 C 508.709 -2.25171 -2.6494 0
M  V30 5598 H 508.032 -3.10782 -2.51504 0
M  V30 5599 H 509.472 -2.54716 -3.38963 0
M  V30 5600 C 507.931 -1.07394 -3.19324 0
M  V30 5601 O 508.461 -0.330759 -4.00336 0
M  V30 5602 N 506.667 -0.859984 -2.77584 0
M  V30 5603 H 506.214 -1.46605 -2.11813 0
M  V30 5604 H 506.172 -0.0736671 -3.14314 0
M  V30 5605 N 509.944 0.496216 -1.49584 0
M  V30 5606 C 511.19 1.25189 -1.59548 0
M  V30 5607 C 511.523 1.9212 -0.283466 0
M  V30 5608 O 510.798 1.80947 0.713324 0
M  V30 5609 C 511.081 2.31516 -2.75812 0
M  V30 5610 C 510.934 1.69054 -4.16822 0
M  V30 5611 C 512.253 3.3304 -2.87702 0
M  V30 5612 H 509.372 0.45379 -0.580727 0
M  V30 5613 H 512.014 0.549327 -1.81886 0
M  V30 5614 H 510.164 2.91438 -2.56897 0
M  V30 5615 H 511.836 1.12923 -4.47265 0
M  V30 5616 H 510.079 0.994485 -4.22247 0
M  V30 5617 H 510.75 2.462 -4.94054 0
M  V30 5618 H 513.226 2.83114 -3.04936 0
M  V30 5619 H 512.102 4.04794 -3.7072 0
M  V30 5620 H 512.363 3.95655 -1.97255 0
M  V30 5621 N 511.423 1.38739 0.74761 0
M  V30 5622 C 512.648 1.38702 1.54197 0
M  V30 5623 C 513.073 -0.019664 1.8809 0
M  V30 5624 O 512.431 -1.00333 1.51006 0
M  V30 5625 C 512.479 2.25492 2.814 0
M  V30 5626 O 511.583 1.67613 3.76802 0
M  V30 5627 H 510.924 0.472863 0.466151 0
M  V30 5628 H 513.454 1.82577 0.923413 0
M  V30 5629 H 513.464 2.39561 3.30264 0
M  V30 5630 H 512.139 3.27727 2.56062 0
M  V30 5631 H 510.716 1.62718 3.35526 0
M  V30 5632 N 512.901 -0.976442 1.23707 0
M  V30 5633 C 514.126 -1.75875 1.09922 0
M  V30 5634 C 514.551 -1.84911 -0.34489 0
M  V30 5635 O 513.909 -1.31363 -1.24954 0
M  V30 5636 C 513.957 -3.16179 1.73388 0
M  V30 5637 O 513.061 -4.00124 0.99871 0
M  V30 5638 H 512.402 -0.540954 0.385052 0
M  V30 5639 H 514.932 -1.22546 1.6384 0
M  V30 5640 H 514.942 -3.66741 1.78788 0
M  V30 5641 H 513.617 -3.08917 2.78466 0
M  V30 5642 H 512.194 -3.58624 1.02193 0
M  V30 5643 N 514.379 -1.04941 -1.1758 0
M  V30 5644 C 515.327 -0.64204 -2.23563 0
M  V30 5645 C 516.321 0.335453 -1.66045 0
M  V30 5646 O 517.527 0.20179 -1.78865 0
M  V30 5647 H 513.902 -0.18944 -0.727748 0
M  V30 5648 H 515.873 -1.54609 -2.55223 0
M  V30 5649 C 514.622 -0.0301051 -3.47687 0
M  V30 5650 H 513.945 -0.773339 -3.92249 0
M  V30 5651 H 515.385 0.217592 -4.23441 0
M  V30 5652 C 513.844 1.2225 -3.13937 0
M  V30 5653 O 514.374 2.3122 -3.28482 0
M  V30 5654 N 512.58 1.11917 -2.68185 0
M  V30 5655 H 512.127 0.232403 -2.5655 0
M  V30 5656 H 512.085 1.95814 -2.45976 0
M  V30 5657 N 515.857 1.33968 -0.830081 0
M  V30 5658 C 516.787 2.31911 -0.271911 0
M  V30 5659 C 517.768 1.58571 0.61556 0
M  V30 5660 O 518.953 1.86514 0.540946 0
M  V30 5661 C 516.083 3.42737 0.561146 0
M  V30 5662 C 515.037 4.27383 -0.229789 0
M  V30 5663 C 514.363 5.29742 0.726463 0
M  V30 5664 C 515.663 5.02 -1.44197 0
M  V30 5665 H 517.357 2.78844 -1.09025 0
M  V30 5666 H 514.903 1.34061 -0.52571 0
M  V30 5667 H 516.856 4.10276 0.961867 0
M  V30 5668 H 515.58 2.94471 1.41261 0
M  V30 5669 H 514.239 3.61456 -0.611964 0
M  V30 5670 H 513.887 4.77736 1.57408 0
M  V30 5671 H 513.587 5.87255 0.20142 0
M  V30 5672 H 515.111 6.00149 1.12489 0
M  V30 5673 H 516.525 5.62355 -1.11488 0
M  V30 5674 H 514.922 5.69122 -1.90317 0
M  V30 5675 H 515.992 4.31281 -2.2164 0
M  V30 5676 O 517.374 0.726383 1.44243 0
M  V30 5677 H 518.065 0.275111 1.91736 0
M  V30 END ATOM
M  V30 BEGIN BOND
M  V30 END BOND
M  V30 END CTAB
M  END
$$$$
